
     RDKit          3D

 54 58  0  0  0  0  0  0  0  0999 V2000
  140.5700   74.3940  221.9550 O   0  0  0  0  0  0  0  0  0  0  0  0
  140.6330   75.6180  221.6300 C   0  0  0  0  0  0  0  0  0  0  0  0
  141.7410   76.0820  220.8830 N   0  0  0  0  0  0  0  0  0  0  0  0
  142.8360   75.2320  220.4530 C   0  0  0  0  0  0  0  0  0  0  0  0
  142.7740   75.0570  218.9800 C   0  0  0  0  0  0  0  0  0  0  0  0
  143.3390   74.1050  218.3760 O   0  0  0  0  0  0  0  0  0  0  0  0
  142.0540   75.9810  218.1760 N   0  0  0  0  0  0  0  0  0  0  0  0
  140.6220   75.9620  217.9420 C   0  0  0  0  0  0  0  0  0  0  0  0
  140.4680   76.5120  216.5410 C   0  0  0  0  0  0  0  0  0  0  0  0
  141.8840   76.8750  216.0830 C   0  0  0  0  0  0  0  0  0  0  0  0
  142.5480   77.1250  217.4200 C   0  0  1  0  0  0  0  0  0  0  0  0
  142.0260   78.3800  218.0720 C   0  0  0  0  0  0  0  0  0  0  0  0
  141.3010   79.3040  217.3590 C   0  0  0  0  0  0  0  0  0  0  0  0
  140.9320   80.6060  218.6380 S   0  0  0  0  0  0  0  0  0  0  0  0
  141.8230   79.6700  219.9050 C   0  0  0  0  0  0  0  0  0  0  0  0
  141.9320   80.2030  221.3340 C   0  0  0  0  0  0  0  0  0  0  0  0
  141.4650   81.4760  221.5850 C   0  0  0  0  0  0  0  0  0  0  0  0
  141.5560   81.9750  222.8700 C   0  0  0  0  0  0  0  0  0  0  0  0
  142.1130   81.1760  223.8570 C   0  0  0  0  0  0  0  0  0  0  0  0
  142.5730   79.9010  223.5730 C   0  0  0  0  0  0  0  0  0  0  0  0
  142.4890   79.3910  222.2970 C   0  0  0  0  0  0  0  0  0  0  0  0
  142.2100   78.6910  219.3300 N   0  0  0  0  0  0  0  0  0  0  0  0
  139.5740   76.5560  222.0200 C   0  0  0  0  0  0  0  0  0  0  0  0
  138.2620   76.3080  221.6850 C   0  0  0  0  0  0  0  0  0  0  0  0
  137.2490   77.2000  222.0540 C   0  0  0  0  0  0  0  0  0  0  0  0
  137.6330   78.3380  222.7700 C   0  0  0  0  0  0  0  0  0  0  0  0
  136.6690   79.2280  223.1450 C   0  0  0  0  0  0  0  0  0  0  0  0
  137.0890   80.3530  223.8590 C   0  0  0  0  0  0  0  0  0  0  0  0
  136.1570   81.2540  224.2460 F   0  0  0  0  0  0  0  0  0  0  0  0
  138.3910   80.5880  224.1850 C   0  0  0  0  0  0  0  0  0  0  0  0
  139.3510   79.6760  223.7970 C   0  0  0  0  0  0  0  0  0  0  0  0
  138.9530   78.5620  223.0920 C   0  0  0  0  0  0  0  0  0  0  0  0
  139.8680   77.6580  222.7020 N   0  0  0  0  0  0  0  0  0  0  0  0
  141.7470   77.1160  220.6360 H   0  0  0  0  0  0  0  0  0  0  0  0
  143.7932   75.6994  220.7273 H   0  0  0  0  0  0  0  0  0  0  0  0
  142.7547   74.2509  220.9438 H   0  0  0  0  0  0  0  0  0  0  0  0
  140.2301   74.9360  218.0037 H   0  0  0  0  0  0  0  0  0  0  0  0
  140.0651   76.5476  218.6883 H   0  0  0  0  0  0  0  0  0  0  0  0
  140.0323   75.7519  215.8758 H   0  0  0  0  0  0  0  0  0  0  0  0
  139.7967   77.3831  216.5172 H   0  0  0  0  0  0  0  0  0  0  0  0
  142.3612   76.0452  215.5410 H   0  0  0  0  0  0  0  0  0  0  0  0
  141.9370   77.7185  215.3789 H   0  0  0  0  0  0  0  0  0  0  0  0
  143.6401   77.2393  217.3541 H   0  0  0  0  0  0  0  0  0  0  0  0
  141.0111   79.2805  216.2981 H   0  0  0  0  0  0  0  0  0  0  0  0
  141.0285   82.0824  220.7777 H   0  0  0  0  0  0  0  0  0  0  0  0
  141.1936   82.9865  223.1056 H   0  0  0  0  0  0  0  0  0  0  0  0
  142.1909   81.5619  224.8841 H   0  0  0  0  0  0  0  0  0  0  0  0
  143.0103   79.2891  224.3757 H   0  0  0  0  0  0  0  0  0  0  0  0
  142.8506   78.3802  222.0573 H   0  0  0  0  0  0  0  0  0  0  0  0
  138.0072   75.3986  221.1210 H   0  0  0  0  0  0  0  0  0  0  0  0
  136.1969   77.0141  221.7923 H   0  0  0  0  0  0  0  0  0  0  0  0
  135.6096   79.0670  222.8965 H   0  0  0  0  0  0  0  0  0  0  0  0
  138.6722   81.4900  224.7483 H   0  0  0  0  0  0  0  0  0  0  0  0
  140.4107   79.8353  224.0453 H   0  0  0  0  0  0  0  0  0  0  0  0
  1  2  2  0
  2  3  1  0
  3  4  1  0
  4  5  1  0
  5  6  2  0
  5  7  1  0
  7  8  1  0
  8  9  1  0
  9 10  1  0
 10 11  1  0
 11 12  1  0
 12 13  2  0
 13 14  1  0
 14 15  1  0
 15 16  1  0
 16 17  2  0
 17 18  1  0
 18 19  2  0
 19 20  1  0
 20 21  2  0
 15 22  2  0
  2 23  1  0
 23 24  2  0
 24 25  1  0
 25 26  2  0
 26 27  1  0
 27 28  2  0
 28 29  1  0
 28 30  1  0
 30 31  2  0
 31 32  1  0
 32 33  2  0
 11  7  1  0
 22 12  1  0
 33 23  1  0
 21 16  1  0
 32 26  1  0
  3 34  1  0
  4 35  1  0
  4 36  1  0
  8 37  1  0
  8 38  1  0
  9 39  1  0
  9 40  1  0
 10 41  1  0
 10 42  1  0
 11 43  1  6
 13 44  1  0
 17 45  1  0
 18 46  1  0
 19 47  1  0
 20 48  1  0
 21 49  1  0
 24 50  1  0
 25 51  1  0
 27 52  1  0
 30 53  1  0
 31 54  1  0
M  END
>  <smiles>  (1) 
O=C(NCC(=O)N1CCC[C@H]1c1csc(-c2ccccc2)n1)c1ccc2cc(F)ccc2n1

>  <score_type>  (1) 
oracle

>  <origin>  (1) 
autodockgpu

>  <m_score__min__energy>  (1) 
-9.4100000000000001

>  <m_primary>  (1) 
energy

>  <rmsd>  (1) 
6.545145578143322

>  <m_score__min__rmsd>  (1) 
6.545145578143322

>  <meeko>  (1) 
{"free_energy": -6.74, "intermolecular_energy": -8.53, "internal_energy": -3.76, "cluster_size": 3, "cluster_id": 9, "rank_in_cluster": 1}

>  <energy>  (1) 
-9.41

>  <cluster_rmsd>  (1) 
0.0

>  <cluster>  (1) 
1

$$$$

     RDKit          3D

 54 58  0  0  0  0  0  0  0  0999 V2000
  142.7600   76.4550  218.2550 O   0  0  0  0  0  0  0  0  0  0  0  0
  142.3720   76.9330  219.3630 C   0  0  0  0  0  0  0  0  0  0  0  0
  142.1810   76.0670  220.4650 N   0  0  0  0  0  0  0  0  0  0  0  0
  142.4050   74.6330  220.4110 C   0  0  0  0  0  0  0  0  0  0  0  0
  141.3650   73.9420  221.2140 C   0  0  0  0  0  0  0  0  0  0  0  0
  140.6580   74.5310  222.0770 O   0  0  0  0  0  0  0  0  0  0  0  0
  141.1210   72.5540  221.0330 N   0  0  0  0  0  0  0  0  0  0  0  0
  142.1330   71.5150  221.0000 C   0  0  0  0  0  0  0  0  0  0  0  0
  141.5720   70.4810  220.0490 C   0  0  0  0  0  0  0  0  0  0  0  0
  140.1920   71.0040  219.6390 C   0  0  0  0  0  0  0  0  0  0  0  0
  139.8550   71.8590  220.8420 C   0  0  1  0  0  0  0  0  0  0  0  0
  139.5930   71.0160  222.0640 C   0  0  0  0  0  0  0  0  0  0  0  0
  138.8310   69.8740  221.9920 C   0  0  0  0  0  0  0  0  0  0  0  0
  138.8470   69.2630  223.7500 S   0  0  0  0  0  0  0  0  0  0  0  0
  139.8780   70.6580  224.2680 C   0  0  0  0  0  0  0  0  0  0  0  0
  140.3150   70.8040  225.7260 C   0  0  0  0  0  0  0  0  0  0  0  0
  141.0290   71.9290  226.0760 C   0  0  0  0  0  0  0  0  0  0  0  0
  141.4330   72.0780  227.3890 C   0  0  0  0  0  0  0  0  0  0  0  0
  141.1040   71.0890  228.3030 C   0  0  0  0  0  0  0  0  0  0  0  0
  140.3850   69.9680  227.9200 C   0  0  0  0  0  0  0  0  0  0  0  0
  139.9760   69.8080  226.6150 C   0  0  0  0  0  0  0  0  0  0  0  0
  140.0500   71.2850  223.2610 N   0  0  0  0  0  0  0  0  0  0  0  0
  142.1180   78.3700  219.5160 C   0  0  0  0  0  0  0  0  0  0  0  0
  142.2100   79.2160  218.4340 C   0  0  0  0  0  0  0  0  0  0  0  0
  141.9700   80.5870  218.5760 C   0  0  0  0  0  0  0  0  0  0  0  0
  141.6360   81.0460  219.8540 C   0  0  0  0  0  0  0  0  0  0  0  0
  141.3940   82.3780  220.0270 C   0  0  0  0  0  0  0  0  0  0  0  0
  141.0640   82.8000  221.3170 C   0  0  0  0  0  0  0  0  0  0  0  0
  140.8180   84.1150  221.5200 F   0  0  0  0  0  0  0  0  0  0  0  0
  140.9760   81.9530  222.3810 C   0  0  0  0  0  0  0  0  0  0  0  0
  141.2230   80.6090  222.1860 C   0  0  0  0  0  0  0  0  0  0  0  0
  141.5500   80.1780  220.9200 C   0  0  0  0  0  0  0  0  0  0  0  0
  141.7960   78.8750  220.7030 N   0  0  0  0  0  0  0  0  0  0  0  0
  141.8550   76.5160  221.3710 H   0  0  0  0  0  0  0  0  0  0  0  0
  142.3496   74.2918  219.3667 H   0  0  0  0  0  0  0  0  0  0  0  0
  143.3997   74.4004  220.8190 H   0  0  0  0  0  0  0  0  0  0  0  0
  143.0879   71.9122  220.6254 H   0  0  0  0  0  0  0  0  0  0  0  0
  142.3439   71.1003  221.9968 H   0  0  0  0  0  0  0  0  0  0  0  0
  142.2213   70.3783  219.1670 H   0  0  0  0  0  0  0  0  0  0  0  0
  141.5080   69.4884  220.5187 H   0  0  0  0  0  0  0  0  0  0  0  0
  140.2413   71.6014  218.7167 H   0  0  0  0  0  0  0  0  0  0  0  0
  139.4536   70.2214  219.4104 H   0  0  0  0  0  0  0  0  0  0  0  0
  138.9635   72.4873  220.6991 H   0  0  0  0  0  0  0  0  0  0  0  0
  138.3357   69.4320  221.1149 H   0  0  0  0  0  0  0  0  0  0  0  0
  141.2729   72.6942  225.3244 H   0  0  0  0  0  0  0  0  0  0  0  0
  142.0044   72.9640  227.7028 H   0  0  0  0  0  0  0  0  0  0  0  0
  141.4194   71.1960  229.3513 H   0  0  0  0  0  0  0  0  0  0  0  0
  140.1385   69.1982  228.6661 H   0  0  0  0  0  0  0  0  0  0  0  0
  139.4039   68.9241  226.2966 H   0  0  0  0  0  0  0  0  0  0  0  0
  142.4752   78.8096  217.4468 H   0  0  0  0  0  0  0  0  0  0  0  0
  142.0409   81.2739  217.7197 H   0  0  0  0  0  0  0  0  0  0  0  0
  141.4560   83.0872  219.1884 H   0  0  0  0  0  0  0  0  0  0  0  0
  140.7125   82.3341  223.3787 H   0  0  0  0  0  0  0  0  0  0  0  0
  141.1600   79.8983  223.0233 H   0  0  0  0  0  0  0  0  0  0  0  0
  1  2  2  0
  2  3  1  0
  3  4  1  0
  4  5  1  0
  5  6  2  0
  5  7  1  0
  7  8  1  0
  8  9  1  0
  9 10  1  0
 10 11  1  0
 11 12  1  0
 12 13  2  0
 13 14  1  0
 14 15  1  0
 15 16  1  0
 16 17  2  0
 17 18  1  0
 18 19  2  0
 19 20  1  0
 20 21  2  0
 15 22  2  0
  2 23  1  0
 23 24  2  0
 24 25  1  0
 25 26  2  0
 26 27  1  0
 27 28  2  0
 28 29  1  0
 28 30  1  0
 30 31  2  0
 31 32  1  0
 32 33  2  0
 11  7  1  0
 22 12  1  0
 33 23  1  0
 21 16  1  0
 32 26  1  0
  3 34  1  0
  4 35  1  0
  4 36  1  0
  8 37  1  0
  8 38  1  0
  9 39  1  0
  9 40  1  0
 10 41  1  0
 10 42  1  0
 11 43  1  6
 13 44  1  0
 17 45  1  0
 18 46  1  0
 19 47  1  0
 20 48  1  0
 21 49  1  0
 24 50  1  0
 25 51  1  0
 27 52  1  0
 30 53  1  0
 31 54  1  0
M  END
>  <smiles>  (2) 
O=C(NCC(=O)N1CCC[C@H]1c1csc(-c2ccccc2)n1)c1ccc2cc(F)ccc2n1

>  <score_type>  (2) 
oracle

>  <origin>  (2) 
autodockgpu

>  <m_score__min__energy>  (2) 
-9.4100000000000001

>  <m_primary>  (2) 
energy

>  <rmsd>  (2) 
10.256881196178806

>  <m_score__min__rmsd>  (2) 
10.256881196178806

>  <meeko>  (2) 
{"free_energy": -8.6, "intermolecular_energy": -10.39, "internal_energy": -2.16, "cluster_size": 2, "cluster_id": 6, "rank_in_cluster": 1}

>  <energy>  (2) 
-9.4

>  <cluster_rmsd>  (2) 
0.23

>  <cluster>  (2) 
1

$$$$

     RDKit          3D

 54 58  0  0  0  0  0  0  0  0999 V2000
  141.0930   72.9300  221.8400 O   0  0  0  0  0  0  0  0  0  0  0  0
  140.0530   72.7110  222.5330 C   0  0  0  0  0  0  0  0  0  0  0  0
  138.9050   73.5130  222.3350 N   0  0  0  0  0  0  0  0  0  0  0  0
  138.8340   74.5960  221.3720 C   0  0  0  0  0  0  0  0  0  0  0  0
  138.9030   75.8960  222.0860 C   0  0  0  0  0  0  0  0  0  0  0  0
  138.0900   76.2260  222.9920 O   0  0  0  0  0  0  0  0  0  0  0  0
  139.9160   76.8390  221.7670 N   0  0  0  0  0  0  0  0  0  0  0  0
  141.0180   77.2210  222.6290 C   0  0  0  0  0  0  0  0  0  0  0  0
  141.2810   78.6680  222.2760 C   0  0  0  0  0  0  0  0  0  0  0  0
  140.3040   79.0000  221.1440 C   0  0  0  0  0  0  0  0  0  0  0  0
  140.0940   77.6230  220.5520 C   0  0  1  0  0  0  0  0  0  0  0  0
  141.3330   77.1270  219.8500 C   0  0  0  0  0  0  0  0  0  0  0  0
  141.8520   77.7930  218.7650 C   0  0  0  0  0  0  0  0  0  0  0  0
  143.3350   76.7590  218.3240 S   0  0  0  0  0  0  0  0  0  0  0  0
  142.9890   75.6130  219.6820 C   0  0  0  0  0  0  0  0  0  0  0  0
  143.8940   74.4060  219.9310 C   0  0  0  0  0  0  0  0  0  0  0  0
  145.1270   74.6320  220.5040 C   0  0  0  0  0  0  0  0  0  0  0  0
  145.9600   73.5530  220.7360 C   0  0  0  0  0  0  0  0  0  0  0  0
  145.5210   72.2860  220.3840 C   0  0  0  0  0  0  0  0  0  0  0  0
  144.2750   72.0920  219.8090 C   0  0  0  0  0  0  0  0  0  0  0  0
  143.4370   73.1570  219.5720 C   0  0  0  0  0  0  0  0  0  0  0  0
  142.0020   76.0570  220.1970 N   0  0  0  0  0  0  0  0  0  0  0  0
  140.0280   71.6380  223.5330 C   0  0  0  0  0  0  0  0  0  0  0  0
  139.5490   70.3890  223.2080 C   0  0  0  0  0  0  0  0  0  0  0  0
  139.5230   69.3630  224.1590 C   0  0  0  0  0  0  0  0  0  0  0  0
  140.0030   69.6670  225.4360 C   0  0  0  0  0  0  0  0  0  0  0  0
  139.9920   68.6890  226.3880 C   0  0  0  0  0  0  0  0  0  0  0  0
  140.4780   69.0290  227.6520 C   0  0  0  0  0  0  0  0  0  0  0  0
  140.4810   68.0790  228.6170 F   0  0  0  0  0  0  0  0  0  0  0  0
  140.9510   70.2680  227.9620 C   0  0  0  0  0  0  0  0  0  0  0  0
  140.9540   71.2450  226.9870 C   0  0  0  0  0  0  0  0  0  0  0  0
  140.4780   70.9250  225.7350 C   0  0  0  0  0  0  0  0  0  0  0  0
  140.4700   71.8570  224.7670 N   0  0  0  0  0  0  0  0  0  0  0  0
  138.0600   73.2880  222.9400 H   0  0  0  0  0  0  0  0  0  0  0  0
  139.6767   74.5181  220.6692 H   0  0  0  0  0  0  0  0  0  0  0  0
  137.8870   74.5319  220.8161 H   0  0  0  0  0  0  0  0  0  0  0  0
  140.7372   77.1226  223.6880 H   0  0  0  0  0  0  0  0  0  0  0  0
  141.9041   76.5849  222.4868 H   0  0  0  0  0  0  0  0  0  0  0  0
  141.0952   79.3153  223.1458 H   0  0  0  0  0  0  0  0  0  0  0  0
  142.3259   78.8294  221.9723 H   0  0  0  0  0  0  0  0  0  0  0  0
  139.3651   79.4246  221.5288 H   0  0  0  0  0  0  0  0  0  0  0  0
  140.6659   79.7560  220.4317 H   0  0  0  0  0  0  0  0  0  0  0  0
  139.2795   77.5815  219.8139 H   0  0  0  0  0  0  0  0  0  0  0  0
  141.4829   78.7082  218.2791 H   0  0  0  0  0  0  0  0  0  0  0  0
  145.4423   75.6513  220.7716 H   0  0  0  0  0  0  0  0  0  0  0  0
  146.9512   73.6971  221.1907 H   0  0  0  0  0  0  0  0  0  0  0  0
  146.1734   71.4189  220.5644 H   0  0  0  0  0  0  0  0  0  0  0  0
  143.9526   71.0755  219.5392 H   0  0  0  0  0  0  0  0  0  0  0  0
  142.4458   73.0174  219.1160 H   0  0  0  0  0  0  0  0  0  0  0  0
  139.1825   70.1954  222.1891 H   0  0  0  0  0  0  0  0  0  0  0  0
  139.1415   68.3611  223.9125 H   0  0  0  0  0  0  0  0  0  0  0  0
  139.6171   67.6783  226.1692 H   0  0  0  0  0  0  0  0  0  0  0  0
  141.3247   70.4866  228.9732 H   0  0  0  0  0  0  0  0  0  0  0  0
  141.3281   72.2562  227.2051 H   0  0  0  0  0  0  0  0  0  0  0  0
  1  2  2  0
  2  3  1  0
  3  4  1  0
  4  5  1  0
  5  6  2  0
  5  7  1  0
  7  8  1  0
  8  9  1  0
  9 10  1  0
 10 11  1  0
 11 12  1  0
 12 13  2  0
 13 14  1  0
 14 15  1  0
 15 16  1  0
 16 17  2  0
 17 18  1  0
 18 19  2  0
 19 20  1  0
 20 21  2  0
 15 22  2  0
  2 23  1  0
 23 24  2  0
 24 25  1  0
 25 26  2  0
 26 27  1  0
 27 28  2  0
 28 29  1  0
 28 30  1  0
 30 31  2  0
 31 32  1  0
 32 33  2  0
 11  7  1  0
 22 12  1  0
 33 23  1  0
 21 16  1  0
 32 26  1  0
  3 34  1  0
  4 35  1  0
  4 36  1  0
  8 37  1  0
  8 38  1  0
  9 39  1  0
  9 40  1  0
 10 41  1  0
 10 42  1  0
 11 43  1  6
 13 44  1  0
 17 45  1  0
 18 46  1  0
 19 47  1  0
 20 48  1  0
 21 49  1  0
 24 50  1  0
 25 51  1  0
 27 52  1  0
 30 53  1  0
 31 54  1  0
M  END
>  <smiles>  (3) 
O=C(NCC(=O)N1CCC[C@H]1c1csc(-c2ccccc2)n1)c1ccc2cc(F)ccc2n1

>  <score_type>  (3) 
oracle

>  <origin>  (3) 
autodockgpu

>  <m_score__min__energy>  (3) 
-9.4100000000000001

>  <m_primary>  (3) 
energy

>  <rmsd>  (3) 
5.207255649170969

>  <m_score__min__rmsd>  (3) 
5.207255649170969

>  <meeko>  (3) 
{"free_energy": -9.35, "intermolecular_energy": -11.14, "internal_energy": -1.99, "cluster_size": 8, "cluster_id": 1, "rank_in_cluster": 4}

>  <energy>  (3) 
-9.36

>  <cluster_rmsd>  (3) 
0.48

>  <cluster>  (3) 
1

$$$$

     RDKit          3D

 54 58  0  0  0  0  0  0  0  0999 V2000
  137.5860   75.7570  222.3420 O   0  0  0  0  0  0  0  0  0  0  0  0
  138.8210   76.0400  222.3100 C   0  0  0  0  0  0  0  0  0  0  0  0
  139.7480   75.0600  221.8840 N   0  0  0  0  0  0  0  0  0  0  0  0
  139.3710   73.7190  221.4730 C   0  0  0  0  0  0  0  0  0  0  0  0
  140.5770   72.8520  221.4580 C   0  0  0  0  0  0  0  0  0  0  0  0
  140.7150   71.8530  222.2150 O   0  0  0  0  0  0  0  0  0  0  0  0
  141.6470   73.1240  220.5630 N   0  0  0  0  0  0  0  0  0  0  0  0
  141.7160   72.7050  219.1760 C   0  0  0  0  0  0  0  0  0  0  0  0
  143.1930   72.4920  218.9270 C   0  0  0  0  0  0  0  0  0  0  0  0
  143.8920   72.8820  220.2340 C   0  0  0  0  0  0  0  0  0  0  0  0
  142.8830   73.8570  220.8030 C   0  0  1  0  0  0  0  0  0  0  0  0
  142.8350   75.1340  220.0020 C   0  0  0  0  0  0  0  0  0  0  0  0
  143.6840   75.3420  218.9420 C   0  0  0  0  0  0  0  0  0  0  0  0
  143.1880   77.0360  218.3500 S   0  0  0  0  0  0  0  0  0  0  0  0
  141.9240   77.1590  219.6400 C   0  0  0  0  0  0  0  0  0  0  0  0
  141.0500   78.4090  219.7560 C   0  0  0  0  0  0  0  0  0  0  0  0
  141.6770   79.6170  219.9720 C   0  0  0  0  0  0  0  0  0  0  0  0
  140.9030   80.7570  220.0800 C   0  0  0  0  0  0  0  0  0  0  0  0
  139.5270   80.6400  219.9670 C   0  0  0  0  0  0  0  0  0  0  0  0
  138.9260   79.4110  219.7500 C   0  0  0  0  0  0  0  0  0  0  0  0
  139.6850   78.2680  219.6410 C   0  0  0  0  0  0  0  0  0  0  0  0
  142.0110   76.1230  220.2370 N   0  0  0  0  0  0  0  0  0  0  0  0
  139.3000   77.3690  222.7070 C   0  0  0  0  0  0  0  0  0  0  0  0
  138.4070   78.3670  223.0270 C   0  0  0  0  0  0  0  0  0  0  0  0
  138.8600   79.6360  223.4050 C   0  0  0  0  0  0  0  0  0  0  0  0
  140.2440   79.8330  223.4430 C   0  0  0  0  0  0  0  0  0  0  0  0
  140.7180   81.0600  223.8090 C   0  0  0  0  0  0  0  0  0  0  0  0
  142.1050   81.2200  223.8340 C   0  0  0  0  0  0  0  0  0  0  0  0
  142.6070   82.4250  224.1930 F   0  0  0  0  0  0  0  0  0  0  0  0
  142.9790   80.2250  223.5150 C   0  0  0  0  0  0  0  0  0  0  0  0
  142.4800   78.9910  223.1480 C   0  0  0  0  0  0  0  0  0  0  0  0
  141.1150   78.8170  223.1180 C   0  0  0  0  0  0  0  0  0  0  0  0
  140.6020   77.6260  222.7640 N   0  0  0  0  0  0  0  0  0  0  0  0
  140.7710   75.3460  221.8750 H   0  0  0  0  0  0  0  0  0  0  0  0
  138.6344   73.3113  222.1809 H   0  0  0  0  0  0  0  0  0  0  0  0
  138.9295   73.7530  220.4661 H   0  0  0  0  0  0  0  0  0  0  0  0
  141.1555   71.7711  219.0220 H   0  0  0  0  0  0  0  0  0  0  0  0
  141.2747   73.4430  218.4900 H   0  0  0  0  0  0  0  0  0  0  0  0
  143.3933   71.4380  218.6842 H   0  0  0  0  0  0  0  0  0  0  0  0
  143.5532   73.0918  218.0782 H   0  0  0  0  0  0  0  0  0  0  0  0
  144.0347   72.0134  220.8936 H   0  0  0  0  0  0  0  0  0  0  0  0
  144.9056   73.2906  220.1087 H   0  0  0  0  0  0  0  0  0  0  0  0
  143.0905   74.1485  221.8432 H   0  0  0  0  0  0  0  0  0  0  0  0
  144.4621   74.6746  218.5430 H   0  0  0  0  0  0  0  0  0  0  0  0
  142.7723   79.6729  220.0568 H   0  0  0  0  0  0  0  0  0  0  0  0
  141.3702   81.7378  220.2523 H   0  0  0  0  0  0  0  0  0  0  0  0
  138.9001   81.5400  220.0512 H   0  0  0  0  0  0  0  0  0  0  0  0
  137.8312   79.3479  219.6639 H   0  0  0  0  0  0  0  0  0  0  0  0
  139.2216   77.2852  219.4696 H   0  0  0  0  0  0  0  0  0  0  0  0
  137.3266   78.1648  222.9851 H   0  0  0  0  0  0  0  0  0  0  0  0
  138.1581   80.4433  223.6611 H   0  0  0  0  0  0  0  0  0  0  0  0
  140.0388   81.8843  224.0720 H   0  0  0  0  0  0  0  0  0  0  0  0
  144.0642   80.4017  223.5492 H   0  0  0  0  0  0  0  0  0  0  0  0
  143.1581   78.1656  222.8855 H   0  0  0  0  0  0  0  0  0  0  0  0
  1  2  2  0
  2  3  1  0
  3  4  1  0
  4  5  1  0
  5  6  2  0
  5  7  1  0
  7  8  1  0
  8  9  1  0
  9 10  1  0
 10 11  1  0
 11 12  1  0
 12 13  2  0
 13 14  1  0
 14 15  1  0
 15 16  1  0
 16 17  2  0
 17 18  1  0
 18 19  2  0
 19 20  1  0
 20 21  2  0
 15 22  2  0
  2 23  1  0
 23 24  2  0
 24 25  1  0
 25 26  2  0
 26 27  1  0
 27 28  2  0
 28 29  1  0
 28 30  1  0
 30 31  2  0
 31 32  1  0
 32 33  2  0
 11  7  1  0
 22 12  1  0
 33 23  1  0
 21 16  1  0
 32 26  1  0
  3 34  1  0
  4 35  1  0
  4 36  1  0
  8 37  1  0
  8 38  1  0
  9 39  1  0
  9 40  1  0
 10 41  1  0
 10 42  1  0
 11 43  1  1
 13 44  1  0
 17 45  1  0
 18 46  1  0
 19 47  1  0
 20 48  1  0
 21 49  1  0
 24 50  1  0
 25 51  1  0
 27 52  1  0
 30 53  1  0
 31 54  1  0
M  END
>  <smiles>  (4) 
O=C(NCC(=O)N1CCC[C@H]1c1csc(-c2ccccc2)n1)c1ccc2cc(F)ccc2n1

>  <score_type>  (4) 
oracle

>  <origin>  (4) 
autodockgpu

>  <m_score__min__energy>  (4) 
-9.4100000000000001

>  <m_primary>  (4) 
energy

>  <rmsd>  (4) 
7.017961277817036

>  <m_score__min__rmsd>  (4) 
7.017961277817036

>  <meeko>  (4) 
{"free_energy": -6.33, "intermolecular_energy": -8.12, "internal_energy": -4.22, "cluster_size": 4, "cluster_id": 10, "rank_in_cluster": 2}

>  <energy>  (4) 
-9.35

>  <cluster_rmsd>  (4) 
0.36

>  <cluster>  (4) 
1

$$$$

     RDKit          3D

 54 58  0  0  0  0  0  0  0  0999 V2000
  137.8130   69.7940  222.0300 O   0  0  0  0  0  0  0  0  0  0  0  0
  138.1090   70.4190  223.0940 C   0  0  0  0  0  0  0  0  0  0  0  0
  137.7800   71.7900  223.2090 N   0  0  0  0  0  0  0  0  0  0  0  0
  137.1120   72.5480  222.1680 C   0  0  0  0  0  0  0  0  0  0  0  0
  137.9850   72.6120  220.9680 C   0  0  0  0  0  0  0  0  0  0  0  0
  137.8750   71.8190  219.9940 O   0  0  0  0  0  0  0  0  0  0  0  0
  139.0040   73.5980  220.8730 N   0  0  0  0  0  0  0  0  0  0  0  0
  139.3550   74.3380  219.6760 C   0  0  0  0  0  0  0  0  0  0  0  0
  140.8410   74.5850  219.8150 C   0  0  0  0  0  0  0  0  0  0  0  0
  141.2320   73.9930  221.1730 C   0  0  0  0  0  0  0  0  0  0  0  0
  139.9100   74.0890  221.9040 C   0  0  1  0  0  0  0  0  0  0  0  0
  139.5460   75.5210  222.2050 C   0  0  0  0  0  0  0  0  0  0  0  0
  138.2360   75.9050  222.3610 C   0  0  0  0  0  0  0  0  0  0  0  0
  138.3860   77.7280  222.7080 S   0  0  0  0  0  0  0  0  0  0  0  0
  140.1890   77.6440  222.5790 C   0  0  0  0  0  0  0  0  0  0  0  0
  141.0420   78.8990  222.7700 C   0  0  0  0  0  0  0  0  0  0  0  0
  141.7950   78.9990  223.9210 C   0  0  0  0  0  0  0  0  0  0  0  0
  142.5710   80.1260  224.1110 C   0  0  0  0  0  0  0  0  0  0  0  0
  142.5620   81.1130  223.1360 C   0  0  0  0  0  0  0  0  0  0  0  0
  141.7940   80.9840  221.9910 C   0  0  0  0  0  0  0  0  0  0  0  0
  141.0160   79.8660  221.7900 C   0  0  0  0  0  0  0  0  0  0  0  0
  140.4140   76.4910  222.3410 N   0  0  0  0  0  0  0  0  0  0  0  0
  138.7860   69.7370  224.2030 C   0  0  0  0  0  0  0  0  0  0  0  0
  138.8980   68.3650  224.2170 C   0  0  0  0  0  0  0  0  0  0  0  0
  139.5430   67.7110  225.2730 C   0  0  0  0  0  0  0  0  0  0  0  0
  140.0600   68.5120  226.2960 C   0  0  0  0  0  0  0  0  0  0  0  0
  140.6950   67.9060  227.3410 C   0  0  0  0  0  0  0  0  0  0  0  0
  141.1990   68.7370  228.3440 C   0  0  0  0  0  0  0  0  0  0  0  0
  141.8350   68.1660  229.3940 F   0  0  0  0  0  0  0  0  0  0  0  0
  141.0820   70.0940  228.3190 C   0  0  0  0  0  0  0  0  0  0  0  0
  140.4370   70.6890  227.2540 C   0  0  0  0  0  0  0  0  0  0  0  0
  139.9350   69.8830  226.2570 C   0  0  0  0  0  0  0  0  0  0  0  0
  139.3020   70.4360  225.2080 N   0  0  0  0  0  0  0  0  0  0  0  0
  138.0490   72.2670  224.1200 H   0  0  0  0  0  0  0  0  0  0  0  0
  136.1638   72.0556  221.9063 H   0  0  0  0  0  0  0  0  0  0  0  0
  136.9074   73.5668  222.5287 H   0  0  0  0  0  0  0  0  0  0  0  0
  139.1406   73.7457  218.7742 H   0  0  0  0  0  0  0  0  0  0  0  0
  138.7806   75.2705  219.5734 H   0  0  0  0  0  0  0  0  0  0  0  0
  141.3910   74.0837  219.0049 H   0  0  0  0  0  0  0  0  0  0  0  0
  141.0830   75.6563  219.7532 H   0  0  0  0  0  0  0  0  0  0  0  0
  141.5702   72.9504  221.0798 H   0  0  0  0  0  0  0  0  0  0  0  0
  142.0704   74.5015  221.6715 H   0  0  0  0  0  0  0  0  0  0  0  0
  139.8999   73.5555  222.8659 H   0  0  0  0  0  0  0  0  0  0  0  0
  137.3265   75.2896  222.2969 H   0  0  0  0  0  0  0  0  0  0  0  0
  141.7780   78.1967  224.6734 H   0  0  0  0  0  0  0  0  0  0  0  0
  143.1839   80.2386  225.0174 H   0  0  0  0  0  0  0  0  0  0  0  0
  143.1764   82.0148  223.2751 H   0  0  0  0  0  0  0  0  0  0  0  0
  141.8056   81.7826  221.2346 H   0  0  0  0  0  0  0  0  0  0  0  0
  140.4004   79.7503  220.8858 H   0  0  0  0  0  0  0  0  0  0  0  0
  138.4759   67.7763  223.3892 H   0  0  0  0  0  0  0  0  0  0  0  0
  139.6390   66.6155  225.2971 H   0  0  0  0  0  0  0  0  0  0  0  0
  140.8049   66.8126  227.3911 H   0  0  0  0  0  0  0  0  0  0  0  0
  141.4950   70.7056  229.1347 H   0  0  0  0  0  0  0  0  0  0  0  0
  140.3264   71.7822  227.2028 H   0  0  0  0  0  0  0  0  0  0  0  0
  1  2  2  0
  2  3  1  0
  3  4  1  0
  4  5  1  0
  5  6  2  0
  5  7  1  0
  7  8  1  0
  8  9  1  0
  9 10  1  0
 10 11  1  0
 11 12  1  0
 12 13  2  0
 13 14  1  0
 14 15  1  0
 15 16  1  0
 16 17  2  0
 17 18  1  0
 18 19  2  0
 19 20  1  0
 20 21  2  0
 15 22  2  0
  2 23  1  0
 23 24  2  0
 24 25  1  0
 25 26  2  0
 26 27  1  0
 27 28  2  0
 28 29  1  0
 28 30  1  0
 30 31  2  0
 31 32  1  0
 32 33  2  0
 11  7  1  0
 22 12  1  0
 33 23  1  0
 21 16  1  0
 32 26  1  0
  3 34  1  0
  4 35  1  0
  4 36  1  0
  8 37  1  0
  8 38  1  0
  9 39  1  0
  9 40  1  0
 10 41  1  0
 10 42  1  0
 11 43  1  1
 13 44  1  0
 17 45  1  0
 18 46  1  0
 19 47  1  0
 20 48  1  0
 21 49  1  0
 24 50  1  0
 25 51  1  0
 27 52  1  0
 30 53  1  0
 31 54  1  0
M  END
>  <smiles>  (5) 
O=C(NCC(=O)N1CCC[C@H]1c1csc(-c2ccccc2)n1)c1ccc2cc(F)ccc2n1

>  <score_type>  (5) 
oracle

>  <origin>  (5) 
autodockgpu

>  <m_score__min__energy>  (5) 
-9.4100000000000001

>  <m_primary>  (5) 
energy

>  <rmsd>  (5) 
2.7247790936767613

>  <m_score__min__rmsd>  (5) 
2.7247790936767613

>  <meeko>  (5) 
{"free_energy": -8.87, "intermolecular_energy": -10.66, "internal_energy": -1.91, "cluster_size": 10, "cluster_id": 2, "rank_in_cluster": 8}

>  <energy>  (5) 
-9.33

>  <cluster_rmsd>  (5) 
0.34

>  <cluster>  (5) 
1

$$$$

     RDKit          3D

 54 58  0  0  0  0  0  0  0  0999 V2000
  141.0770   72.6940  221.7400 O   0  0  0  0  0  0  0  0  0  0  0  0
  140.0800   72.5800  222.5150 C   0  0  0  0  0  0  0  0  0  0  0  0
  138.9620   73.4290  222.3390 N   0  0  0  0  0  0  0  0  0  0  0  0
  138.8780   74.4460  221.3070 C   0  0  0  0  0  0  0  0  0  0  0  0
  138.8520   75.7890  221.9410 C   0  0  0  0  0  0  0  0  0  0  0  0
  137.8920   76.1960  222.6500 O   0  0  0  0  0  0  0  0  0  0  0  0
  139.9390   76.6880  221.7670 N   0  0  0  0  0  0  0  0  0  0  0  0
  141.0460   76.8630  222.6880 C   0  0  0  0  0  0  0  0  0  0  0  0
  141.4230   78.3210  222.5410 C   0  0  0  0  0  0  0  0  0  0  0  0
  140.4990   78.8780  221.4540 C   0  0  0  0  0  0  0  0  0  0  0  0
  140.2020   77.6140  220.6740 C   0  0  1  0  0  0  0  0  0  0  0  0
  141.4170   77.1260  219.9260 C   0  0  0  0  0  0  0  0  0  0  0  0
  141.8980   77.8020  218.8300 C   0  0  0  0  0  0  0  0  0  0  0  0
  143.3660   76.7740  218.3310 S   0  0  0  0  0  0  0  0  0  0  0  0
  143.0680   75.6160  219.6900 C   0  0  0  0  0  0  0  0  0  0  0  0
  143.9830   74.4090  219.8980 C   0  0  0  0  0  0  0  0  0  0  0  0
  143.5530   73.1850  219.4320 C   0  0  0  0  0  0  0  0  0  0  0  0
  144.3670   72.0820  219.6130 C   0  0  0  0  0  0  0  0  0  0  0  0
  145.5840   72.2510  220.2550 C   0  0  0  0  0  0  0  0  0  0  0  0
  145.9880   73.4950  220.7130 C   0  0  0  0  0  0  0  0  0  0  0  0
  145.1870   74.6010  220.5400 C   0  0  0  0  0  0  0  0  0  0  0  0
  142.0990   76.0550  220.2420 N   0  0  0  0  0  0  0  0  0  0  0  0
  140.0720   71.5800  223.5890 C   0  0  0  0  0  0  0  0  0  0  0  0
  139.5960   70.3090  223.3580 C   0  0  0  0  0  0  0  0  0  0  0  0
  139.5860   69.3530  224.3800 C   0  0  0  0  0  0  0  0  0  0  0  0
  140.0790   69.7500  225.6270 C   0  0  0  0  0  0  0  0  0  0  0  0
  140.0840   68.8410  226.6460 C   0  0  0  0  0  0  0  0  0  0  0  0
  140.5830   69.2720  227.8770 C   0  0  0  0  0  0  0  0  0  0  0  0
  140.6010   68.3930  228.9060 F   0  0  0  0  0  0  0  0  0  0  0  0
  141.0510   70.5330  228.0930 C   0  0  0  0  0  0  0  0  0  0  0  0
  141.0390   71.4380  227.0510 C   0  0  0  0  0  0  0  0  0  0  0  0
  140.5500   71.0280  225.8310 C   0  0  0  0  0  0  0  0  0  0  0  0
  140.5260   71.8890  224.7990 N   0  0  0  0  0  0  0  0  0  0  0  0
  138.1530   73.2940  223.0140 H   0  0  0  0  0  0  0  0  0  0  0  0
  139.7525   74.3697  220.6441 H   0  0  0  0  0  0  0  0  0  0  0  0
  137.9602   74.2987  220.7189 H   0  0  0  0  0  0  0  0  0  0  0  0
  140.7340   76.6426  223.7196 H   0  0  0  0  0  0  0  0  0  0  0  0
  141.8858   76.1864  222.4714 H   0  0  0  0  0  0  0  0  0  0  0  0
  141.2660   78.8557  223.4894 H   0  0  0  0  0  0  0  0  0  0  0  0
  142.4835   78.4423  222.2751 H   0  0  0  0  0  0  0  0  0  0  0  0
  139.5852   79.3157  221.8822 H   0  0  0  0  0  0  0  0  0  0  0  0
  140.9313   79.6950  220.8577 H   0  0  0  0  0  0  0  0  0  0  0  0
  139.4041   77.7354  219.9265 H   0  0  0  0  0  0  0  0  0  0  0  0
  141.5116   78.7207  218.3646 H   0  0  0  0  0  0  0  0  0  0  0  0
  142.5812   73.0876  218.9260 H   0  0  0  0  0  0  0  0  0  0  0  0
  144.0550   71.0899  219.2546 H   0  0  0  0  0  0  0  0  0  0  0  0
  146.2412   71.3815  220.4037 H   0  0  0  0  0  0  0  0  0  0  0  0
  146.9586   73.5997  221.2199 H   0  0  0  0  0  0  0  0  0  0  0  0
  145.4945   75.5944  220.8985 H   0  0  0  0  0  0  0  0  0  0  0  0
  139.2195   70.0421  222.3595 H   0  0  0  0  0  0  0  0  0  0  0  0
  139.2071   68.3344  224.2100 H   0  0  0  0  0  0  0  0  0  0  0  0
  139.7118   67.8157  226.5036 H   0  0  0  0  0  0  0  0  0  0  0  0
  141.4325   70.8254  229.0824 H   0  0  0  0  0  0  0  0  0  0  0  0
  141.4116   72.4633  227.1920 H   0  0  0  0  0  0  0  0  0  0  0  0
  1  2  2  0
  2  3  1  0
  3  4  1  0
  4  5  1  0
  5  6  2  0
  5  7  1  0
  7  8  1  0
  8  9  1  0
  9 10  1  0
 10 11  1  0
 11 12  1  0
 12 13  2  0
 13 14  1  0
 14 15  1  0
 15 16  1  0
 16 17  2  0
 17 18  1  0
 18 19  2  0
 19 20  1  0
 20 21  2  0
 15 22  2  0
  2 23  1  0
 23 24  2  0
 24 25  1  0
 25 26  2  0
 26 27  1  0
 27 28  2  0
 28 29  1  0
 28 30  1  0
 30 31  2  0
 31 32  1  0
 32 33  2  0
 11  7  1  0
 22 12  1  0
 33 23  1  0
 21 16  1  0
 32 26  1  0
  3 34  1  0
  4 35  1  0
  4 36  1  0
  8 37  1  0
  8 38  1  0
  9 39  1  0
  9 40  1  0
 10 41  1  0
 10 42  1  0
 11 43  1  6
 13 44  1  0
 17 45  1  0
 18 46  1  0
 19 47  1  0
 20 48  1  0
 21 49  1  0
 24 50  1  0
 25 51  1  0
 27 52  1  0
 30 53  1  0
 31 54  1  0
M  END
>  <smiles>  (6) 
O=C(NCC(=O)N1CCC[C@H]1c1csc(-c2ccccc2)n1)c1ccc2cc(F)ccc2n1

>  <score_type>  (6) 
oracle

>  <origin>  (6) 
autodockgpu

>  <m_score__min__energy>  (6) 
-9.4100000000000001

>  <m_primary>  (6) 
energy

>  <rmsd>  (6) 
5.163210575340969

>  <m_score__min__rmsd>  (6) 
5.163210575340969

>  <meeko>  (6) 
{"free_energy": -9.4, "intermolecular_energy": -11.19, "internal_energy": -1.9, "cluster_size": 8, "cluster_id": 1, "rank_in_cluster": 2}

>  <energy>  (6) 
-9.27

>  <cluster_rmsd>  (6) 
0.39

>  <cluster>  (6) 
1

$$$$

     RDKit          3D

 54 58  0  0  0  0  0  0  0  0999 V2000
  139.9430   74.8090  221.9600 O   0  0  0  0  0  0  0  0  0  0  0  0
  140.4000   75.9420  221.6210 C   0  0  0  0  0  0  0  0  0  0  0  0
  141.7060   76.0320  221.0850 N   0  0  0  0  0  0  0  0  0  0  0  0
  142.5790   74.8880  220.8940 C   0  0  0  0  0  0  0  0  0  0  0  0
  142.5430   74.4740  219.4680 C   0  0  0  0  0  0  0  0  0  0  0  0
  142.9220   73.3390  219.0710 O   0  0  0  0  0  0  0  0  0  0  0  0
  142.0660   75.3690  218.4720 N   0  0  0  0  0  0  0  0  0  0  0  0
  140.6910   75.4780  218.0230 C   0  0  0  0  0  0  0  0  0  0  0  0
  140.8070   75.8690  216.5660 C   0  0  0  0  0  0  0  0  0  0  0  0
  142.3080   76.0190  216.2980 C   0  0  0  0  0  0  0  0  0  0  0  0
  142.8020   76.3530  217.6890 C   0  0  1  0  0  0  0  0  0  0  0  0
  142.3540   77.7270  218.1210 C   0  0  0  0  0  0  0  0  0  0  0  0
  141.8810   78.6410  217.2110 C   0  0  0  0  0  0  0  0  0  0  0  0
  141.4890   80.1140  218.2790 S   0  0  0  0  0  0  0  0  0  0  0  0
  142.0340   79.2320  219.7630 C   0  0  0  0  0  0  0  0  0  0  0  0
  141.9830   79.9100  221.1320 C   0  0  0  0  0  0  0  0  0  0  0  0
  141.4360   81.1730  221.2080 C   0  0  0  0  0  0  0  0  0  0  0  0
  141.3820   81.8010  222.4380 C   0  0  0  0  0  0  0  0  0  0  0  0
  141.8810   81.1360  223.5470 C   0  0  0  0  0  0  0  0  0  0  0  0
  142.4260   79.8670  223.4390 C   0  0  0  0  0  0  0  0  0  0  0  0
  142.4860   79.2300  222.2200 C   0  0  0  0  0  0  0  0  0  0  0  0
  142.3740   78.1570  219.3570 N   0  0  0  0  0  0  0  0  0  0  0  0
  139.5930   77.1570  221.7760 C   0  0  0  0  0  0  0  0  0  0  0  0
  138.7140   77.5440  220.7900 C   0  0  0  0  0  0  0  0  0  0  0  0
  137.9420   78.7030  220.9340 C   0  0  0  0  0  0  0  0  0  0  0  0
  138.1070   79.4340  222.1150 C   0  0  0  0  0  0  0  0  0  0  0  0
  137.3690   80.5690  222.2880 C   0  0  0  0  0  0  0  0  0  0  0  0
  137.5600   81.2740  223.4780 C   0  0  0  0  0  0  0  0  0  0  0  0
  136.8420   82.4030  223.6790 F   0  0  0  0  0  0  0  0  0  0  0  0
  138.4330   80.8800  224.4480 C   0  0  0  0  0  0  0  0  0  0  0  0
  139.1700   79.7300  224.2550 C   0  0  0  0  0  0  0  0  0  0  0  0
  138.9930   79.0240  223.0860 C   0  0  0  0  0  0  0  0  0  0  0  0
  139.6980   77.9000  222.8730 N   0  0  0  0  0  0  0  0  0  0  0  0
  142.0430   77.0030  220.8160 H   0  0  0  0  0  0  0  0  0  0  0  0
  143.6079   75.1609  221.1713 H   0  0  0  0  0  0  0  0  0  0  0  0
  142.2386   74.0556  221.5275 H   0  0  0  0  0  0  0  0  0  0  0  0
  140.1686   74.5157  218.1284 H   0  0  0  0  0  0  0  0  0  0  0  0
  140.1122   76.2062  218.6102 H   0  0  0  0  0  0  0  0  0  0  0  0
  140.3785   75.0861  215.9230 H   0  0  0  0  0  0  0  0  0  0  0  0
  140.2599   76.7983  216.3491 H   0  0  0  0  0  0  0  0  0  0  0  0
  142.7495   75.0837  215.9235 H   0  0  0  0  0  0  0  0  0  0  0  0
  142.5652   76.7618  215.5286 H   0  0  0  0  0  0  0  0  0  0  0  0
  143.8980   76.3385  217.7816 H   0  0  0  0  0  0  0  0  0  0  0  0
  141.7633   78.5300  216.1230 H   0  0  0  0  0  0  0  0  0  0  0  0
  141.0498   81.6716  220.3068 H   0  0  0  0  0  0  0  0  0  0  0  0
  140.9515   82.8086  222.5349 H   0  0  0  0  0  0  0  0  0  0  0  0
  141.8435   81.6252  224.5315 H   0  0  0  0  0  0  0  0  0  0  0  0
  142.8147   79.3632  224.3363 H   0  0  0  0  0  0  0  0  0  0  0  0
  142.9164   78.2228  222.1189 H   0  0  0  0  0  0  0  0  0  0  0  0
  138.6170   76.9358  219.8786 H   0  0  0  0  0  0  0  0  0  0  0  0
  137.2371   79.0244  220.1531 H   0  0  0  0  0  0  0  0  0  0  0  0
  136.6559   80.9129  221.5243 H   0  0  0  0  0  0  0  0  0  0  0  0
  138.5479   81.4695  225.3696 H   0  0  0  0  0  0  0  0  0  0  0  0
  139.8832   79.3846  225.0179 H   0  0  0  0  0  0  0  0  0  0  0  0
  1  2  2  0
  2  3  1  0
  3  4  1  0
  4  5  1  0
  5  6  2  0
  5  7  1  0
  7  8  1  0
  8  9  1  0
  9 10  1  0
 10 11  1  0
 11 12  1  0
 12 13  2  0
 13 14  1  0
 14 15  1  0
 15 16  1  0
 16 17  2  0
 17 18  1  0
 18 19  2  0
 19 20  1  0
 20 21  2  0
 15 22  2  0
  2 23  1  0
 23 24  2  0
 24 25  1  0
 25 26  2  0
 26 27  1  0
 27 28  2  0
 28 29  1  0
 28 30  1  0
 30 31  2  0
 31 32  1  0
 32 33  2  0
 11  7  1  0
 22 12  1  0
 33 23  1  0
 21 16  1  0
 32 26  1  0
  3 34  1  0
  4 35  1  0
  4 36  1  0
  8 37  1  0
  8 38  1  0
  9 39  1  0
  9 40  1  0
 10 41  1  0
 10 42  1  0
 11 43  1  6
 13 44  1  0
 17 45  1  0
 18 46  1  0
 19 47  1  0
 20 48  1  0
 21 49  1  0
 24 50  1  0
 25 51  1  0
 27 52  1  0
 30 53  1  0
 31 54  1  0
M  END
>  <smiles>  (7) 
O=C(NCC(=O)N1CCC[C@H]1c1csc(-c2ccccc2)n1)c1ccc2cc(F)ccc2n1

>  <score_type>  (7) 
oracle

>  <origin>  (7) 
autodockgpu

>  <m_score__min__energy>  (7) 
-9.4100000000000001

>  <m_primary>  (7) 
energy

>  <rmsd>  (7) 
6.969687637737114

>  <m_score__min__rmsd>  (7) 
6.969687637737114

>  <meeko>  (7) 
{"free_energy": -6.08, "intermolecular_energy": -7.87, "internal_energy": -4.32, "cluster_size": 3, "cluster_id": 9, "rank_in_cluster": 3}

>  <energy>  (7) 
-9.23

>  <cluster_rmsd>  (7) 
0.32

>  <cluster>  (7) 
1

$$$$

     RDKit          3D

 54 58  0  0  0  0  0  0  0  0999 V2000
  136.4910   76.7690  221.3240 O   0  0  0  0  0  0  0  0  0  0  0  0
  137.5250   76.6160  222.0410 C   0  0  0  0  0  0  0  0  0  0  0  0
  137.9360   75.3110  222.4000 N   0  0  0  0  0  0  0  0  0  0  0  0
  137.2360   74.1060  221.9940 C   0  0  0  0  0  0  0  0  0  0  0  0
  138.0120   73.4230  220.9280 C   0  0  0  0  0  0  0  0  0  0  0  0
  137.7350   73.5270  219.7020 O   0  0  0  0  0  0  0  0  0  0  0  0
  139.1250   72.6050  221.2610 N   0  0  0  0  0  0  0  0  0  0  0  0
  140.3170   73.0440  221.9610 C   0  0  0  0  0  0  0  0  0  0  0  0
  141.4210   72.1800  221.3910 C   0  0  0  0  0  0  0  0  0  0  0  0
  140.7330   71.2290  220.4070 C   0  0  0  0  0  0  0  0  0  0  0  0
  139.3390   71.1880  220.9950 C   0  0  1  0  0  0  0  0  0  0  0  0
  139.3150   70.4540  222.3120 C   0  0  0  0  0  0  0  0  0  0  0  0
  138.7920   69.1870  222.4120 C   0  0  0  0  0  0  0  0  0  0  0  0
  139.0220   68.7930  224.2160 S   0  0  0  0  0  0  0  0  0  0  0  0
  139.7820   70.4090  224.5130 C   0  0  0  0  0  0  0  0  0  0  0  0
  140.2590   70.7990  225.9120 C   0  0  0  0  0  0  0  0  0  0  0  0
  139.8790   70.0010  226.9700 C   0  0  0  0  0  0  0  0  0  0  0  0
  140.3000   70.3390  228.2420 C   0  0  0  0  0  0  0  0  0  0  0  0
  141.0880   71.4680  228.4040 C   0  0  0  0  0  0  0  0  0  0  0  0
  141.4530   72.2510  227.3210 C   0  0  0  0  0  0  0  0  0  0  0  0
  141.0400   71.9250  226.0490 C   0  0  0  0  0  0  0  0  0  0  0  0
  139.7730   70.9400  223.4380 N   0  0  0  0  0  0  0  0  0  0  0  0
  138.3000   77.7750  222.5020 C   0  0  0  0  0  0  0  0  0  0  0  0
  137.6640   78.9380  222.8730 C   0  0  0  0  0  0  0  0  0  0  0  0
  138.3990   80.0450  223.3130 C   0  0  0  0  0  0  0  0  0  0  0  0
  139.7900   79.9090  223.3560 C   0  0  0  0  0  0  0  0  0  0  0  0
  140.5370   80.9700  223.7800 C   0  0  0  0  0  0  0  0  0  0  0  0
  141.9220   80.7980  223.8100 C   0  0  0  0  0  0  0  0  0  0  0  0
  142.6900   81.8320  224.2270 F   0  0  0  0  0  0  0  0  0  0  0  0
  142.5400   79.6410  223.4400 C   0  0  0  0  0  0  0  0  0  0  0  0
  141.7680   78.5790  223.0140 C   0  0  0  0  0  0  0  0  0  0  0  0
  140.4000   78.7330  222.9790 C   0  0  0  0  0  0  0  0  0  0  0  0
  139.6250   77.7150  222.5680 N   0  0  0  0  0  0  0  0  0  0  0  0
  138.8090   75.2370  223.0020 H   0  0  0  0  0  0  0  0  0  0  0  0
  137.1292   73.4342  222.8585 H   0  0  0  0  0  0  0  0  0  0  0  0
  136.2388   74.3702  221.6121 H   0  0  0  0  0  0  0  0  0  0  0  0
  140.5144   74.1084  221.7659 H   0  0  0  0  0  0  0  0  0  0  0  0
  140.2253   72.9450  223.0527 H   0  0  0  0  0  0  0  0  0  0  0  0
  142.1640   72.8010  220.8691 H   0  0  0  0  0  0  0  0  0  0  0  0
  141.9572   71.6318  222.1796 H   0  0  0  0  0  0  0  0  0  0  0  0
  140.7310   71.6341  219.3843 H   0  0  0  0  0  0  0  0  0  0  0  0
  141.2168   70.2465  220.3036 H   0  0  0  0  0  0  0  0  0  0  0  0
  138.6026   70.6903  220.3469 H   0  0  0  0  0  0  0  0  0  0  0  0
  138.3484   68.5621  221.6229 H   0  0  0  0  0  0  0  0  0  0  0  0
  139.2525   69.1121  226.8047 H   0  0  0  0  0  0  0  0  0  0  0  0
  140.0155   69.7244  229.1088 H   0  0  0  0  0  0  0  0  0  0  0  0
  141.4299   71.7474  229.4115 H   0  0  0  0  0  0  0  0  0  0  0  0
  142.0788   73.1417  227.4790 H   0  0  0  0  0  0  0  0  0  0  0  0
  141.3216   72.5373  225.1796 H   0  0  0  0  0  0  0  0  0  0  0  0
  136.5668   78.9981  222.8232 H   0  0  0  0  0  0  0  0  0  0  0  0
  137.9041   80.9808  223.6118 H   0  0  0  0  0  0  0  0  0  0  0  0
  140.0687   81.9177  224.0843 H   0  0  0  0  0  0  0  0  0  0  0  0
  143.6359   79.5549  223.4802 H   0  0  0  0  0  0  0  0  0  0  0  0
  142.2351   77.6309  222.7093 H   0  0  0  0  0  0  0  0  0  0  0  0
  1  2  2  0
  2  3  1  0
  3  4  1  0
  4  5  1  0
  5  6  2  0
  5  7  1  0
  7  8  1  0
  8  9  1  0
  9 10  1  0
 10 11  1  0
 11 12  1  0
 12 13  2  0
 13 14  1  0
 14 15  1  0
 15 16  1  0
 16 17  2  0
 17 18  1  0
 18 19  2  0
 19 20  1  0
 20 21  2  0
 15 22  2  0
  2 23  1  0
 23 24  2  0
 24 25  1  0
 25 26  2  0
 26 27  1  0
 27 28  2  0
 28 29  1  0
 28 30  1  0
 30 31  2  0
 31 32  1  0
 32 33  2  0
 11  7  1  0
 22 12  1  0
 33 23  1  0
 21 16  1  0
 32 26  1  0
  3 34  1  0
  4 35  1  0
  4 36  1  0
  8 37  1  0
  8 38  1  0
  9 39  1  0
  9 40  1  0
 10 41  1  0
 10 42  1  0
 11 43  1  6
 13 44  1  0
 17 45  1  0
 18 46  1  0
 19 47  1  0
 20 48  1  0
 21 49  1  0
 24 50  1  0
 25 51  1  0
 27 52  1  0
 30 53  1  0
 31 54  1  0
M  END
>  <smiles>  (8) 
O=C(NCC(=O)N1CCC[C@H]1c1csc(-c2ccccc2)n1)c1ccc2cc(F)ccc2n1

>  <score_type>  (8) 
oracle

>  <origin>  (8) 
autodockgpu

>  <m_score__min__energy>  (8) 
-9.4100000000000001

>  <m_primary>  (8) 
energy

>  <rmsd>  (8) 
9.04891951183359

>  <m_score__min__rmsd>  (8) 
9.04891951183359

>  <meeko>  (8) 
{"free_energy": -8.83, "intermolecular_energy": -10.62, "internal_energy": -1.43, "cluster_size": 4, "cluster_id": 4, "rank_in_cluster": 1}

>  <energy>  (8) 
-9.16

>  <cluster_rmsd>  (8) 
0.41

>  <cluster>  (8) 
1

$$$$

     RDKit          3D

 54 58  0  0  0  0  0  0  0  0999 V2000
  138.6360   74.6840  222.3470 O   0  0  0  0  0  0  0  0  0  0  0  0
  139.7000   75.2030  221.8920 C   0  0  0  0  0  0  0  0  0  0  0  0
  139.7900   76.6090  221.7680 N   0  0  0  0  0  0  0  0  0  0  0  0
  138.7200   77.5200  222.1340 C   0  0  0  0  0  0  0  0  0  0  0  0
  139.2920   78.6830  222.8600 C   0  0  0  0  0  0  0  0  0  0  0  0
  138.7000   79.2560  223.8140 O   0  0  0  0  0  0  0  0  0  0  0  0
  140.5620   79.2060  222.4940 N   0  0  0  0  0  0  0  0  0  0  0  0
  141.8460   78.6670  222.9000 C   0  0  0  0  0  0  0  0  0  0  0  0
  142.7460   79.8810  222.9850 C   0  0  0  0  0  0  0  0  0  0  0  0
  141.8820   81.0660  222.5430 C   0  0  0  0  0  0  0  0  0  0  0  0
  140.8770   80.3570  221.6590 C   0  0  1  0  0  0  0  0  0  0  0  0
  141.5140   79.8560  220.3880 C   0  0  0  0  0  0  0  0  0  0  0  0
  142.1400   80.7160  219.5170 C   0  0  0  0  0  0  0  0  0  0  0  0
  142.7210   79.5760  218.1660 S   0  0  0  0  0  0  0  0  0  0  0  0
  142.0160   78.1430  219.0180 C   0  0  0  0  0  0  0  0  0  0  0  0
  142.1350   76.7430  218.4140 C   0  0  0  0  0  0  0  0  0  0  0  0
  141.0350   75.9150  218.4830 C   0  0  0  0  0  0  0  0  0  0  0  0
  141.1230   74.6460  217.9440 C   0  0  0  0  0  0  0  0  0  0  0  0
  142.3160   74.2560  217.3530 C   0  0  0  0  0  0  0  0  0  0  0  0
  143.4040   75.1110  217.3000 C   0  0  0  0  0  0  0  0  0  0  0  0
  143.3290   76.3770  217.8340 C   0  0  0  0  0  0  0  0  0  0  0  0
  141.5290   78.6020  220.0120 N   0  0  0  0  0  0  0  0  0  0  0  0
  140.8370   74.3640  221.4940 C   0  0  0  0  0  0  0  0  0  0  0  0
  140.7130   72.9940  221.4490 C   0  0  0  0  0  0  0  0  0  0  0  0
  141.7940   72.1900  221.0710 C   0  0  0  0  0  0  0  0  0  0  0  0
  142.9880   72.8420  220.7450 C   0  0  0  0  0  0  0  0  0  0  0  0
  144.0620   72.0880  220.3710 C   0  0  0  0  0  0  0  0  0  0  0  0
  145.2370   72.7720  220.0530 C   0  0  0  0  0  0  0  0  0  0  0  0
  146.3200   72.0520  219.6780 F   0  0  0  0  0  0  0  0  0  0  0  0
  145.3480   74.1290  220.1010 C   0  0  0  0  0  0  0  0  0  0  0  0
  144.2500   74.8750  220.4810 C   0  0  0  0  0  0  0  0  0  0  0  0
  143.0840   74.2150  220.7980 C   0  0  0  0  0  0  0  0  0  0  0  0
  142.0010   74.9170  221.1710 N   0  0  0  0  0  0  0  0  0  0  0  0
  140.7020   76.9950  221.3820 H   0  0  0  0  0  0  0  0  0  0  0  0
  138.2082   77.8697  221.2253 H   0  0  0  0  0  0  0  0  0  0  0  0
  137.9987   76.9999  222.7815 H   0  0  0  0  0  0  0  0  0  0  0  0
  141.7688   78.1689  223.8777 H   0  0  0  0  0  0  0  0  0  0  0  0
  142.2257   77.9083  222.1999 H   0  0  0  0  0  0  0  0  0  0  0  0
  143.0982   80.0264  224.0169 H   0  0  0  0  0  0  0  0  0  0  0  0
  143.6394   79.7704  222.3528 H   0  0  0  0  0  0  0  0  0  0  0  0
  141.3957   81.5562  223.3992 H   0  0  0  0  0  0  0  0  0  0  0  0
  142.4350   81.8788  222.0495 H   0  0  0  0  0  0  0  0  0  0  0  0
  140.0324   80.9925  221.3543 H   0  0  0  0  0  0  0  0  0  0  0  0
  142.2659   81.8057  219.5984 H   0  0  0  0  0  0  0  0  0  0  0  0
  140.1044   76.2584  218.9584 H   0  0  0  0  0  0  0  0  0  0  0  0
  140.2648   73.9590  217.9826 H   0  0  0  0  0  0  0  0  0  0  0  0
  142.3992   73.2489  216.9184 H   0  0  0  0  0  0  0  0  0  0  0  0
  144.3380   74.7746  216.8261 H   0  0  0  0  0  0  0  0  0  0  0  0
  144.1854   77.0665  217.7991 H   0  0  0  0  0  0  0  0  0  0  0  0
  139.7533   72.5259  221.7132 H   0  0  0  0  0  0  0  0  0  0  0  0
  141.7088   71.0940  221.0319 H   0  0  0  0  0  0  0  0  0  0  0  0
  144.0047   70.9906  220.3222 H   0  0  0  0  0  0  0  0  0  0  0  0
  146.2964   74.6221  219.8414 H   0  0  0  0  0  0  0  0  0  0  0  0
  144.3056   75.9725  220.5294 H   0  0  0  0  0  0  0  0  0  0  0  0
  1  2  2  0
  2  3  1  0
  3  4  1  0
  4  5  1  0
  5  6  2  0
  5  7  1  0
  7  8  1  0
  8  9  1  0
  9 10  1  0
 10 11  1  0
 11 12  1  0
 12 13  2  0
 13 14  1  0
 14 15  1  0
 15 16  1  0
 16 17  2  0
 17 18  1  0
 18 19  2  0
 19 20  1  0
 20 21  2  0
 15 22  2  0
  2 23  1  0
 23 24  2  0
 24 25  1  0
 25 26  2  0
 26 27  1  0
 27 28  2  0
 28 29  1  0
 28 30  1  0
 30 31  2  0
 31 32  1  0
 32 33  2  0
 11  7  1  0
 22 12  1  0
 33 23  1  0
 21 16  1  0
 32 26  1  0
  3 34  1  0
  4 35  1  0
  4 36  1  0
  8 37  1  0
  8 38  1  0
  9 39  1  0
  9 40  1  0
 10 41  1  0
 10 42  1  0
 11 43  1  6
 13 44  1  0
 17 45  1  0
 18 46  1  0
 19 47  1  0
 20 48  1  0
 21 49  1  0
 24 50  1  0
 25 51  1  0
 27 52  1  0
 30 53  1  0
 31 54  1  0
M  END
>  <smiles>  (9) 
O=C(NCC(=O)N1CCC[C@H]1c1csc(-c2ccccc2)n1)c1ccc2cc(F)ccc2n1

>  <score_type>  (9) 
oracle

>  <origin>  (9) 
autodockgpu

>  <m_score__min__energy>  (9) 
-9.4100000000000001

>  <m_primary>  (9) 
energy

>  <rmsd>  (9) 
6.648741839685702

>  <m_score__min__rmsd>  (9) 
6.648741839685702

>  <meeko>  (9) 
{"free_energy": -6.56, "intermolecular_energy": -8.35, "internal_energy": -4.28, "cluster_size": 11, "cluster_id": 8, "rank_in_cluster": 8}

>  <energy>  (9) 
-9.23

>  <cluster_rmsd>  (9) 
0.0

>  <cluster>  (9) 
2

$$$$

     RDKit          3D

 54 58  0  0  0  0  0  0  0  0999 V2000
  137.6180   70.6050  222.0580 O   0  0  0  0  0  0  0  0  0  0  0  0
  138.4380   71.0930  222.8930 C   0  0  0  0  0  0  0  0  0  0  0  0
  138.8900   72.4230  222.7280 N   0  0  0  0  0  0  0  0  0  0  0  0
  138.4690   73.2870  221.6400 C   0  0  0  0  0  0  0  0  0  0  0  0
  139.4470   74.3940  221.4840 C   0  0  0  0  0  0  0  0  0  0  0  0
  140.3530   74.6340  222.3270 O   0  0  0  0  0  0  0  0  0  0  0  0
  139.3960   75.2440  220.3470 N   0  0  0  0  0  0  0  0  0  0  0  0
  138.3330   76.1820  220.0400 C   0  0  0  0  0  0  0  0  0  0  0  0
  138.2870   76.2090  218.5280 C   0  0  0  0  0  0  0  0  0  0  0  0
  139.4200   75.2880  218.0650 C   0  0  0  0  0  0  0  0  0  0  0  0
  140.3510   75.3810  219.2550 C   0  0  1  0  0  0  0  0  0  0  0  0
  140.9880   76.7440  219.3560 C   0  0  0  0  0  0  0  0  0  0  0  0
  141.5600   77.3450  218.2610 C   0  0  0  0  0  0  0  0  0  0  0  0
  142.1670   78.9620  218.9550 S   0  0  0  0  0  0  0  0  0  0  0  0
  141.5400   78.5370  220.5990 C   0  0  0  0  0  0  0  0  0  0  0  0
  141.7100   79.5040  221.7710 C   0  0  0  0  0  0  0  0  0  0  0  0
  141.3450   80.8200  221.5800 C   0  0  0  0  0  0  0  0  0  0  0  0
  141.4930   81.7080  222.6280 C   0  0  0  0  0  0  0  0  0  0  0  0
  142.0020   81.2410  223.8300 C   0  0  0  0  0  0  0  0  0  0  0  0
  142.3610   79.9130  223.9900 C   0  0  0  0  0  0  0  0  0  0  0  0
  142.2190   79.0180  222.9550 C   0  0  0  0  0  0  0  0  0  0  0  0
  141.0500   77.4520  220.4550 N   0  0  0  0  0  0  0  0  0  0  0  0
  138.9210   70.2960  224.0260 C   0  0  0  0  0  0  0  0  0  0  0  0
  138.7620   68.9290  224.0390 C   0  0  0  0  0  0  0  0  0  0  0  0
  139.2210   68.1650  225.1180 C   0  0  0  0  0  0  0  0  0  0  0  0
  139.8420   68.8540  226.1660 C   0  0  0  0  0  0  0  0  0  0  0  0
  140.3020   68.1390  227.2340 C   0  0  0  0  0  0  0  0  0  0  0  0
  140.9160   68.8590  228.2610 C   0  0  0  0  0  0  0  0  0  0  0  0
  141.3840   68.1780  229.3330 F   0  0  0  0  0  0  0  0  0  0  0  0
  141.0690   70.2130  228.2370 C   0  0  0  0  0  0  0  0  0  0  0  0
  140.5980   70.9180  227.1480 C   0  0  0  0  0  0  0  0  0  0  0  0
  139.9890   70.2220  226.1270 C   0  0  0  0  0  0  0  0  0  0  0  0
  139.5210   70.8850  225.0560 N   0  0  0  0  0  0  0  0  0  0  0  0
  139.5760   72.7850  223.4540 H   0  0  0  0  0  0  0  0  0  0  0  0
  138.4203   72.7058  220.7073 H   0  0  0  0  0  0  0  0  0  0  0  0
  137.4754   73.7026  221.8636 H   0  0  0  0  0  0  0  0  0  0  0  0
  137.3746   75.8345  220.4533 H   0  0  0  0  0  0  0  0  0  0  0  0
  138.5108   77.1770  220.4739 H   0  0  0  0  0  0  0  0  0  0  0  0
  137.3172   75.8363  218.1666 H   0  0  0  0  0  0  0  0  0  0  0  0
  138.4059   77.2296  218.1353 H   0  0  0  0  0  0  0  0  0  0  0  0
  139.0672   74.2586  217.9043 H   0  0  0  0  0  0  0  0  0  0  0  0
  139.8747   75.5669  217.1030 H   0  0  0  0  0  0  0  0  0  0  0  0
  141.1754   74.6533  219.2256 H   0  0  0  0  0  0  0  0  0  0  0  0
  141.6394   76.9655  217.2316 H   0  0  0  0  0  0  0  0  0  0  0  0
  140.9440   81.1561  220.6124 H   0  0  0  0  0  0  0  0  0  0  0  0
  141.2124   82.7651  222.5110 H   0  0  0  0  0  0  0  0  0  0  0  0
  142.1230   81.9381  224.6722 H   0  0  0  0  0  0  0  0  0  0  0  0
  142.7638   79.5704  224.9546 H   0  0  0  0  0  0  0  0  0  0  0  0
  142.4997   77.9604  223.0680 H   0  0  0  0  0  0  0  0  0  0  0  0
  138.2684   68.4311  223.1914 H   0  0  0  0  0  0  0  0  0  0  0  0
  139.0991   67.0720  225.1413 H   0  0  0  0  0  0  0  0  0  0  0  0
  140.1940   67.0454  227.2834 H   0  0  0  0  0  0  0  0  0  0  0  0
  141.5597   70.7352  229.0716 H   0  0  0  0  0  0  0  0  0  0  0  0
  140.7065   72.0114  227.0964 H   0  0  0  0  0  0  0  0  0  0  0  0
  1  2  2  0
  2  3  1  0
  3  4  1  0
  4  5  1  0
  5  6  2  0
  5  7  1  0
  7  8  1  0
  8  9  1  0
  9 10  1  0
 10 11  1  0
 11 12  1  0
 12 13  2  0
 13 14  1  0
 14 15  1  0
 15 16  1  0
 16 17  2  0
 17 18  1  0
 18 19  2  0
 19 20  1  0
 20 21  2  0
 15 22  2  0
  2 23  1  0
 23 24  2  0
 24 25  1  0
 25 26  2  0
 26 27  1  0
 27 28  2  0
 28 29  1  0
 28 30  1  0
 30 31  2  0
 31 32  1  0
 32 33  2  0
 11  7  1  0
 22 12  1  0
 33 23  1  0
 21 16  1  0
 32 26  1  0
  3 34  1  0
  4 35  1  0
  4 36  1  0
  8 37  1  0
  8 38  1  0
  9 39  1  0
  9 40  1  0
 10 41  1  0
 10 42  1  0
 11 43  1  6
 13 44  1  0
 17 45  1  0
 18 46  1  0
 19 47  1  0
 20 48  1  0
 21 49  1  0
 24 50  1  0
 25 51  1  0
 27 52  1  0
 30 53  1  0
 31 54  1  0
M  END
>  <smiles>  (10) 
O=C(NCC(=O)N1CCC[C@H]1c1csc(-c2ccccc2)n1)c1ccc2cc(F)ccc2n1

>  <score_type>  (10) 
oracle

>  <origin>  (10) 
autodockgpu

>  <m_score__min__energy>  (10) 
-9.4100000000000001

>  <m_primary>  (10) 
energy

>  <rmsd>  (10) 
2.319934865792444

>  <m_score__min__rmsd>  (10) 
2.319934865792444

>  <meeko>  (10) 
{"free_energy": -8.73, "intermolecular_energy": -10.52, "internal_energy": -2.23, "cluster_size": 3, "cluster_id": 5, "rank_in_cluster": 2}

>  <energy>  (10) 
-9.17

>  <cluster_rmsd>  (10) 
1.21

>  <cluster>  (10) 
2

$$$$

     RDKit          3D

 54 58  0  0  0  0  0  0  0  0999 V2000
  138.7540   74.7640  222.3240 O   0  0  0  0  0  0  0  0  0  0  0  0
  139.8570   75.2260  221.9030 C   0  0  0  0  0  0  0  0  0  0  0  0
  140.0360   76.6270  221.8170 N   0  0  0  0  0  0  0  0  0  0  0  0
  139.0180   77.5930  222.1850 C   0  0  0  0  0  0  0  0  0  0  0  0
  139.6460   78.7050  222.9440 C   0  0  0  0  0  0  0  0  0  0  0  0
  139.1870   79.1370  224.0360 O   0  0  0  0  0  0  0  0  0  0  0  0
  140.8200   79.3370  222.4520 N   0  0  0  0  0  0  0  0  0  0  0  0
  142.1810   78.9950  222.8190 C   0  0  0  0  0  0  0  0  0  0  0  0
  142.9270   80.3090  222.7410 C   0  0  0  0  0  0  0  0  0  0  0  0
  141.9010   81.3370  222.2550 C   0  0  0  0  0  0  0  0  0  0  0  0
  140.9450   80.4350  221.5030 C   0  0  1  0  0  0  0  0  0  0  0  0
  141.5690   79.8960  220.2410 C   0  0  0  0  0  0  0  0  0  0  0  0
  142.1770   80.7310  219.3340 C   0  0  0  0  0  0  0  0  0  0  0  0
  142.7500   79.5510  218.0140 S   0  0  0  0  0  0  0  0  0  0  0  0
  142.0670   78.1420  218.9220 C   0  0  0  0  0  0  0  0  0  0  0  0
  142.1880   76.7240  218.3640 C   0  0  0  0  0  0  0  0  0  0  0  0
  143.3860   76.3570  217.7890 C   0  0  0  0  0  0  0  0  0  0  0  0
  143.5140   75.0790  217.2790 C   0  0  0  0  0  0  0  0  0  0  0  0
  142.4330   74.2160  217.3660 C   0  0  0  0  0  0  0  0  0  0  0  0
  141.2410   74.6150  217.9490 C   0  0  0  0  0  0  0  0  0  0  0  0
  141.1000   75.8840  218.4610 C   0  0  0  0  0  0  0  0  0  0  0  0
  141.5890   78.6310  219.9070 N   0  0  0  0  0  0  0  0  0  0  0  0
  140.9470   74.3270  221.5070 C   0  0  0  0  0  0  0  0  0  0  0  0
  140.7540   72.9650  221.4710 C   0  0  0  0  0  0  0  0  0  0  0  0
  141.7910   72.1050  221.0940 C   0  0  0  0  0  0  0  0  0  0  0  0
  143.0150   72.6930  220.7590 C   0  0  0  0  0  0  0  0  0  0  0  0
  144.0470   71.8820  220.3860 C   0  0  0  0  0  0  0  0  0  0  0  0
  145.2540   72.5040  220.0590 C   0  0  0  0  0  0  0  0  0  0  0  0
  146.2970   71.7260  219.6840 F   0  0  0  0  0  0  0  0  0  0  0  0
  145.4340   73.8540  220.0970 C   0  0  0  0  0  0  0  0  0  0  0  0
  144.3780   74.6570  220.4760 C   0  0  0  0  0  0  0  0  0  0  0  0
  143.1810   74.0590  220.8020 C   0  0  0  0  0  0  0  0  0  0  0  0
  142.1370   74.8180  221.1750 N   0  0  0  0  0  0  0  0  0  0  0  0
  140.9780   76.9630  221.4580 H   0  0  0  0  0  0  0  0  0  0  0  0
  138.5436   77.9909  221.2758 H   0  0  0  0  0  0  0  0  0  0  0  0
  138.2563   77.1046  222.8106 H   0  0  0  0  0  0  0  0  0  0  0  0
  142.2188   78.5847  223.8389 H   0  0  0  0  0  0  0  0  0  0  0  0
  142.6137   78.2250  222.1634 H   0  0  0  0  0  0  0  0  0  0  0  0
  143.3131   80.5907  223.7317 H   0  0  0  0  0  0  0  0  0  0  0  0
  143.7921   80.2463  222.0645 H   0  0  0  0  0  0  0  0  0  0  0  0
  141.4049   81.8447  223.0953 H   0  0  0  0  0  0  0  0  0  0  0  0
  142.3222   82.1594  221.6580 H   0  0  0  0  0  0  0  0  0  0  0  0
  140.0133   80.9358  221.2011 H   0  0  0  0  0  0  0  0  0  0  0  0
  142.2953   81.8238  219.3776 H   0  0  0  0  0  0  0  0  0  0  0  0
  144.2239   77.0678  217.7371 H   0  0  0  0  0  0  0  0  0  0  0  0
  144.4556   74.7530  216.8131 H   0  0  0  0  0  0  0  0  0  0  0  0
  142.5230   73.1957  216.9649 H   0  0  0  0  0  0  0  0  0  0  0  0
  140.3986   73.9096  218.0030 H   0  0  0  0  0  0  0  0  0  0  0  0
  140.1599   76.2137  218.9274 H   0  0  0  0  0  0  0  0  0  0  0  0
  139.7729   72.5476  221.7418 H   0  0  0  0  0  0  0  0  0  0  0  0
  141.6500   71.0145  221.0624 H   0  0  0  0  0  0  0  0  0  0  0  0
  143.9335   70.7886  220.3447 H   0  0  0  0  0  0  0  0  0  0  0  0
  146.4051   74.2963  219.8300 H   0  0  0  0  0  0  0  0  0  0  0  0
  144.4897   75.7506  220.5169 H   0  0  0  0  0  0  0  0  0  0  0  0
  1  2  2  0
  2  3  1  0
  3  4  1  0
  4  5  1  0
  5  6  2  0
  5  7  1  0
  7  8  1  0
  8  9  1  0
  9 10  1  0
 10 11  1  0
 11 12  1  0
 12 13  2  0
 13 14  1  0
 14 15  1  0
 15 16  1  0
 16 17  2  0
 17 18  1  0
 18 19  2  0
 19 20  1  0
 20 21  2  0
 15 22  2  0
  2 23  1  0
 23 24  2  0
 24 25  1  0
 25 26  2  0
 26 27  1  0
 27 28  2  0
 28 29  1  0
 28 30  1  0
 30 31  2  0
 31 32  1  0
 32 33  2  0
 11  7  1  0
 22 12  1  0
 33 23  1  0
 21 16  1  0
 32 26  1  0
  3 34  1  0
  4 35  1  0
  4 36  1  0
  8 37  1  0
  8 38  1  0
  9 39  1  0
  9 40  1  0
 10 41  1  0
 10 42  1  0
 11 43  1  6
 13 44  1  0
 17 45  1  0
 18 46  1  0
 19 47  1  0
 20 48  1  0
 21 49  1  0
 24 50  1  0
 25 51  1  0
 27 52  1  0
 30 53  1  0
 31 54  1  0
M  END
>  <smiles>  (11) 
O=C(NCC(=O)N1CCC[C@H]1c1csc(-c2ccccc2)n1)c1ccc2cc(F)ccc2n1

>  <score_type>  (11) 
oracle

>  <origin>  (11) 
autodockgpu

>  <m_score__min__energy>  (11) 
-9.4100000000000001

>  <m_primary>  (11) 
energy

>  <rmsd>  (11) 
6.756211733852639

>  <m_score__min__rmsd>  (11) 
6.756211733852639

>  <meeko>  (11) 
{"free_energy": -6.71, "intermolecular_energy": -8.5, "internal_energy": -4.15, "cluster_size": 11, "cluster_id": 8, "rank_in_cluster": 6}

>  <energy>  (11) 
-9.12

>  <cluster_rmsd>  (11) 
1.74

>  <cluster>  (11) 
2

$$$$

     RDKit          3D

 54 58  0  0  0  0  0  0  0  0999 V2000
  136.9930   75.8600  222.3960 O   0  0  0  0  0  0  0  0  0  0  0  0
  138.2470   76.0410  222.3370 C   0  0  0  0  0  0  0  0  0  0  0  0
  139.0850   74.9720  221.9410 N   0  0  0  0  0  0  0  0  0  0  0  0
  138.5960   73.6510  221.5920 C   0  0  0  0  0  0  0  0  0  0  0  0
  139.7000   72.6660  221.7250 C   0  0  0  0  0  0  0  0  0  0  0  0
  139.6960   71.7410  222.5810 O   0  0  0  0  0  0  0  0  0  0  0  0
  140.8310   72.7340  220.8670 N   0  0  0  0  0  0  0  0  0  0  0  0
  140.8180   72.5130  219.4340 C   0  0  0  0  0  0  0  0  0  0  0  0
  142.1750   71.9110  219.1400 C   0  0  0  0  0  0  0  0  0  0  0  0
  142.9150   71.8890  220.4810 C   0  0  0  0  0  0  0  0  0  0  0  0
  142.2190   73.0280  221.1960 C   0  0  1  0  0  0  0  0  0  0  0  0
  142.5740   74.3620  220.5890 C   0  0  0  0  0  0  0  0  0  0  0  0
  143.8270   74.6020  220.0800 C   0  0  0  0  0  0  0  0  0  0  0  0
  143.6940   76.3590  219.4820 S   0  0  0  0  0  0  0  0  0  0  0  0
  141.9710   76.4550  220.0270 C   0  0  0  0  0  0  0  0  0  0  0  0
  141.1630   77.7390  219.8310 C   0  0  0  0  0  0  0  0  0  0  0  0
  141.8310   78.9420  219.9180 C   0  0  0  0  0  0  0  0  0  0  0  0
  141.1170   80.1120  219.7440 C   0  0  0  0  0  0  0  0  0  0  0  0
  139.7570   80.0300  219.4880 C   0  0  0  0  0  0  0  0  0  0  0  0
  139.1140   78.8060  219.4070 C   0  0  0  0  0  0  0  0  0  0  0  0
  139.8130   77.6330  219.5780 C   0  0  0  0  0  0  0  0  0  0  0  0
  141.7500   75.3740  220.4960 N   0  0  0  0  0  0  0  0  0  0  0  0
  138.8360   77.3420  222.6710 C   0  0  0  0  0  0  0  0  0  0  0  0
  138.0330   78.4400  222.8820 C   0  0  0  0  0  0  0  0  0  0  0  0
  138.5910   79.6830  223.2010 C   0  0  0  0  0  0  0  0  0  0  0  0
  139.9850   79.7500  223.2940 C   0  0  0  0  0  0  0  0  0  0  0  0
  140.5620   80.9480  223.6040 C   0  0  0  0  0  0  0  0  0  0  0  0
  141.9560   80.9760  223.6880 C   0  0  0  0  0  0  0  0  0  0  0  0
  142.5570   82.1500  223.9940 F   0  0  0  0  0  0  0  0  0  0  0  0
  142.7400   79.8830  223.4770 C   0  0  0  0  0  0  0  0  0  0  0  0
  142.1390   78.6800  223.1650 C   0  0  0  0  0  0  0  0  0  0  0  0
  140.7650   78.6350  223.0780 C   0  0  0  0  0  0  0  0  0  0  0  0
  140.1540   77.4770  222.7760 N   0  0  0  0  0  0  0  0  0  0  0  0
  140.1280   75.1750  221.9070 H   0  0  0  0  0  0  0  0  0  0  0  0
  137.7733   73.3738  222.2675 H   0  0  0  0  0  0  0  0  0  0  0  0
  138.2309   73.6563  220.5544 H   0  0  0  0  0  0  0  0  0  0  0  0
  140.0134   71.8173  219.1537 H   0  0  0  0  0  0  0  0  0  0  0  0
  140.6346   73.4372  218.8664 H   0  0  0  0  0  0  0  0  0  0  0  0
  142.0649   70.8901  218.7454 H   0  0  0  0  0  0  0  0  0  0  0  0
  142.7223   72.4913  218.3825 H   0  0  0  0  0  0  0  0  0  0  0  0
  142.7752   70.9330  221.0068 H   0  0  0  0  0  0  0  0  0  0  0  0
  144.0073   71.9937  220.4047 H   0  0  0  0  0  0  0  0  0  0  0  0
  142.4695   73.0954  222.2650 H   0  0  0  0  0  0  0  0  0  0  0  0
  144.6927   73.9248  220.0367 H   0  0  0  0  0  0  0  0  0  0  0  0
  142.9116   78.9697  220.1220 H   0  0  0  0  0  0  0  0  0  0  0  0
  141.6178   81.0893  219.8074 H   0  0  0  0  0  0  0  0  0  0  0  0
  139.1777   80.9544  219.3466 H   0  0  0  0  0  0  0  0  0  0  0  0
  138.0335   78.7711  219.2039 H   0  0  0  0  0  0  0  0  0  0  0  0
  139.3157   76.6539  219.5154 H   0  0  0  0  0  0  0  0  0  0  0  0
  136.9408   78.3392  222.7989 H   0  0  0  0  0  0  0  0  0  0  0  0
  137.9610   80.5685  223.3712 H   0  0  0  0  0  0  0  0  0  0  0  0
  139.9569   81.8497  223.7795 H   0  0  0  0  0  0  0  0  0  0  0  0
  143.8348   79.9574  223.5539 H   0  0  0  0  0  0  0  0  0  0  0  0
  142.7436   77.7779  222.9898 H   0  0  0  0  0  0  0  0  0  0  0  0
  1  2  2  0
  2  3  1  0
  3  4  1  0
  4  5  1  0
  5  6  2  0
  5  7  1  0
  7  8  1  0
  8  9  1  0
  9 10  1  0
 10 11  1  0
 11 12  1  0
 12 13  2  0
 13 14  1  0
 14 15  1  0
 15 16  1  0
 16 17  2  0
 17 18  1  0
 18 19  2  0
 19 20  1  0
 20 21  2  0
 15 22  2  0
  2 23  1  0
 23 24  2  0
 24 25  1  0
 25 26  2  0
 26 27  1  0
 27 28  2  0
 28 29  1  0
 28 30  1  0
 30 31  2  0
 31 32  1  0
 32 33  2  0
 11  7  1  0
 22 12  1  0
 33 23  1  0
 21 16  1  0
 32 26  1  0
  3 34  1  0
  4 35  1  0
  4 36  1  0
  8 37  1  0
  8 38  1  0
  9 39  1  0
  9 40  1  0
 10 41  1  0
 10 42  1  0
 11 43  1  1
 13 44  1  0
 17 45  1  0
 18 46  1  0
 19 47  1  0
 20 48  1  0
 21 49  1  0
 24 50  1  0
 25 51  1  0
 27 52  1  0
 30 53  1  0
 31 54  1  0
M  END
>  <smiles>  (12) 
O=C(NCC(=O)N1CCC[C@H]1c1csc(-c2ccccc2)n1)c1ccc2cc(F)ccc2n1

>  <score_type>  (12) 
oracle

>  <origin>  (12) 
autodockgpu

>  <m_score__min__energy>  (12) 
-9.4100000000000001

>  <m_primary>  (12) 
energy

>  <rmsd>  (12) 
7.054159138289988

>  <m_score__min__rmsd>  (12) 
7.054159138289988

>  <meeko>  (12) 
{"free_energy": -6.01, "intermolecular_energy": -7.8, "internal_energy": -4.53, "cluster_size": 4, "cluster_id": 10, "rank_in_cluster": 4}

>  <energy>  (12) 
-9.04

>  <cluster_rmsd>  (12) 
1.36

>  <cluster>  (12) 
2

$$$$

     RDKit          3D

 54 58  0  0  0  0  0  0  0  0999 V2000
  137.3750   75.9620  222.3910 O   0  0  0  0  0  0  0  0  0  0  0  0
  138.6210   76.1920  222.3290 C   0  0  0  0  0  0  0  0  0  0  0  0
  139.4940   75.1740  221.8770 N   0  0  0  0  0  0  0  0  0  0  0  0
  139.0490   73.8530  221.4720 C   0  0  0  0  0  0  0  0  0  0  0  0
  140.2030   72.9180  221.4920 C   0  0  0  0  0  0  0  0  0  0  0  0
  140.2860   71.9450  222.2900 O   0  0  0  0  0  0  0  0  0  0  0  0
  141.2850   73.0920  220.5870 N   0  0  0  0  0  0  0  0  0  0  0  0
  141.2810   72.7210  219.1850 C   0  0  0  0  0  0  0  0  0  0  0  0
  142.7170   72.3390  218.8990 C   0  0  0  0  0  0  0  0  0  0  0  0
  143.4780   72.5890  220.2050 C   0  0  0  0  0  0  0  0  0  0  0  0
  142.6050   73.6580  220.8280 C   0  0  1  0  0  0  0  0  0  0  0  0
  142.7030   74.9610  220.0760 C   0  0  0  0  0  0  0  0  0  0  0  0
  143.6720   75.1630  219.1240 C   0  0  0  0  0  0  0  0  0  0  0  0
  143.3200   76.8960  218.5450 S   0  0  0  0  0  0  0  0  0  0  0  0
  141.9280   77.0380  219.6930 C   0  0  0  0  0  0  0  0  0  0  0  0
  141.1020   78.3240  219.7590 C   0  0  0  0  0  0  0  0  0  0  0  0
  141.7730   79.5130  219.9500 C   0  0  0  0  0  0  0  0  0  0  0  0
  141.0440   80.6850  220.0140 C   0  0  0  0  0  0  0  0  0  0  0  0
  139.6650   80.6180  219.8820 C   0  0  0  0  0  0  0  0  0  0  0  0
  139.0190   79.4080  219.6920 C   0  0  0  0  0  0  0  0  0  0  0  0
  139.7340   78.2330  219.6270 C   0  0  0  0  0  0  0  0  0  0  0  0
  141.9020   75.9800  220.2560 N   0  0  0  0  0  0  0  0  0  0  0  0
  139.1660   77.4980  222.7180 C   0  0  0  0  0  0  0  0  0  0  0  0
  138.3250   78.5420  223.0310 C   0  0  0  0  0  0  0  0  0  0  0  0
  138.8410   79.7890  223.4020 C   0  0  0  0  0  0  0  0  0  0  0  0
  140.2330   79.9160  223.4390 C   0  0  0  0  0  0  0  0  0  0  0  0
  140.7690   81.1190  223.7970 C   0  0  0  0  0  0  0  0  0  0  0  0
  142.1620   81.2090  223.8220 C   0  0  0  0  0  0  0  0  0  0  0  0
  142.7240   82.3890  224.1750 F   0  0  0  0  0  0  0  0  0  0  0  0
  142.9850   80.1690  223.5100 C   0  0  0  0  0  0  0  0  0  0  0  0
  142.4240   78.9600  223.1510 C   0  0  0  0  0  0  0  0  0  0  0  0
  141.0520   78.8550  223.1210 C   0  0  0  0  0  0  0  0  0  0  0  0
  140.4800   77.6890  222.7740 N   0  0  0  0  0  0  0  0  0  0  0  0
  140.5280   75.4170  221.8440 H   0  0  0  0  0  0  0  0  0  0  0  0
  138.2753   73.4966  222.1680 H   0  0  0  0  0  0  0  0  0  0  0  0
  138.6313   73.9007  220.4555 H   0  0  0  0  0  0  0  0  0  0  0  0
  140.6080   71.8690  219.0087 H   0  0  0  0  0  0  0  0  0  0  0  0
  140.9232   73.5330  218.5349 H   0  0  0  0  0  0  0  0  0  0  0  0
  142.7826   71.2788  218.6133 H   0  0  0  0  0  0  0  0  0  0  0  0
  143.1353   72.9231  218.0661 H   0  0  0  0  0  0  0  0  0  0  0  0
  143.5220   71.6846  220.8297 H   0  0  0  0  0  0  0  0  0  0  0  0
  144.5325   72.8741  220.0755 H   0  0  0  0  0  0  0  0  0  0  0  0
  142.8625   73.8819  221.8737 H   0  0  0  0  0  0  0  0  0  0  0  0
  144.4596   74.4727  218.7877 H   0  0  0  0  0  0  0  0  0  0  0  0
  142.8684   79.5284  220.0496 H   0  0  0  0  0  0  0  0  0  0  0  0
  141.5470   81.6513  220.1665 H   0  0  0  0  0  0  0  0  0  0  0  0
  139.0730   81.5439  219.9292 H   0  0  0  0  0  0  0  0  0  0  0  0
  137.9238   79.3852  219.5920 H   0  0  0  0  0  0  0  0  0  0  0  0
  139.2347   77.2645  219.4763 H   0  0  0  0  0  0  0  0  0  0  0  0
  137.2357   78.3945  222.9891 H   0  0  0  0  0  0  0  0  0  0  0  0
  138.1806   80.6320  223.6534 H   0  0  0  0  0  0  0  0  0  0  0  0
  140.1325   81.9785  224.0541 H   0  0  0  0  0  0  0  0  0  0  0  0
  144.0777   80.2907  223.5436 H   0  0  0  0  0  0  0  0  0  0  0  0
  143.0594   78.0995  222.8946 H   0  0  0  0  0  0  0  0  0  0  0  0
  1  2  2  0
  2  3  1  0
  3  4  1  0
  4  5  1  0
  5  6  2  0
  5  7  1  0
  7  8  1  0
  8  9  1  0
  9 10  1  0
 10 11  1  0
 11 12  1  0
 12 13  2  0
 13 14  1  0
 14 15  1  0
 15 16  1  0
 16 17  2  0
 17 18  1  0
 18 19  2  0
 19 20  1  0
 20 21  2  0
 15 22  2  0
  2 23  1  0
 23 24  2  0
 24 25  1  0
 25 26  2  0
 26 27  1  0
 27 28  2  0
 28 29  1  0
 28 30  1  0
 30 31  2  0
 31 32  1  0
 32 33  2  0
 11  7  1  0
 22 12  1  0
 33 23  1  0
 21 16  1  0
 32 26  1  0
  3 34  1  0
  4 35  1  0
  4 36  1  0
  8 37  1  0
  8 38  1  0
  9 39  1  0
  9 40  1  0
 10 41  1  0
 10 42  1  0
 11 43  1  1
 13 44  1  0
 17 45  1  0
 18 46  1  0
 19 47  1  0
 20 48  1  0
 21 49  1  0
 24 50  1  0
 25 51  1  0
 27 52  1  0
 30 53  1  0
 31 54  1  0
M  END
>  <smiles>  (13) 
O=C(NCC(=O)N1CCC[C@H]1c1csc(-c2ccccc2)n1)c1ccc2cc(F)ccc2n1

>  <score_type>  (13) 
oracle

>  <origin>  (13) 
autodockgpu

>  <m_score__min__energy>  (13) 
-9.4100000000000001

>  <m_primary>  (13) 
energy

>  <rmsd>  (13) 
7.042063569663929

>  <m_score__min__rmsd>  (13) 
7.042063569663929

>  <meeko>  (13) 
{"free_energy": -6.19, "intermolecular_energy": -7.98, "internal_energy": -4.35, "cluster_size": 4, "cluster_id": 10, "rank_in_cluster": 3}

>  <energy>  (13) 
-9.01

>  <cluster_rmsd>  (13) 
0.6

>  <cluster>  (13) 
2

$$$$

     RDKit          3D

 54 58  0  0  0  0  0  0  0  0999 V2000
  141.2500   72.1570  221.4970 O   0  0  0  0  0  0  0  0  0  0  0  0
  140.3900   72.4090  222.3940 C   0  0  0  0  0  0  0  0  0  0  0  0
  139.5960   73.5750  222.2890 N   0  0  0  0  0  0  0  0  0  0  0  0
  139.7040   74.5270  221.1980 C   0  0  0  0  0  0  0  0  0  0  0  0
  139.4290   75.8940  221.7090 C   0  0  0  0  0  0  0  0  0  0  0  0
  138.5690   76.1350  222.5990 O   0  0  0  0  0  0  0  0  0  0  0  0
  140.1460   77.0090  221.1990 N   0  0  0  0  0  0  0  0  0  0  0  0
  139.7120   77.8690  220.1140 C   0  0  0  0  0  0  0  0  0  0  0  0
  140.9980   78.3000  219.4450 C   0  0  0  0  0  0  0  0  0  0  0  0
  142.1240   77.6730  220.2740 C   0  0  0  0  0  0  0  0  0  0  0  0
  141.4350   77.5440  221.6160 C   0  0  1  0  0  0  0  0  0  0  0  0
  141.2020   78.8920  222.2510 C   0  0  0  0  0  0  0  0  0  0  0  0
  142.2290   79.7900  222.4140 C   0  0  0  0  0  0  0  0  0  0  0  0
  141.3820   81.2350  223.2260 S   0  0  0  0  0  0  0  0  0  0  0  0
  139.7930   80.3680  223.1990 C   0  0  0  0  0  0  0  0  0  0  0  0
  138.5350   81.0310  223.7630 C   0  0  0  0  0  0  0  0  0  0  0  0
  137.9350   82.0190  223.0130 C   0  0  0  0  0  0  0  0  0  0  0  0
  136.7980   82.6300  223.5070 C   0  0  0  0  0  0  0  0  0  0  0  0
  136.3060   82.2240  224.7380 C   0  0  0  0  0  0  0  0  0  0  0  0
  136.9330   81.2280  225.4690 C   0  0  0  0  0  0  0  0  0  0  0  0
  138.0660   80.6120  224.9880 C   0  0  0  0  0  0  0  0  0  0  0  0
  140.0420   79.3130  222.6870 N   0  0  0  0  0  0  0  0  0  0  0  0
  140.2080   71.5060  223.5370 C   0  0  0  0  0  0  0  0  0  0  0  0
  139.5730   70.2950  223.3780 C   0  0  0  0  0  0  0  0  0  0  0  0
  139.3970   69.4310  224.4650 C   0  0  0  0  0  0  0  0  0  0  0  0
  139.8940   69.8560  225.7010 C   0  0  0  0  0  0  0  0  0  0  0  0
  139.7390   69.0370  226.7820 C   0  0  0  0  0  0  0  0  0  0  0  0
  140.2470   69.4940  228.0010 C   0  0  0  0  0  0  0  0  0  0  0  0
  140.1100   68.7040  229.0910 F   0  0  0  0  0  0  0  0  0  0  0  0
  140.8740   70.6950  228.1460 C   0  0  0  0  0  0  0  0  0  0  0  0
  141.0210   71.5090  227.0410 C   0  0  0  0  0  0  0  0  0  0  0  0
  140.5260   71.0730  225.8330 C   0  0  0  0  0  0  0  0  0  0  0  0
  140.6550   71.8460  224.7410 N   0  0  0  0  0  0  0  0  0  0  0  0
  138.8910   73.7410  223.0660 H   0  0  0  0  0  0  0  0  0  0  0  0
  140.7196   74.4896  220.7772 H   0  0  0  0  0  0  0  0  0  0  0  0
  138.9746   74.2733  220.4146 H   0  0  0  0  0  0  0  0  0  0  0  0
  139.0723   77.3164  219.4102 H   0  0  0  0  0  0  0  0  0  0  0  0
  139.1138   78.7223  220.4662 H   0  0  0  0  0  0  0  0  0  0  0  0
  141.0337   77.9325  218.4088 H   0  0  0  0  0  0  0  0  0  0  0  0
  141.0866   79.3955  219.4009 H   0  0  0  0  0  0  0  0  0  0  0  0
  142.4250   76.6929  219.8755 H   0  0  0  0  0  0  0  0  0  0  0  0
  143.0592   78.2518  220.2912 H   0  0  0  0  0  0  0  0  0  0  0  0
  142.0030   76.9494  222.3466 H   0  0  0  0  0  0  0  0  0  0  0  0
  143.2874   79.6820  222.1345 H   0  0  0  0  0  0  0  0  0  0  0  0
  138.3529   82.3157  222.0397 H   0  0  0  0  0  0  0  0  0  0  0  0
  136.2935   83.4226  222.9349 H   0  0  0  0  0  0  0  0  0  0  0  0
  135.4011   82.7015  225.1418 H   0  0  0  0  0  0  0  0  0  0  0  0
  136.5212   80.9265  226.4435 H   0  0  0  0  0  0  0  0  0  0  0  0
  138.5745   79.8198  225.5572 H   0  0  0  0  0  0  0  0  0  0  0  0
  139.1996   70.0030  222.3854 H   0  0  0  0  0  0  0  0  0  0  0  0
  138.8904   68.4611  224.3520 H   0  0  0  0  0  0  0  0  0  0  0  0
  139.2371   68.0618  226.6974 H   0  0  0  0  0  0  0  0  0  0  0  0
  141.2568   71.0107  229.1277 H   0  0  0  0  0  0  0  0  0  0  0  0
  141.5226   72.4845  227.1240 H   0  0  0  0  0  0  0  0  0  0  0  0
  1  2  2  0
  2  3  1  0
  3  4  1  0
  4  5  1  0
  5  6  2  0
  5  7  1  0
  7  8  1  0
  8  9  1  0
  9 10  1  0
 10 11  1  0
 11 12  1  0
 12 13  2  0
 13 14  1  0
 14 15  1  0
 15 16  1  0
 16 17  2  0
 17 18  1  0
 18 19  2  0
 19 20  1  0
 20 21  2  0
 15 22  2  0
  2 23  1  0
 23 24  2  0
 24 25  1  0
 25 26  2  0
 26 27  1  0
 27 28  2  0
 28 29  1  0
 28 30  1  0
 30 31  2  0
 31 32  1  0
 32 33  2  0
 11  7  1  0
 22 12  1  0
 33 23  1  0
 21 16  1  0
 32 26  1  0
  3 34  1  0
  4 35  1  0
  4 36  1  0
  8 37  1  0
  8 38  1  0
  9 39  1  0
  9 40  1  0
 10 41  1  0
 10 42  1  0
 11 43  1  1
 13 44  1  0
 17 45  1  0
 18 46  1  0
 19 47  1  0
 20 48  1  0
 21 49  1  0
 24 50  1  0
 25 51  1  0
 27 52  1  0
 30 53  1  0
 31 54  1  0
M  END
>  <smiles>  (14) 
O=C(NCC(=O)N1CCC[C@H]1c1csc(-c2ccccc2)n1)c1ccc2cc(F)ccc2n1

>  <score_type>  (14) 
oracle

>  <origin>  (14) 
autodockgpu

>  <m_score__min__energy>  (14) 
-9.4100000000000001

>  <m_primary>  (14) 
energy

>  <rmsd>  (14) 
2.826484272268358

>  <m_score__min__rmsd>  (14) 
2.826484272268358

>  <meeko>  (14) 
{"free_energy": -9.22, "intermolecular_energy": -11.01, "internal_energy": -1.79, "cluster_size": 4, "cluster_id": 3, "rank_in_cluster": 1}

>  <energy>  (14) 
-8.97

>  <cluster_rmsd>  (14) 
1.6

>  <cluster>  (14) 
2

$$$$

     RDKit          3D

 54 58  0  0  0  0  0  0  0  0999 V2000
  138.5460   75.3770  221.6850 O   0  0  0  0  0  0  0  0  0  0  0  0
  139.7310   75.8260  221.7330 C   0  0  0  0  0  0  0  0  0  0  0  0
  140.7960   75.0320  221.2450 N   0  0  0  0  0  0  0  0  0  0  0  0
  140.6190   73.7070  220.6800 C   0  0  0  0  0  0  0  0  0  0  0  0
  140.3490   72.7380  221.7730 C   0  0  0  0  0  0  0  0  0  0  0  0
  141.0580   72.6590  222.8120 O   0  0  0  0  0  0  0  0  0  0  0  0
  139.2500   71.8420  221.6840 N   0  0  0  0  0  0  0  0  0  0  0  0
  139.2870   70.5150  221.1000 C   0  0  0  0  0  0  0  0  0  0  0  0
  137.9010   70.3240  220.5230 C   0  0  0  0  0  0  0  0  0  0  0  0
  137.1240   71.5920  220.8920 C   0  0  0  0  0  0  0  0  0  0  0  0
  137.8760   72.0220  222.1340 C   0  0  1  0  0  0  0  0  0  0  0  0
  137.6310   71.0790  223.2840 C   0  0  0  0  0  0  0  0  0  0  0  0
  136.3710   70.6040  223.5600 C   0  0  0  0  0  0  0  0  0  0  0  0
  136.6610   69.5150  225.0410 S   0  0  0  0  0  0  0  0  0  0  0  0
  138.4310   69.8950  225.0220 C   0  0  0  0  0  0  0  0  0  0  0  0
  139.3690   69.2820  226.0630 C   0  0  0  0  0  0  0  0  0  0  0  0
  139.6380   70.0130  227.2000 C   0  0  0  0  0  0  0  0  0  0  0  0
  140.4840   69.4760  228.1510 C   0  0  0  0  0  0  0  0  0  0  0  0
  141.0300   68.2220  227.9240 C   0  0  0  0  0  0  0  0  0  0  0  0
  140.7410   67.5120  226.7700 C   0  0  0  0  0  0  0  0  0  0  0  0
  139.9000   68.0360  225.8150 C   0  0  0  0  0  0  0  0  0  0  0  0
  138.5620   70.6420  224.0940 N   0  0  0  0  0  0  0  0  0  0  0  0
  140.0110   77.1560  222.2880 C   0  0  0  0  0  0  0  0  0  0  0  0
  138.9900   77.9360  222.7810 C   0  0  0  0  0  0  0  0  0  0  0  0
  139.2520   79.2050  223.3100 C   0  0  0  0  0  0  0  0  0  0  0  0
  140.5840   79.6310  223.3120 C   0  0  0  0  0  0  0  0  0  0  0  0
  140.8740   80.8630  223.8220 C   0  0  0  0  0  0  0  0  0  0  0  0
  142.2150   81.2550  223.8080 C   0  0  0  0  0  0  0  0  0  0  0  0
  142.5340   82.4720  224.3070 F   0  0  0  0  0  0  0  0  0  0  0  0
  143.2170   80.4730  223.3160 C   0  0  0  0  0  0  0  0  0  0  0  0
  142.9040   79.2300  222.8060 C   0  0  0  0  0  0  0  0  0  0  0  0
  141.5870   78.8290  222.8130 C   0  0  0  0  0  0  0  0  0  0  0  0
  141.2540   77.6230  222.3220 N   0  0  0  0  0  0  0  0  0  0  0  0
  141.7690   75.4530  221.3080 H   0  0  0  0  0  0  0  0  0  0  0  0
  139.7706   73.7166  219.9799 H   0  0  0  0  0  0  0  0  0  0  0  0
  141.5322   73.4109  220.1430 H   0  0  0  0  0  0  0  0  0  0  0  0
  140.0498   70.4579  220.3096 H   0  0  0  0  0  0  0  0  0  0  0  0
  139.5481   69.7388  221.8344 H   0  0  0  0  0  0  0  0  0  0  0  0
  137.9523   70.2092  219.4302 H   0  0  0  0  0  0  0  0  0  0  0  0
  137.4161   69.4193  220.9185 H   0  0  0  0  0  0  0  0  0  0  0  0
  137.1834   72.3507  220.0978 H   0  0  0  0  0  0  0  0  0  0  0  0
  136.0439   71.4428  221.0377 H   0  0  0  0  0  0  0  0  0  0  0  0
  137.6002   73.0257  222.4897 H   0  0  0  0  0  0  0  0  0  0  0  0
  135.4270   70.8149  223.0362 H   0  0  0  0  0  0  0  0  0  0  0  0
  139.1874   71.0056  227.3475 H   0  0  0  0  0  0  0  0  0  0  0  0
  140.7197   70.0324  229.0702 H   0  0  0  0  0  0  0  0  0  0  0  0
  141.7048   67.7829  228.6736 H   0  0  0  0  0  0  0  0  0  0  0  0
  141.1884   66.5191  226.6155 H   0  0  0  0  0  0  0  0  0  0  0  0
  139.6624   67.4836  224.8939 H   0  0  0  0  0  0  0  0  0  0  0  0
  137.9572   77.5581  222.7591 H   0  0  0  0  0  0  0  0  0  0  0  0
  138.4457   79.8394  223.7067 H   0  0  0  0  0  0  0  0  0  0  0  0
  140.0877   81.5178  224.2258 H   0  0  0  0  0  0  0  0  0  0  0  0
  144.2584   80.8272  223.3254 H   0  0  0  0  0  0  0  0  0  0  0  0
  143.6893   78.5738  222.4027 H   0  0  0  0  0  0  0  0  0  0  0  0
  1  2  2  0
  2  3  1  0
  3  4  1  0
  4  5  1  0
  5  6  2  0
  5  7  1  0
  7  8  1  0
  8  9  1  0
  9 10  1  0
 10 11  1  0
 11 12  1  0
 12 13  2  0
 13 14  1  0
 14 15  1  0
 15 16  1  0
 16 17  2  0
 17 18  1  0
 18 19  2  0
 19 20  1  0
 20 21  2  0
 15 22  2  0
  2 23  1  0
 23 24  2  0
 24 25  1  0
 25 26  2  0
 26 27  1  0
 27 28  2  0
 28 29  1  0
 28 30  1  0
 30 31  2  0
 31 32  1  0
 32 33  2  0
 11  7  1  0
 22 12  1  0
 33 23  1  0
 21 16  1  0
 32 26  1  0
  3 34  1  0
  4 35  1  0
  4 36  1  0
  8 37  1  0
  8 38  1  0
  9 39  1  0
  9 40  1  0
 10 41  1  0
 10 42  1  0
 11 43  1  1
 13 44  1  0
 17 45  1  0
 18 46  1  0
 19 47  1  0
 20 48  1  0
 21 49  1  0
 24 50  1  0
 25 51  1  0
 27 52  1  0
 30 53  1  0
 31 54  1  0
M  END
>  <smiles>  (15) 
O=C(NCC(=O)N1CCC[C@H]1c1csc(-c2ccccc2)n1)c1ccc2cc(F)ccc2n1

>  <score_type>  (15) 
oracle

>  <origin>  (15) 
autodockgpu

>  <m_score__min__energy>  (15) 
-9.4100000000000001

>  <m_primary>  (15) 
energy

>  <rmsd>  (15) 
9.813127430470347

>  <m_score__min__rmsd>  (15) 
9.813127430470347

>  <meeko>  (15) 
{"free_energy": -8.53, "intermolecular_energy": -10.32, "internal_energy": -2.04, "cluster_size": 4, "cluster_id": 4, "rank_in_cluster": 2}

>  <energy>  (15) 
-8.87

>  <cluster_rmsd>  (15) 
1.99

>  <cluster>  (15) 
2

$$$$

     RDKit          3D

 54 58  0  0  0  0  0  0  0  0999 V2000
  140.4010   71.2520  221.5860 O   0  0  0  0  0  0  0  0  0  0  0  0
  139.6900   71.5160  222.6020 C   0  0  0  0  0  0  0  0  0  0  0  0
  138.8440   72.6500  222.5840 N   0  0  0  0  0  0  0  0  0  0  0  0
  138.7340   73.5540  221.4540 C   0  0  0  0  0  0  0  0  0  0  0  0
  140.0580   74.1720  221.1880 C   0  0  0  0  0  0  0  0  0  0  0  0
  141.0170   74.1240  222.0050 O   0  0  0  0  0  0  0  0  0  0  0  0
  140.2990   74.8580  219.9660 N   0  0  0  0  0  0  0  0  0  0  0  0
  139.2800   75.3840  219.0770 C   0  0  0  0  0  0  0  0  0  0  0  0
  139.8920   75.2610  217.6990 C   0  0  0  0  0  0  0  0  0  0  0  0
  141.3020   74.7040  217.9230 C   0  0  0  0  0  0  0  0  0  0  0  0
  141.5670   75.1900  219.3310 C   0  0  1  0  0  0  0  0  0  0  0  0
  141.7390   76.6880  219.3780 C   0  0  0  0  0  0  0  0  0  0  0  0
  141.9420   77.4170  218.2310 C   0  0  0  0  0  0  0  0  0  0  0  0
  142.0800   79.1580  218.8750 S   0  0  0  0  0  0  0  0  0  0  0  0
  141.8390   78.5890  220.5760 C   0  0  0  0  0  0  0  0  0  0  0  0
  141.8380   79.5850  221.7370 C   0  0  0  0  0  0  0  0  0  0  0  0
  142.1790   79.1180  222.9880 C   0  0  0  0  0  0  0  0  0  0  0  0
  142.1830   80.0040  224.0490 C   0  0  0  0  0  0  0  0  0  0  0  0
  141.8440   81.3270  223.8130 C   0  0  0  0  0  0  0  0  0  0  0  0
  141.5050   81.7660  222.5430 C   0  0  0  0  0  0  0  0  0  0  0  0
  141.4970   80.8940  221.4780 C   0  0  0  0  0  0  0  0  0  0  0  0
  141.7100   77.4020  220.4740 N   0  0  0  0  0  0  0  0  0  0  0  0
  139.7330   70.6600  223.7940 C   0  0  0  0  0  0  0  0  0  0  0  0
  139.1910   69.3950  223.7660 C   0  0  0  0  0  0  0  0  0  0  0  0
  139.2300   68.5760  224.9000 C   0  0  0  0  0  0  0  0  0  0  0  0
  139.8390   69.1020  226.0440 C   0  0  0  0  0  0  0  0  0  0  0  0
  139.8940   68.3280  227.1680 C   0  0  0  0  0  0  0  0  0  0  0  0
  140.5080   68.8860  228.2910 C   0  0  0  0  0  0  0  0  0  0  0  0
  140.5790   68.1440  229.4210 F   0  0  0  0  0  0  0  0  0  0  0  0
  141.0410   70.1400  228.3060 C   0  0  0  0  0  0  0  0  0  0  0  0
  140.9760   70.9070  227.1600 C   0  0  0  0  0  0  0  0  0  0  0  0
  140.3730   70.3710  226.0440 C   0  0  0  0  0  0  0  0  0  0  0  0
  140.2960   71.0960  224.9150 N   0  0  0  0  0  0  0  0  0  0  0  0
  138.2690   72.8270  223.4600 H   0  0  0  0  0  0  0  0  0  0  0  0
  138.4051   72.9939  220.5662 H   0  0  0  0  0  0  0  0  0  0  0  0
  137.9997   74.3407  221.6820 H   0  0  0  0  0  0  0  0  0  0  0  0
  138.3561   74.7912  219.1481 H   0  0  0  0  0  0  0  0  0  0  0  0
  138.9989   76.4187  219.3229 H   0  0  0  0  0  0  0  0  0  0  0  0
  139.3015   74.5726  217.0766 H   0  0  0  0  0  0  0  0  0  0  0  0
  139.9147   76.2283  217.1757 H   0  0  0  0  0  0  0  0  0  0  0  0
  141.3198   73.6058  217.8619 H   0  0  0  0  0  0  0  0  0  0  0  0
  142.0461   75.0242  217.1788 H   0  0  0  0  0  0  0  0  0  0  0  0
  142.4729   74.7585  219.7817 H   0  0  0  0  0  0  0  0  0  0  0  0
  142.0067   77.0609  217.1923 H   0  0  0  0  0  0  0  0  0  0  0  0
  142.4428   78.0609  223.1392 H   0  0  0  0  0  0  0  0  0  0  0  0
  142.4501   79.6656  225.0610 H   0  0  0  0  0  0  0  0  0  0  0  0
  141.8440   82.0417  224.6492 H   0  0  0  0  0  0  0  0  0  0  0  0
  141.2397   82.8217  222.3845 H   0  0  0  0  0  0  0  0  0  0  0  0
  141.2300   81.2280  220.4645 H   0  0  0  0  0  0  0  0  0  0  0  0
  138.7223   69.0240  222.8426 H   0  0  0  0  0  0  0  0  0  0  0  0
  138.8007   67.5633  224.8920 H   0  0  0  0  0  0  0  0  0  0  0  0
  139.4738   67.3116  227.1876 H   0  0  0  0  0  0  0  0  0  0  0  0
  141.5154   70.5348  229.2165 H   0  0  0  0  0  0  0  0  0  0  0  0
  141.3964   71.9233  227.1388 H   0  0  0  0  0  0  0  0  0  0  0  0
  1  2  2  0
  2  3  1  0
  3  4  1  0
  4  5  1  0
  5  6  2  0
  5  7  1  0
  7  8  1  0
  8  9  1  0
  9 10  1  0
 10 11  1  0
 11 12  1  0
 12 13  2  0
 13 14  1  0
 14 15  1  0
 15 16  1  0
 16 17  2  0
 17 18  1  0
 18 19  2  0
 19 20  1  0
 20 21  2  0
 15 22  2  0
  2 23  1  0
 23 24  2  0
 24 25  1  0
 25 26  2  0
 26 27  1  0
 27 28  2  0
 28 29  1  0
 28 30  1  0
 30 31  2  0
 31 32  1  0
 32 33  2  0
 11  7  1  0
 22 12  1  0
 33 23  1  0
 21 16  1  0
 32 26  1  0
  3 34  1  0
  4 35  1  0
  4 36  1  0
  8 37  1  0
  8 38  1  0
  9 39  1  0
  9 40  1  0
 10 41  1  0
 10 42  1  0
 11 43  1  1
 13 44  1  0
 17 45  1  0
 18 46  1  0
 19 47  1  0
 20 48  1  0
 21 49  1  0
 24 50  1  0
 25 51  1  0
 27 52  1  0
 30 53  1  0
 31 54  1  0
M  END
>  <smiles>  (16) 
O=C(NCC(=O)N1CCC[C@H]1c1csc(-c2ccccc2)n1)c1ccc2cc(F)ccc2n1

>  <score_type>  (16) 
oracle

>  <origin>  (16) 
autodockgpu

>  <m_score__min__energy>  (16) 
-9.4100000000000001

>  <m_primary>  (16) 
energy

>  <rmsd>  (16) 
2.0182409766179172

>  <m_score__min__rmsd>  (16) 
2.0182409766179172

>  <meeko>  (16) 
{"free_energy": -9.12, "intermolecular_energy": -10.91, "internal_energy": -1.43, "cluster_size": 10, "cluster_id": 2, "rank_in_cluster": 3}

>  <energy>  (16) 
-8.87

>  <cluster_rmsd>  (16) 
1.71

>  <cluster>  (16) 
2

$$$$

     RDKit          3D

 54 58  0  0  0  0  0  0  0  0999 V2000
  138.4140   70.7930  221.3040 O   0  0  0  0  0  0  0  0  0  0  0  0
  138.8530   71.3590  222.3500 C   0  0  0  0  0  0  0  0  0  0  0  0
  139.0200   72.7640  222.3630 N   0  0  0  0  0  0  0  0  0  0  0  0
  138.7170   73.6210  221.2320 C   0  0  0  0  0  0  0  0  0  0  0  0
  139.7800   74.6500  221.0950 C   0  0  0  0  0  0  0  0  0  0  0  0
  140.6270   74.8870  221.9990 O   0  0  0  0  0  0  0  0  0  0  0  0
  139.8840   75.4230  219.9070 N   0  0  0  0  0  0  0  0  0  0  0  0
  138.8060   76.1720  219.2900 C   0  0  0  0  0  0  0  0  0  0  0  0
  139.1160   76.1140  217.8100 C   0  0  0  0  0  0  0  0  0  0  0  0
  140.4400   75.3530  217.6960 C   0  0  0  0  0  0  0  0  0  0  0  0
  141.0420   75.6470  219.0530 C   0  0  1  0  0  0  0  0  0  0  0  0
  141.4460   77.0940  219.1790 C   0  0  0  0  0  0  0  0  0  0  0  0
  141.8100   77.8300  218.0770 C   0  0  0  0  0  0  0  0  0  0  0  0
  142.1950   79.4970  218.8100 S   0  0  0  0  0  0  0  0  0  0  0  0
  141.7950   78.9020  220.4720 C   0  0  0  0  0  0  0  0  0  0  0  0
  141.9030   79.8350  221.6790 C   0  0  0  0  0  0  0  0  0  0  0  0
  142.5780   79.3770  222.7900 C   0  0  0  0  0  0  0  0  0  0  0  0
  142.6840   80.2060  223.8910 C   0  0  0  0  0  0  0  0  0  0  0  0
  142.1090   81.4660  223.8330 C   0  0  0  0  0  0  0  0  0  0  0  0
  141.4370   81.8970  222.7020 C   0  0  0  0  0  0  0  0  0  0  0  0
  141.3230   81.0820  221.5990 C   0  0  0  0  0  0  0  0  0  0  0  0
  141.4840   77.7560  220.3070 N   0  0  0  0  0  0  0  0  0  0  0  0
  139.1870   70.5760  223.5450 C   0  0  0  0  0  0  0  0  0  0  0  0
  138.8840   69.2350  223.6100 C   0  0  0  0  0  0  0  0  0  0  0  0
  139.2020   68.4850  224.7480 C   0  0  0  0  0  0  0  0  0  0  0  0
  139.8340   69.1580  225.7980 C   0  0  0  0  0  0  0  0  0  0  0  0
  140.1570   68.4550  226.9230 C   0  0  0  0  0  0  0  0  0  0  0  0
  140.7870   69.1600  227.9510 C   0  0  0  0  0  0  0  0  0  0  0  0
  141.1210   68.4910  229.0790 F   0  0  0  0  0  0  0  0  0  0  0  0
  141.0820   70.4880  227.8750 C   0  0  0  0  0  0  0  0  0  0  0  0
  140.7470   71.1820  226.7300 C   0  0  0  0  0  0  0  0  0  0  0  0
  140.1260   70.5010  225.7070 C   0  0  0  0  0  0  0  0  0  0  0  0
  139.7890   71.1520  224.5810 N   0  0  0  0  0  0  0  0  0  0  0  0
  139.3900   73.1890  223.2640 H   0  0  0  0  0  0  0  0  0  0  0  0
  138.6714   73.0158  220.3146 H   0  0  0  0  0  0  0  0  0  0  0  0
  137.7468   74.1136  221.3933 H   0  0  0  0  0  0  0  0  0  0  0  0
  137.8335   75.7046  219.5038 H   0  0  0  0  0  0  0  0  0  0  0  0
  138.7387   77.2031  219.6671 H   0  0  0  0  0  0  0  0  0  0  0  0
  138.3189   75.5806  217.2714 H   0  0  0  0  0  0  0  0  0  0  0  0
  139.1851   77.1193  217.3690 H   0  0  0  0  0  0  0  0  0  0  0  0
  140.2779   74.2751  217.5481 H   0  0  0  0  0  0  0  0  0  0  0  0
  141.0671   75.6478  216.8417 H   0  0  0  0  0  0  0  0  0  0  0  0
  141.9410   75.0526  219.2732 H   0  0  0  0  0  0  0  0  0  0  0  0
  141.8610   77.5132  217.0248 H   0  0  0  0  0  0  0  0  0  0  0  0
  143.0237   78.3714  222.8003 H   0  0  0  0  0  0  0  0  0  0  0  0
  143.2141   79.8725  224.7953 H   0  0  0  0  0  0  0  0  0  0  0  0
  142.1881   82.1359  224.7019 H   0  0  0  0  0  0  0  0  0  0  0  0
  140.9894   82.9017  222.6848 H   0  0  0  0  0  0  0  0  0  0  0  0
  140.7923   81.4116  220.6936 H   0  0  0  0  0  0  0  0  0  0  0  0
  138.3866   68.7476  222.7585 H   0  0  0  0  0  0  0  0  0  0  0  0
  138.9650   67.4128  224.8135 H   0  0  0  0  0  0  0  0  0  0  0  0
  139.9314   67.3824  227.0155 H   0  0  0  0  0  0  0  0  0  0  0  0
  141.5792   70.9988  228.7128 H   0  0  0  0  0  0  0  0  0  0  0  0
  140.9710   72.2549  226.6368 H   0  0  0  0  0  0  0  0  0  0  0  0
  1  2  2  0
  2  3  1  0
  3  4  1  0
  4  5  1  0
  5  6  2  0
  5  7  1  0
  7  8  1  0
  8  9  1  0
  9 10  1  0
 10 11  1  0
 11 12  1  0
 12 13  2  0
 13 14  1  0
 14 15  1  0
 15 16  1  0
 16 17  2  0
 17 18  1  0
 18 19  2  0
 19 20  1  0
 20 21  2  0
 15 22  2  0
  2 23  1  0
 23 24  2  0
 24 25  1  0
 25 26  2  0
 26 27  1  0
 27 28  2  0
 28 29  1  0
 28 30  1  0
 30 31  2  0
 31 32  1  0
 32 33  2  0
 11  7  1  0
 22 12  1  0
 33 23  1  0
 21 16  1  0
 32 26  1  0
  3 34  1  0
  4 35  1  0
  4 36  1  0
  8 37  1  0
  8 38  1  0
  9 39  1  0
  9 40  1  0
 10 41  1  0
 10 42  1  0
 11 43  1  1
 13 44  1  0
 17 45  1  0
 18 46  1  0
 19 47  1  0
 20 48  1  0
 21 49  1  0
 24 50  1  0
 25 51  1  0
 27 52  1  0
 30 53  1  0
 31 54  1  0
M  END
>  <smiles>  (17) 
O=C(NCC(=O)N1CCC[C@H]1c1csc(-c2ccccc2)n1)c1ccc2cc(F)ccc2n1

>  <score_type>  (17) 
oracle

>  <origin>  (17) 
autodockgpu

>  <m_score__min__energy>  (17) 
-9.4100000000000001

>  <m_primary>  (17) 
energy

>  <rmsd>  (17) 
2.019688948295193

>  <m_score__min__rmsd>  (17) 
2.019688948295193

>  <meeko>  (17) 
{"free_energy": -8.87, "intermolecular_energy": -10.66, "internal_energy": -2.07, "cluster_size": 10, "cluster_id": 2, "rank_in_cluster": 7}

>  <energy>  (17) 
-8.79

>  <cluster_rmsd>  (17) 
1.88

>  <cluster>  (17) 
2

$$$$

     RDKit          3D

 54 58  0  0  0  0  0  0  0  0999 V2000
  137.9390   70.6720  221.7330 O   0  0  0  0  0  0  0  0  0  0  0  0
  138.6110   71.1990  222.6710 C   0  0  0  0  0  0  0  0  0  0  0  0
  138.9630   72.5670  222.5910 N   0  0  0  0  0  0  0  0  0  0  0  0
  138.5980   73.4280  221.4820 C   0  0  0  0  0  0  0  0  0  0  0  0
  139.5350   74.5790  221.4240 C   0  0  0  0  0  0  0  0  0  0  0  0
  140.3680   74.8340  222.3360 O   0  0  0  0  0  0  0  0  0  0  0  0
  139.5270   75.4570  220.3070 N   0  0  0  0  0  0  0  0  0  0  0  0
  138.4520   76.3650  219.9530 C   0  0  0  0  0  0  0  0  0  0  0  0
  138.5050   76.4310  218.4420 C   0  0  0  0  0  0  0  0  0  0  0  0
  139.7000   75.5630  218.0340 C   0  0  0  0  0  0  0  0  0  0  0  0
  140.5460   75.6570  219.2860 C   0  0  1  0  0  0  0  0  0  0  0  0
  141.1230   77.0390  219.4620 C   0  0  0  0  0  0  0  0  0  0  0  0
  141.6530   77.7310  218.3990 C   0  0  0  0  0  0  0  0  0  0  0  0
  142.1980   79.3280  219.1840 S   0  0  0  0  0  0  0  0  0  0  0  0
  141.6130   78.7770  220.8050 C   0  0  0  0  0  0  0  0  0  0  0  0
  141.7570   79.6780  222.0320 C   0  0  0  0  0  0  0  0  0  0  0  0
  140.6620   80.4200  222.4200 C   0  0  0  0  0  0  0  0  0  0  0  0
  140.7740   81.2410  223.5260 C   0  0  0  0  0  0  0  0  0  0  0  0
  141.9830   81.2850  224.2030 C   0  0  0  0  0  0  0  0  0  0  0  0
  143.0660   80.5280  223.7880 C   0  0  0  0  0  0  0  0  0  0  0  0
  142.9680   79.7060  222.6880 C   0  0  0  0  0  0  0  0  0  0  0  0
  141.1690   77.6820  220.6010 N   0  0  0  0  0  0  0  0  0  0  0  0
  139.0270   70.4080  223.8350 C   0  0  0  0  0  0  0  0  0  0  0  0
  138.7980   69.0510  223.8770 C   0  0  0  0  0  0  0  0  0  0  0  0
  139.1930   68.2930  224.9850 C   0  0  0  0  0  0  0  0  0  0  0  0
  139.8230   68.9760  226.0310 C   0  0  0  0  0  0  0  0  0  0  0  0
  140.2210   68.2660  227.1270 C   0  0  0  0  0  0  0  0  0  0  0  0
  140.8460   68.9800  228.1510 C   0  0  0  0  0  0  0  0  0  0  0  0
  141.2530   68.3050  229.2510 F   0  0  0  0  0  0  0  0  0  0  0  0
  141.0670   70.3240  228.0980 C   0  0  0  0  0  0  0  0  0  0  0  0
  140.6580   71.0240  226.9820 C   0  0  0  0  0  0  0  0  0  0  0  0
  140.0400   70.3340  225.9630 C   0  0  0  0  0  0  0  0  0  0  0  0
  139.6310   70.9910  224.8650 N   0  0  0  0  0  0  0  0  0  0  0  0
  139.5260   72.9600  223.4020 H   0  0  0  0  0  0  0  0  0  0  0  0
  138.6553   72.8600  220.5417 H   0  0  0  0  0  0  0  0  0  0  0  0
  137.5712   73.7960  221.6241 H   0  0  0  0  0  0  0  0  0  0  0  0
  137.4821   75.9727  220.2927 H   0  0  0  0  0  0  0  0  0  0  0  0
  138.5635   77.3536  220.4223 H   0  0  0  0  0  0  0  0  0  0  0  0
  137.5758   76.0340  218.0074 H   0  0  0  0  0  0  0  0  0  0  0  0
  138.6114   77.4653  218.0830 H   0  0  0  0  0  0  0  0  0  0  0  0
  139.3970   74.5264  217.8250 H   0  0  0  0  0  0  0  0  0  0  0  0
  140.2069   75.8834  217.1118 H   0  0  0  0  0  0  0  0  0  0  0  0
  141.3971   74.9602  219.2949 H   0  0  0  0  0  0  0  0  0  0  0  0
  141.7346   77.4189  217.3474 H   0  0  0  0  0  0  0  0  0  0  0  0
  139.7171   80.3598  221.8600 H   0  0  0  0  0  0  0  0  0  0  0  0
  139.9205   81.8478  223.8626 H   0  0  0  0  0  0  0  0  0  0  0  0
  142.0840   81.9331  225.0861 H   0  0  0  0  0  0  0  0  0  0  0  0
  144.0141   80.5841  224.3429 H   0  0  0  0  0  0  0  0  0  0  0  0
  143.8194   79.0982  222.3478 H   0  0  0  0  0  0  0  0  0  0  0  0
  138.2990   68.5572  223.0302 H   0  0  0  0  0  0  0  0  0  0  0  0
  139.0160   67.2083  225.0315 H   0  0  0  0  0  0  0  0  0  0  0  0
  140.0567   67.1808  227.1999 H   0  0  0  0  0  0  0  0  0  0  0  0
  141.5635   70.8420  228.9318 H   0  0  0  0  0  0  0  0  0  0  0  0
  140.8219   72.1092  226.9077 H   0  0  0  0  0  0  0  0  0  0  0  0
  1  2  2  0
  2  3  1  0
  3  4  1  0
  4  5  1  0
  5  6  2  0
  5  7  1  0
  7  8  1  0
  8  9  1  0
  9 10  1  0
 10 11  1  0
 11 12  1  0
 12 13  2  0
 13 14  1  0
 14 15  1  0
 15 16  1  0
 16 17  2  0
 17 18  1  0
 18 19  2  0
 19 20  1  0
 20 21  2  0
 15 22  2  0
  2 23  1  0
 23 24  2  0
 24 25  1  0
 25 26  2  0
 26 27  1  0
 27 28  2  0
 28 29  1  0
 28 30  1  0
 30 31  2  0
 31 32  1  0
 32 33  2  0
 11  7  1  0
 22 12  1  0
 33 23  1  0
 21 16  1  0
 32 26  1  0
  3 34  1  0
  4 35  1  0
  4 36  1  0
  8 37  1  0
  8 38  1  0
  9 39  1  0
  9 40  1  0
 10 41  1  0
 10 42  1  0
 11 43  1  6
 13 44  1  0
 17 45  1  0
 18 46  1  0
 19 47  1  0
 20 48  1  0
 21 49  1  0
 24 50  1  0
 25 51  1  0
 27 52  1  0
 30 53  1  0
 31 54  1  0
M  END
>  <smiles>  (18) 
O=C(NCC(=O)N1CCC[C@H]1c1csc(-c2ccccc2)n1)c1ccc2cc(F)ccc2n1

>  <score_type>  (18) 
oracle

>  <origin>  (18) 
autodockgpu

>  <m_score__min__energy>  (18) 
-9.4100000000000001

>  <m_primary>  (18) 
energy

>  <rmsd>  (18) 
2.141148732552927

>  <m_score__min__rmsd>  (18) 
2.141148732552927

>  <meeko>  (18) 
{"free_energy": -8.72, "intermolecular_energy": -10.51, "internal_energy": -2.24, "cluster_size": 10, "cluster_id": 2, "rank_in_cluster": 10}

>  <energy>  (18) 
-8.72

>  <cluster_rmsd>  (18) 
1.96

>  <cluster>  (18) 
2

$$$$

     RDKit          3D

 54 58  0  0  0  0  0  0  0  0999 V2000
  141.4080   72.2930  221.8400 O   0  0  0  0  0  0  0  0  0  0  0  0
  140.3910   72.3730  222.5920 C   0  0  0  0  0  0  0  0  0  0  0  0
  139.4230   73.3750  222.3480 N   0  0  0  0  0  0  0  0  0  0  0  0
  139.5180   74.3410  221.2680 C   0  0  0  0  0  0  0  0  0  0  0  0
  139.0860   75.6740  221.7600 C   0  0  0  0  0  0  0  0  0  0  0  0
  138.0840   75.8390  222.5080 O   0  0  0  0  0  0  0  0  0  0  0  0
  139.8070   76.8430  221.3970 N   0  0  0  0  0  0  0  0  0  0  0  0
  139.4250   77.7840  220.3610 C   0  0  0  0  0  0  0  0  0  0  0  0
  140.7420   78.2960  219.8210 C   0  0  0  0  0  0  0  0  0  0  0  0
  141.8250   77.6220  220.6700 C   0  0  0  0  0  0  0  0  0  0  0  0
  141.0520   77.3650  221.9460 C   0  0  1  0  0  0  0  0  0  0  0  0
  140.7420   78.6480  222.6740 C   0  0  0  0  0  0  0  0  0  0  0  0
  141.7140   79.5930  222.8970 C   0  0  0  0  0  0  0  0  0  0  0  0
  140.7880   80.9240  223.8110 S   0  0  0  0  0  0  0  0  0  0  0  0
  139.2540   79.9660  223.7290 C   0  0  0  0  0  0  0  0  0  0  0  0
  137.9630   80.5100  224.3430 C   0  0  0  0  0  0  0  0  0  0  0  0
  138.0720   81.4470  225.3480 C   0  0  0  0  0  0  0  0  0  0  0  0
  136.9160   81.9490  225.9150 C   0  0  0  0  0  0  0  0  0  0  0  0
  135.6930   81.4920  225.4490 C   0  0  0  0  0  0  0  0  0  0  0  0
  135.6170   80.5490  224.4370 C   0  0  0  0  0  0  0  0  0  0  0  0
  136.7600   80.0400  223.8640 C   0  0  0  0  0  0  0  0  0  0  0  0
  139.5620   78.9660  223.1430 N   0  0  0  0  0  0  0  0  0  0  0  0
  140.2070   71.4420  223.7110 C   0  0  0  0  0  0  0  0  0  0  0  0
  139.5350   70.2540  223.5290 C   0  0  0  0  0  0  0  0  0  0  0  0
  139.3570   69.3630  224.5930 C   0  0  0  0  0  0  0  0  0  0  0  0
  139.8900   69.7360  225.8310 C   0  0  0  0  0  0  0  0  0  0  0  0
  139.7340   68.8890  226.8900 C   0  0  0  0  0  0  0  0  0  0  0  0
  140.2790   69.2940  228.1110 C   0  0  0  0  0  0  0  0  0  0  0  0
  140.1410   68.4760  229.1800 F   0  0  0  0  0  0  0  0  0  0  0  0
  140.9420   70.4730  228.2790 C   0  0  0  0  0  0  0  0  0  0  0  0
  141.0890   71.3160  227.1960 C   0  0  0  0  0  0  0  0  0  0  0  0
  140.5580   70.9300  225.9860 C   0  0  0  0  0  0  0  0  0  0  0  0
  140.6880   71.7320  224.9150 N   0  0  0  0  0  0  0  0  0  0  0  0
  138.5900   73.4010  223.0070 H   0  0  0  0  0  0  0  0  0  0  0  0
  140.5591   74.3987  220.9176 H   0  0  0  0  0  0  0  0  0  0  0  0
  138.8694   74.0280  220.4366 H   0  0  0  0  0  0  0  0  0  0  0  0
  138.8483   77.2812  219.5707 H   0  0  0  0  0  0  0  0  0  0  0  0
  138.7829   78.5920  220.7416 H   0  0  0  0  0  0  0  0  0  0  0  0
  140.8565   78.0197  218.7624 H   0  0  0  0  0  0  0  0  0  0  0  0
  140.8057   79.3928  219.8756 H   0  0  0  0  0  0  0  0  0  0  0  0
  142.1764   76.6856  220.2120 H   0  0  0  0  0  0  0  0  0  0  0  0
  142.7420   78.2155  220.8002 H   0  0  0  0  0  0  0  0  0  0  0  0
  141.5853   76.7215  222.6612 H   0  0  0  0  0  0  0  0  0  0  0  0
  142.7750   79.5690  222.6076 H   0  0  0  0  0  0  0  0  0  0  0  0
  139.0595   81.7884  225.6919 H   0  0  0  0  0  0  0  0  0  0  0  0
  136.9653   82.6966  226.7204 H   0  0  0  0  0  0  0  0  0  0  0  0
  134.7657   81.8854  225.8910 H   0  0  0  0  0  0  0  0  0  0  0  0
  134.6328   80.2035  224.0878 H   0  0  0  0  0  0  0  0  0  0  0  0
  136.7150   79.2913  223.0594 H   0  0  0  0  0  0  0  0  0  0  0  0
  139.1337   70.0027  222.5361 H   0  0  0  0  0  0  0  0  0  0  0  0
  138.8215   68.4112  224.4616 H   0  0  0  0  0  0  0  0  0  0  0  0
  139.2033   67.9311  226.7868 H   0  0  0  0  0  0  0  0  0  0  0  0
  141.3531   70.7481  229.2615 H   0  0  0  0  0  0  0  0  0  0  0  0
  141.6186   72.2748  227.2975 H   0  0  0  0  0  0  0  0  0  0  0  0
  1  2  2  0
  2  3  1  0
  3  4  1  0
  4  5  1  0
  5  6  2  0
  5  7  1  0
  7  8  1  0
  8  9  1  0
  9 10  1  0
 10 11  1  0
 11 12  1  0
 12 13  2  0
 13 14  1  0
 14 15  1  0
 15 16  1  0
 16 17  2  0
 17 18  1  0
 18 19  2  0
 19 20  1  0
 20 21  2  0
 15 22  2  0
  2 23  1  0
 23 24  2  0
 24 25  1  0
 25 26  2  0
 26 27  1  0
 27 28  2  0
 28 29  1  0
 28 30  1  0
 30 31  2  0
 31 32  1  0
 32 33  2  0
 11  7  1  0
 22 12  1  0
 33 23  1  0
 21 16  1  0
 32 26  1  0
  3 34  1  0
  4 35  1  0
  4 36  1  0
  8 37  1  0
  8 38  1  0
  9 39  1  0
  9 40  1  0
 10 41  1  0
 10 42  1  0
 11 43  1  1
 13 44  1  0
 17 45  1  0
 18 46  1  0
 19 47  1  0
 20 48  1  0
 21 49  1  0
 24 50  1  0
 25 51  1  0
 27 52  1  0
 30 53  1  0
 31 54  1  0
M  END
>  <smiles>  (19) 
O=C(NCC(=O)N1CCC[C@H]1c1csc(-c2ccccc2)n1)c1ccc2cc(F)ccc2n1

>  <score_type>  (19) 
oracle

>  <origin>  (19) 
autodockgpu

>  <m_score__min__energy>  (19) 
-9.4100000000000001

>  <m_primary>  (19) 
energy

>  <rmsd>  (19) 
3.042977229722469

>  <m_score__min__rmsd>  (19) 
3.042977229722469

>  <meeko>  (19) 
{"free_energy": -9.19, "intermolecular_energy": -10.98, "internal_energy": -1.74, "cluster_size": 4, "cluster_id": 3, "rank_in_cluster": 2}

>  <energy>  (19) 
-9.22

>  <cluster_rmsd>  (19) 
0.0

>  <cluster>  (19) 
3

$$$$

     RDKit          3D

 54 58  0  0  0  0  0  0  0  0999 V2000
  141.1390   72.8590  221.9130 O   0  0  0  0  0  0  0  0  0  0  0  0
  140.0910   72.6130  222.5840 C   0  0  0  0  0  0  0  0  0  0  0  0
  138.9200   73.3690  222.3460 N   0  0  0  0  0  0  0  0  0  0  0  0
  138.8350   74.4350  221.3640 C   0  0  0  0  0  0  0  0  0  0  0  0
  138.8050   75.7460  222.0610 C   0  0  0  0  0  0  0  0  0  0  0  0
  137.9580   76.0330  222.9490 O   0  0  0  0  0  0  0  0  0  0  0  0
  139.7600   76.7500  221.7440 N   0  0  0  0  0  0  0  0  0  0  0  0
  140.7980   77.2390  222.6310 C   0  0  0  0  0  0  0  0  0  0  0  0
  140.9690   78.6900  222.2360 C   0  0  0  0  0  0  0  0  0  0  0  0
  140.0140   78.9120  221.0600 C   0  0  0  0  0  0  0  0  0  0  0  0
  139.9260   77.5050  220.5090 C   0  0  1  0  0  0  0  0  0  0  0  0
  141.2230   77.0780  219.8690 C   0  0  0  0  0  0  0  0  0  0  0  0
  141.7950   77.8140  218.8600 C   0  0  0  0  0  0  0  0  0  0  0  0
  143.3330   76.8420  218.4680 S   0  0  0  0  0  0  0  0  0  0  0  0
  142.9290   75.6160  219.7370 C   0  0  0  0  0  0  0  0  0  0  0  0
  143.8490   74.4200  219.9840 C   0  0  0  0  0  0  0  0  0  0  0  0
  145.0990   74.6660  220.5100 C   0  0  0  0  0  0  0  0  0  0  0  0
  145.9450   73.5970  220.7400 C   0  0  0  0  0  0  0  0  0  0  0  0
  145.5020   72.3200  220.4330 C   0  0  0  0  0  0  0  0  0  0  0  0
  144.2390   72.1050  219.9060 C   0  0  0  0  0  0  0  0  0  0  0  0
  143.3870   73.1610  219.6720 C   0  0  0  0  0  0  0  0  0  0  0  0
  141.8970   76.0080  220.2050 N   0  0  0  0  0  0  0  0  0  0  0  0
  140.0800   71.5540  223.6000 C   0  0  0  0  0  0  0  0  0  0  0  0
  139.5890   70.3030  223.3020 C   0  0  0  0  0  0  0  0  0  0  0  0
  139.5760   69.2910  224.2680 C   0  0  0  0  0  0  0  0  0  0  0  0
  140.0810   69.6120  225.5320 C   0  0  0  0  0  0  0  0  0  0  0  0
  140.0830   68.6480  226.4980 C   0  0  0  0  0  0  0  0  0  0  0  0
  140.5950   69.0040  227.7480 C   0  0  0  0  0  0  0  0  0  0  0  0
  140.6120   68.0690  228.7260 F   0  0  0  0  0  0  0  0  0  0  0  0
  141.0790   70.2450  228.0310 C   0  0  0  0  0  0  0  0  0  0  0  0
  141.0690   71.2070  227.0420 C   0  0  0  0  0  0  0  0  0  0  0  0
  140.5670   70.8720  225.8040 C   0  0  0  0  0  0  0  0  0  0  0  0
  140.5450   71.7900  224.8220 N   0  0  0  0  0  0  0  0  0  0  0  0
  138.0690   73.1240  222.9340 H   0  0  0  0  0  0  0  0  0  0  0  0
  139.7106   74.3926  220.6995 H   0  0  0  0  0  0  0  0  0  0  0  0
  137.9180   74.3141  220.7687 H   0  0  0  0  0  0  0  0  0  0  0  0
  140.4848   77.1549  223.6821 H   0  0  0  0  0  0  0  0  0  0  0  0
  141.7324   76.6651  222.5436 H   0  0  0  0  0  0  0  0  0  0  0  0
  140.7046   79.3501  223.0752 H   0  0  0  0  0  0  0  0  0  0  0  0
  142.0101   78.9176  221.9634 H   0  0  0  0  0  0  0  0  0  0  0  0
  139.0331   79.2787  221.3967 H   0  0  0  0  0  0  0  0  0  0  0  0
  140.3471   79.6690  220.3347 H   0  0  0  0  0  0  0  0  0  0  0  0
  139.1450   77.3805  219.7445 H   0  0  0  0  0  0  0  0  0  0  0  0
  141.4342   78.7452  218.3989 H   0  0  0  0  0  0  0  0  0  0  0  0
  145.4173   75.6930  220.7423 H   0  0  0  0  0  0  0  0  0  0  0  0
  146.9497   73.7567  221.1583 H   0  0  0  0  0  0  0  0  0  0  0  0
  146.1658   71.4611  220.6112 H   0  0  0  0  0  0  0  0  0  0  0  0
  143.9136   71.0806  219.6722 H   0  0  0  0  0  0  0  0  0  0  0  0
  142.3814   73.0057  219.2541 H   0  0  0  0  0  0  0  0  0  0  0  0
  139.2025   70.0967  222.2930 H   0  0  0  0  0  0  0  0  0  0  0  0
  139.1859   68.2874  224.0432 H   0  0  0  0  0  0  0  0  0  0  0  0
  139.6987   67.6363  226.3012 H   0  0  0  0  0  0  0  0  0  0  0  0
  141.4716   70.4768  229.0321 H   0  0  0  0  0  0  0  0  0  0  0  0
  141.4534   72.2189  227.2379 H   0  0  0  0  0  0  0  0  0  0  0  0
  1  2  2  0
  2  3  1  0
  3  4  1  0
  4  5  1  0
  5  6  2  0
  5  7  1  0
  7  8  1  0
  8  9  1  0
  9 10  1  0
 10 11  1  0
 11 12  1  0
 12 13  2  0
 13 14  1  0
 14 15  1  0
 15 16  1  0
 16 17  2  0
 17 18  1  0
 18 19  2  0
 19 20  1  0
 20 21  2  0
 15 22  2  0
  2 23  1  0
 23 24  2  0
 24 25  1  0
 25 26  2  0
 26 27  1  0
 27 28  2  0
 28 29  1  0
 28 30  1  0
 30 31  2  0
 31 32  1  0
 32 33  2  0
 11  7  1  0
 22 12  1  0
 33 23  1  0
 21 16  1  0
 32 26  1  0
  3 34  1  0
  4 35  1  0
  4 36  1  0
  8 37  1  0
  8 38  1  0
  9 39  1  0
  9 40  1  0
 10 41  1  0
 10 42  1  0
 11 43  1  6
 13 44  1  0
 17 45  1  0
 18 46  1  0
 19 47  1  0
 20 48  1  0
 21 49  1  0
 24 50  1  0
 25 51  1  0
 27 52  1  0
 30 53  1  0
 31 54  1  0
M  END
>  <smiles>  (20) 
O=C(NCC(=O)N1CCC[C@H]1c1csc(-c2ccccc2)n1)c1ccc2cc(F)ccc2n1

>  <score_type>  (20) 
oracle

>  <origin>  (20) 
autodockgpu

>  <m_score__min__energy>  (20) 
-9.4100000000000001

>  <m_primary>  (20) 
energy

>  <rmsd>  (20) 
5.180668111528264

>  <m_score__min__rmsd>  (20) 
5.180668111528264

>  <meeko>  (20) 
{"free_energy": -9.27, "intermolecular_energy": -11.06, "internal_energy": -2.02, "cluster_size": 8, "cluster_id": 1, "rank_in_cluster": 6}

>  <energy>  (20) 
-9.19

>  <cluster_rmsd>  (20) 
0.68

>  <cluster>  (20) 
3

$$$$

     RDKit          3D

 54 58  0  0  0  0  0  0  0  0999 V2000
  138.7470   74.8320  222.3390 O   0  0  0  0  0  0  0  0  0  0  0  0
  139.8600   75.3090  221.9610 C   0  0  0  0  0  0  0  0  0  0  0  0
  140.0420   76.7120  221.9380 N   0  0  0  0  0  0  0  0  0  0  0  0
  139.0180   77.6640  222.3270 C   0  0  0  0  0  0  0  0  0  0  0  0
  139.6520   78.8110  223.0260 C   0  0  0  0  0  0  0  0  0  0  0  0
  139.1730   79.3300  224.0700 O   0  0  0  0  0  0  0  0  0  0  0  0
  140.8560   79.3790  222.5280 N   0  0  0  0  0  0  0  0  0  0  0  0
  142.1980   78.9350  222.8550 C   0  0  0  0  0  0  0  0  0  0  0  0
  143.0300   80.1980  222.8010 C   0  0  0  0  0  0  0  0  0  0  0  0
  142.0660   81.3070  222.3680 C   0  0  0  0  0  0  0  0  0  0  0  0
  141.0370   80.4950  221.6100 C   0  0  1  0  0  0  0  0  0  0  0  0
  141.5990   79.9560  220.3190 C   0  0  0  0  0  0  0  0  0  0  0  0
  142.1560   80.7910  219.3810 C   0  0  0  0  0  0  0  0  0  0  0  0
  142.6660   79.6100  218.0360 S   0  0  0  0  0  0  0  0  0  0  0  0
  142.0370   78.2010  218.9810 C   0  0  0  0  0  0  0  0  0  0  0  0
  142.1370   76.7810  218.4210 C   0  0  0  0  0  0  0  0  0  0  0  0
  143.3280   76.3970  217.8440 C   0  0  0  0  0  0  0  0  0  0  0  0
  143.4360   75.1180  217.3310 C   0  0  0  0  0  0  0  0  0  0  0  0
  142.3420   74.2720  217.4190 C   0  0  0  0  0  0  0  0  0  0  0  0
  141.1580   74.6870  218.0050 C   0  0  0  0  0  0  0  0  0  0  0  0
  141.0360   75.9580  218.5180 C   0  0  0  0  0  0  0  0  0  0  0  0
  141.6070   78.6900  219.9880 N   0  0  0  0  0  0  0  0  0  0  0  0
  140.9560   74.4260  221.5480 C   0  0  0  0  0  0  0  0  0  0  0  0
  140.7780   73.0620  221.5060 C   0  0  0  0  0  0  0  0  0  0  0  0
  141.8220   72.2160  221.1130 C   0  0  0  0  0  0  0  0  0  0  0  0
  143.0350   72.8210  220.7700 C   0  0  0  0  0  0  0  0  0  0  0  0
  144.0740   72.0240  220.3810 C   0  0  0  0  0  0  0  0  0  0  0  0
  145.2700   72.6620  220.0460 C   0  0  0  0  0  0  0  0  0  0  0  0
  146.3180   71.8990  219.6560 F   0  0  0  0  0  0  0  0  0  0  0  0
  145.4340   74.0140  220.0910 C   0  0  0  0  0  0  0  0  0  0  0  0
  144.3730   74.8020  220.4850 C   0  0  0  0  0  0  0  0  0  0  0  0
  143.1860   74.1890  220.8200 C   0  0  0  0  0  0  0  0  0  0  0  0
  142.1370   74.9330  221.2070 N   0  0  0  0  0  0  0  0  0  0  0  0
  140.9920   77.0610  221.6130 H   0  0  0  0  0  0  0  0  0  0  0  0
  138.4929   78.0252  221.4305 H   0  0  0  0  0  0  0  0  0  0  0  0
  138.2981   77.1754  223.0001 H   0  0  0  0  0  0  0  0  0  0  0  0
  142.2278   78.4908  223.8609 H   0  0  0  0  0  0  0  0  0  0  0  0
  142.5646   78.1590  222.1669 H   0  0  0  0  0  0  0  0  0  0  0  0
  143.4531   80.4219  223.7914 H   0  0  0  0  0  0  0  0  0  0  0  0
  143.8761   80.0990  222.1051 H   0  0  0  0  0  0  0  0  0  0  0  0
  141.6216   81.8200  223.2336 H   0  0  0  0  0  0  0  0  0  0  0  0
  142.5299   82.1176  221.7870 H   0  0  0  0  0  0  0  0  0  0  0  0
  140.1354   81.0658  221.3432 H   0  0  0  0  0  0  0  0  0  0  0  0
  142.2717   81.8843  219.4161 H   0  0  0  0  0  0  0  0  0  0  0  0
  144.1766   77.0950  217.7926 H   0  0  0  0  0  0  0  0  0  0  0  0
  144.3715   74.7786  216.8623 H   0  0  0  0  0  0  0  0  0  0  0  0
  142.4155   73.2513  217.0156 H   0  0  0  0  0  0  0  0  0  0  0  0
  140.3061   73.9934  218.0610 H   0  0  0  0  0  0  0  0  0  0  0  0
  140.1012   76.3018  218.9848 H   0  0  0  0  0  0  0  0  0  0  0  0
  139.8047   72.6317  221.7843 H   0  0  0  0  0  0  0  0  0  0  0  0
  141.6937   71.1241  221.0757 H   0  0  0  0  0  0  0  0  0  0  0  0
  143.9731   70.9297  220.3338 H   0  0  0  0  0  0  0  0  0  0  0  0
  146.3972   74.4695  219.8175 H   0  0  0  0  0  0  0  0  0  0  0  0
  144.4726   75.8965  220.5307 H   0  0  0  0  0  0  0  0  0  0  0  0
  1  2  2  0
  2  3  1  0
  3  4  1  0
  4  5  1  0
  5  6  2  0
  5  7  1  0
  7  8  1  0
  8  9  1  0
  9 10  1  0
 10 11  1  0
 11 12  1  0
 12 13  2  0
 13 14  1  0
 14 15  1  0
 15 16  1  0
 16 17  2  0
 17 18  1  0
 18 19  2  0
 19 20  1  0
 20 21  2  0
 15 22  2  0
  2 23  1  0
 23 24  2  0
 24 25  1  0
 25 26  2  0
 26 27  1  0
 27 28  2  0
 28 29  1  0
 28 30  1  0
 30 31  2  0
 31 32  1  0
 32 33  2  0
 11  7  1  0
 22 12  1  0
 33 23  1  0
 21 16  1  0
 32 26  1  0
  3 34  1  0
  4 35  1  0
  4 36  1  0
  8 37  1  0
  8 38  1  0
  9 39  1  0
  9 40  1  0
 10 41  1  0
 10 42  1  0
 11 43  1  6
 13 44  1  0
 17 45  1  0
 18 46  1  0
 19 47  1  0
 20 48  1  0
 21 49  1  0
 24 50  1  0
 25 51  1  0
 27 52  1  0
 30 53  1  0
 31 54  1  0
M  END
>  <smiles>  (21) 
O=C(NCC(=O)N1CCC[C@H]1c1csc(-c2ccccc2)n1)c1ccc2cc(F)ccc2n1

>  <score_type>  (21) 
oracle

>  <origin>  (21) 
autodockgpu

>  <m_score__min__energy>  (21) 
-9.4100000000000001

>  <m_primary>  (21) 
energy

>  <rmsd>  (21) 
6.781597653291169

>  <m_score__min__rmsd>  (21) 
6.781597653291169

>  <meeko>  (21) 
{"free_energy": -6.73, "intermolecular_energy": -8.52, "internal_energy": -4.15, "cluster_size": 11, "cluster_id": 8, "rank_in_cluster": 5}

>  <energy>  (21) 
-8.91

>  <cluster_rmsd>  (21) 
0.62

>  <cluster>  (21) 
3

$$$$

     RDKit          3D

 54 58  0  0  0  0  0  0  0  0999 V2000
  142.5700   76.1860  218.4870 O   0  0  0  0  0  0  0  0  0  0  0  0
  141.5530   76.7610  218.9810 C   0  0  0  0  0  0  0  0  0  0  0  0
  140.2630   76.2550  218.6980 N   0  0  0  0  0  0  0  0  0  0  0  0
  140.0180   75.0960  217.8600 C   0  0  0  0  0  0  0  0  0  0  0  0
  139.6320   73.9440  218.7140 C   0  0  0  0  0  0  0  0  0  0  0  0
  139.2680   72.8310  218.2440 O   0  0  0  0  0  0  0  0  0  0  0  0
  139.6620   74.0570  220.1300 N   0  0  0  0  0  0  0  0  0  0  0  0
  138.5840   74.5580  220.9610 C   0  0  0  0  0  0  0  0  0  0  0  0
  139.2890   75.2180  222.1250 C   0  0  0  0  0  0  0  0  0  0  0  0
  140.7840   74.9790  221.8900 C   0  0  0  0  0  0  0  0  0  0  0  0
  140.7320   73.7150  221.0580 C   0  0  1  0  0  0  0  0  0  0  0  0
  140.2830   72.5320  221.8770 C   0  0  0  0  0  0  0  0  0  0  0  0
  139.5970   71.4880  221.3040 C   0  0  0  0  0  0  0  0  0  0  0  0
  139.3110   70.3470  222.7470 S   0  0  0  0  0  0  0  0  0  0  0  0
  140.1690   71.4830  223.8650 C   0  0  0  0  0  0  0  0  0  0  0  0
  140.3210   71.1470  225.3490 C   0  0  0  0  0  0  0  0  0  0  0  0
  139.6540   70.0420  225.8320 C   0  0  0  0  0  0  0  0  0  0  0  0
  139.7790   69.7230  227.1710 C   0  0  0  0  0  0  0  0  0  0  0  0
  140.5710   70.5280  227.9760 C   0  0  0  0  0  0  0  0  0  0  0  0
  141.2290   71.6330  227.4600 C   0  0  0  0  0  0  0  0  0  0  0  0
  141.1120   71.9620  226.1290 C   0  0  0  0  0  0  0  0  0  0  0  0
  140.4990   72.3960  223.1610 N   0  0  0  0  0  0  0  0  0  0  0  0
  141.7000   77.9410  219.8410 C   0  0  0  0  0  0  0  0  0  0  0  0
  141.8370   79.1950  219.2910 C   0  0  0  0  0  0  0  0  0  0  0  0
  141.9770   80.3220  220.1080 C   0  0  0  0  0  0  0  0  0  0  0  0
  141.9690   80.1110  221.4900 C   0  0  0  0  0  0  0  0  0  0  0  0
  142.1030   81.1910  222.3160 C   0  0  0  0  0  0  0  0  0  0  0  0
  142.0920   80.9420  223.6900 C   0  0  0  0  0  0  0  0  0  0  0  0
  142.2220   81.9920  224.5340 F   0  0  0  0  0  0  0  0  0  0  0  0
  141.9550   79.6960  224.2230 C   0  0  0  0  0  0  0  0  0  0  0  0
  141.8200   78.6170  223.3730 C   0  0  0  0  0  0  0  0  0  0  0  0
  141.8300   78.8460  222.0150 C   0  0  0  0  0  0  0  0  0  0  0  0
  141.7010   77.8130  221.1640 N   0  0  0  0  0  0  0  0  0  0  0  0
  139.4440   76.7730  219.1360 H   0  0  0  0  0  0  0  0  0  0  0  0
  139.2043   75.3187  217.1541 H   0  0  0  0  0  0  0  0  0  0  0  0
  140.9310   74.8483  217.2987 H   0  0  0  0  0  0  0  0  0  0  0  0
  137.9735   75.2883  220.4097 H   0  0  0  0  0  0  0  0  0  0  0  0
  137.8948   73.7629  221.2817 H   0  0  0  0  0  0  0  0  0  0  0  0
  139.0709   76.2960  222.1449 H   0  0  0  0  0  0  0  0  0  0  0  0
  138.9573   74.8051  223.0891 H   0  0  0  0  0  0  0  0  0  0  0  0
  141.2466   75.8103  221.3378 H   0  0  0  0  0  0  0  0  0  0  0  0
  141.3861   74.9004  222.8072 H   0  0  0  0  0  0  0  0  0  0  0  0
  141.7004   73.4387  220.6155 H   0  0  0  0  0  0  0  0  0  0  0  0
  139.2929   71.3588  220.2548 H   0  0  0  0  0  0  0  0  0  0  0  0
  139.0339   69.4256  225.1645 H   0  0  0  0  0  0  0  0  0  0  0  0
  139.2606   68.8479  227.5899 H   0  0  0  0  0  0  0  0  0  0  0  0
  140.6788   70.2850  229.0434 H   0  0  0  0  0  0  0  0  0  0  0  0
  141.8514   72.2537  228.1214 H   0  0  0  0  0  0  0  0  0  0  0  0
  141.6273   72.8371  225.7064 H   0  0  0  0  0  0  0  0  0  0  0  0
  141.8364   79.3125  218.1973 H   0  0  0  0  0  0  0  0  0  0  0  0
  142.0885   81.3299  219.6817 H   0  0  0  0  0  0  0  0  0  0  0  0
  142.2144   82.2100  221.9170 H   0  0  0  0  0  0  0  0  0  0  0  0
  141.9520   79.5520  225.3135 H   0  0  0  0  0  0  0  0  0  0  0  0
  141.7071   77.5978  223.7710 H   0  0  0  0  0  0  0  0  0  0  0  0
  1  2  2  0
  2  3  1  0
  3  4  1  0
  4  5  1  0
  5  6  2  0
  5  7  1  0
  7  8  1  0
  8  9  1  0
  9 10  1  0
 10 11  1  0
 11 12  1  0
 12 13  2  0
 13 14  1  0
 14 15  1  0
 15 16  1  0
 16 17  2  0
 17 18  1  0
 18 19  2  0
 19 20  1  0
 20 21  2  0
 15 22  2  0
  2 23  1  0
 23 24  2  0
 24 25  1  0
 25 26  2  0
 26 27  1  0
 27 28  2  0
 28 29  1  0
 28 30  1  0
 30 31  2  0
 31 32  1  0
 32 33  2  0
 11  7  1  0
 22 12  1  0
 33 23  1  0
 21 16  1  0
 32 26  1  0
  3 34  1  0
  4 35  1  0
  4 36  1  0
  8 37  1  0
  8 38  1  0
  9 39  1  0
  9 40  1  0
 10 41  1  0
 10 42  1  0
 11 43  1  6
 13 44  1  0
 17 45  1  0
 18 46  1  0
 19 47  1  0
 20 48  1  0
 21 49  1  0
 24 50  1  0
 25 51  1  0
 27 52  1  0
 30 53  1  0
 31 54  1  0
M  END
>  <smiles>  (22) 
O=C(NCC(=O)N1CCC[C@H]1c1csc(-c2ccccc2)n1)c1ccc2cc(F)ccc2n1

>  <score_type>  (22) 
oracle

>  <origin>  (22) 
autodockgpu

>  <m_score__min__energy>  (22) 
-9.4100000000000001

>  <m_primary>  (22) 
energy

>  <rmsd>  (22) 
9.174923730089716

>  <m_score__min__rmsd>  (22) 
9.174923730089716

>  <meeko>  (22) 
{"free_energy": -8.15, "intermolecular_energy": -9.94, "internal_energy": -2.12, "cluster_size": 2, "cluster_id": 6, "rank_in_cluster": 2}

>  <energy>  (22) 
-8.78

>  <cluster_rmsd>  (22) 
1.92

>  <cluster>  (22) 
3

$$$$

     RDKit          3D

 54 58  0  0  0  0  0  0  0  0999 V2000
  137.8290   70.3530  221.9560 O   0  0  0  0  0  0  0  0  0  0  0  0
  138.5470   70.8960  222.8490 C   0  0  0  0  0  0  0  0  0  0  0  0
  138.9140   72.2560  222.7150 N   0  0  0  0  0  0  0  0  0  0  0  0
  138.5140   73.0910  221.5970 C   0  0  0  0  0  0  0  0  0  0  0  0
  139.4310   74.2550  221.5000 C   0  0  0  0  0  0  0  0  0  0  0  0
  140.3370   74.4890  222.3450 O   0  0  0  0  0  0  0  0  0  0  0  0
  139.3160   75.1720  220.4200 N   0  0  0  0  0  0  0  0  0  0  0  0
  138.2750   76.1700  220.2650 C   0  0  0  0  0  0  0  0  0  0  0  0
  138.0940   76.2870  218.7680 C   0  0  0  0  0  0  0  0  0  0  0  0
  139.1360   75.3480  218.1520 C   0  0  0  0  0  0  0  0  0  0  0  0
  140.1740   75.3320  219.2540 C   0  0  1  0  0  0  0  0  0  0  0  0
  140.8800   76.6600  219.3690 C   0  0  0  0  0  0  0  0  0  0  0  0
  141.5040   77.2310  218.2860 C   0  0  0  0  0  0  0  0  0  0  0  0
  142.1830   78.8120  218.9940 S   0  0  0  0  0  0  0  0  0  0  0  0
  141.5040   78.4190  220.6260 C   0  0  0  0  0  0  0  0  0  0  0  0
  141.7050   79.3740  221.8030 C   0  0  0  0  0  0  0  0  0  0  0  0
  141.6380   80.7280  221.5540 C   0  0  0  0  0  0  0  0  0  0  0  0
  141.8180   81.6070  222.6050 C   0  0  0  0  0  0  0  0  0  0  0  0
  142.0570   81.0910  223.8700 C   0  0  0  0  0  0  0  0  0  0  0  0
  142.1180   79.7250  224.0880 C   0  0  0  0  0  0  0  0  0  0  0  0
  141.9420   78.8390  223.0500 C   0  0  0  0  0  0  0  0  0  0  0  0
  140.9600   77.3620  220.4700 N   0  0  0  0  0  0  0  0  0  0  0  0
  139.0020   70.1320  224.0170 C   0  0  0  0  0  0  0  0  0  0  0  0
  138.8170   68.7690  224.0770 C   0  0  0  0  0  0  0  0  0  0  0  0
  139.2490   68.0380  225.1890 C   0  0  0  0  0  0  0  0  0  0  0  0
  139.8690   68.7520  226.2190 C   0  0  0  0  0  0  0  0  0  0  0  0
  140.3020   68.0690  227.3190 C   0  0  0  0  0  0  0  0  0  0  0  0
  140.9150   68.8150  228.3270 C   0  0  0  0  0  0  0  0  0  0  0  0
  141.3560   68.1650  229.4300 F   0  0  0  0  0  0  0  0  0  0  0  0
  141.0930   70.1640  228.2560 C   0  0  0  0  0  0  0  0  0  0  0  0
  140.6480   70.8380  227.1370 C   0  0  0  0  0  0  0  0  0  0  0  0
  140.0410   70.1160  226.1330 C   0  0  0  0  0  0  0  0  0  0  0  0
  139.5990   70.7470  225.0330 N   0  0  0  0  0  0  0  0  0  0  0  0
  139.5160   72.6630  223.4890 H   0  0  0  0  0  0  0  0  0  0  0  0
  138.5625   72.5067  220.6663 H   0  0  0  0  0  0  0  0  0  0  0  0
  137.4843   73.4455  221.7522 H   0  0  0  0  0  0  0  0  0  0  0  0
  137.3427   75.8394  220.7461 H   0  0  0  0  0  0  0  0  0  0  0  0
  138.5377   77.1296  220.7342 H   0  0  0  0  0  0  0  0  0  0  0  0
  137.0791   75.9769  218.4786 H   0  0  0  0  0  0  0  0  0  0  0  0
  138.2249   77.3230  218.4221 H   0  0  0  0  0  0  0  0  0  0  0  0
  138.7221   74.3455  217.9687 H   0  0  0  0  0  0  0  0  0  0  0  0
  139.5146   75.6635  217.1686 H   0  0  0  0  0  0  0  0  0  0  0  0
  140.9574   74.5734  219.1094 H   0  0  0  0  0  0  0  0  0  0  0  0
  141.5825   76.8489  217.2575 H   0  0  0  0  0  0  0  0  0  0  0  0
  141.4449   81.1019  220.5377 H   0  0  0  0  0  0  0  0  0  0  0  0
  141.7726   82.6939  222.4416 H   0  0  0  0  0  0  0  0  0  0  0  0
  142.2008   81.7796  224.7157 H   0  0  0  0  0  0  0  0  0  0  0  0
  142.3092   79.3439  225.1020 H   0  0  0  0  0  0  0  0  0  0  0  0
  141.9885   77.7515  223.2090 H   0  0  0  0  0  0  0  0  0  0  0  0
  138.3244   68.2493  223.2419 H   0  0  0  0  0  0  0  0  0  0  0  0
  139.1070   66.9489  225.2503 H   0  0  0  0  0  0  0  0  0  0  0  0
  140.1736   66.9801  227.4069 H   0  0  0  0  0  0  0  0  0  0  0  0
  141.5835   70.7070  229.0773 H   0  0  0  0  0  0  0  0  0  0  0  0
  140.7751   71.9271  227.0487 H   0  0  0  0  0  0  0  0  0  0  0  0
  1  2  2  0
  2  3  1  0
  3  4  1  0
  4  5  1  0
  5  6  2  0
  5  7  1  0
  7  8  1  0
  8  9  1  0
  9 10  1  0
 10 11  1  0
 11 12  1  0
 12 13  2  0
 13 14  1  0
 14 15  1  0
 15 16  1  0
 16 17  2  0
 17 18  1  0
 18 19  2  0
 19 20  1  0
 20 21  2  0
 15 22  2  0
  2 23  1  0
 23 24  2  0
 24 25  1  0
 25 26  2  0
 26 27  1  0
 27 28  2  0
 28 29  1  0
 28 30  1  0
 30 31  2  0
 31 32  1  0
 32 33  2  0
 11  7  1  0
 22 12  1  0
 33 23  1  0
 21 16  1  0
 32 26  1  0
  3 34  1  0
  4 35  1  0
  4 36  1  0
  8 37  1  0
  8 38  1  0
  9 39  1  0
  9 40  1  0
 10 41  1  0
 10 42  1  0
 11 43  1  6
 13 44  1  0
 17 45  1  0
 18 46  1  0
 19 47  1  0
 20 48  1  0
 21 49  1  0
 24 50  1  0
 25 51  1  0
 27 52  1  0
 30 53  1  0
 31 54  1  0
M  END
>  <smiles>  (23) 
O=C(NCC(=O)N1CCC[C@H]1c1csc(-c2ccccc2)n1)c1ccc2cc(F)ccc2n1

>  <score_type>  (23) 
oracle

>  <origin>  (23) 
autodockgpu

>  <m_score__min__energy>  (23) 
-9.4100000000000001

>  <m_primary>  (23) 
energy

>  <rmsd>  (23) 
2.432996945650189

>  <m_score__min__rmsd>  (23) 
2.432996945650189

>  <meeko>  (23) 
{"free_energy": -8.75, "intermolecular_energy": -10.54, "internal_energy": -2.24, "cluster_size": 3, "cluster_id": 5, "rank_in_cluster": 1}

>  <energy>  (23) 
-8.83

>  <cluster_rmsd>  (23) 
0.0

>  <cluster>  (23) 
4

$$$$

     RDKit          3D

 54 58  0  0  0  0  0  0  0  0999 V2000
  139.0500   70.3720  221.4270 O   0  0  0  0  0  0  0  0  0  0  0  0
  138.9150   71.1670  222.4050 C   0  0  0  0  0  0  0  0  0  0  0  0
  138.1720   72.3590  222.2350 N   0  0  0  0  0  0  0  0  0  0  0  0
  137.5390   72.7420  220.9850 C   0  0  0  0  0  0  0  0  0  0  0  0
  138.5860   73.0360  219.9740 C   0  0  0  0  0  0  0  0  0  0  0  0
  138.6180   72.4880  218.8380 O   0  0  0  0  0  0  0  0  0  0  0  0
  139.6180   73.9710  220.2570 N   0  0  0  0  0  0  0  0  0  0  0  0
  140.3390   74.7570  219.2750 C   0  0  0  0  0  0  0  0  0  0  0  0
  141.7200   74.9200  219.8720 C   0  0  0  0  0  0  0  0  0  0  0  0
  141.6600   74.2340  221.2400 C   0  0  0  0  0  0  0  0  0  0  0  0
  140.1820   74.3570  221.5440 C   0  0  1  0  0  0  0  0  0  0  0  0
  139.7910   75.7870  221.8190 C   0  0  0  0  0  0  0  0  0  0  0  0
  138.4910   76.2100  221.6760 C   0  0  0  0  0  0  0  0  0  0  0  0
  138.5960   78.0110  222.1350 S   0  0  0  0  0  0  0  0  0  0  0  0
  140.3750   77.8700  222.4380 C   0  0  0  0  0  0  0  0  0  0  0  0
  141.1860   79.0860  222.8870 C   0  0  0  0  0  0  0  0  0  0  0  0
  142.5480   79.0670  222.6760 C   0  0  0  0  0  0  0  0  0  0  0  0
  143.2980   80.1570  223.0760 C   0  0  0  0  0  0  0  0  0  0  0  0
  142.6500   81.2270  223.6750 C   0  0  0  0  0  0  0  0  0  0  0  0
  141.2790   81.2150  223.8740 C   0  0  0  0  0  0  0  0  0  0  0  0
  140.5210   80.1360  223.4800 C   0  0  0  0  0  0  0  0  0  0  0  0
  140.6230   76.7210  222.2040 N   0  0  0  0  0  0  0  0  0  0  0  0
  139.5180   70.8670  223.7090 C   0  0  0  0  0  0  0  0  0  0  0  0
  140.3190   71.7920  224.3390 C   0  0  0  0  0  0  0  0  0  0  0  0
  140.8970   71.5100  225.5820 C   0  0  0  0  0  0  0  0  0  0  0  0
  140.6210   70.2580  226.1420 C   0  0  0  0  0  0  0  0  0  0  0  0
  141.1680   69.9510  227.3540 C   0  0  0  0  0  0  0  0  0  0  0  0
  140.8710   68.6920  227.8820 C   0  0  0  0  0  0  0  0  0  0  0  0
  141.3980   68.3580  229.0830 F   0  0  0  0  0  0  0  0  0  0  0  0
  140.0760   67.7850  227.2490 C   0  0  0  0  0  0  0  0  0  0  0  0
  139.5320   68.1140  226.0240 C   0  0  0  0  0  0  0  0  0  0  0  0
  139.8150   69.3510  225.4900 C   0  0  0  0  0  0  0  0  0  0  0  0
  139.2980   69.6970  224.2990 N   0  0  0  0  0  0  0  0  0  0  0  0
  138.0880   72.9920  223.0840 H   0  0  0  0  0  0  0  0  0  0  0  0
  136.9040   71.9181  220.6273 H   0  0  0  0  0  0  0  0  0  0  0  0
  136.9198   73.6370  221.1449 H   0  0  0  0  0  0  0  0  0  0  0  0
  140.3901   74.2272  218.3124 H   0  0  0  0  0  0  0  0  0  0  0  0
  139.8528   75.7217  219.0679 H   0  0  0  0  0  0  0  0  0  0  0  0
  142.4741   74.4373  219.2330 H   0  0  0  0  0  0  0  0  0  0  0  0
  142.0035   75.9792  219.9595 H   0  0  0  0  0  0  0  0  0  0  0  0
  141.9766   73.1822  221.1814 H   0  0  0  0  0  0  0  0  0  0  0  0
  142.3231   74.6702  222.0016 H   0  0  0  0  0  0  0  0  0  0  0  0
  139.8618   73.7724  222.4191 H   0  0  0  0  0  0  0  0  0  0  0  0
  137.6091   75.6294  221.3675 H   0  0  0  0  0  0  0  0  0  0  0  0
  143.0290   78.2007  222.1983 H   0  0  0  0  0  0  0  0  0  0  0  0
  144.3871   80.1754  222.9223 H   0  0  0  0  0  0  0  0  0  0  0  0
  143.2351   82.1008  223.9978 H   0  0  0  0  0  0  0  0  0  0  0  0
  140.7911   82.0772  224.3521 H   0  0  0  0  0  0  0  0  0  0  0  0
  139.4318   80.1133  223.6321 H   0  0  0  0  0  0  0  0  0  0  0  0
  140.5071   72.7642  223.8600 H   0  0  0  0  0  0  0  0  0  0  0  0
  141.5396   72.2402  226.0957 H   0  0  0  0  0  0  0  0  0  0  0  0
  141.8132   70.6622  227.8906 H   0  0  0  0  0  0  0  0  0  0  0  0
  139.8709   66.8061  227.7068 H   0  0  0  0  0  0  0  0  0  0  0  0
  138.8867   67.4037  225.4863 H   0  0  0  0  0  0  0  0  0  0  0  0
  1  2  2  0
  2  3  1  0
  3  4  1  0
  4  5  1  0
  5  6  2  0
  5  7  1  0
  7  8  1  0
  8  9  1  0
  9 10  1  0
 10 11  1  0
 11 12  1  0
 12 13  2  0
 13 14  1  0
 14 15  1  0
 15 16  1  0
 16 17  2  0
 17 18  1  0
 18 19  2  0
 19 20  1  0
 20 21  2  0
 15 22  2  0
  2 23  1  0
 23 24  2  0
 24 25  1  0
 25 26  2  0
 26 27  1  0
 27 28  2  0
 28 29  1  0
 28 30  1  0
 30 31  2  0
 31 32  1  0
 32 33  2  0
 11  7  1  0
 22 12  1  0
 33 23  1  0
 21 16  1  0
 32 26  1  0
  3 34  1  0
  4 35  1  0
  4 36  1  0
  8 37  1  0
  8 38  1  0
  9 39  1  0
  9 40  1  0
 10 41  1  0
 10 42  1  0
 11 43  1  1
 13 44  1  0
 17 45  1  0
 18 46  1  0
 19 47  1  0
 20 48  1  0
 21 49  1  0
 24 50  1  0
 25 51  1  0
 27 52  1  0
 30 53  1  0
 31 54  1  0
M  END
>  <smiles>  (24) 
O=C(NCC(=O)N1CCC[C@H]1c1csc(-c2ccccc2)n1)c1ccc2cc(F)ccc2n1

>  <score_type>  (24) 
oracle

>  <origin>  (24) 
autodockgpu

>  <m_score__min__energy>  (24) 
-9.4100000000000001

>  <m_primary>  (24) 
energy

>  <rmsd>  (24) 
3.3747479943603698

>  <m_score__min__rmsd>  (24) 
3.3747479943603698

>  <meeko>  (24) 
{"free_energy": -9.04, "intermolecular_energy": -10.83, "internal_energy": -1.83, "cluster_size": 10, "cluster_id": 2, "rank_in_cluster": 4}

>  <energy>  (24) 
-8.53

>  <cluster_rmsd>  (24) 
1.9

>  <cluster>  (24) 
4

$$$$

     RDKit          3D

 54 58  0  0  0  0  0  0  0  0999 V2000
  138.6880   74.7070  222.3530 O   0  0  0  0  0  0  0  0  0  0  0  0
  139.7280   75.2130  221.8320 C   0  0  0  0  0  0  0  0  0  0  0  0
  139.8030   76.6140  221.6490 N   0  0  0  0  0  0  0  0  0  0  0  0
  138.7440   77.5330  222.0260 C   0  0  0  0  0  0  0  0  0  0  0  0
  139.3240   78.6580  222.8030 C   0  0  0  0  0  0  0  0  0  0  0  0
  138.7630   79.1540  223.8170 O   0  0  0  0  0  0  0  0  0  0  0  0
  140.5660   79.2310  222.4200 N   0  0  0  0  0  0  0  0  0  0  0  0
  141.8760   78.7640  222.8330 C   0  0  0  0  0  0  0  0  0  0  0  0
  142.7180   80.0190  222.8870 C   0  0  0  0  0  0  0  0  0  0  0  0
  141.7980   81.1520  222.4210 C   0  0  0  0  0  0  0  0  0  0  0  0
  140.8250   80.3770  221.5580 C   0  0  1  0  0  0  0  0  0  0  0  0
  141.4810   79.8770  220.2960 C   0  0  0  0  0  0  0  0  0  0  0  0
  142.1090   80.7390  219.4290 C   0  0  0  0  0  0  0  0  0  0  0  0
  142.7160   79.5990  218.0890 S   0  0  0  0  0  0  0  0  0  0  0  0
  142.0140   78.1630  218.9380 C   0  0  0  0  0  0  0  0  0  0  0  0
  142.1530   76.7620  218.3410 C   0  0  0  0  0  0  0  0  0  0  0  0
  141.0610   75.9220  218.4070 C   0  0  0  0  0  0  0  0  0  0  0  0
  141.1680   74.6520  217.8730 C   0  0  0  0  0  0  0  0  0  0  0  0
  142.3690   74.2730  217.2930 C   0  0  0  0  0  0  0  0  0  0  0  0
  143.4480   75.1400  217.2430 C   0  0  0  0  0  0  0  0  0  0  0  0
  143.3550   76.4070  217.7710 C   0  0  0  0  0  0  0  0  0  0  0  0
  141.5120   78.6220  219.9250 N   0  0  0  0  0  0  0  0  0  0  0  0
  140.8510   74.3650  221.4170 C   0  0  0  0  0  0  0  0  0  0  0  0
  140.6980   73.0000  221.3190 C   0  0  0  0  0  0  0  0  0  0  0  0
  141.7670   72.1880  220.9240 C   0  0  0  0  0  0  0  0  0  0  0  0
  142.9790   72.8250  220.6390 C   0  0  0  0  0  0  0  0  0  0  0  0
  144.0420   72.0610  220.2510 C   0  0  0  0  0  0  0  0  0  0  0  0
  145.2350   72.7310  219.9740 C   0  0  0  0  0  0  0  0  0  0  0  0
  146.3070   72.0010  219.5860 F   0  0  0  0  0  0  0  0  0  0  0  0
  145.3750   74.0830  220.0750 C   0  0  0  0  0  0  0  0  0  0  0  0
  144.2890   74.8380  220.4680 C   0  0  0  0  0  0  0  0  0  0  0  0
  143.1040   74.1920  220.7450 C   0  0  0  0  0  0  0  0  0  0  0  0
  142.0310   74.9030  221.1300 N   0  0  0  0  0  0  0  0  0  0  0  0
  140.6940   76.9880  221.2080 H   0  0  0  0  0  0  0  0  0  0  0  0
  138.2573   77.9242  221.1204 H   0  0  0  0  0  0  0  0  0  0  0  0
  137.9999   77.0055  222.6408 H   0  0  0  0  0  0  0  0  0  0  0  0
  141.8255   78.2854  223.8221 H   0  0  0  0  0  0  0  0  0  0  0  0
  142.2891   78.0090  222.1480 H   0  0  0  0  0  0  0  0  0  0  0  0
  143.0657   80.2044  223.9140 H   0  0  0  0  0  0  0  0  0  0  0  0
  143.6141   79.9358  222.2545 H   0  0  0  0  0  0  0  0  0  0  0  0
  141.2918   81.6388  223.2676 H   0  0  0  0  0  0  0  0  0  0  0  0
  142.3110   81.9780  221.9066 H   0  0  0  0  0  0  0  0  0  0  0  0
  139.9509   80.9657  221.2428 H   0  0  0  0  0  0  0  0  0  0  0  0
  142.2241   81.8301  219.5075 H   0  0  0  0  0  0  0  0  0  0  0  0
  140.1236   76.2564  218.8754 H   0  0  0  0  0  0  0  0  0  0  0  0
  140.3173   73.9555  217.9074 H   0  0  0  0  0  0  0  0  0  0  0  0
  142.4668   73.2646  216.8644 H   0  0  0  0  0  0  0  0  0  0  0  0
  144.3887   74.8122  216.7764 H   0  0  0  0  0  0  0  0  0  0  0  0
  144.2038   77.1059  217.7392 H   0  0  0  0  0  0  0  0  0  0  0  0
  139.7253   72.5431  221.5537 H   0  0  0  0  0  0  0  0  0  0  0  0
  141.6588   71.0965  220.8413 H   0  0  0  0  0  0  0  0  0  0  0  0
  143.9621   70.9676  220.1608 H   0  0  0  0  0  0  0  0  0  0  0  0
  146.3376   74.5642  219.8470 H   0  0  0  0  0  0  0  0  0  0  0  0
  144.3676   75.9315  220.5582 H   0  0  0  0  0  0  0  0  0  0  0  0
  1  2  2  0
  2  3  1  0
  3  4  1  0
  4  5  1  0
  5  6  2  0
  5  7  1  0
  7  8  1  0
  8  9  1  0
  9 10  1  0
 10 11  1  0
 11 12  1  0
 12 13  2  0
 13 14  1  0
 14 15  1  0
 15 16  1  0
 16 17  2  0
 17 18  1  0
 18 19  2  0
 19 20  1  0
 20 21  2  0
 15 22  2  0
  2 23  1  0
 23 24  2  0
 24 25  1  0
 25 26  2  0
 26 27  1  0
 27 28  2  0
 28 29  1  0
 28 30  1  0
 30 31  2  0
 31 32  1  0
 32 33  2  0
 11  7  1  0
 22 12  1  0
 33 23  1  0
 21 16  1  0
 32 26  1  0
  3 34  1  0
  4 35  1  0
  4 36  1  0
  8 37  1  0
  8 38  1  0
  9 39  1  0
  9 40  1  0
 10 41  1  0
 10 42  1  0
 11 43  1  6
 13 44  1  0
 17 45  1  0
 18 46  1  0
 19 47  1  0
 20 48  1  0
 21 49  1  0
 24 50  1  0
 25 51  1  0
 27 52  1  0
 30 53  1  0
 31 54  1  0
M  END
>  <smiles>  (25) 
O=C(NCC(=O)N1CCC[C@H]1c1csc(-c2ccccc2)n1)c1ccc2cc(F)ccc2n1

>  <score_type>  (25) 
oracle

>  <origin>  (25) 
autodockgpu

>  <m_score__min__energy>  (25) 
-9.4100000000000001

>  <m_primary>  (25) 
energy

>  <rmsd>  (25) 
6.667713690993462

>  <m_score__min__rmsd>  (25) 
6.667713690993462

>  <meeko>  (25) 
{"free_energy": -6.46, "intermolecular_energy": -8.25, "internal_energy": -4.34, "cluster_size": 11, "cluster_id": 8, "rank_in_cluster": 10}

>  <energy>  (25) 
-8.48

>  <cluster_rmsd>  (25) 
1.06

>  <cluster>  (25) 
4

$$$$

     RDKit          3D

 54 58  0  0  0  0  0  0  0  0999 V2000
  138.7370   74.8740  222.3350 O   0  0  0  0  0  0  0  0  0  0  0  0
  139.8550   75.3510  221.9720 C   0  0  0  0  0  0  0  0  0  0  0  0
  140.0420   76.7530  221.9610 N   0  0  0  0  0  0  0  0  0  0  0  0
  139.0160   77.7060  222.3450 C   0  0  0  0  0  0  0  0  0  0  0  0
  139.6460   78.8470  223.0560 C   0  0  0  0  0  0  0  0  0  0  0  0
  139.1620   79.3550  224.1040 O   0  0  0  0  0  0  0  0  0  0  0  0
  140.8500   79.4220  222.5680 N   0  0  0  0  0  0  0  0  0  0  0  0
  142.1920   78.9840  222.9030 C   0  0  0  0  0  0  0  0  0  0  0  0
  143.0170   80.2520  222.8570 C   0  0  0  0  0  0  0  0  0  0  0  0
  142.0500   81.3570  222.4200 C   0  0  0  0  0  0  0  0  0  0  0  0
  141.0310   80.5410  221.6530 C   0  0  1  0  0  0  0  0  0  0  0  0
  141.6040   80.0080  220.3650 C   0  0  0  0  0  0  0  0  0  0  0  0
  142.1630   80.8470  219.4320 C   0  0  0  0  0  0  0  0  0  0  0  0
  142.6890   79.6720  218.0880 S   0  0  0  0  0  0  0  0  0  0  0  0
  142.0600   78.2570  219.0260 C   0  0  0  0  0  0  0  0  0  0  0  0
  142.1700   76.8390  218.4640 C   0  0  0  0  0  0  0  0  0  0  0  0
  141.0690   76.0160  218.5670 C   0  0  0  0  0  0  0  0  0  0  0  0
  141.1510   74.7310  218.0650 C   0  0  0  0  0  0  0  0  0  0  0  0
  142.3370   74.3210  217.4770 C   0  0  0  0  0  0  0  0  0  0  0  0
  143.4270   75.1720  217.3890 C   0  0  0  0  0  0  0  0  0  0  0  0
  143.3590   76.4540  217.8850 C   0  0  0  0  0  0  0  0  0  0  0  0
  141.6210   78.7420  220.0310 N   0  0  0  0  0  0  0  0  0  0  0  0
  140.9540   74.4670  221.5660 C   0  0  0  0  0  0  0  0  0  0  0  0
  140.7790   73.1020  221.5350 C   0  0  0  0  0  0  0  0  0  0  0  0
  141.8250   72.2560  221.1490 C   0  0  0  0  0  0  0  0  0  0  0  0
  143.0370   72.8610  220.8000 C   0  0  0  0  0  0  0  0  0  0  0  0
  144.0770   72.0640  220.4180 C   0  0  0  0  0  0  0  0  0  0  0  0
  145.2720   72.7020  220.0780 C   0  0  0  0  0  0  0  0  0  0  0  0
  146.3220   71.9400  219.6950 F   0  0  0  0  0  0  0  0  0  0  0  0
  145.4330   74.0550  220.1130 C   0  0  0  0  0  0  0  0  0  0  0  0
  144.3700   74.8440  220.5010 C   0  0  0  0  0  0  0  0  0  0  0  0
  143.1850   74.2300  220.8400 C   0  0  0  0  0  0  0  0  0  0  0  0
  142.1330   74.9740  221.2220 N   0  0  0  0  0  0  0  0  0  0  0  0
  140.9960   77.1020  221.6500 H   0  0  0  0  0  0  0  0  0  0  0  0
  138.5007   78.0733  221.4453 H   0  0  0  0  0  0  0  0  0  0  0  0
  138.2881   77.2158  223.0082 H   0  0  0  0  0  0  0  0  0  0  0  0
  142.2175   78.5379  223.9081 H   0  0  0  0  0  0  0  0  0  0  0  0
  142.5674   78.2112  222.2161 H   0  0  0  0  0  0  0  0  0  0  0  0
  143.4324   80.4761  223.8506 H   0  0  0  0  0  0  0  0  0  0  0  0
  143.8679   80.1591  222.1661 H   0  0  0  0  0  0  0  0  0  0  0  0
  141.5967   81.8655  223.2837 H   0  0  0  0  0  0  0  0  0  0  0  0
  142.5134   82.1717  221.8443 H   0  0  0  0  0  0  0  0  0  0  0  0
  140.1282   81.1075  221.3808 H   0  0  0  0  0  0  0  0  0  0  0  0
  142.2725   81.9409  219.4698 H   0  0  0  0  0  0  0  0  0  0  0  0
  140.1429   76.3751  219.0397 H   0  0  0  0  0  0  0  0  0  0  0  0
  140.2919   74.0472  218.1309 H   0  0  0  0  0  0  0  0  0  0  0  0
  142.4146   73.3010  217.0726 H   0  0  0  0  0  0  0  0  0  0  0  0
  144.3563   74.8193  216.9178 H   0  0  0  0  0  0  0  0  0  0  0  0
  144.2161   77.1406  217.8218 H   0  0  0  0  0  0  0  0  0  0  0  0
  139.8067   72.6715  221.8166 H   0  0  0  0  0  0  0  0  0  0  0  0
  141.6996   71.1635  221.1213 H   0  0  0  0  0  0  0  0  0  0  0  0
  143.9785   70.9691  220.3796 H   0  0  0  0  0  0  0  0  0  0  0  0
  146.3952   74.5105  219.8363 H   0  0  0  0  0  0  0  0  0  0  0  0
  144.4668   75.9391  220.5387 H   0  0  0  0  0  0  0  0  0  0  0  0
  1  2  2  0
  2  3  1  0
  3  4  1  0
  4  5  1  0
  5  6  2  0
  5  7  1  0
  7  8  1  0
  8  9  1  0
  9 10  1  0
 10 11  1  0
 11 12  1  0
 12 13  2  0
 13 14  1  0
 14 15  1  0
 15 16  1  0
 16 17  2  0
 17 18  1  0
 18 19  2  0
 19 20  1  0
 20 21  2  0
 15 22  2  0
  2 23  1  0
 23 24  2  0
 24 25  1  0
 25 26  2  0
 26 27  1  0
 27 28  2  0
 28 29  1  0
 28 30  1  0
 30 31  2  0
 31 32  1  0
 32 33  2  0
 11  7  1  0
 22 12  1  0
 33 23  1  0
 21 16  1  0
 32 26  1  0
  3 34  1  0
  4 35  1  0
  4 36  1  0
  8 37  1  0
  8 38  1  0
  9 39  1  0
  9 40  1  0
 10 41  1  0
 10 42  1  0
 11 43  1  6
 13 44  1  0
 17 45  1  0
 18 46  1  0
 19 47  1  0
 20 48  1  0
 21 49  1  0
 24 50  1  0
 25 51  1  0
 27 52  1  0
 30 53  1  0
 31 54  1  0
M  END
>  <smiles>  (26) 
O=C(NCC(=O)N1CCC[C@H]1c1csc(-c2ccccc2)n1)c1ccc2cc(F)ccc2n1

>  <score_type>  (26) 
oracle

>  <origin>  (26) 
autodockgpu

>  <m_score__min__energy>  (26) 
-9.4100000000000001

>  <m_primary>  (26) 
energy

>  <rmsd>  (26) 
6.706825814356449

>  <m_score__min__rmsd>  (26) 
6.706825814356449

>  <meeko>  (26) 
{"free_energy": -6.75, "intermolecular_energy": -8.54, "internal_energy": -4.11, "cluster_size": 11, "cluster_id": 8, "rank_in_cluster": 4}

>  <energy>  (26) 
-8.46

>  <cluster_rmsd>  (26) 
1.03

>  <cluster>  (26) 
4

$$$$

     RDKit          3D

 54 58  0  0  0  0  0  0  0  0999 V2000
  139.7280   70.5490  221.4290 O   0  0  0  0  0  0  0  0  0  0  0  0
  139.3530   71.2350  222.4280 C   0  0  0  0  0  0  0  0  0  0  0  0
  138.4940   72.3410  222.2280 N   0  0  0  0  0  0  0  0  0  0  0  0
  138.0010   72.7530  220.9260 C   0  0  0  0  0  0  0  0  0  0  0  0
  139.1510   72.9610  220.0080 C   0  0  0  0  0  0  0  0  0  0  0  0
  139.4200   72.1790  219.0560 O   0  0  0  0  0  0  0  0  0  0  0  0
  140.0110   74.0800  220.1750 N   0  0  0  0  0  0  0  0  0  0  0  0
  140.3070   75.0760  219.1630 C   0  0  0  0  0  0  0  0  0  0  0  0
  141.7280   75.4990  219.4640 C   0  0  0  0  0  0  0  0  0  0  0  0
  142.1320   74.7190  220.7200 C   0  0  0  0  0  0  0  0  0  0  0  0
  140.7740   74.4870  221.3470 C   0  0  1  0  0  0  0  0  0  0  0  0
  140.1800   75.7700  221.8720 C   0  0  0  0  0  0  0  0  0  0  0  0
  138.8290   75.8940  222.0880 C   0  0  0  0  0  0  0  0  0  0  0  0
  138.6750   77.6380  222.7190 S   0  0  0  0  0  0  0  0  0  0  0  0
  140.4620   77.8880  222.5780 C   0  0  0  0  0  0  0  0  0  0  0  0
  141.0930   79.2260  222.9650 C   0  0  0  0  0  0  0  0  0  0  0  0
  140.3430   80.3690  222.7880 C   0  0  0  0  0  0  0  0  0  0  0  0
  140.8970   81.5880  223.1310 C   0  0  0  0  0  0  0  0  0  0  0  0
  142.1860   81.6120  223.6410 C   0  0  0  0  0  0  0  0  0  0  0  0
  142.9150   80.4460  223.8060 C   0  0  0  0  0  0  0  0  0  0  0  0
  142.3750   79.2260  223.4680 C   0  0  0  0  0  0  0  0  0  0  0  0
  140.8730   76.8430  222.1590 N   0  0  0  0  0  0  0  0  0  0  0  0
  139.7980   70.8960  223.7840 C   0  0  0  0  0  0  0  0  0  0  0  0
  140.4560   71.8260  224.5580 C   0  0  0  0  0  0  0  0  0  0  0  0
  140.8820   71.5070  225.8510 C   0  0  0  0  0  0  0  0  0  0  0  0
  140.6090   70.2150  226.3110 C   0  0  0  0  0  0  0  0  0  0  0  0
  141.0110   69.8710  227.5690 C   0  0  0  0  0  0  0  0  0  0  0  0
  140.7210   68.5720  227.9940 C   0  0  0  0  0  0  0  0  0  0  0  0
  141.1070   68.2010  229.2370 F   0  0  0  0  0  0  0  0  0  0  0  0
  140.0700   67.6600  227.2190 C   0  0  0  0  0  0  0  0  0  0  0  0
  139.6700   68.0270  225.9500 C   0  0  0  0  0  0  0  0  0  0  0  0
  139.9480   69.3040  225.5160 C   0  0  0  0  0  0  0  0  0  0  0  0
  139.5710   69.6860  224.2850 N   0  0  0  0  0  0  0  0  0  0  0  0
  138.2090   72.8830  223.0960 H   0  0  0  0  0  0  0  0  0  0  0  0
  137.3424   71.9718  220.5186 H   0  0  0  0  0  0  0  0  0  0  0  0
  137.4356   73.6912  221.0264 H   0  0  0  0  0  0  0  0  0  0  0  0
  140.2344   74.6417  218.1550 H   0  0  0  0  0  0  0  0  0  0  0  0
  139.6024   75.9204  219.1837 H   0  0  0  0  0  0  0  0  0  0  0  0
  142.3908   75.2442  218.6239 H   0  0  0  0  0  0  0  0  0  0  0  0
  141.8059   76.5856  219.6166 H   0  0  0  0  0  0  0  0  0  0  0  0
  142.6302   73.7714  220.4672 H   0  0  0  0  0  0  0  0  0  0  0  0
  142.8549   75.2356  221.3685 H   0  0  0  0  0  0  0  0  0  0  0  0
  140.7940   73.7836  222.1924 H   0  0  0  0  0  0  0  0  0  0  0  0
  138.0361   75.1485  221.9279 H   0  0  0  0  0  0  0  0  0  0  0  0
  139.3225   80.3120  222.3813 H   0  0  0  0  0  0  0  0  0  0  0  0
  140.3269   82.5199  223.0020 H   0  0  0  0  0  0  0  0  0  0  0  0
  142.6382   82.5752  223.9198 H   0  0  0  0  0  0  0  0  0  0  0  0
  143.9363   80.4955  224.2115 H   0  0  0  0  0  0  0  0  0  0  0  0
  142.9424   78.2921  223.5941 H   0  0  0  0  0  0  0  0  0  0  0  0
  140.6485   72.8310  224.1544 H   0  0  0  0  0  0  0  0  0  0  0  0
  141.4090   72.2404  226.4790 H   0  0  0  0  0  0  0  0  0  0  0  0
  141.5394   70.5841  228.2189 H   0  0  0  0  0  0  0  0  0  0  0  0
  139.8665   66.6478  227.5984 H   0  0  0  0  0  0  0  0  0  0  0  0
  139.1408   67.3151  225.2996 H   0  0  0  0  0  0  0  0  0  0  0  0
  1  2  2  0
  2  3  1  0
  3  4  1  0
  4  5  1  0
  5  6  2  0
  5  7  1  0
  7  8  1  0
  8  9  1  0
  9 10  1  0
 10 11  1  0
 11 12  1  0
 12 13  2  0
 13 14  1  0
 14 15  1  0
 15 16  1  0
 16 17  2  0
 17 18  1  0
 18 19  2  0
 19 20  1  0
 20 21  2  0
 15 22  2  0
  2 23  1  0
 23 24  2  0
 24 25  1  0
 25 26  2  0
 26 27  1  0
 27 28  2  0
 28 29  1  0
 28 30  1  0
 30 31  2  0
 31 32  1  0
 32 33  2  0
 11  7  1  0
 22 12  1  0
 33 23  1  0
 21 16  1  0
 32 26  1  0
  3 34  1  0
  4 35  1  0
  4 36  1  0
  8 37  1  0
  8 38  1  0
  9 39  1  0
  9 40  1  0
 10 41  1  0
 10 42  1  0
 11 43  1  1
 13 44  1  0
 17 45  1  0
 18 46  1  0
 19 47  1  0
 20 48  1  0
 21 49  1  0
 24 50  1  0
 25 51  1  0
 27 52  1  0
 30 53  1  0
 31 54  1  0
M  END
>  <smiles>  (27) 
O=C(NCC(=O)N1CCC[C@H]1c1csc(-c2ccccc2)n1)c1ccc2cc(F)ccc2n1

>  <score_type>  (27) 
oracle

>  <origin>  (27) 
autodockgpu

>  <m_score__min__energy>  (27) 
-9.4100000000000001

>  <m_primary>  (27) 
energy

>  <rmsd>  (27) 
3.105793156975174

>  <m_score__min__rmsd>  (27) 
3.105793156975174

>  <meeko>  (27) 
{"free_energy": -9.17, "intermolecular_energy": -10.96, "internal_energy": -1.76, "cluster_size": 10, "cluster_id": 2, "rank_in_cluster": 2}

>  <energy>  (27) 
-8.75

>  <cluster_rmsd>  (27) 
0.0

>  <cluster>  (27) 
5

$$$$

     RDKit          3D

 54 58  0  0  0  0  0  0  0  0999 V2000
  138.1740   70.5170  221.6530 O   0  0  0  0  0  0  0  0  0  0  0  0
  138.7620   71.0480  222.6430 C   0  0  0  0  0  0  0  0  0  0  0  0
  139.0720   72.4280  222.6090 N   0  0  0  0  0  0  0  0  0  0  0  0
  138.7570   73.2970  221.4900 C   0  0  0  0  0  0  0  0  0  0  0  0
  138.5720   74.6850  221.9830 C   0  0  0  0  0  0  0  0  0  0  0  0
  139.5340   75.4650  222.2180 O   0  0  0  0  0  0  0  0  0  0  0  0
  137.2670   75.1990  222.2110 N   0  0  0  0  0  0  0  0  0  0  0  0
  136.1180   75.0030  221.3480 C   0  0  0  0  0  0  0  0  0  0  0  0
  135.3090   76.2700  221.5130 C   0  0  0  0  0  0  0  0  0  0  0  0
  136.0620   77.1070  222.5520 C   0  0  0  0  0  0  0  0  0  0  0  0
  136.7780   76.0140  223.3160 C   0  0  1  0  0  0  0  0  0  0  0  0
  135.8160   75.1810  224.1240 C   0  0  0  0  0  0  0  0  0  0  0  0
  134.8360   75.7660  224.8900 C   0  0  0  0  0  0  0  0  0  0  0  0
  133.9760   74.2970  225.6420 S   0  0  0  0  0  0  0  0  0  0  0  0
  135.0920   73.1560  224.7890 C   0  0  0  0  0  0  0  0  0  0  0  0
  134.9460   71.6450  224.9680 C   0  0  0  0  0  0  0  0  0  0  0  0
  134.1290   71.1910  225.9810 C   0  0  0  0  0  0  0  0  0  0  0  0
  133.9850   69.8280  226.1590 C   0  0  0  0  0  0  0  0  0  0  0  0
  134.6690   68.9700  225.3100 C   0  0  0  0  0  0  0  0  0  0  0  0
  135.4830   69.4580  224.3010 C   0  0  0  0  0  0  0  0  0  0  0  0
  135.6350   70.8130  224.1130 C   0  0  0  0  0  0  0  0  0  0  0  0
  135.8260   73.8720  224.1680 N   0  0  0  0  0  0  0  0  0  0  0  0
  139.1220   70.2500  223.8210 C   0  0  0  0  0  0  0  0  0  0  0  0
  138.8400   68.9030  223.8670 C   0  0  0  0  0  0  0  0  0  0  0  0
  139.1820   68.1400  224.9890 C   0  0  0  0  0  0  0  0  0  0  0  0
  139.8160   68.8050  226.0430 C   0  0  0  0  0  0  0  0  0  0  0  0
  140.1630   68.0890  227.1520 C   0  0  0  0  0  0  0  0  0  0  0  0
  140.7940   68.7870  228.1840 C   0  0  0  0  0  0  0  0  0  0  0  0
  141.1510   68.1040  229.2970 F   0  0  0  0  0  0  0  0  0  0  0  0
  141.0670   70.1200  228.1270 C   0  0  0  0  0  0  0  0  0  0  0  0
  140.7090   70.8270  226.9980 C   0  0  0  0  0  0  0  0  0  0  0  0
  140.0860   70.1540  225.9710 C   0  0  0  0  0  0  0  0  0  0  0  0
  139.7270   70.8180  224.8590 N   0  0  0  0  0  0  0  0  0  0  0  0
  139.5650   72.8240  223.4630 H   0  0  0  0  0  0  0  0  0  0  0  0
  139.5816   73.2724  220.7623 H   0  0  0  0  0  0  0  0  0  0  0  0
  137.8319   72.9521  221.0049 H   0  0  0  0  0  0  0  0  0  0  0  0
  136.4332   74.8749  220.3019 H   0  0  0  0  0  0  0  0  0  0  0  0
  135.5451   74.1007  221.6080 H   0  0  0  0  0  0  0  0  0  0  0  0
  135.2442   76.8114  220.5576 H   0  0  0  0  0  0  0  0  0  0  0  0
  134.2782   76.0562  221.8320 H   0  0  0  0  0  0  0  0  0  0  0  0
  136.7701   77.8026  222.0780 H   0  0  0  0  0  0  0  0  0  0  0  0
  135.4236   77.7564  223.1690 H   0  0  0  0  0  0  0  0  0  0  0  0
  137.5317   76.3926  224.0222 H   0  0  0  0  0  0  0  0  0  0  0  0
  134.6153   76.8352  225.0248 H   0  0  0  0  0  0  0  0  0  0  0  0
  133.6014   71.9003  226.6356 H   0  0  0  0  0  0  0  0  0  0  0  0
  133.3410   69.4314  226.9578 H   0  0  0  0  0  0  0  0  0  0  0  0
  134.5631   67.8829  225.4404 H   0  0  0  0  0  0  0  0  0  0  0  0
  136.0139   68.7547  223.6426 H   0  0  0  0  0  0  0  0  0  0  0  0
  136.2780   71.2138  223.3156 H   0  0  0  0  0  0  0  0  0  0  0  0
  138.3408   68.4218  223.0130 H   0  0  0  0  0  0  0  0  0  0  0  0
  138.9616   67.0635  225.0396 H   0  0  0  0  0  0  0  0  0  0  0  0
  139.9552   67.0116  227.2294 H   0  0  0  0  0  0  0  0  0  0  0  0
  141.5651   70.6248  228.9679 H   0  0  0  0  0  0  0  0  0  0  0  0
  140.9166   71.9044  226.9199 H   0  0  0  0  0  0  0  0  0  0  0  0
  1  2  2  0
  2  3  1  0
  3  4  1  0
  4  5  1  0
  5  6  2  0
  5  7  1  0
  7  8  1  0
  8  9  1  0
  9 10  1  0
 10 11  1  0
 11 12  1  0
 12 13  2  0
 13 14  1  0
 14 15  1  0
 15 16  1  0
 16 17  2  0
 17 18  1  0
 18 19  2  0
 19 20  1  0
 20 21  2  0
 15 22  2  0
  2 23  1  0
 23 24  2  0
 24 25  1  0
 25 26  2  0
 26 27  1  0
 27 28  2  0
 28 29  1  0
 28 30  1  0
 30 31  2  0
 31 32  1  0
 32 33  2  0
 11  7  1  0
 22 12  1  0
 33 23  1  0
 21 16  1  0
 32 26  1  0
  3 34  1  0
  4 35  1  0
  4 36  1  0
  8 37  1  0
  8 38  1  0
  9 39  1  0
  9 40  1  0
 10 41  1  0
 10 42  1  0
 11 43  1  1
 13 44  1  0
 17 45  1  0
 18 46  1  0
 19 47  1  0
 20 48  1  0
 21 49  1  0
 24 50  1  0
 25 51  1  0
 27 52  1  0
 30 53  1  0
 31 54  1  0
M  END
>  <smiles>  (28) 
O=C(NCC(=O)N1CCC[C@H]1c1csc(-c2ccccc2)n1)c1ccc2cc(F)ccc2n1

>  <score_type>  (28) 
oracle

>  <origin>  (28) 
autodockgpu

>  <m_score__min__energy>  (28) 
-9.4100000000000001

>  <m_primary>  (28) 
energy

>  <rmsd>  (28) 
6.703572229415078

>  <m_score__min__rmsd>  (28) 
6.703572229415078

>  <meeko>  (28) 
{"free_energy": -7.56, "intermolecular_energy": -9.35, "internal_energy": -2.9, "cluster_size": 1, "cluster_id": 7, "rank_in_cluster": 1}

>  <energy>  (28) 
-8.73

>  <cluster_rmsd>  (28) 
0.2

>  <cluster>  (28) 
5

$$$$

     RDKit          3D

 54 58  0  0  0  0  0  0  0  0999 V2000
  141.2250   72.8020  221.9730 O   0  0  0  0  0  0  0  0  0  0  0  0
  140.1670   72.6090  222.6460 C   0  0  0  0  0  0  0  0  0  0  0  0
  139.0100   73.3680  222.3550 N   0  0  0  0  0  0  0  0  0  0  0  0
  138.9500   74.3780  221.3140 C   0  0  0  0  0  0  0  0  0  0  0  0
  138.9010   75.7250  221.9380 C   0  0  0  0  0  0  0  0  0  0  0  0
  137.9390   76.1170  222.6520 O   0  0  0  0  0  0  0  0  0  0  0  0
  139.9670   76.6450  221.7460 N   0  0  0  0  0  0  0  0  0  0  0  0
  141.0890   76.8380  222.6450 C   0  0  0  0  0  0  0  0  0  0  0  0
  141.4350   78.3030  222.4980 C   0  0  0  0  0  0  0  0  0  0  0  0
  140.4790   78.8470  221.4310 C   0  0  0  0  0  0  0  0  0  0  0  0
  140.1900   77.5810  220.6520 C   0  0  1  0  0  0  0  0  0  0  0  0
  141.3990   77.1190  219.8780 C   0  0  0  0  0  0  0  0  0  0  0  0
  141.8390   77.8030  218.7700 C   0  0  0  0  0  0  0  0  0  0  0  0
  143.3200   76.8080  218.2390 S   0  0  0  0  0  0  0  0  0  0  0  0
  143.0800   75.6480  219.6080 C   0  0  0  0  0  0  0  0  0  0  0  0
  144.0280   74.4630  219.7990 C   0  0  0  0  0  0  0  0  0  0  0  0
  143.9360   73.4130  218.9100 C   0  0  0  0  0  0  0  0  0  0  0  0
  144.7840   72.3340  219.0670 C   0  0  0  0  0  0  0  0  0  0  0  0
  145.6940   72.3490  220.1130 C   0  0  0  0  0  0  0  0  0  0  0  0
  145.7610   73.4180  220.9910 C   0  0  0  0  0  0  0  0  0  0  0  0
  144.9220   74.5000  220.8450 C   0  0  0  0  0  0  0  0  0  0  0  0
  142.1130   76.0650  220.1810 N   0  0  0  0  0  0  0  0  0  0  0  0
  140.1300   71.6090  223.7200 C   0  0  0  0  0  0  0  0  0  0  0  0
  139.6220   70.3510  223.4870 C   0  0  0  0  0  0  0  0  0  0  0  0
  139.5850   69.3950  224.5090 C   0  0  0  0  0  0  0  0  0  0  0  0
  140.0840   69.7790  225.7580 C   0  0  0  0  0  0  0  0  0  0  0  0
  140.0620   68.8700  226.7760 C   0  0  0  0  0  0  0  0  0  0  0  0
  140.5690   69.2880  228.0090 C   0  0  0  0  0  0  0  0  0  0  0  0
  140.5620   68.4090  229.0380 F   0  0  0  0  0  0  0  0  0  0  0  0
  141.0700   70.5360  228.2270 C   0  0  0  0  0  0  0  0  0  0  0  0
  141.0830   71.4410  227.1850 C   0  0  0  0  0  0  0  0  0  0  0  0
  140.5880   71.0440  225.9630 C   0  0  0  0  0  0  0  0  0  0  0  0
  140.5890   71.9060  224.9320 N   0  0  0  0  0  0  0  0  0  0  0  0
  138.1500   73.1690  222.9470 H   0  0  0  0  0  0  0  0  0  0  0  0
  139.8426   74.3011  220.6758 H   0  0  0  0  0  0  0  0  0  0  0  0
  138.0492   74.2228  220.7020 H   0  0  0  0  0  0  0  0  0  0  0  0
  140.8025   76.6070  223.6816 H   0  0  0  0  0  0  0  0  0  0  0  0
  141.9372   76.1790  222.4075 H   0  0  0  0  0  0  0  0  0  0  0  0
  141.2861   78.8303  223.4518 H   0  0  0  0  0  0  0  0  0  0  0  0
  142.4876   78.4460  222.2125 H   0  0  0  0  0  0  0  0  0  0  0  0
  139.5659   79.2661  221.8789 H   0  0  0  0  0  0  0  0  0  0  0  0
  140.8844   79.6740  220.8296 H   0  0  0  0  0  0  0  0  0  0  0  0
  139.3748   77.6905  219.9216 H   0  0  0  0  0  0  0  0  0  0  0  0
  141.4206   78.7112  218.3117 H   0  0  0  0  0  0  0  0  0  0  0  0
  143.2014   73.4342  218.0915 H   0  0  0  0  0  0  0  0  0  0  0  0
  144.7382   71.4796  218.3757 H   0  0  0  0  0  0  0  0  0  0  0  0
  146.3754   71.4960  220.2480 H   0  0  0  0  0  0  0  0  0  0  0  0
  146.4917   73.4025  221.8131 H   0  0  0  0  0  0  0  0  0  0  0  0
  144.9643   75.3564  221.5341 H   0  0  0  0  0  0  0  0  0  0  0  0
  139.2412   70.0943  222.4875 H   0  0  0  0  0  0  0  0  0  0  0  0
  139.1813   68.3863  224.3374 H   0  0  0  0  0  0  0  0  0  0  0  0
  139.6634   67.8549  226.6322 H   0  0  0  0  0  0  0  0  0  0  0  0
  141.4578   70.8177  229.2171 H   0  0  0  0  0  0  0  0  0  0  0  0
  141.4800   72.4569  227.3276 H   0  0  0  0  0  0  0  0  0  0  0  0
  1  2  2  0
  2  3  1  0
  3  4  1  0
  4  5  1  0
  5  6  2  0
  5  7  1  0
  7  8  1  0
  8  9  1  0
  9 10  1  0
 10 11  1  0
 11 12  1  0
 12 13  2  0
 13 14  1  0
 14 15  1  0
 15 16  1  0
 16 17  2  0
 17 18  1  0
 18 19  2  0
 19 20  1  0
 20 21  2  0
 15 22  2  0
  2 23  1  0
 23 24  2  0
 24 25  1  0
 25 26  2  0
 26 27  1  0
 27 28  2  0
 28 29  1  0
 28 30  1  0
 30 31  2  0
 31 32  1  0
 32 33  2  0
 11  7  1  0
 22 12  1  0
 33 23  1  0
 21 16  1  0
 32 26  1  0
  3 34  1  0
  4 35  1  0
  4 36  1  0
  8 37  1  0
  8 38  1  0
  9 39  1  0
  9 40  1  0
 10 41  1  0
 10 42  1  0
 11 43  1  6
 13 44  1  0
 17 45  1  0
 18 46  1  0
 19 47  1  0
 20 48  1  0
 21 49  1  0
 24 50  1  0
 25 51  1  0
 27 52  1  0
 30 53  1  0
 31 54  1  0
M  END
>  <smiles>  (29) 
O=C(NCC(=O)N1CCC[C@H]1c1csc(-c2ccccc2)n1)c1ccc2cc(F)ccc2n1

>  <score_type>  (29) 
oracle

>  <origin>  (29) 
autodockgpu

>  <m_score__min__energy>  (29) 
-9.4100000000000001

>  <m_primary>  (29) 
energy

>  <rmsd>  (29) 
5.188372269744628

>  <m_score__min__rmsd>  (29) 
5.188372269744628

>  <meeko>  (29) 
{"free_energy": -9.41, "intermolecular_energy": -11.2, "internal_energy": -1.86, "cluster_size": 8, "cluster_id": 1, "rank_in_cluster": 1}

>  <energy>  (29) 
-8.7

>  <cluster_rmsd>  (29) 
1.63

>  <cluster>  (29) 
5

$$$$

     RDKit          3D

 54 58  0  0  0  0  0  0  0  0999 V2000
  140.7520   72.3410  221.3780 O   0  0  0  0  0  0  0  0  0  0  0  0
  139.8890   72.3970  222.3060 C   0  0  0  0  0  0  0  0  0  0  0  0
  138.8550   73.3600  222.2350 N   0  0  0  0  0  0  0  0  0  0  0  0
  138.7130   74.3120  221.1480 C   0  0  0  0  0  0  0  0  0  0  0  0
  138.5950   75.6830  221.7060 C   0  0  0  0  0  0  0  0  0  0  0  0
  137.5360   76.1220  222.2320 O   0  0  0  0  0  0  0  0  0  0  0  0
  139.7020   76.5730  221.6670 N   0  0  0  0  0  0  0  0  0  0  0  0
  140.7430   76.6710  222.6720 C   0  0  0  0  0  0  0  0  0  0  0  0
  141.1460   78.1290  222.6450 C   0  0  0  0  0  0  0  0  0  0  0  0
  140.3080   78.7690  221.5340 C   0  0  0  0  0  0  0  0  0  0  0  0
  140.0520   77.5620  220.6560 C   0  0  1  0  0  0  0  0  0  0  0  0
  141.3110   77.1020  219.9660 C   0  0  0  0  0  0  0  0  0  0  0  0
  141.8370   77.8000  218.9050 C   0  0  0  0  0  0  0  0  0  0  0  0
  143.3450   76.8000  218.4680 S   0  0  0  0  0  0  0  0  0  0  0  0
  142.9960   75.6200  219.7950 C   0  0  0  0  0  0  0  0  0  0  0  0
  143.9180   74.4240  220.0350 C   0  0  0  0  0  0  0  0  0  0  0  0
  143.4380   73.1680  219.7320 C   0  0  0  0  0  0  0  0  0  0  0  0
  144.2560   72.0750  219.9440 C   0  0  0  0  0  0  0  0  0  0  0  0
  145.5290   72.2850  220.4510 C   0  0  0  0  0  0  0  0  0  0  0  0
  145.9830   73.5600  220.7450 C   0  0  0  0  0  0  0  0  0  0  0  0
  145.1780   74.6570  220.5400 C   0  0  0  0  0  0  0  0  0  0  0  0
  141.9930   76.0370  220.3020 N   0  0  0  0  0  0  0  0  0  0  0  0
  139.9490   71.4770  223.4470 C   0  0  0  0  0  0  0  0  0  0  0  0
  139.5280   70.1730  223.3180 C   0  0  0  0  0  0  0  0  0  0  0  0
  139.5840   69.2930  224.4050 C   0  0  0  0  0  0  0  0  0  0  0  0
  140.0830   69.8000  225.6090 C   0  0  0  0  0  0  0  0  0  0  0  0
  140.1510   68.9670  226.6890 C   0  0  0  0  0  0  0  0  0  0  0  0
  140.6550   69.5070  227.8740 C   0  0  0  0  0  0  0  0  0  0  0  0
  140.7350   68.7060  228.9620 F   0  0  0  0  0  0  0  0  0  0  0  0
  141.0680   70.8000  227.9900 C   0  0  0  0  0  0  0  0  0  0  0  0
  140.9920   71.6270  226.8870 C   0  0  0  0  0  0  0  0  0  0  0  0
  140.4980   71.1090  225.7110 C   0  0  0  0  0  0  0  0  0  0  0  0
  140.4130   71.8920  224.6220 N   0  0  0  0  0  0  0  0  0  0  0  0
  138.1570   73.3670  223.0370 H   0  0  0  0  0  0  0  0  0  0  0  0
  139.5956   74.2566  220.4939 H   0  0  0  0  0  0  0  0  0  0  0  0
  137.8109   74.0732  220.5657 H   0  0  0  0  0  0  0  0  0  0  0  0
  140.3565   76.3910  223.6631 H   0  0  0  0  0  0  0  0  0  0  0  0
  141.5879   75.9957  222.4718 H   0  0  0  0  0  0  0  0  0  0  0  0
  140.9285   78.6052  223.6124 H   0  0  0  0  0  0  0  0  0  0  0  0
  142.2239   78.2494  222.4617 H   0  0  0  0  0  0  0  0  0  0  0  0
  139.3715   79.1938  221.9245 H   0  0  0  0  0  0  0  0  0  0  0  0
  140.7912   79.6149  221.0231 H   0  0  0  0  0  0  0  0  0  0  0  0
  139.3105   77.7434  219.8640 H   0  0  0  0  0  0  0  0  0  0  0  0
  141.4609   78.7194  218.4325 H   0  0  0  0  0  0  0  0  0  0  0  0
  142.4228   73.0383  219.3290 H   0  0  0  0  0  0  0  0  0  0  0  0
  143.9041   71.0583  219.7150 H   0  0  0  0  0  0  0  0  0  0  0  0
  146.1907   71.4232  220.6230 H   0  0  0  0  0  0  0  0  0  0  0  0
  146.9978   73.6972  221.1466 H   0  0  0  0  0  0  0  0  0  0  0  0
  145.5255   75.6752  220.7693 H   0  0  0  0  0  0  0  0  0  0  0  0
  139.1434   69.8186  222.3503 H   0  0  0  0  0  0  0  0  0  0  0  0
  139.2502   68.2486  224.3161 H   0  0  0  0  0  0  0  0  0  0  0  0
  139.8237   67.9186  226.6282 H   0  0  0  0  0  0  0  0  0  0  0  0
  141.4558   71.1791  228.9470 H   0  0  0  0  0  0  0  0  0  0  0  0
  141.3187   72.6757  226.9465 H   0  0  0  0  0  0  0  0  0  0  0  0
  1  2  2  0
  2  3  1  0
  3  4  1  0
  4  5  1  0
  5  6  2  0
  5  7  1  0
  7  8  1  0
  8  9  1  0
  9 10  1  0
 10 11  1  0
 11 12  1  0
 12 13  2  0
 13 14  1  0
 14 15  1  0
 15 16  1  0
 16 17  2  0
 17 18  1  0
 18 19  2  0
 19 20  1  0
 20 21  2  0
 15 22  2  0
  2 23  1  0
 23 24  2  0
 24 25  1  0
 25 26  2  0
 26 27  1  0
 27 28  2  0
 28 29  1  0
 28 30  1  0
 30 31  2  0
 31 32  1  0
 32 33  2  0
 11  7  1  0
 22 12  1  0
 33 23  1  0
 21 16  1  0
 32 26  1  0
  3 34  1  0
  4 35  1  0
  4 36  1  0
  8 37  1  0
  8 38  1  0
  9 39  1  0
  9 40  1  0
 10 41  1  0
 10 42  1  0
 11 43  1  6
 13 44  1  0
 17 45  1  0
 18 46  1  0
 19 47  1  0
 20 48  1  0
 21 49  1  0
 24 50  1  0
 25 51  1  0
 27 52  1  0
 30 53  1  0
 31 54  1  0
M  END
>  <smiles>  (30) 
O=C(NCC(=O)N1CCC[C@H]1c1csc(-c2ccccc2)n1)c1ccc2cc(F)ccc2n1

>  <score_type>  (30) 
oracle

>  <origin>  (30) 
autodockgpu

>  <m_score__min__energy>  (30) 
-9.4100000000000001

>  <m_primary>  (30) 
energy

>  <rmsd>  (30) 
5.103962251979928

>  <m_score__min__rmsd>  (30) 
5.103962251979928

>  <meeko>  (30) 
{"free_energy": -9.16, "intermolecular_energy": -10.95, "internal_energy": -1.89, "cluster_size": 8, "cluster_id": 1, "rank_in_cluster": 8}

>  <energy>  (30) 
-8.6

>  <cluster_rmsd>  (30) 
0.0

>  <cluster>  (30) 
6

$$$$

     RDKit          3D

 54 58  0  0  0  0  0  0  0  0999 V2000
  138.7650   74.8110  222.3590 O   0  0  0  0  0  0  0  0  0  0  0  0
  139.8770   75.2790  221.9690 C   0  0  0  0  0  0  0  0  0  0  0  0
  140.0630   76.6800  221.9200 N   0  0  0  0  0  0  0  0  0  0  0  0
  139.0410   77.6410  222.2950 C   0  0  0  0  0  0  0  0  0  0  0  0
  139.6710   78.7670  223.0310 C   0  0  0  0  0  0  0  0  0  0  0  0
  139.2160   79.2180  224.1170 O   0  0  0  0  0  0  0  0  0  0  0  0
  140.8430   79.3910  222.5250 N   0  0  0  0  0  0  0  0  0  0  0  0
  142.2060   79.0340  222.8680 C   0  0  0  0  0  0  0  0  0  0  0  0
  142.9630   80.3410  222.7860 C   0  0  0  0  0  0  0  0  0  0  0  0
  141.9390   81.3820  222.3220 C   0  0  0  0  0  0  0  0  0  0  0  0
  140.9640   80.4940  221.5800 C   0  0  1  0  0  0  0  0  0  0  0  0
  141.5630   79.9560  220.3050 C   0  0  0  0  0  0  0  0  0  0  0  0
  142.1540   80.7920  219.3880 C   0  0  0  0  0  0  0  0  0  0  0  0
  142.6990   79.6130  218.0550 S   0  0  0  0  0  0  0  0  0  0  0  0
  142.0320   78.2040  218.9740 C   0  0  0  0  0  0  0  0  0  0  0  0
  142.1410   76.7860  218.4110 C   0  0  0  0  0  0  0  0  0  0  0  0
  141.0440   75.9590  218.5270 C   0  0  0  0  0  0  0  0  0  0  0  0
  141.1240   74.6740  218.0250 C   0  0  0  0  0  0  0  0  0  0  0  0
  142.3050   74.2680  217.4230 C   0  0  0  0  0  0  0  0  0  0  0  0
  143.3910   75.1220  217.3220 C   0  0  0  0  0  0  0  0  0  0  0  0
  143.3240   76.4040  217.8180 C   0  0  0  0  0  0  0  0  0  0  0  0
  141.5740   78.6910  219.9690 N   0  0  0  0  0  0  0  0  0  0  0  0
  140.9710   74.3860  221.5700 C   0  0  0  0  0  0  0  0  0  0  0  0
  140.7930   73.0210  221.5610 C   0  0  0  0  0  0  0  0  0  0  0  0
  141.8340   72.1660  221.1810 C   0  0  0  0  0  0  0  0  0  0  0  0
  143.0450   72.7620  220.8150 C   0  0  0  0  0  0  0  0  0  0  0  0
  144.0800   71.9570  220.4390 C   0  0  0  0  0  0  0  0  0  0  0  0
  145.2740   72.5870  220.0800 C   0  0  0  0  0  0  0  0  0  0  0  0
  146.3200   71.8150  219.7010 F   0  0  0  0  0  0  0  0  0  0  0  0
  145.4390   73.9390  220.0920 C   0  0  0  0  0  0  0  0  0  0  0  0
  144.3800   74.7370  220.4750 C   0  0  0  0  0  0  0  0  0  0  0  0
  143.1960   74.1310  220.8320 C   0  0  0  0  0  0  0  0  0  0  0  0
  142.1490   74.8840  221.2090 N   0  0  0  0  0  0  0  0  0  0  0  0
  141.0120   77.0220  221.5870 H   0  0  0  0  0  0  0  0  0  0  0  0
  138.5475   78.0243  221.3898 H   0  0  0  0  0  0  0  0  0  0  0  0
  138.2947   77.1523  222.9386 H   0  0  0  0  0  0  0  0  0  0  0  0
  142.2561   78.6171  223.8847 H   0  0  0  0  0  0  0  0  0  0  0  0
  142.6208   78.2640  222.2009 H   0  0  0  0  0  0  0  0  0  0  0  0
  143.3672   80.6131  223.7722 H   0  0  0  0  0  0  0  0  0  0  0  0
  143.8168   80.2742  222.0956 H   0  0  0  0  0  0  0  0  0  0  0  0
  141.4606   81.8890  223.1729 H   0  0  0  0  0  0  0  0  0  0  0  0
  142.3585   82.2042  221.7237 H   0  0  0  0  0  0  0  0  0  0  0  0
  140.0328   81.0057  221.2952 H   0  0  0  0  0  0  0  0  0  0  0  0
  142.2747   81.8845  219.4311 H   0  0  0  0  0  0  0  0  0  0  0  0
  140.1223   76.3154  219.0101 H   0  0  0  0  0  0  0  0  0  0  0  0
  140.2681   73.9873  218.1015 H   0  0  0  0  0  0  0  0  0  0  0  0
  142.3811   73.2482  217.0178 H   0  0  0  0  0  0  0  0  0  0  0  0
  144.3161   74.7720  216.8406 H   0  0  0  0  0  0  0  0  0  0  0  0
  144.1779   77.0935  217.7441 H   0  0  0  0  0  0  0  0  0  0  0  0
  139.8216   72.5974  221.8558 H   0  0  0  0  0  0  0  0  0  0  0  0
  141.7053   71.0736  221.1707 H   0  0  0  0  0  0  0  0  0  0  0  0
  143.9791   70.8618  220.4194 H   0  0  0  0  0  0  0  0  0  0  0  0
  146.4004   74.3875  219.8012 H   0  0  0  0  0  0  0  0  0  0  0  0
  144.4795   75.8323  220.4947 H   0  0  0  0  0  0  0  0  0  0  0  0
  1  2  2  0
  2  3  1  0
  3  4  1  0
  4  5  1  0
  5  6  2  0
  5  7  1  0
  7  8  1  0
  8  9  1  0
  9 10  1  0
 10 11  1  0
 11 12  1  0
 12 13  2  0
 13 14  1  0
 14 15  1  0
 15 16  1  0
 16 17  2  0
 17 18  1  0
 18 19  2  0
 19 20  1  0
 20 21  2  0
 15 22  2  0
  2 23  1  0
 23 24  2  0
 24 25  1  0
 25 26  2  0
 26 27  1  0
 27 28  2  0
 28 29  1  0
 28 30  1  0
 30 31  2  0
 31 32  1  0
 32 33  2  0
 11  7  1  0
 22 12  1  0
 33 23  1  0
 21 16  1  0
 32 26  1  0
  3 34  1  0
  4 35  1  0
  4 36  1  0
  8 37  1  0
  8 38  1  0
  9 39  1  0
  9 40  1  0
 10 41  1  0
 10 42  1  0
 11 43  1  6
 13 44  1  0
 17 45  1  0
 18 46  1  0
 19 47  1  0
 20 48  1  0
 21 49  1  0
 24 50  1  0
 25 51  1  0
 27 52  1  0
 30 53  1  0
 31 54  1  0
M  END
>  <smiles>  (31) 
O=C(NCC(=O)N1CCC[C@H]1c1csc(-c2ccccc2)n1)c1ccc2cc(F)ccc2n1

>  <score_type>  (31) 
oracle

>  <origin>  (31) 
autodockgpu

>  <m_score__min__energy>  (31) 
-9.4100000000000001

>  <m_primary>  (31) 
energy

>  <rmsd>  (31) 
6.686938167632243

>  <m_score__min__rmsd>  (31) 
6.686938167632243

>  <meeko>  (31) 
{"free_energy": -6.78, "intermolecular_energy": -8.57, "internal_energy": -4.12, "cluster_size": 11, "cluster_id": 8, "rank_in_cluster": 3}

>  <energy>  (31) 
-8.15

>  <cluster_rmsd>  (31) 
1.95

>  <cluster>  (31) 
6

$$$$

     RDKit          3D

 54 58  0  0  0  0  0  0  0  0999 V2000
  139.9800   73.0300  222.8370 O   0  0  0  0  0  0  0  0  0  0  0  0
  139.6650   71.8080  222.7060 C   0  0  0  0  0  0  0  0  0  0  0  0
  139.2540   71.3280  221.4410 N   0  0  0  0  0  0  0  0  0  0  0  0
  139.1630   72.1590  220.2550 C   0  0  0  0  0  0  0  0  0  0  0  0
  140.5260   72.3880  219.7100 C   0  0  0  0  0  0  0  0  0  0  0  0
  141.2110   71.4790  219.1670 O   0  0  0  0  0  0  0  0  0  0  0  0
  141.1220   73.6760  219.7820 N   0  0  0  0  0  0  0  0  0  0  0  0
  141.1590   74.6510  218.7090 C   0  0  0  0  0  0  0  0  0  0  0  0
  142.4600   75.3920  218.9260 C   0  0  0  0  0  0  0  0  0  0  0  0
  143.0660   74.7950  220.2000 C   0  0  0  0  0  0  0  0  0  0  0  0
  141.8130   74.3090  220.8970 C   0  0  1  0  0  0  0  0  0  0  0  0
  140.9680   75.4590  221.3820 C   0  0  0  0  0  0  0  0  0  0  0  0
  139.5950   75.3950  221.3560 C   0  0  0  0  0  0  0  0  0  0  0  0
  139.0970   77.0470  222.0520 S   0  0  0  0  0  0  0  0  0  0  0  0
  140.8300   77.5290  222.2540 C   0  0  0  0  0  0  0  0  0  0  0  0
  141.1950   78.8980  222.8290 C   0  0  0  0  0  0  0  0  0  0  0  0
  142.5270   79.2520  222.8570 C   0  0  0  0  0  0  0  0  0  0  0  0
  142.8770   80.4850  223.3740 C   0  0  0  0  0  0  0  0  0  0  0  0
  141.8730   81.3180  223.8450 C   0  0  0  0  0  0  0  0  0  0  0  0
  140.5430   80.9330  223.8040 C   0  0  0  0  0  0  0  0  0  0  0  0
  140.1820   79.7070  223.2920 C   0  0  0  0  0  0  0  0  0  0  0  0
  141.4470   76.5820  221.8550 N   0  0  0  0  0  0  0  0  0  0  0  0
  139.7240   70.8890  223.8490 C   0  0  0  0  0  0  0  0  0  0  0  0
  139.1990   69.6200  223.7550 C   0  0  0  0  0  0  0  0  0  0  0  0
  139.2530   68.7410  224.8420 C   0  0  0  0  0  0  0  0  0  0  0  0
  139.8600   69.2120  226.0110 C   0  0  0  0  0  0  0  0  0  0  0  0
  139.9290   68.3790  227.0900 C   0  0  0  0  0  0  0  0  0  0  0  0
  140.5420   68.8830  228.2400 C   0  0  0  0  0  0  0  0  0  0  0  0
  140.6270   68.0810  229.3270 F   0  0  0  0  0  0  0  0  0  0  0  0
  141.0580   70.1410  228.3220 C   0  0  0  0  0  0  0  0  0  0  0  0
  140.9790   70.9680  227.2200 C   0  0  0  0  0  0  0  0  0  0  0  0
  140.3780   70.4860  226.0780 C   0  0  0  0  0  0  0  0  0  0  0  0
  140.2870   71.2700  224.9910 N   0  0  0  0  0  0  0  0  0  0  0  0
  139.0010   70.2970  221.3840 H   0  0  0  0  0  0  0  0  0  0  0  0
  138.5450   71.6532  219.4985 H   0  0  0  0  0  0  0  0  0  0  0  0
  138.7035   73.1239  220.5156 H   0  0  0  0  0  0  0  0  0  0  0  0
  141.1527   74.1525  217.7285 H   0  0  0  0  0  0  0  0  0  0  0  0
  140.2862   75.3204  218.7175 H   0  0  0  0  0  0  0  0  0  0  0  0
  143.1358   75.2399  218.0715 H   0  0  0  0  0  0  0  0  0  0  0  0
  142.3003   76.4762  219.0204 H   0  0  0  0  0  0  0  0  0  0  0  0
  143.7528   73.9661  219.9737 H   0  0  0  0  0  0  0  0  0  0  0  0
  143.6775   75.4943  220.7891 H   0  0  0  0  0  0  0  0  0  0  0  0
  142.0145   73.6781  221.7753 H   0  0  0  0  0  0  0  0  0  0  0  0
  138.9516   74.5726  221.0101 H   0  0  0  0  0  0  0  0  0  0  0  0
  143.2971   78.5658  222.4749 H   0  0  0  0  0  0  0  0  0  0  0  0
  143.9305   80.7994  223.4112 H   0  0  0  0  0  0  0  0  0  0  0  0
  142.1377   82.3023  224.2586 H   0  0  0  0  0  0  0  0  0  0  0  0
  139.7673   81.6138  224.1844 H   0  0  0  0  0  0  0  0  0  0  0  0
  139.1300   79.3878  223.2546 H   0  0  0  0  0  0  0  0  0  0  0  0
  138.7316   69.2933  222.8144 H   0  0  0  0  0  0  0  0  0  0  0  0
  138.8367   67.7247  224.7802 H   0  0  0  0  0  0  0  0  0  0  0  0
  139.5209   67.3581  227.0558 H   0  0  0  0  0  0  0  0  0  0  0  0
  141.5300   70.4920  229.2515 H   0  0  0  0  0  0  0  0  0  0  0  0
  141.3868   71.9891  227.2528 H   0  0  0  0  0  0  0  0  0  0  0  0
  1  2  2  0
  2  3  1  0
  3  4  1  0
  4  5  1  0
  5  6  2  0
  5  7  1  0
  7  8  1  0
  8  9  1  0
  9 10  1  0
 10 11  1  0
 11 12  1  0
 12 13  2  0
 13 14  1  0
 14 15  1  0
 15 16  1  0
 16 17  2  0
 17 18  1  0
 18 19  2  0
 19 20  1  0
 20 21  2  0
 15 22  2  0
  2 23  1  0
 23 24  2  0
 24 25  1  0
 25 26  2  0
 26 27  1  0
 27 28  2  0
 28 29  1  0
 28 30  1  0
 30 31  2  0
 31 32  1  0
 32 33  2  0
 11  7  1  0
 22 12  1  0
 33 23  1  0
 21 16  1  0
 32 26  1  0
  3 34  1  0
  4 35  1  0
  4 36  1  0
  8 37  1  0
  8 38  1  0
  9 39  1  0
  9 40  1  0
 10 41  1  0
 10 42  1  0
 11 43  1  1
 13 44  1  0
 17 45  1  0
 18 46  1  0
 19 47  1  0
 20 48  1  0
 21 49  1  0
 24 50  1  0
 25 51  1  0
 27 52  1  0
 30 53  1  0
 31 54  1  0
M  END
>  <smiles>  (32) 
O=C(NCC(=O)N1CCC[C@H]1c1csc(-c2ccccc2)n1)c1ccc2cc(F)ccc2n1

>  <score_type>  (32) 
oracle

>  <origin>  (32) 
autodockgpu

>  <m_score__min__energy>  (32) 
-9.4100000000000001

>  <m_primary>  (32) 
energy

>  <rmsd>  (32) 
2.807491089432509

>  <m_score__min__rmsd>  (32) 
2.807491089432509

>  <meeko>  (32) 
{"free_energy": -9.23, "intermolecular_energy": -11.02, "internal_energy": -1.67, "cluster_size": 10, "cluster_id": 2, "rank_in_cluster": 1}

>  <energy>  (32) 
-7.56

>  <cluster_rmsd>  (32) 
0.0

>  <cluster>  (32) 
7

$$$$

     RDKit          3D

 54 58  0  0  0  0  0  0  0  0999 V2000
  138.6990   74.7440  222.3400 O   0  0  0  0  0  0  0  0  0  0  0  0
  139.7660   75.2530  221.8800 C   0  0  0  0  0  0  0  0  0  0  0  0
  139.8730   76.6590  221.7670 N   0  0  0  0  0  0  0  0  0  0  0  0
  138.8190   77.5800  222.1500 C   0  0  0  0  0  0  0  0  0  0  0  0
  139.4120   78.7330  222.8750 C   0  0  0  0  0  0  0  0  0  0  0  0
  138.8560   79.2840  223.8630 O   0  0  0  0  0  0  0  0  0  0  0  0
  140.6640   79.2700  222.4690 N   0  0  0  0  0  0  0  0  0  0  0  0
  141.9670   78.7610  222.8540 C   0  0  0  0  0  0  0  0  0  0  0  0
  142.8470   79.9910  222.8950 C   0  0  0  0  0  0  0  0  0  0  0  0
  141.9520   81.1530  222.4520 C   0  0  0  0  0  0  0  0  0  0  0  0
  140.9400   80.4110  221.6060 C   0  0  1  0  0  0  0  0  0  0  0  0
  141.5550   79.8960  220.3290 C   0  0  0  0  0  0  0  0  0  0  0  0
  142.1570   80.7480  219.4350 C   0  0  0  0  0  0  0  0  0  0  0  0
  142.7200   79.5940  218.0880 S   0  0  0  0  0  0  0  0  0  0  0  0
  142.0420   78.1680  218.9730 C   0  0  0  0  0  0  0  0  0  0  0  0
  142.1580   76.7610  218.3860 C   0  0  0  0  0  0  0  0  0  0  0  0
  143.3610   76.3940  217.8210 C   0  0  0  0  0  0  0  0  0  0  0  0
  143.4840   75.1260  217.2850 C   0  0  0  0  0  0  0  0  0  0  0  0
  142.3930   74.2730  217.3370 C   0  0  0  0  0  0  0  0  0  0  0  0
  141.1970   74.6710  217.9110 C   0  0  0  0  0  0  0  0  0  0  0  0
  141.0600   75.9310  218.4480 C   0  0  0  0  0  0  0  0  0  0  0  0
  141.5710   78.6380  219.9700 N   0  0  0  0  0  0  0  0  0  0  0  0
  140.8880   74.4020  221.4650 C   0  0  0  0  0  0  0  0  0  0  0  0
  140.7370   73.0360  221.3850 C   0  0  0  0  0  0  0  0  0  0  0  0
  141.8050   72.2220  220.9900 C   0  0  0  0  0  0  0  0  0  0  0  0
  143.0120   72.8590  220.6850 C   0  0  0  0  0  0  0  0  0  0  0  0
  144.0730   72.0930  220.2960 C   0  0  0  0  0  0  0  0  0  0  0  0
  145.2630   72.7630  220.0010 C   0  0  0  0  0  0  0  0  0  0  0  0
  146.3330   72.0310  219.6120 F   0  0  0  0  0  0  0  0  0  0  0  0
  145.3990   74.1160  220.0840 C   0  0  0  0  0  0  0  0  0  0  0  0
  144.3150   74.8730  220.4790 C   0  0  0  0  0  0  0  0  0  0  0  0
  143.1350   74.2280  220.7740 C   0  0  0  0  0  0  0  0  0  0  0  0
  142.0640   74.9410  221.1610 N   0  0  0  0  0  0  0  0  0  0  0  0
  140.7860   77.0350  221.3760 H   0  0  0  0  0  0  0  0  0  0  0  0
  138.3007   77.9400  221.2490 H   0  0  0  0  0  0  0  0  0  0  0  0
  138.0999   77.0648  222.8038 H   0  0  0  0  0  0  0  0  0  0  0  0
  141.9218   78.2802  223.8423 H   0  0  0  0  0  0  0  0  0  0  0  0
  142.3433   77.9960  222.1590 H   0  0  0  0  0  0  0  0  0  0  0  0
  143.2209   80.1617  223.9153 H   0  0  0  0  0  0  0  0  0  0  0  0
  143.7269   79.8838  222.2437 H   0  0  0  0  0  0  0  0  0  0  0  0
  141.4774   81.6508  223.3105 H   0  0  0  0  0  0  0  0  0  0  0  0
  142.4788   81.9659  221.9307 H   0  0  0  0  0  0  0  0  0  0  0  0
  140.0782   81.0273  221.3102 H   0  0  0  0  0  0  0  0  0  0  0  0
  142.2764   81.8396  219.4994 H   0  0  0  0  0  0  0  0  0  0  0  0
  144.2067   77.0970  217.7973 H   0  0  0  0  0  0  0  0  0  0  0  0
  144.4292   74.8003  216.8262 H   0  0  0  0  0  0  0  0  0  0  0  0
  142.4785   73.2610  216.9145 H   0  0  0  0  0  0  0  0  0  0  0  0
  140.3475   73.9727  217.9380 H   0  0  0  0  0  0  0  0  0  0  0  0
  140.1159   76.2606  218.9063 H   0  0  0  0  0  0  0  0  0  0  0  0
  139.7675   72.5797  221.6339 H   0  0  0  0  0  0  0  0  0  0  0  0
  141.6995   71.1292  220.9225 H   0  0  0  0  0  0  0  0  0  0  0  0
  143.9946   70.9985  220.2184 H   0  0  0  0  0  0  0  0  0  0  0  0
  146.3576   74.5973  219.8400 H   0  0  0  0  0  0  0  0  0  0  0  0
  144.3920   75.9676  220.5565 H   0  0  0  0  0  0  0  0  0  0  0  0
  1  2  2  0
  2  3  1  0
  3  4  1  0
  4  5  1  0
  5  6  2  0
  5  7  1  0
  7  8  1  0
  8  9  1  0
  9 10  1  0
 10 11  1  0
 11 12  1  0
 12 13  2  0
 13 14  1  0
 14 15  1  0
 15 16  1  0
 16 17  2  0
 17 18  1  0
 18 19  2  0
 19 20  1  0
 20 21  2  0
 15 22  2  0
  2 23  1  0
 23 24  2  0
 24 25  1  0
 25 26  2  0
 26 27  1  0
 27 28  2  0
 28 29  1  0
 28 30  1  0
 30 31  2  0
 31 32  1  0
 32 33  2  0
 11  7  1  0
 22 12  1  0
 33 23  1  0
 21 16  1  0
 32 26  1  0
  3 34  1  0
  4 35  1  0
  4 36  1  0
  8 37  1  0
  8 38  1  0
  9 39  1  0
  9 40  1  0
 10 41  1  0
 10 42  1  0
 11 43  1  6
 13 44  1  0
 17 45  1  0
 18 46  1  0
 19 47  1  0
 20 48  1  0
 21 49  1  0
 24 50  1  0
 25 51  1  0
 27 52  1  0
 30 53  1  0
 31 54  1  0
M  END
>  <smiles>  (33) 
O=C(NCC(=O)N1CCC[C@H]1c1csc(-c2ccccc2)n1)c1ccc2cc(F)ccc2n1

>  <score_type>  (33) 
oracle

>  <origin>  (33) 
autodockgpu

>  <m_score__min__energy>  (33) 
-9.4100000000000001

>  <m_primary>  (33) 
energy

>  <rmsd>  (33) 
6.766409821265467

>  <m_score__min__rmsd>  (33) 
6.766409821265467

>  <meeko>  (33) 
{"free_energy": -6.52, "intermolecular_energy": -8.31, "internal_energy": -4.3, "cluster_size": 11, "cluster_id": 8, "rank_in_cluster": 9}

>  <energy>  (33) 
-6.83

>  <cluster_rmsd>  (33) 
0.0

>  <cluster>  (33) 
8

$$$$

     RDKit          3D

 54 58  0  0  0  0  0  0  0  0999 V2000
  137.2410   76.0010  222.4410 O   0  0  0  0  0  0  0  0  0  0  0  0
  138.4760   76.2520  222.3030 C   0  0  0  0  0  0  0  0  0  0  0  0
  139.3270   75.2680  221.7460 N   0  0  0  0  0  0  0  0  0  0  0  0
  138.8700   73.9600  221.3130 C   0  0  0  0  0  0  0  0  0  0  0  0
  140.0450   73.1130  220.9850 C   0  0  0  0  0  0  0  0  0  0  0  0
  141.1680   73.5880  220.6670 O   0  0  0  0  0  0  0  0  0  0  0  0
  139.9410   71.6960  221.0210 N   0  0  0  0  0  0  0  0  0  0  0  0
  141.0390   70.7630  220.8510 C   0  0  0  0  0  0  0  0  0  0  0  0
  140.4060   69.5610  220.1860 C   0  0  0  0  0  0  0  0  0  0  0  0
  138.9140   69.8900  220.0760 C   0  0  0  0  0  0  0  0  0  0  0  0
  138.7630   70.8640  221.2250 C   0  0  1  0  0  0  0  0  0  0  0  0
  138.9020   70.1720  222.5580 C   0  0  0  0  0  0  0  0  0  0  0  0
  138.4180   68.9010  222.7550 C   0  0  0  0  0  0  0  0  0  0  0  0
  138.8580   68.5700  224.5330 S   0  0  0  0  0  0  0  0  0  0  0  0
  139.6150   70.2060  224.6920 C   0  0  0  0  0  0  0  0  0  0  0  0
  140.2390   70.6490  226.0160 C   0  0  0  0  0  0  0  0  0  0  0  0
  140.1300   69.8000  227.0970 C   0  0  0  0  0  0  0  0  0  0  0  0
  140.6870   70.1850  228.3020 C   0  0  0  0  0  0  0  0  0  0  0  0
  141.3340   71.4090  228.3760 C   0  0  0  0  0  0  0  0  0  0  0  0
  141.4250   72.2410  227.2720 C   0  0  0  0  0  0  0  0  0  0  0  0
  140.8750   71.8700  226.0660 C   0  0  0  0  0  0  0  0  0  0  0  0
  139.4740   70.7020  223.6100 N   0  0  0  0  0  0  0  0  0  0  0  0
  139.0320   77.5470  222.7120 C   0  0  0  0  0  0  0  0  0  0  0  0
  138.2000   78.5830  223.0730 C   0  0  0  0  0  0  0  0  0  0  0  0
  138.7260   79.8190  223.4640 C   0  0  0  0  0  0  0  0  0  0  0  0
  140.1190   79.9440  223.4700 C   0  0  0  0  0  0  0  0  0  0  0  0
  140.6650   81.1380  223.8460 C   0  0  0  0  0  0  0  0  0  0  0  0
  142.0590   81.2260  223.8400 C   0  0  0  0  0  0  0  0  0  0  0  0
  142.6300   82.3960  224.2090 F   0  0  0  0  0  0  0  0  0  0  0  0
  142.8720   80.1940  223.4810 C   0  0  0  0  0  0  0  0  0  0  0  0
  142.3020   78.9950  223.1030 C   0  0  0  0  0  0  0  0  0  0  0  0
  140.9280   78.8910  223.1040 C   0  0  0  0  0  0  0  0  0  0  0  0
  140.3470   77.7360  222.7410 N   0  0  0  0  0  0  0  0  0  0  0  0
  140.3530   75.5270  221.6510 H   0  0  0  0  0  0  0  0  0  0  0  0
  138.2904   73.4877  222.1198 H   0  0  0  0  0  0  0  0  0  0  0  0
  138.2338   74.0684  220.4222 H   0  0  0  0  0  0  0  0  0  0  0  0
  141.8225   71.1952  220.2111 H   0  0  0  0  0  0  0  0  0  0  0  0
  141.5269   70.5089  221.8036 H   0  0  0  0  0  0  0  0  0  0  0  0
  140.8389   69.4022  219.1873 H   0  0  0  0  0  0  0  0  0  0  0  0
  140.5785   68.6394  220.7613 H   0  0  0  0  0  0  0  0  0  0  0  0
  138.6713   70.3590  219.1111 H   0  0  0  0  0  0  0  0  0  0  0  0
  138.2466   69.0169  220.1234 H   0  0  0  0  0  0  0  0  0  0  0  0
  137.7914   71.3795  221.2399 H   0  0  0  0  0  0  0  0  0  0  0  0
  137.9002   68.2438  222.0408 H   0  0  0  0  0  0  0  0  0  0  0  0
  139.6100   68.8353  227.0023 H   0  0  0  0  0  0  0  0  0  0  0  0
  140.6183   69.5329  229.1852 H   0  0  0  0  0  0  0  0  0  0  0  0
  141.7834   71.7253  229.3289 H   0  0  0  0  0  0  0  0  0  0  0  0
  141.9420   73.2079  227.3601 H   0  0  0  0  0  0  0  0  0  0  0  0
  140.9404   72.5199  225.1810 H   0  0  0  0  0  0  0  0  0  0  0  0
  137.1099   78.4373  223.0538 H   0  0  0  0  0  0  0  0  0  0  0  0
  138.0730   80.6554  223.7539 H   0  0  0  0  0  0  0  0  0  0  0  0
  140.0359   81.9911  224.1400 H   0  0  0  0  0  0  0  0  0  0  0  0
  143.9654   80.3140  223.4921 H   0  0  0  0  0  0  0  0  0  0  0  0
  142.9304   78.1419  222.8076 H   0  0  0  0  0  0  0  0  0  0  0  0
  1  2  2  0
  2  3  1  0
  3  4  1  0
  4  5  1  0
  5  6  2  0
  5  7  1  0
  7  8  1  0
  8  9  1  0
  9 10  1  0
 10 11  1  0
 11 12  1  0
 12 13  2  0
 13 14  1  0
 14 15  1  0
 15 16  1  0
 16 17  2  0
 17 18  1  0
 18 19  2  0
 19 20  1  0
 20 21  2  0
 15 22  2  0
  2 23  1  0
 23 24  2  0
 24 25  1  0
 25 26  2  0
 26 27  1  0
 27 28  2  0
 28 29  1  0
 28 30  1  0
 30 31  2  0
 31 32  1  0
 32 33  2  0
 11  7  1  0
 22 12  1  0
 33 23  1  0
 21 16  1  0
 32 26  1  0
  3 34  1  0
  4 35  1  0
  4 36  1  0
  8 37  1  0
  8 38  1  0
  9 39  1  0
  9 40  1  0
 10 41  1  0
 10 42  1  0
 11 43  1  1
 13 44  1  0
 17 45  1  0
 18 46  1  0
 19 47  1  0
 20 48  1  0
 21 49  1  0
 24 50  1  0
 25 51  1  0
 27 52  1  0
 30 53  1  0
 31 54  1  0
M  END
>  <smiles>  (34) 
O=C(NCC(=O)N1CCC[C@H]1c1csc(-c2ccccc2)n1)c1ccc2cc(F)ccc2n1

>  <score_type>  (34) 
oracle

>  <origin>  (34) 
autodockgpu

>  <m_score__min__energy>  (34) 
-9.4100000000000001

>  <m_primary>  (34) 
energy

>  <rmsd>  (34) 
9.265701438351734

>  <m_score__min__rmsd>  (34) 
9.265701438351734

>  <meeko>  (34) 
{"free_energy": -8.48, "intermolecular_energy": -10.27, "internal_energy": -2.29, "cluster_size": 4, "cluster_id": 4, "rank_in_cluster": 3}

>  <energy>  (34) 
-6.8

>  <cluster_rmsd>  (34) 
0.21

>  <cluster>  (34) 
8

$$$$

     RDKit          3D

 54 58  0  0  0  0  0  0  0  0999 V2000
  138.7320   74.8850  222.3090 O   0  0  0  0  0  0  0  0  0  0  0  0
  139.8580   75.3610  221.9700 C   0  0  0  0  0  0  0  0  0  0  0  0
  140.0520   76.7620  221.9780 N   0  0  0  0  0  0  0  0  0  0  0  0
  139.0240   77.7150  222.3570 C   0  0  0  0  0  0  0  0  0  0  0  0
  139.6530   78.8650  223.0550 C   0  0  0  0  0  0  0  0  0  0  0  0
  139.1740   79.3790  224.1020 O   0  0  0  0  0  0  0  0  0  0  0  0
  140.8500   79.4430  222.5540 N   0  0  0  0  0  0  0  0  0  0  0  0
  142.1970   79.0100  222.8770 C   0  0  0  0  0  0  0  0  0  0  0  0
  143.0170   80.2800  222.8200 C   0  0  0  0  0  0  0  0  0  0  0  0
  142.0430   81.3810  222.3900 C   0  0  0  0  0  0  0  0  0  0  0  0
  141.0190   80.5610  221.6350 C   0  0  1  0  0  0  0  0  0  0  0  0
  141.5810   80.0260  220.3430 C   0  0  0  0  0  0  0  0  0  0  0  0
  142.1290   80.8650  219.4020 C   0  0  0  0  0  0  0  0  0  0  0  0
  142.6450   79.6880  218.0560 S   0  0  0  0  0  0  0  0  0  0  0  0
  142.0280   78.2740  219.0030 C   0  0  0  0  0  0  0  0  0  0  0  0
  142.1370   76.8550  218.4420 C   0  0  0  0  0  0  0  0  0  0  0  0
  141.0360   76.0340  218.5470 C   0  0  0  0  0  0  0  0  0  0  0  0
  141.1160   74.7480  218.0470 C   0  0  0  0  0  0  0  0  0  0  0  0
  142.3010   74.3350  217.4580 C   0  0  0  0  0  0  0  0  0  0  0  0
  143.3920   75.1850  217.3680 C   0  0  0  0  0  0  0  0  0  0  0  0
  143.3250   76.4680  217.8630 C   0  0  0  0  0  0  0  0  0  0  0  0
  141.5980   78.7600  220.0110 N   0  0  0  0  0  0  0  0  0  0  0  0
  140.9590   74.4770  221.5710 C   0  0  0  0  0  0  0  0  0  0  0  0
  140.7940   73.1100  221.5690 C   0  0  0  0  0  0  0  0  0  0  0  0
  141.8410   72.2640  221.1890 C   0  0  0  0  0  0  0  0  0  0  0  0
  143.0460   72.8700  220.8170 C   0  0  0  0  0  0  0  0  0  0  0  0
  144.0880   72.0730  220.4410 C   0  0  0  0  0  0  0  0  0  0  0  0
  145.2750   72.7120  220.0770 C   0  0  0  0  0  0  0  0  0  0  0  0
  146.3270   71.9490  219.6980 F   0  0  0  0  0  0  0  0  0  0  0  0
  145.4270   74.0660  220.0830 C   0  0  0  0  0  0  0  0  0  0  0  0
  144.3620   74.8550  220.4650 C   0  0  0  0  0  0  0  0  0  0  0  0
  143.1840   74.2400  220.8280 C   0  0  0  0  0  0  0  0  0  0  0  0
  142.1310   74.9850  221.2050 N   0  0  0  0  0  0  0  0  0  0  0  0
  141.0120   77.1100  221.6860 H   0  0  0  0  0  0  0  0  0  0  0  0
  138.5040   78.0721  221.4558 H   0  0  0  0  0  0  0  0  0  0  0  0
  138.3002   77.2286  223.0274 H   0  0  0  0  0  0  0  0  0  0  0  0
  142.2338   78.5663  223.8829 H   0  0  0  0  0  0  0  0  0  0  0  0
  142.5682   78.2368  222.1883 H   0  0  0  0  0  0  0  0  0  0  0  0
  143.4413   80.5077  223.8090 H   0  0  0  0  0  0  0  0  0  0  0  0
  143.8613   80.1880  222.1209 H   0  0  0  0  0  0  0  0  0  0  0  0
  141.5968   81.8903  223.2569 H   0  0  0  0  0  0  0  0  0  0  0  0
  142.4987   82.1955  221.8079 H   0  0  0  0  0  0  0  0  0  0  0  0
  140.1123   81.1249  221.3705 H   0  0  0  0  0  0  0  0  0  0  0  0
  142.2359   81.9593  219.4361 H   0  0  0  0  0  0  0  0  0  0  0  0
  140.1107   76.3950  219.0198 H   0  0  0  0  0  0  0  0  0  0  0  0
  140.2561   74.0655  218.1151 H   0  0  0  0  0  0  0  0  0  0  0  0
  142.3768   73.3144  217.0548 H   0  0  0  0  0  0  0  0  0  0  0  0
  144.3206   74.8311  216.8964 H   0  0  0  0  0  0  0  0  0  0  0  0
  144.1827   77.1537  217.7988 H   0  0  0  0  0  0  0  0  0  0  0  0
  139.8279   72.6784  221.8696 H   0  0  0  0  0  0  0  0  0  0  0  0
  141.7223   71.1704  221.1829 H   0  0  0  0  0  0  0  0  0  0  0  0
  143.9969   70.9769  220.4254 H   0  0  0  0  0  0  0  0  0  0  0  0
  146.3834   74.5225  219.7880 H   0  0  0  0  0  0  0  0  0  0  0  0
  144.4514   75.9513  220.4794 H   0  0  0  0  0  0  0  0  0  0  0  0
  1  2  2  0
  2  3  1  0
  3  4  1  0
  4  5  1  0
  5  6  2  0
  5  7  1  0
  7  8  1  0
  8  9  1  0
  9 10  1  0
 10 11  1  0
 11 12  1  0
 12 13  2  0
 13 14  1  0
 14 15  1  0
 15 16  1  0
 16 17  2  0
 17 18  1  0
 18 19  2  0
 19 20  1  0
 20 21  2  0
 15 22  2  0
  2 23  1  0
 23 24  2  0
 24 25  1  0
 25 26  2  0
 26 27  1  0
 27 28  2  0
 28 29  1  0
 28 30  1  0
 30 31  2  0
 31 32  1  0
 32 33  2  0
 11  7  1  0
 22 12  1  0
 33 23  1  0
 21 16  1  0
 32 26  1  0
  3 34  1  0
  4 35  1  0
  4 36  1  0
  8 37  1  0
  8 38  1  0
  9 39  1  0
  9 40  1  0
 10 41  1  0
 10 42  1  0
 11 43  1  6
 13 44  1  0
 17 45  1  0
 18 46  1  0
 19 47  1  0
 20 48  1  0
 21 49  1  0
 24 50  1  0
 25 51  1  0
 27 52  1  0
 30 53  1  0
 31 54  1  0
M  END
>  <smiles>  (35) 
O=C(NCC(=O)N1CCC[C@H]1c1csc(-c2ccccc2)n1)c1ccc2cc(F)ccc2n1

>  <score_type>  (35) 
oracle

>  <origin>  (35) 
autodockgpu

>  <m_score__min__energy>  (35) 
-9.4100000000000001

>  <m_primary>  (35) 
energy

>  <rmsd>  (35) 
6.708083101853776

>  <m_score__min__rmsd>  (35) 
6.708083101853776

>  <meeko>  (35) 
{"free_energy": -6.8, "intermolecular_energy": -8.59, "internal_energy": -4.06, "cluster_size": 11, "cluster_id": 8, "rank_in_cluster": 2}

>  <energy>  (35) 
-6.78

>  <cluster_rmsd>  (35) 
0.18

>  <cluster>  (35) 
8

$$$$

     RDKit          3D

 54 58  0  0  0  0  0  0  0  0999 V2000
  140.3420   75.1490  221.9760 O   0  0  0  0  0  0  0  0  0  0  0  0
  140.6560   76.2420  221.4140 C   0  0  0  0  0  0  0  0  0  0  0  0
  141.8220   76.3030  220.6150 N   0  0  0  0  0  0  0  0  0  0  0  0
  142.7040   75.1720  220.3890 C   0  0  0  0  0  0  0  0  0  0  0  0
  142.9370   75.0130  218.9310 C   0  0  0  0  0  0  0  0  0  0  0  0
  143.6160   74.0700  218.4420 O   0  0  0  0  0  0  0  0  0  0  0  0
  142.3860   75.9440  218.0100 N   0  0  0  0  0  0  0  0  0  0  0  0
  140.9910   76.0210  217.6180 C   0  0  0  0  0  0  0  0  0  0  0  0
  141.0350   76.5030  216.1840 C   0  0  0  0  0  0  0  0  0  0  0  0
  142.5180   76.7320  215.8720 C   0  0  0  0  0  0  0  0  0  0  0  0
  143.0510   77.0040  217.2630 C   0  0  1  0  0  0  0  0  0  0  0  0
  142.5650   78.3290  217.7930 C   0  0  0  0  0  0  0  0  0  0  0  0
  142.1160   79.3140  216.9470 C   0  0  0  0  0  0  0  0  0  0  0  0
  141.6580   80.6830  218.1220 S   0  0  0  0  0  0  0  0  0  0  0  0
  142.1560   79.6810  219.5450 C   0  0  0  0  0  0  0  0  0  0  0  0
  142.0400   80.2360  220.9650 C   0  0  0  0  0  0  0  0  0  0  0  0
  141.4340   81.4630  221.1310 C   0  0  0  0  0  0  0  0  0  0  0  0
  141.3210   81.9800  222.4080 C   0  0  0  0  0  0  0  0  0  0  0  0
  141.8200   81.2440  223.4710 C   0  0  0  0  0  0  0  0  0  0  0  0
  142.4240   80.0130  223.2720 C   0  0  0  0  0  0  0  0  0  0  0  0
  142.5430   79.4870  222.0050 C   0  0  0  0  0  0  0  0  0  0  0  0
  142.5290   78.6490  219.0620 N   0  0  0  0  0  0  0  0  0  0  0  0
  139.8270   77.4410  221.5830 C   0  0  0  0  0  0  0  0  0  0  0  0
  139.0730   77.9230  220.5370 C   0  0  0  0  0  0  0  0  0  0  0  0
  138.2810   79.0660  220.6940 C   0  0  0  0  0  0  0  0  0  0  0  0
  138.2940   79.6810  221.9500 C   0  0  0  0  0  0  0  0  0  0  0  0
  137.5320   80.7990  222.1370 C   0  0  0  0  0  0  0  0  0  0  0  0
  137.5700   81.3870  223.4030 C   0  0  0  0  0  0  0  0  0  0  0  0
  136.8250   82.4950  223.6200 F   0  0  0  0  0  0  0  0  0  0  0  0
  138.3200   80.8990  224.4310 C   0  0  0  0  0  0  0  0  0  0  0  0
  139.0840   79.7690  224.2230 C   0  0  0  0  0  0  0  0  0  0  0  0
  139.0570   79.1770  222.9800 C   0  0  0  0  0  0  0  0  0  0  0  0
  139.7910   78.0760  222.7500 N   0  0  0  0  0  0  0  0  0  0  0  0
  142.0410   77.2410  220.1670 H   0  0  0  0  0  0  0  0  0  0  0  0
  143.6637   75.3475  220.8972 H   0  0  0  0  0  0  0  0  0  0  0  0
  142.2404   74.2583  220.7892 H   0  0  0  0  0  0  0  0  0  0  0  0
  140.5123   75.0328  217.6830 H   0  0  0  0  0  0  0  0  0  0  0  0
  140.4063   76.6876  218.2690 H   0  0  0  0  0  0  0  0  0  0  0  0
  140.6137   75.7425  215.5101 H   0  0  0  0  0  0  0  0  0  0  0  0
  140.4432   77.4196  216.0442 H   0  0  0  0  0  0  0  0  0  0  0  0
  142.9821   75.8400  215.4260 H   0  0  0  0  0  0  0  0  0  0  0  0
  142.7158   77.5291  215.1402 H   0  0  0  0  0  0  0  0  0  0  0  0
  144.1494   77.0313  217.3159 H   0  0  0  0  0  0  0  0  0  0  0  0
  142.0449   79.2977  215.8494 H   0  0  0  0  0  0  0  0  0  0  0  0
  141.0480   82.0197  220.2644 H   0  0  0  0  0  0  0  0  0  0  0  0
  140.8442   82.9567  222.5772 H   0  0  0  0  0  0  0  0  0  0  0  0
  141.7350   81.6447  224.4919 H   0  0  0  0  0  0  0  0  0  0  0  0
  142.8120   79.4507  224.1341 H   0  0  0  0  0  0  0  0  0  0  0  0
  143.0193   78.5108  221.8313 H   0  0  0  0  0  0  0  0  0  0  0  0
  139.0932   77.4041  219.5673 H   0  0  0  0  0  0  0  0  0  0  0  0
  137.6751   79.4631  219.8662 H   0  0  0  0  0  0  0  0  0  0  0  0
  136.9163   81.2172  221.3271 H   0  0  0  0  0  0  0  0  0  0  0  0
  138.3163   81.3982  225.4112 H   0  0  0  0  0  0  0  0  0  0  0  0
  139.7008   79.3504  225.0320 H   0  0  0  0  0  0  0  0  0  0  0  0
  1  2  2  0
  2  3  1  0
  3  4  1  0
  4  5  1  0
  5  6  2  0
  5  7  1  0
  7  8  1  0
  8  9  1  0
  9 10  1  0
 10 11  1  0
 11 12  1  0
 12 13  2  0
 13 14  1  0
 14 15  1  0
 15 16  1  0
 16 17  2  0
 17 18  1  0
 18 19  2  0
 19 20  1  0
 20 21  2  0
 15 22  2  0
  2 23  1  0
 23 24  2  0
 24 25  1  0
 25 26  2  0
 26 27  1  0
 27 28  2  0
 28 29  1  0
 28 30  1  0
 30 31  2  0
 31 32  1  0
 32 33  2  0
 11  7  1  0
 22 12  1  0
 33 23  1  0
 21 16  1  0
 32 26  1  0
  3 34  1  0
  4 35  1  0
  4 36  1  0
  8 37  1  0
  8 38  1  0
  9 39  1  0
  9 40  1  0
 10 41  1  0
 10 42  1  0
 11 43  1  6
 13 44  1  0
 17 45  1  0
 18 46  1  0
 19 47  1  0
 20 48  1  0
 21 49  1  0
 24 50  1  0
 25 51  1  0
 27 52  1  0
 30 53  1  0
 31 54  1  0
M  END
>  <smiles>  (36) 
O=C(NCC(=O)N1CCC[C@H]1c1csc(-c2ccccc2)n1)c1ccc2cc(F)ccc2n1

>  <score_type>  (36) 
oracle

>  <origin>  (36) 
autodockgpu

>  <m_score__min__energy>  (36) 
-9.4100000000000001

>  <m_primary>  (36) 
energy

>  <rmsd>  (36) 
7.157788247493572

>  <m_score__min__rmsd>  (36) 
7.157788247493572

>  <meeko>  (36) 
{"free_energy": -6.16, "intermolecular_energy": -7.95, "internal_energy": -4.37, "cluster_size": 3, "cluster_id": 9, "rank_in_cluster": 2}

>  <energy>  (36) 
-6.75

>  <cluster_rmsd>  (36) 
0.21

>  <cluster>  (36) 
8

$$$$

     RDKit          3D

 54 58  0  0  0  0  0  0  0  0999 V2000
  141.2580   72.3280  221.8650 O   0  0  0  0  0  0  0  0  0  0  0  0
  140.2380   72.2820  222.6180 C   0  0  0  0  0  0  0  0  0  0  0  0
  139.1750   73.1900  222.4030 N   0  0  0  0  0  0  0  0  0  0  0  0
  139.1720   74.1940  221.3550 C   0  0  0  0  0  0  0  0  0  0  0  0
  139.0750   75.5440  221.9670 C   0  0  0  0  0  0  0  0  0  0  0  0
  138.2000   75.8510  222.8210 O   0  0  0  0  0  0  0  0  0  0  0  0
  139.9930   76.5660  221.6020 N   0  0  0  0  0  0  0  0  0  0  0  0
  141.0630   77.0790  222.4360 C   0  0  0  0  0  0  0  0  0  0  0  0
  141.1850   78.5320  222.0300 C   0  0  0  0  0  0  0  0  0  0  0  0
  140.1700   78.7310  220.9010 C   0  0  0  0  0  0  0  0  0  0  0  0
  140.0840   77.3200  220.3580 C   0  0  1  0  0  0  0  0  0  0  0  0
  141.3570   76.9180  219.6580 C   0  0  0  0  0  0  0  0  0  0  0  0
  141.8570   77.6530  218.6100 C   0  0  0  0  0  0  0  0  0  0  0  0
  143.3980   76.7160  218.1520 S   0  0  0  0  0  0  0  0  0  0  0  0
  143.0920   75.4980  219.4560 C   0  0  0  0  0  0  0  0  0  0  0  0
  144.0550   74.3310  219.6720 C   0  0  0  0  0  0  0  0  0  0  0  0
  145.0770   74.4960  220.5820 C   0  0  0  0  0  0  0  0  0  0  0  0
  145.9570   73.4510  220.7900 C   0  0  0  0  0  0  0  0  0  0  0  0
  145.7780   72.2780  220.0750 C   0  0  0  0  0  0  0  0  0  0  0  0
  144.7410   72.1420  219.1660 C   0  0  0  0  0  0  0  0  0  0  0  0
  143.8570   73.1750  218.9500 C   0  0  0  0  0  0  0  0  0  0  0  0
  142.0760   75.8700  219.9730 N   0  0  0  0  0  0  0  0  0  0  0  0
  140.1490   71.3020  223.7060 C   0  0  0  0  0  0  0  0  0  0  0  0
  139.5780   70.0680  223.4910 C   0  0  0  0  0  0  0  0  0  0  0  0
  139.4900   69.1300  224.5250 C   0  0  0  0  0  0  0  0  0  0  0  0
  140.0060   69.5060  225.7700 C   0  0  0  0  0  0  0  0  0  0  0  0
  139.9370   68.6140  226.8010 C   0  0  0  0  0  0  0  0  0  0  0  0
  140.4610   69.0240  228.0290 C   0  0  0  0  0  0  0  0  0  0  0  0
  140.4080   68.1610  229.0710 F   0  0  0  0  0  0  0  0  0  0  0  0
  141.0240   70.2480  228.2300 C   0  0  0  0  0  0  0  0  0  0  0  0
  141.0860   71.1360  227.1750 C   0  0  0  0  0  0  0  0  0  0  0  0
  140.5730   70.7470  225.9580 C   0  0  0  0  0  0  0  0  0  0  0  0
  140.6190   71.5920  224.9140 N   0  0  0  0  0  0  0  0  0  0  0  0
  138.3440   73.1120  223.0610 H   0  0  0  0  0  0  0  0  0  0  0  0
  140.1028   74.1205  220.7734 H   0  0  0  0  0  0  0  0  0  0  0  0
  138.3116   74.0289  220.6898 H   0  0  0  0  0  0  0  0  0  0  0  0
  140.8034   76.9920  223.5014 H   0  0  0  0  0  0  0  0  0  0  0  0
  142.0035   76.5239  222.3041 H   0  0  0  0  0  0  0  0  0  0  0  0
  140.9480   79.1892  222.8796 H   0  0  0  0  0  0  0  0  0  0  0  0
  142.2068   78.7798  221.7068 H   0  0  0  0  0  0  0  0  0  0  0  0
  139.1993   79.0790  221.2839 H   0  0  0  0  0  0  0  0  0  0  0  0
  140.4522   79.4922  220.1588 H   0  0  0  0  0  0  0  0  0  0  0  0
  139.2698   77.1766  219.6323 H   0  0  0  0  0  0  0  0  0  0  0  0
  141.4481   78.5673  218.1552 H   0  0  0  0  0  0  0  0  0  0  0  0
  145.1900   75.4417  221.1323 H   0  0  0  0  0  0  0  0  0  0  0  0
  146.7835   73.5487  221.5093 H   0  0  0  0  0  0  0  0  0  0  0  0
  146.4719   71.4390  220.2318 H   0  0  0  0  0  0  0  0  0  0  0  0
  144.6230   71.1993  218.6115 H   0  0  0  0  0  0  0  0  0  0  0  0
  143.0288   73.0812  218.2322 H   0  0  0  0  0  0  0  0  0  0  0  0
  139.1863   69.8166  222.4943 H   0  0  0  0  0  0  0  0  0  0  0  0
  139.0354   68.1409  224.3664 H   0  0  0  0  0  0  0  0  0  0  0  0
  139.4892   67.6178  226.6706 H   0  0  0  0  0  0  0  0  0  0  0  0
  141.4228   70.5243  229.2172 H   0  0  0  0  0  0  0  0  0  0  0  0
  141.5351   72.1319  227.3037 H   0  0  0  0  0  0  0  0  0  0  0  0
  1  2  2  0
  2  3  1  0
  3  4  1  0
  4  5  1  0
  5  6  2  0
  5  7  1  0
  7  8  1  0
  8  9  1  0
  9 10  1  0
 10 11  1  0
 11 12  1  0
 12 13  2  0
 13 14  1  0
 14 15  1  0
 15 16  1  0
 16 17  2  0
 17 18  1  0
 18 19  2  0
 19 20  1  0
 20 21  2  0
 15 22  2  0
  2 23  1  0
 23 24  2  0
 24 25  1  0
 25 26  2  0
 26 27  1  0
 27 28  2  0
 28 29  1  0
 28 30  1  0
 30 31  2  0
 31 32  1  0
 32 33  2  0
 11  7  1  0
 22 12  1  0
 33 23  1  0
 21 16  1  0
 32 26  1  0
  3 34  1  0
  4 35  1  0
  4 36  1  0
  8 37  1  0
  8 38  1  0
  9 39  1  0
  9 40  1  0
 10 41  1  0
 10 42  1  0
 11 43  1  6
 13 44  1  0
 17 45  1  0
 18 46  1  0
 19 47  1  0
 20 48  1  0
 21 49  1  0
 24 50  1  0
 25 51  1  0
 27 52  1  0
 30 53  1  0
 31 54  1  0
M  END
>  <smiles>  (37) 
O=C(NCC(=O)N1CCC[C@H]1c1csc(-c2ccccc2)n1)c1ccc2cc(F)ccc2n1

>  <score_type>  (37) 
oracle

>  <origin>  (37) 
autodockgpu

>  <m_score__min__energy>  (37) 
-9.4100000000000001

>  <m_primary>  (37) 
energy

>  <rmsd>  (37) 
5.201375437493002

>  <m_score__min__rmsd>  (37) 
5.201375437493002

>  <meeko>  (37) 
{"free_energy": -9.23, "intermolecular_energy": -11.02, "internal_energy": -1.91, "cluster_size": 8, "cluster_id": 1, "rank_in_cluster": 7}

>  <energy>  (37) 
-6.73

>  <cluster_rmsd>  (37) 
0.21

>  <cluster>  (37) 
8

$$$$

     RDKit          3D

 54 58  0  0  0  0  0  0  0  0999 V2000
  140.1930   72.9810  222.9380 O   0  0  0  0  0  0  0  0  0  0  0  0
  139.6210   71.8520  222.8620 C   0  0  0  0  0  0  0  0  0  0  0  0
  138.8720   71.5270  221.7070 N   0  0  0  0  0  0  0  0  0  0  0  0
  138.7090   72.4220  220.5760 C   0  0  0  0  0  0  0  0  0  0  0  0
  140.0130   72.5810  219.8820 C   0  0  0  0  0  0  0  0  0  0  0  0
  140.5940   71.6350  219.2850 O   0  0  0  0  0  0  0  0  0  0  0  0
  140.6700   73.8410  219.8660 N   0  0  0  0  0  0  0  0  0  0  0  0
  140.6110   74.8110  218.7890 C   0  0  0  0  0  0  0  0  0  0  0  0
  141.9610   75.4930  218.8320 C   0  0  0  0  0  0  0  0  0  0  0  0
  142.6990   74.8740  220.0230 C   0  0  0  0  0  0  0  0  0  0  0  0
  141.5250   74.4470  220.8780 C   0  0  1  0  0  0  0  0  0  0  0  0
  140.8000   75.6350  221.4570 C   0  0  0  0  0  0  0  0  0  0  0  0
  139.4500   75.5910  221.7130 C   0  0  0  0  0  0  0  0  0  0  0  0
  139.1100   77.2870  222.4000 S   0  0  0  0  0  0  0  0  0  0  0  0
  140.8500   77.7520  222.2180 C   0  0  0  0  0  0  0  0  0  0  0  0
  141.3300   79.1450  222.6280 C   0  0  0  0  0  0  0  0  0  0  0  0
  142.0560   79.2600  223.7940 C   0  0  0  0  0  0  0  0  0  0  0  0
  142.4970   80.5120  224.1810 C   0  0  0  0  0  0  0  0  0  0  0  0
  142.1930   81.6020  223.3800 C   0  0  0  0  0  0  0  0  0  0  0  0
  141.4600   81.4530  222.2140 C   0  0  0  0  0  0  0  0  0  0  0  0
  141.0150   80.2130  221.8170 C   0  0  0  0  0  0  0  0  0  0  0  0
  141.3700   76.7740  221.7580 N   0  0  0  0  0  0  0  0  0  0  0  0
  139.7280   70.8790  223.9560 C   0  0  0  0  0  0  0  0  0  0  0  0
  139.2440   69.6000  223.8050 C   0  0  0  0  0  0  0  0  0  0  0  0
  139.3440   68.6700  224.8460 C   0  0  0  0  0  0  0  0  0  0  0  0
  139.9520   69.1020  226.0290 C   0  0  0  0  0  0  0  0  0  0  0  0
  140.0660   68.2190  227.0640 C   0  0  0  0  0  0  0  0  0  0  0  0
  140.6780   68.6850  228.2290 C   0  0  0  0  0  0  0  0  0  0  0  0
  140.8060   67.8330  229.2730 F   0  0  0  0  0  0  0  0  0  0  0  0
  141.1540   69.9540  228.3670 C   0  0  0  0  0  0  0  0  0  0  0  0
  141.0300   70.8320  227.3100 C   0  0  0  0  0  0  0  0  0  0  0  0
  140.4290   70.3880  226.1530 C   0  0  0  0  0  0  0  0  0  0  0  0
  140.2950   71.2220  225.1080 N   0  0  0  0  0  0  0  0  0  0  0  0
  138.4130   70.5690  221.6930 H   0  0  0  0  0  0  0  0  0  0  0  0
  137.9705   72.0009  219.8780 H   0  0  0  0  0  0  0  0  0  0  0  0
  138.3589   73.4027  220.9304 H   0  0  0  0  0  0  0  0  0  0  0  0
  140.4567   74.3112  217.8214 H   0  0  0  0  0  0  0  0  0  0  0  0
  139.7767   75.5187  218.9035 H   0  0  0  0  0  0  0  0  0  0  0  0
  142.5143   75.3080  217.8995 H   0  0  0  0  0  0  0  0  0  0  0  0
  141.8623   76.5835  218.9372 H   0  0  0  0  0  0  0  0  0  0  0  0
  143.3142   74.0145  219.7183 H   0  0  0  0  0  0  0  0  0  0  0  0
  143.4114   75.5468  220.5228 H   0  0  0  0  0  0  0  0  0  0  0  0
  141.8092   73.8108  221.7292 H   0  0  0  0  0  0  0  0  0  0  0  0
  138.7465   74.7608  221.5520 H   0  0  0  0  0  0  0  0  0  0  0  0
  142.2802   78.3730  224.4048 H   0  0  0  0  0  0  0  0  0  0  0  0
  143.0777   80.6407  225.1063 H   0  0  0  0  0  0  0  0  0  0  0  0
  142.5400   82.6031  223.6756 H   0  0  0  0  0  0  0  0  0  0  0  0
  141.2312   82.3357  221.5988 H   0  0  0  0  0  0  0  0  0  0  0  0
  140.4334   80.0804  220.8928 H   0  0  0  0  0  0  0  0  0  0  0  0
  138.7732   69.3051  222.8555 H   0  0  0  0  0  0  0  0  0  0  0  0
  138.9612   67.6444  224.7384 H   0  0  0  0  0  0  0  0  0  0  0  0
  139.6927   67.1874  226.9836 H   0  0  0  0  0  0  0  0  0  0  0  0
  141.6296   70.2735  229.3060 H   0  0  0  0  0  0  0  0  0  0  0  0
  141.4029   71.8638  227.3895 H   0  0  0  0  0  0  0  0  0  0  0  0
  1  2  2  0
  2  3  1  0
  3  4  1  0
  4  5  1  0
  5  6  2  0
  5  7  1  0
  7  8  1  0
  8  9  1  0
  9 10  1  0
 10 11  1  0
 11 12  1  0
 12 13  2  0
 13 14  1  0
 14 15  1  0
 15 16  1  0
 16 17  2  0
 17 18  1  0
 18 19  2  0
 19 20  1  0
 20 21  2  0
 15 22  2  0
  2 23  1  0
 23 24  2  0
 24 25  1  0
 25 26  2  0
 26 27  1  0
 27 28  2  0
 28 29  1  0
 28 30  1  0
 30 31  2  0
 31 32  1  0
 32 33  2  0
 11  7  1  0
 22 12  1  0
 33 23  1  0
 21 16  1  0
 32 26  1  0
  3 34  1  0
  4 35  1  0
  4 36  1  0
  8 37  1  0
  8 38  1  0
  9 39  1  0
  9 40  1  0
 10 41  1  0
 10 42  1  0
 11 43  1  1
 13 44  1  0
 17 45  1  0
 18 46  1  0
 19 47  1  0
 20 48  1  0
 21 49  1  0
 24 50  1  0
 25 51  1  0
 27 52  1  0
 30 53  1  0
 31 54  1  0
M  END
>  <smiles>  (38) 
O=C(NCC(=O)N1CCC[C@H]1c1csc(-c2ccccc2)n1)c1ccc2cc(F)ccc2n1

>  <score_type>  (38) 
oracle

>  <origin>  (38) 
autodockgpu

>  <m_score__min__energy>  (38) 
-9.4100000000000001

>  <m_primary>  (38) 
energy

>  <rmsd>  (38) 
2.4244831961331395

>  <m_score__min__rmsd>  (38) 
2.4244831961331395

>  <meeko>  (38) 
{"free_energy": -9.01, "intermolecular_energy": -10.8, "internal_energy": -1.69, "cluster_size": 10, "cluster_id": 2, "rank_in_cluster": 5}

>  <energy>  (38) 
-6.71

>  <cluster_rmsd>  (38) 
0.21

>  <cluster>  (38) 
8

$$$$

     RDKit          3D

 54 58  0  0  0  0  0  0  0  0999 V2000
  140.1480   72.1010  220.9430 O   0  0  0  0  0  0  0  0  0  0  0  0
  139.8780   72.5220  222.1080 C   0  0  0  0  0  0  0  0  0  0  0  0
  139.6100   73.8970  222.3060 N   0  0  0  0  0  0  0  0  0  0  0  0
  139.6240   74.8820  221.2390 C   0  0  0  0  0  0  0  0  0  0  0  0
  138.2270   75.2050  220.8510 C   0  0  0  0  0  0  0  0  0  0  0  0
  137.7090   74.8220  219.7670 O   0  0  0  0  0  0  0  0  0  0  0  0
  137.4020   75.9780  221.7110 N   0  0  0  0  0  0  0  0  0  0  0  0
  137.0920   75.6630  223.0930 C   0  0  0  0  0  0  0  0  0  0  0  0
  135.6940   76.2070  223.2920 C   0  0  0  0  0  0  0  0  0  0  0  0
  135.3190   76.8750  221.9650 C   0  0  0  0  0  0  0  0  0  0  0  0
  136.6950   77.2220  221.4360 C   0  0  1  0  0  0  0  0  0  0  0  0
  137.3400   78.3190  222.2440 C   0  0  0  0  0  0  0  0  0  0  0  0
  136.5850   79.1930  222.9890 C   0  0  0  0  0  0  0  0  0  0  0  0
  137.8740   80.2970  223.7520 S   0  0  0  0  0  0  0  0  0  0  0  0
  139.2010   79.3810  222.9290 C   0  0  0  0  0  0  0  0  0  0  0  0
  140.6630   79.7830  223.1280 C   0  0  0  0  0  0  0  0  0  0  0  0
  140.9250   80.9420  223.8260 C   0  0  0  0  0  0  0  0  0  0  0  0
  142.2400   81.3220  224.0150 C   0  0  0  0  0  0  0  0  0  0  0  0
  143.2450   80.5210  223.4950 C   0  0  0  0  0  0  0  0  0  0  0  0
  142.9500   79.3610  222.7970 C   0  0  0  0  0  0  0  0  0  0  0  0
  141.6450   78.9720  222.6020 C   0  0  0  0  0  0  0  0  0  0  0  0
  138.6300   78.5300  222.3080 N   0  0  0  0  0  0  0  0  0  0  0  0
  139.8410   71.6020  223.2510 C   0  0  0  0  0  0  0  0  0  0  0  0
  139.2610   70.3590  223.1300 C   0  0  0  0  0  0  0  0  0  0  0  0
  139.2230   69.4800  224.2180 C   0  0  0  0  0  0  0  0  0  0  0  0
  139.7980   69.9210  225.4140 C   0  0  0  0  0  0  0  0  0  0  0  0
  139.7780   69.0870  226.4940 C   0  0  0  0  0  0  0  0  0  0  0  0
  140.3610   69.5620  227.6710 C   0  0  0  0  0  0  0  0  0  0  0  0
  140.3580   68.7570  228.7600 F   0  0  0  0  0  0  0  0  0  0  0  0
  140.9320   70.7940  227.7790 C   0  0  0  0  0  0  0  0  0  0  0  0
  140.9430   71.6230  226.6750 C   0  0  0  0  0  0  0  0  0  0  0  0
  140.3730   71.1700  225.5070 C   0  0  0  0  0  0  0  0  0  0  0  0
  140.3690   71.9570  224.4180 N   0  0  0  0  0  0  0  0  0  0  0  0
  139.3900   74.1990  223.3000 H   0  0  0  0  0  0  0  0  0  0  0  0
  140.1288   75.7948  221.5881 H   0  0  0  0  0  0  0  0  0  0  0  0
  140.1635   74.4767  220.3703 H   0  0  0  0  0  0  0  0  0  0  0  0
  137.1153   74.5760  223.2603 H   0  0  0  0  0  0  0  0  0  0  0  0
  137.8174   76.0963  223.7973 H   0  0  0  0  0  0  0  0  0  0  0  0
  134.9935   75.3907  223.5224 H   0  0  0  0  0  0  0  0  0  0  0  0
  135.6489   76.9162  224.1317 H   0  0  0  0  0  0  0  0  0  0  0  0
  134.7892   76.1811  221.2959 H   0  0  0  0  0  0  0  0  0  0  0  0
  134.6334   77.7301  222.0584 H   0  0  0  0  0  0  0  0  0  0  0  0
  136.6906   77.5674  220.3916 H   0  0  0  0  0  0  0  0  0  0  0  0
  135.4918   79.2305  223.1052 H   0  0  0  0  0  0  0  0  0  0  0  0
  140.1024   81.5534  224.2254 H   0  0  0  0  0  0  0  0  0  0  0  0
  142.4845   82.2415  224.5669 H   0  0  0  0  0  0  0  0  0  0  0  0
  144.2960   80.8118  223.6392 H   0  0  0  0  0  0  0  0  0  0  0  0
  143.7676   78.7449  222.3947 H   0  0  0  0  0  0  0  0  0  0  0  0
  141.3962   78.0535  222.0502 H   0  0  0  0  0  0  0  0  0  0  0  0
  138.8231   70.0539  222.1682 H   0  0  0  0  0  0  0  0  0  0  0  0
  138.7609   68.4852  224.1361 H   0  0  0  0  0  0  0  0  0  0  0  0
  139.3236   68.0867  226.4401 H   0  0  0  0  0  0  0  0  0  0  0  0
  141.3769   71.1228  228.7298 H   0  0  0  0  0  0  0  0  0  0  0  0
  141.3973   72.6234  226.7277 H   0  0  0  0  0  0  0  0  0  0  0  0
  1  2  2  0
  2  3  1  0
  3  4  1  0
  4  5  1  0
  5  6  2  0
  5  7  1  0
  7  8  1  0
  8  9  1  0
  9 10  1  0
 10 11  1  0
 11 12  1  0
 12 13  2  0
 13 14  1  0
 14 15  1  0
 15 16  1  0
 16 17  2  0
 17 18  1  0
 18 19  2  0
 19 20  1  0
 20 21  2  0
 15 22  2  0
  2 23  1  0
 23 24  2  0
 24 25  1  0
 25 26  2  0
 26 27  1  0
 27 28  2  0
 28 29  1  0
 28 30  1  0
 30 31  2  0
 31 32  1  0
 32 33  2  0
 11  7  1  0
 22 12  1  0
 33 23  1  0
 21 16  1  0
 32 26  1  0
  3 34  1  0
  4 35  1  0
  4 36  1  0
  8 37  1  0
  8 38  1  0
  9 39  1  0
  9 40  1  0
 10 41  1  0
 10 42  1  0
 11 43  1  6
 13 44  1  0
 17 45  1  0
 18 46  1  0
 19 47  1  0
 20 48  1  0
 21 49  1  0
 24 50  1  0
 25 51  1  0
 27 52  1  0
 30 53  1  0
 31 54  1  0
M  END
>  <smiles>  (39) 
O=C(NCC(=O)N1CCC[C@H]1c1csc(-c2ccccc2)n1)c1ccc2cc(F)ccc2n1

>  <score_type>  (39) 
oracle

>  <origin>  (39) 
autodockgpu

>  <m_score__min__energy>  (39) 
-9.4100000000000001

>  <m_primary>  (39) 
energy

>  <rmsd>  (39) 
3.732491242082835

>  <m_score__min__rmsd>  (39) 
3.732491242082835

>  <meeko>  (39) 
{"free_energy": -8.78, "intermolecular_energy": -10.57, "internal_energy": -1.72, "cluster_size": 4, "cluster_id": 3, "rank_in_cluster": 4}

>  <energy>  (39) 
-6.6

>  <cluster_rmsd>  (39) 
0.33

>  <cluster>  (39) 
8

$$$$

     RDKit          3D

 54 58  0  0  0  0  0  0  0  0999 V2000
  137.2180   76.0550  222.3800 O   0  0  0  0  0  0  0  0  0  0  0  0
  138.4670   76.2660  222.3150 C   0  0  0  0  0  0  0  0  0  0  0  0
  139.3220   75.2400  221.8510 N   0  0  0  0  0  0  0  0  0  0  0  0
  138.8560   73.9300  221.4350 C   0  0  0  0  0  0  0  0  0  0  0  0
  140.0090   73.1270  220.9520 C   0  0  0  0  0  0  0  0  0  0  0  0
  141.0670   73.6450  220.5030 O   0  0  0  0  0  0  0  0  0  0  0  0
  139.9590   71.7070  220.9820 N   0  0  0  0  0  0  0  0  0  0  0  0
  141.0970   70.8190  220.8390 C   0  0  0  0  0  0  0  0  0  0  0  0
  140.5270   69.5950  220.1550 C   0  0  0  0  0  0  0  0  0  0  0  0
  139.0270   69.8670  220.0070 C   0  0  0  0  0  0  0  0  0  0  0  0
  138.8090   70.8300  221.1550 C   0  0  1  0  0  0  0  0  0  0  0  0
  138.9400   70.1400  222.4890 C   0  0  0  0  0  0  0  0  0  0  0  0
  138.4970   68.8530  222.6720 C   0  0  0  0  0  0  0  0  0  0  0  0
  138.9050   68.5320  224.4600 S   0  0  0  0  0  0  0  0  0  0  0  0
  139.6000   70.1930  224.6400 C   0  0  0  0  0  0  0  0  0  0  0  0
  140.1760   70.6540  225.9790 C   0  0  0  0  0  0  0  0  0  0  0  0
  140.8840   71.8370  226.0040 C   0  0  0  0  0  0  0  0  0  0  0  0
  141.4130   72.2690  227.2060 C   0  0  0  0  0  0  0  0  0  0  0  0
  141.2100   71.4960  228.3390 C   0  0  0  0  0  0  0  0  0  0  0  0
  140.4940   70.3120  228.2810 C   0  0  0  0  0  0  0  0  0  0  0  0
  139.9620   69.8700  227.0910 C   0  0  0  0  0  0  0  0  0  0  0  0
  139.4680   70.6860  223.5550 N   0  0  0  0  0  0  0  0  0  0  0  0
  139.0340   77.5600  222.7140 C   0  0  0  0  0  0  0  0  0  0  0  0
  138.2100   78.6090  223.0570 C   0  0  0  0  0  0  0  0  0  0  0  0
  138.7470   79.8440  223.4380 C   0  0  0  0  0  0  0  0  0  0  0  0
  140.1410   79.9540  223.4530 C   0  0  0  0  0  0  0  0  0  0  0  0
  140.6960   81.1460  223.8210 C   0  0  0  0  0  0  0  0  0  0  0  0
  142.0910   81.2200  223.8240 C   0  0  0  0  0  0  0  0  0  0  0  0
  142.6720   82.3880  224.1850 F   0  0  0  0  0  0  0  0  0  0  0  0
  142.8960   80.1750  223.4830 C   0  0  0  0  0  0  0  0  0  0  0  0
  142.3160   78.9780  223.1150 C   0  0  0  0  0  0  0  0  0  0  0  0
  140.9410   78.8890  223.1060 C   0  0  0  0  0  0  0  0  0  0  0  0
  140.3500   77.7350  222.7520 N   0  0  0  0  0  0  0  0  0  0  0  0
  140.3600   75.4670  221.8150 H   0  0  0  0  0  0  0  0  0  0  0  0
  138.3851   73.4199  222.2883 H   0  0  0  0  0  0  0  0  0  0  0  0
  138.1206   74.0417  220.6246 H   0  0  0  0  0  0  0  0  0  0  0  0
  141.8792   71.2832  220.2204 H   0  0  0  0  0  0  0  0  0  0  0  0
  141.5708   70.5816  221.8029 H   0  0  0  0  0  0  0  0  0  0  0  0
  140.9913   69.4558  219.1675 H   0  0  0  0  0  0  0  0  0  0  0  0
  140.7195   68.6790  220.7329 H   0  0  0  0  0  0  0  0  0  0  0  0
  138.7916   70.3303  219.0375 H   0  0  0  0  0  0  0  0  0  0  0  0
  138.3925   68.9689  220.0341 H   0  0  0  0  0  0  0  0  0  0  0  0
  137.8180   71.3074  221.1473 H   0  0  0  0  0  0  0  0  0  0  0  0
  138.0203   68.1800  221.9441 H   0  0  0  0  0  0  0  0  0  0  0  0
  141.0251   72.4255  225.0855 H   0  0  0  0  0  0  0  0  0  0  0  0
  141.9838   73.2076  227.2624 H   0  0  0  0  0  0  0  0  0  0  0  0
  141.6253   71.8293  229.3015 H   0  0  0  0  0  0  0  0  0  0  0  0
  140.3489   69.7185  229.1957 H   0  0  0  0  0  0  0  0  0  0  0  0
  139.3910   68.9318  227.0307 H   0  0  0  0  0  0  0  0  0  0  0  0
  137.1185   78.4747  223.0312 H   0  0  0  0  0  0  0  0  0  0  0  0
  138.1011   80.6907  223.7135 H   0  0  0  0  0  0  0  0  0  0  0  0
  140.0734   82.0082  224.1021 H   0  0  0  0  0  0  0  0  0  0  0  0
  143.9905   80.2836  223.5007 H   0  0  0  0  0  0  0  0  0  0  0  0
  142.9373   78.1145  222.8352 H   0  0  0  0  0  0  0  0  0  0  0  0
  1  2  2  0
  2  3  1  0
  3  4  1  0
  4  5  1  0
  5  6  2  0
  5  7  1  0
  7  8  1  0
  8  9  1  0
  9 10  1  0
 10 11  1  0
 11 12  1  0
 12 13  2  0
 13 14  1  0
 14 15  1  0
 15 16  1  0
 16 17  2  0
 17 18  1  0
 18 19  2  0
 19 20  1  0
 20 21  2  0
 15 22  2  0
  2 23  1  0
 23 24  2  0
 24 25  1  0
 25 26  2  0
 26 27  1  0
 27 28  2  0
 28 29  1  0
 28 30  1  0
 30 31  2  0
 31 32  1  0
 32 33  2  0
 11  7  1  0
 22 12  1  0
 33 23  1  0
 21 16  1  0
 32 26  1  0
  3 34  1  0
  4 35  1  0
  4 36  1  0
  8 37  1  0
  8 38  1  0
  9 39  1  0
  9 40  1  0
 10 41  1  0
 10 42  1  0
 11 43  1  6
 13 44  1  0
 17 45  1  0
 18 46  1  0
 19 47  1  0
 20 48  1  0
 21 49  1  0
 24 50  1  0
 25 51  1  0
 27 52  1  0
 30 53  1  0
 31 54  1  0
M  END
>  <smiles>  (40) 
O=C(NCC(=O)N1CCC[C@H]1c1csc(-c2ccccc2)n1)c1ccc2cc(F)ccc2n1

>  <score_type>  (40) 
oracle

>  <origin>  (40) 
autodockgpu

>  <m_score__min__energy>  (40) 
-9.4100000000000001

>  <m_primary>  (40) 
energy

>  <rmsd>  (40) 
9.398355774176425

>  <m_score__min__rmsd>  (40) 
9.398355774176425

>  <meeko>  (40) 
{"free_energy": -8.46, "intermolecular_energy": -10.25, "internal_energy": -2.27, "cluster_size": 4, "cluster_id": 4, "rank_in_cluster": 4}

>  <energy>  (40) 
-6.56

>  <cluster_rmsd>  (40) 
0.36

>  <cluster>  (40) 
8

$$$$

     RDKit          3D

 54 58  0  0  0  0  0  0  0  0999 V2000
  138.7900   70.5850  221.4670 O   0  0  0  0  0  0  0  0  0  0  0  0
  138.5910   71.2690  222.5160 C   0  0  0  0  0  0  0  0  0  0  0  0
  137.7070   72.3730  222.4680 N   0  0  0  0  0  0  0  0  0  0  0  0
  136.9970   72.7850  221.2720 C   0  0  0  0  0  0  0  0  0  0  0  0
  137.9780   73.1550  220.2200 C   0  0  0  0  0  0  0  0  0  0  0  0
  137.9030   72.7390  219.0320 O   0  0  0  0  0  0  0  0  0  0  0  0
  139.0670   74.0170  220.5240 N   0  0  0  0  0  0  0  0  0  0  0  0
  139.8660   74.7430  219.5560 C   0  0  0  0  0  0  0  0  0  0  0  0
  141.2400   74.8110  220.1850 C   0  0  0  0  0  0  0  0  0  0  0  0
  141.1000   74.1390  221.5540 C   0  0  0  0  0  0  0  0  0  0  0  0
  139.6280   74.3690  221.8220 C   0  0  1  0  0  0  0  0  0  0  0  0
  139.3330   75.8250  222.0810 C   0  0  0  0  0  0  0  0  0  0  0  0
  138.0480   76.3100  222.0420 C   0  0  0  0  0  0  0  0  0  0  0  0
  138.2820   78.1160  222.4270 S   0  0  0  0  0  0  0  0  0  0  0  0
  140.0720   77.8930  222.5730 C   0  0  0  0  0  0  0  0  0  0  0  0
  140.9800   79.0780  222.9050 C   0  0  0  0  0  0  0  0  0  0  0  0
  140.4220   80.1520  223.5650 C   0  0  0  0  0  0  0  0  0  0  0  0
  141.2270   81.2330  223.8730 C   0  0  0  0  0  0  0  0  0  0  0  0
  142.5630   81.1940  223.5060 C   0  0  0  0  0  0  0  0  0  0  0  0
  143.0940   80.1000  222.8420 C   0  0  0  0  0  0  0  0  0  0  0  0
  142.3030   79.0170  222.5300 C   0  0  0  0  0  0  0  0  0  0  0  0
  140.2420   76.7260  222.3580 N   0  0  0  0  0  0  0  0  0  0  0  0
  139.2640   70.9300  223.7750 C   0  0  0  0  0  0  0  0  0  0  0  0
  140.1640   71.8030  224.3450 C   0  0  0  0  0  0  0  0  0  0  0  0
  140.8080   71.4830  225.5450 C   0  0  0  0  0  0  0  0  0  0  0  0
  140.4940   70.2510  226.1260 C   0  0  0  0  0  0  0  0  0  0  0  0
  141.1050   69.9080  227.2980 C   0  0  0  0  0  0  0  0  0  0  0  0
  140.7680   68.6700  227.8490 C   0  0  0  0  0  0  0  0  0  0  0  0
  141.3570   68.3020  229.0110 F   0  0  0  0  0  0  0  0  0  0  0  0
  139.8760   67.8140  227.2760 C   0  0  0  0  0  0  0  0  0  0  0  0
  139.2690   68.1780  226.0920 C   0  0  0  0  0  0  0  0  0  0  0  0
  139.5900   69.3960  225.5350 C   0  0  0  0  0  0  0  0  0  0  0  0
  139.0140   69.7750  224.3820 N   0  0  0  0  0  0  0  0  0  0  0  0
  137.5750   72.9140  223.3740 H   0  0  0  0  0  0  0  0  0  0  0  0
  136.3694   71.9557  220.9135 H   0  0  0  0  0  0  0  0  0  0  0  0
  136.3602   73.6518  221.5024 H   0  0  0  0  0  0  0  0  0  0  0  0
  139.9020   74.2045  218.5975 H   0  0  0  0  0  0  0  0  0  0  0  0
  139.4552   75.7387  219.3327 H   0  0  0  0  0  0  0  0  0  0  0  0
  141.9727   74.2725  219.5660 H   0  0  0  0  0  0  0  0  0  0  0  0
  141.5955   75.8481  220.2751 H   0  0  0  0  0  0  0  0  0  0  0  0
  141.3421   73.0670  221.5073 H   0  0  0  0  0  0  0  0  0  0  0  0
  141.7748   74.5309  222.3293 H   0  0  0  0  0  0  0  0  0  0  0  0
  139.2476   73.8136  222.6920 H   0  0  0  0  0  0  0  0  0  0  0  0
  137.1142   75.7667  221.8350 H   0  0  0  0  0  0  0  0  0  0  0  0
  139.3572   80.1490  223.8412 H   0  0  0  0  0  0  0  0  0  0  0  0
  140.8153   82.1069  224.3990 H   0  0  0  0  0  0  0  0  0  0  0  0
  143.2139   82.0476  223.7464 H   0  0  0  0  0  0  0  0  0  0  0  0
  144.1576   80.0966  222.5614 H   0  0  0  0  0  0  0  0  0  0  0  0
  142.7106   78.1411  222.0039 H   0  0  0  0  0  0  0  0  0  0  0  0
  140.3787   72.7623  223.8513 H   0  0  0  0  0  0  0  0  0  0  0  0
  141.5295   72.1704  226.0107 H   0  0  0  0  0  0  0  0  0  0  0  0
  141.8297   70.5765  227.7859 H   0  0  0  0  0  0  0  0  0  0  0  0
  139.6438   66.8488  227.7497 H   0  0  0  0  0  0  0  0  0  0  0  0
  138.5444   67.5100  225.6034 H   0  0  0  0  0  0  0  0  0  0  0  0
  1  2  2  0
  2  3  1  0
  3  4  1  0
  4  5  1  0
  5  6  2  0
  5  7  1  0
  7  8  1  0
  8  9  1  0
  9 10  1  0
 10 11  1  0
 11 12  1  0
 12 13  2  0
 13 14  1  0
 14 15  1  0
 15 16  1  0
 16 17  2  0
 17 18  1  0
 18 19  2  0
 19 20  1  0
 20 21  2  0
 15 22  2  0
  2 23  1  0
 23 24  2  0
 24 25  1  0
 25 26  2  0
 26 27  1  0
 27 28  2  0
 28 29  1  0
 28 30  1  0
 30 31  2  0
 31 32  1  0
 32 33  2  0
 11  7  1  0
 22 12  1  0
 33 23  1  0
 21 16  1  0
 32 26  1  0
  3 34  1  0
  4 35  1  0
  4 36  1  0
  8 37  1  0
  8 38  1  0
  9 39  1  0
  9 40  1  0
 10 41  1  0
 10 42  1  0
 11 43  1  1
 13 44  1  0
 17 45  1  0
 18 46  1  0
 19 47  1  0
 20 48  1  0
 21 49  1  0
 24 50  1  0
 25 51  1  0
 27 52  1  0
 30 53  1  0
 31 54  1  0
M  END
>  <smiles>  (41) 
O=C(NCC(=O)N1CCC[C@H]1c1csc(-c2ccccc2)n1)c1ccc2cc(F)ccc2n1

>  <score_type>  (41) 
oracle

>  <origin>  (41) 
autodockgpu

>  <m_score__min__energy>  (41) 
-9.4100000000000001

>  <m_primary>  (41) 
energy

>  <rmsd>  (41) 
3.2310644030159343

>  <m_score__min__rmsd>  (41) 
3.2310644030159343

>  <meeko>  (41) 
{"free_energy": -8.97, "intermolecular_energy": -10.76, "internal_energy": -1.85, "cluster_size": 10, "cluster_id": 2, "rank_in_cluster": 6}

>  <energy>  (41) 
-6.52

>  <cluster_rmsd>  (41) 
0.31

>  <cluster>  (41) 
8

$$$$

     RDKit          3D

 54 58  0  0  0  0  0  0  0  0999 V2000
  137.8720   70.8190  221.9460 O   0  0  0  0  0  0  0  0  0  0  0  0
  138.6770   71.2520  222.8250 C   0  0  0  0  0  0  0  0  0  0  0  0
  139.1970   72.5630  222.7050 N   0  0  0  0  0  0  0  0  0  0  0  0
  138.8630   73.4650  221.6180 C   0  0  0  0  0  0  0  0  0  0  0  0
  140.0470   74.3000  221.2910 C   0  0  0  0  0  0  0  0  0  0  0  0
  141.0600   74.3790  222.0380 O   0  0  0  0  0  0  0  0  0  0  0  0
  140.0810   75.0600  220.0910 N   0  0  0  0  0  0  0  0  0  0  0  0
  138.9510   75.7420  219.4900 C   0  0  0  0  0  0  0  0  0  0  0  0
  139.2270   75.6780  218.0040 C   0  0  0  0  0  0  0  0  0  0  0  0
  140.5870   74.9850  217.8670 C   0  0  0  0  0  0  0  0  0  0  0  0
  141.2050   75.3300  219.2040 C   0  0  1  0  0  0  0  0  0  0  0  0
  141.5360   76.7980  219.3000 C   0  0  0  0  0  0  0  0  0  0  0  0
  141.8340   77.5360  218.1790 C   0  0  0  0  0  0  0  0  0  0  0  0
  142.1490   79.2310  218.8790 S   0  0  0  0  0  0  0  0  0  0  0  0
  141.8220   78.6420  220.5580 C   0  0  0  0  0  0  0  0  0  0  0  0
  141.9110   79.5970  221.7490 C   0  0  0  0  0  0  0  0  0  0  0  0
  142.2020   79.0610  222.9860 C   0  0  0  0  0  0  0  0  0  0  0  0
  142.2850   79.9090  224.0740 C   0  0  0  0  0  0  0  0  0  0  0  0
  142.0730   81.2650  223.8790 C   0  0  0  0  0  0  0  0  0  0  0  0
  141.7820   81.7730  222.6230 C   0  0  0  0  0  0  0  0  0  0  0  0
  141.6960   80.9400  221.5310 C   0  0  0  0  0  0  0  0  0  0  0  0
  141.5680   77.4790  220.4180 N   0  0  0  0  0  0  0  0  0  0  0  0
  139.0750   70.4130  223.9610 C   0  0  0  0  0  0  0  0  0  0  0  0
  138.8300   69.0590  223.9510 C   0  0  0  0  0  0  0  0  0  0  0  0
  139.2070   68.2550  225.0320 C   0  0  0  0  0  0  0  0  0  0  0  0
  139.8370   68.8910  226.1070 C   0  0  0  0  0  0  0  0  0  0  0  0
  140.2180   68.1360  227.1790 C   0  0  0  0  0  0  0  0  0  0  0  0
  140.8440   68.8040  228.2340 C   0  0  0  0  0  0  0  0  0  0  0  0
  141.2340   68.0820  229.3100 F   0  0  0  0  0  0  0  0  0  0  0  0
  141.0810   70.1450  228.2330 C   0  0  0  0  0  0  0  0  0  0  0  0
  140.6890   70.8920  227.1400 C   0  0  0  0  0  0  0  0  0  0  0  0
  140.0710   70.2480  226.0920 C   0  0  0  0  0  0  0  0  0  0  0  0
  139.6780   70.9510  225.0160 N   0  0  0  0  0  0  0  0  0  0  0  0
  139.8670   72.8790  223.4670 H   0  0  0  0  0  0  0  0  0  0  0  0
  138.5696   72.8811  220.7331 H   0  0  0  0  0  0  0  0  0  0  0  0
  138.0275   74.1132  221.9209 H   0  0  0  0  0  0  0  0  0  0  0  0
  138.0098   75.2278  219.7346 H   0  0  0  0  0  0  0  0  0  0  0  0
  138.8394   76.7740  219.8539 H   0  0  0  0  0  0  0  0  0  0  0  0
  138.4461   75.0956  217.4931 H   0  0  0  0  0  0  0  0  0  0  0  0
  139.2323   76.6788  217.5475 H   0  0  0  0  0  0  0  0  0  0  0  0
  140.4782   73.8980  217.7377 H   0  0  0  0  0  0  0  0  0  0  0  0
  141.1769   75.2993  216.9934 H   0  0  0  0  0  0  0  0  0  0  0  0
  142.1385   74.7856  219.4094 H   0  0  0  0  0  0  0  0  0  0  0  0
  141.8758   77.2067  217.1303 H   0  0  0  0  0  0  0  0  0  0  0  0
  142.3648   77.9796  223.1042 H   0  0  0  0  0  0  0  0  0  0  0  0
  142.5148   79.5157  225.0752 H   0  0  0  0  0  0  0  0  0  0  0  0
  142.1369   81.9503  224.7370 H   0  0  0  0  0  0  0  0  0  0  0  0
  141.6180   82.8535  222.4976 H   0  0  0  0  0  0  0  0  0  0  0  0
  141.4657   81.3294  220.5283 H   0  0  0  0  0  0  0  0  0  0  0  0
  138.3317   68.6033  223.0826 H   0  0  0  0  0  0  0  0  0  0  0  0
  139.0166   67.1716  225.0365 H   0  0  0  0  0  0  0  0  0  0  0  0
  140.0400   67.0509  227.2104 H   0  0  0  0  0  0  0  0  0  0  0  0
  141.5768   70.6254  229.0893 H   0  0  0  0  0  0  0  0  0  0  0  0
  140.8665   71.9771  227.1074 H   0  0  0  0  0  0  0  0  0  0  0  0
  1  2  2  0
  2  3  1  0
  3  4  1  0
  4  5  1  0
  5  6  2  0
  5  7  1  0
  7  8  1  0
  8  9  1  0
  9 10  1  0
 10 11  1  0
 11 12  1  0
 12 13  2  0
 13 14  1  0
 14 15  1  0
 15 16  1  0
 16 17  2  0
 17 18  1  0
 18 19  2  0
 19 20  1  0
 20 21  2  0
 15 22  2  0
  2 23  1  0
 23 24  2  0
 24 25  1  0
 25 26  2  0
 26 27  1  0
 27 28  2  0
 28 29  1  0
 28 30  1  0
 30 31  2  0
 31 32  1  0
 32 33  2  0
 11  7  1  0
 22 12  1  0
 33 23  1  0
 21 16  1  0
 32 26  1  0
  3 34  1  0
  4 35  1  0
  4 36  1  0
  8 37  1  0
  8 38  1  0
  9 39  1  0
  9 40  1  0
 10 41  1  0
 10 42  1  0
 11 43  1  1
 13 44  1  0
 17 45  1  0
 18 46  1  0
 19 47  1  0
 20 48  1  0
 21 49  1  0
 24 50  1  0
 25 51  1  0
 27 52  1  0
 30 53  1  0
 31 54  1  0
M  END
>  <smiles>  (42) 
O=C(NCC(=O)N1CCC[C@H]1c1csc(-c2ccccc2)n1)c1ccc2cc(F)ccc2n1

>  <score_type>  (42) 
oracle

>  <origin>  (42) 
autodockgpu

>  <m_score__min__energy>  (42) 
-9.4100000000000001

>  <m_primary>  (42) 
energy

>  <rmsd>  (42) 
2.0804892395832515

>  <m_score__min__rmsd>  (42) 
2.0804892395832515

>  <meeko>  (42) 
{"free_energy": -8.79, "intermolecular_energy": -10.58, "internal_energy": -2.11, "cluster_size": 10, "cluster_id": 2, "rank_in_cluster": 9}

>  <energy>  (42) 
-6.46

>  <cluster_rmsd>  (42) 
0.35

>  <cluster>  (42) 
8

$$$$

     RDKit          3D

 54 58  0  0  0  0  0  0  0  0999 V2000
  137.6940   70.5700  222.0600 O   0  0  0  0  0  0  0  0  0  0  0  0
  138.4930   71.0550  222.9170 C   0  0  0  0  0  0  0  0  0  0  0  0
  138.9410   72.3890  222.7730 N   0  0  0  0  0  0  0  0  0  0  0  0
  138.5390   73.2600  221.6840 C   0  0  0  0  0  0  0  0  0  0  0  0
  139.0350   74.6350  221.9450 C   0  0  0  0  0  0  0  0  0  0  0  0
  140.2470   74.8970  222.1750 O   0  0  0  0  0  0  0  0  0  0  0  0
  138.1360   75.7360  221.9450 N   0  0  0  0  0  0  0  0  0  0  0  0
  137.5170   76.3230  223.1180 C   0  0  0  0  0  0  0  0  0  0  0  0
  136.1730   76.8100  222.6230 C   0  0  0  0  0  0  0  0  0  0  0  0
  136.1520   76.5050  221.1220 C   0  0  0  0  0  0  0  0  0  0  0  0
  137.6350   76.5140  220.8200 C   0  0  1  0  0  0  0  0  0  0  0  0
  138.2110   77.9050  220.9160 C   0  0  0  0  0  0  0  0  0  0  0  0
  137.6460   78.9580  220.2380 C   0  0  0  0  0  0  0  0  0  0  0  0
  138.7420   80.3840  220.7160 S   0  0  0  0  0  0  0  0  0  0  0  0
  139.7670   79.3030  221.7440 C   0  0  0  0  0  0  0  0  0  0  0  0
  140.9670   79.8640  222.5070 C   0  0  0  0  0  0  0  0  0  0  0  0
  140.7430   80.8910  223.3990 C   0  0  0  0  0  0  0  0  0  0  0  0
  141.8160   81.4110  224.0970 C   0  0  0  0  0  0  0  0  0  0  0  0
  143.0770   80.8790  223.8740 C   0  0  0  0  0  0  0  0  0  0  0  0
  143.2700   79.8470  222.9700 C   0  0  0  0  0  0  0  0  0  0  0  0
  142.2100   79.3200  222.2680 C   0  0  0  0  0  0  0  0  0  0  0  0
  139.2630   78.2220  221.6280 N   0  0  0  0  0  0  0  0  0  0  0  0
  138.9570   70.2510  224.0530 C   0  0  0  0  0  0  0  0  0  0  0  0
  138.7810   68.8850  224.0620 C   0  0  0  0  0  0  0  0  0  0  0  0
  139.2220   68.1150  225.1440 C   0  0  0  0  0  0  0  0  0  0  0  0
  139.8410   68.7940  226.1990 C   0  0  0  0  0  0  0  0  0  0  0  0
  140.2820   68.0720  227.2700 C   0  0  0  0  0  0  0  0  0  0  0  0
  140.8950   68.7840  228.3040 C   0  0  0  0  0  0  0  0  0  0  0  0
  141.3440   68.0960  229.3790 F   0  0  0  0  0  0  0  0  0  0  0  0
  141.0630   70.1350  228.2830 C   0  0  0  0  0  0  0  0  0  0  0  0
  140.6100   70.8480  227.1920 C   0  0  0  0  0  0  0  0  0  0  0  0
  140.0040   70.1610  226.1640 C   0  0  0  0  0  0  0  0  0  0  0  0
  139.5540   70.8310  225.0890 N   0  0  0  0  0  0  0  0  0  0  0  0
  139.6100   72.7480  223.5160 H   0  0  0  0  0  0  0  0  0  0  0  0
  138.9653   72.8888  220.7404 H   0  0  0  0  0  0  0  0  0  0  0  0
  137.4416   73.2728  221.6090 H   0  0  0  0  0  0  0  0  0  0  0  0
  137.3917   75.5708  223.9108 H   0  0  0  0  0  0  0  0  0  0  0  0
  138.1230   77.1302  223.5552 H   0  0  0  0  0  0  0  0  0  0  0  0
  135.3588   76.2761  223.1348 H   0  0  0  0  0  0  0  0  0  0  0  0
  136.0297   77.8822  222.8226 H   0  0  0  0  0  0  0  0  0  0  0  0
  135.7006   75.5239  220.9129 H   0  0  0  0  0  0  0  0  0  0  0  0
  135.5564   77.2064  220.5192 H   0  0  0  0  0  0  0  0  0  0  0  0
  137.8818   76.1430  219.8143 H   0  0  0  0  0  0  0  0  0  0  0  0
  136.7661   78.9581  219.5779 H   0  0  0  0  0  0  0  0  0  0  0  0
  139.7290   81.2890  223.5521 H   0  0  0  0  0  0  0  0  0  0  0  0
  141.6727   82.2313  224.8158 H   0  0  0  0  0  0  0  0  0  0  0  0
  143.9392   81.2834  224.4245 H   0  0  0  0  0  0  0  0  0  0  0  0
  144.2814   79.4445  222.8116 H   0  0  0  0  0  0  0  0  0  0  0  0
  142.3491   78.5004  221.5477 H   0  0  0  0  0  0  0  0  0  0  0  0
  138.2886   68.3941  223.2096 H   0  0  0  0  0  0  0  0  0  0  0  0
  139.0878   67.0234  225.1642 H   0  0  0  0  0  0  0  0  0  0  0  0
  140.1604   66.9798  227.3169 H   0  0  0  0  0  0  0  0  0  0  0  0
  141.5523   70.6501  229.1228 H   0  0  0  0  0  0  0  0  0  0  0  0
  140.7302   71.9404  227.1446 H   0  0  0  0  0  0  0  0  0  0  0  0
  1  2  2  0
  2  3  1  0
  3  4  1  0
  4  5  1  0
  5  6  2  0
  5  7  1  0
  7  8  1  0
  8  9  1  0
  9 10  1  0
 10 11  1  0
 11 12  1  0
 12 13  2  0
 13 14  1  0
 14 15  1  0
 15 16  1  0
 16 17  2  0
 17 18  1  0
 18 19  2  0
 19 20  1  0
 20 21  2  0
 15 22  2  0
  2 23  1  0
 23 24  2  0
 24 25  1  0
 25 26  2  0
 26 27  1  0
 27 28  2  0
 28 29  1  0
 28 30  1  0
 30 31  2  0
 31 32  1  0
 32 33  2  0
 11  7  1  0
 22 12  1  0
 33 23  1  0
 21 16  1  0
 32 26  1  0
  3 34  1  0
  4 35  1  0
  4 36  1  0
  8 37  1  0
  8 38  1  0
  9 39  1  0
  9 40  1  0
 10 41  1  0
 10 42  1  0
 11 43  1  6
 13 44  1  0
 17 45  1  0
 18 46  1  0
 19 47  1  0
 20 48  1  0
 21 49  1  0
 24 50  1  0
 25 51  1  0
 27 52  1  0
 30 53  1  0
 31 54  1  0
M  END
>  <smiles>  (43) 
O=C(NCC(=O)N1CCC[C@H]1c1csc(-c2ccccc2)n1)c1ccc2cc(F)ccc2n1

>  <score_type>  (43) 
oracle

>  <origin>  (43) 
autodockgpu

>  <m_score__min__energy>  (43) 
-9.4100000000000001

>  <m_primary>  (43) 
energy

>  <rmsd>  (43) 
3.304186689886287

>  <m_score__min__rmsd>  (43) 
3.304186689886287

>  <meeko>  (43) 
{"free_energy": -8.7, "intermolecular_energy": -10.49, "internal_energy": -1.95, "cluster_size": 3, "cluster_id": 5, "rank_in_cluster": 3}

>  <energy>  (43) 
-6.14

>  <cluster_rmsd>  (43) 
0.56

>  <cluster>  (43) 
8

$$$$

     RDKit          3D

 54 58  0  0  0  0  0  0  0  0999 V2000
  138.5340   74.4800  222.3460 O   0  0  0  0  0  0  0  0  0  0  0  0
  139.5900   75.0300  221.9100 C   0  0  0  0  0  0  0  0  0  0  0  0
  139.6470   76.4400  221.8050 N   0  0  0  0  0  0  0  0  0  0  0  0
  138.5520   77.3190  222.1720 C   0  0  0  0  0  0  0  0  0  0  0  0
  139.1010   78.5850  222.7210 C   0  0  0  0  0  0  0  0  0  0  0  0
  138.4550   79.3320  223.5050 O   0  0  0  0  0  0  0  0  0  0  0  0
  140.4120   79.0110  222.3740 N   0  0  0  0  0  0  0  0  0  0  0  0
  141.6470   78.3950  222.8200 C   0  0  0  0  0  0  0  0  0  0  0  0
  142.6260   79.5450  222.9020 C   0  0  0  0  0  0  0  0  0  0  0  0
  141.8560   80.7770  222.4150 C   0  0  0  0  0  0  0  0  0  0  0  0
  140.8240   80.1200  221.5230 C   0  0  1  0  0  0  0  0  0  0  0  0
  141.4520   79.5480  220.2780 C   0  0  0  0  0  0  0  0  0  0  0  0
  142.1820   80.3370  219.4210 C   0  0  0  0  0  0  0  0  0  0  0  0
  142.6990   79.1330  218.0990 S   0  0  0  0  0  0  0  0  0  0  0  0
  141.8370   77.7810  218.9380 C   0  0  0  0  0  0  0  0  0  0  0  0
  141.8450   76.3700  218.3500 C   0  0  0  0  0  0  0  0  0  0  0  0
  142.9950   75.9360  217.7270 C   0  0  0  0  0  0  0  0  0  0  0  0
  143.0210   74.6640  217.1890 C   0  0  0  0  0  0  0  0  0  0  0  0
  141.8870   73.8730  217.2970 C   0  0  0  0  0  0  0  0  0  0  0  0
  140.7450   74.3370  217.9290 C   0  0  0  0  0  0  0  0  0  0  0  0
  140.7070   75.6020  218.4690 C   0  0  0  0  0  0  0  0  0  0  0  0
  141.3630   78.2940  219.9130 N   0  0  0  0  0  0  0  0  0  0  0  0
  140.7510   74.2240  221.5140 C   0  0  0  0  0  0  0  0  0  0  0  0
  140.6690   72.8500  221.4780 C   0  0  0  0  0  0  0  0  0  0  0  0
  141.7740   72.0780  221.1010 C   0  0  0  0  0  0  0  0  0  0  0  0
  142.9450   72.7640  220.7670 C   0  0  0  0  0  0  0  0  0  0  0  0
  144.0410   72.0410  220.3940 C   0  0  0  0  0  0  0  0  0  0  0  0
  145.1930   72.7590  220.0670 C   0  0  0  0  0  0  0  0  0  0  0  0
  146.2960   72.0700  219.6930 F   0  0  0  0  0  0  0  0  0  0  0  0
  145.2620   74.1190  220.1060 C   0  0  0  0  0  0  0  0  0  0  0  0
  144.1440   74.8340  220.4850 C   0  0  0  0  0  0  0  0  0  0  0  0
  143.0000   74.1400  220.8100 C   0  0  0  0  0  0  0  0  0  0  0  0
  141.8960   74.8100  221.1820 N   0  0  0  0  0  0  0  0  0  0  0  0
  140.5540   76.8520  221.4340 H   0  0  0  0  0  0  0  0  0  0  0  0
  137.9428   77.5379  221.2827 H   0  0  0  0  0  0  0  0  0  0  0  0
  137.9254   76.8292  222.9319 H   0  0  0  0  0  0  0  0  0  0  0  0
  141.5146   77.9242  223.8053 H   0  0  0  0  0  0  0  0  0  0  0  0
  141.9888   77.5978  222.1435 H   0  0  0  0  0  0  0  0  0  0  0  0
  142.9639   79.6885  223.9389 H   0  0  0  0  0  0  0  0  0  0  0  0
  143.5238   79.3595  222.2940 H   0  0  0  0  0  0  0  0  0  0  0  0
  141.3863   81.3187  223.2492 H   0  0  0  0  0  0  0  0  0  0  0  0
  142.4749   81.5383  221.9176 H   0  0  0  0  0  0  0  0  0  0  0  0
  140.0325   80.8057  221.1862 H   0  0  0  0  0  0  0  0  0  0  0  0
  142.4049   81.4115  219.4974 H   0  0  0  0  0  0  0  0  0  0  0  0
  143.8764   76.5907  217.6594 H   0  0  0  0  0  0  0  0  0  0  0  0
  143.9229   74.2861  216.6851 H   0  0  0  0  0  0  0  0  0  0  0  0
  141.8945   72.8581  216.8728 H   0  0  0  0  0  0  0  0  0  0  0  0
  139.8598   73.6878  217.9999 H   0  0  0  0  0  0  0  0  0  0  0  0
  139.8073   75.9837  218.9738 H   0  0  0  0  0  0  0  0  0  0  0  0
  139.7252   72.3538  221.7483 H   0  0  0  0  0  0  0  0  0  0  0  0
  141.7230   70.9797  221.0690 H   0  0  0  0  0  0  0  0  0  0  0  0
  144.0177   70.9420  220.3529 H   0  0  0  0  0  0  0  0  0  0  0  0
  146.1940   74.6390  219.8396 H   0  0  0  0  0  0  0  0  0  0  0  0
  144.1663   75.9330  220.5265 H   0  0  0  0  0  0  0  0  0  0  0  0
  1  2  2  0
  2  3  1  0
  3  4  1  0
  4  5  1  0
  5  6  2  0
  5  7  1  0
  7  8  1  0
  8  9  1  0
  9 10  1  0
 10 11  1  0
 11 12  1  0
 12 13  2  0
 13 14  1  0
 14 15  1  0
 15 16  1  0
 16 17  2  0
 17 18  1  0
 18 19  2  0
 19 20  1  0
 20 21  2  0
 15 22  2  0
  2 23  1  0
 23 24  2  0
 24 25  1  0
 25 26  2  0
 26 27  1  0
 27 28  2  0
 28 29  1  0
 28 30  1  0
 30 31  2  0
 31 32  1  0
 32 33  2  0
 11  7  1  0
 22 12  1  0
 33 23  1  0
 21 16  1  0
 32 26  1  0
  3 34  1  0
  4 35  1  0
  4 36  1  0
  8 37  1  0
  8 38  1  0
  9 39  1  0
  9 40  1  0
 10 41  1  0
 10 42  1  0
 11 43  1  6
 13 44  1  0
 17 45  1  0
 18 46  1  0
 19 47  1  0
 20 48  1  0
 21 49  1  0
 24 50  1  0
 25 51  1  0
 27 52  1  0
 30 53  1  0
 31 54  1  0
M  END
>  <smiles>  (44) 
O=C(NCC(=O)N1CCC[C@H]1c1csc(-c2ccccc2)n1)c1ccc2cc(F)ccc2n1

>  <score_type>  (44) 
oracle

>  <origin>  (44) 
autodockgpu

>  <m_score__min__energy>  (44) 
-9.4100000000000001

>  <m_primary>  (44) 
energy

>  <rmsd>  (44) 
6.682166881498777

>  <m_score__min__rmsd>  (44) 
6.682166881498777

>  <meeko>  (44) 
{"free_energy": -6.14, "intermolecular_energy": -7.93, "internal_energy": -4.41, "cluster_size": 11, "cluster_id": 8, "rank_in_cluster": 11}

>  <energy>  (44) 
-6.74

>  <cluster_rmsd>  (44) 
0.0

>  <cluster>  (44) 
9

$$$$

     RDKit          3D

 54 58  0  0  0  0  0  0  0  0999 V2000
  137.5780   75.7680  222.3250 O   0  0  0  0  0  0  0  0  0  0  0  0
  138.8150   76.0450  222.3200 C   0  0  0  0  0  0  0  0  0  0  0  0
  139.7470   75.0570  221.9250 N   0  0  0  0  0  0  0  0  0  0  0  0
  139.3730   73.7150  221.5160 C   0  0  0  0  0  0  0  0  0  0  0  0
  140.5770   72.8450  221.5230 C   0  0  0  0  0  0  0  0  0  0  0  0
  140.7150   71.8690  222.3090 O   0  0  0  0  0  0  0  0  0  0  0  0
  141.6450   73.0890  220.6180 N   0  0  0  0  0  0  0  0  0  0  0  0
  141.6880   72.6720  219.2290 C   0  0  0  0  0  0  0  0  0  0  0  0
  143.1560   72.4170  218.9650 C   0  0  0  0  0  0  0  0  0  0  0  0
  143.8790   72.7830  220.2650 C   0  0  0  0  0  0  0  0  0  0  0  0
  142.9040   73.7850  220.8460 C   0  0  1  0  0  0  0  0  0  0  0  0
  142.8850   75.0650  220.0490 C   0  0  0  0  0  0  0  0  0  0  0  0
  143.7570   75.2690  219.0070 C   0  0  0  0  0  0  0  0  0  0  0  0
  143.2890   76.9690  218.4110 S   0  0  0  0  0  0  0  0  0  0  0  0
  142.0000   77.1000  219.6750 C   0  0  0  0  0  0  0  0  0  0  0  0
  141.1360   78.3580  219.7780 C   0  0  0  0  0  0  0  0  0  0  0  0
  141.7720   79.5630  219.9860 C   0  0  0  0  0  0  0  0  0  0  0  0
  141.0080   80.7100  220.0830 C   0  0  0  0  0  0  0  0  0  0  0  0
  139.6300   80.6030  219.9650 C   0  0  0  0  0  0  0  0  0  0  0  0
  139.0200   79.3770  219.7560 C   0  0  0  0  0  0  0  0  0  0  0  0
  139.7700   78.2270  219.6590 C   0  0  0  0  0  0  0  0  0  0  0  0
  142.0650   76.0620  220.2700 N   0  0  0  0  0  0  0  0  0  0  0  0
  139.2900   77.3750  222.7170 C   0  0  0  0  0  0  0  0  0  0  0  0
  138.3960   78.3710  223.0390 C   0  0  0  0  0  0  0  0  0  0  0  0
  138.8450   79.6400  223.4190 C   0  0  0  0  0  0  0  0  0  0  0  0
  140.2290   79.8410  223.4540 C   0  0  0  0  0  0  0  0  0  0  0  0
  140.7000   81.0690  223.8210 C   0  0  0  0  0  0  0  0  0  0  0  0
  142.0870   81.2330  223.8450 C   0  0  0  0  0  0  0  0  0  0  0  0
  142.5860   82.4380  224.2050 F   0  0  0  0  0  0  0  0  0  0  0  0
  142.9630   80.2400  223.5250 C   0  0  0  0  0  0  0  0  0  0  0  0
  142.4670   79.0050  223.1570 C   0  0  0  0  0  0  0  0  0  0  0  0
  141.1020   78.8270  223.1280 C   0  0  0  0  0  0  0  0  0  0  0  0
  140.5920   77.6360  222.7740 N   0  0  0  0  0  0  0  0  0  0  0  0
  140.7720   75.3380  221.9380 H   0  0  0  0  0  0  0  0  0  0  0  0
  138.6253   73.3129  222.2154 H   0  0  0  0  0  0  0  0  0  0  0  0
  138.9462   73.7446  220.5026 H   0  0  0  0  0  0  0  0  0  0  0  0
  141.0992   71.7552  219.0782 H   0  0  0  0  0  0  0  0  0  0  0  0
  141.2614   73.4242  218.5492 H   0  0  0  0  0  0  0  0  0  0  0  0
  143.3233   71.3583  218.7178 H   0  0  0  0  0  0  0  0  0  0  0  0
  143.5249   73.0086  218.1141 H   0  0  0  0  0  0  0  0  0  0  0  0
  144.0033   71.9089  220.9212 H   0  0  0  0  0  0  0  0  0  0  0  0
  144.9027   73.1624  220.1306 H   0  0  0  0  0  0  0  0  0  0  0  0
  143.1304   74.0677  221.8847 H   0  0  0  0  0  0  0  0  0  0  0  0
  144.5368   74.5958  218.6214 H   0  0  0  0  0  0  0  0  0  0  0  0
  142.8675   79.6106  220.0731 H   0  0  0  0  0  0  0  0  0  0  0  0
  141.4827   81.6881  220.2504 H   0  0  0  0  0  0  0  0  0  0  0  0
  139.0101   81.5087  220.0388 H   0  0  0  0  0  0  0  0  0  0  0  0
  137.9250   79.3220  219.6666 H   0  0  0  0  0  0  0  0  0  0  0  0
  139.2993   77.2466  219.4937 H   0  0  0  0  0  0  0  0  0  0  0  0
  137.3160   78.1665  222.9970 H   0  0  0  0  0  0  0  0  0  0  0  0
  138.1411   80.4443  223.6788 H   0  0  0  0  0  0  0  0  0  0  0  0
  140.0187   81.8911  224.0855 H   0  0  0  0  0  0  0  0  0  0  0  0
  144.0478   80.4191  223.5592 H   0  0  0  0  0  0  0  0  0  0  0  0
  143.1472   78.1818  222.8929 H   0  0  0  0  0  0  0  0  0  0  0  0
  1  2  2  0
  2  3  1  0
  3  4  1  0
  4  5  1  0
  5  6  2  0
  5  7  1  0
  7  8  1  0
  8  9  1  0
  9 10  1  0
 10 11  1  0
 11 12  1  0
 12 13  2  0
 13 14  1  0
 14 15  1  0
 15 16  1  0
 16 17  2  0
 17 18  1  0
 18 19  2  0
 19 20  1  0
 20 21  2  0
 15 22  2  0
  2 23  1  0
 23 24  2  0
 24 25  1  0
 25 26  2  0
 26 27  1  0
 27 28  2  0
 28 29  1  0
 28 30  1  0
 30 31  2  0
 31 32  1  0
 32 33  2  0
 11  7  1  0
 22 12  1  0
 33 23  1  0
 21 16  1  0
 32 26  1  0
  3 34  1  0
  4 35  1  0
  4 36  1  0
  8 37  1  0
  8 38  1  0
  9 39  1  0
  9 40  1  0
 10 41  1  0
 10 42  1  0
 11 43  1  1
 13 44  1  0
 17 45  1  0
 18 46  1  0
 19 47  1  0
 20 48  1  0
 21 49  1  0
 24 50  1  0
 25 51  1  0
 27 52  1  0
 30 53  1  0
 31 54  1  0
M  END
>  <smiles>  (45) 
O=C(NCC(=O)N1CCC[C@H]1c1csc(-c2ccccc2)n1)c1ccc2cc(F)ccc2n1

>  <score_type>  (45) 
oracle

>  <origin>  (45) 
autodockgpu

>  <m_score__min__energy>  (45) 
-9.4100000000000001

>  <m_primary>  (45) 
energy

>  <rmsd>  (45) 
7.033308258075355

>  <m_score__min__rmsd>  (45) 
7.033308258075355

>  <meeko>  (45) 
{"free_energy": -6.37, "intermolecular_energy": -8.16, "internal_energy": -4.2, "cluster_size": 4, "cluster_id": 10, "rank_in_cluster": 1}

>  <energy>  (45) 
-6.16

>  <cluster_rmsd>  (45) 
0.92

>  <cluster>  (45) 
9

$$$$

     RDKit          3D

 54 58  0  0  0  0  0  0  0  0999 V2000
  138.6380   74.6900  222.3340 O   0  0  0  0  0  0  0  0  0  0  0  0
  139.7160   75.2090  221.9110 C   0  0  0  0  0  0  0  0  0  0  0  0
  139.8220   76.6170  221.8220 N   0  0  0  0  0  0  0  0  0  0  0  0
  138.7550   77.5300  222.1890 C   0  0  0  0  0  0  0  0  0  0  0  0
  139.3330   78.7060  222.8880 C   0  0  0  0  0  0  0  0  0  0  0  0
  138.7550   79.2880  223.8460 O   0  0  0  0  0  0  0  0  0  0  0  0
  140.5930   79.2300  222.4920 N   0  0  0  0  0  0  0  0  0  0  0  0
  141.8870   78.7000  222.8760 C   0  0  0  0  0  0  0  0  0  0  0  0
  142.7840   79.9180  222.9330 C   0  0  0  0  0  0  0  0  0  0  0  0
  141.9060   81.0960  222.4980 C   0  0  0  0  0  0  0  0  0  0  0  0
  140.8870   80.3760  221.6410 C   0  0  1  0  0  0  0  0  0  0  0  0
  141.4990   79.8660  220.3610 C   0  0  0  0  0  0  0  0  0  0  0  0
  142.1010   80.7210  219.4700 C   0  0  0  0  0  0  0  0  0  0  0  0
  142.6610   79.5720  218.1170 S   0  0  0  0  0  0  0  0  0  0  0  0
  141.9820   78.1430  218.9970 C   0  0  0  0  0  0  0  0  0  0  0  0
  142.0960   76.7380  218.4040 C   0  0  0  0  0  0  0  0  0  0  0  0
  143.2900   76.3810  217.8150 C   0  0  0  0  0  0  0  0  0  0  0  0
  143.4110   75.1150  217.2730 C   0  0  0  0  0  0  0  0  0  0  0  0
  142.3260   74.2550  217.3440 C   0  0  0  0  0  0  0  0  0  0  0  0
  141.1390   74.6430  217.9420 C   0  0  0  0  0  0  0  0  0  0  0  0
  141.0050   75.9010  218.4850 C   0  0  0  0  0  0  0  0  0  0  0  0
  141.5130   78.6090  219.9970 N   0  0  0  0  0  0  0  0  0  0  0  0
  140.8510   74.3670  221.5150 C   0  0  0  0  0  0  0  0  0  0  0  0
  140.7290   72.9960  221.4860 C   0  0  0  0  0  0  0  0  0  0  0  0
  141.8100   72.1910  221.1090 C   0  0  0  0  0  0  0  0  0  0  0  0
  143.0000   72.8410  220.7680 C   0  0  0  0  0  0  0  0  0  0  0  0
  144.0730   72.0840  220.3960 C   0  0  0  0  0  0  0  0  0  0  0  0
  145.2450   72.7670  220.0630 C   0  0  0  0  0  0  0  0  0  0  0  0
  146.3260   72.0450  219.6890 F   0  0  0  0  0  0  0  0  0  0  0  0
  145.3530   74.1250  220.0960 C   0  0  0  0  0  0  0  0  0  0  0  0
  144.2580   74.8730  220.4750 C   0  0  0  0  0  0  0  0  0  0  0  0
  143.0950   74.2140  220.8060 C   0  0  0  0  0  0  0  0  0  0  0  0
  142.0120   74.9190  221.1780 N   0  0  0  0  0  0  0  0  0  0  0  0
  140.7450   77.0010  221.4620 H   0  0  0  0  0  0  0  0  0  0  0  0
  138.2289   77.8636  221.2824 H   0  0  0  0  0  0  0  0  0  0  0  0
  138.0452   77.0179  222.8552 H   0  0  0  0  0  0  0  0  0  0  0  0
  141.8318   78.2096  223.8591 H   0  0  0  0  0  0  0  0  0  0  0  0
  142.2555   77.9373  222.1742 H   0  0  0  0  0  0  0  0  0  0  0  0
  143.1560   80.0735  223.9564 H   0  0  0  0  0  0  0  0  0  0  0  0
  143.6653   79.8055  222.2845 H   0  0  0  0  0  0  0  0  0  0  0  0
  141.4349   81.5917  223.3596 H   0  0  0  0  0  0  0  0  0  0  0  0
  142.4456   81.9066  221.9864 H   0  0  0  0  0  0  0  0  0  0  0  0
  140.0345   81.0066  221.3484 H   0  0  0  0  0  0  0  0  0  0  0  0
  142.2219   81.8122  219.5390 H   0  0  0  0  0  0  0  0  0  0  0  0
  144.1303   77.0898  217.7770 H   0  0  0  0  0  0  0  0  0  0  0  0
  144.3492   74.7965  216.7951 H   0  0  0  0  0  0  0  0  0  0  0  0
  142.4097   73.2447  216.9169 H   0  0  0  0  0  0  0  0  0  0  0  0
  140.2947   73.9391  217.9836 H   0  0  0  0  0  0  0  0  0  0  0  0
  140.0680   76.2235  218.9625 H   0  0  0  0  0  0  0  0  0  0  0  0
  139.7722   72.5286  221.7619 H   0  0  0  0  0  0  0  0  0  0  0  0
  141.7270   71.0945  221.0821 H   0  0  0  0  0  0  0  0  0  0  0  0
  144.0173   70.9860  220.3601 H   0  0  0  0  0  0  0  0  0  0  0  0
  146.2987   74.6169  219.8246 H   0  0  0  0  0  0  0  0  0  0  0  0
  144.3124   75.9710  220.5121 H   0  0  0  0  0  0  0  0  0  0  0  0
  1  2  2  0
  2  3  1  0
  3  4  1  0
  4  5  1  0
  5  6  2  0
  5  7  1  0
  7  8  1  0
  8  9  1  0
  9 10  1  0
 10 11  1  0
 11 12  1  0
 12 13  2  0
 13 14  1  0
 14 15  1  0
 15 16  1  0
 16 17  2  0
 17 18  1  0
 18 19  2  0
 19 20  1  0
 20 21  2  0
 15 22  2  0
  2 23  1  0
 23 24  2  0
 24 25  1  0
 25 26  2  0
 26 27  1  0
 27 28  2  0
 28 29  1  0
 28 30  1  0
 30 31  2  0
 31 32  1  0
 32 33  2  0
 11  7  1  0
 22 12  1  0
 33 23  1  0
 21 16  1  0
 32 26  1  0
  3 34  1  0
  4 35  1  0
  4 36  1  0
  8 37  1  0
  8 38  1  0
  9 39  1  0
  9 40  1  0
 10 41  1  0
 10 42  1  0
 11 43  1  6
 13 44  1  0
 17 45  1  0
 18 46  1  0
 19 47  1  0
 20 48  1  0
 21 49  1  0
 24 50  1  0
 25 51  1  0
 27 52  1  0
 30 53  1  0
 31 54  1  0
M  END
>  <smiles>  (46) 
O=C(NCC(=O)N1CCC[C@H]1c1csc(-c2ccccc2)n1)c1ccc2cc(F)ccc2n1

>  <score_type>  (46) 
oracle

>  <origin>  (46) 
autodockgpu

>  <m_score__min__energy>  (46) 
-9.4100000000000001

>  <m_primary>  (46) 
energy

>  <rmsd>  (46) 
6.733322158264663

>  <m_score__min__rmsd>  (46) 
6.733322158264663

>  <meeko>  (46) 
{"free_energy": -6.6, "intermolecular_energy": -8.39, "internal_energy": -4.24, "cluster_size": 11, "cluster_id": 8, "rank_in_cluster": 7}

>  <energy>  (46) 
-6.08

>  <cluster_rmsd>  (46) 
0.85

>  <cluster>  (46) 
9

$$$$

     RDKit          3D

 54 58  0  0  0  0  0  0  0  0999 V2000
  139.4810   71.3640  221.1010 O   0  0  0  0  0  0  0  0  0  0  0  0
  139.4700   71.8760  222.2610 C   0  0  0  0  0  0  0  0  0  0  0  0
  139.2900   73.2720  222.4030 N   0  0  0  0  0  0  0  0  0  0  0  0
  139.1150   74.1790  221.2830 C   0  0  0  0  0  0  0  0  0  0  0  0
  138.9540   75.5650  221.7930 C   0  0  0  0  0  0  0  0  0  0  0  0
  138.0960   75.8820  222.6610 O   0  0  0  0  0  0  0  0  0  0  0  0
  139.7840   76.6110  221.3080 N   0  0  0  0  0  0  0  0  0  0  0  0
  139.4480   77.5270  220.2340 C   0  0  0  0  0  0  0  0  0  0  0  0
  140.7780   77.8380  219.5830 C   0  0  0  0  0  0  0  0  0  0  0  0
  141.8270   77.0870  220.4100 C   0  0  0  0  0  0  0  0  0  0  0  0
  141.1160   77.0060  221.7440 C   0  0  1  0  0  0  0  0  0  0  0  0
  141.0130   78.3600  222.4000 C   0  0  0  0  0  0  0  0  0  0  0  0
  142.1350   79.1040  222.6800 C   0  0  0  0  0  0  0  0  0  0  0  0
  141.4230   80.6350  223.4620 S   0  0  0  0  0  0  0  0  0  0  0  0
  139.7400   79.9980  223.2710 C   0  0  0  0  0  0  0  0  0  0  0  0
  138.5390   80.8180  223.7460 C   0  0  0  0  0  0  0  0  0  0  0  0
  138.0220   80.5410  224.9940 C   0  0  0  0  0  0  0  0  0  0  0  0
  136.9370   81.2710  225.4400 C   0  0  0  0  0  0  0  0  0  0  0  0
  136.4110   82.2530  224.6150 C   0  0  0  0  0  0  0  0  0  0  0  0
  136.9530   82.5070  223.3650 C   0  0  0  0  0  0  0  0  0  0  0  0
  138.0340   81.7870  222.9090 C   0  0  0  0  0  0  0  0  0  0  0  0
  139.8870   78.9290  222.7490 N   0  0  0  0  0  0  0  0  0  0  0  0
  139.6390   71.0400  223.4550 C   0  0  0  0  0  0  0  0  0  0  0  0
  139.2860   69.7090  223.4340 C   0  0  0  0  0  0  0  0  0  0  0  0
  139.4460   68.9090  224.5700 C   0  0  0  0  0  0  0  0  0  0  0  0
  139.9760   69.5210  225.7100 C   0  0  0  0  0  0  0  0  0  0  0  0
  140.1450   68.7680  226.8360 C   0  0  0  0  0  0  0  0  0  0  0  0
  140.6770   69.4120  227.9550 C   0  0  0  0  0  0  0  0  0  0  0  0
  140.8580   68.6920  229.0870 F   0  0  0  0  0  0  0  0  0  0  0  0
  141.0230   70.7300  227.9640 C   0  0  0  0  0  0  0  0  0  0  0  0
  140.8450   71.4750  226.8160 C   0  0  0  0  0  0  0  0  0  0  0  0
  140.3220   70.8540  225.7040 C   0  0  0  0  0  0  0  0  0  0  0  0
  140.1380   71.5560  224.5730 N   0  0  0  0  0  0  0  0  0  0  0  0
  139.2880   73.6520  223.3950 H   0  0  0  0  0  0  0  0  0  0  0  0
  139.9975   74.1287  220.6283 H   0  0  0  0  0  0  0  0  0  0  0  0
  138.2201   73.8906  220.7121 H   0  0  0  0  0  0  0  0  0  0  0  0
  138.7635   77.0520  219.5158 H   0  0  0  0  0  0  0  0  0  0  0  0
  138.9339   78.4299  220.5952 H   0  0  0  0  0  0  0  0  0  0  0  0
  140.7869   77.4863  218.5408 H   0  0  0  0  0  0  0  0  0  0  0  0
  140.9765   78.9197  219.5591 H   0  0  0  0  0  0  0  0  0  0  0  0
  142.0315   76.0882  219.9970 H   0  0  0  0  0  0  0  0  0  0  0  0
  142.8155   77.5683  220.4446 H   0  0  0  0  0  0  0  0  0  0  0  0
  141.6147   76.3453  222.4684 H   0  0  0  0  0  0  0  0  0  0  0  0
  143.1896   78.8561  222.4894 H   0  0  0  0  0  0  0  0  0  0  0  0
  138.4648   79.7541  225.6223 H   0  0  0  0  0  0  0  0  0  0  0  0
  136.4992   81.0768  226.4303 H   0  0  0  0  0  0  0  0  0  0  0  0
  135.5475   82.8414  224.9588 H   0  0  0  0  0  0  0  0  0  0  0  0
  136.5150   83.2919  222.7309 H   0  0  0  0  0  0  0  0  0  0  0  0
  138.4748   81.9776  221.9194 H   0  0  0  0  0  0  0  0  0  0  0  0
  138.8736   69.2702  222.5135 H   0  0  0  0  0  0  0  0  0  0  0  0
  139.1671   67.8449  224.5668 H   0  0  0  0  0  0  0  0  0  0  0  0
  139.8744   67.7021  226.8607 H   0  0  0  0  0  0  0  0  0  0  0  0
  141.4375   71.1927  228.8718 H   0  0  0  0  0  0  0  0  0  0  0  0
  141.1149   72.5411  226.7900 H   0  0  0  0  0  0  0  0  0  0  0  0
  1  2  2  0
  2  3  1  0
  3  4  1  0
  4  5  1  0
  5  6  2  0
  5  7  1  0
  7  8  1  0
  8  9  1  0
  9 10  1  0
 10 11  1  0
 11 12  1  0
 12 13  2  0
 13 14  1  0
 14 15  1  0
 15 16  1  0
 16 17  2  0
 17 18  1  0
 18 19  2  0
 19 20  1  0
 20 21  2  0
 15 22  2  0
  2 23  1  0
 23 24  2  0
 24 25  1  0
 25 26  2  0
 26 27  1  0
 27 28  2  0
 28 29  1  0
 28 30  1  0
 30 31  2  0
 31 32  1  0
 32 33  2  0
 11  7  1  0
 22 12  1  0
 33 23  1  0
 21 16  1  0
 32 26  1  0
  3 34  1  0
  4 35  1  0
  4 36  1  0
  8 37  1  0
  8 38  1  0
  9 39  1  0
  9 40  1  0
 10 41  1  0
 10 42  1  0
 11 43  1  1
 13 44  1  0
 17 45  1  0
 18 46  1  0
 19 47  1  0
 20 48  1  0
 21 49  1  0
 24 50  1  0
 25 51  1  0
 27 52  1  0
 30 53  1  0
 31 54  1  0
M  END
>  <smiles>  (47) 
O=C(NCC(=O)N1CCC[C@H]1c1csc(-c2ccccc2)n1)c1ccc2cc(F)ccc2n1

>  <score_type>  (47) 
oracle

>  <origin>  (47) 
autodockgpu

>  <m_score__min__energy>  (47) 
-9.4100000000000001

>  <m_primary>  (47) 
energy

>  <rmsd>  (47) 
2.4021679517756698

>  <m_score__min__rmsd>  (47) 
2.4021679517756698

>  <meeko>  (47) 
{"free_energy": -8.91, "intermolecular_energy": -10.7, "internal_energy": -1.85, "cluster_size": 4, "cluster_id": 3, "rank_in_cluster": 3}

>  <energy>  (47) 
-6.37

>  <cluster_rmsd>  (47) 
0.0

>  <cluster>  (47) 
10

$$$$

     RDKit          3D

 54 58  0  0  0  0  0  0  0  0999 V2000
  141.0940   73.2830  221.9750 O   0  0  0  0  0  0  0  0  0  0  0  0
  140.0230   72.9220  222.5500 C   0  0  0  0  0  0  0  0  0  0  0  0
  138.8230   73.6230  222.2880 N   0  0  0  0  0  0  0  0  0  0  0  0
  138.7320   74.7550  221.3840 C   0  0  0  0  0  0  0  0  0  0  0  0
  138.8840   76.0150  222.1570 C   0  0  0  0  0  0  0  0  0  0  0  0
  138.1040   76.3480  223.0890 O   0  0  0  0  0  0  0  0  0  0  0  0
  139.9450   76.9130  221.8640 N   0  0  0  0  0  0  0  0  0  0  0  0
  141.0740   77.1980  222.7290 C   0  0  0  0  0  0  0  0  0  0  0  0
  141.4140   78.6420  222.4320 C   0  0  0  0  0  0  0  0  0  0  0  0
  140.4470   79.0730  221.3250 C   0  0  0  0  0  0  0  0  0  0  0  0
  140.1560   77.7350  220.6800 C   0  0  1  0  0  0  0  0  0  0  0  0
  141.3600   77.2010  219.9450 C   0  0  0  0  0  0  0  0  0  0  0  0
  141.8490   77.8310  218.8260 C   0  0  0  0  0  0  0  0  0  0  0  0
  143.2970   76.7610  218.3570 S   0  0  0  0  0  0  0  0  0  0  0  0
  142.9840   75.6550  219.7550 C   0  0  0  0  0  0  0  0  0  0  0  0
  143.8780   74.4400  220.0010 C   0  0  0  0  0  0  0  0  0  0  0  0
  145.1430   74.6600  220.5030 C   0  0  0  0  0  0  0  0  0  0  0  0
  145.9660   73.5740  220.7310 C   0  0  0  0  0  0  0  0  0  0  0  0
  145.4860   72.3040  220.4480 C   0  0  0  0  0  0  0  0  0  0  0  0
  144.2100   72.1150  219.9440 C   0  0  0  0  0  0  0  0  0  0  0  0
  143.3800   73.1880  219.7110 C   0  0  0  0  0  0  0  0  0  0  0  0
  142.0240   76.1280  220.2950 N   0  0  0  0  0  0  0  0  0  0  0  0
  140.0150   71.7880  223.4820 C   0  0  0  0  0  0  0  0  0  0  0  0
  139.5020   70.5700  223.0970 C   0  0  0  0  0  0  0  0  0  0  0  0
  139.4910   69.4870  223.9830 C   0  0  0  0  0  0  0  0  0  0  0  0
  140.0230   69.7030  225.2580 C   0  0  0  0  0  0  0  0  0  0  0  0
  140.0290   68.6660  226.1470 C   0  0  0  0  0  0  0  0  0  0  0  0
  140.5670   68.9180  227.4110 C   0  0  0  0  0  0  0  0  0  0  0  0
  140.5870   67.9100  228.3130 F   0  0  0  0  0  0  0  0  0  0  0  0
  141.0730   70.1280  227.7800 C   0  0  0  0  0  0  0  0  0  0  0  0
  141.0580   71.1640  226.8680 C   0  0  0  0  0  0  0  0  0  0  0  0
  140.5310   70.9320  225.6170 C   0  0  0  0  0  0  0  0  0  0  0  0
  140.5050   71.9220  224.7100 N   0  0  0  0  0  0  0  0  0  0  0  0
  137.9540   73.2810  222.7950 H   0  0  0  0  0  0  0  0  0  0  0  0
  139.5301   74.6881  220.6300 H   0  0  0  0  0  0  0  0  0  0  0  0
  137.7536   74.7471  220.8814 H   0  0  0  0  0  0  0  0  0  0  0  0
  140.7971   77.0719  223.7861 H   0  0  0  0  0  0  0  0  0  0  0  0
  141.9222   76.5204  222.5517 H   0  0  0  0  0  0  0  0  0  0  0  0
  141.2718   79.2624  223.3292 H   0  0  0  0  0  0  0  0  0  0  0  0
  142.4636   78.7582  222.1239 H   0  0  0  0  0  0  0  0  0  0  0  0
  139.5363   79.5324  221.7369 H   0  0  0  0  0  0  0  0  0  0  0  0
  140.8441   79.8365  220.6399 H   0  0  0  0  0  0  0  0  0  0  0  0
  139.3342   77.7684  219.9496 H   0  0  0  0  0  0  0  0  0  0  0  0
  141.4773   78.7405  218.3313 H   0  0  0  0  0  0  0  0  0  0  0  0
  145.4906   75.6812  220.7180 H   0  0  0  0  0  0  0  0  0  0  0  0
  146.9819   73.7139  221.1291 H   0  0  0  0  0  0  0  0  0  0  0  0
  146.1306   71.4308  220.6271 H   0  0  0  0  0  0  0  0  0  0  0  0
  143.8560   71.0963  219.7275 H   0  0  0  0  0  0  0  0  0  0  0  0
  142.3643   73.0523  219.3111 H   0  0  0  0  0  0  0  0  0  0  0  0
  139.0964   70.4467  222.0820 H   0  0  0  0  0  0  0  0  0  0  0  0
  139.0819   68.5090  223.6895 H   0  0  0  0  0  0  0  0  0  0  0  0
  139.6283   67.6771  225.8795 H   0  0  0  0  0  0  0  0  0  0  0  0
  141.4867   70.2769  228.7883 H   0  0  0  0  0  0  0  0  0  0  0  0
  141.4582   72.1533  227.1346 H   0  0  0  0  0  0  0  0  0  0  0  0
  1  2  2  0
  2  3  1  0
  3  4  1  0
  4  5  1  0
  5  6  2  0
  5  7  1  0
  7  8  1  0
  8  9  1  0
  9 10  1  0
 10 11  1  0
 11 12  1  0
 12 13  2  0
 13 14  1  0
 14 15  1  0
 15 16  1  0
 16 17  2  0
 17 18  1  0
 18 19  2  0
 19 20  1  0
 20 21  2  0
 15 22  2  0
  2 23  1  0
 23 24  2  0
 24 25  1  0
 25 26  2  0
 26 27  1  0
 27 28  2  0
 28 29  1  0
 28 30  1  0
 30 31  2  0
 31 32  1  0
 32 33  2  0
 11  7  1  0
 22 12  1  0
 33 23  1  0
 21 16  1  0
 32 26  1  0
  3 34  1  0
  4 35  1  0
  4 36  1  0
  8 37  1  0
  8 38  1  0
  9 39  1  0
  9 40  1  0
 10 41  1  0
 10 42  1  0
 11 43  1  6
 13 44  1  0
 17 45  1  0
 18 46  1  0
 19 47  1  0
 20 48  1  0
 21 49  1  0
 24 50  1  0
 25 51  1  0
 27 52  1  0
 30 53  1  0
 31 54  1  0
M  END
>  <smiles>  (48) 
O=C(NCC(=O)N1CCC[C@H]1c1csc(-c2ccccc2)n1)c1ccc2cc(F)ccc2n1

>  <score_type>  (48) 
oracle

>  <origin>  (48) 
autodockgpu

>  <m_score__min__energy>  (48) 
-9.4100000000000001

>  <m_primary>  (48) 
energy

>  <rmsd>  (48) 
5.231683784844289

>  <m_score__min__rmsd>  (48) 
5.231683784844289

>  <meeko>  (48) 
{"free_energy": -9.36, "intermolecular_energy": -11.15, "internal_energy": -2.0, "cluster_size": 8, "cluster_id": 1, "rank_in_cluster": 3}

>  <energy>  (48) 
-6.33

>  <cluster_rmsd>  (48) 
0.07

>  <cluster>  (48) 
10

$$$$

     RDKit          3D

 54 58  0  0  0  0  0  0  0  0999 V2000
  141.0020   72.5780  221.7650 O   0  0  0  0  0  0  0  0  0  0  0  0
  140.0170   72.4940  222.5580 C   0  0  0  0  0  0  0  0  0  0  0  0
  138.9000   73.3430  222.3720 N   0  0  0  0  0  0  0  0  0  0  0  0
  138.8050   74.3270  221.3090 C   0  0  0  0  0  0  0  0  0  0  0  0
  138.6740   75.6820  221.9040 C   0  0  0  0  0  0  0  0  0  0  0  0
  137.6590   76.0520  222.5540 O   0  0  0  0  0  0  0  0  0  0  0  0
  139.7180   76.6350  221.7580 N   0  0  0  0  0  0  0  0  0  0  0  0
  140.7660   76.8950  222.7260 C   0  0  0  0  0  0  0  0  0  0  0  0
  141.0700   78.3670  222.5570 C   0  0  0  0  0  0  0  0  0  0  0  0
  140.1730   78.8440  221.4100 C   0  0  0  0  0  0  0  0  0  0  0  0
  139.9850   77.5460  220.6530 C   0  0  1  0  0  0  0  0  0  0  0  0
  141.2610   77.1070  219.9800 C   0  0  0  0  0  0  0  0  0  0  0  0
  141.8030   77.8270  218.9420 C   0  0  0  0  0  0  0  0  0  0  0  0
  143.3260   76.8460  218.5180 S   0  0  0  0  0  0  0  0  0  0  0  0
  142.9590   75.6400  219.8170 C   0  0  0  0  0  0  0  0  0  0  0  0
  143.8840   74.4460  220.0540 C   0  0  0  0  0  0  0  0  0  0  0  0
  145.1440   74.6950  220.5550 C   0  0  0  0  0  0  0  0  0  0  0  0
  145.9950   73.6280  220.7750 C   0  0  0  0  0  0  0  0  0  0  0  0
  145.5470   72.3490  220.4830 C   0  0  0  0  0  0  0  0  0  0  0  0
  144.2750   72.1310  219.9800 C   0  0  0  0  0  0  0  0  0  0  0  0
  143.4180   73.1850  219.7560 C   0  0  0  0  0  0  0  0  0  0  0  0
  141.9430   76.0400  220.3110 N   0  0  0  0  0  0  0  0  0  0  0  0
  140.0200   71.5290  223.6640 C   0  0  0  0  0  0  0  0  0  0  0  0
  139.5490   70.2490  223.4770 C   0  0  0  0  0  0  0  0  0  0  0  0
  139.5500   69.3260  224.5290 C   0  0  0  0  0  0  0  0  0  0  0  0
  140.0490   69.7650  225.7600 C   0  0  0  0  0  0  0  0  0  0  0  0
  140.0650   68.8890  226.8070 C   0  0  0  0  0  0  0  0  0  0  0  0
  140.5690   69.3620  228.0200 C   0  0  0  0  0  0  0  0  0  0  0  0
  140.5980   68.5170  229.0770 F   0  0  0  0  0  0  0  0  0  0  0  0
  141.0330   70.6320  228.1930 C   0  0  0  0  0  0  0  0  0  0  0  0
  141.0090   71.5030  227.1230 C   0  0  0  0  0  0  0  0  0  0  0  0
  140.5150   71.0520  225.9190 C   0  0  0  0  0  0  0  0  0  0  0  0
  140.4800   71.8790  224.8610 N   0  0  0  0  0  0  0  0  0  0  0  0
  138.1000   73.2330  223.0630 H   0  0  0  0  0  0  0  0  0  0  0  0
  139.7114   74.2848  220.6873 H   0  0  0  0  0  0  0  0  0  0  0  0
  137.9247   74.1118  220.6855 H   0  0  0  0  0  0  0  0  0  0  0  0
  140.4153   76.6837  223.7470 H   0  0  0  0  0  0  0  0  0  0  0  0
  141.6512   76.2611  222.5692 H   0  0  0  0  0  0  0  0  0  0  0  0
  140.8361   78.9159  223.4811 H   0  0  0  0  0  0  0  0  0  0  0  0
  142.1344   78.5405  222.3405 H   0  0  0  0  0  0  0  0  0  0  0  0
  139.2163   79.2411  221.7801 H   0  0  0  0  0  0  0  0  0  0  0  0
  140.5900   79.6682  220.8127 H   0  0  0  0  0  0  0  0  0  0  0  0
  139.2205   77.6036  219.8642 H   0  0  0  0  0  0  0  0  0  0  0  0
  141.4296   78.7519  218.4781 H   0  0  0  0  0  0  0  0  0  0  0  0
  145.4662   75.7234  220.7755 H   0  0  0  0  0  0  0  0  0  0  0  0
  147.0072   73.7906  221.1737 H   0  0  0  0  0  0  0  0  0  0  0  0
  146.2141   71.4913  220.6540 H   0  0  0  0  0  0  0  0  0  0  0  0
  143.9461   71.1052  219.7572 H   0  0  0  0  0  0  0  0  0  0  0  0
  142.4054   73.0267  219.3565 H   0  0  0  0  0  0  0  0  0  0  0  0
  139.1677   69.9484  222.4900 H   0  0  0  0  0  0  0  0  0  0  0  0
  139.1750   68.3007  224.3939 H   0  0  0  0  0  0  0  0  0  0  0  0
  139.6976   67.8577  226.6998 H   0  0  0  0  0  0  0  0  0  0  0  0
  141.4203   70.9573  229.1698 H   0  0  0  0  0  0  0  0  0  0  0  0
  141.3762   72.5344  227.2292 H   0  0  0  0  0  0  0  0  0  0  0  0
  1  2  2  0
  2  3  1  0
  3  4  1  0
  4  5  1  0
  5  6  2  0
  5  7  1  0
  7  8  1  0
  8  9  1  0
  9 10  1  0
 10 11  1  0
 11 12  1  0
 12 13  2  0
 13 14  1  0
 14 15  1  0
 15 16  1  0
 16 17  2  0
 17 18  1  0
 18 19  2  0
 19 20  1  0
 20 21  2  0
 15 22  2  0
  2 23  1  0
 23 24  2  0
 24 25  1  0
 25 26  2  0
 26 27  1  0
 27 28  2  0
 28 29  1  0
 28 30  1  0
 30 31  2  0
 31 32  1  0
 32 33  2  0
 11  7  1  0
 22 12  1  0
 33 23  1  0
 21 16  1  0
 32 26  1  0
  3 34  1  0
  4 35  1  0
  4 36  1  0
  8 37  1  0
  8 38  1  0
  9 39  1  0
  9 40  1  0
 10 41  1  0
 10 42  1  0
 11 43  1  6
 13 44  1  0
 17 45  1  0
 18 46  1  0
 19 47  1  0
 20 48  1  0
 21 49  1  0
 24 50  1  0
 25 51  1  0
 27 52  1  0
 30 53  1  0
 31 54  1  0
M  END
>  <smiles>  (49) 
O=C(NCC(=O)N1CCC[C@H]1c1csc(-c2ccccc2)n1)c1ccc2cc(F)ccc2n1

>  <score_type>  (49) 
oracle

>  <origin>  (49) 
autodockgpu

>  <m_score__min__energy>  (49) 
-9.4100000000000001

>  <m_primary>  (49) 
energy

>  <rmsd>  (49) 
5.183254882225662

>  <m_score__min__rmsd>  (49) 
5.183254882225662

>  <meeko>  (49) 
{"free_energy": -9.33, "intermolecular_energy": -11.12, "internal_energy": -1.95, "cluster_size": 8, "cluster_id": 1, "rank_in_cluster": 5}

>  <energy>  (49) 
-6.19

>  <cluster_rmsd>  (49) 
0.24

>  <cluster>  (49) 
10

$$$$

     RDKit          3D

 54 58  0  0  0  0  0  0  0  0999 V2000
  138.6570   74.8710  221.7160 O   0  0  0  0  0  0  0  0  0  0  0  0
  139.8580   75.2780  221.7240 C   0  0  0  0  0  0  0  0  0  0  0  0
  140.1320   76.6280  222.0470 N   0  0  0  0  0  0  0  0  0  0  0  0
  139.1080   77.6020  222.3760 C   0  0  0  0  0  0  0  0  0  0  0  0
  139.7260   78.7410  223.1000 C   0  0  0  0  0  0  0  0  0  0  0  0
  139.2980   79.1670  224.2070 O   0  0  0  0  0  0  0  0  0  0  0  0
  140.8560   79.4100  222.5560 N   0  0  0  0  0  0  0  0  0  0  0  0
  142.2430   79.1070  222.8550 C   0  0  0  0  0  0  0  0  0  0  0  0
  142.9450   80.4420  222.7480 C   0  0  0  0  0  0  0  0  0  0  0  0
  141.8670   81.4420  222.3170 C   0  0  0  0  0  0  0  0  0  0  0  0
  140.9040   80.5150  221.6080 C   0  0  1  0  0  0  0  0  0  0  0  0
  141.4820   79.9990  220.3140 C   0  0  0  0  0  0  0  0  0  0  0  0
  142.0260   80.8540  219.3860 C   0  0  0  0  0  0  0  0  0  0  0  0
  142.5660   79.6970  218.0330 S   0  0  0  0  0  0  0  0  0  0  0  0
  141.9610   78.2660  218.9620 C   0  0  0  0  0  0  0  0  0  0  0  0
  142.0920   76.8540  218.3890 C   0  0  0  0  0  0  0  0  0  0  0  0
  143.3090   76.4840  217.8570 C   0  0  0  0  0  0  0  0  0  0  0  0
  143.4450   75.2120  217.3340 C   0  0  0  0  0  0  0  0  0  0  0  0
  142.3530   74.3580  217.3650 C   0  0  0  0  0  0  0  0  0  0  0  0
  141.1430   74.7610  217.9050 C   0  0  0  0  0  0  0  0  0  0  0  0
  140.9930   76.0240  218.4300 C   0  0  0  0  0  0  0  0  0  0  0  0
  141.5170   78.7370  219.9710 N   0  0  0  0  0  0  0  0  0  0  0  0
  140.9630   74.3670  221.4040 C   0  0  0  0  0  0  0  0  0  0  0  0
  140.7740   73.0040  221.4200 C   0  0  0  0  0  0  0  0  0  0  0  0
  141.8250   72.1320  221.1160 C   0  0  0  0  0  0  0  0  0  0  0  0
  143.0580   72.7100  220.7980 C   0  0  0  0  0  0  0  0  0  0  0  0
  144.1050   71.8870  220.4960 C   0  0  0  0  0  0  0  0  0  0  0  0
  145.3220   72.4990  220.1840 C   0  0  0  0  0  0  0  0  0  0  0  0
  146.3780   71.7100  219.8800 F   0  0  0  0  0  0  0  0  0  0  0  0
  145.4970   73.8500  220.1710 C   0  0  0  0  0  0  0  0  0  0  0  0
  144.4270   74.6650  220.4790 C   0  0  0  0  0  0  0  0  0  0  0  0
  143.2210   74.0780  220.7890 C   0  0  0  0  0  0  0  0  0  0  0  0
  142.1620   74.8480  221.0930 N   0  0  0  0  0  0  0  0  0  0  0  0
  141.1540   76.9190  222.0390 H   0  0  0  0  0  0  0  0  0  0  0  0
  138.6376   77.9668  221.4510 H   0  0  0  0  0  0  0  0  0  0  0  0
  138.3447   77.1319  223.0135 H   0  0  0  0  0  0  0  0  0  0  0  0
  142.3423   78.6941  223.8697 H   0  0  0  0  0  0  0  0  0  0  0  0
  142.6658   78.3527  222.1751 H   0  0  0  0  0  0  0  0  0  0  0  0
  143.3700   80.7312  223.7205 H   0  0  0  0  0  0  0  0  0  0  0  0
  143.7778   80.4072  222.0302 H   0  0  0  0  0  0  0  0  0  0  0  0
  141.3972   81.9318  223.1826 H   0  0  0  0  0  0  0  0  0  0  0  0
  142.2345   82.2789  221.7050 H   0  0  0  0  0  0  0  0  0  0  0  0
  139.9447   80.9895  221.3539 H   0  0  0  0  0  0  0  0  0  0  0  0
  142.1190   81.9491  219.4317 H   0  0  0  0  0  0  0  0  0  0  0  0
  144.1548   77.1872  217.8490 H   0  0  0  0  0  0  0  0  0  0  0  0
  144.4014   74.8833  216.9013 H   0  0  0  0  0  0  0  0  0  0  0  0
  142.4495   73.3425  216.9534 H   0  0  0  0  0  0  0  0  0  0  0  0
  140.2924   74.0636  217.9143 H   0  0  0  0  0  0  0  0  0  0  0  0
  140.0381   76.3563  218.8632 H   0  0  0  0  0  0  0  0  0  0  0  0
  139.7850   72.5953  221.6748 H   0  0  0  0  0  0  0  0  0  0  0  0
  141.6876   71.0407  221.1266 H   0  0  0  0  0  0  0  0  0  0  0  0
  143.9955   70.7925  220.4982 H   0  0  0  0  0  0  0  0  0  0  0  0
  146.4757   74.2842  219.9190 H   0  0  0  0  0  0  0  0  0  0  0  0
  144.5353   75.7597  220.4769 H   0  0  0  0  0  0  0  0  0  0  0  0
  1  2  2  0
  2  3  1  0
  3  4  1  0
  4  5  1  0
  5  6  2  0
  5  7  1  0
  7  8  1  0
  8  9  1  0
  9 10  1  0
 10 11  1  0
 11 12  1  0
 12 13  2  0
 13 14  1  0
 14 15  1  0
 15 16  1  0
 16 17  2  0
 17 18  1  0
 18 19  2  0
 19 20  1  0
 20 21  2  0
 15 22  2  0
  2 23  1  0
 23 24  2  0
 24 25  1  0
 25 26  2  0
 26 27  1  0
 27 28  2  0
 28 29  1  0
 28 30  1  0
 30 31  2  0
 31 32  1  0
 32 33  2  0
 11  7  1  0
 22 12  1  0
 33 23  1  0
 21 16  1  0
 32 26  1  0
  3 34  1  0
  4 35  1  0
  4 36  1  0
  8 37  1  0
  8 38  1  0
  9 39  1  0
  9 40  1  0
 10 41  1  0
 10 42  1  0
 11 43  1  6
 13 44  1  0
 17 45  1  0
 18 46  1  0
 19 47  1  0
 20 48  1  0
 21 49  1  0
 24 50  1  0
 25 51  1  0
 27 52  1  0
 30 53  1  0
 31 54  1  0
M  END
>  <smiles>  (50) 
O=C(NCC(=O)N1CCC[C@H]1c1csc(-c2ccccc2)n1)c1ccc2cc(F)ccc2n1

>  <score_type>  (50) 
oracle

>  <origin>  (50) 
autodockgpu

>  <m_score__min__energy>  (50) 
-9.4100000000000001

>  <m_primary>  (50) 
energy

>  <rmsd>  (50) 
6.746367598047527

>  <m_score__min__rmsd>  (50) 
6.746367598047527

>  <meeko>  (50) 
{"free_energy": -6.83, "intermolecular_energy": -8.62, "internal_energy": -3.76, "cluster_size": 11, "cluster_id": 8, "rank_in_cluster": 1}

>  <energy>  (50) 
-6.01

>  <cluster_rmsd>  (50) 
0.74

>  <cluster>  (50) 
10

$$$$
