
     RDKit          3D

 59 62  0  0  0  0  0  0  0  0999 V2000
  141.5130   81.9880  221.6870 C   0  0  0  0  0  0  0  0  0  0  0  0
  141.8200   81.3600  223.0520 C   0  0  0  0  0  0  0  0  0  0  0  0
  141.8500   79.8850  222.8490 C   0  0  0  0  0  0  0  0  0  0  0  0
  143.0150   79.3670  222.7560 O   0  0  0  0  0  0  0  0  0  0  0  0
  140.6670   79.0920  222.7680 N   0  0  0  0  0  0  0  0  0  0  0  0
  139.4070   79.7780  222.8890 C   0  0  0  0  0  0  0  0  0  0  0  0
  139.0050   80.0700  224.2030 C   0  0  0  0  0  0  0  0  0  0  0  0
  137.8120   80.7250  224.4480 C   0  0  0  0  0  0  0  0  0  0  0  0
  137.0250   81.0840  223.3730 C   0  0  0  0  0  0  0  0  0  0  0  0
  137.4440   80.7850  222.0920 C   0  0  0  0  0  0  0  0  0  0  0  0
  138.6340   80.1320  221.8170 C   0  0  0  0  0  0  0  0  0  0  0  0
  140.7090   77.6770  222.6000 C   0  0  0  0  0  0  0  0  0  0  0  0
  141.3510   77.3630  221.2510 C   0  0  0  0  0  0  0  0  0  0  0  0
  141.4340   75.9010  220.9920 C   0  0  0  0  0  0  0  0  0  0  0  0
  140.1620   75.2290  221.4630 N   0  0  0  0  0  0  0  0  0  0  0  0
  140.3220   73.8710  221.7020 C   0  0  0  0  0  0  0  0  0  0  0  0
  141.5650   73.4870  221.4420 O   0  0  0  0  0  0  0  0  0  0  0  0
  139.4870   72.8230  222.1480 C   0  0  0  0  0  0  0  0  0  0  0  0
  139.7610   71.5780  222.4580 C   0  0  0  0  0  0  0  0  0  0  0  0
  140.0150   71.0940  223.8100 C   0  0  0  0  0  0  0  0  0  0  0  0
  140.7130   71.8920  224.7280 C   0  0  0  0  0  0  0  0  0  0  0  0
  140.9720   71.4670  226.0110 C   0  0  0  0  0  0  0  0  0  0  0  0
  140.5550   70.2190  226.4680 C   0  0  0  0  0  0  0  0  0  0  0  0
  140.8350   69.8310  227.7570 C   0  0  0  0  0  0  0  0  0  0  0  0
  140.4040   68.5750  228.1730 C   0  0  0  0  0  0  0  0  0  0  0  0
  139.7110   67.7620  227.2840 C   0  0  0  0  0  0  0  0  0  0  0  0
  139.4480   68.1870  226.0010 C   0  0  0  0  0  0  0  0  0  0  0  0
  139.8720   69.4330  225.5750 C   0  0  0  0  0  0  0  0  0  0  0  0
  139.6130   69.8670  224.2810 C   0  0  0  0  0  0  0  0  0  0  0  0
  139.0640   76.1250  221.5640 C   0  0  0  0  0  0  0  0  0  0  0  0
  139.3460   77.0760  222.7230 C   0  0  0  0  0  0  0  0  0  0  0  0
  141.0342   82.9674  221.8334 H   0  0  0  0  0  0  0  0  0  0  0  0
  142.4492   82.1180  221.1243 H   0  0  0  0  0  0  0  0  0  0  0  0
  140.8354   81.3290  221.1243 H   0  0  0  0  0  0  0  0  0  0  0  0
  142.7951   81.7117  223.4201 H   0  0  0  0  0  0  0  0  0  0  0  0
  141.0602   81.6410  223.7961 H   0  0  0  0  0  0  0  0  0  0  0  0
  139.6463   79.7743  225.0464 H   0  0  0  0  0  0  0  0  0  0  0  0
  137.4975   80.9547  225.4768 H   0  0  0  0  0  0  0  0  0  0  0  0
  136.0700   81.6050  223.5356 H   0  0  0  0  0  0  0  0  0  0  0  0
  136.8017   81.0796  221.2490 H   0  0  0  0  0  0  0  0  0  0  0  0
  138.9432   79.9085  220.7853 H   0  0  0  0  0  0  0  0  0  0  0  0
  141.3175   77.2274  223.3985 H   0  0  0  0  0  0  0  0  0  0  0  0
  140.7503   77.8295  220.4563 H   0  0  0  0  0  0  0  0  0  0  0  0
  142.3764   77.7609  221.2656 H   0  0  0  0  0  0  0  0  0  0  0  0
  141.5623   75.7270  219.9135 H   0  0  0  0  0  0  0  0  0  0  0  0
  142.2923   75.4815  221.5373 H   0  0  0  0  0  0  0  0  0  0  0  0
  138.4269   73.0971  222.2533 H   0  0  0  0  0  0  0  0  0  0  0  0
  139.8022   70.8457  221.6382 H   0  0  0  0  0  0  0  0  0  0  0  0
  141.0635   72.8861  224.4135 H   0  0  0  0  0  0  0  0  0  0  0  0
  141.5230   72.1305  226.6938 H   0  0  0  0  0  0  0  0  0  0  0  0
  141.3845   70.4950  228.4405 H   0  0  0  0  0  0  0  0  0  0  0  0
  140.6100   68.2286  229.1965 H   0  0  0  0  0  0  0  0  0  0  0  0
  139.3689   66.7683  227.6088 H   0  0  0  0  0  0  0  0  0  0  0  0
  138.8972   67.5316  225.3103 H   0  0  0  0  0  0  0  0  0  0  0  0
  139.0616   69.1988  223.6031 H   0  0  0  0  0  0  0  0  0  0  0  0
  138.9584   76.6949  220.6291 H   0  0  0  0  0  0  0  0  0  0  0  0
  138.1298   75.5712  221.7388 H   0  0  0  0  0  0  0  0  0  0  0  0
  138.5959   77.8806  222.7194 H   0  0  0  0  0  0  0  0  0  0  0  0
  139.2957   76.5082  223.6638 H   0  0  0  0  0  0  0  0  0  0  0  0
  1  2  1  0
  2  3  1  0
  3  4  2  0
  3  5  1  0
  5  6  1  0
  6  7  2  0
  7  8  1  0
  8  9  2  0
  9 10  1  0
 10 11  2  0
  5 12  1  0
 12 13  1  0
 13 14  1  0
 14 15  1  0
 15 16  1  0
 16 17  2  0
 16 18  1  0
 18 19  2  0
 19 20  1  0
 20 21  2  0
 21 22  1  0
 22 23  2  0
 23 24  1  0
 24 25  2  0
 25 26  1  0
 26 27  2  0
 27 28  1  0
 28 29  2  0
 15 30  1  0
 30 31  1  0
 11  6  1  0
 31 12  1  0
 29 20  1  0
 28 23  1  0
  1 32  1  0
  1 33  1  0
  1 34  1  0
  2 35  1  0
  2 36  1  0
  7 37  1  0
  8 38  1  0
  9 39  1  0
 10 40  1  0
 11 41  1  0
 12 42  1  0
 13 43  1  0
 13 44  1  0
 14 45  1  0
 14 46  1  0
 18 47  1  0
 19 48  1  0
 21 49  1  0
 22 50  1  0
 24 51  1  0
 25 52  1  0
 26 53  1  0
 27 54  1  0
 29 55  1  0
 30 56  1  0
 30 57  1  0
 31 58  1  0
 31 59  1  0
M  END
>  <smiles>  (1) 
CCC(=O)N(c1ccccc1)C1CCN(C(=O)/C=C/c2ccc3ccccc3c2)CC1

>  <score_type>  (1) 
oracle

>  <origin>  (1) 
autodockgpu

>  <m_score__min__energy>  (1) 
-9.4600000000000009

>  <m_primary>  (1) 
energy

>  <rmsd>  (1) 
5.9153684895836

>  <m_score__min__rmsd>  (1) 
5.9153684895836

>  <meeko>  (1) 
{"free_energy": -8.9, "intermolecular_energy": -10.99, "internal_energy": -1.38, "cluster_size": 1, "cluster_id": 3, "rank_in_cluster": 1}

>  <energy>  (1) 
-9.46

>  <cluster_rmsd>  (1) 
0.0

>  <cluster>  (1) 
1

$$$$

     RDKit          3D

 59 62  0  0  0  0  0  0  0  0999 V2000
  137.7660   80.1370  223.6830 C   0  0  0  0  0  0  0  0  0  0  0  0
  137.5160   78.8840  222.8340 C   0  0  0  0  0  0  0  0  0  0  0  0
  138.6640   78.7680  221.8910 C   0  0  0  0  0  0  0  0  0  0  0  0
  138.4160   79.1010  220.6820 O   0  0  0  0  0  0  0  0  0  0  0  0
  139.9560   78.3240  222.2980 N   0  0  0  0  0  0  0  0  0  0  0  0
  140.8570   79.3160  222.8250 C   0  0  0  0  0  0  0  0  0  0  0  0
  140.7200   80.6030  222.2770 C   0  0  0  0  0  0  0  0  0  0  0  0
  141.5300   81.6410  222.7020 C   0  0  0  0  0  0  0  0  0  0  0  0
  142.4750   81.3840  223.6730 C   0  0  0  0  0  0  0  0  0  0  0  0
  142.5880   80.1110  224.1950 C   0  0  0  0  0  0  0  0  0  0  0  0
  141.7900   79.0530  223.7900 C   0  0  0  0  0  0  0  0  0  0  0  0
  140.3680   76.9650  222.1740 C   0  0  0  0  0  0  0  0  0  0  0  0
  140.7770   76.7090  220.7250 C   0  0  0  0  0  0  0  0  0  0  0  0
  141.2230   75.3070  220.5050 C   0  0  0  0  0  0  0  0  0  0  0  0
  140.3260   74.3620  221.2760 N   0  0  0  0  0  0  0  0  0  0  0  0
  140.9170   73.1290  221.5170 C   0  0  0  0  0  0  0  0  0  0  0  0
  142.1350   73.0770  220.9940 O   0  0  0  0  0  0  0  0  0  0  0  0
  140.5320   71.9410  222.1770 C   0  0  0  0  0  0  0  0  0  0  0  0
  139.6290   71.7260  223.1040 C   0  0  0  0  0  0  0  0  0  0  0  0
  139.7570   70.7510  224.1810 C   0  0  0  0  0  0  0  0  0  0  0  0
  139.2520   69.4530  224.0230 C   0  0  0  0  0  0  0  0  0  0  0  0
  139.3530   68.5070  225.0170 C   0  0  0  0  0  0  0  0  0  0  0  0
  139.9630   68.7890  226.2370 C   0  0  0  0  0  0  0  0  0  0  0  0
  140.0430   67.8180  227.2060 C   0  0  0  0  0  0  0  0  0  0  0  0
  140.6580   68.1410  228.4120 C   0  0  0  0  0  0  0  0  0  0  0  0
  141.1670   69.4210  228.5970 C   0  0  0  0  0  0  0  0  0  0  0  0
  141.0690   70.3670  227.6010 C   0  0  0  0  0  0  0  0  0  0  0  0
  140.4590   70.0580  226.3980 C   0  0  0  0  0  0  0  0  0  0  0  0
  140.3540   71.0080  225.3910 C   0  0  0  0  0  0  0  0  0  0  0  0
  139.0630   74.9290  221.5930 C   0  0  0  0  0  0  0  0  0  0  0  0
  139.2940   76.0290  222.6250 C   0  0  0  0  0  0  0  0  0  0  0  0
  137.7135   79.8736  224.7497 H   0  0  0  0  0  0  0  0  0  0  0  0
  138.7627   80.5422  223.4540 H   0  0  0  0  0  0  0  0  0  0  0  0
  137.0011   80.8937  223.4540 H   0  0  0  0  0  0  0  0  0  0  0  0
  137.4636   77.9940  223.4784 H   0  0  0  0  0  0  0  0  0  0  0  0
  136.5633   78.9594  222.2893 H   0  0  0  0  0  0  0  0  0  0  0  0
  139.9610   80.7868  221.5023 H   0  0  0  0  0  0  0  0  0  0  0  0
  141.4226   82.6490  222.2749 H   0  0  0  0  0  0  0  0  0  0  0  0
  143.1349   82.1887  224.0295 H   0  0  0  0  0  0  0  0  0  0  0  0
  143.3476   79.9278  224.9692 H   0  0  0  0  0  0  0  0  0  0  0  0
  141.9016   78.0485  224.2243 H   0  0  0  0  0  0  0  0  0  0  0  0
  141.2325   76.7788  222.8282 H   0  0  0  0  0  0  0  0  0  0  0  0
  139.9151   76.9128  220.0726 H   0  0  0  0  0  0  0  0  0  0  0  0
  141.6227   77.3724  220.4912 H   0  0  0  0  0  0  0  0  0  0  0  0
  141.1689   75.0697  219.4323 H   0  0  0  0  0  0  0  0  0  0  0  0
  142.2596   75.1941  220.8552 H   0  0  0  0  0  0  0  0  0  0  0  0
  141.0831   71.0434  221.8597 H   0  0  0  0  0  0  0  0  0  0  0  0
  138.7074   72.3253  223.0662 H   0  0  0  0  0  0  0  0  0  0  0  0
  138.7606   69.1828  223.0767 H   0  0  0  0  0  0  0  0  0  0  0  0
  138.9413   67.5018  224.8437 H   0  0  0  0  0  0  0  0  0  0  0  0
  139.6320   66.8124  227.0331 H   0  0  0  0  0  0  0  0  0  0  0  0
  140.7405   67.3900  229.2115 H   0  0  0  0  0  0  0  0  0  0  0  0
  141.6532   69.6811  229.5488 H   0  0  0  0  0  0  0  0  0  0  0  0
  141.4784   71.3751  227.7628 H   0  0  0  0  0  0  0  0  0  0  0  0
  140.7674   72.0115  225.5702 H   0  0  0  0  0  0  0  0  0  0  0  0
  138.6056   75.3547  220.6877 H   0  0  0  0  0  0  0  0  0  0  0  0
  138.3856   74.1607  221.9940 H   0  0  0  0  0  0  0  0  0  0  0  0
  138.3601   76.5930  222.7656 H   0  0  0  0  0  0  0  0  0  0  0  0
  139.6074   75.5636  223.5712 H   0  0  0  0  0  0  0  0  0  0  0  0
  1  2  1  0
  2  3  1  0
  3  4  2  0
  3  5  1  0
  5  6  1  0
  6  7  2  0
  7  8  1  0
  8  9  2  0
  9 10  1  0
 10 11  2  0
  5 12  1  0
 12 13  1  0
 13 14  1  0
 14 15  1  0
 15 16  1  0
 16 17  2  0
 16 18  1  0
 18 19  2  0
 19 20  1  0
 20 21  2  0
 21 22  1  0
 22 23  2  0
 23 24  1  0
 24 25  2  0
 25 26  1  0
 26 27  2  0
 27 28  1  0
 28 29  2  0
 15 30  1  0
 30 31  1  0
 11  6  1  0
 31 12  1  0
 29 20  1  0
 28 23  1  0
  1 32  1  0
  1 33  1  0
  1 34  1  0
  2 35  1  0
  2 36  1  0
  7 37  1  0
  8 38  1  0
  9 39  1  0
 10 40  1  0
 11 41  1  0
 12 42  1  0
 13 43  1  0
 13 44  1  0
 14 45  1  0
 14 46  1  0
 18 47  1  0
 19 48  1  0
 21 49  1  0
 22 50  1  0
 24 51  1  0
 25 52  1  0
 26 53  1  0
 27 54  1  0
 29 55  1  0
 30 56  1  0
 30 57  1  0
 31 58  1  0
 31 59  1  0
M  END
>  <smiles>  (2) 
CCC(=O)N(c1ccccc1)C1CCN(C(=O)/C=C/c2ccc3ccccc3c2)CC1

>  <score_type>  (2) 
oracle

>  <origin>  (2) 
autodockgpu

>  <m_score__min__energy>  (2) 
-9.4600000000000009

>  <m_primary>  (2) 
energy

>  <rmsd>  (2) 
6.0438385560300505

>  <m_score__min__rmsd>  (2) 
6.0438385560300505

>  <meeko>  (2) 
{"free_energy": -9.03, "intermolecular_energy": -11.12, "internal_energy": -1.37, "cluster_size": 43, "cluster_id": 1, "rank_in_cluster": 27}

>  <energy>  (2) 
-9.46

>  <cluster_rmsd>  (2) 
0.41

>  <cluster>  (2) 
1

$$$$

     RDKit          3D

 59 62  0  0  0  0  0  0  0  0999 V2000
  138.1540   80.5970  222.4000 C   0  0  0  0  0  0  0  0  0  0  0  0
  138.2630   79.3410  221.5280 C   0  0  0  0  0  0  0  0  0  0  0  0
  138.6910   78.2310  222.4250 C   0  0  0  0  0  0  0  0  0  0  0  0
  137.7560   77.6740  223.0950 O   0  0  0  0  0  0  0  0  0  0  0  0
  140.0490   77.8060  222.5330 N   0  0  0  0  0  0  0  0  0  0  0  0
  141.0330   78.8160  222.8250 C   0  0  0  0  0  0  0  0  0  0  0  0
  141.5030   79.5360  221.7130 C   0  0  0  0  0  0  0  0  0  0  0  0
  142.4510   80.5310  221.8670 C   0  0  0  0  0  0  0  0  0  0  0  0
  142.9240   80.8000  223.1340 C   0  0  0  0  0  0  0  0  0  0  0  0
  142.4450   80.0780  224.2080 C   0  0  0  0  0  0  0  0  0  0  0  0
  141.4950   79.0770  224.0860 C   0  0  0  0  0  0  0  0  0  0  0  0
  140.4390   76.4490  222.3390 C   0  0  0  0  0  0  0  0  0  0  0  0
  141.3460   76.3720  221.1130 C   0  0  0  0  0  0  0  0  0  0  0  0
  141.8020   74.9840  220.8350 C   0  0  0  0  0  0  0  0  0  0  0  0
  140.6580   74.0180  221.0620 N   0  0  0  0  0  0  0  0  0  0  0  0
  141.0830   72.7170  221.2900 C   0  0  0  0  0  0  0  0  0  0  0  0
  142.4060   72.6340  221.2380 O   0  0  0  0  0  0  0  0  0  0  0  0
  140.4490   71.4840  221.5570 C   0  0  0  0  0  0  0  0  0  0  0  0
  139.6030   71.1390  222.4980 C   0  0  0  0  0  0  0  0  0  0  0  0
  139.9600   70.8900  223.8900 C   0  0  0  0  0  0  0  0  0  0  0  0
  140.6580   71.8590  224.6250 C   0  0  0  0  0  0  0  0  0  0  0  0
  141.0130   71.6580  225.9390 C   0  0  0  0  0  0  0  0  0  0  0  0
  140.6980   70.4800  226.6120 C   0  0  0  0  0  0  0  0  0  0  0  0
  141.0720   70.3170  227.9250 C   0  0  0  0  0  0  0  0  0  0  0  0
  140.7410   69.1240  228.5600 C   0  0  0  0  0  0  0  0  0  0  0  0
  140.0500   68.1450  227.8550 C   0  0  0  0  0  0  0  0  0  0  0  0
  139.6910   68.3460  226.5410 C   0  0  0  0  0  0  0  0  0  0  0  0
  140.0150   69.5280  225.8980 C   0  0  0  0  0  0  0  0  0  0  0  0
  139.6600   69.7350  224.5720 C   0  0  0  0  0  0  0  0  0  0  0  0
  139.3830   74.6420  220.9950 C   0  0  0  0  0  0  0  0  0  0  0  0
  139.2480   75.5550  222.2090 C   0  0  0  0  0  0  0  0  0  0  0  0
  138.1789   80.3097  223.4615 H   0  0  0  0  0  0  0  0  0  0  0  0
  138.9972   81.2690  222.1821 H   0  0  0  0  0  0  0  0  0  0  0  0
  137.2077   81.1137  222.1821 H   0  0  0  0  0  0  0  0  0  0  0  0
  137.2877   79.1080  221.0758 H   0  0  0  0  0  0  0  0  0  0  0  0
  138.9842   79.4889  220.7107 H   0  0  0  0  0  0  0  0  0  0  0  0
  141.1130   79.3058  220.7106 H   0  0  0  0  0  0  0  0  0  0  0  0
  142.8197   81.0955  220.9978 H   0  0  0  0  0  0  0  0  0  0  0  0
  143.6786   81.5854  223.2877 H   0  0  0  0  0  0  0  0  0  0  0  0
  142.8365   80.3085  225.2098 H   0  0  0  0  0  0  0  0  0  0  0  0
  141.1298   78.5190  224.9608 H   0  0  0  0  0  0  0  0  0  0  0  0
  140.9953   76.0944  223.2192 H   0  0  0  0  0  0  0  0  0  0  0  0
  140.7916   76.7440  220.2388 H   0  0  0  0  0  0  0  0  0  0  0  0
  142.2368   76.9851  221.3142 H   0  0  0  0  0  0  0  0  0  0  0  0
  142.1401   74.9121  219.7907 H   0  0  0  0  0  0  0  0  0  0  0  0
  142.6331   74.7307  221.5096 H   0  0  0  0  0  0  0  0  0  0  0  0
  140.7086   70.6759  220.8573 H   0  0  0  0  0  0  0  0  0  0  0  0
  138.5453   71.0293  222.2163 H   0  0  0  0  0  0  0  0  0  0  0  0
  140.9294   72.8068  224.1371 H   0  0  0  0  0  0  0  0  0  0  0  0
  141.5604   72.4491  226.4724 H   0  0  0  0  0  0  0  0  0  0  0  0
  141.6182   71.1085  228.4591 H   0  0  0  0  0  0  0  0  0  0  0  0
  141.0234   68.9570  229.6099 H   0  0  0  0  0  0  0  0  0  0  0  0
  139.7873   67.1997  228.3523 H   0  0  0  0  0  0  0  0  0  0  0  0
  139.1428   67.5617  225.9985 H   0  0  0  0  0  0  0  0  0  0  0  0
  139.1144   68.9393  224.0436 H   0  0  0  0  0  0  0  0  0  0  0  0
  139.3037   75.2335  220.0710 H   0  0  0  0  0  0  0  0  0  0  0  0
  138.5842   73.8858  220.9915 H   0  0  0  0  0  0  0  0  0  0  0  0
  138.3447   76.1725  222.0966 H   0  0  0  0  0  0  0  0  0  0  0  0
  139.1767   74.9309  223.1120 H   0  0  0  0  0  0  0  0  0  0  0  0
  1  2  1  0
  2  3  1  0
  3  4  2  0
  3  5  1  0
  5  6  1  0
  6  7  2  0
  7  8  1  0
  8  9  2  0
  9 10  1  0
 10 11  2  0
  5 12  1  0
 12 13  1  0
 13 14  1  0
 14 15  1  0
 15 16  1  0
 16 17  2  0
 16 18  1  0
 18 19  2  0
 19 20  1  0
 20 21  2  0
 21 22  1  0
 22 23  2  0
 23 24  1  0
 24 25  2  0
 25 26  1  0
 26 27  2  0
 27 28  1  0
 28 29  2  0
 15 30  1  0
 30 31  1  0
 11  6  1  0
 31 12  1  0
 29 20  1  0
 28 23  1  0
  1 32  1  0
  1 33  1  0
  1 34  1  0
  2 35  1  0
  2 36  1  0
  7 37  1  0
  8 38  1  0
  9 39  1  0
 10 40  1  0
 11 41  1  0
 12 42  1  0
 13 43  1  0
 13 44  1  0
 14 45  1  0
 14 46  1  0
 18 47  1  0
 19 48  1  0
 21 49  1  0
 22 50  1  0
 24 51  1  0
 25 52  1  0
 26 53  1  0
 27 54  1  0
 29 55  1  0
 30 56  1  0
 30 57  1  0
 31 58  1  0
 31 59  1  0
M  END
>  <smiles>  (3) 
CCC(=O)N(c1ccccc1)C1CCN(C(=O)/C=C/c2ccc3ccccc3c2)CC1

>  <score_type>  (3) 
oracle

>  <origin>  (3) 
autodockgpu

>  <m_score__min__energy>  (3) 
-9.4600000000000009

>  <m_primary>  (3) 
energy

>  <rmsd>  (3) 
5.847983783626102

>  <m_score__min__rmsd>  (3) 
5.847983783626102

>  <meeko>  (3) 
{"free_energy": -9.16, "intermolecular_energy": -11.25, "internal_energy": -1.44, "cluster_size": 43, "cluster_id": 1, "rank_in_cluster": 17}

>  <energy>  (3) 
-9.42

>  <cluster_rmsd>  (3) 
0.55

>  <cluster>  (3) 
1

$$$$

     RDKit          3D

 59 62  0  0  0  0  0  0  0  0999 V2000
  137.6020   80.6070  224.0670 C   0  0  0  0  0  0  0  0  0  0  0  0
  137.1090   79.5710  223.0490 C   0  0  0  0  0  0  0  0  0  0  0  0
  138.2530   79.2830  222.1400 C   0  0  0  0  0  0  0  0  0  0  0  0
  138.1080   79.6780  220.9330 O   0  0  0  0  0  0  0  0  0  0  0  0
  139.4380   78.6190  222.5760 N   0  0  0  0  0  0  0  0  0  0  0  0
  140.5450   79.4480  222.9780 C   0  0  0  0  0  0  0  0  0  0  0  0
  140.5440   80.7500  222.4500 C   0  0  0  0  0  0  0  0  0  0  0  0
  141.5570   81.6390  222.7620 C   0  0  0  0  0  0  0  0  0  0  0  0
  142.5660   81.2190  223.6020 C   0  0  0  0  0  0  0  0  0  0  0  0
  142.5430   79.9350  224.1080 C   0  0  0  0  0  0  0  0  0  0  0  0
  141.5420   79.0230  223.8140 C   0  0  0  0  0  0  0  0  0  0  0  0
  139.5520   77.1990  222.5960 C   0  0  0  0  0  0  0  0  0  0  0  0
  140.6800   76.7850  221.6530 C   0  0  0  0  0  0  0  0  0  0  0  0
  140.8680   75.3110  221.6120 C   0  0  0  0  0  0  0  0  0  0  0  0
  139.5180   74.6260  221.6130 N   0  0  0  0  0  0  0  0  0  0  0  0
  139.5780   73.3080  222.0440 C   0  0  0  0  0  0  0  0  0  0  0  0
  140.8240   72.9620  222.3400 O   0  0  0  0  0  0  0  0  0  0  0  0
  138.6410   72.2690  222.2360 C   0  0  0  0  0  0  0  0  0  0  0  0
  138.8110   70.9870  222.4550 C   0  0  0  0  0  0  0  0  0  0  0  0
  139.2500   70.4090  223.7200 C   0  0  0  0  0  0  0  0  0  0  0  0
  139.1140   69.0330  223.9530 C   0  0  0  0  0  0  0  0  0  0  0  0
  139.5150   68.4540  225.1350 C   0  0  0  0  0  0  0  0  0  0  0  0
  140.0790   69.2020  226.1650 C   0  0  0  0  0  0  0  0  0  0  0  0
  140.4660   68.5860  227.3310 C   0  0  0  0  0  0  0  0  0  0  0  0
  141.0220   69.3710  228.3360 C   0  0  0  0  0  0  0  0  0  0  0  0
  141.1680   70.7380  228.1330 C   0  0  0  0  0  0  0  0  0  0  0  0
  140.7700   71.3200  226.9490 C   0  0  0  0  0  0  0  0  0  0  0  0
  140.2150   70.5500  225.9420 C   0  0  0  0  0  0  0  0  0  0  0  0
  139.8080   71.1300  224.7480 C   0  0  0  0  0  0  0  0  0  0  0  0
  138.4650   75.4730  221.1720 C   0  0  0  0  0  0  0  0  0  0  0  0
  138.2560   76.5460  222.2360 C   0  0  0  0  0  0  0  0  0  0  0  0
  137.4241   80.2331  225.0861 H   0  0  0  0  0  0  0  0  0  0  0  0
  138.6787   80.7795  223.9225 H   0  0  0  0  0  0  0  0  0  0  0  0
  137.0567   81.5514  223.9225 H   0  0  0  0  0  0  0  0  0  0  0  0
  136.7951   78.6520  223.5656 H   0  0  0  0  0  0  0  0  0  0  0  0
  136.2437   79.9512  222.4863 H   0  0  0  0  0  0  0  0  0  0  0  0
  139.7294   81.0657  221.7817 H   0  0  0  0  0  0  0  0  0  0  0  0
  141.5573   82.6585  222.3489 H   0  0  0  0  0  0  0  0  0  0  0  0
  143.3851   81.9034  223.8677 H   0  0  0  0  0  0  0  0  0  0  0  0
  143.3581   79.6207  224.7765 H   0  0  0  0  0  0  0  0  0  0  0  0
  141.5483   78.0058  224.2326 H   0  0  0  0  0  0  0  0  0  0  0  0
  139.7952   76.8617  223.6143 H   0  0  0  0  0  0  0  0  0  0  0  0
  140.4419   77.1397  220.6393 H   0  0  0  0  0  0  0  0  0  0  0  0
  141.6126   77.2332  222.0264 H   0  0  0  0  0  0  0  0  0  0  0  0
  141.4166   75.0373  220.6987 H   0  0  0  0  0  0  0  0  0  0  0  0
  141.4402   74.9913  222.4954 H   0  0  0  0  0  0  0  0  0  0  0  0
  137.5895   72.5894  222.1949 H   0  0  0  0  0  0  0  0  0  0  0  0
  138.6074   70.2968  221.6231 H   0  0  0  0  0  0  0  0  0  0  0  0
  138.6745   68.3988  223.1690 H   0  0  0  0  0  0  0  0  0  0  0  0
  139.3864   67.3699  225.2700 H   0  0  0  0  0  0  0  0  0  0  0  0
  140.3396   67.5017  227.4659 H   0  0  0  0  0  0  0  0  0  0  0  0
  141.3434   68.9135  229.2833 H   0  0  0  0  0  0  0  0  0  0  0  0
  141.6059   71.3621  228.9259 H   0  0  0  0  0  0  0  0  0  0  0  0
  140.8942   72.4032  226.8035 H   0  0  0  0  0  0  0  0  0  0  0  0
  139.9380   72.2147  224.6193 H   0  0  0  0  0  0  0  0  0  0  0  0
  138.7375   75.9423  220.2152 H   0  0  0  0  0  0  0  0  0  0  0  0
  137.5418   74.8939  221.0225 H   0  0  0  0  0  0  0  0  0  0  0  0
  137.5641   77.3081  221.8481 H   0  0  0  0  0  0  0  0  0  0  0  0
  137.8389   76.0718  223.1366 H   0  0  0  0  0  0  0  0  0  0  0  0
  1  2  1  0
  2  3  1  0
  3  4  2  0
  3  5  1  0
  5  6  1  0
  6  7  2  0
  7  8  1  0
  8  9  2  0
  9 10  1  0
 10 11  2  0
  5 12  1  0
 12 13  1  0
 13 14  1  0
 14 15  1  0
 15 16  1  0
 16 17  2  0
 16 18  1  0
 18 19  2  0
 19 20  1  0
 20 21  2  0
 21 22  1  0
 22 23  2  0
 23 24  1  0
 24 25  2  0
 25 26  1  0
 26 27  2  0
 27 28  1  0
 28 29  2  0
 15 30  1  0
 30 31  1  0
 11  6  1  0
 31 12  1  0
 29 20  1  0
 28 23  1  0
  1 32  1  0
  1 33  1  0
  1 34  1  0
  2 35  1  0
  2 36  1  0
  7 37  1  0
  8 38  1  0
  9 39  1  0
 10 40  1  0
 11 41  1  0
 12 42  1  0
 13 43  1  0
 13 44  1  0
 14 45  1  0
 14 46  1  0
 18 47  1  0
 19 48  1  0
 21 49  1  0
 22 50  1  0
 24 51  1  0
 25 52  1  0
 26 53  1  0
 27 54  1  0
 29 55  1  0
 30 56  1  0
 30 57  1  0
 31 58  1  0
 31 59  1  0
M  END
>  <smiles>  (4) 
CCC(=O)N(c1ccccc1)C1CCN(C(=O)/C=C/c2ccc3ccccc3c2)CC1

>  <score_type>  (4) 
oracle

>  <origin>  (4) 
autodockgpu

>  <m_score__min__energy>  (4) 
-9.4600000000000009

>  <m_primary>  (4) 
energy

>  <rmsd>  (4) 
6.121018984959053

>  <m_score__min__rmsd>  (4) 
6.121018984959053

>  <meeko>  (4) 
{"free_energy": -9.41, "intermolecular_energy": -11.49, "internal_energy": -1.41, "cluster_size": 43, "cluster_id": 1, "rank_in_cluster": 4}

>  <energy>  (4) 
-9.41

>  <cluster_rmsd>  (4) 
0.38

>  <cluster>  (4) 
1

$$$$

     RDKit          3D

 59 62  0  0  0  0  0  0  0  0999 V2000
  137.6680   80.8590  224.2080 C   0  0  0  0  0  0  0  0  0  0  0  0
  137.1370   79.6430  223.4400 C   0  0  0  0  0  0  0  0  0  0  0  0
  138.1590   79.3040  222.4110 C   0  0  0  0  0  0  0  0  0  0  0  0
  137.8680   79.6450  221.2140 O   0  0  0  0  0  0  0  0  0  0  0  0
  139.3870   78.6490  222.7280 N   0  0  0  0  0  0  0  0  0  0  0  0
  140.5150   79.4860  223.0420 C   0  0  0  0  0  0  0  0  0  0  0  0
  140.5000   80.7620  222.4530 C   0  0  0  0  0  0  0  0  0  0  0  0
  141.5320   81.6560  222.6790 C   0  0  0  0  0  0  0  0  0  0  0  0
  142.5740   81.2670  223.4940 C   0  0  0  0  0  0  0  0  0  0  0  0
  142.5630   80.0080  224.0610 C   0  0  0  0  0  0  0  0  0  0  0  0
  141.5440   79.0930  223.8540 C   0  0  0  0  0  0  0  0  0  0  0  0
  139.5180   77.2300  222.7150 C   0  0  0  0  0  0  0  0  0  0  0  0
  140.5820   76.8470  221.6900 C   0  0  0  0  0  0  0  0  0  0  0  0
  140.7850   75.3760  221.6100 C   0  0  0  0  0  0  0  0  0  0  0  0
  139.4460   74.6740  221.6920 N   0  0  0  0  0  0  0  0  0  0  0  0
  139.5510   73.3500  222.0940 C   0  0  0  0  0  0  0  0  0  0  0  0
  140.8190   73.0150  222.2970 O   0  0  0  0  0  0  0  0  0  0  0  0
  138.6420   72.2950  222.3330 C   0  0  0  0  0  0  0  0  0  0  0  0
  138.8420   71.0110  222.5100 C   0  0  0  0  0  0  0  0  0  0  0  0
  139.1980   70.3910  223.7800 C   0  0  0  0  0  0  0  0  0  0  0  0
  138.9360   69.0320  224.0020 C   0  0  0  0  0  0  0  0  0  0  0  0
  139.2570   68.4130  225.1880 C   0  0  0  0  0  0  0  0  0  0  0  0
  139.8620   69.1040  226.2360 C   0  0  0  0  0  0  0  0  0  0  0  0
  140.1650   68.4510  227.4060 C   0  0  0  0  0  0  0  0  0  0  0  0
  140.7660   69.1790  228.4290 C   0  0  0  0  0  0  0  0  0  0  0  0
  141.0370   70.5290  228.2370 C   0  0  0  0  0  0  0  0  0  0  0  0
  140.7190   71.1480  227.0490 C   0  0  0  0  0  0  0  0  0  0  0  0
  140.1210   70.4360  226.0250 C   0  0  0  0  0  0  0  0  0  0  0  0
  139.7950   71.0550  224.8260 C   0  0  0  0  0  0  0  0  0  0  0  0
  138.3550   75.5140  221.3400 C   0  0  0  0  0  0  0  0  0  0  0  0
  138.2080   76.5670  222.4340 C   0  0  0  0  0  0  0  0  0  0  0  0
  137.5871   80.6737  225.2893 H   0  0  0  0  0  0  0  0  0  0  0  0
  138.7220   81.0285  223.9429 H   0  0  0  0  0  0  0  0  0  0  0  0
  137.0759   81.7473  223.9429 H   0  0  0  0  0  0  0  0  0  0  0  0
  136.9942   78.7948  224.1257 H   0  0  0  0  0  0  0  0  0  0  0  0
  136.1656   79.8641  222.9736 H   0  0  0  0  0  0  0  0  0  0  0  0
  139.6595   81.0531  221.8058 H   0  0  0  0  0  0  0  0  0  0  0  0
  141.5212   82.6549  222.2186 H   0  0  0  0  0  0  0  0  0  0  0  0
  143.4090   81.9554  223.6913 H   0  0  0  0  0  0  0  0  0  0  0  0
  143.4038   79.7178  224.7081 H   0  0  0  0  0  0  0  0  0  0  0  0
  141.5611   78.0970  224.3205 H   0  0  0  0  0  0  0  0  0  0  0  0
  139.8346   76.8782  223.7080 H   0  0  0  0  0  0  0  0  0  0  0  0
  140.2698   77.2153  220.7016 H   0  0  0  0  0  0  0  0  0  0  0  0
  141.5327   77.3012  222.0061 H   0  0  0  0  0  0  0  0  0  0  0  0
  141.2723   75.1249  220.6563 H   0  0  0  0  0  0  0  0  0  0  0  0
  141.4212   75.0487  222.4456 H   0  0  0  0  0  0  0  0  0  0  0  0
  137.5870   72.6031  222.3783 H   0  0  0  0  0  0  0  0  0  0  0  0
  138.7330   70.3533  221.6351 H   0  0  0  0  0  0  0  0  0  0  0  0
  138.4597   68.4430  223.2044 H   0  0  0  0  0  0  0  0  0  0  0  0
  139.0300   67.3439  225.3123 H   0  0  0  0  0  0  0  0  0  0  0  0
  139.9388   67.3818  227.5311 H   0  0  0  0  0  0  0  0  0  0  0  0
  141.0241   68.6907  229.3803 H   0  0  0  0  0  0  0  0  0  0  0  0
  141.5106   71.1088  229.0429 H   0  0  0  0  0  0  0  0  0  0  0  0
  140.9421   72.2165  226.9132 H   0  0  0  0  0  0  0  0  0  0  0  0
  140.0244   72.1242  224.7072 H   0  0  0  0  0  0  0  0  0  0  0  0
  138.5544   76.0022  220.3746 H   0  0  0  0  0  0  0  0  0  0  0  0
  137.4306   74.9253  221.2455 H   0  0  0  0  0  0  0  0  0  0  0  0
  137.4824   77.3267  222.1077 H   0  0  0  0  0  0  0  0  0  0  0  0
  137.8596   76.0730  223.3530 H   0  0  0  0  0  0  0  0  0  0  0  0
  1  2  1  0
  2  3  1  0
  3  4  2  0
  3  5  1  0
  5  6  1  0
  6  7  2  0
  7  8  1  0
  8  9  2  0
  9 10  1  0
 10 11  2  0
  5 12  1  0
 12 13  1  0
 13 14  1  0
 14 15  1  0
 15 16  1  0
 16 17  2  0
 16 18  1  0
 18 19  2  0
 19 20  1  0
 20 21  2  0
 21 22  1  0
 22 23  2  0
 23 24  1  0
 24 25  2  0
 25 26  1  0
 26 27  2  0
 27 28  1  0
 28 29  2  0
 15 30  1  0
 30 31  1  0
 11  6  1  0
 31 12  1  0
 29 20  1  0
 28 23  1  0
  1 32  1  0
  1 33  1  0
  1 34  1  0
  2 35  1  0
  2 36  1  0
  7 37  1  0
  8 38  1  0
  9 39  1  0
 10 40  1  0
 11 41  1  0
 12 42  1  0
 13 43  1  0
 13 44  1  0
 14 45  1  0
 14 46  1  0
 18 47  1  0
 19 48  1  0
 21 49  1  0
 22 50  1  0
 24 51  1  0
 25 52  1  0
 26 53  1  0
 27 54  1  0
 29 55  1  0
 30 56  1  0
 30 57  1  0
 31 58  1  0
 31 59  1  0
M  END
>  <smiles>  (5) 
CCC(=O)N(c1ccccc1)C1CCN(C(=O)/C=C/c2ccc3ccccc3c2)CC1

>  <score_type>  (5) 
oracle

>  <origin>  (5) 
autodockgpu

>  <m_score__min__energy>  (5) 
-9.4600000000000009

>  <m_primary>  (5) 
energy

>  <rmsd>  (5) 
6.1004919912933975

>  <m_score__min__rmsd>  (5) 
6.1004919912933975

>  <meeko>  (5) 
{"free_energy": -9.46, "intermolecular_energy": -11.55, "internal_energy": -1.41, "cluster_size": 43, "cluster_id": 1, "rank_in_cluster": 2}

>  <energy>  (5) 
-9.37

>  <cluster_rmsd>  (5) 
0.51

>  <cluster>  (5) 
1

$$$$

     RDKit          3D

 59 62  0  0  0  0  0  0  0  0999 V2000
  142.5580   81.1450  223.9790 C   0  0  0  0  0  0  0  0  0  0  0  0
  143.0010   80.1440  222.9040 C   0  0  0  0  0  0  0  0  0  0  0  0
  141.8230   79.9110  222.0220 C   0  0  0  0  0  0  0  0  0  0  0  0
  141.9130   80.4060  220.8460 O   0  0  0  0  0  0  0  0  0  0  0  0
  140.6720   79.1840  222.4460 N   0  0  0  0  0  0  0  0  0  0  0  0
  139.5490   79.9500  222.9210 C   0  0  0  0  0  0  0  0  0  0  0  0
  138.8700   80.6920  221.9400 C   0  0  0  0  0  0  0  0  0  0  0  0
  137.7760   81.4700  222.2750 C   0  0  0  0  0  0  0  0  0  0  0  0
  137.3670   81.5000  223.5920 C   0  0  0  0  0  0  0  0  0  0  0  0
  138.0520   80.7600  224.5350 C   0  0  0  0  0  0  0  0  0  0  0  0
  139.1490   79.9720  224.2300 C   0  0  0  0  0  0  0  0  0  0  0  0
  140.6240   77.7590  222.4330 C   0  0  0  0  0  0  0  0  0  0  0  0
  141.4100   77.2550  221.2250 C   0  0  0  0  0  0  0  0  0  0  0  0
  141.4110   75.7710  221.1320 C   0  0  0  0  0  0  0  0  0  0  0  0
  140.0390   75.2390  221.4890 N   0  0  0  0  0  0  0  0  0  0  0  0
  140.0590   73.9090  221.8860 C   0  0  0  0  0  0  0  0  0  0  0  0
  141.2910   73.4190  221.8420 O   0  0  0  0  0  0  0  0  0  0  0  0
  139.0920   72.9730  222.3180 C   0  0  0  0  0  0  0  0  0  0  0  0
  139.1970   71.6970  222.5990 C   0  0  0  0  0  0  0  0  0  0  0  0
  139.6510   71.1600  223.8770 C   0  0  0  0  0  0  0  0  0  0  0  0
  140.5480   71.8890  224.6720 C   0  0  0  0  0  0  0  0  0  0  0  0
  140.9980   71.4130  225.8820 C   0  0  0  0  0  0  0  0  0  0  0  0
  140.5880   70.1810  226.3840 C   0  0  0  0  0  0  0  0  0  0  0  0
  141.0620   69.7400  227.5970 C   0  0  0  0  0  0  0  0  0  0  0  0
  140.6300   68.5020  228.0610 C   0  0  0  0  0  0  0  0  0  0  0  0
  139.7420   67.7570  227.2940 C   0  0  0  0  0  0  0  0  0  0  0  0
  139.2870   68.2330  226.0840 C   0  0  0  0  0  0  0  0  0  0  0  0
  139.7100   69.4630  225.6110 C   0  0  0  0  0  0  0  0  0  0  0  0
  139.2590   69.9470  224.3910 C   0  0  0  0  0  0  0  0  0  0  0  0
  139.0110   76.2090  221.3440 C   0  0  0  0  0  0  0  0  0  0  0  0
  139.2130   77.2650  222.4270 C   0  0  0  0  0  0  0  0  0  0  0  0
  142.7462   80.7197  224.9759 H   0  0  0  0  0  0  0  0  0  0  0  0
  143.1264   82.0800  223.8659 H   0  0  0  0  0  0  0  0  0  0  0  0
  141.4838   81.3530  223.8659 H   0  0  0  0  0  0  0  0  0  0  0  0
  143.8352   80.5599  222.3199 H   0  0  0  0  0  0  0  0  0  0  0  0
  143.3464   79.2036  223.3583 H   0  0  0  0  0  0  0  0  0  0  0  0
  139.2116   80.6540  220.8951 H   0  0  0  0  0  0  0  0  0  0  0  0
  137.2441   82.0519  221.5079 H   0  0  0  0  0  0  0  0  0  0  0  0
  136.5008   82.1095  223.8890 H   0  0  0  0  0  0  0  0  0  0  0  0
  137.7096   80.7983  225.5797 H   0  0  0  0  0  0  0  0  0  0  0  0
  139.6740   79.3913  225.0028 H   0  0  0  0  0  0  0  0  0  0  0  0
  141.0852   77.3637  223.3501 H   0  0  0  0  0  0  0  0  0  0  0  0
  140.9566   77.6665  220.3111 H   0  0  0  0  0  0  0  0  0  0  0  0
  142.4528   77.5858  221.3400 H   0  0  0  0  0  0  0  0  0  0  0  0
  141.6652   75.4687  220.1054 H   0  0  0  0  0  0  0  0  0  0  0  0
  142.1550   75.3616  221.8312 H   0  0  0  0  0  0  0  0  0  0  0  0
  138.0794   73.3854  222.4389 H   0  0  0  0  0  0  0  0  0  0  0  0
  138.9225   70.9780  221.8130 H   0  0  0  0  0  0  0  0  0  0  0  0
  140.9015   72.8687  224.3181 H   0  0  0  0  0  0  0  0  0  0  0  0
  141.7009   72.0226  226.4687 H   0  0  0  0  0  0  0  0  0  0  0  0
  141.7640   70.3499  228.1846 H   0  0  0  0  0  0  0  0  0  0  0  0
  140.9881   68.1158  229.0267 H   0  0  0  0  0  0  0  0  0  0  0  0
  139.3989   66.7769  227.6570 H   0  0  0  0  0  0  0  0  0  0  0  0
  138.5830   67.6317  225.4900 H   0  0  0  0  0  0  0  0  0  0  0  0
  138.5563   69.3323  223.8093 H   0  0  0  0  0  0  0  0  0  0  0  0
  139.0736   76.6754  220.3497 H   0  0  0  0  0  0  0  0  0  0  0  0
  138.0214   75.7393  221.4439 H   0  0  0  0  0  0  0  0  0  0  0  0
  138.5360   78.1107  222.2363 H   0  0  0  0  0  0  0  0  0  0  0  0
  138.9949   76.8117  223.4053 H   0  0  0  0  0  0  0  0  0  0  0  0
  1  2  1  0
  2  3  1  0
  3  4  2  0
  3  5  1  0
  5  6  1  0
  6  7  2  0
  7  8  1  0
  8  9  2  0
  9 10  1  0
 10 11  2  0
  5 12  1  0
 12 13  1  0
 13 14  1  0
 14 15  1  0
 15 16  1  0
 16 17  2  0
 16 18  1  0
 18 19  2  0
 19 20  1  0
 20 21  2  0
 21 22  1  0
 22 23  2  0
 23 24  1  0
 24 25  2  0
 25 26  1  0
 26 27  2  0
 27 28  1  0
 28 29  2  0
 15 30  1  0
 30 31  1  0
 11  6  1  0
 31 12  1  0
 29 20  1  0
 28 23  1  0
  1 32  1  0
  1 33  1  0
  1 34  1  0
  2 35  1  0
  2 36  1  0
  7 37  1  0
  8 38  1  0
  9 39  1  0
 10 40  1  0
 11 41  1  0
 12 42  1  0
 13 43  1  0
 13 44  1  0
 14 45  1  0
 14 46  1  0
 18 47  1  0
 19 48  1  0
 21 49  1  0
 22 50  1  0
 24 51  1  0
 25 52  1  0
 26 53  1  0
 27 54  1  0
 29 55  1  0
 30 56  1  0
 30 57  1  0
 31 58  1  0
 31 59  1  0
M  END
>  <smiles>  (6) 
CCC(=O)N(c1ccccc1)C1CCN(C(=O)/C=C/c2ccc3ccccc3c2)CC1

>  <score_type>  (6) 
oracle

>  <origin>  (6) 
autodockgpu

>  <m_score__min__energy>  (6) 
-9.4600000000000009

>  <m_primary>  (6) 
energy

>  <rmsd>  (6) 
5.931233413606029

>  <m_score__min__rmsd>  (6) 
5.931233413606029

>  <meeko>  (6) 
{"free_energy": -9.12, "intermolecular_energy": -11.21, "internal_energy": -1.42, "cluster_size": 43, "cluster_id": 1, "rank_in_cluster": 19}

>  <energy>  (6) 
-9.35

>  <cluster_rmsd>  (6) 
0.56

>  <cluster>  (6) 
1

$$$$

     RDKit          3D

 59 62  0  0  0  0  0  0  0  0999 V2000
  137.6060   80.4740  223.8570 C   0  0  0  0  0  0  0  0  0  0  0  0
  137.2520   79.1830  223.1080 C   0  0  0  0  0  0  0  0  0  0  0  0
  138.3180   78.9720  222.0890 C   0  0  0  0  0  0  0  0  0  0  0  0
  137.9890   79.2480  220.8850 O   0  0  0  0  0  0  0  0  0  0  0  0
  139.6230   78.5000  222.4220 N   0  0  0  0  0  0  0  0  0  0  0  0
  140.5960   79.4850  222.8170 C   0  0  0  0  0  0  0  0  0  0  0  0
  141.5540   79.0450  223.7460 C   0  0  0  0  0  0  0  0  0  0  0  0
  142.5400   79.9010  224.2030 C   0  0  0  0  0  0  0  0  0  0  0  0
  142.5620   81.1950  223.7260 C   0  0  0  0  0  0  0  0  0  0  0  0
  141.6100   81.6010  222.8120 C   0  0  0  0  0  0  0  0  0  0  0  0
  140.6120   80.7670  222.3360 C   0  0  0  0  0  0  0  0  0  0  0  0
  139.9750   77.1220  222.3500 C   0  0  0  0  0  0  0  0  0  0  0  0
  140.8670   76.9080  221.1290 C   0  0  0  0  0  0  0  0  0  0  0  0
  141.2830   75.4890  220.9750 C   0  0  0  0  0  0  0  0  0  0  0  0
  140.1170   74.5790  221.2990 N   0  0  0  0  0  0  0  0  0  0  0  0
  140.5100   73.2930  221.6410 C   0  0  0  0  0  0  0  0  0  0  0  0
  141.8300   73.1710  221.5860 O   0  0  0  0  0  0  0  0  0  0  0  0
  139.8460   72.1070  222.0260 C   0  0  0  0  0  0  0  0  0  0  0  0
  139.0670   71.8510  223.0490 C   0  0  0  0  0  0  0  0  0  0  0  0
  139.3400   70.8510  224.0740 C   0  0  0  0  0  0  0  0  0  0  0  0
  138.9610   69.5150  223.8780 C   0  0  0  0  0  0  0  0  0  0  0  0
  139.2010   68.5450  224.8240 C   0  0  0  0  0  0  0  0  0  0  0  0
  139.8350   68.8360  226.0290 C   0  0  0  0  0  0  0  0  0  0  0  0
  140.0560   67.8390  226.9480 C   0  0  0  0  0  0  0  0  0  0  0  0
  140.6890   68.1730  228.1420 C   0  0  0  0  0  0  0  0  0  0  0  0
  141.0750   69.4900  228.3640 C   0  0  0  0  0  0  0  0  0  0  0  0
  140.8390   70.4620  227.4170 C   0  0  0  0  0  0  0  0  0  0  0  0
  140.2090   70.1420  226.2270 C   0  0  0  0  0  0  0  0  0  0  0  0
  139.9640   71.1170  225.2700 C   0  0  0  0  0  0  0  0  0  0  0  0
  138.8580   75.2290  221.1850 C   0  0  0  0  0  0  0  0  0  0  0  0
  138.7600   76.2520  222.3120 C   0  0  0  0  0  0  0  0  0  0  0  0
  137.5567   80.2942  224.9411 H   0  0  0  0  0  0  0  0  0  0  0  0
  138.6238   80.7893  223.5835 H   0  0  0  0  0  0  0  0  0  0  0  0
  136.8914   81.2643  223.5835 H   0  0  0  0  0  0  0  0  0  0  0  0
  137.2234   78.3347  223.8077 H   0  0  0  0  0  0  0  0  0  0  0  0
  136.2621   79.2596  222.6344 H   0  0  0  0  0  0  0  0  0  0  0  0
  141.5196   78.0089  224.1138 H   0  0  0  0  0  0  0  0  0  0  0  0
  143.2899   79.5573  224.9307 H   0  0  0  0  0  0  0  0  0  0  0  0
  143.3332   81.8992  224.0716 H   0  0  0  0  0  0  0  0  0  0  0  0
  141.6460   82.6370  222.4441 H   0  0  0  0  0  0  0  0  0  0  0  0
  139.8675   81.1178  221.6062 H   0  0  0  0  0  0  0  0  0  0  0  0
  140.5310   76.8351  223.2548 H   0  0  0  0  0  0  0  0  0  0  0  0
  140.3137   77.2139  220.2289 H   0  0  0  0  0  0  0  0  0  0  0  0
  141.7761   77.5118  221.2668 H   0  0  0  0  0  0  0  0  0  0  0  0
  141.6075   75.3132  219.9388 H   0  0  0  0  0  0  0  0  0  0  0  0
  142.1145   75.2757  221.6629 H   0  0  0  0  0  0  0  0  0  0  0  0
  140.0106   71.2528  221.3528 H   0  0  0  0  0  0  0  0  0  0  0  0
  138.1387   72.4339  223.1407 H   0  0  0  0  0  0  0  0  0  0  0  0
  138.4574   69.2345  222.9411 H   0  0  0  0  0  0  0  0  0  0  0  0
  138.8833   67.5113  224.6227 H   0  0  0  0  0  0  0  0  0  0  0  0
  139.7412   66.8046  226.7458 H   0  0  0  0  0  0  0  0  0  0  0  0
  140.8819   67.4022  228.9026 H   0  0  0  0  0  0  0  0  0  0  0  0
  141.5745   69.7588  229.3065 H   0  0  0  0  0  0  0  0  0  0  0  0
  141.1532   71.4988  227.6077 H   0  0  0  0  0  0  0  0  0  0  0  0
  140.2834   72.1489  225.4777 H   0  0  0  0  0  0  0  0  0  0  0  0
  138.7850   75.7360  220.2115 H   0  0  0  0  0  0  0  0  0  0  0  0
  138.0393   74.4978  221.2564 H   0  0  0  0  0  0  0  0  0  0  0  0
  137.8718   76.8807  222.1514 H   0  0  0  0  0  0  0  0  0  0  0  0
  138.6826   75.7146  223.2686 H   0  0  0  0  0  0  0  0  0  0  0  0
  1  2  1  0
  2  3  1  0
  3  4  2  0
  3  5  1  0
  5  6  1  0
  6  7  2  0
  7  8  1  0
  8  9  2  0
  9 10  1  0
 10 11  2  0
  5 12  1  0
 12 13  1  0
 13 14  1  0
 14 15  1  0
 15 16  1  0
 16 17  2  0
 16 18  1  0
 18 19  2  0
 19 20  1  0
 20 21  2  0
 21 22  1  0
 22 23  2  0
 23 24  1  0
 24 25  2  0
 25 26  1  0
 26 27  2  0
 27 28  1  0
 28 29  2  0
 15 30  1  0
 30 31  1  0
 11  6  1  0
 31 12  1  0
 29 20  1  0
 28 23  1  0
  1 32  1  0
  1 33  1  0
  1 34  1  0
  2 35  1  0
  2 36  1  0
  7 37  1  0
  8 38  1  0
  9 39  1  0
 10 40  1  0
 11 41  1  0
 12 42  1  0
 13 43  1  0
 13 44  1  0
 14 45  1  0
 14 46  1  0
 18 47  1  0
 19 48  1  0
 21 49  1  0
 22 50  1  0
 24 51  1  0
 25 52  1  0
 26 53  1  0
 27 54  1  0
 29 55  1  0
 30 56  1  0
 30 57  1  0
 31 58  1  0
 31 59  1  0
M  END
>  <smiles>  (7) 
CCC(=O)N(c1ccccc1)C1CCN(C(=O)/C=C/c2ccc3ccccc3c2)CC1

>  <score_type>  (7) 
oracle

>  <origin>  (7) 
autodockgpu

>  <m_score__min__energy>  (7) 
-9.4600000000000009

>  <m_primary>  (7) 
energy

>  <rmsd>  (7) 
6.126307590408899

>  <m_score__min__rmsd>  (7) 
6.126307590408899

>  <meeko>  (7) 
{"free_energy": -9.12, "intermolecular_energy": -11.2, "internal_energy": -1.4, "cluster_size": 43, "cluster_id": 1, "rank_in_cluster": 20}

>  <energy>  (7) 
-9.28

>  <cluster_rmsd>  (7) 
0.64

>  <cluster>  (7) 
1

$$$$

     RDKit          3D

 59 62  0  0  0  0  0  0  0  0999 V2000
  142.5580   80.7210  218.2100 C   0  0  0  0  0  0  0  0  0  0  0  0
  142.2000   79.2490  218.4520 C   0  0  0  0  0  0  0  0  0  0  0  0
  140.9350   79.2390  219.2390 C   0  0  0  0  0  0  0  0  0  0  0  0
  139.9310   79.7910  218.6720 O   0  0  0  0  0  0  0  0  0  0  0  0
  140.8370   78.6520  220.5350 N   0  0  0  0  0  0  0  0  0  0  0  0
  141.2870   79.4430  221.6510 C   0  0  0  0  0  0  0  0  0  0  0  0
  140.4350   80.4960  222.0240 C   0  0  0  0  0  0  0  0  0  0  0  0
  140.7610   81.3280  223.0800 C   0  0  0  0  0  0  0  0  0  0  0  0
  141.9400   81.1000  223.7580 C   0  0  0  0  0  0  0  0  0  0  0  0
  142.7590   80.0580  223.3710 C   0  0  0  0  0  0  0  0  0  0  0  0
  142.4580   79.2090  222.3190 C   0  0  0  0  0  0  0  0  0  0  0  0
  140.3410   77.3310  220.7370 C   0  0  0  0  0  0  0  0  0  0  0  0
  139.7910   77.2270  222.1570 C   0  0  0  0  0  0  0  0  0  0  0  0
  139.2510   75.8730  222.4550 C   0  0  0  0  0  0  0  0  0  0  0  0
  140.1590   74.8210  221.8560 N   0  0  0  0  0  0  0  0  0  0  0  0
  139.5250   73.6000  221.6670 C   0  0  0  0  0  0  0  0  0  0  0  0
  138.2640   73.6530  222.0760 O   0  0  0  0  0  0  0  0  0  0  0  0
  139.9020   72.3410  221.1510 C   0  0  0  0  0  0  0  0  0  0  0  0
  139.8360   71.1420  221.6780 C   0  0  0  0  0  0  0  0  0  0  0  0
  139.8020   70.8610  223.1090 C   0  0  0  0  0  0  0  0  0  0  0  0
  138.9860   69.8350  223.6090 C   0  0  0  0  0  0  0  0  0  0  0  0
  138.9280   69.5440  224.9520 C   0  0  0  0  0  0  0  0  0  0  0  0
  139.6760   70.2510  225.8900 C   0  0  0  0  0  0  0  0  0  0  0  0
  139.5890   69.9300  227.2230 C   0  0  0  0  0  0  0  0  0  0  0  0
  140.3510   70.6630  228.1280 C   0  0  0  0  0  0  0  0  0  0  0  0
  141.1680   71.6870  227.6600 C   0  0  0  0  0  0  0  0  0  0  0  0
  141.2300   71.9780  226.3150 C   0  0  0  0  0  0  0  0  0  0  0  0
  140.4760   71.2560  225.4060 C   0  0  0  0  0  0  0  0  0  0  0  0
  140.5310   71.5470  224.0500 C   0  0  0  0  0  0  0  0  0  0  0  0
  141.4750   75.2970  221.6110 C   0  0  0  0  0  0  0  0  0  0  0  0
  141.3990   76.3080  220.4710 C   0  0  0  0  0  0  0  0  0  0  0  0
  142.6822   81.2318  219.1763 H   0  0  0  0  0  0  0  0  0  0  0  0
  143.4969   80.7811  217.6401 H   0  0  0  0  0  0  0  0  0  0  0  0
  141.7515   81.2056  217.6401 H   0  0  0  0  0  0  0  0  0  0  0  0
  142.0533   78.7320  217.4922 H   0  0  0  0  0  0  0  0  0  0  0  0
  143.0056   78.7298  218.9919 H   0  0  0  0  0  0  0  0  0  0  0  0
  139.4988   80.6606  221.4705 H   0  0  0  0  0  0  0  0  0  0  0  0
  140.0947   82.1530  223.3723 H   0  0  0  0  0  0  0  0  0  0  0  0
  142.2263   81.7445  224.6022 H   0  0  0  0  0  0  0  0  0  0  0  0
  143.6953   79.8943  223.9247 H   0  0  0  0  0  0  0  0  0  0  0  0
  143.1288   78.3852  222.0338 H   0  0  0  0  0  0  0  0  0  0  0  0
  139.5290   77.1271  220.0235 H   0  0  0  0  0  0  0  0  0  0  0  0
  140.6010   77.4491  222.8673 H   0  0  0  0  0  0  0  0  0  0  0  0
  138.9651   77.9473  222.2519 H   0  0  0  0  0  0  0  0  0  0  0  0
  139.1967   75.7322  223.5446 H   0  0  0  0  0  0  0  0  0  0  0  0
  138.2449   75.7773  222.0206 H   0  0  0  0  0  0  0  0  0  0  0  0
  140.3222   72.3709  220.1349 H   0  0  0  0  0  0  0  0  0  0  0  0
  139.8039   70.2844  220.9898 H   0  0  0  0  0  0  0  0  0  0  0  0
  138.3758   69.2471  222.9075 H   0  0  0  0  0  0  0  0  0  0  0  0
  138.2724   68.7300  225.2948 H   0  0  0  0  0  0  0  0  0  0  0  0
  138.9344   69.1152  227.5659 H   0  0  0  0  0  0  0  0  0  0  0  0
  140.3076   70.4348  229.2032 H   0  0  0  0  0  0  0  0  0  0  0  0
  141.7709   72.2705  228.3714 H   0  0  0  0  0  0  0  0  0  0  0  0
  141.8829   72.7894  225.9610 H   0  0  0  0  0  0  0  0  0  0  0  0
  141.1874   72.3631  223.7138 H   0  0  0  0  0  0  0  0  0  0  0  0
  141.8724   75.7813  222.5151 H   0  0  0  0  0  0  0  0  0  0  0  0
  142.1418   74.4642  221.3429 H   0  0  0  0  0  0  0  0  0  0  0  0
  142.3714   76.8126  220.3712 H   0  0  0  0  0  0  0  0  0  0  0  0
  141.1472   75.7740  219.5428 H   0  0  0  0  0  0  0  0  0  0  0  0
  1  2  1  0
  2  3  1  0
  3  4  2  0
  3  5  1  0
  5  6  1  0
  6  7  2  0
  7  8  1  0
  8  9  2  0
  9 10  1  0
 10 11  2  0
  5 12  1  0
 12 13  1  0
 13 14  1  0
 14 15  1  0
 15 16  1  0
 16 17  2  0
 16 18  1  0
 18 19  2  0
 19 20  1  0
 20 21  2  0
 21 22  1  0
 22 23  2  0
 23 24  1  0
 24 25  2  0
 25 26  1  0
 26 27  2  0
 27 28  1  0
 28 29  2  0
 15 30  1  0
 30 31  1  0
 11  6  1  0
 31 12  1  0
 29 20  1  0
 28 23  1  0
  1 32  1  0
  1 33  1  0
  1 34  1  0
  2 35  1  0
  2 36  1  0
  7 37  1  0
  8 38  1  0
  9 39  1  0
 10 40  1  0
 11 41  1  0
 12 42  1  0
 13 43  1  0
 13 44  1  0
 14 45  1  0
 14 46  1  0
 18 47  1  0
 19 48  1  0
 21 49  1  0
 22 50  1  0
 24 51  1  0
 25 52  1  0
 26 53  1  0
 27 54  1  0
 29 55  1  0
 30 56  1  0
 30 57  1  0
 31 58  1  0
 31 59  1  0
M  END
>  <smiles>  (8) 
CCC(=O)N(c1ccccc1)C1CCN(C(=O)/C=C/c2ccc3ccccc3c2)CC1

>  <score_type>  (8) 
oracle

>  <origin>  (8) 
autodockgpu

>  <m_score__min__energy>  (8) 
-9.4600000000000009

>  <m_primary>  (8) 
energy

>  <rmsd>  (8) 
5.955470759347706

>  <m_score__min__rmsd>  (8) 
5.955470759347706

>  <meeko>  (8) 
{"free_energy": -8.52, "intermolecular_energy": -10.61, "internal_energy": -1.6, "cluster_size": 43, "cluster_id": 1, "rank_in_cluster": 42}

>  <energy>  (8) 
-9.27

>  <cluster_rmsd>  (8) 
0.58

>  <cluster>  (8) 
1

$$$$

     RDKit          3D

 59 62  0  0  0  0  0  0  0  0999 V2000
  142.5500   78.9210  218.1610 C   0  0  0  0  0  0  0  0  0  0  0  0
  141.9520   79.8770  219.2000 C   0  0  0  0  0  0  0  0  0  0  0  0
  140.9340   79.1010  219.9620 C   0  0  0  0  0  0  0  0  0  0  0  0
  139.8100   78.9430  219.3730 O   0  0  0  0  0  0  0  0  0  0  0  0
  141.1850   78.5600  221.2580 N   0  0  0  0  0  0  0  0  0  0  0  0
  141.6470   79.4720  222.2720 C   0  0  0  0  0  0  0  0  0  0  0  0
  140.6620   80.3100  222.8200 C   0  0  0  0  0  0  0  0  0  0  0  0
  140.9840   81.2310  223.8010 C   0  0  0  0  0  0  0  0  0  0  0  0
  142.2930   81.3060  224.2290 C   0  0  0  0  0  0  0  0  0  0  0  0
  143.2410   80.4700  223.6740 C   0  0  0  0  0  0  0  0  0  0  0  0
  142.9480   79.5380  222.6910 C   0  0  0  0  0  0  0  0  0  0  0  0
  141.0170   77.1750  221.5500 C   0  0  0  0  0  0  0  0  0  0  0  0
  141.8250   76.3610  220.5430 C   0  0  0  0  0  0  0  0  0  0  0  0
  141.7060   74.8970  220.7760 C   0  0  0  0  0  0  0  0  0  0  0  0
  140.2760   74.5550  221.1370 N   0  0  0  0  0  0  0  0  0  0  0  0
  140.1600   73.3490  221.8140 C   0  0  0  0  0  0  0  0  0  0  0  0
  141.3470   72.7760  221.9680 O   0  0  0  0  0  0  0  0  0  0  0  0
  139.0950   72.6030  222.3650 C   0  0  0  0  0  0  0  0  0  0  0  0
  138.9710   71.3160  222.5870 C   0  0  0  0  0  0  0  0  0  0  0  0
  139.3370   70.6460  223.8300 C   0  0  0  0  0  0  0  0  0  0  0  0
  139.1390   69.2660  223.9750 C   0  0  0  0  0  0  0  0  0  0  0  0
  139.4710   68.6010  225.1330 C   0  0  0  0  0  0  0  0  0  0  0  0
  140.0230   69.2640  226.2260 C   0  0  0  0  0  0  0  0  0  0  0  0
  140.3400   68.5640  227.3660 C   0  0  0  0  0  0  0  0  0  0  0  0
  140.8860   69.2650  228.4370 C   0  0  0  0  0  0  0  0  0  0  0  0
  141.0930   70.6350  228.3220 C   0  0  0  0  0  0  0  0  0  0  0  0
  140.7650   71.3010  227.1630 C   0  0  0  0  0  0  0  0  0  0  0  0
  140.2200   70.6150  226.0910 C   0  0  0  0  0  0  0  0  0  0  0  0
  139.8830   71.2810  224.9200 C   0  0  0  0  0  0  0  0  0  0  0  0
  139.3440   75.5380  220.7080 C   0  0  0  0  0  0  0  0  0  0  0  0
  139.5720   76.7920  221.5480 C   0  0  0  0  0  0  0  0  0  0  0  0
  143.0657   78.0966  218.6752 H   0  0  0  0  0  0  0  0  0  0  0  0
  141.7452   78.5140  217.5312 H   0  0  0  0  0  0  0  0  0  0  0  0
  143.2681   79.4666  217.5312 H   0  0  0  0  0  0  0  0  0  0  0  0
  142.7384   80.2390  219.8786 H   0  0  0  0  0  0  0  0  0  0  0  0
  141.4985   80.7540  218.7150 H   0  0  0  0  0  0  0  0  0  0  0  0
  139.6235   80.2332  222.4655 H   0  0  0  0  0  0  0  0  0  0  0  0
  140.2135   81.8885  224.2299 H   0  0  0  0  0  0  0  0  0  0  0  0
  142.5799   82.0277  225.0080 H   0  0  0  0  0  0  0  0  0  0  0  0
  144.2792   80.5473  224.0291 H   0  0  0  0  0  0  0  0  0  0  0  0
  143.7239   78.8829  222.2680 H   0  0  0  0  0  0  0  0  0  0  0  0
  141.3904   76.9620  222.5625 H   0  0  0  0  0  0  0  0  0  0  0  0
  141.4608   76.5888  219.5304 H   0  0  0  0  0  0  0  0  0  0  0  0
  142.8837   76.6356  220.6602 H   0  0  0  0  0  0  0  0  0  0  0  0
  141.9922   74.3563  219.8618 H   0  0  0  0  0  0  0  0  0  0  0  0
  142.3714   74.6030  221.6011 H   0  0  0  0  0  0  0  0  0  0  0  0
  138.2208   73.2031  222.6578 H   0  0  0  0  0  0  0  0  0  0  0  0
  138.5607   70.6964  221.7760 H   0  0  0  0  0  0  0  0  0  0  0  0
  138.7056   68.6980  223.1386 H   0  0  0  0  0  0  0  0  0  0  0  0
  139.2957   67.5169  225.1970 H   0  0  0  0  0  0  0  0  0  0  0  0
  140.1668   67.4796  227.4298 H   0  0  0  0  0  0  0  0  0  0  0  0
  141.1515   68.7398  229.3664 H   0  0  0  0  0  0  0  0  0  0  0  0
  141.5237   71.1928  229.1666 H   0  0  0  0  0  0  0  0  0  0  0  0
  140.9369   72.3849  227.0880 H   0  0  0  0  0  0  0  0  0  0  0  0
  140.0609   72.3650  224.8621 H   0  0  0  0  0  0  0  0  0  0  0  0
  139.5032   75.7660  219.6437 H   0  0  0  0  0  0  0  0  0  0  0  0
  138.3140   75.1727  220.8330 H   0  0  0  0  0  0  0  0  0  0  0  0
  138.9804   77.6192  221.1288 H   0  0  0  0  0  0  0  0  0  0  0  0
  139.2612   76.5843  222.5825 H   0  0  0  0  0  0  0  0  0  0  0  0
  1  2  1  0
  2  3  1  0
  3  4  2  0
  3  5  1  0
  5  6  1  0
  6  7  2  0
  7  8  1  0
  8  9  2  0
  9 10  1  0
 10 11  2  0
  5 12  1  0
 12 13  1  0
 13 14  1  0
 14 15  1  0
 15 16  1  0
 16 17  2  0
 16 18  1  0
 18 19  2  0
 19 20  1  0
 20 21  2  0
 21 22  1  0
 22 23  2  0
 23 24  1  0
 24 25  2  0
 25 26  1  0
 26 27  2  0
 27 28  1  0
 28 29  2  0
 15 30  1  0
 30 31  1  0
 11  6  1  0
 31 12  1  0
 29 20  1  0
 28 23  1  0
  1 32  1  0
  1 33  1  0
  1 34  1  0
  2 35  1  0
  2 36  1  0
  7 37  1  0
  8 38  1  0
  9 39  1  0
 10 40  1  0
 11 41  1  0
 12 42  1  0
 13 43  1  0
 13 44  1  0
 14 45  1  0
 14 46  1  0
 18 47  1  0
 19 48  1  0
 21 49  1  0
 22 50  1  0
 24 51  1  0
 25 52  1  0
 26 53  1  0
 27 54  1  0
 29 55  1  0
 30 56  1  0
 30 57  1  0
 31 58  1  0
 31 59  1  0
M  END
>  <smiles>  (9) 
CCC(=O)N(c1ccccc1)C1CCN(C(=O)/C=C/c2ccc3ccccc3c2)CC1

>  <score_type>  (9) 
oracle

>  <origin>  (9) 
autodockgpu

>  <m_score__min__energy>  (9) 
-9.4600000000000009

>  <m_primary>  (9) 
energy

>  <rmsd>  (9) 
6.2264130607434

>  <m_score__min__rmsd>  (9) 
6.2264130607434

>  <meeko>  (9) 
{"free_energy": -9.21, "intermolecular_energy": -11.3, "internal_energy": -1.41, "cluster_size": 43, "cluster_id": 1, "rank_in_cluster": 12}

>  <energy>  (9) 
-9.25

>  <cluster_rmsd>  (9) 
0.41

>  <cluster>  (9) 
1

$$$$

     RDKit          3D

 59 62  0  0  0  0  0  0  0  0999 V2000
  138.7140   79.1250  220.1280 C   0  0  0  0  0  0  0  0  0  0  0  0
  137.7220   79.7730  221.1020 C   0  0  0  0  0  0  0  0  0  0  0  0
  138.0940   79.3060  222.4670 C   0  0  0  0  0  0  0  0  0  0  0  0
  137.2230   79.5230  223.3770 O   0  0  0  0  0  0  0  0  0  0  0  0
  139.3310   78.6540  222.7500 N   0  0  0  0  0  0  0  0  0  0  0  0
  140.4580   79.4930  223.0630 C   0  0  0  0  0  0  0  0  0  0  0  0
  140.4230   80.7810  222.5010 C   0  0  0  0  0  0  0  0  0  0  0  0
  141.4520   81.6780  222.7270 C   0  0  0  0  0  0  0  0  0  0  0  0
  142.5110   81.2810  223.5150 C   0  0  0  0  0  0  0  0  0  0  0  0
  142.5200   80.0100  224.0560 C   0  0  0  0  0  0  0  0  0  0  0  0
  141.5050   79.0910  223.8480 C   0  0  0  0  0  0  0  0  0  0  0  0
  139.4720   77.2370  222.7070 C   0  0  0  0  0  0  0  0  0  0  0  0
  140.6160   76.8880  221.7590 C   0  0  0  0  0  0  0  0  0  0  0  0
  140.8340   75.4210  221.6530 C   0  0  0  0  0  0  0  0  0  0  0  0
  139.4980   74.7110  221.6090 N   0  0  0  0  0  0  0  0  0  0  0  0
  139.5800   73.3760  221.9810 C   0  0  0  0  0  0  0  0  0  0  0  0
  140.8300   73.0410  222.2730 O   0  0  0  0  0  0  0  0  0  0  0  0
  138.6620   72.3110  222.1160 C   0  0  0  0  0  0  0  0  0  0  0  0
  138.8540   71.0350  222.3470 C   0  0  0  0  0  0  0  0  0  0  0  0
  139.1980   70.4660  223.6460 C   0  0  0  0  0  0  0  0  0  0  0  0
  138.8920   69.1280  223.9350 C   0  0  0  0  0  0  0  0  0  0  0  0
  139.2000   68.5590  225.1490 C   0  0  0  0  0  0  0  0  0  0  0  0
  139.8340   69.2800  226.1580 C   0  0  0  0  0  0  0  0  0  0  0  0
  140.1230   68.6750  227.3570 C   0  0  0  0  0  0  0  0  0  0  0  0
  140.7540   69.4310  228.3400 C   0  0  0  0  0  0  0  0  0  0  0  0
  141.0690   70.7610  228.0810 C   0  0  0  0  0  0  0  0  0  0  0  0
  140.7640   71.3310  226.8650 C   0  0  0  0  0  0  0  0  0  0  0  0
  140.1360   70.5890  225.8810 C   0  0  0  0  0  0  0  0  0  0  0  0
  139.8220   71.1590  224.6540 C   0  0  0  0  0  0  0  0  0  0  0  0
  138.4330   75.5560  221.1970 C   0  0  0  0  0  0  0  0  0  0  0  0
  138.1930   76.5760  222.3050 C   0  0  0  0  0  0  0  0  0  0  0  0
  139.5025   78.6099  220.6963 H   0  0  0  0  0  0  0  0  0  0  0  0
  138.1843   78.3982  219.4946 H   0  0  0  0  0  0  0  0  0  0  0  0
  139.1667   79.9021  219.4946 H   0  0  0  0  0  0  0  0  0  0  0  0
  137.7946   80.8690  221.0436 H   0  0  0  0  0  0  0  0  0  0  0  0
  136.6869   79.4929  220.8567 H   0  0  0  0  0  0  0  0  0  0  0  0
  139.5688   81.0788  221.8752 H   0  0  0  0  0  0  0  0  0  0  0  0
  141.4255   82.6860  222.2874 H   0  0  0  0  0  0  0  0  0  0  0  0
  143.3439   81.9721  223.7118 H   0  0  0  0  0  0  0  0  0  0  0  0
  143.3745   79.7136  224.6821 H   0  0  0  0  0  0  0  0  0  0  0  0
  141.5386   78.0854  224.2926 H   0  0  0  0  0  0  0  0  0  0  0  0
  139.7116   76.8587  223.7117 H   0  0  0  0  0  0  0  0  0  0  0  0
  140.3806   77.2837  220.7600 H   0  0  0  0  0  0  0  0  0  0  0  0
  141.5358   77.3364  222.1625 H   0  0  0  0  0  0  0  0  0  0  0  0
  141.3965   75.2000  220.7339 H   0  0  0  0  0  0  0  0  0  0  0  0
  141.4043   75.0724  222.5266 H   0  0  0  0  0  0  0  0  0  0  0  0
  137.6065   72.6018  222.0091 H   0  0  0  0  0  0  0  0  0  0  0  0
  138.7480   70.3422  221.4992 H   0  0  0  0  0  0  0  0  0  0  0  0
  138.3918   68.5166  223.1695 H   0  0  0  0  0  0  0  0  0  0  0  0
  138.9384   67.5056  225.3278 H   0  0  0  0  0  0  0  0  0  0  0  0
  139.8626   67.6212  227.5352 H   0  0  0  0  0  0  0  0  0  0  0  0
  141.0015   68.9812  229.3128 H   0  0  0  0  0  0  0  0  0  0  0  0
  141.5667   71.3634  228.8552 H   0  0  0  0  0  0  0  0  0  0  0  0
  141.0215   72.3834  226.6750 H   0  0  0  0  0  0  0  0  0  0  0  0
  140.0850   72.2131  224.4819 H   0  0  0  0  0  0  0  0  0  0  0  0
  138.7044   76.0729  220.2647 H   0  0  0  0  0  0  0  0  0  0  0  0
  137.5229   74.9660  221.0137 H   0  0  0  0  0  0  0  0  0  0  0  0
  137.4900   77.3412  221.9441 H   0  0  0  0  0  0  0  0  0  0  0  0
  137.7769   76.0541  223.1793 H   0  0  0  0  0  0  0  0  0  0  0  0
  1  2  1  0
  2  3  1  0
  3  4  2  0
  3  5  1  0
  5  6  1  0
  6  7  2  0
  7  8  1  0
  8  9  2  0
  9 10  1  0
 10 11  2  0
  5 12  1  0
 12 13  1  0
 13 14  1  0
 14 15  1  0
 15 16  1  0
 16 17  2  0
 16 18  1  0
 18 19  2  0
 19 20  1  0
 20 21  2  0
 21 22  1  0
 22 23  2  0
 23 24  1  0
 24 25  2  0
 25 26  1  0
 26 27  2  0
 27 28  1  0
 28 29  2  0
 15 30  1  0
 30 31  1  0
 11  6  1  0
 31 12  1  0
 29 20  1  0
 28 23  1  0
  1 32  1  0
  1 33  1  0
  1 34  1  0
  2 35  1  0
  2 36  1  0
  7 37  1  0
  8 38  1  0
  9 39  1  0
 10 40  1  0
 11 41  1  0
 12 42  1  0
 13 43  1  0
 13 44  1  0
 14 45  1  0
 14 46  1  0
 18 47  1  0
 19 48  1  0
 21 49  1  0
 22 50  1  0
 24 51  1  0
 25 52  1  0
 26 53  1  0
 27 54  1  0
 29 55  1  0
 30 56  1  0
 30 57  1  0
 31 58  1  0
 31 59  1  0
M  END
>  <smiles>  (10) 
CCC(=O)N(c1ccccc1)C1CCN(C(=O)/C=C/c2ccc3ccccc3c2)CC1

>  <score_type>  (10) 
oracle

>  <origin>  (10) 
autodockgpu

>  <m_score__min__energy>  (10) 
-9.4600000000000009

>  <m_primary>  (10) 
energy

>  <rmsd>  (10) 
6.111517841361909

>  <m_score__min__rmsd>  (10) 
6.111517841361909

>  <meeko>  (10) 
{"free_energy": -9.21, "intermolecular_energy": -11.29, "internal_energy": -1.37, "cluster_size": 43, "cluster_id": 1, "rank_in_cluster": 13}

>  <energy>  (10) 
-9.24

>  <cluster_rmsd>  (10) 
0.34

>  <cluster>  (10) 
1

$$$$

     RDKit          3D

 59 62  0  0  0  0  0  0  0  0999 V2000
  142.5480   80.5570  218.1600 C   0  0  0  0  0  0  0  0  0  0  0  0
  142.4100   79.0300  218.2050 C   0  0  0  0  0  0  0  0  0  0  0  0
  141.3430   78.7250  219.1980 C   0  0  0  0  0  0  0  0  0  0  0  0
  140.1470   78.9510  218.8070 O   0  0  0  0  0  0  0  0  0  0  0  0
  141.6230   78.2090  220.4990 N   0  0  0  0  0  0  0  0  0  0  0  0
  141.7360   79.1620  221.5730 C   0  0  0  0  0  0  0  0  0  0  0  0
  141.7210   78.6130  222.8660 C   0  0  0  0  0  0  0  0  0  0  0  0
  141.8210   79.4280  223.9800 C   0  0  0  0  0  0  0  0  0  0  0  0
  141.9350   80.7900  223.7910 C   0  0  0  0  0  0  0  0  0  0  0  0
  141.9480   81.3020  222.5090 C   0  0  0  0  0  0  0  0  0  0  0  0
  141.8510   80.5110  221.3760 C   0  0  0  0  0  0  0  0  0  0  0  0
  141.8110   76.8170  220.7420 C   0  0  0  0  0  0  0  0  0  0  0  0
  142.8830   76.2950  219.7880 C   0  0  0  0  0  0  0  0  0  0  0  0
  143.1440   74.8430  219.9740 C   0  0  0  0  0  0  0  0  0  0  0  0
  141.8350   74.1170  220.2010 N   0  0  0  0  0  0  0  0  0  0  0  0
  141.9960   72.8930  220.8360 C   0  0  0  0  0  0  0  0  0  0  0  0
  143.2770   72.6500  221.0780 O   0  0  0  0  0  0  0  0  0  0  0  0
  141.1320   71.8660  221.2750 C   0  0  0  0  0  0  0  0  0  0  0  0
  140.0800   71.9030  222.0570 C   0  0  0  0  0  0  0  0  0  0  0  0
  140.0150   71.3240  223.3940 C   0  0  0  0  0  0  0  0  0  0  0  0
  139.2930   70.1440  223.6200 C   0  0  0  0  0  0  0  0  0  0  0  0
  139.2090   69.5710  224.8680 C   0  0  0  0  0  0  0  0  0  0  0  0
  139.8380   70.1320  225.9770 C   0  0  0  0  0  0  0  0  0  0  0  0
  139.7280   69.5300  227.2070 C   0  0  0  0  0  0  0  0  0  0  0  0
  140.3690   70.1250  228.2900 C   0  0  0  0  0  0  0  0  0  0  0  0
  141.0910   71.2970  228.0960 C   0  0  0  0  0  0  0  0  0  0  0  0
  141.1780   71.8700  226.8460 C   0  0  0  0  0  0  0  0  0  0  0  0
  140.5460   71.2880  225.7620 C   0  0  0  0  0  0  0  0  0  0  0  0
  140.6270   71.8620  224.5010 C   0  0  0  0  0  0  0  0  0  0  0  0
  140.7090   74.8360  219.7180 C   0  0  0  0  0  0  0  0  0  0  0  0
  140.5270   76.0640  220.6050 C   0  0  0  0  0  0  0  0  0  0  0  0
  142.5837   80.9523  219.1859 H   0  0  0  0  0  0  0  0  0  0  0  0
  143.4741   80.8260  217.6309 H   0  0  0  0  0  0  0  0  0  0  0  0
  141.6851   80.9877  217.6309 H   0  0  0  0  0  0  0  0  0  0  0  0
  142.1265   78.6458  217.2141 H   0  0  0  0  0  0  0  0  0  0  0  0
  143.3610   78.5553  218.4883 H   0  0  0  0  0  0  0  0  0  0  0  0
  141.6288   77.5244  222.9943 H   0  0  0  0  0  0  0  0  0  0  0  0
  141.8099   78.9997  224.9931 H   0  0  0  0  0  0  0  0  0  0  0  0
  142.0150   81.4639  224.6567 H   0  0  0  0  0  0  0  0  0  0  0  0
  142.0398   82.3907  222.3811 H   0  0  0  0  0  0  0  0  0  0  0  0
  141.8657   80.9467  220.3661 H   0  0  0  0  0  0  0  0  0  0  0  0
  142.1483   76.6641  221.7778 H   0  0  0  0  0  0  0  0  0  0  0  0
  142.5494   76.4650  218.7537 H   0  0  0  0  0  0  0  0  0  0  0  0
  143.8168   76.8354  220.0023 H   0  0  0  0  0  0  0  0  0  0  0  0
  143.6345   74.4411  219.0752 H   0  0  0  0  0  0  0  0  0  0  0  0
  143.7983   74.6981  220.8463 H   0  0  0  0  0  0  0  0  0  0  0  0
  141.3844   70.8644  220.8966 H   0  0  0  0  0  0  0  0  0  0  0  0
  139.1800   72.4081  221.6764 H   0  0  0  0  0  0  0  0  0  0  0  0
  138.7788   69.6623  222.7753 H   0  0  0  0  0  0  0  0  0  0  0  0
  138.6293   68.6446  224.9934 H   0  0  0  0  0  0  0  0  0  0  0  0
  139.1492   68.6031  227.3326 H   0  0  0  0  0  0  0  0  0  0  0  0
  140.3048   69.6719  229.2903 H   0  0  0  0  0  0  0  0  0  0  0  0
  141.5980   71.7717  228.9490 H   0  0  0  0  0  0  0  0  0  0  0  0
  141.7542   72.7970  226.7091 H   0  0  0  0  0  0  0  0  0  0  0  0
  141.2070   72.7891  224.3821 H   0  0  0  0  0  0  0  0  0  0  0  0
  140.8819   75.1479  218.6774 H   0  0  0  0  0  0  0  0  0  0  0  0
  139.8086   74.2047  219.7447 H   0  0  0  0  0  0  0  0  0  0  0  0
  139.7689   76.7231  220.1568 H   0  0  0  0  0  0  0  0  0  0  0  0
  140.2053   75.7324  221.6033 H   0  0  0  0  0  0  0  0  0  0  0  0
  1  2  1  0
  2  3  1  0
  3  4  2  0
  3  5  1  0
  5  6  1  0
  6  7  2  0
  7  8  1  0
  8  9  2  0
  9 10  1  0
 10 11  2  0
  5 12  1  0
 12 13  1  0
 13 14  1  0
 14 15  1  0
 15 16  1  0
 16 17  2  0
 16 18  1  0
 18 19  2  0
 19 20  1  0
 20 21  2  0
 21 22  1  0
 22 23  2  0
 23 24  1  0
 24 25  2  0
 25 26  1  0
 26 27  2  0
 27 28  1  0
 28 29  2  0
 15 30  1  0
 30 31  1  0
 11  6  1  0
 31 12  1  0
 29 20  1  0
 28 23  1  0
  1 32  1  0
  1 33  1  0
  1 34  1  0
  2 35  1  0
  2 36  1  0
  7 37  1  0
  8 38  1  0
  9 39  1  0
 10 40  1  0
 11 41  1  0
 12 42  1  0
 13 43  1  0
 13 44  1  0
 14 45  1  0
 14 46  1  0
 18 47  1  0
 19 48  1  0
 21 49  1  0
 22 50  1  0
 24 51  1  0
 25 52  1  0
 26 53  1  0
 27 54  1  0
 29 55  1  0
 30 56  1  0
 30 57  1  0
 31 58  1  0
 31 59  1  0
M  END
>  <smiles>  (11) 
CCC(=O)N(c1ccccc1)C1CCN(C(=O)/C=C/c2ccc3ccccc3c2)CC1

>  <score_type>  (11) 
oracle

>  <origin>  (11) 
autodockgpu

>  <m_score__min__energy>  (11) 
-9.4600000000000009

>  <m_primary>  (11) 
energy

>  <rmsd>  (11) 
6.038704106242462

>  <m_score__min__rmsd>  (11) 
6.038704106242462

>  <meeko>  (11) 
{"free_energy": -8.99, "intermolecular_energy": -11.08, "internal_energy": -1.37, "cluster_size": 6, "cluster_id": 2, "rank_in_cluster": 3}

>  <energy>  (11) 
-9.23

>  <cluster_rmsd>  (11) 
0.64

>  <cluster>  (11) 
1

$$$$

     RDKit          3D

 59 62  0  0  0  0  0  0  0  0999 V2000
  142.6480   80.9140  217.8390 C   0  0  0  0  0  0  0  0  0  0  0  0
  141.3870   80.3540  218.5080 C   0  0  0  0  0  0  0  0  0  0  0  0
  141.7920   79.1030  219.2090 C   0  0  0  0  0  0  0  0  0  0  0  0
  142.6370   78.3740  218.5850 O   0  0  0  0  0  0  0  0  0  0  0  0
  141.2850   78.7360  220.4900 N   0  0  0  0  0  0  0  0  0  0  0  0
  141.5160   79.6530  221.5760 C   0  0  0  0  0  0  0  0  0  0  0  0
  142.6230   79.3550  222.3890 C   0  0  0  0  0  0  0  0  0  0  0  0
  142.9460   80.1610  223.4650 C   0  0  0  0  0  0  0  0  0  0  0  0
  142.1590   81.2640  223.7220 C   0  0  0  0  0  0  0  0  0  0  0  0
  141.0780   81.5340  222.9070 C   0  0  0  0  0  0  0  0  0  0  0  0
  140.7300   80.7460  221.8230 C   0  0  0  0  0  0  0  0  0  0  0  0
  140.5980   77.5080  220.7140 C   0  0  0  0  0  0  0  0  0  0  0  0
  140.0480   77.5070  222.1380 C   0  0  0  0  0  0  0  0  0  0  0  0
  139.3130   76.2540  222.4580 C   0  0  0  0  0  0  0  0  0  0  0  0
  140.0480   75.0690  221.8700 N   0  0  0  0  0  0  0  0  0  0  0  0
  139.2370   73.9550  221.7010 C   0  0  0  0  0  0  0  0  0  0  0  0
  138.0010   74.2020  222.1160 O   0  0  0  0  0  0  0  0  0  0  0  0
  139.4160   72.6470  221.2020 C   0  0  0  0  0  0  0  0  0  0  0  0
  140.0850   71.6270  221.6840 C   0  0  0  0  0  0  0  0  0  0  0  0
  140.0010   71.1500  223.0600 C   0  0  0  0  0  0  0  0  0  0  0  0
  139.2430   70.0110  223.3680 C   0  0  0  0  0  0  0  0  0  0  0  0
  139.1400   69.5340  224.6550 C   0  0  0  0  0  0  0  0  0  0  0  0
  139.7830   70.1560  225.7220 C   0  0  0  0  0  0  0  0  0  0  0  0
  139.6540   69.6490  226.9930 C   0  0  0  0  0  0  0  0  0  0  0  0
  140.3100   70.3020  228.0320 C   0  0  0  0  0  0  0  0  0  0  0  0
  141.0670   71.4350  227.7550 C   0  0  0  0  0  0  0  0  0  0  0  0
  141.1740   71.9120  226.4680 C   0  0  0  0  0  0  0  0  0  0  0  0
  140.5260   71.2710  225.4260 C   0  0  0  0  0  0  0  0  0  0  0  0
  140.6270   71.7490  224.1270 C   0  0  0  0  0  0  0  0  0  0  0  0
  141.4190   75.3380  221.6120 C   0  0  0  0  0  0  0  0  0  0  0  0
  141.4880   76.3340  220.4580 C   0  0  0  0  0  0  0  0  0  0  0  0
  143.3630   81.2316  218.6122 H   0  0  0  0  0  0  0  0  0  0  0  0
  143.1073   80.1352  217.2124 H   0  0  0  0  0  0  0  0  0  0  0  0
  142.3782   81.7769  217.2124 H   0  0  0  0  0  0  0  0  0  0  0  0
  140.9869   81.0806  219.2305 H   0  0  0  0  0  0  0  0  0  0  0  0
  140.6012   80.1537  217.7647 H   0  0  0  0  0  0  0  0  0  0  0  0
  143.2390   78.4711  222.1669 H   0  0  0  0  0  0  0  0  0  0  0  0
  143.8118   79.9276  224.1021 H   0  0  0  0  0  0  0  0  0  0  0  0
  142.3911   81.9242  224.5707 H   0  0  0  0  0  0  0  0  0  0  0  0
  140.4630   82.4184  223.1297 H   0  0  0  0  0  0  0  0  0  0  0  0
  139.8630   80.9869  221.1903 H   0  0  0  0  0  0  0  0  0  0  0  0
  139.7597   77.4191  220.0074 H   0  0  0  0  0  0  0  0  0  0  0  0
  140.8869   77.6146  222.8414 H   0  0  0  0  0  0  0  0  0  0  0  0
  139.3402   78.3444  222.2261 H   0  0  0  0  0  0  0  0  0  0  0  0
  139.2458   76.1379  223.5498 H   0  0  0  0  0  0  0  0  0  0  0  0
  138.3011   76.3050  222.0297 H   0  0  0  0  0  0  0  0  0  0  0  0
  138.9081   72.4494  220.2465 H   0  0  0  0  0  0  0  0  0  0  0  0
  140.7596   71.0914  220.9998 H   0  0  0  0  0  0  0  0  0  0  0  0
  138.7162   69.4843  222.5587 H   0  0  0  0  0  0  0  0  0  0  0  0
  138.5330   68.6367  224.8459 H   0  0  0  0  0  0  0  0  0  0  0  0
  139.0483   68.7509  227.1838 H   0  0  0  0  0  0  0  0  0  0  0  0
  140.2305   69.9255  229.0625 H   0  0  0  0  0  0  0  0  0  0  0  0
  141.5860   71.9559  228.5731 H   0  0  0  0  0  0  0  0  0  0  0  0
  141.7785   72.8086  226.2663 H   0  0  0  0  0  0  0  0  0  0  0  0
  141.2350   72.6471  223.9432 H   0  0  0  0  0  0  0  0  0  0  0  0
  141.8910   75.7689  222.5073 H   0  0  0  0  0  0  0  0  0  0  0  0
  141.9510   74.4108  221.3526 H   0  0  0  0  0  0  0  0  0  0  0  0
  142.5245   76.6851  220.3465 H   0  0  0  0  0  0  0  0  0  0  0  0
  141.1522   75.8316  219.5389 H   0  0  0  0  0  0  0  0  0  0  0  0
  1  2  1  0
  2  3  1  0
  3  4  2  0
  3  5  1  0
  5  6  1  0
  6  7  2  0
  7  8  1  0
  8  9  2  0
  9 10  1  0
 10 11  2  0
  5 12  1  0
 12 13  1  0
 13 14  1  0
 14 15  1  0
 15 16  1  0
 16 17  2  0
 16 18  1  0
 18 19  2  0
 19 20  1  0
 20 21  2  0
 21 22  1  0
 22 23  2  0
 23 24  1  0
 24 25  2  0
 25 26  1  0
 26 27  2  0
 27 28  1  0
 28 29  2  0
 15 30  1  0
 30 31  1  0
 11  6  1  0
 31 12  1  0
 29 20  1  0
 28 23  1  0
  1 32  1  0
  1 33  1  0
  1 34  1  0
  2 35  1  0
  2 36  1  0
  7 37  1  0
  8 38  1  0
  9 39  1  0
 10 40  1  0
 11 41  1  0
 12 42  1  0
 13 43  1  0
 13 44  1  0
 14 45  1  0
 14 46  1  0
 18 47  1  0
 19 48  1  0
 21 49  1  0
 22 50  1  0
 24 51  1  0
 25 52  1  0
 26 53  1  0
 27 54  1  0
 29 55  1  0
 30 56  1  0
 30 57  1  0
 31 58  1  0
 31 59  1  0
M  END
>  <smiles>  (12) 
CCC(=O)N(c1ccccc1)C1CCN(C(=O)/C=C/c2ccc3ccccc3c2)CC1

>  <score_type>  (12) 
oracle

>  <origin>  (12) 
autodockgpu

>  <m_score__min__energy>  (12) 
-9.4600000000000009

>  <m_primary>  (12) 
energy

>  <rmsd>  (12) 
5.950393351558825

>  <m_score__min__rmsd>  (12) 
5.950393351558825

>  <meeko>  (12) 
{"free_energy": -8.91, "intermolecular_energy": -11.0, "internal_energy": -1.51, "cluster_size": 6, "cluster_id": 2, "rank_in_cluster": 4}

>  <energy>  (12) 
-9.21

>  <cluster_rmsd>  (12) 
1.58

>  <cluster>  (12) 
1

$$$$

     RDKit          3D

 59 62  0  0  0  0  0  0  0  0999 V2000
  138.1230   80.2300  223.4790 C   0  0  0  0  0  0  0  0  0  0  0  0
  138.0230   79.3640  222.2170 C   0  0  0  0  0  0  0  0  0  0  0  0
  138.4930   78.0020  222.5930 C   0  0  0  0  0  0  0  0  0  0  0  0
  137.5970   77.2240  223.0690 O   0  0  0  0  0  0  0  0  0  0  0  0
  139.8460   77.5790  222.4310 N   0  0  0  0  0  0  0  0  0  0  0  0
  140.8600   78.6010  222.4560 C   0  0  0  0  0  0  0  0  0  0  0  0
  141.4520   78.8310  223.7090 C   0  0  0  0  0  0  0  0  0  0  0  0
  142.4370   79.7890  223.8600 C   0  0  0  0  0  0  0  0  0  0  0  0
  142.8260   80.5140  222.7530 C   0  0  0  0  0  0  0  0  0  0  0  0
  142.2290   80.2670  221.5320 C   0  0  0  0  0  0  0  0  0  0  0  0
  141.2410   79.3140  221.3510 C   0  0  0  0  0  0  0  0  0  0  0  0
  140.1980   76.2130  222.2280 C   0  0  0  0  0  0  0  0  0  0  0  0
  141.3420   76.1480  221.2200 C   0  0  0  0  0  0  0  0  0  0  0  0
  141.7750   74.7520  220.9460 C   0  0  0  0  0  0  0  0  0  0  0  0
  140.5600   73.8530  220.8560 N   0  0  0  0  0  0  0  0  0  0  0  0
  140.8580   72.5150  221.0750 C   0  0  0  0  0  0  0  0  0  0  0  0
  142.1550   72.3480  221.2990 O   0  0  0  0  0  0  0  0  0  0  0  0
  140.1170   71.3130  221.1130 C   0  0  0  0  0  0  0  0  0  0  0  0
  139.3860   70.7830  222.0640 C   0  0  0  0  0  0  0  0  0  0  0  0
  139.7490   70.7560  223.4760 C   0  0  0  0  0  0  0  0  0  0  0  0
  140.3220   71.8830  224.0820 C   0  0  0  0  0  0  0  0  0  0  0  0
  140.6780   71.8920  225.4110 C   0  0  0  0  0  0  0  0  0  0  0  0
  140.4890   70.7810  226.2290 C   0  0  0  0  0  0  0  0  0  0  0  0
  140.8590   70.8300  227.5510 C   0  0  0  0  0  0  0  0  0  0  0  0
  140.6550   69.6970  228.3330 C   0  0  0  0  0  0  0  0  0  0  0  0
  140.0900   68.5640  227.7600 C   0  0  0  0  0  0  0  0  0  0  0  0
  139.7300   68.5550  226.4300 C   0  0  0  0  0  0  0  0  0  0  0  0
  139.9280   69.6740  225.6420 C   0  0  0  0  0  0  0  0  0  0  0  0
  139.5710   69.6700  224.3000 C   0  0  0  0  0  0  0  0  0  0  0  0
  139.3640   74.5620  220.5650 C   0  0  0  0  0  0  0  0  0  0  0  0
  139.0180   75.4090  221.7850 C   0  0  0  0  0  0  0  0  0  0  0  0
  138.0490   79.5894  224.3701 H   0  0  0  0  0  0  0  0  0  0  0  0
  139.0881   80.7578  223.4860 H   0  0  0  0  0  0  0  0  0  0  0  0
  137.3036   80.9639  223.4860 H   0  0  0  0  0  0  0  0  0  0  0  0
  136.9807   79.3222  221.8678 H   0  0  0  0  0  0  0  0  0  0  0  0
  138.6325   79.7814  221.4019 H   0  0  0  0  0  0  0  0  0  0  0  0
  141.1281   78.2421  224.5798 H   0  0  0  0  0  0  0  0  0  0  0  0
  142.9003   79.9692  224.8413 H   0  0  0  0  0  0  0  0  0  0  0  0
  143.6066   81.2839  222.8419 H   0  0  0  0  0  0  0  0  0  0  0  0
  142.5542   80.8558  220.6616 H   0  0  0  0  0  0  0  0  0  0  0  0
  140.7838   79.1381  220.3661 H   0  0  0  0  0  0  0  0  0  0  0  0
  140.5326   75.7717  223.1784 H   0  0  0  0  0  0  0  0  0  0  0  0
  141.0090   76.6065  220.2772 H   0  0  0  0  0  0  0  0  0  0  0  0
  142.1991   76.6878  221.6489 H   0  0  0  0  0  0  0  0  0  0  0  0
  142.3260   74.7195  219.9945 H   0  0  0  0  0  0  0  0  0  0  0  0
  142.4274   74.4048  221.7607 H   0  0  0  0  0  0  0  0  0  0  0  0
  140.1606   70.7206  220.1872 H   0  0  0  0  0  0  0  0  0  0  0  0
  138.4284   70.3250  221.7753 H   0  0  0  0  0  0  0  0  0  0  0  0
  140.4919   72.7861  223.4775 H   0  0  0  0  0  0  0  0  0  0  0  0
  141.1241   72.8018  225.8391 H   0  0  0  0  0  0  0  0  0  0  0  0
  141.3043   71.7399  227.9798 H   0  0  0  0  0  0  0  0  0  0  0  0
  140.9386   69.6983  229.3958 H   0  0  0  0  0  0  0  0  0  0  0  0
  139.9286   67.6658  228.3741 H   0  0  0  0  0  0  0  0  0  0  0  0
  139.2818   67.6511  225.9918 H   0  0  0  0  0  0  0  0  0  0  0  0
  139.1259   68.7571  223.8774 H   0  0  0  0  0  0  0  0  0  0  0  0
  139.5166   75.2106  219.6898 H   0  0  0  0  0  0  0  0  0  0  0  0
  138.5467   73.8616  220.3381 H   0  0  0  0  0  0  0  0  0  0  0  0
  138.1937   76.0906  221.5283 H   0  0  0  0  0  0  0  0  0  0  0  0
  138.7211   74.7390  222.6054 H   0  0  0  0  0  0  0  0  0  0  0  0
  1  2  1  0
  2  3  1  0
  3  4  2  0
  3  5  1  0
  5  6  1  0
  6  7  2  0
  7  8  1  0
  8  9  2  0
  9 10  1  0
 10 11  2  0
  5 12  1  0
 12 13  1  0
 13 14  1  0
 14 15  1  0
 15 16  1  0
 16 17  2  0
 16 18  1  0
 18 19  2  0
 19 20  1  0
 20 21  2  0
 21 22  1  0
 22 23  2  0
 23 24  1  0
 24 25  2  0
 25 26  1  0
 26 27  2  0
 27 28  1  0
 28 29  2  0
 15 30  1  0
 30 31  1  0
 11  6  1  0
 31 12  1  0
 29 20  1  0
 28 23  1  0
  1 32  1  0
  1 33  1  0
  1 34  1  0
  2 35  1  0
  2 36  1  0
  7 37  1  0
  8 38  1  0
  9 39  1  0
 10 40  1  0
 11 41  1  0
 12 42  1  0
 13 43  1  0
 13 44  1  0
 14 45  1  0
 14 46  1  0
 18 47  1  0
 19 48  1  0
 21 49  1  0
 22 50  1  0
 24 51  1  0
 25 52  1  0
 26 53  1  0
 27 54  1  0
 29 55  1  0
 30 56  1  0
 30 57  1  0
 31 58  1  0
 31 59  1  0
M  END
>  <smiles>  (13) 
CCC(=O)N(c1ccccc1)C1CCN(C(=O)/C=C/c2ccc3ccccc3c2)CC1

>  <score_type>  (13) 
oracle

>  <origin>  (13) 
autodockgpu

>  <m_score__min__energy>  (13) 
-9.4600000000000009

>  <m_primary>  (13) 
energy

>  <rmsd>  (13) 
5.908173848647813

>  <m_score__min__rmsd>  (13) 
5.908173848647813

>  <meeko>  (13) 
{"free_energy": -8.91, "intermolecular_energy": -11.0, "internal_energy": -1.4, "cluster_size": 43, "cluster_id": 1, "rank_in_cluster": 34}

>  <energy>  (13) 
-9.21

>  <cluster_rmsd>  (13) 
0.71

>  <cluster>  (13) 
1

$$$$

     RDKit          3D

 59 62  0  0  0  0  0  0  0  0999 V2000
  138.1350   80.8470  224.1930 C   0  0  0  0  0  0  0  0  0  0  0  0
  137.3650   79.7460  223.4540 C   0  0  0  0  0  0  0  0  0  0  0  0
  138.2470   79.2720  222.3500 C   0  0  0  0  0  0  0  0  0  0  0  0
  137.8170   79.5000  221.1680 O   0  0  0  0  0  0  0  0  0  0  0  0
  139.4900   78.6130  222.5840 N   0  0  0  0  0  0  0  0  0  0  0  0
  140.6520   79.4450  222.7570 C   0  0  0  0  0  0  0  0  0  0  0  0
  141.4240   79.1700  223.8990 C   0  0  0  0  0  0  0  0  0  0  0  0
  142.5640   79.9040  224.1740 C   0  0  0  0  0  0  0  0  0  0  0  0
  142.9250   80.9110  223.3040 C   0  0  0  0  0  0  0  0  0  0  0  0
  142.1490   81.1600  222.1890 C   0  0  0  0  0  0  0  0  0  0  0  0
  141.0040   80.4410  221.8870 C   0  0  0  0  0  0  0  0  0  0  0  0
  139.6040   77.1930  222.6230 C   0  0  0  0  0  0  0  0  0  0  0  0
  140.6760   76.7600  221.6260 C   0  0  0  0  0  0  0  0  0  0  0  0
  140.8610   75.2850  221.6000 C   0  0  0  0  0  0  0  0  0  0  0  0
  139.5120   74.6030  221.6900 N   0  0  0  0  0  0  0  0  0  0  0  0
  139.5960   73.2920  222.1400 C   0  0  0  0  0  0  0  0  0  0  0  0
  140.8560   72.9500  222.3710 O   0  0  0  0  0  0  0  0  0  0  0  0
  138.6700   72.2590  222.4030 C   0  0  0  0  0  0  0  0  0  0  0  0
  138.8460   70.9700  222.5750 C   0  0  0  0  0  0  0  0  0  0  0  0
  139.2020   70.3390  223.8400 C   0  0  0  0  0  0  0  0  0  0  0  0
  138.9200   68.9830  224.0580 C   0  0  0  0  0  0  0  0  0  0  0  0
  139.2410   68.3550  225.2400 C   0  0  0  0  0  0  0  0  0  0  0  0
  139.8630   69.0330  226.2860 C   0  0  0  0  0  0  0  0  0  0  0  0
  140.1650   68.3700  227.4510 C   0  0  0  0  0  0  0  0  0  0  0  0
  140.7840   69.0840  228.4720 C   0  0  0  0  0  0  0  0  0  0  0  0
  141.0750   70.4310  228.2840 C   0  0  0  0  0  0  0  0  0  0  0  0
  140.7580   71.0600  227.1010 C   0  0  0  0  0  0  0  0  0  0  0  0
  140.1420   70.3610  226.0780 C   0  0  0  0  0  0  0  0  0  0  0  0
  139.8160   70.9890  224.8840 C   0  0  0  0  0  0  0  0  0  0  0  0
  138.4370   75.4430  221.2940 C   0  0  0  0  0  0  0  0  0  0  0  0
  138.2890   76.5360  222.3480 C   0  0  0  0  0  0  0  0  0  0  0  0
  138.0327   80.7007  225.2784 H   0  0  0  0  0  0  0  0  0  0  0  0
  139.1984   80.8003  223.9154 H   0  0  0  0  0  0  0  0  0  0  0  0
  137.7263   81.8298  223.9154 H   0  0  0  0  0  0  0  0  0  0  0  0
  137.1378   78.9167  224.1401 H   0  0  0  0  0  0  0  0  0  0  0  0
  136.4105   80.1266  223.0615 H   0  0  0  0  0  0  0  0  0  0  0  0
  141.1186   78.3629  224.5811 H   0  0  0  0  0  0  0  0  0  0  0  0
  143.1691   79.6890  225.0671 H   0  0  0  0  0  0  0  0  0  0  0  0
  143.8256   81.5124  223.4969 H   0  0  0  0  0  0  0  0  0  0  0  0
  142.4548   81.9680  221.5081 H   0  0  0  0  0  0  0  0  0  0  0  0
  140.4060   80.6603  220.9902 H   0  0  0  0  0  0  0  0  0  0  0  0
  139.9042   76.8738  223.6320 H   0  0  0  0  0  0  0  0  0  0  0  0
  140.3812   77.0971  220.6213 H   0  0  0  0  0  0  0  0  0  0  0  0
  141.6284   77.2127  221.9389 H   0  0  0  0  0  0  0  0  0  0  0  0
  141.3564   74.9945  220.6618 H   0  0  0  0  0  0  0  0  0  0  0  0
  141.4829   74.9794  222.4543 H   0  0  0  0  0  0  0  0  0  0  0  0
  137.6238   72.5910  222.4761 H   0  0  0  0  0  0  0  0  0  0  0  0
  138.7152   70.3171  221.6995 H   0  0  0  0  0  0  0  0  0  0  0  0
  138.4283   68.4047  223.2619 H   0  0  0  0  0  0  0  0  0  0  0  0
  138.9998   67.2887  225.3620 H   0  0  0  0  0  0  0  0  0  0  0  0
  139.9239   67.3037  227.5730 H   0  0  0  0  0  0  0  0  0  0  0  0
  141.0410   68.5877  229.4194 H   0  0  0  0  0  0  0  0  0  0  0  0
  141.5635   70.9998  229.0889 H   0  0  0  0  0  0  0  0  0  0  0  0
  140.9961   72.1257  226.9682 H   0  0  0  0  0  0  0  0  0  0  0  0
  140.0600   72.0553  224.7679 H   0  0  0  0  0  0  0  0  0  0  0  0
  138.6553   75.8941  220.3148 H   0  0  0  0  0  0  0  0  0  0  0  0
  137.5065   74.8627  221.2079 H   0  0  0  0  0  0  0  0  0  0  0  0
  137.5773   77.2923  221.9853 H   0  0  0  0  0  0  0  0  0  0  0  0
  137.9225   76.0793  223.2792 H   0  0  0  0  0  0  0  0  0  0  0  0
  1  2  1  0
  2  3  1  0
  3  4  2  0
  3  5  1  0
  5  6  1  0
  6  7  2  0
  7  8  1  0
  8  9  2  0
  9 10  1  0
 10 11  2  0
  5 12  1  0
 12 13  1  0
 13 14  1  0
 14 15  1  0
 15 16  1  0
 16 17  2  0
 16 18  1  0
 18 19  2  0
 19 20  1  0
 20 21  2  0
 21 22  1  0
 22 23  2  0
 23 24  1  0
 24 25  2  0
 25 26  1  0
 26 27  2  0
 27 28  1  0
 28 29  2  0
 15 30  1  0
 30 31  1  0
 11  6  1  0
 31 12  1  0
 29 20  1  0
 28 23  1  0
  1 32  1  0
  1 33  1  0
  1 34  1  0
  2 35  1  0
  2 36  1  0
  7 37  1  0
  8 38  1  0
  9 39  1  0
 10 40  1  0
 11 41  1  0
 12 42  1  0
 13 43  1  0
 13 44  1  0
 14 45  1  0
 14 46  1  0
 18 47  1  0
 19 48  1  0
 21 49  1  0
 22 50  1  0
 24 51  1  0
 25 52  1  0
 26 53  1  0
 27 54  1  0
 29 55  1  0
 30 56  1  0
 30 57  1  0
 31 58  1  0
 31 59  1  0
M  END
>  <smiles>  (14) 
CCC(=O)N(c1ccccc1)C1CCN(C(=O)/C=C/c2ccc3ccccc3c2)CC1

>  <score_type>  (14) 
oracle

>  <origin>  (14) 
autodockgpu

>  <m_score__min__energy>  (14) 
-9.4600000000000009

>  <m_primary>  (14) 
energy

>  <rmsd>  (14) 
6.074813151191165

>  <m_score__min__rmsd>  (14) 
6.074813151191165

>  <meeko>  (14) 
{"free_energy": -9.37, "intermolecular_energy": -11.45, "internal_energy": -1.45, "cluster_size": 43, "cluster_id": 1, "rank_in_cluster": 5}

>  <energy>  (14) 
-9.19

>  <cluster_rmsd>  (14) 
0.81

>  <cluster>  (14) 
1

$$$$

     RDKit          3D

 59 62  0  0  0  0  0  0  0  0999 V2000
  138.1100   80.6800  223.6190 C   0  0  0  0  0  0  0  0  0  0  0  0
  138.0040   79.8490  222.3350 C   0  0  0  0  0  0  0  0  0  0  0  0
  138.2670   78.4330  222.7160 C   0  0  0  0  0  0  0  0  0  0  0  0
  137.2390   77.7610  223.0720 O   0  0  0  0  0  0  0  0  0  0  0  0
  139.5700   77.8530  222.6840 N   0  0  0  0  0  0  0  0  0  0  0  0
  140.6910   78.7530  222.7640 C   0  0  0  0  0  0  0  0  0  0  0  0
  141.0630   79.3590  221.5520 C   0  0  0  0  0  0  0  0  0  0  0  0
  142.1270   80.2410  221.5010 C   0  0  0  0  0  0  0  0  0  0  0  0
  142.8140   80.5120  222.6650 C   0  0  0  0  0  0  0  0  0  0  0  0
  142.4270   79.9040  223.8420 C   0  0  0  0  0  0  0  0  0  0  0  0
  141.3660   79.0170  223.9240 C   0  0  0  0  0  0  0  0  0  0  0  0
  139.7750   76.4490  222.5540 C   0  0  0  0  0  0  0  0  0  0  0  0
  141.0500   76.2140  221.7490 C   0  0  0  0  0  0  0  0  0  0  0  0
  141.3420   74.7670  221.5640 C   0  0  0  0  0  0  0  0  0  0  0  0
  140.0540   74.0210  221.2840 N   0  0  0  0  0  0  0  0  0  0  0  0
  140.1420   72.6640  221.5610 C   0  0  0  0  0  0  0  0  0  0  0  0
  141.3540   72.3470  221.9970 O   0  0  0  0  0  0  0  0  0  0  0  0
  139.2590   71.5640  221.4890 C   0  0  0  0  0  0  0  0  0  0  0  0
  138.5400   70.9760  222.4140 C   0  0  0  0  0  0  0  0  0  0  0  0
  139.0400   70.5620  223.7200 C   0  0  0  0  0  0  0  0  0  0  0  0
  138.9320   69.2240  224.1270 C   0  0  0  0  0  0  0  0  0  0  0  0
  139.3910   68.7970  225.3520 C   0  0  0  0  0  0  0  0  0  0  0  0
  139.9910   69.6710  226.2550 C   0  0  0  0  0  0  0  0  0  0  0  0
  140.4360   69.2060  227.4700 C   0  0  0  0  0  0  0  0  0  0  0  0
  141.0260   70.1130  228.3450 C   0  0  0  0  0  0  0  0  0  0  0  0
  141.1460   71.4460  227.9690 C   0  0  0  0  0  0  0  0  0  0  0  0
  140.6890   71.8740  226.7420 C   0  0  0  0  0  0  0  0  0  0  0  0
  140.1000   70.9820  225.8630 C   0  0  0  0  0  0  0  0  0  0  0  0
  139.6340   71.4070  224.6260 C   0  0  0  0  0  0  0  0  0  0  0  0
  139.0200   74.8630  220.7930 C   0  0  0  0  0  0  0  0  0  0  0  0
  138.5900   75.7830  221.9320 C   0  0  0  0  0  0  0  0  0  0  0  0
  138.0254   80.0172  224.4928 H   0  0  0  0  0  0  0  0  0  0  0  0
  139.0812   81.1959  223.6427 H   0  0  0  0  0  0  0  0  0  0  0  0
  137.2994   81.4232  223.6427 H   0  0  0  0  0  0  0  0  0  0  0  0
  136.9963   79.9444  221.9043 H   0  0  0  0  0  0  0  0  0  0  0  0
  138.7253   80.1952  221.5801 H   0  0  0  0  0  0  0  0  0  0  0  0
  140.5020   79.1294  220.6341 H   0  0  0  0  0  0  0  0  0  0  0  0
  142.4186   80.7158  220.5526 H   0  0  0  0  0  0  0  0  0  0  0  0
  143.6653   81.2085  222.6558 H   0  0  0  0  0  0  0  0  0  0  0  0
  142.9882   80.1349  224.7595 H   0  0  0  0  0  0  0  0  0  0  0  0
  141.0800   78.5473  224.8767 H   0  0  0  0  0  0  0  0  0  0  0  0
  139.8932   75.9980  223.5503 H   0  0  0  0  0  0  0  0  0  0  0  0
  140.9349   76.6810  220.7597 H   0  0  0  0  0  0  0  0  0  0  0  0
  141.8874   76.6576  222.3076 H   0  0  0  0  0  0  0  0  0  0  0  0
  142.0315   74.6380  220.7167 H   0  0  0  0  0  0  0  0  0  0  0  0
  141.8043   74.3676  222.4787 H   0  0  0  0  0  0  0  0  0  0  0  0
  139.1573   71.1259  220.4852 H   0  0  0  0  0  0  0  0  0  0  0  0
  137.4813   70.7804  222.1885 H   0  0  0  0  0  0  0  0  0  0  0  0
  138.4669   68.4949  223.4472 H   0  0  0  0  0  0  0  0  0  0  0  0
  139.2811   67.7371  225.6252 H   0  0  0  0  0  0  0  0  0  0  0  0
  140.3286   68.1458  227.7429 H   0  0  0  0  0  0  0  0  0  0  0  0
  141.3943   69.7781  229.3259 H   0  0  0  0  0  0  0  0  0  0  0  0
  141.6106   72.1663  228.6583 H   0  0  0  0  0  0  0  0  0  0  0  0
  140.7929   72.9319  226.4590 H   0  0  0  0  0  0  0  0  0  0  0  0
  139.7455   72.4683  224.3593 H   0  0  0  0  0  0  0  0  0  0  0  0
  139.3934   75.4613  219.9489 H   0  0  0  0  0  0  0  0  0  0  0  0
  138.1685   74.2620  220.4411 H   0  0  0  0  0  0  0  0  0  0  0  0
  137.9103   76.5523  221.5369 H   0  0  0  0  0  0  0  0  0  0  0  0
  138.0821   75.1800  222.6991 H   0  0  0  0  0  0  0  0  0  0  0  0
  1  2  1  0
  2  3  1  0
  3  4  2  0
  3  5  1  0
  5  6  1  0
  6  7  2  0
  7  8  1  0
  8  9  2  0
  9 10  1  0
 10 11  2  0
  5 12  1  0
 12 13  1  0
 13 14  1  0
 14 15  1  0
 15 16  1  0
 16 17  2  0
 16 18  1  0
 18 19  2  0
 19 20  1  0
 20 21  2  0
 21 22  1  0
 22 23  2  0
 23 24  1  0
 24 25  2  0
 25 26  1  0
 26 27  2  0
 27 28  1  0
 28 29  2  0
 15 30  1  0
 30 31  1  0
 11  6  1  0
 31 12  1  0
 29 20  1  0
 28 23  1  0
  1 32  1  0
  1 33  1  0
  1 34  1  0
  2 35  1  0
  2 36  1  0
  7 37  1  0
  8 38  1  0
  9 39  1  0
 10 40  1  0
 11 41  1  0
 12 42  1  0
 13 43  1  0
 13 44  1  0
 14 45  1  0
 14 46  1  0
 18 47  1  0
 19 48  1  0
 21 49  1  0
 22 50  1  0
 24 51  1  0
 25 52  1  0
 26 53  1  0
 27 54  1  0
 29 55  1  0
 30 56  1  0
 30 57  1  0
 31 58  1  0
 31 59  1  0
M  END
>  <smiles>  (15) 
CCC(=O)N(c1ccccc1)C1CCN(C(=O)/C=C/c2ccc3ccccc3c2)CC1

>  <score_type>  (15) 
oracle

>  <origin>  (15) 
autodockgpu

>  <m_score__min__energy>  (15) 
-9.4600000000000009

>  <m_primary>  (15) 
energy

>  <rmsd>  (15) 
5.73909619643008

>  <m_score__min__rmsd>  (15) 
5.73909619643008

>  <meeko>  (15) 
{"free_energy": -9.01, "intermolecular_energy": -11.1, "internal_energy": -1.36, "cluster_size": 43, "cluster_id": 1, "rank_in_cluster": 28}

>  <energy>  (15) 
-9.18

>  <cluster_rmsd>  (15) 
1.68

>  <cluster>  (15) 
1

$$$$

     RDKit          3D

 59 62  0  0  0  0  0  0  0  0999 V2000
  137.8600   80.9510  224.3970 C   0  0  0  0  0  0  0  0  0  0  0  0
  137.0850   79.8280  223.6970 C   0  0  0  0  0  0  0  0  0  0  0  0
  137.8960   79.4160  222.5180 C   0  0  0  0  0  0  0  0  0  0  0  0
  137.3650   79.6480  221.3780 O   0  0  0  0  0  0  0  0  0  0  0  0
  139.1810   78.8090  222.6380 N   0  0  0  0  0  0  0  0  0  0  0  0
  140.3150   79.6900  222.7500 C   0  0  0  0  0  0  0  0  0  0  0  0
  141.1840   79.4170  223.8210 C   0  0  0  0  0  0  0  0  0  0  0  0
  142.3080   80.1950  224.0340 C   0  0  0  0  0  0  0  0  0  0  0  0
  142.5560   81.2430  223.1730 C   0  0  0  0  0  0  0  0  0  0  0  0
  141.6870   81.4880  222.1280 C   0  0  0  0  0  0  0  0  0  0  0  0
  140.5550   80.7260  221.8900 C   0  0  0  0  0  0  0  0  0  0  0  0
  139.3600   77.3950  222.6240 C   0  0  0  0  0  0  0  0  0  0  0  0
  140.5900   77.0660  221.7820 C   0  0  0  0  0  0  0  0  0  0  0  0
  140.8520   75.6040  221.7130 C   0  0  0  0  0  0  0  0  0  0  0  0
  139.5410   74.8600  221.5630 N   0  0  0  0  0  0  0  0  0  0  0  0
  139.6230   73.5320  221.9560 C   0  0  0  0  0  0  0  0  0  0  0  0
  140.8510   73.2310  222.3590 O   0  0  0  0  0  0  0  0  0  0  0  0
  138.7230   72.4460  222.0250 C   0  0  0  0  0  0  0  0  0  0  0  0
  138.9250   71.1760  222.2840 C   0  0  0  0  0  0  0  0  0  0  0  0
  139.1680   70.6250  223.6120 C   0  0  0  0  0  0  0  0  0  0  0  0
  138.6270   69.3830  223.9720 C   0  0  0  0  0  0  0  0  0  0  0  0
  138.8340   68.8330  225.2170 C   0  0  0  0  0  0  0  0  0  0  0  0
  139.5940   69.4810  226.1880 C   0  0  0  0  0  0  0  0  0  0  0  0
  139.7760   68.9000  227.4190 C   0  0  0  0  0  0  0  0  0  0  0  0
  140.5380   69.5820  228.3630 C   0  0  0  0  0  0  0  0  0  0  0  0
  141.0860   70.8170  228.0340 C   0  0  0  0  0  0  0  0  0  0  0  0
  140.8820   71.3670  226.7870 C   0  0  0  0  0  0  0  0  0  0  0  0
  140.1260   70.6980  225.8410 C   0  0  0  0  0  0  0  0  0  0  0  0
  139.9130   71.2480  224.5840 C   0  0  0  0  0  0  0  0  0  0  0  0
  138.4960   75.6740  221.0500 C   0  0  0  0  0  0  0  0  0  0  0  0
  138.1370   76.6990  222.1220 C   0  0  0  0  0  0  0  0  0  0  0  0
  137.7764   80.8299  225.4871 H   0  0  0  0  0  0  0  0  0  0  0  0
  138.9189   80.9042  224.1030 H   0  0  0  0  0  0  0  0  0  0  0  0
  137.4405   81.9245  224.1030 H   0  0  0  0  0  0  0  0  0  0  0  0
  136.9513   78.9768  224.3808 H   0  0  0  0  0  0  0  0  0  0  0  0
  136.0861   80.1703  223.3889 H   0  0  0  0  0  0  0  0  0  0  0  0
  140.9680   78.5762  224.4965 H   0  0  0  0  0  0  0  0  0  0  0  0
  142.9886   79.9823  224.8715 H   0  0  0  0  0  0  0  0  0  0  0  0
  143.4409   81.8802  223.3176 H   0  0  0  0  0  0  0  0  0  0  0  0
  141.9042   82.3284  221.4524 H   0  0  0  0  0  0  0  0  0  0  0  0
  139.8807   80.9439  221.0487 H   0  0  0  0  0  0  0  0  0  0  0  0
  139.5217   77.0320  223.6497 H   0  0  0  0  0  0  0  0  0  0  0  0
  140.4321   77.4456  220.7617 H   0  0  0  0  0  0  0  0  0  0  0  0
  141.4604   77.5418  222.2575 H   0  0  0  0  0  0  0  0  0  0  0  0
  141.4967   75.3879  220.8483 H   0  0  0  0  0  0  0  0  0  0  0  0
  141.3535   75.2785  222.6363 H   0  0  0  0  0  0  0  0  0  0  0  0
  137.6735   72.7101  221.8279 H   0  0  0  0  0  0  0  0  0  0  0  0
  138.9100   70.4748  221.4366 H   0  0  0  0  0  0  0  0  0  0  0  0
  138.0197   68.8320  223.2388 H   0  0  0  0  0  0  0  0  0  0  0  0
  138.3872   67.8555  225.4513 H   0  0  0  0  0  0  0  0  0  0  0  0
  139.3313   67.9214  227.6527 H   0  0  0  0  0  0  0  0  0  0  0  0
  140.7052   69.1482  229.3599 H   0  0  0  0  0  0  0  0  0  0  0  0
  141.6885   71.3605  228.7767 H   0  0  0  0  0  0  0  0  0  0  0  0
  141.3232   72.3444  226.5422 H   0  0  0  0  0  0  0  0  0  0  0  0
  140.3608   72.2265  224.3561 H   0  0  0  0  0  0  0  0  0  0  0  0
  138.8349   76.1883  220.1386 H   0  0  0  0  0  0  0  0  0  0  0  0
  137.6195   75.0602  220.7952 H   0  0  0  0  0  0  0  0  0  0  0  0
  137.4495   77.4430  221.6933 H   0  0  0  0  0  0  0  0  0  0  0  0
  137.6598   76.1754  222.9635 H   0  0  0  0  0  0  0  0  0  0  0  0
  1  2  1  0
  2  3  1  0
  3  4  2  0
  3  5  1  0
  5  6  1  0
  6  7  2  0
  7  8  1  0
  8  9  2  0
  9 10  1  0
 10 11  2  0
  5 12  1  0
 12 13  1  0
 13 14  1  0
 14 15  1  0
 15 16  1  0
 16 17  2  0
 16 18  1  0
 18 19  2  0
 19 20  1  0
 20 21  2  0
 21 22  1  0
 22 23  2  0
 23 24  1  0
 24 25  2  0
 25 26  1  0
 26 27  2  0
 27 28  1  0
 28 29  2  0
 15 30  1  0
 30 31  1  0
 11  6  1  0
 31 12  1  0
 29 20  1  0
 28 23  1  0
  1 32  1  0
  1 33  1  0
  1 34  1  0
  2 35  1  0
  2 36  1  0
  7 37  1  0
  8 38  1  0
  9 39  1  0
 10 40  1  0
 11 41  1  0
 12 42  1  0
 13 43  1  0
 13 44  1  0
 14 45  1  0
 14 46  1  0
 18 47  1  0
 19 48  1  0
 21 49  1  0
 22 50  1  0
 24 51  1  0
 25 52  1  0
 26 53  1  0
 27 54  1  0
 29 55  1  0
 30 56  1  0
 30 57  1  0
 31 58  1  0
 31 59  1  0
M  END
>  <smiles>  (16) 
CCC(=O)N(c1ccccc1)C1CCN(C(=O)/C=C/c2ccc3ccccc3c2)CC1

>  <score_type>  (16) 
oracle

>  <origin>  (16) 
autodockgpu

>  <m_score__min__energy>  (16) 
-9.4600000000000009

>  <m_primary>  (16) 
energy

>  <rmsd>  (16) 
6.0622131187245465

>  <m_score__min__rmsd>  (16) 
6.0622131187245465

>  <meeko>  (16) 
{"free_energy": -9.24, "intermolecular_energy": -11.33, "internal_energy": -1.42, "cluster_size": 43, "cluster_id": 1, "rank_in_cluster": 10}

>  <energy>  (16) 
-9.18

>  <cluster_rmsd>  (16) 
1.64

>  <cluster>  (16) 
1

$$$$

     RDKit          3D

 59 62  0  0  0  0  0  0  0  0999 V2000
  137.7160   80.8940  224.4180 C   0  0  0  0  0  0  0  0  0  0  0  0
  137.0970   79.7890  223.5520 C   0  0  0  0  0  0  0  0  0  0  0  0
  138.0780   79.4900  222.4710 C   0  0  0  0  0  0  0  0  0  0  0  0
  137.7100   79.8160  221.2910 O   0  0  0  0  0  0  0  0  0  0  0  0
  139.3460   78.8870  222.7240 N   0  0  0  0  0  0  0  0  0  0  0  0
  140.4450   79.7690  223.0210 C   0  0  0  0  0  0  0  0  0  0  0  0
  141.4400   79.2300  223.8540 C   0  0  0  0  0  0  0  0  0  0  0  0
  142.5440   79.9820  224.2120 C   0  0  0  0  0  0  0  0  0  0  0  0
  142.6470   81.2710  223.7340 C   0  0  0  0  0  0  0  0  0  0  0  0
  141.6550   81.7760  222.9160 C   0  0  0  0  0  0  0  0  0  0  0  0
  140.5390   81.0470  222.5410 C   0  0  0  0  0  0  0  0  0  0  0  0
  139.5440   77.4770  222.6650 C   0  0  0  0  0  0  0  0  0  0  0  0
  140.5030   77.1660  221.5180 C   0  0  0  0  0  0  0  0  0  0  0  0
  140.7660   75.7090  221.3830 C   0  0  0  0  0  0  0  0  0  0  0  0
  139.4810   74.9380  221.6000 N   0  0  0  0  0  0  0  0  0  0  0  0
  139.6960   73.6140  221.9580 C   0  0  0  0  0  0  0  0  0  0  0  0
  140.9930   73.3420  222.0100 O   0  0  0  0  0  0  0  0  0  0  0  0
  138.8720   72.5110  222.2730 C   0  0  0  0  0  0  0  0  0  0  0  0
  139.1740   71.2900  222.6420 C   0  0  0  0  0  0  0  0  0  0  0  0
  139.6400   70.9120  223.9710 C   0  0  0  0  0  0  0  0  0  0  0  0
  140.3580   71.8260  224.7560 C   0  0  0  0  0  0  0  0  0  0  0  0
  140.8140   71.5040  226.0130 C   0  0  0  0  0  0  0  0  0  0  0  0
  140.5860   70.2510  226.5770 C   0  0  0  0  0  0  0  0  0  0  0  0
  141.0590   69.9680  227.8360 C   0  0  0  0  0  0  0  0  0  0  0  0
  140.8140   68.7030  228.3620 C   0  0  0  0  0  0  0  0  0  0  0  0
  140.1050   67.7760  227.6060 C   0  0  0  0  0  0  0  0  0  0  0  0
  139.6450   68.0980  226.3480 C   0  0  0  0  0  0  0  0  0  0  0  0
  139.8840   69.3520  225.8150 C   0  0  0  0  0  0  0  0  0  0  0  0
  139.4270   69.6820  224.5460 C   0  0  0  0  0  0  0  0  0  0  0  0
  138.3180   75.7270  221.3910 C   0  0  0  0  0  0  0  0  0  0  0  0
  138.2440   76.7530  222.5180 C   0  0  0  0  0  0  0  0  0  0  0  0
  137.5779   80.6474  225.4811 H   0  0  0  0  0  0  0  0  0  0  0  0
  138.7905   80.9745  224.1969 H   0  0  0  0  0  0  0  0  0  0  0  0
  137.2234   81.8524  224.1969 H   0  0  0  0  0  0  0  0  0  0  0  0
  136.9156   78.8894  224.1584 H   0  0  0  0  0  0  0  0  0  0  0  0
  136.1322   80.1099  223.1322 H   0  0  0  0  0  0  0  0  0  0  0  0
  141.3398   78.1994  224.2251 H   0  0  0  0  0  0  0  0  0  0  0  0
  143.3232   79.5607  224.8642 H   0  0  0  0  0  0  0  0  0  0  0  0
  143.5135   81.8933  224.0022 H   0  0  0  0  0  0  0  0  0  0  0  0
  141.7564   82.8065  222.5448 H   0  0  0  0  0  0  0  0  0  0  0  0
  139.7643   81.4752  221.8879 H   0  0  0  0  0  0  0  0  0  0  0  0
  139.9879   77.1251  223.6079 H   0  0  0  0  0  0  0  0  0  0  0  0
  140.0636   77.5348  220.5794 H   0  0  0  0  0  0  0  0  0  0  0  0
  141.4603   77.6625  221.7352 H   0  0  0  0  0  0  0  0  0  0  0  0
  141.1531   75.4988  220.3750 H   0  0  0  0  0  0  0  0  0  0  0  0
  141.5079   75.4008  222.1344 H   0  0  0  0  0  0  0  0  0  0  0  0
  137.7930   72.7106  222.1955 H   0  0  0  0  0  0  0  0  0  0  0  0
  139.0680   70.4910  221.8934 H   0  0  0  0  0  0  0  0  0  0  0  0
  140.5624   72.8296  224.3547 H   0  0  0  0  0  0  0  0  0  0  0  0
  141.3737   72.2561  226.5883 H   0  0  0  0  0  0  0  0  0  0  0  0
  141.6163   70.7211  228.4124 H   0  0  0  0  0  0  0  0  0  0  0  0
  141.1777   68.4391  229.3660 H   0  0  0  0  0  0  0  0  0  0  0  0
  139.9093   66.7746  228.0169 H   0  0  0  0  0  0  0  0  0  0  0  0
  139.0843   67.3535  225.7638 H   0  0  0  0  0  0  0  0  0  0  0  0
  138.8694   68.9249  223.9752 H   0  0  0  0  0  0  0  0  0  0  0  0
  138.3833   76.2407  220.4205 H   0  0  0  0  0  0  0  0  0  0  0  0
  137.4186   75.0936  221.3873 H   0  0  0  0  0  0  0  0  0  0  0  0
  137.4501   77.4801  222.2919 H   0  0  0  0  0  0  0  0  0  0  0  0
  138.0257   76.2270  223.4591 H   0  0  0  0  0  0  0  0  0  0  0  0
  1  2  1  0
  2  3  1  0
  3  4  2  0
  3  5  1  0
  5  6  1  0
  6  7  2  0
  7  8  1  0
  8  9  2  0
  9 10  1  0
 10 11  2  0
  5 12  1  0
 12 13  1  0
 13 14  1  0
 14 15  1  0
 15 16  1  0
 16 17  2  0
 16 18  1  0
 18 19  2  0
 19 20  1  0
 20 21  2  0
 21 22  1  0
 22 23  2  0
 23 24  1  0
 24 25  2  0
 25 26  1  0
 26 27  2  0
 27 28  1  0
 28 29  2  0
 15 30  1  0
 30 31  1  0
 11  6  1  0
 31 12  1  0
 29 20  1  0
 28 23  1  0
  1 32  1  0
  1 33  1  0
  1 34  1  0
  2 35  1  0
  2 36  1  0
  7 37  1  0
  8 38  1  0
  9 39  1  0
 10 40  1  0
 11 41  1  0
 12 42  1  0
 13 43  1  0
 13 44  1  0
 14 45  1  0
 14 46  1  0
 18 47  1  0
 19 48  1  0
 21 49  1  0
 22 50  1  0
 24 51  1  0
 25 52  1  0
 26 53  1  0
 27 54  1  0
 29 55  1  0
 30 56  1  0
 30 57  1  0
 31 58  1  0
 31 59  1  0
M  END
>  <smiles>  (17) 
CCC(=O)N(c1ccccc1)C1CCN(C(=O)/C=C/c2ccc3ccccc3c2)CC1

>  <score_type>  (17) 
oracle

>  <origin>  (17) 
autodockgpu

>  <m_score__min__energy>  (17) 
-9.4600000000000009

>  <m_primary>  (17) 
energy

>  <rmsd>  (17) 
6.182652419955256

>  <m_score__min__rmsd>  (17) 
6.182652419955256

>  <meeko>  (17) 
{"free_energy": -9.42, "intermolecular_energy": -11.51, "internal_energy": -1.4, "cluster_size": 43, "cluster_id": 1, "rank_in_cluster": 3}

>  <energy>  (17) 
-9.16

>  <cluster_rmsd>  (17) 
1.24

>  <cluster>  (17) 
1

$$$$

     RDKit          3D

 59 62  0  0  0  0  0  0  0  0999 V2000
  142.9220   77.3820  217.9170 C   0  0  0  0  0  0  0  0  0  0  0  0
  141.6510   78.2350  218.0150 C   0  0  0  0  0  0  0  0  0  0  0  0
  141.8210   79.1260  219.1960 C   0  0  0  0  0  0  0  0  0  0  0  0
  142.4820   80.1990  218.9840 O   0  0  0  0  0  0  0  0  0  0  0  0
  141.2840   78.8160  220.4810 N   0  0  0  0  0  0  0  0  0  0  0  0
  141.5620   79.7410  221.5500 C   0  0  0  0  0  0  0  0  0  0  0  0
  142.5600   79.3350  222.4510 C   0  0  0  0  0  0  0  0  0  0  0  0
  142.9140   80.1380  223.5210 C   0  0  0  0  0  0  0  0  0  0  0  0
  142.2660   81.3440  223.6820 C   0  0  0  0  0  0  0  0  0  0  0  0
  141.2890   81.7190  222.7800 C   0  0  0  0  0  0  0  0  0  0  0  0
  140.9150   80.9370  221.7000 C   0  0  0  0  0  0  0  0  0  0  0  0
  140.5250   77.6350  220.7250 C   0  0  0  0  0  0  0  0  0  0  0  0
  139.7610   77.8060  222.0360 C   0  0  0  0  0  0  0  0  0  0  0  0
  138.9380   76.6130  222.3690 C   0  0  0  0  0  0  0  0  0  0  0  0
  139.7110   75.3540  222.0360 N   0  0  0  0  0  0  0  0  0  0  0  0
  138.8940   74.2450  221.8630 C   0  0  0  0  0  0  0  0  0  0  0  0
  137.6190   74.5620  222.0470 O   0  0  0  0  0  0  0  0  0  0  0  0
  139.0980   72.8850  221.5420 C   0  0  0  0  0  0  0  0  0  0  0  0
  139.9890   72.0250  221.9750 C   0  0  0  0  0  0  0  0  0  0  0  0
  139.9540   71.3750  223.2800 C   0  0  0  0  0  0  0  0  0  0  0  0
  139.2990   70.1460  223.4420 C   0  0  0  0  0  0  0  0  0  0  0  0
  139.2450   69.5060  224.6580 C   0  0  0  0  0  0  0  0  0  0  0  0
  139.8400   70.0430  225.7970 C   0  0  0  0  0  0  0  0  0  0  0  0
  139.7630   69.3730  226.9940 C   0  0  0  0  0  0  0  0  0  0  0  0
  140.3680   69.9460  228.1090 C   0  0  0  0  0  0  0  0  0  0  0  0
  141.0240   71.1640  227.9780 C   0  0  0  0  0  0  0  0  0  0  0  0
  141.0810   71.8050  226.7610 C   0  0  0  0  0  0  0  0  0  0  0  0
  140.4830   71.2460  225.6450 C   0  0  0  0  0  0  0  0  0  0  0  0
  140.5340   71.8880  224.4150 C   0  0  0  0  0  0  0  0  0  0  0  0
  141.1140   75.5640  221.9700 C   0  0  0  0  0  0  0  0  0  0  0  0
  141.3980   76.4220  220.7410 C   0  0  0  0  0  0  0  0  0  0  0  0
  143.2808   77.1412  218.9286 H   0  0  0  0  0  0  0  0  0  0  0  0
  142.6978   76.4508  217.3761 H   0  0  0  0  0  0  0  0  0  0  0  0
  143.6988   77.9423  217.3761 H   0  0  0  0  0  0  0  0  0  0  0  0
  141.5268   78.8359  217.1020 H   0  0  0  0  0  0  0  0  0  0  0  0
  140.7580   77.6019  218.1234 H   0  0  0  0  0  0  0  0  0  0  0  0
  143.0653   78.3690  222.3047 H   0  0  0  0  0  0  0  0  0  0  0  0
  143.6953   79.8209  224.2275 H   0  0  0  0  0  0  0  0  0  0  0  0
  142.5252   82.0036  224.5233 H   0  0  0  0  0  0  0  0  0  0  0  0
  140.7839   82.6851  222.9267 H   0  0  0  0  0  0  0  0  0  0  0  0
  140.1347   81.2621  220.9961 H   0  0  0  0  0  0  0  0  0  0  0  0
  139.8038   77.4838  219.9083 H   0  0  0  0  0  0  0  0  0  0  0  0
  140.4842   77.9746  222.8475 H   0  0  0  0  0  0  0  0  0  0  0  0
  139.0807   78.6626  221.9199 H   0  0  0  0  0  0  0  0  0  0  0  0
  138.6977   76.6220  223.4424 H   0  0  0  0  0  0  0  0  0  0  0  0
  138.0072   76.6361  221.7833 H   0  0  0  0  0  0  0  0  0  0  0  0
  138.3905   72.4782  220.8045 H   0  0  0  0  0  0  0  0  0  0  0  0
  140.8243   71.7757  221.3041 H   0  0  0  0  0  0  0  0  0  0  0  0
  138.8143   69.6802  222.5713 H   0  0  0  0  0  0  0  0  0  0  0  0
  138.7175   68.5437  224.7331 H   0  0  0  0  0  0  0  0  0  0  0  0
  139.2374   68.4096  227.0692 H   0  0  0  0  0  0  0  0  0  0  0  0
  140.3272   69.4395  229.0846 H   0  0  0  0  0  0  0  0  0  0  0  0
  141.5030   71.6210  228.8564 H   0  0  0  0  0  0  0  0  0  0  0  0
  141.6054   72.7681  226.6750 H   0  0  0  0  0  0  0  0  0  0  0  0
  141.0624   72.8503  224.3461 H   0  0  0  0  0  0  0  0  0  0  0  0
  141.4580   76.0831  222.8767 H   0  0  0  0  0  0  0  0  0  0  0  0
  141.6442   74.6028  221.8993 H   0  0  0  0  0  0  0  0  0  0  0  0
  142.4519   76.7368  220.7571 H   0  0  0  0  0  0  0  0  0  0  0  0
  141.1890   75.8263  219.8402 H   0  0  0  0  0  0  0  0  0  0  0  0
  1  2  1  0
  2  3  1  0
  3  4  2  0
  3  5  1  0
  5  6  1  0
  6  7  2  0
  7  8  1  0
  8  9  2  0
  9 10  1  0
 10 11  2  0
  5 12  1  0
 12 13  1  0
 13 14  1  0
 14 15  1  0
 15 16  1  0
 16 17  2  0
 16 18  1  0
 18 19  2  0
 19 20  1  0
 20 21  2  0
 21 22  1  0
 22 23  2  0
 23 24  1  0
 24 25  2  0
 25 26  1  0
 26 27  2  0
 27 28  1  0
 28 29  2  0
 15 30  1  0
 30 31  1  0
 11  6  1  0
 31 12  1  0
 29 20  1  0
 28 23  1  0
  1 32  1  0
  1 33  1  0
  1 34  1  0
  2 35  1  0
  2 36  1  0
  7 37  1  0
  8 38  1  0
  9 39  1  0
 10 40  1  0
 11 41  1  0
 12 42  1  0
 13 43  1  0
 13 44  1  0
 14 45  1  0
 14 46  1  0
 18 47  1  0
 19 48  1  0
 21 49  1  0
 22 50  1  0
 24 51  1  0
 25 52  1  0
 26 53  1  0
 27 54  1  0
 29 55  1  0
 30 56  1  0
 30 57  1  0
 31 58  1  0
 31 59  1  0
M  END
>  <smiles>  (18) 
CCC(=O)N(c1ccccc1)C1CCN(C(=O)/C=C/c2ccc3ccccc3c2)CC1

>  <score_type>  (18) 
oracle

>  <origin>  (18) 
autodockgpu

>  <m_score__min__energy>  (18) 
-9.4600000000000009

>  <m_primary>  (18) 
energy

>  <rmsd>  (18) 
5.925487763024694

>  <m_score__min__rmsd>  (18) 
5.925487763024694

>  <meeko>  (18) 
{"free_energy": -8.99, "intermolecular_energy": -11.08, "internal_energy": -1.49, "cluster_size": 43, "cluster_id": 1, "rank_in_cluster": 31}

>  <energy>  (18) 
-9.15

>  <cluster_rmsd>  (18) 
1.91

>  <cluster>  (18) 
1

$$$$

     RDKit          3D

 59 62  0  0  0  0  0  0  0  0999 V2000
  142.6120   77.9610  217.7580 C   0  0  0  0  0  0  0  0  0  0  0  0
  142.4770   79.2660  218.5520 C   0  0  0  0  0  0  0  0  0  0  0  0
  141.1300   79.2430  219.1900 C   0  0  0  0  0  0  0  0  0  0  0  0
  140.1720   79.6780  218.4640 O   0  0  0  0  0  0  0  0  0  0  0  0
  140.9120   78.7650  220.5160 N   0  0  0  0  0  0  0  0  0  0  0  0
  141.3050   79.6290  221.5990 C   0  0  0  0  0  0  0  0  0  0  0  0
  142.4800   79.2540  222.2710 C   0  0  0  0  0  0  0  0  0  0  0  0
  142.9580   80.0040  223.3300 C   0  0  0  0  0  0  0  0  0  0  0  0
  142.2550   81.1280  223.7110 C   0  0  0  0  0  0  0  0  0  0  0  0
  141.1040   81.4750  223.0320 C   0  0  0  0  0  0  0  0  0  0  0  0
  140.6020   80.7440  221.9680 C   0  0  0  0  0  0  0  0  0  0  0  0
  140.3540   77.4810  220.7800 C   0  0  0  0  0  0  0  0  0  0  0  0
  139.8920   77.4380  222.2350 C   0  0  0  0  0  0  0  0  0  0  0  0
  139.2940   76.1260  222.5980 C   0  0  0  0  0  0  0  0  0  0  0  0
  140.0980   75.0090  221.9680 N   0  0  0  0  0  0  0  0  0  0  0  0
  139.3830   73.8250  221.8480 C   0  0  0  0  0  0  0  0  0  0  0  0
  138.1570   73.9610  222.3350 O   0  0  0  0  0  0  0  0  0  0  0  0
  139.6510   72.5350  221.3400 C   0  0  0  0  0  0  0  0  0  0  0  0
  140.2320   71.4970  221.8910 C   0  0  0  0  0  0  0  0  0  0  0  0
  140.1160   71.1270  223.2970 C   0  0  0  0  0  0  0  0  0  0  0  0
  139.3700   70.0010  223.6730 C   0  0  0  0  0  0  0  0  0  0  0  0
  139.2370   69.6230  224.9890 C   0  0  0  0  0  0  0  0  0  0  0  0
  139.8390   70.3380  226.0220 C   0  0  0  0  0  0  0  0  0  0  0  0
  139.6810   69.9280  227.3240 C   0  0  0  0  0  0  0  0  0  0  0  0
  140.2960   70.6730  228.3260 C   0  0  0  0  0  0  0  0  0  0  0  0
  141.0420   71.7950  227.9830 C   0  0  0  0  0  0  0  0  0  0  0  0
  141.1780   72.1730  226.6660 C   0  0  0  0  0  0  0  0  0  0  0  0
  140.5710   71.4410  225.6610 C   0  0  0  0  0  0  0  0  0  0  0  0
  140.7010   71.8180  224.3310 C   0  0  0  0  0  0  0  0  0  0  0  0
  141.4220   75.4000  221.6280 C   0  0  0  0  0  0  0  0  0  0  0  0
  141.3300   76.3910  220.4720 C   0  0  0  0  0  0  0  0  0  0  0  0
  142.6995   77.1149  218.4554 H   0  0  0  0  0  0  0  0  0  0  0  0
  141.7233   77.8236  217.1245 H   0  0  0  0  0  0  0  0  0  0  0  0
  143.5100   78.0084  217.1245 H   0  0  0  0  0  0  0  0  0  0  0  0
  143.2602   79.3236  219.3223 H   0  0  0  0  0  0  0  0  0  0  0  0
  142.5885   80.1415  217.8954 H   0  0  0  0  0  0  0  0  0  0  0  0
  143.0259   78.3540  221.9515 H   0  0  0  0  0  0  0  0  0  0  0  0
  143.8781   79.7108  223.8567 H   0  0  0  0  0  0  0  0  0  0  0  0
  142.6092   81.7441  224.5506 H   0  0  0  0  0  0  0  0  0  0  0  0
  140.5593   82.3756  223.3515 H   0  0  0  0  0  0  0  0  0  0  0  0
  139.6825   81.0451  221.4447 H   0  0  0  0  0  0  0  0  0  0  0  0
  139.4872   77.3127  220.1240 H   0  0  0  0  0  0  0  0  0  0  0  0
  140.7581   77.6246  222.8869 H   0  0  0  0  0  0  0  0  0  0  0  0
  139.1179   78.2086  222.3655 H   0  0  0  0  0  0  0  0  0  0  0  0
  139.3017   76.0104  223.6919 H   0  0  0  0  0  0  0  0  0  0  0  0
  138.2583   76.0826  222.2301 H   0  0  0  0  0  0  0  0  0  0  0  0
  139.3149   72.3735  220.3051 H   0  0  0  0  0  0  0  0  0  0  0  0
  140.8526   70.8581  221.2455 H   0  0  0  0  0  0  0  0  0  0  0  0
  138.8767   69.4024  222.8930 H   0  0  0  0  0  0  0  0  0  0  0  0
  138.6392   68.7322  225.2322 H   0  0  0  0  0  0  0  0  0  0  0  0
  139.0852   69.0360  227.5675 H   0  0  0  0  0  0  0  0  0  0  0  0
  140.1927   70.3766  229.3803 H   0  0  0  0  0  0  0  0  0  0  0  0
  141.5287   72.3870  228.7721 H   0  0  0  0  0  0  0  0  0  0  0  0
  141.7729   73.0625  226.4113 H   0  0  0  0  0  0  0  0  0  0  0  0
  141.2993   72.7101  224.0942 H   0  0  0  0  0  0  0  0  0  0  0  0
  141.9056   75.8772  222.4931 H   0  0  0  0  0  0  0  0  0  0  0  0
  142.0202   74.5237  221.3378 H   0  0  0  0  0  0  0  0  0  0  0  0
  142.3216   76.8341  220.2977 H   0  0  0  0  0  0  0  0  0  0  0  0
  140.9861   75.8543  219.5755 H   0  0  0  0  0  0  0  0  0  0  0  0
  1  2  1  0
  2  3  1  0
  3  4  2  0
  3  5  1  0
  5  6  1  0
  6  7  2  0
  7  8  1  0
  8  9  2  0
  9 10  1  0
 10 11  2  0
  5 12  1  0
 12 13  1  0
 13 14  1  0
 14 15  1  0
 15 16  1  0
 16 17  2  0
 16 18  1  0
 18 19  2  0
 19 20  1  0
 20 21  2  0
 21 22  1  0
 22 23  2  0
 23 24  1  0
 24 25  2  0
 25 26  1  0
 26 27  2  0
 27 28  1  0
 28 29  2  0
 15 30  1  0
 30 31  1  0
 11  6  1  0
 31 12  1  0
 29 20  1  0
 28 23  1  0
  1 32  1  0
  1 33  1  0
  1 34  1  0
  2 35  1  0
  2 36  1  0
  7 37  1  0
  8 38  1  0
  9 39  1  0
 10 40  1  0
 11 41  1  0
 12 42  1  0
 13 43  1  0
 13 44  1  0
 14 45  1  0
 14 46  1  0
 18 47  1  0
 19 48  1  0
 21 49  1  0
 22 50  1  0
 24 51  1  0
 25 52  1  0
 26 53  1  0
 27 54  1  0
 29 55  1  0
 30 56  1  0
 30 57  1  0
 31 58  1  0
 31 59  1  0
M  END
>  <smiles>  (19) 
CCC(=O)N(c1ccccc1)C1CCN(C(=O)/C=C/c2ccc3ccccc3c2)CC1

>  <score_type>  (19) 
oracle

>  <origin>  (19) 
autodockgpu

>  <m_score__min__energy>  (19) 
-9.4600000000000009

>  <m_primary>  (19) 
energy

>  <rmsd>  (19) 
5.924768072520908

>  <m_score__min__rmsd>  (19) 
5.924768072520908

>  <meeko>  (19) 
{"free_energy": -8.64, "intermolecular_energy": -10.73, "internal_energy": -1.58, "cluster_size": 43, "cluster_id": 1, "rank_in_cluster": 41}

>  <energy>  (19) 
-9.12

>  <cluster_rmsd>  (19) 
1.96

>  <cluster>  (19) 
1

$$$$

     RDKit          3D

 59 62  0  0  0  0  0  0  0  0999 V2000
  142.5890   80.9540  223.8460 C   0  0  0  0  0  0  0  0  0  0  0  0
  142.9810   79.9120  222.7910 C   0  0  0  0  0  0  0  0  0  0  0  0
  141.7760   79.6840  221.9440 C   0  0  0  0  0  0  0  0  0  0  0  0
  141.8330   80.1750  220.7650 O   0  0  0  0  0  0  0  0  0  0  0  0
  140.6340   78.9630  222.4040 N   0  0  0  0  0  0  0  0  0  0  0  0
  139.5240   79.7370  222.8960 C   0  0  0  0  0  0  0  0  0  0  0  0
  138.7920   80.4290  221.9160 C   0  0  0  0  0  0  0  0  0  0  0  0
  137.7040   81.2080  222.2670 C   0  0  0  0  0  0  0  0  0  0  0  0
  137.3550   81.2900  223.5980 C   0  0  0  0  0  0  0  0  0  0  0  0
  138.0900   80.5990  224.5400 C   0  0  0  0  0  0  0  0  0  0  0  0
  139.1830   79.8110  224.2190 C   0  0  0  0  0  0  0  0  0  0  0  0
  140.5830   77.5390  222.4080 C   0  0  0  0  0  0  0  0  0  0  0  0
  141.4140   77.0160  221.2390 C   0  0  0  0  0  0  0  0  0  0  0  0
  141.4160   75.5310  221.1670 C   0  0  0  0  0  0  0  0  0  0  0  0
  140.0300   75.0060  221.4780 N   0  0  0  0  0  0  0  0  0  0  0  0
  140.0320   73.6820  221.8940 C   0  0  0  0  0  0  0  0  0  0  0  0
  141.2640   73.1900  221.9040 O   0  0  0  0  0  0  0  0  0  0  0  0
  139.0480   72.7540  222.3010 C   0  0  0  0  0  0  0  0  0  0  0  0
  139.1500   71.5020  222.6790 C   0  0  0  0  0  0  0  0  0  0  0  0
  139.6220   71.0630  223.9880 C   0  0  0  0  0  0  0  0  0  0  0  0
  140.4650   71.8860  224.7480 C   0  0  0  0  0  0  0  0  0  0  0  0
  140.9300   71.5040  225.9860 C   0  0  0  0  0  0  0  0  0  0  0  0
  140.5880   70.2780  226.5510 C   0  0  0  0  0  0  0  0  0  0  0  0
  141.0740   69.9320  227.7890 C   0  0  0  0  0  0  0  0  0  0  0  0
  140.7120   68.6970  228.3170 C   0  0  0  0  0  0  0  0  0  0  0  0
  139.8770   67.8600  227.5840 C   0  0  0  0  0  0  0  0  0  0  0  0
  139.4080   68.2430  226.3470 C   0  0  0  0  0  0  0  0  0  0  0  0
  139.7630   69.4680  225.8110 C   0  0  0  0  0  0  0  0  0  0  0  0
  139.2970   69.8580  224.5630 C   0  0  0  0  0  0  0  0  0  0  0  0
  139.0110   75.9760  221.2800 C   0  0  0  0  0  0  0  0  0  0  0  0
  139.1730   77.0460  222.3550 C   0  0  0  0  0  0  0  0  0  0  0  0
  142.7465   80.5354  224.8510 H   0  0  0  0  0  0  0  0  0  0  0  0
  143.2103   81.8532  223.7218 H   0  0  0  0  0  0  0  0  0  0  0  0
  141.5291   81.2207  223.7218 H   0  0  0  0  0  0  0  0  0  0  0  0
  143.8108   80.2896  222.1755 H   0  0  0  0  0  0  0  0  0  0  0  0
  143.3141   78.9765  223.2642 H   0  0  0  0  0  0  0  0  0  0  0  0
  139.0872   80.3504  220.8593 H   0  0  0  0  0  0  0  0  0  0  0  0
  137.1301   81.7500  221.5009 H   0  0  0  0  0  0  0  0  0  0  0  0
  136.4955   81.9027  223.9077 H   0  0  0  0  0  0  0  0  0  0  0  0
  137.7935   80.6779  225.5964 H   0  0  0  0  0  0  0  0  0  0  0  0
  139.7500   79.2703  224.9911 H   0  0  0  0  0  0  0  0  0  0  0  0
  141.0077   77.1568  223.3480 H   0  0  0  0  0  0  0  0  0  0  0  0
  140.9972   77.4149  220.3024 H   0  0  0  0  0  0  0  0  0  0  0  0
  142.4522   77.3467  221.3900 H   0  0  0  0  0  0  0  0  0  0  0  0
  141.7093   75.2138  220.1554 H   0  0  0  0  0  0  0  0  0  0  0  0
  142.1316   75.1305  221.9001 H   0  0  0  0  0  0  0  0  0  0  0  0
  138.0211   73.1484  222.3010 H   0  0  0  0  0  0  0  0  0  0  0  0
  138.8582   70.7260  221.9560 H   0  0  0  0  0  0  0  0  0  0  0  0
  140.7632   72.8645  224.3436 H   0  0  0  0  0  0  0  0  0  0  0  0
  141.5893   72.1853  226.5438 H   0  0  0  0  0  0  0  0  0  0  0  0
  141.7320   70.6138  228.3478 H   0  0  0  0  0  0  0  0  0  0  0  0
  141.0825   68.3852  229.3047 H   0  0  0  0  0  0  0  0  0  0  0  0
  139.5883   66.8821  227.9967 H   0  0  0  0  0  0  0  0  0  0  0  0
  138.7466   67.5703  225.7813 H   0  0  0  0  0  0  0  0  0  0  0  0
  138.6385   69.1722  224.0099 H   0  0  0  0  0  0  0  0  0  0  0  0
  139.1135   76.4286  220.2827 H   0  0  0  0  0  0  0  0  0  0  0  0
  138.0171   75.5096  221.3478 H   0  0  0  0  0  0  0  0  0  0  0  0
  138.5048   77.8895  222.1272 H   0  0  0  0  0  0  0  0  0  0  0  0
  138.9174   76.6061  223.3303 H   0  0  0  0  0  0  0  0  0  0  0  0
  1  2  1  0
  2  3  1  0
  3  4  2  0
  3  5  1  0
  5  6  1  0
  6  7  2  0
  7  8  1  0
  8  9  2  0
  9 10  1  0
 10 11  2  0
  5 12  1  0
 12 13  1  0
 13 14  1  0
 14 15  1  0
 15 16  1  0
 16 17  2  0
 16 18  1  0
 18 19  2  0
 19 20  1  0
 20 21  2  0
 21 22  1  0
 22 23  2  0
 23 24  1  0
 24 25  2  0
 25 26  1  0
 26 27  2  0
 27 28  1  0
 28 29  2  0
 15 30  1  0
 30 31  1  0
 11  6  1  0
 31 12  1  0
 29 20  1  0
 28 23  1  0
  1 32  1  0
  1 33  1  0
  1 34  1  0
  2 35  1  0
  2 36  1  0
  7 37  1  0
  8 38  1  0
  9 39  1  0
 10 40  1  0
 11 41  1  0
 12 42  1  0
 13 43  1  0
 13 44  1  0
 14 45  1  0
 14 46  1  0
 18 47  1  0
 19 48  1  0
 21 49  1  0
 22 50  1  0
 24 51  1  0
 25 52  1  0
 26 53  1  0
 27 54  1  0
 29 55  1  0
 30 56  1  0
 30 57  1  0
 31 58  1  0
 31 59  1  0
M  END
>  <smiles>  (20) 
CCC(=O)N(c1ccccc1)C1CCN(C(=O)/C=C/c2ccc3ccccc3c2)CC1

>  <score_type>  (20) 
oracle

>  <origin>  (20) 
autodockgpu

>  <m_score__min__energy>  (20) 
-9.4600000000000009

>  <m_primary>  (20) 
energy

>  <rmsd>  (20) 
5.915483481054082

>  <m_score__min__rmsd>  (20) 
5.915483481054082

>  <meeko>  (20) 
{"free_energy": -9.15, "intermolecular_energy": -11.24, "internal_energy": -1.45, "cluster_size": 43, "cluster_id": 1, "rank_in_cluster": 18}

>  <energy>  (20) 
-9.12

>  <cluster_rmsd>  (20) 
0.74

>  <cluster>  (20) 
1

$$$$

     RDKit          3D

 59 62  0  0  0  0  0  0  0  0999 V2000
  137.3760   80.4740  223.8830 C   0  0  0  0  0  0  0  0  0  0  0  0
  137.0020   79.2530  223.0350 C   0  0  0  0  0  0  0  0  0  0  0  0
  138.1010   79.0630  222.0480 C   0  0  0  0  0  0  0  0  0  0  0  0
  137.8260   79.4050  220.8470 O   0  0  0  0  0  0  0  0  0  0  0  0
  139.3800   78.5410  222.4060 N   0  0  0  0  0  0  0  0  0  0  0  0
  140.4000   79.4930  222.7640 C   0  0  0  0  0  0  0  0  0  0  0  0
  141.4990   78.9620  223.4600 C   0  0  0  0  0  0  0  0  0  0  0  0
  142.5430   79.7780  223.8590 C   0  0  0  0  0  0  0  0  0  0  0  0
  142.4800   81.1220  223.5590 C   0  0  0  0  0  0  0  0  0  0  0  0
  141.3890   81.6170  222.8730 C   0  0  0  0  0  0  0  0  0  0  0  0
  140.3300   80.8250  222.4600 C   0  0  0  0  0  0  0  0  0  0  0  0
  139.6640   77.1450  222.3930 C   0  0  0  0  0  0  0  0  0  0  0  0
  140.7490   76.8760  221.3520 C   0  0  0  0  0  0  0  0  0  0  0  0
  141.1080   75.4360  221.2710 C   0  0  0  0  0  0  0  0  0  0  0  0
  139.8540   74.5930  221.3740 N   0  0  0  0  0  0  0  0  0  0  0  0
  140.1080   73.2890  221.7760 C   0  0  0  0  0  0  0  0  0  0  0  0
  141.4070   73.0940  221.9610 O   0  0  0  0  0  0  0  0  0  0  0  0
  139.3220   72.1430  222.0290 C   0  0  0  0  0  0  0  0  0  0  0  0
  138.6110   71.8030  223.0770 C   0  0  0  0  0  0  0  0  0  0  0  0
  139.0390   70.8580  224.1030 C   0  0  0  0  0  0  0  0  0  0  0  0
  138.7980   69.4860  223.9450 C   0  0  0  0  0  0  0  0  0  0  0  0
  139.1870   68.5660  224.8920 C   0  0  0  0  0  0  0  0  0  0  0  0
  139.8420   68.9480  226.0600 C   0  0  0  0  0  0  0  0  0  0  0  0
  140.2120   67.9990  226.9830 C   0  0  0  0  0  0  0  0  0  0  0  0
  140.8610   68.4230  228.1380 C   0  0  0  0  0  0  0  0  0  0  0  0
  141.1130   69.7780  228.3220 C   0  0  0  0  0  0  0  0  0  0  0  0
  140.7270   70.6990  227.3730 C   0  0  0  0  0  0  0  0  0  0  0  0
  140.0800   70.2900  226.2210 C   0  0  0  0  0  0  0  0  0  0  0  0
  139.6860   71.2140  225.2620 C   0  0  0  0  0  0  0  0  0  0  0  0
  138.6740   75.3090  221.0370 C   0  0  0  0  0  0  0  0  0  0  0  0
  138.4300   76.3430  222.1320 C   0  0  0  0  0  0  0  0  0  0  0  0
  137.2974   80.2175  224.9498 H   0  0  0  0  0  0  0  0  0  0  0  0
  138.4082   80.7773  223.6539 H   0  0  0  0  0  0  0  0  0  0  0  0
  136.6907   81.3034  223.6539 H   0  0  0  0  0  0  0  0  0  0  0  0
  136.9083   78.3624  223.6738 H   0  0  0  0  0  0  0  0  0  0  0  0
  136.0375   79.4043  222.5282 H   0  0  0  0  0  0  0  0  0  0  0  0
  141.5298   77.8868  223.6901 H   0  0  0  0  0  0  0  0  0  0  0  0
  143.4041   79.3633  224.4035 H   0  0  0  0  0  0  0  0  0  0  0  0
  143.2940   81.7959  223.8644 H   0  0  0  0  0  0  0  0  0  0  0  0
  141.3591   82.6923  222.6432 H   0  0  0  0  0  0  0  0  0  0  0  0
  139.4736   81.2471  221.9137 H   0  0  0  0  0  0  0  0  0  0  0  0
  140.0313   76.8330  223.3818 H   0  0  0  0  0  0  0  0  0  0  0  0
  140.3846   77.2057  220.3679 H   0  0  0  0  0  0  0  0  0  0  0  0
  141.6496   77.4310  221.6533 H   0  0  0  0  0  0  0  0  0  0  0  0
  141.6055   75.2362  220.3105 H   0  0  0  0  0  0  0  0  0  0  0  0
  141.7878   75.1820  222.0977 H   0  0  0  0  0  0  0  0  0  0  0  0
  139.3032   71.4117  221.2075 H   0  0  0  0  0  0  0  0  0  0  0  0
  137.6189   72.2642  223.1910 H   0  0  0  0  0  0  0  0  0  0  0  0
  138.2834   69.1348  223.0385 H   0  0  0  0  0  0  0  0  0  0  0  0
  138.9747   67.5002  224.7216 H   0  0  0  0  0  0  0  0  0  0  0  0
  140.0006   66.9330  226.8129 H   0  0  0  0  0  0  0  0  0  0  0  0
  141.1722   67.6925  228.8993 H   0  0  0  0  0  0  0  0  0  0  0  0
  141.6255   70.1178  229.2341 H   0  0  0  0  0  0  0  0  0  0  0  0
  140.9348   71.7673  227.5326 H   0  0  0  0  0  0  0  0  0  0  0  0
  139.9014   72.2783  225.4379 H   0  0  0  0  0  0  0  0  0  0  0  0
  138.8055   75.8132  220.0682 H   0  0  0  0  0  0  0  0  0  0  0  0
  137.8173   74.6237  220.9565 H   0  0  0  0  0  0  0  0  0  0  0  0
  137.6216   77.0186  221.8157 H   0  0  0  0  0  0  0  0  0  0  0  0
  138.1510   75.8165  223.0566 H   0  0  0  0  0  0  0  0  0  0  0  0
  1  2  1  0
  2  3  1  0
  3  4  2  0
  3  5  1  0
  5  6  1  0
  6  7  2  0
  7  8  1  0
  8  9  2  0
  9 10  1  0
 10 11  2  0
  5 12  1  0
 12 13  1  0
 13 14  1  0
 14 15  1  0
 15 16  1  0
 16 17  2  0
 16 18  1  0
 18 19  2  0
 19 20  1  0
 20 21  2  0
 21 22  1  0
 22 23  2  0
 23 24  1  0
 24 25  2  0
 25 26  1  0
 26 27  2  0
 27 28  1  0
 28 29  2  0
 15 30  1  0
 30 31  1  0
 11  6  1  0
 31 12  1  0
 29 20  1  0
 28 23  1  0
  1 32  1  0
  1 33  1  0
  1 34  1  0
  2 35  1  0
  2 36  1  0
  7 37  1  0
  8 38  1  0
  9 39  1  0
 10 40  1  0
 11 41  1  0
 12 42  1  0
 13 43  1  0
 13 44  1  0
 14 45  1  0
 14 46  1  0
 18 47  1  0
 19 48  1  0
 21 49  1  0
 22 50  1  0
 24 51  1  0
 25 52  1  0
 26 53  1  0
 27 54  1  0
 29 55  1  0
 30 56  1  0
 30 57  1  0
 31 58  1  0
 31 59  1  0
M  END
>  <smiles>  (21) 
CCC(=O)N(c1ccccc1)C1CCN(C(=O)/C=C/c2ccc3ccccc3c2)CC1

>  <score_type>  (21) 
oracle

>  <origin>  (21) 
autodockgpu

>  <m_score__min__energy>  (21) 
-9.4600000000000009

>  <m_primary>  (21) 
energy

>  <rmsd>  (21) 
6.074258799267459

>  <m_score__min__rmsd>  (21) 
6.074258799267459

>  <meeko>  (21) 
{"free_energy": -9.04, "intermolecular_energy": -11.13, "internal_energy": -1.32, "cluster_size": 43, "cluster_id": 1, "rank_in_cluster": 25}

>  <energy>  (21) 
-9.11

>  <cluster_rmsd>  (21) 
1.64

>  <cluster>  (21) 
1

$$$$

     RDKit          3D

 59 62  0  0  0  0  0  0  0  0999 V2000
  138.0850   80.1890  223.4820 C   0  0  0  0  0  0  0  0  0  0  0  0
  137.6160   78.7840  223.0860 C   0  0  0  0  0  0  0  0  0  0  0  0
  138.5410   78.3070  222.0190 C   0  0  0  0  0  0  0  0  0  0  0  0
  138.0860   78.3800  220.8260 O   0  0  0  0  0  0  0  0  0  0  0  0
  139.8480   77.8080  222.2960 N   0  0  0  0  0  0  0  0  0  0  0  0
  140.8620   78.7730  222.6340 C   0  0  0  0  0  0  0  0  0  0  0  0
  141.2330   79.6430  221.5950 C   0  0  0  0  0  0  0  0  0  0  0  0
  142.1990   80.6130  221.7980 C   0  0  0  0  0  0  0  0  0  0  0  0
  142.7890   80.7050  223.0410 C   0  0  0  0  0  0  0  0  0  0  0  0
  142.4050   79.8380  224.0440 C   0  0  0  0  0  0  0  0  0  0  0  0
  141.4400   78.8590  223.8710 C   0  0  0  0  0  0  0  0  0  0  0  0
  140.1640   76.4200  222.2220 C   0  0  0  0  0  0  0  0  0  0  0  0
  141.2260   76.2180  221.1430 C   0  0  0  0  0  0  0  0  0  0  0  0
  141.6170   74.7900  220.9980 C   0  0  0  0  0  0  0  0  0  0  0  0
  140.3860   73.9140  221.1030 N   0  0  0  0  0  0  0  0  0  0  0  0
  140.6820   72.6020  221.4480 C   0  0  0  0  0  0  0  0  0  0  0  0
  141.9900   72.4330  221.5900 O   0  0  0  0  0  0  0  0  0  0  0  0
  139.9310   71.4290  221.6780 C   0  0  0  0  0  0  0  0  0  0  0  0
  139.1680   71.0800  222.6870 C   0  0  0  0  0  0  0  0  0  0  0  0
  139.6400   70.8550  224.0490 C   0  0  0  0  0  0  0  0  0  0  0  0
  140.3460   71.8580  224.7280 C   0  0  0  0  0  0  0  0  0  0  0  0
  140.8070   71.6800  226.0120 C   0  0  0  0  0  0  0  0  0  0  0  0
  140.5970   70.4920  226.7080 C   0  0  0  0  0  0  0  0  0  0  0  0
  141.0740   70.3530  227.9900 C   0  0  0  0  0  0  0  0  0  0  0  0
  140.8460   69.1490  228.6490 C   0  0  0  0  0  0  0  0  0  0  0  0
  140.1490   68.1360  228.0000 C   0  0  0  0  0  0  0  0  0  0  0  0
  139.6840   68.3150  226.7160 C   0  0  0  0  0  0  0  0  0  0  0  0
  139.9060   69.5060  226.0490 C   0  0  0  0  0  0  0  0  0  0  0  0
  139.4430   69.6910  224.7530 C   0  0  0  0  0  0  0  0  0  0  0  0
  139.1810   74.6120  220.8250 C   0  0  0  0  0  0  0  0  0  0  0  0
  138.9430   75.5980  221.9640 C   0  0  0  0  0  0  0  0  0  0  0  0
  138.1124   80.2709  224.5786 H   0  0  0  0  0  0  0  0  0  0  0  0
  139.0915   80.3677  223.0757 H   0  0  0  0  0  0  0  0  0  0  0  0
  137.3876   80.9364  223.0757 H   0  0  0  0  0  0  0  0  0  0  0  0
  137.6606   78.1108  223.9548 H   0  0  0  0  0  0  0  0  0  0  0  0
  136.5758   78.8008  222.7286 H   0  0  0  0  0  0  0  0  0  0  0  0
  140.7509   79.5522  220.6105 H   0  0  0  0  0  0  0  0  0  0  0  0
  142.4898   81.2955  220.9858 H   0  0  0  0  0  0  0  0  0  0  0  0
  143.5611   81.4648  223.2321 H   0  0  0  0  0  0  0  0  0  0  0  0
  142.8883   79.9287  225.0280 H   0  0  0  0  0  0  0  0  0  0  0  0
  141.1522   78.1829  224.6895 H   0  0  0  0  0  0  0  0  0  0  0  0
  140.5651   76.0796  223.1881 H   0  0  0  0  0  0  0  0  0  0  0  0
  140.8269   76.5751  220.1822 H   0  0  0  0  0  0  0  0  0  0  0  0
  142.1210   76.7841  221.4407 H   0  0  0  0  0  0  0  0  0  0  0  0
  142.0921   74.6381  220.0176 H   0  0  0  0  0  0  0  0  0  0  0  0
  142.3256   74.5221  221.7955 H   0  0  0  0  0  0  0  0  0  0  0  0
  139.9965   70.6802  220.8749 H   0  0  0  0  0  0  0  0  0  0  0  0
  138.0937   70.9474  222.4915 H   0  0  0  0  0  0  0  0  0  0  0  0
  140.5368   72.8146  224.2196 H   0  0  0  0  0  0  0  0  0  0  0  0
  141.3560   72.4977  226.5019 H   0  0  0  0  0  0  0  0  0  0  0  0
  141.6209   71.1713  228.4812 H   0  0  0  0  0  0  0  0  0  0  0  0
  141.2140   68.9998  229.6748 H   0  0  0  0  0  0  0  0  0  0  0  0
  139.9672   67.1823  228.5171 H   0  0  0  0  0  0  0  0  0  0  0  0
  139.1320   67.5047  226.2174 H   0  0  0  0  0  0  0  0  0  0  0  0
  138.8944   68.8699  224.2684 H   0  0  0  0  0  0  0  0  0  0  0  0
  139.2736   75.1548  219.8728 H   0  0  0  0  0  0  0  0  0  0  0  0
  138.3390   73.9091  220.7416 H   0  0  0  0  0  0  0  0  0  0  0  0
  138.1103   76.2646  221.6951 H   0  0  0  0  0  0  0  0  0  0  0  0
  138.7024   75.0307  222.8752 H   0  0  0  0  0  0  0  0  0  0  0  0
  1  2  1  0
  2  3  1  0
  3  4  2  0
  3  5  1  0
  5  6  1  0
  6  7  2  0
  7  8  1  0
  8  9  2  0
  9 10  1  0
 10 11  2  0
  5 12  1  0
 12 13  1  0
 13 14  1  0
 14 15  1  0
 15 16  1  0
 16 17  2  0
 16 18  1  0
 18 19  2  0
 19 20  1  0
 20 21  2  0
 21 22  1  0
 22 23  2  0
 23 24  1  0
 24 25  2  0
 25 26  1  0
 26 27  2  0
 27 28  1  0
 28 29  2  0
 15 30  1  0
 30 31  1  0
 11  6  1  0
 31 12  1  0
 29 20  1  0
 28 23  1  0
  1 32  1  0
  1 33  1  0
  1 34  1  0
  2 35  1  0
  2 36  1  0
  7 37  1  0
  8 38  1  0
  9 39  1  0
 10 40  1  0
 11 41  1  0
 12 42  1  0
 13 43  1  0
 13 44  1  0
 14 45  1  0
 14 46  1  0
 18 47  1  0
 19 48  1  0
 21 49  1  0
 22 50  1  0
 24 51  1  0
 25 52  1  0
 26 53  1  0
 27 54  1  0
 29 55  1  0
 30 56  1  0
 30 57  1  0
 31 58  1  0
 31 59  1  0
M  END
>  <smiles>  (22) 
CCC(=O)N(c1ccccc1)C1CCN(C(=O)/C=C/c2ccc3ccccc3c2)CC1

>  <score_type>  (22) 
oracle

>  <origin>  (22) 
autodockgpu

>  <m_score__min__energy>  (22) 
-9.4600000000000009

>  <m_primary>  (22) 
energy

>  <rmsd>  (22) 
5.839146943052249

>  <m_score__min__rmsd>  (22) 
5.839146943052249

>  <meeko>  (22) 
{"free_energy": -9.01, "intermolecular_energy": -11.09, "internal_energy": -1.6, "cluster_size": 43, "cluster_id": 1, "rank_in_cluster": 29}

>  <energy>  (22) 
-9.1

>  <cluster_rmsd>  (22) 
1.84

>  <cluster>  (22) 
1

$$$$

     RDKit          3D

 59 62  0  0  0  0  0  0  0  0999 V2000
  142.5490   81.0010  218.1640 C   0  0  0  0  0  0  0  0  0  0  0  0
  141.3610   80.0440  218.3160 C   0  0  0  0  0  0  0  0  0  0  0  0
  141.8370   78.8960  219.1370 C   0  0  0  0  0  0  0  0  0  0  0  0
  142.7620   78.1880  218.6080 O   0  0  0  0  0  0  0  0  0  0  0  0
  141.3100   78.5990  220.4290 N   0  0  0  0  0  0  0  0  0  0  0  0
  141.5310   79.5720  221.4680 C   0  0  0  0  0  0  0  0  0  0  0  0
  142.5860   79.2810  222.3490 C   0  0  0  0  0  0  0  0  0  0  0  0
  142.8930   80.1400  223.3890 C   0  0  0  0  0  0  0  0  0  0  0  0
  142.1420   81.2860  223.5420 C   0  0  0  0  0  0  0  0  0  0  0  0
  141.1110   81.5470  222.6610 C   0  0  0  0  0  0  0  0  0  0  0  0
  140.7810   80.7070  221.6100 C   0  0  0  0  0  0  0  0  0  0  0  0
  140.6150   77.3860  220.7080 C   0  0  0  0  0  0  0  0  0  0  0  0
  140.0990   77.4370  222.1440 C   0  0  0  0  0  0  0  0  0  0  0  0
  139.3580   76.2050  222.5210 C   0  0  0  0  0  0  0  0  0  0  0  0
  140.0670   74.9920  221.9550 N   0  0  0  0  0  0  0  0  0  0  0  0
  139.2400   73.8840  221.8410 C   0  0  0  0  0  0  0  0  0  0  0  0
  138.0170   74.1580  222.2760 O   0  0  0  0  0  0  0  0  0  0  0  0
  139.3930   72.5570  221.3810 C   0  0  0  0  0  0  0  0  0  0  0  0
  140.0510   71.5420  221.8870 C   0  0  0  0  0  0  0  0  0  0  0  0
  140.0270   71.1510  223.2920 C   0  0  0  0  0  0  0  0  0  0  0  0
  139.3460   69.9920  223.6920 C   0  0  0  0  0  0  0  0  0  0  0  0
  139.3010   69.5930  225.0080 C   0  0  0  0  0  0  0  0  0  0  0  0
  139.9310   70.3190  226.0160 C   0  0  0  0  0  0  0  0  0  0  0  0
  139.8610   69.8880  227.3190 C   0  0  0  0  0  0  0  0  0  0  0  0
  140.5000   70.6450  228.2970 C   0  0  0  0  0  0  0  0  0  0  0  0
  141.1830   71.7990  227.9300 C   0  0  0  0  0  0  0  0  0  0  0  0
  141.2310   72.1980  226.6120 C   0  0  0  0  0  0  0  0  0  0  0  0
  140.5990   71.4550  225.6310 C   0  0  0  0  0  0  0  0  0  0  0  0
  140.6410   71.8530  224.3020 C   0  0  0  0  0  0  0  0  0  0  0  0
  141.4340   75.2380  221.6570 C   0  0  0  0  0  0  0  0  0  0  0  0
  141.4860   76.1950  220.4700 C   0  0  0  0  0  0  0  0  0  0  0  0
  142.9132   81.2944  219.1596 H   0  0  0  0  0  0  0  0  0  0  0  0
  143.3565   80.4982  217.6117 H   0  0  0  0  0  0  0  0  0  0  0  0
  142.2297   81.8971  217.6117 H   0  0  0  0  0  0  0  0  0  0  0  0
  140.5274   80.5523  218.8227 H   0  0  0  0  0  0  0  0  0  0  0  0
  140.9989   79.7046  217.3343 H   0  0  0  0  0  0  0  0  0  0  0  0
  143.1735   78.3614  222.2105 H   0  0  0  0  0  0  0  0  0  0  0  0
  143.7189   79.9135  224.0793 H   0  0  0  0  0  0  0  0  0  0  0  0
  142.3624   81.9876  224.3601 H   0  0  0  0  0  0  0  0  0  0  0  0
  140.5234   82.4664  222.8006 H   0  0  0  0  0  0  0  0  0  0  0  0
  139.9551   80.9416  220.9224 H   0  0  0  0  0  0  0  0  0  0  0  0
  139.7596   77.2839  220.0240 H   0  0  0  0  0  0  0  0  0  0  0  0
  140.9556   77.5566  222.8237 H   0  0  0  0  0  0  0  0  0  0  0  0
  139.4031   78.2854  222.2217 H   0  0  0  0  0  0  0  0  0  0  0  0
  139.3144   76.1251  223.6172 H   0  0  0  0  0  0  0  0  0  0  0  0
  138.3371   76.2540  222.1143 H   0  0  0  0  0  0  0  0  0  0  0  0
  138.8713   72.3380  220.4377 H   0  0  0  0  0  0  0  0  0  0  0  0
  140.6665   70.9411  221.2014 H   0  0  0  0  0  0  0  0  0  0  0  0
  138.8331   69.3845  222.9318 H   0  0  0  0  0  0  0  0  0  0  0  0
  138.7529   68.6763  225.2710 H   0  0  0  0  0  0  0  0  0  0  0  0
  139.3150   68.9700  227.5820 H   0  0  0  0  0  0  0  0  0  0  0  0
  140.4648   70.3328  229.3512 H   0  0  0  0  0  0  0  0  0  0  0  0
  141.6901   72.3995  228.6995 H   0  0  0  0  0  0  0  0  0  0  0  0
  141.7756   73.1136  226.3380 H   0  0  0  0  0  0  0  0  0  0  0  0
  141.1901   72.7710  224.0455 H   0  0  0  0  0  0  0  0  0  0  0  0
  141.9309   75.6927  222.5267 H   0  0  0  0  0  0  0  0  0  0  0  0
  141.9507   74.2973  221.4159 H   0  0  0  0  0  0  0  0  0  0  0  0
  142.5231   76.5307  220.3229 H   0  0  0  0  0  0  0  0  0  0  0  0
  141.1232   75.6668  219.5759 H   0  0  0  0  0  0  0  0  0  0  0  0
  1  2  1  0
  2  3  1  0
  3  4  2  0
  3  5  1  0
  5  6  1  0
  6  7  2  0
  7  8  1  0
  8  9  2  0
  9 10  1  0
 10 11  2  0
  5 12  1  0
 12 13  1  0
 13 14  1  0
 14 15  1  0
 15 16  1  0
 16 17  2  0
 16 18  1  0
 18 19  2  0
 19 20  1  0
 20 21  2  0
 21 22  1  0
 22 23  2  0
 23 24  1  0
 24 25  2  0
 25 26  1  0
 26 27  2  0
 27 28  1  0
 28 29  2  0
 15 30  1  0
 30 31  1  0
 11  6  1  0
 31 12  1  0
 29 20  1  0
 28 23  1  0
  1 32  1  0
  1 33  1  0
  1 34  1  0
  2 35  1  0
  2 36  1  0
  7 37  1  0
  8 38  1  0
  9 39  1  0
 10 40  1  0
 11 41  1  0
 12 42  1  0
 13 43  1  0
 13 44  1  0
 14 45  1  0
 14 46  1  0
 18 47  1  0
 19 48  1  0
 21 49  1  0
 22 50  1  0
 24 51  1  0
 25 52  1  0
 26 53  1  0
 27 54  1  0
 29 55  1  0
 30 56  1  0
 30 57  1  0
 31 58  1  0
 31 59  1  0
M  END
>  <smiles>  (23) 
CCC(=O)N(c1ccccc1)C1CCN(C(=O)/C=C/c2ccc3ccccc3c2)CC1

>  <score_type>  (23) 
oracle

>  <origin>  (23) 
autodockgpu

>  <m_score__min__energy>  (23) 
-9.4600000000000009

>  <m_primary>  (23) 
energy

>  <rmsd>  (23) 
5.9180132100585325

>  <m_score__min__rmsd>  (23) 
5.9180132100585325

>  <meeko>  (23) 
{"free_energy": -8.85, "intermolecular_energy": -10.93, "internal_energy": -1.53, "cluster_size": 6, "cluster_id": 2, "rank_in_cluster": 5}

>  <energy>  (23) 
-9.07

>  <cluster_rmsd>  (23) 
0.72

>  <cluster>  (23) 
1

$$$$

     RDKit          3D

 59 62  0  0  0  0  0  0  0  0999 V2000
  138.5650   78.1120  219.7410 C   0  0  0  0  0  0  0  0  0  0  0  0
  138.0730   78.8210  221.0090 C   0  0  0  0  0  0  0  0  0  0  0  0
  138.5680   78.0240  222.1660 C   0  0  0  0  0  0  0  0  0  0  0  0
  137.6920   77.7440  223.0540 O   0  0  0  0  0  0  0  0  0  0  0  0
  139.9220   77.5920  222.2840 N   0  0  0  0  0  0  0  0  0  0  0  0
  140.9120   78.6000  222.5610 C   0  0  0  0  0  0  0  0  0  0  0  0
  141.2420   79.4320  221.4770 C   0  0  0  0  0  0  0  0  0  0  0  0
  142.1820   80.4370  221.6200 C   0  0  0  0  0  0  0  0  0  0  0  0
  142.7870   80.6040  222.8480 C   0  0  0  0  0  0  0  0  0  0  0  0
  142.4430   79.7730  223.8950 C   0  0  0  0  0  0  0  0  0  0  0  0
  141.5060   78.7600  223.7830 C   0  0  0  0  0  0  0  0  0  0  0  0
  140.3040   76.2290  222.1130 C   0  0  0  0  0  0  0  0  0  0  0  0
  141.3900   76.1560  221.0420 C   0  0  0  0  0  0  0  0  0  0  0  0
  141.8490   74.7630  220.7980 C   0  0  0  0  0  0  0  0  0  0  0  0
  140.6600   73.8260  220.8150 N   0  0  0  0  0  0  0  0  0  0  0  0
  141.0110   72.5070  221.0670 C   0  0  0  0  0  0  0  0  0  0  0  0
  142.3230   72.3880  221.2200 O   0  0  0  0  0  0  0  0  0  0  0  0
  140.3120   71.2870  221.1960 C   0  0  0  0  0  0  0  0  0  0  0  0
  139.3970   70.9070  222.0550 C   0  0  0  0  0  0  0  0  0  0  0  0
  139.6410   70.6360  223.4670 C   0  0  0  0  0  0  0  0  0  0  0  0
  139.1760   69.4480  224.0490 C   0  0  0  0  0  0  0  0  0  0  0  0
  139.3870   69.1590  225.3780 C   0  0  0  0  0  0  0  0  0  0  0  0
  140.0740   70.0310  226.2180 C   0  0  0  0  0  0  0  0  0  0  0  0
  140.2620   69.7070  227.5400 C   0  0  0  0  0  0  0  0  0  0  0  0
  140.9510   70.6080  228.3470 C   0  0  0  0  0  0  0  0  0  0  0  0
  141.4220   71.7940  227.7970 C   0  0  0  0  0  0  0  0  0  0  0  0
  141.2150   72.0830  226.4660 C   0  0  0  0  0  0  0  0  0  0  0  0
  140.5310   71.1960  225.6540 C   0  0  0  0  0  0  0  0  0  0  0  0
  140.3150   71.4830  224.3130 C   0  0  0  0  0  0  0  0  0  0  0  0
  139.4270   74.4880  220.5680 C   0  0  0  0  0  0  0  0  0  0  0  0
  139.1260   75.3740  221.7730 C   0  0  0  0  0  0  0  0  0  0  0  0
  139.1714   77.2381  220.0214 H   0  0  0  0  0  0  0  0  0  0  0  0
  137.7003   77.7827  219.1461 H   0  0  0  0  0  0  0  0  0  0  0  0
  139.1761   78.8067  219.1461 H   0  0  0  0  0  0  0  0  0  0  0  0
  138.4770   79.8432  221.0525 H   0  0  0  0  0  0  0  0  0  0  0  0
  136.9755   78.8942  221.0202 H   0  0  0  0  0  0  0  0  0  0  0  0
  140.7480   79.2825  220.5056 H   0  0  0  0  0  0  0  0  0  0  0  0
  142.4412   81.0887  220.7726 H   0  0  0  0  0  0  0  0  0  0  0  0
  143.5386   81.3941  222.9921 H   0  0  0  0  0  0  0  0  0  0  0  0
  142.9376   79.9230  224.8660 H   0  0  0  0  0  0  0  0  0  0  0  0
  141.2511   78.1143  224.6363 H   0  0  0  0  0  0  0  0  0  0  0  0
  140.7069   75.8362  223.0582 H   0  0  0  0  0  0  0  0  0  0  0  0
  140.9892   76.5660  220.1032 H   0  0  0  0  0  0  0  0  0  0  0  0
  142.2533   76.7374  221.3979 H   0  0  0  0  0  0  0  0  0  0  0  0
  142.3449   74.7074  219.8177 H   0  0  0  0  0  0  0  0  0  0  0  0
  142.5574   74.4685  221.5863 H   0  0  0  0  0  0  0  0  0  0  0  0
  140.5807   70.5258  220.4488 H   0  0  0  0  0  0  0  0  0  0  0  0
  138.3692   70.7835  221.6829 H   0  0  0  0  0  0  0  0  0  0  0  0
  138.6271   68.7267  223.4258 H   0  0  0  0  0  0  0  0  0  0  0  0
  139.0023   68.2133  225.7876 H   0  0  0  0  0  0  0  0  0  0  0  0
  139.8783   68.7610  227.9497 H   0  0  0  0  0  0  0  0  0  0  0  0
  141.1211   70.3832  229.4103 H   0  0  0  0  0  0  0  0  0  0  0  0
  141.9659   72.5097  228.4311 H   0  0  0  0  0  0  0  0  0  0  0  0
  141.5962   73.0255  226.0460 H   0  0  0  0  0  0  0  0  0  0  0  0
  140.7008   72.4310  223.9098 H   0  0  0  0  0  0  0  0  0  0  0  0
  139.5082   75.1046  219.6607 H   0  0  0  0  0  0  0  0  0  0  0  0
  138.6202   73.7556  220.4175 H   0  0  0  0  0  0  0  0  0  0  0  0
  138.2671   76.0204  221.5394 H   0  0  0  0  0  0  0  0  0  0  0  0
  138.8983   74.7299  222.6351 H   0  0  0  0  0  0  0  0  0  0  0  0
  1  2  1  0
  2  3  1  0
  3  4  2  0
  3  5  1  0
  5  6  1  0
  6  7  2  0
  7  8  1  0
  8  9  2  0
  9 10  1  0
 10 11  2  0
  5 12  1  0
 12 13  1  0
 13 14  1  0
 14 15  1  0
 15 16  1  0
 16 17  2  0
 16 18  1  0
 18 19  2  0
 19 20  1  0
 20 21  2  0
 21 22  1  0
 22 23  2  0
 23 24  1  0
 24 25  2  0
 25 26  1  0
 26 27  2  0
 27 28  1  0
 28 29  2  0
 15 30  1  0
 30 31  1  0
 11  6  1  0
 31 12  1  0
 29 20  1  0
 28 23  1  0
  1 32  1  0
  1 33  1  0
  1 34  1  0
  2 35  1  0
  2 36  1  0
  7 37  1  0
  8 38  1  0
  9 39  1  0
 10 40  1  0
 11 41  1  0
 12 42  1  0
 13 43  1  0
 13 44  1  0
 14 45  1  0
 14 46  1  0
 18 47  1  0
 19 48  1  0
 21 49  1  0
 22 50  1  0
 24 51  1  0
 25 52  1  0
 26 53  1  0
 27 54  1  0
 29 55  1  0
 30 56  1  0
 30 57  1  0
 31 58  1  0
 31 59  1  0
M  END
>  <smiles>  (24) 
CCC(=O)N(c1ccccc1)C1CCN(C(=O)/C=C/c2ccc3ccccc3c2)CC1

>  <score_type>  (24) 
oracle

>  <origin>  (24) 
autodockgpu

>  <m_score__min__energy>  (24) 
-9.4600000000000009

>  <m_primary>  (24) 
energy

>  <rmsd>  (24) 
5.778128064213352

>  <m_score__min__rmsd>  (24) 
5.778128064213352

>  <meeko>  (24) 
{"free_energy": -8.7, "intermolecular_energy": -10.79, "internal_energy": -1.66, "cluster_size": 43, "cluster_id": 1, "rank_in_cluster": 39}

>  <energy>  (24) 
-9.05

>  <cluster_rmsd>  (24) 
1.97

>  <cluster>  (24) 
1

$$$$

     RDKit          3D

 59 62  0  0  0  0  0  0  0  0999 V2000
  135.8540   79.6580  223.6440 C   0  0  0  0  0  0  0  0  0  0  0  0
  137.3090   80.1400  223.6390 C   0  0  0  0  0  0  0  0  0  0  0  0
  138.0140   79.3670  222.5780 C   0  0  0  0  0  0  0  0  0  0  0  0
  137.3840   79.2530  221.4710 O   0  0  0  0  0  0  0  0  0  0  0  0
  139.3060   78.7940  222.7690 N   0  0  0  0  0  0  0  0  0  0  0  0
  140.3970   79.7010  223.0170 C   0  0  0  0  0  0  0  0  0  0  0  0
  141.4230   79.1970  223.8340 C   0  0  0  0  0  0  0  0  0  0  0  0
  142.5240   79.9760  224.1450 C   0  0  0  0  0  0  0  0  0  0  0  0
  142.5910   81.2550  223.6360 C   0  0  0  0  0  0  0  0  0  0  0  0
  141.5690   81.7250  222.8350 C   0  0  0  0  0  0  0  0  0  0  0  0
  140.4560   80.9690  222.5060 C   0  0  0  0  0  0  0  0  0  0  0  0
  139.5340   77.3890  222.6970 C   0  0  0  0  0  0  0  0  0  0  0  0
  140.4550   77.1030  221.5140 C   0  0  0  0  0  0  0  0  0  0  0  0
  140.7460   75.6520  221.3630 C   0  0  0  0  0  0  0  0  0  0  0  0
  139.4890   74.8520  221.6260 N   0  0  0  0  0  0  0  0  0  0  0  0
  139.7470   73.5320  221.9710 C   0  0  0  0  0  0  0  0  0  0  0  0
  141.0510   73.2890  221.9720 O   0  0  0  0  0  0  0  0  0  0  0  0
  138.9610   72.4100  222.3140 C   0  0  0  0  0  0  0  0  0  0  0  0
  139.3050   71.2070  222.7070 C   0  0  0  0  0  0  0  0  0  0  0  0
  139.7410   70.8650  224.0570 C   0  0  0  0  0  0  0  0  0  0  0  0
  140.3870   71.8210  224.8550 C   0  0  0  0  0  0  0  0  0  0  0  0
  140.8130   71.5330  226.1310 C   0  0  0  0  0  0  0  0  0  0  0  0
  140.6260   70.2770  226.7010 C   0  0  0  0  0  0  0  0  0  0  0  0
  141.0680   70.0290  227.9780 C   0  0  0  0  0  0  0  0  0  0  0  0
  140.8650   68.7580  228.5100 C   0  0  0  0  0  0  0  0  0  0  0  0
  140.2280   67.7910  227.7410 C   0  0  0  0  0  0  0  0  0  0  0  0
  139.7980   68.0780  226.4640 C   0  0  0  0  0  0  0  0  0  0  0  0
  139.9950   69.3370  225.9250 C   0  0  0  0  0  0  0  0  0  0  0  0
  139.5670   69.6320  224.6370 C   0  0  0  0  0  0  0  0  0  0  0  0
  138.3010   75.6150  221.4650 C   0  0  0  0  0  0  0  0  0  0  0  0
  138.2470   76.6350  222.5980 C   0  0  0  0  0  0  0  0  0  0  0  0
  135.5091   79.5438  224.6823 H   0  0  0  0  0  0  0  0  0  0  0  0
  135.2219   80.3947  223.1266 H   0  0  0  0  0  0  0  0  0  0  0  0
  135.7868   78.6896  223.1266 H   0  0  0  0  0  0  0  0  0  0  0  0
  137.3508   81.2161  223.4149 H   0  0  0  0  0  0  0  0  0  0  0  0
  137.7802   79.9840  224.6206 H   0  0  0  0  0  0  0  0  0  0  0  0
  141.3505   78.1734  224.2303 H   0  0  0  0  0  0  0  0  0  0  0  0
  143.3280   79.5828  224.7845 H   0  0  0  0  0  0  0  0  0  0  0  0
  143.4535   81.8977  223.8664 H   0  0  0  0  0  0  0  0  0  0  0  0
  141.6423   82.7487  222.4393 H   0  0  0  0  0  0  0  0  0  0  0  0
  139.6572   81.3691  221.8642 H   0  0  0  0  0  0  0  0  0  0  0  0
  140.0218   77.0454  223.6211 H   0  0  0  0  0  0  0  0  0  0  0  0
  139.9720   77.4645  220.5942 H   0  0  0  0  0  0  0  0  0  0  0  0
  141.4084   77.6202  221.6971 H   0  0  0  0  0  0  0  0  0  0  0  0
  141.0987   75.4539  220.3401 H   0  0  0  0  0  0  0  0  0  0  0  0
  141.5233   75.3584  222.0839 H   0  0  0  0  0  0  0  0  0  0  0  0
  137.8757   72.5727  222.2387 H   0  0  0  0  0  0  0  0  0  0  0  0
  139.2617   70.3964  221.9647 H   0  0  0  0  0  0  0  0  0  0  0  0
  140.5577   72.8290  224.4491 H   0  0  0  0  0  0  0  0  0  0  0  0
  141.3152   72.3169  226.7169 H   0  0  0  0  0  0  0  0  0  0  0  0
  141.5688   70.8133  228.5645 H   0  0  0  0  0  0  0  0  0  0  0  0
  141.2055   68.5216  229.5289 H   0  0  0  0  0  0  0  0  0  0  0  0
  140.0655   66.7856  228.1566 H   0  0  0  0  0  0  0  0  0  0  0  0
  139.2949   67.3014  225.8692 H   0  0  0  0  0  0  0  0  0  0  0  0
  139.0666   68.8435  224.0557 H   0  0  0  0  0  0  0  0  0  0  0  0
  138.3174   76.1333  220.4949 H   0  0  0  0  0  0  0  0  0  0  0  0
  137.4168   74.9612  221.4930 H   0  0  0  0  0  0  0  0  0  0  0  0
  137.4279   77.3437  222.4061 H   0  0  0  0  0  0  0  0  0  0  0  0
  138.0782   76.1009  223.5447 H   0  0  0  0  0  0  0  0  0  0  0  0
  1  2  1  0
  2  3  1  0
  3  4  2  0
  3  5  1  0
  5  6  1  0
  6  7  2  0
  7  8  1  0
  8  9  2  0
  9 10  1  0
 10 11  2  0
  5 12  1  0
 12 13  1  0
 13 14  1  0
 14 15  1  0
 15 16  1  0
 16 17  2  0
 16 18  1  0
 18 19  2  0
 19 20  1  0
 20 21  2  0
 21 22  1  0
 22 23  2  0
 23 24  1  0
 24 25  2  0
 25 26  1  0
 26 27  2  0
 27 28  1  0
 28 29  2  0
 15 30  1  0
 30 31  1  0
 11  6  1  0
 31 12  1  0
 29 20  1  0
 28 23  1  0
  1 32  1  0
  1 33  1  0
  1 34  1  0
  2 35  1  0
  2 36  1  0
  7 37  1  0
  8 38  1  0
  9 39  1  0
 10 40  1  0
 11 41  1  0
 12 42  1  0
 13 43  1  0
 13 44  1  0
 14 45  1  0
 14 46  1  0
 18 47  1  0
 19 48  1  0
 21 49  1  0
 22 50  1  0
 24 51  1  0
 25 52  1  0
 26 53  1  0
 27 54  1  0
 29 55  1  0
 30 56  1  0
 30 57  1  0
 31 58  1  0
 31 59  1  0
M  END
>  <smiles>  (25) 
CCC(=O)N(c1ccccc1)C1CCN(C(=O)/C=C/c2ccc3ccccc3c2)CC1

>  <score_type>  (25) 
oracle

>  <origin>  (25) 
autodockgpu

>  <m_score__min__energy>  (25) 
-9.4600000000000009

>  <m_primary>  (25) 
energy

>  <rmsd>  (25) 
6.153451203654835

>  <m_score__min__rmsd>  (25) 
6.153451203654835

>  <meeko>  (25) 
{"free_energy": -9.28, "intermolecular_energy": -11.36, "internal_energy": -1.37, "cluster_size": 43, "cluster_id": 1, "rank_in_cluster": 7}

>  <energy>  (25) 
-9.04

>  <cluster_rmsd>  (25) 
0.63

>  <cluster>  (25) 
1

$$$$

     RDKit          3D

 59 62  0  0  0  0  0  0  0  0999 V2000
  142.9140   77.6820  218.0300 C   0  0  0  0  0  0  0  0  0  0  0  0
  141.5580   78.3800  217.8740 C   0  0  0  0  0  0  0  0  0  0  0  0
  141.4100   79.2960  219.0390 C   0  0  0  0  0  0  0  0  0  0  0  0
  141.6210   80.5330  218.7960 O   0  0  0  0  0  0  0  0  0  0  0  0
  141.0510   78.8370  220.3420 N   0  0  0  0  0  0  0  0  0  0  0  0
  141.3400   79.7110  221.4490 C   0  0  0  0  0  0  0  0  0  0  0  0
  142.3180   79.2440  222.3440 C   0  0  0  0  0  0  0  0  0  0  0  0
  142.6810   79.9950  223.4480 C   0  0  0  0  0  0  0  0  0  0  0  0
  142.0610   81.2100  223.6500 C   0  0  0  0  0  0  0  0  0  0  0  0
  141.1040   81.6450  222.7550 C   0  0  0  0  0  0  0  0  0  0  0  0
  140.7220   80.9160  221.6410 C   0  0  0  0  0  0  0  0  0  0  0  0
  140.4550   77.5610  220.5620 C   0  0  0  0  0  0  0  0  0  0  0  0
  139.4490   77.6820  221.7040 C   0  0  0  0  0  0  0  0  0  0  0  0
  138.7770   76.3900  222.0030 C   0  0  0  0  0  0  0  0  0  0  0  0
  139.7850   75.2630  221.9240 N   0  0  0  0  0  0  0  0  0  0  0  0
  139.1970   74.0220  221.7190 C   0  0  0  0  0  0  0  0  0  0  0  0
  137.8770   74.1280  221.6550 O   0  0  0  0  0  0  0  0  0  0  0  0
  139.6680   72.6990  221.5660 C   0  0  0  0  0  0  0  0  0  0  0  0
  139.2030   71.5630  222.0260 C   0  0  0  0  0  0  0  0  0  0  0  0
  139.4130   71.0640  223.3810 C   0  0  0  0  0  0  0  0  0  0  0  0
  138.8540   69.8410  223.7790 C   0  0  0  0  0  0  0  0  0  0  0  0
  139.0300   69.3410  225.0480 C   0  0  0  0  0  0  0  0  0  0  0  0
  139.7730   70.0220  226.0090 C   0  0  0  0  0  0  0  0  0  0  0  0
  139.9240   69.4900  227.2670 C   0  0  0  0  0  0  0  0  0  0  0  0
  140.6710   70.2040  228.1980 C   0  0  0  0  0  0  0  0  0  0  0  0
  141.2370   71.4200  227.8310 C   0  0  0  0  0  0  0  0  0  0  0  0
  141.0650   71.9210  226.5600 C   0  0  0  0  0  0  0  0  0  0  0  0
  140.3230   71.2200  225.6250 C   0  0  0  0  0  0  0  0  0  0  0  0
  140.1420   71.7200  224.3430 C   0  0  0  0  0  0  0  0  0  0  0  0
  141.1260   75.7060  222.0760 C   0  0  0  0  0  0  0  0  0  0  0  0
  141.4910   76.5190  220.8380 C   0  0  0  0  0  0  0  0  0  0  0  0
  143.1445   77.5634  219.0990 H   0  0  0  0  0  0  0  0  0  0  0  0
  142.8742   76.6923  217.5515 H   0  0  0  0  0  0  0  0  0  0  0  0
  143.6963   78.2895  217.5515 H   0  0  0  0  0  0  0  0  0  0  0  0
  141.5328   78.9534  216.9356 H   0  0  0  0  0  0  0  0  0  0  0  0
  140.7381   77.6474  217.8407 H   0  0  0  0  0  0  0  0  0  0  0  0
  142.7998   78.2715  222.1649 H   0  0  0  0  0  0  0  0  0  0  0  0
  143.4469   79.6310  224.1487 H   0  0  0  0  0  0  0  0  0  0  0  0
  142.3274   81.8291  224.5193 H   0  0  0  0  0  0  0  0  0  0  0  0
  140.6218   82.6171  222.9353 H   0  0  0  0  0  0  0  0  0  0  0  0
  139.9575   81.2886  220.9434 H   0  0  0  0  0  0  0  0  0  0  0  0
  139.9270   77.2369  219.6531 H   0  0  0  0  0  0  0  0  0  0  0  0
  139.9776   78.0230  222.6064 H   0  0  0  0  0  0  0  0  0  0  0  0
  138.6751   78.4006  221.3961 H   0  0  0  0  0  0  0  0  0  0  0  0
  138.3472   76.4265  223.0149 H   0  0  0  0  0  0  0  0  0  0  0  0
  137.9764   76.2162  221.2690 H   0  0  0  0  0  0  0  0  0  0  0  0
  140.5797   72.6064  220.9576 H   0  0  0  0  0  0  0  0  0  0  0  0
  138.6107   70.9398  221.3398 H   0  0  0  0  0  0  0  0  0  0  0  0
  138.2579   69.2653  223.0557 H   0  0  0  0  0  0  0  0  0  0  0  0
  138.5712   68.3765  225.3112 H   0  0  0  0  0  0  0  0  0  0  0  0
  139.4663   68.5251  227.5307 H   0  0  0  0  0  0  0  0  0  0  0  0
  140.8128   69.8104  229.2153 H   0  0  0  0  0  0  0  0  0  0  0  0
  141.8286   71.9879  228.5641 H   0  0  0  0  0  0  0  0  0  0  0  0
  141.5200   72.8842  226.2859 H   0  0  0  0  0  0  0  0  0  0  0  0
  140.6030   72.6850  224.0856 H   0  0  0  0  0  0  0  0  0  0  0  0
  141.2132   76.3337  222.9751 H   0  0  0  0  0  0  0  0  0  0  0  0
  141.8045   74.8472  222.1858 H   0  0  0  0  0  0  0  0  0  0  0  0
  142.4614   77.0101  221.0024 H   0  0  0  0  0  0  0  0  0  0  0  0
  141.5466   75.8400  219.9744 H   0  0  0  0  0  0  0  0  0  0  0  0
  1  2  1  0
  2  3  1  0
  3  4  2  0
  3  5  1  0
  5  6  1  0
  6  7  2  0
  7  8  1  0
  8  9  2  0
  9 10  1  0
 10 11  2  0
  5 12  1  0
 12 13  1  0
 13 14  1  0
 14 15  1  0
 15 16  1  0
 16 17  2  0
 16 18  1  0
 18 19  2  0
 19 20  1  0
 20 21  2  0
 21 22  1  0
 22 23  2  0
 23 24  1  0
 24 25  2  0
 25 26  1  0
 26 27  2  0
 27 28  1  0
 28 29  2  0
 15 30  1  0
 30 31  1  0
 11  6  1  0
 31 12  1  0
 29 20  1  0
 28 23  1  0
  1 32  1  0
  1 33  1  0
  1 34  1  0
  2 35  1  0
  2 36  1  0
  7 37  1  0
  8 38  1  0
  9 39  1  0
 10 40  1  0
 11 41  1  0
 12 42  1  0
 13 43  1  0
 13 44  1  0
 14 45  1  0
 14 46  1  0
 18 47  1  0
 19 48  1  0
 21 49  1  0
 22 50  1  0
 24 51  1  0
 25 52  1  0
 26 53  1  0
 27 54  1  0
 29 55  1  0
 30 56  1  0
 30 57  1  0
 31 58  1  0
 31 59  1  0
M  END
>  <smiles>  (26) 
CCC(=O)N(c1ccccc1)C1CCN(C(=O)/C=C/c2ccc3ccccc3c2)CC1

>  <score_type>  (26) 
oracle

>  <origin>  (26) 
autodockgpu

>  <m_score__min__energy>  (26) 
-9.4600000000000009

>  <m_primary>  (26) 
energy

>  <rmsd>  (26) 
5.837831020980438

>  <m_score__min__rmsd>  (26) 
5.837831020980438

>  <meeko>  (26) 
{"free_energy": -8.51, "intermolecular_energy": -10.6, "internal_energy": -1.47, "cluster_size": 43, "cluster_id": 1, "rank_in_cluster": 43}

>  <energy>  (26) 
-9.04

>  <cluster_rmsd>  (26) 
1.57

>  <cluster>  (26) 
1

$$$$

     RDKit          3D

 59 62  0  0  0  0  0  0  0  0999 V2000
  142.5390   78.8730  218.2310 C   0  0  0  0  0  0  0  0  0  0  0  0
  141.8620   79.9150  219.1300 C   0  0  0  0  0  0  0  0  0  0  0  0
  140.8200   79.1940  219.9130 C   0  0  0  0  0  0  0  0  0  0  0  0
  139.6840   79.0760  219.3380 O   0  0  0  0  0  0  0  0  0  0  0  0
  141.0620   78.6610  221.2150 N   0  0  0  0  0  0  0  0  0  0  0  0
  141.4670   79.5890  222.2390 C   0  0  0  0  0  0  0  0  0  0  0  0
  142.8410   79.5960  222.5330 C   0  0  0  0  0  0  0  0  0  0  0  0
  143.3520   80.4430  223.5010 C   0  0  0  0  0  0  0  0  0  0  0  0
  142.4820   81.2780  224.1700 C   0  0  0  0  0  0  0  0  0  0  0  0
  141.1370   81.2510  223.8600 C   0  0  0  0  0  0  0  0  0  0  0  0
  140.5980   80.4150  222.8970 C   0  0  0  0  0  0  0  0  0  0  0  0
  140.9380   77.2710  221.5030 C   0  0  0  0  0  0  0  0  0  0  0  0
  141.8180   76.4900  220.5310 C   0  0  0  0  0  0  0  0  0  0  0  0
  141.7490   75.0220  220.7620 C   0  0  0  0  0  0  0  0  0  0  0  0
  140.3200   74.6230  221.0660 N   0  0  0  0  0  0  0  0  0  0  0  0
  140.2260   73.4140  221.7400 C   0  0  0  0  0  0  0  0  0  0  0  0
  141.4270   72.8900  221.9440 O   0  0  0  0  0  0  0  0  0  0  0  0
  139.1700   72.6260  222.2500 C   0  0  0  0  0  0  0  0  0  0  0  0
  139.1580   71.3960  222.7050 C   0  0  0  0  0  0  0  0  0  0  0  0
  139.6300   70.9910  224.0250 C   0  0  0  0  0  0  0  0  0  0  0  0
  140.4160   71.8630  224.7920 C   0  0  0  0  0  0  0  0  0  0  0  0
  140.8800   71.5140  226.0400 C   0  0  0  0  0  0  0  0  0  0  0  0
  140.5940   70.2760  226.6090 C   0  0  0  0  0  0  0  0  0  0  0  0
  141.0770   69.9660  227.8580 C   0  0  0  0  0  0  0  0  0  0  0  0
  140.7710   68.7170  228.3900 C   0  0  0  0  0  0  0  0  0  0  0  0
  139.9940   67.8320  227.6500 C   0  0  0  0  0  0  0  0  0  0  0  0
  139.5260   68.1800  226.4030 C   0  0  0  0  0  0  0  0  0  0  0  0
  139.8240   69.4190  225.8630 C   0  0  0  0  0  0  0  0  0  0  0  0
  139.3590   69.7750  224.6040 C   0  0  0  0  0  0  0  0  0  0  0  0
  139.3680   75.5680  220.5980 C   0  0  0  0  0  0  0  0  0  0  0  0
  139.5110   76.8300  221.4430 C   0  0  0  0  0  0  0  0  0  0  0  0
  143.0320   78.1141  218.8563 H   0  0  0  0  0  0  0  0  0  0  0  0
  141.7821   78.3894  217.5960 H   0  0  0  0  0  0  0  0  0  0  0  0
  143.2884   79.3681  217.5960 H   0  0  0  0  0  0  0  0  0  0  0  0
  142.6005   80.3673  219.8084 H   0  0  0  0  0  0  0  0  0  0  0  0
  141.4176   80.7241  218.5318 H   0  0  0  0  0  0  0  0  0  0  0  0
  143.5176   78.9212  221.9881 H   0  0  0  0  0  0  0  0  0  0  0  0
  144.4276   80.4500  223.7315 H   0  0  0  0  0  0  0  0  0  0  0  0
  142.8574   81.9614  224.9459 H   0  0  0  0  0  0  0  0  0  0  0  0
  140.4608   81.9264  224.4045 H   0  0  0  0  0  0  0  0  0  0  0  0
  139.5213   80.4151  222.6717 H   0  0  0  0  0  0  0  0  0  0  0  0
  141.2781   77.0739  222.5304 H   0  0  0  0  0  0  0  0  0  0  0  0
  141.4859   76.7025  219.5041 H   0  0  0  0  0  0  0  0  0  0  0  0
  142.8592   76.8072  220.6902 H   0  0  0  0  0  0  0  0  0  0  0  0
  142.0932   74.4929  219.8611 H   0  0  0  0  0  0  0  0  0  0  0  0
  142.3922   74.7552  221.6135 H   0  0  0  0  0  0  0  0  0  0  0  0
  138.1922   73.1295  222.2686 H   0  0  0  0  0  0  0  0  0  0  0  0
  138.7629   70.6117  222.0426 H   0  0  0  0  0  0  0  0  0  0  0  0
  140.6687   72.8532  224.3851 H   0  0  0  0  0  0  0  0  0  0  0  0
  141.4935   72.2328  226.6031 H   0  0  0  0  0  0  0  0  0  0  0  0
  141.6888   70.6857  228.4217 H   0  0  0  0  0  0  0  0  0  0  0  0
  141.1401   68.4324  229.3863 H   0  0  0  0  0  0  0  0  0  0  0  0
  139.7508   66.8431  228.0658 H   0  0  0  0  0  0  0  0  0  0  0  0
  138.9112   67.4687  225.8320 H   0  0  0  0  0  0  0  0  0  0  0  0
  138.7467   69.0516  224.0457 H   0  0  0  0  0  0  0  0  0  0  0  0
  139.5610   75.8016  219.5406 H   0  0  0  0  0  0  0  0  0  0  0  0
  138.3492   75.1618  220.6826 H   0  0  0  0  0  0  0  0  0  0  0  0
  138.9042   77.6324  220.9980 H   0  0  0  0  0  0  0  0  0  0  0  0
  139.1670   76.6107  222.4645 H   0  0  0  0  0  0  0  0  0  0  0  0
  1  2  1  0
  2  3  1  0
  3  4  2  0
  3  5  1  0
  5  6  1  0
  6  7  2  0
  7  8  1  0
  8  9  2  0
  9 10  1  0
 10 11  2  0
  5 12  1  0
 12 13  1  0
 13 14  1  0
 14 15  1  0
 15 16  1  0
 16 17  2  0
 16 18  1  0
 18 19  2  0
 19 20  1  0
 20 21  2  0
 21 22  1  0
 22 23  2  0
 23 24  1  0
 24 25  2  0
 25 26  1  0
 26 27  2  0
 27 28  1  0
 28 29  2  0
 15 30  1  0
 30 31  1  0
 11  6  1  0
 31 12  1  0
 29 20  1  0
 28 23  1  0
  1 32  1  0
  1 33  1  0
  1 34  1  0
  2 35  1  0
  2 36  1  0
  7 37  1  0
  8 38  1  0
  9 39  1  0
 10 40  1  0
 11 41  1  0
 12 42  1  0
 13 43  1  0
 13 44  1  0
 14 45  1  0
 14 46  1  0
 18 47  1  0
 19 48  1  0
 21 49  1  0
 22 50  1  0
 24 51  1  0
 25 52  1  0
 26 53  1  0
 27 54  1  0
 29 55  1  0
 30 56  1  0
 30 57  1  0
 31 58  1  0
 31 59  1  0
M  END
>  <smiles>  (27) 
CCC(=O)N(c1ccccc1)C1CCN(C(=O)/C=C/c2ccc3ccccc3c2)CC1

>  <score_type>  (27) 
oracle

>  <origin>  (27) 
autodockgpu

>  <m_score__min__energy>  (27) 
-9.4600000000000009

>  <m_primary>  (27) 
energy

>  <rmsd>  (27) 
6.162188301822175

>  <m_score__min__rmsd>  (27) 
6.162188301822175

>  <meeko>  (27) 
{"free_energy": -9.18, "intermolecular_energy": -11.27, "internal_energy": -1.43, "cluster_size": 43, "cluster_id": 1, "rank_in_cluster": 16}

>  <energy>  (27) 
-9.03

>  <cluster_rmsd>  (27) 
0.97

>  <cluster>  (27) 
1

$$$$

     RDKit          3D

 59 62  0  0  0  0  0  0  0  0999 V2000
  142.1280   80.3680  218.9710 C   0  0  0  0  0  0  0  0  0  0  0  0
  141.9300   78.8480  218.9400 C   0  0  0  0  0  0  0  0  0  0  0  0
  140.7700   78.5480  219.8260 C   0  0  0  0  0  0  0  0  0  0  0  0
  139.6190   78.6820  219.2870 O   0  0  0  0  0  0  0  0  0  0  0  0
  140.9220   78.1330  221.1820 N   0  0  0  0  0  0  0  0  0  0  0  0
  141.3220   79.1360  222.1350 C   0  0  0  0  0  0  0  0  0  0  0  0
  140.2790   79.9180  222.6590 C   0  0  0  0  0  0  0  0  0  0  0  0
  140.5390   80.9150  223.5810 C   0  0  0  0  0  0  0  0  0  0  0  0
  141.8440   81.1250  223.9750 C   0  0  0  0  0  0  0  0  0  0  0  0
  142.8500   80.3410  223.4450 C   0  0  0  0  0  0  0  0  0  0  0  0
  142.6200   79.3350  222.5210 C   0  0  0  0  0  0  0  0  0  0  0  0
  140.7150   76.7840  221.5940 C   0  0  0  0  0  0  0  0  0  0  0  0
  141.6880   75.8870  220.8330 C   0  0  0  0  0  0  0  0  0  0  0  0
  141.5400   74.4540  221.2030 C   0  0  0  0  0  0  0  0  0  0  0  0
  140.0720   74.1170  221.3530 N   0  0  0  0  0  0  0  0  0  0  0  0
  139.8500   72.9880  222.1300 C   0  0  0  0  0  0  0  0  0  0  0  0
  140.9970   72.4660  222.5440 O   0  0  0  0  0  0  0  0  0  0  0  0
  138.7120   72.2800  222.5730 C   0  0  0  0  0  0  0  0  0  0  0  0
  138.5320   71.0020  222.8090 C   0  0  0  0  0  0  0  0  0  0  0  0
  138.9920   70.3030  224.0040 C   0  0  0  0  0  0  0  0  0  0  0  0
  138.7980   68.9200  224.1330 C   0  0  0  0  0  0  0  0  0  0  0  0
  139.2170   68.2280  225.2450 C   0  0  0  0  0  0  0  0  0  0  0  0
  139.8580   68.8640  226.3060 C   0  0  0  0  0  0  0  0  0  0  0  0
  140.2610   68.1370  227.4010 C   0  0  0  0  0  0  0  0  0  0  0  0
  140.8950   68.8110  228.4400 C   0  0  0  0  0  0  0  0  0  0  0  0
  141.1000   70.1830  228.3400 C   0  0  0  0  0  0  0  0  0  0  0  0
  140.6840   70.8760  227.2250 C   0  0  0  0  0  0  0  0  0  0  0  0
  140.0510   70.2170  226.1860 C   0  0  0  0  0  0  0  0  0  0  0  0
  139.6260   70.9110  225.0600 C   0  0  0  0  0  0  0  0  0  0  0  0
  139.2200   75.0250  220.6680 C   0  0  0  0  0  0  0  0  0  0  0  0
  139.2940   76.3670  221.3900 C   0  0  0  0  0  0  0  0  0  0  0  0
  142.1727   80.7107  220.0153 H   0  0  0  0  0  0  0  0  0  0  0  0
  143.0673   80.6259  218.4600 H   0  0  0  0  0  0  0  0  0  0  0  0
  141.2861   80.8579  218.4600 H   0  0  0  0  0  0  0  0  0  0  0  0
  141.7189   78.5143  217.9133 H   0  0  0  0  0  0  0  0  0  0  0  0
  142.8348   78.3245  219.2826 H   0  0  0  0  0  0  0  0  0  0  0  0
  139.2447   79.7351  222.3323 H   0  0  0  0  0  0  0  0  0  0  0  0
  139.7227   81.5275  223.9914 H   0  0  0  0  0  0  0  0  0  0  0  0
  142.0819   81.9115  224.7063 H   0  0  0  0  0  0  0  0  0  0  0  0
  143.8840   80.5244  223.7725 H   0  0  0  0  0  0  0  0  0  0  0  0
  143.4413   78.7251  222.1167 H   0  0  0  0  0  0  0  0  0  0  0  0
  140.9111   76.6909  222.6724 H   0  0  0  0  0  0  0  0  0  0  0  0
  141.4999   75.9954  219.7546 H   0  0  0  0  0  0  0  0  0  0  0  0
  142.7097   76.1991  221.0953 H   0  0  0  0  0  0  0  0  0  0  0  0
  141.9813   73.8252  220.4157 H   0  0  0  0  0  0  0  0  0  0  0  0
  142.0567   74.2677  222.1561 H   0  0  0  0  0  0  0  0  0  0  0  0
  137.8253   72.9063  222.7505 H   0  0  0  0  0  0  0  0  0  0  0  0
  137.9947   70.4144  222.0500 H   0  0  0  0  0  0  0  0  0  0  0  0
  138.2962   68.3730  223.3212 H   0  0  0  0  0  0  0  0  0  0  0  0
  139.0414   67.1434  225.2982 H   0  0  0  0  0  0  0  0  0  0  0  0
  140.0870   67.0522  227.4542 H   0  0  0  0  0  0  0  0  0  0  0  0
  141.2312   68.2635  229.3329 H   0  0  0  0  0  0  0  0  0  0  0  0
  141.5995   70.7200  229.1598 H   0  0  0  0  0  0  0  0  0  0  0  0
  140.8561   71.9605  227.1600 H   0  0  0  0  0  0  0  0  0  0  0  0
  139.8051   71.9953  225.0120 H   0  0  0  0  0  0  0  0  0  0  0  0
  139.5559   75.1409  219.6270 H   0  0  0  0  0  0  0  0  0  0  0  0
  138.1860   74.6498  220.6584 H   0  0  0  0  0  0  0  0  0  0  0  0
  138.7777   77.1291  220.7879 H   0  0  0  0  0  0  0  0  0  0  0  0
  138.8126   76.2644  222.3737 H   0  0  0  0  0  0  0  0  0  0  0  0
  1  2  1  0
  2  3  1  0
  3  4  2  0
  3  5  1  0
  5  6  1  0
  6  7  2  0
  7  8  1  0
  8  9  2  0
  9 10  1  0
 10 11  2  0
  5 12  1  0
 12 13  1  0
 13 14  1  0
 14 15  1  0
 15 16  1  0
 16 17  2  0
 16 18  1  0
 18 19  2  0
 19 20  1  0
 20 21  2  0
 21 22  1  0
 22 23  2  0
 23 24  1  0
 24 25  2  0
 25 26  1  0
 26 27  2  0
 27 28  1  0
 28 29  2  0
 15 30  1  0
 30 31  1  0
 11  6  1  0
 31 12  1  0
 29 20  1  0
 28 23  1  0
  1 32  1  0
  1 33  1  0
  1 34  1  0
  2 35  1  0
  2 36  1  0
  7 37  1  0
  8 38  1  0
  9 39  1  0
 10 40  1  0
 11 41  1  0
 12 42  1  0
 13 43  1  0
 13 44  1  0
 14 45  1  0
 14 46  1  0
 18 47  1  0
 19 48  1  0
 21 49  1  0
 22 50  1  0
 24 51  1  0
 25 52  1  0
 26 53  1  0
 27 54  1  0
 29 55  1  0
 30 56  1  0
 30 57  1  0
 31 58  1  0
 31 59  1  0
M  END
>  <smiles>  (28) 
CCC(=O)N(c1ccccc1)C1CCN(C(=O)/C=C/c2ccc3ccccc3c2)CC1

>  <score_type>  (28) 
oracle

>  <origin>  (28) 
autodockgpu

>  <m_score__min__energy>  (28) 
-9.4600000000000009

>  <m_primary>  (28) 
energy

>  <rmsd>  (28) 
6.175907997867817

>  <m_score__min__rmsd>  (28) 
6.175907997867817

>  <meeko>  (28) 
{"free_energy": -9.04, "intermolecular_energy": -11.13, "internal_energy": -1.45, "cluster_size": 43, "cluster_id": 1, "rank_in_cluster": 26}

>  <energy>  (28) 
-9.01

>  <cluster_rmsd>  (28) 
0.96

>  <cluster>  (28) 
1

$$$$

     RDKit          3D

 59 62  0  0  0  0  0  0  0  0999 V2000
  142.5650   80.8530  218.0440 C   0  0  0  0  0  0  0  0  0  0  0  0
  142.5700   79.3290  218.2170 C   0  0  0  0  0  0  0  0  0  0  0  0
  141.4630   78.9990  219.1580 C   0  0  0  0  0  0  0  0  0  0  0  0
  140.2830   79.1720  218.6980 O   0  0  0  0  0  0  0  0  0  0  0  0
  141.6910   78.5180  220.4810 N   0  0  0  0  0  0  0  0  0  0  0  0
  141.8150   79.5010  221.5260 C   0  0  0  0  0  0  0  0  0  0  0  0
  142.2090   79.0010  222.7790 C   0  0  0  0  0  0  0  0  0  0  0  0
  142.3610   79.8490  223.8610 C   0  0  0  0  0  0  0  0  0  0  0  0
  142.1160   81.1950  223.6830 C   0  0  0  0  0  0  0  0  0  0  0  0
  141.7320   81.6590  222.4420 C   0  0  0  0  0  0  0  0  0  0  0  0
  141.5730   80.8350  221.3400 C   0  0  0  0  0  0  0  0  0  0  0  0
  141.8200   77.1290  220.7750 C   0  0  0  0  0  0  0  0  0  0  0  0
  142.6640   76.4750  219.6840 C   0  0  0  0  0  0  0  0  0  0  0  0
  142.8490   75.0170  219.9120 C   0  0  0  0  0  0  0  0  0  0  0  0
  141.5530   74.4120  220.4090 N   0  0  0  0  0  0  0  0  0  0  0  0
  141.7370   73.2120  221.0820 C   0  0  0  0  0  0  0  0  0  0  0  0
  143.0200   72.8780  221.1120 O   0  0  0  0  0  0  0  0  0  0  0  0
  140.8940   72.2820  221.7280 C   0  0  0  0  0  0  0  0  0  0  0  0
  140.1860   72.3820  222.8270 C   0  0  0  0  0  0  0  0  0  0  0  0
  140.1220   71.3660  223.8730 C   0  0  0  0  0  0  0  0  0  0  0  0
  139.5250   70.1240  223.6160 C   0  0  0  0  0  0  0  0  0  0  0  0
  139.4460   69.1430  224.5780 C   0  0  0  0  0  0  0  0  0  0  0  0
  139.9560   69.3310  225.8600 C   0  0  0  0  0  0  0  0  0  0  0  0
  139.8560   68.3270  226.7930 C   0  0  0  0  0  0  0  0  0  0  0  0
  140.3740   68.5560  228.0640 C   0  0  0  0  0  0  0  0  0  0  0  0
  140.9710   69.7790  228.3470 C   0  0  0  0  0  0  0  0  0  0  0  0
  141.0540   70.7610  227.3850 C   0  0  0  0  0  0  0  0  0  0  0  0
  140.5410   70.5450  226.1180 C   0  0  0  0  0  0  0  0  0  0  0  0
  140.6180   71.5310  225.1440 C   0  0  0  0  0  0  0  0  0  0  0  0
  140.4140   75.1970  220.0850 C   0  0  0  0  0  0  0  0  0  0  0  0
  140.4810   76.4780  220.9110 C   0  0  0  0  0  0  0  0  0  0  0  0
  142.5634   81.3343  219.0331 H   0  0  0  0  0  0  0  0  0  0  0  0
  143.4621   81.1618  217.4874 H   0  0  0  0  0  0  0  0  0  0  0  0
  141.6659   81.1559  217.4874 H   0  0  0  0  0  0  0  0  0  0  0  0
  142.4021   78.8373  217.2475 H   0  0  0  0  0  0  0  0  0  0  0  0
  143.5372   78.9792  218.6071 H   0  0  0  0  0  0  0  0  0  0  0  0
  142.3984   77.9243  222.9004 H   0  0  0  0  0  0  0  0  0  0  0  0
  142.6704   79.4589  224.8418 H   0  0  0  0  0  0  0  0  0  0  0  0
  142.2262   81.8938  224.5254 H   0  0  0  0  0  0  0  0  0  0  0  0
  141.5428   82.7359  222.3217 H   0  0  0  0  0  0  0  0  0  0  0  0
  141.2667   81.2340  220.3617 H   0  0  0  0  0  0  0  0  0  0  0  0
  142.3255   77.0001  221.7434 H   0  0  0  0  0  0  0  0  0  0  0  0
  142.1644   76.6210  218.7149 H   0  0  0  0  0  0  0  0  0  0  0  0
  143.6576   76.9468  219.6986 H   0  0  0  0  0  0  0  0  0  0  0  0
  143.1407   74.5330  218.9682 H   0  0  0  0  0  0  0  0  0  0  0  0
  143.6365   74.8620  220.6642 H   0  0  0  0  0  0  0  0  0  0  0  0
  140.8182   71.3075  221.2234 H   0  0  0  0  0  0  0  0  0  0  0  0
  139.5966   73.2995  222.9714 H   0  0  0  0  0  0  0  0  0  0  0  0
  139.1079   69.9279  222.6172 H   0  0  0  0  0  0  0  0  0  0  0  0
  138.9672   68.1849  224.3275 H   0  0  0  0  0  0  0  0  0  0  0  0
  139.3793   67.3680  226.5418 H   0  0  0  0  0  0  0  0  0  0  0  0
  140.3116   67.7765  228.8376 H   0  0  0  0  0  0  0  0  0  0  0  0
  141.3817   69.9645  229.3505 H   0  0  0  0  0  0  0  0  0  0  0  0
  141.5309   71.7227  227.6251 H   0  0  0  0  0  0  0  0  0  0  0  0
  141.0974   72.4871  225.4009 H   0  0  0  0  0  0  0  0  0  0  0  0
  140.4211   75.4422  219.0127 H   0  0  0  0  0  0  0  0  0  0  0  0
  139.4897   74.6438  220.3078 H   0  0  0  0  0  0  0  0  0  0  0  0
  139.7046   77.1739  220.5605 H   0  0  0  0  0  0  0  0  0  0  0  0
  140.3188   76.2238  221.9689 H   0  0  0  0  0  0  0  0  0  0  0  0
  1  2  1  0
  2  3  1  0
  3  4  2  0
  3  5  1  0
  5  6  1  0
  6  7  2  0
  7  8  1  0
  8  9  2  0
  9 10  1  0
 10 11  2  0
  5 12  1  0
 12 13  1  0
 13 14  1  0
 14 15  1  0
 15 16  1  0
 16 17  2  0
 16 18  1  0
 18 19  2  0
 19 20  1  0
 20 21  2  0
 21 22  1  0
 22 23  2  0
 23 24  1  0
 24 25  2  0
 25 26  1  0
 26 27  2  0
 27 28  1  0
 28 29  2  0
 15 30  1  0
 30 31  1  0
 11  6  1  0
 31 12  1  0
 29 20  1  0
 28 23  1  0
  1 32  1  0
  1 33  1  0
  1 34  1  0
  2 35  1  0
  2 36  1  0
  7 37  1  0
  8 38  1  0
  9 39  1  0
 10 40  1  0
 11 41  1  0
 12 42  1  0
 13 43  1  0
 13 44  1  0
 14 45  1  0
 14 46  1  0
 18 47  1  0
 19 48  1  0
 21 49  1  0
 22 50  1  0
 24 51  1  0
 25 52  1  0
 26 53  1  0
 27 54  1  0
 29 55  1  0
 30 56  1  0
 30 57  1  0
 31 58  1  0
 31 59  1  0
M  END
>  <smiles>  (29) 
CCC(=O)N(c1ccccc1)C1CCN(C(=O)/C=C/c2ccc3ccccc3c2)CC1

>  <score_type>  (29) 
oracle

>  <origin>  (29) 
autodockgpu

>  <m_score__min__energy>  (29) 
-9.4600000000000009

>  <m_primary>  (29) 
energy

>  <rmsd>  (29) 
6.0321545779820305

>  <m_score__min__rmsd>  (29) 
6.0321545779820305

>  <meeko>  (29) 
{"free_energy": -9.17, "intermolecular_energy": -11.26, "internal_energy": -1.31, "cluster_size": 6, "cluster_id": 2, "rank_in_cluster": 1}

>  <energy>  (29) 
-9.01

>  <cluster_rmsd>  (29) 
1.07

>  <cluster>  (29) 
1

$$$$

     RDKit          3D

 59 62  0  0  0  0  0  0  0  0999 V2000
  142.5810   80.8870  223.9000 C   0  0  0  0  0  0  0  0  0  0  0  0
  142.9490   79.8640  222.8190 C   0  0  0  0  0  0  0  0  0  0  0  0
  141.7350   79.6750  221.9760 C   0  0  0  0  0  0  0  0  0  0  0  0
  141.7930   80.1890  220.8070 O   0  0  0  0  0  0  0  0  0  0  0  0
  140.5820   78.9670  222.4290 N   0  0  0  0  0  0  0  0  0  0  0  0
  139.4820   79.7510  222.9250 C   0  0  0  0  0  0  0  0  0  0  0  0
  138.8080   80.5200  221.9600 C   0  0  0  0  0  0  0  0  0  0  0  0
  137.7350   81.3170  222.3150 C   0  0  0  0  0  0  0  0  0  0  0  0
  137.3420   81.3400  223.6370 C   0  0  0  0  0  0  0  0  0  0  0  0
  138.0200   80.5750  224.5640 C   0  0  0  0  0  0  0  0  0  0  0  0
  139.0970   79.7670  224.2380 C   0  0  0  0  0  0  0  0  0  0  0  0
  140.5130   77.5430  222.4230 C   0  0  0  0  0  0  0  0  0  0  0  0
  141.4040   77.0140  221.3020 C   0  0  0  0  0  0  0  0  0  0  0  0
  141.3910   75.5290  221.2230 C   0  0  0  0  0  0  0  0  0  0  0  0
  139.9820   75.0220  221.4500 N   0  0  0  0  0  0  0  0  0  0  0  0
  139.9420   73.6960  221.8590 C   0  0  0  0  0  0  0  0  0  0  0  0
  141.1650   73.1870  221.9380 O   0  0  0  0  0  0  0  0  0  0  0  0
  138.9240   72.7800  222.2020 C   0  0  0  0  0  0  0  0  0  0  0  0
  138.9650   71.4840  222.4020 C   0  0  0  0  0  0  0  0  0  0  0  0
  139.2660   70.8470  223.6800 C   0  0  0  0  0  0  0  0  0  0  0  0
  138.8850   69.5190  223.9140 C   0  0  0  0  0  0  0  0  0  0  0  0
  139.1510   68.8870  225.1070 C   0  0  0  0  0  0  0  0  0  0  0  0
  139.8130   69.5320  226.1480 C   0  0  0  0  0  0  0  0  0  0  0  0
  140.0590   68.8670  227.3250 C   0  0  0  0  0  0  0  0  0  0  0  0
  140.7210   69.5490  228.3410 C   0  0  0  0  0  0  0  0  0  0  0  0
  141.1090   70.8690  228.1360 C   0  0  0  0  0  0  0  0  0  0  0  0
  140.8470   71.5010  226.9420 C   0  0  0  0  0  0  0  0  0  0  0  0
  140.1890   70.8340  225.9240 C   0  0  0  0  0  0  0  0  0  0  0  0
  139.9180   71.4670  224.7190 C   0  0  0  0  0  0  0  0  0  0  0  0
  138.9900   76.0060  221.1970 C   0  0  0  0  0  0  0  0  0  0  0  0
  139.1020   77.0700  222.2850 C   0  0  0  0  0  0  0  0  0  0  0  0
  142.7405   80.4436  224.8939 H   0  0  0  0  0  0  0  0  0  0  0  0
  143.2143   81.7797  223.7908 H   0  0  0  0  0  0  0  0  0  0  0  0
  141.5241   81.1717  223.7908 H   0  0  0  0  0  0  0  0  0  0  0  0
  143.7805   80.2425  222.2064 H   0  0  0  0  0  0  0  0  0  0  0  0
  143.2704   78.9127  223.2681 H   0  0  0  0  0  0  0  0  0  0  0  0
  139.1378   80.4873  220.9111 H   0  0  0  0  0  0  0  0  0  0  0  0
  137.2071   81.9187  221.5605 H   0  0  0  0  0  0  0  0  0  0  0  0
  136.4927   81.9648  223.9506 H   0  0  0  0  0  0  0  0  0  0  0  0
  137.6893   80.6084  225.6126 H   0  0  0  0  0  0  0  0  0  0  0  0
  139.6180   79.1668  224.9985 H   0  0  0  0  0  0  0  0  0  0  0  0
  140.8775   77.1507  223.3838 H   0  0  0  0  0  0  0  0  0  0  0  0
  141.0478   77.4222  220.3447 H   0  0  0  0  0  0  0  0  0  0  0  0
  142.4358   77.3304  221.5149 H   0  0  0  0  0  0  0  0  0  0  0  0
  141.7387   75.2119  220.2287 H   0  0  0  0  0  0  0  0  0  0  0  0
  142.0574   75.1156  221.9944 H   0  0  0  0  0  0  0  0  0  0  0  0
  137.9271   73.2292  222.3219 H   0  0  0  0  0  0  0  0  0  0  0  0
  138.7571   70.8292  221.5429 H   0  0  0  0  0  0  0  0  0  0  0  0
  138.3586   68.9663  223.1219 H   0  0  0  0  0  0  0  0  0  0  0  0
  138.8317   67.8431  225.2419 H   0  0  0  0  0  0  0  0  0  0  0  0
  139.7409   67.8227  227.4604 H   0  0  0  0  0  0  0  0  0  0  0  0
  140.9355   69.0492  229.2972 H   0  0  0  0  0  0  0  0  0  0  0  0
  141.6308   71.4134  228.9368 H   0  0  0  0  0  0  0  0  0  0  0  0
  141.1631   72.5444  226.7958 H   0  0  0  0  0  0  0  0  0  0  0  0
  140.2392   72.5111  224.5898 H   0  0  0  0  0  0  0  0  0  0  0  0
  139.1573   76.4611  220.2096 H   0  0  0  0  0  0  0  0  0  0  0  0
  137.9878   75.5526  221.2040 H   0  0  0  0  0  0  0  0  0  0  0  0
  138.4598   77.9235  222.0219 H   0  0  0  0  0  0  0  0  0  0  0  0
  138.7828   76.6305  223.2415 H   0  0  0  0  0  0  0  0  0  0  0  0
  1  2  1  0
  2  3  1  0
  3  4  2  0
  3  5  1  0
  5  6  1  0
  6  7  2  0
  7  8  1  0
  8  9  2  0
  9 10  1  0
 10 11  2  0
  5 12  1  0
 12 13  1  0
 13 14  1  0
 14 15  1  0
 15 16  1  0
 16 17  2  0
 16 18  1  0
 18 19  2  0
 19 20  1  0
 20 21  2  0
 21 22  1  0
 22 23  2  0
 23 24  1  0
 24 25  2  0
 25 26  1  0
 26 27  2  0
 27 28  1  0
 28 29  2  0
 15 30  1  0
 30 31  1  0
 11  6  1  0
 31 12  1  0
 29 20  1  0
 28 23  1  0
  1 32  1  0
  1 33  1  0
  1 34  1  0
  2 35  1  0
  2 36  1  0
  7 37  1  0
  8 38  1  0
  9 39  1  0
 10 40  1  0
 11 41  1  0
 12 42  1  0
 13 43  1  0
 13 44  1  0
 14 45  1  0
 14 46  1  0
 18 47  1  0
 19 48  1  0
 21 49  1  0
 22 50  1  0
 24 51  1  0
 25 52  1  0
 26 53  1  0
 27 54  1  0
 29 55  1  0
 30 56  1  0
 30 57  1  0
 31 58  1  0
 31 59  1  0
M  END
>  <smiles>  (30) 
CCC(=O)N(c1ccccc1)C1CCN(C(=O)/C=C/c2ccc3ccccc3c2)CC1

>  <score_type>  (30) 
oracle

>  <origin>  (30) 
autodockgpu

>  <m_score__min__energy>  (30) 
-9.4600000000000009

>  <m_primary>  (30) 
energy

>  <rmsd>  (30) 
5.957258890180881

>  <m_score__min__rmsd>  (30) 
5.957258890180881

>  <meeko>  (30) 
{"free_energy": -9.1, "intermolecular_energy": -11.19, "internal_energy": -1.45, "cluster_size": 43, "cluster_id": 1, "rank_in_cluster": 22}

>  <energy>  (30) 
-9.0

>  <cluster_rmsd>  (30) 
0.72

>  <cluster>  (30) 
1

$$$$

     RDKit          3D

 59 62  0  0  0  0  0  0  0  0999 V2000
  142.3760   79.5230  223.4260 C   0  0  0  0  0  0  0  0  0  0  0  0
  141.9250   80.2890  222.1770 C   0  0  0  0  0  0  0  0  0  0  0  0
  140.8520   79.4760  221.5380 C   0  0  0  0  0  0  0  0  0  0  0  0
  140.8680   79.4550  220.2600 O   0  0  0  0  0  0  0  0  0  0  0  0
  139.8730   78.7610  222.2900 N   0  0  0  0  0  0  0  0  0  0  0  0
  138.8890   79.5400  222.9950 C   0  0  0  0  0  0  0  0  0  0  0  0
  137.6430   79.6570  222.3550 C   0  0  0  0  0  0  0  0  0  0  0  0
  136.6170   80.3820  222.9330 C   0  0  0  0  0  0  0  0  0  0  0  0
  136.8440   80.9880  224.1510 C   0  0  0  0  0  0  0  0  0  0  0  0
  138.0770   80.8560  224.7590 C   0  0  0  0  0  0  0  0  0  0  0  0
  139.1220   80.1360  224.2040 C   0  0  0  0  0  0  0  0  0  0  0  0
  139.8680   77.3380  222.3740 C   0  0  0  0  0  0  0  0  0  0  0  0
  141.0720   76.7980  221.6060 C   0  0  0  0  0  0  0  0  0  0  0  0
  141.1430   75.3130  221.6410 C   0  0  0  0  0  0  0  0  0  0  0  0
  139.7530   74.7340  221.4850 N   0  0  0  0  0  0  0  0  0  0  0  0
  139.6490   73.4360  221.9650 C   0  0  0  0  0  0  0  0  0  0  0  0
  140.8130   73.0100  222.4370 O   0  0  0  0  0  0  0  0  0  0  0  0
  138.6140   72.4810  222.0650 C   0  0  0  0  0  0  0  0  0  0  0  0
  138.6380   71.2200  222.4270 C   0  0  0  0  0  0  0  0  0  0  0  0
  139.1200   70.7330  223.7140 C   0  0  0  0  0  0  0  0  0  0  0  0
  139.0200   69.3720  224.0380 C   0  0  0  0  0  0  0  0  0  0  0  0
  139.4630   68.8770  225.2430 C   0  0  0  0  0  0  0  0  0  0  0  0
  140.0360   69.7010  226.2080 C   0  0  0  0  0  0  0  0  0  0  0  0
  140.4650   69.1680  227.4000 C   0  0  0  0  0  0  0  0  0  0  0  0
  141.0290   70.0260  228.3390 C   0  0  0  0  0  0  0  0  0  0  0  0
  141.1410   71.3800  228.0460 C   0  0  0  0  0  0  0  0  0  0  0  0
  140.7010   71.8770  226.8390 C   0  0  0  0  0  0  0  0  0  0  0  0
  140.1370   71.0340  225.8970 C   0  0  0  0  0  0  0  0  0  0  0  0
  139.6890   71.5280  224.6800 C   0  0  0  0  0  0  0  0  0  0  0  0
  138.8400   75.6370  220.8780 C   0  0  0  0  0  0  0  0  0  0  0  0
  138.5810   76.7700  221.8660 C   0  0  0  0  0  0  0  0  0  0  0  0
  142.0552   80.0679  224.3261 H   0  0  0  0  0  0  0  0  0  0  0  0
  141.9243   78.5200  223.4241 H   0  0  0  0  0  0  0  0  0  0  0  0
  143.4722   79.4314  223.4241 H   0  0  0  0  0  0  0  0  0  0  0  0
  141.5338   81.2775  222.4596 H   0  0  0  0  0  0  0  0  0  0  0  0
  142.7658   80.4467  221.4855 H   0  0  0  0  0  0  0  0  0  0  0  0
  137.4823   79.1664  221.3837 H   0  0  0  0  0  0  0  0  0  0  0  0
  135.6417   80.4733  222.4326 H   0  0  0  0  0  0  0  0  0  0  0  0
  136.0480   81.5728  224.6351 H   0  0  0  0  0  0  0  0  0  0  0  0
  138.2368   81.3462  225.7307 H   0  0  0  0  0  0  0  0  0  0  0  0
  140.0938   80.0476  224.7117 H   0  0  0  0  0  0  0  0  0  0  0  0
  139.9478   77.0288  223.4266 H   0  0  0  0  0  0  0  0  0  0  0  0
  140.9986   77.1242  220.5580 H   0  0  0  0  0  0  0  0  0  0  0  0
  141.9810   77.1901  222.0856 H   0  0  0  0  0  0  0  0  0  0  0  0
  141.7819   74.9576  220.8191 H   0  0  0  0  0  0  0  0  0  0  0  0
  141.5671   74.9903  222.6033 H   0  0  0  0  0  0  0  0  0  0  0  0
  137.6173   72.8585  221.7930 H   0  0  0  0  0  0  0  0  0  0  0  0
  138.2673   70.4758  221.7068 H   0  0  0  0  0  0  0  0  0  0  0  0
  138.5746   68.6804  223.3077 H   0  0  0  0  0  0  0  0  0  0  0  0
  139.3617   67.8013  225.4495 H   0  0  0  0  0  0  0  0  0  0  0  0
  140.3651   68.0921  227.6061 H   0  0  0  0  0  0  0  0  0  0  0  0
  141.3831   69.6361  229.3047 H   0  0  0  0  0  0  0  0  0  0  0  0
  141.5857   72.0619  228.7858 H   0  0  0  0  0  0  0  0  0  0  0  0
  140.7985   72.9510  226.6223 H   0  0  0  0  0  0  0  0  0  0  0  0
  139.7940   72.6044  224.4794 H   0  0  0  0  0  0  0  0  0  0  0  0
  139.2729   76.0404  219.9507 H   0  0  0  0  0  0  0  0  0  0  0  0
  137.9004   75.1233  220.6264 H   0  0  0  0  0  0  0  0  0  0  0  0
  138.0105   77.5642  221.3622 H   0  0  0  0  0  0  0  0  0  0  0  0
  138.0117   76.3706  222.7183 H   0  0  0  0  0  0  0  0  0  0  0  0
  1  2  1  0
  2  3  1  0
  3  4  2  0
  3  5  1  0
  5  6  1  0
  6  7  2  0
  7  8  1  0
  8  9  2  0
  9 10  1  0
 10 11  2  0
  5 12  1  0
 12 13  1  0
 13 14  1  0
 14 15  1  0
 15 16  1  0
 16 17  2  0
 16 18  1  0
 18 19  2  0
 19 20  1  0
 20 21  2  0
 21 22  1  0
 22 23  2  0
 23 24  1  0
 24 25  2  0
 25 26  1  0
 26 27  2  0
 27 28  1  0
 28 29  2  0
 15 30  1  0
 30 31  1  0
 11  6  1  0
 31 12  1  0
 29 20  1  0
 28 23  1  0
  1 32  1  0
  1 33  1  0
  1 34  1  0
  2 35  1  0
  2 36  1  0
  7 37  1  0
  8 38  1  0
  9 39  1  0
 10 40  1  0
 11 41  1  0
 12 42  1  0
 13 43  1  0
 13 44  1  0
 14 45  1  0
 14 46  1  0
 18 47  1  0
 19 48  1  0
 21 49  1  0
 22 50  1  0
 24 51  1  0
 25 52  1  0
 26 53  1  0
 27 54  1  0
 29 55  1  0
 30 56  1  0
 30 57  1  0
 31 58  1  0
 31 59  1  0
M  END
>  <smiles>  (31) 
CCC(=O)N(c1ccccc1)C1CCN(C(=O)/C=C/c2ccc3ccccc3c2)CC1

>  <score_type>  (31) 
oracle

>  <origin>  (31) 
autodockgpu

>  <m_score__min__energy>  (31) 
-9.4600000000000009

>  <m_primary>  (31) 
energy

>  <rmsd>  (31) 
6.3421604469854875

>  <m_score__min__rmsd>  (31) 
6.3421604469854875

>  <meeko>  (31) 
{"free_energy": -8.8, "intermolecular_energy": -10.88, "internal_energy": -1.37, "cluster_size": 43, "cluster_id": 1, "rank_in_cluster": 37}

>  <energy>  (31) 
-8.99

>  <cluster_rmsd>  (31) 
1.96

>  <cluster>  (31) 
1

$$$$

     RDKit          3D

 59 62  0  0  0  0  0  0  0  0999 V2000
  142.1550   80.7840  218.7350 C   0  0  0  0  0  0  0  0  0  0  0  0
  141.9290   79.2740  218.8820 C   0  0  0  0  0  0  0  0  0  0  0  0
  140.8850   79.0970  219.9290 C   0  0  0  0  0  0  0  0  0  0  0  0
  139.7040   79.4520  219.5920 O   0  0  0  0  0  0  0  0  0  0  0  0
  141.1690   78.5620  221.2210 N   0  0  0  0  0  0  0  0  0  0  0  0
  141.6280   79.4850  222.2270 C   0  0  0  0  0  0  0  0  0  0  0  0
  140.6420   80.3330  222.7590 C   0  0  0  0  0  0  0  0  0  0  0  0
  140.9620   81.2640  223.7310 C   0  0  0  0  0  0  0  0  0  0  0  0
  142.2680   81.3410  224.1650 C   0  0  0  0  0  0  0  0  0  0  0  0
  143.2170   80.4940  223.6260 C   0  0  0  0  0  0  0  0  0  0  0  0
  142.9260   79.5530  222.6530 C   0  0  0  0  0  0  0  0  0  0  0  0
  141.0350   77.1750  221.5170 C   0  0  0  0  0  0  0  0  0  0  0  0
  141.8590   76.3780  220.5090 C   0  0  0  0  0  0  0  0  0  0  0  0
  141.7760   74.9120  220.7460 C   0  0  0  0  0  0  0  0  0  0  0  0
  140.3550   74.5360  221.1120 N   0  0  0  0  0  0  0  0  0  0  0  0
  140.2710   73.3290  221.7920 C   0  0  0  0  0  0  0  0  0  0  0  0
  141.4720   72.7860  221.9440 O   0  0  0  0  0  0  0  0  0  0  0  0
  139.2260   72.5590  222.3480 C   0  0  0  0  0  0  0  0  0  0  0  0
  139.2290   71.3560  222.8700 C   0  0  0  0  0  0  0  0  0  0  0  0
  139.7210   71.0270  224.2030 C   0  0  0  0  0  0  0  0  0  0  0  0
  140.5850   71.9040  224.8740 C   0  0  0  0  0  0  0  0  0  0  0  0
  141.0710   71.6260  226.1310 C   0  0  0  0  0  0  0  0  0  0  0  0
  140.7310   70.4570  226.8060 C   0  0  0  0  0  0  0  0  0  0  0  0
  141.2380   70.2150  228.0600 C   0  0  0  0  0  0  0  0  0  0  0  0
  140.8760   69.0330  228.7000 C   0  0  0  0  0  0  0  0  0  0  0  0
  140.0210   68.1440  228.0580 C   0  0  0  0  0  0  0  0  0  0  0  0
  139.5320   68.4230  226.8010 C   0  0  0  0  0  0  0  0  0  0  0  0
  139.8850   69.5940  226.1550 C   0  0  0  0  0  0  0  0  0  0  0  0
  139.3980   69.8800  224.8860 C   0  0  0  0  0  0  0  0  0  0  0  0
  139.3990   75.4960  220.6840 C   0  0  0  0  0  0  0  0  0  0  0  0
  139.6000   76.7570  221.5200 C   0  0  0  0  0  0  0  0  0  0  0  0
  142.2237   81.2432  219.7322 H   0  0  0  0  0  0  0  0  0  0  0  0
  143.0899   80.9629  218.1837 H   0  0  0  0  0  0  0  0  0  0  0  0
  141.3134   81.2288  218.1837 H   0  0  0  0  0  0  0  0  0  0  0  0
  141.5852   78.8476  217.9281 H   0  0  0  0  0  0  0  0  0  0  0  0
  142.8605   78.7601  219.1615 H   0  0  0  0  0  0  0  0  0  0  0  0
  139.6054   80.2559  222.3991 H   0  0  0  0  0  0  0  0  0  0  0  0
  140.1910   81.9283  224.1484 H   0  0  0  0  0  0  0  0  0  0  0  0
  142.5529   82.0723  224.9357 H   0  0  0  0  0  0  0  0  0  0  0  0
  144.2532   80.5709  223.9871 H   0  0  0  0  0  0  0  0  0  0  0  0
  143.7023   78.8910  222.2418 H   0  0  0  0  0  0  0  0  0  0  0  0
  141.4162   76.9742  222.5291 H   0  0  0  0  0  0  0  0  0  0  0  0
  141.4860   76.5945  219.4971 H   0  0  0  0  0  0  0  0  0  0  0  0
  142.9112   76.6783  220.6219 H   0  0  0  0  0  0  0  0  0  0  0  0
  142.0727   74.3761  219.8323 H   0  0  0  0  0  0  0  0  0  0  0  0
  142.4505   74.6364  221.5701 H   0  0  0  0  0  0  0  0  0  0  0  0
  138.2426   73.0519  222.3423 H   0  0  0  0  0  0  0  0  0  0  0  0
  138.8309   70.5340  222.2570 H   0  0  0  0  0  0  0  0  0  0  0  0
  140.8830   72.8413  224.3814 H   0  0  0  0  0  0  0  0  0  0  0  0
  141.7462   72.3468  226.6154 H   0  0  0  0  0  0  0  0  0  0  0  0
  141.9121   70.9362  228.5453 H   0  0  0  0  0  0  0  0  0  0  0  0
  141.2627   68.8044  229.7041 H   0  0  0  0  0  0  0  0  0  0  0  0
  139.7322   67.2083  228.5592 H   0  0  0  0  0  0  0  0  0  0  0  0
  138.8559   67.7094  226.3073 H   0  0  0  0  0  0  0  0  0  0  0  0
  138.7234   69.1554  224.4066 H   0  0  0  0  0  0  0  0  0  0  0  0
  139.5494   75.7251  219.6187 H   0  0  0  0  0  0  0  0  0  0  0  0
  138.3783   75.1070  220.8136 H   0  0  0  0  0  0  0  0  0  0  0  0
  138.9874   77.5687  221.1006 H   0  0  0  0  0  0  0  0  0  0  0  0
  139.2979   76.5440  222.5560 H   0  0  0  0  0  0  0  0  0  0  0  0
  1  2  1  0
  2  3  1  0
  3  4  2  0
  3  5  1  0
  5  6  1  0
  6  7  2  0
  7  8  1  0
  8  9  2  0
  9 10  1  0
 10 11  2  0
  5 12  1  0
 12 13  1  0
 13 14  1  0
 14 15  1  0
 15 16  1  0
 16 17  2  0
 16 18  1  0
 18 19  2  0
 19 20  1  0
 20 21  2  0
 21 22  1  0
 22 23  2  0
 23 24  1  0
 24 25  2  0
 25 26  1  0
 26 27  2  0
 27 28  1  0
 28 29  2  0
 15 30  1  0
 30 31  1  0
 11  6  1  0
 31 12  1  0
 29 20  1  0
 28 23  1  0
  1 32  1  0
  1 33  1  0
  1 34  1  0
  2 35  1  0
  2 36  1  0
  7 37  1  0
  8 38  1  0
  9 39  1  0
 10 40  1  0
 11 41  1  0
 12 42  1  0
 13 43  1  0
 13 44  1  0
 14 45  1  0
 14 46  1  0
 18 47  1  0
 19 48  1  0
 21 49  1  0
 22 50  1  0
 24 51  1  0
 25 52  1  0
 26 53  1  0
 27 54  1  0
 29 55  1  0
 30 56  1  0
 30 57  1  0
 31 58  1  0
 31 59  1  0
M  END
>  <smiles>  (32) 
CCC(=O)N(c1ccccc1)C1CCN(C(=O)/C=C/c2ccc3ccccc3c2)CC1

>  <score_type>  (32) 
oracle

>  <origin>  (32) 
autodockgpu

>  <m_score__min__energy>  (32) 
-9.4600000000000009

>  <m_primary>  (32) 
energy

>  <rmsd>  (32) 
6.211769535527372

>  <m_score__min__rmsd>  (32) 
6.211769535527372

>  <meeko>  (32) 
{"free_energy": -9.18, "intermolecular_energy": -11.27, "internal_energy": -1.41, "cluster_size": 43, "cluster_id": 1, "rank_in_cluster": 15}

>  <energy>  (32) 
-8.99

>  <cluster_rmsd>  (32) 
1.06

>  <cluster>  (32) 
1

$$$$

     RDKit          3D

 59 62  0  0  0  0  0  0  0  0999 V2000
  142.5700   80.7980  218.1520 C   0  0  0  0  0  0  0  0  0  0  0  0
  142.1780   79.3540  218.4880 C   0  0  0  0  0  0  0  0  0  0  0  0
  140.9630   79.4280  219.3470 C   0  0  0  0  0  0  0  0  0  0  0  0
  139.9700   80.0550  218.8410 O   0  0  0  0  0  0  0  0  0  0  0  0
  140.8970   78.8380  220.6440 N   0  0  0  0  0  0  0  0  0  0  0  0
  141.4330   79.6020  221.7410 C   0  0  0  0  0  0  0  0  0  0  0  0
  140.7160   80.7630  222.0730 C   0  0  0  0  0  0  0  0  0  0  0  0
  141.1340   81.5800  223.1070 C   0  0  0  0  0  0  0  0  0  0  0  0
  142.2710   81.2290  223.8050 C   0  0  0  0  0  0  0  0  0  0  0  0
  142.9570   80.0820  223.4580 C   0  0  0  0  0  0  0  0  0  0  0  0
  142.5610   79.2450  222.4280 C   0  0  0  0  0  0  0  0  0  0  0  0
  140.3500   77.5400  220.8630 C   0  0  0  0  0  0  0  0  0  0  0  0
  139.9690   77.4130  222.3360 C   0  0  0  0  0  0  0  0  0  0  0  0
  139.3880   76.0820  222.6550 C   0  0  0  0  0  0  0  0  0  0  0  0
  140.1530   75.0030  221.9180 N   0  0  0  0  0  0  0  0  0  0  0  0
  139.4300   73.8290  221.7690 C   0  0  0  0  0  0  0  0  0  0  0  0
  138.2320   73.9350  222.3300 O   0  0  0  0  0  0  0  0  0  0  0  0
  139.6660   72.5700  221.1730 C   0  0  0  0  0  0  0  0  0  0  0  0
  140.1560   71.4610  221.6710 C   0  0  0  0  0  0  0  0  0  0  0  0
  140.0370   71.0500  223.0660 C   0  0  0  0  0  0  0  0  0  0  0  0
  139.2180   69.9670  223.4160 C   0  0  0  0  0  0  0  0  0  0  0  0
  139.0810   69.5530  224.7210 C   0  0  0  0  0  0  0  0  0  0  0  0
  139.7490   70.1860  225.7660 C   0  0  0  0  0  0  0  0  0  0  0  0
  139.5840   69.7430  227.0570 C   0  0  0  0  0  0  0  0  0  0  0  0
  140.2660   70.4060  228.0720 C   0  0  0  0  0  0  0  0  0  0  0  0
  141.0850   71.4840  227.7540 C   0  0  0  0  0  0  0  0  0  0  0  0
  141.2260   71.8980  226.4480 C   0  0  0  0  0  0  0  0  0  0  0  0
  140.5520   71.2470  225.4290 C   0  0  0  0  0  0  0  0  0  0  0  0
  140.6860   71.6620  224.1110 C   0  0  0  0  0  0  0  0  0  0  0  0
  141.4570   75.4150  221.5290 C   0  0  0  0  0  0  0  0  0  0  0  0
  141.3050   76.4710  220.4400 C   0  0  0  0  0  0  0  0  0  0  0  0
  142.7233   81.3626  219.0835 H   0  0  0  0  0  0  0  0  0  0  0  0
  143.5007   80.7983  217.5657 H   0  0  0  0  0  0  0  0  0  0  0  0
  141.7672   81.2689  217.5657 H   0  0  0  0  0  0  0  0  0  0  0  0
  141.9566   78.7971  217.5656 H   0  0  0  0  0  0  0  0  0  0  0  0
  142.9967   78.8324  219.0054 H   0  0  0  0  0  0  0  0  0  0  0  0
  139.8118   81.0252  221.5041 H   0  0  0  0  0  0  0  0  0  0  0  0
  140.5726   82.4895  223.3673 H   0  0  0  0  0  0  0  0  0  0  0  0
  142.6288   81.8589  224.6328 H   0  0  0  0  0  0  0  0  0  0  0  0
  143.8614   79.8205  224.0269 H   0  0  0  0  0  0  0  0  0  0  0  0
  143.1266   78.3363  222.1743 H   0  0  0  0  0  0  0  0  0  0  0  0
  139.4481   77.4092  220.2470 H   0  0  0  0  0  0  0  0  0  0  0  0
  140.8703   77.5618  222.9488 H   0  0  0  0  0  0  0  0  0  0  0  0
  139.2057   78.1746  222.5534 H   0  0  0  0  0  0  0  0  0  0  0  0
  139.4555   75.9034  223.7383 H   0  0  0  0  0  0  0  0  0  0  0  0
  138.3335   76.0598  222.3427 H   0  0  0  0  0  0  0  0  0  0  0  0
  139.3917   72.5103  220.1094 H   0  0  0  0  0  0  0  0  0  0  0  0
  140.6969   70.7907  220.9868 H   0  0  0  0  0  0  0  0  0  0  0  0
  138.6699   69.4336  222.6254 H   0  0  0  0  0  0  0  0  0  0  0  0
  138.4257   68.6984  224.9449 H   0  0  0  0  0  0  0  0  0  0  0  0
  138.9302   68.8873  227.2813 H   0  0  0  0  0  0  0  0  0  0  0  0
  140.1584   70.0804  229.1172 H   0  0  0  0  0  0  0  0  0  0  0  0
  141.6257   72.0114  228.5537 H   0  0  0  0  0  0  0  0  0  0  0  0
  141.8786   72.7518  226.2130 H   0  0  0  0  0  0  0  0  0  0  0  0
  141.3408   72.5188  223.8937 H   0  0  0  0  0  0  0  0  0  0  0  0
  141.9882   75.8415  222.3927 H   0  0  0  0  0  0  0  0  0  0  0  0
  142.0361   74.5576  221.1555 H   0  0  0  0  0  0  0  0  0  0  0  0
  142.2868   76.9243  220.2385 H   0  0  0  0  0  0  0  0  0  0  0  0
  140.9118   75.9871  219.5338 H   0  0  0  0  0  0  0  0  0  0  0  0
  1  2  1  0
  2  3  1  0
  3  4  2  0
  3  5  1  0
  5  6  1  0
  6  7  2  0
  7  8  1  0
  8  9  2  0
  9 10  1  0
 10 11  2  0
  5 12  1  0
 12 13  1  0
 13 14  1  0
 14 15  1  0
 15 16  1  0
 16 17  2  0
 16 18  1  0
 18 19  2  0
 19 20  1  0
 20 21  2  0
 21 22  1  0
 22 23  2  0
 23 24  1  0
 24 25  2  0
 25 26  1  0
 26 27  2  0
 27 28  1  0
 28 29  2  0
 15 30  1  0
 30 31  1  0
 11  6  1  0
 31 12  1  0
 29 20  1  0
 28 23  1  0
  1 32  1  0
  1 33  1  0
  1 34  1  0
  2 35  1  0
  2 36  1  0
  7 37  1  0
  8 38  1  0
  9 39  1  0
 10 40  1  0
 11 41  1  0
 12 42  1  0
 13 43  1  0
 13 44  1  0
 14 45  1  0
 14 46  1  0
 18 47  1  0
 19 48  1  0
 21 49  1  0
 22 50  1  0
 24 51  1  0
 25 52  1  0
 26 53  1  0
 27 54  1  0
 29 55  1  0
 30 56  1  0
 30 57  1  0
 31 58  1  0
 31 59  1  0
M  END
>  <smiles>  (33) 
CCC(=O)N(c1ccccc1)C1CCN(C(=O)/C=C/c2ccc3ccccc3c2)CC1

>  <score_type>  (33) 
oracle

>  <origin>  (33) 
autodockgpu

>  <m_score__min__energy>  (33) 
-9.4600000000000009

>  <m_primary>  (33) 
energy

>  <rmsd>  (33) 
6.017552341619886

>  <m_score__min__rmsd>  (33) 
6.017552341619886

>  <meeko>  (33) 
{"free_energy": -8.68, "intermolecular_energy": -10.76, "internal_energy": -1.58, "cluster_size": 43, "cluster_id": 1, "rank_in_cluster": 40}

>  <energy>  (33) 
-8.94

>  <cluster_rmsd>  (33) 
0.78

>  <cluster>  (33) 
1

$$$$

     RDKit          3D

 59 62  0  0  0  0  0  0  0  0999 V2000
  137.1150   79.4020  223.4600 C   0  0  0  0  0  0  0  0  0  0  0  0
  137.7030   80.1440  222.2530 C   0  0  0  0  0  0  0  0  0  0  0  0
  138.6260   79.1930  221.5720 C   0  0  0  0  0  0  0  0  0  0  0  0
  138.3710   78.9680  220.3400 O   0  0  0  0  0  0  0  0  0  0  0  0
  139.7260   78.5740  222.2370 N   0  0  0  0  0  0  0  0  0  0  0  0
  140.7270   79.4440  222.7990 C   0  0  0  0  0  0  0  0  0  0  0  0
  140.7620   80.7440  222.2670 C   0  0  0  0  0  0  0  0  0  0  0  0
  141.6810   81.6700  222.7260 C   0  0  0  0  0  0  0  0  0  0  0  0
  142.5630   81.2890  223.7150 C   0  0  0  0  0  0  0  0  0  0  0  0
  142.5060   80.0050  224.2210 C   0  0  0  0  0  0  0  0  0  0  0  0
  141.5960   79.0570  223.7830 C   0  0  0  0  0  0  0  0  0  0  0  0
  139.8610   77.1590  222.3290 C   0  0  0  0  0  0  0  0  0  0  0  0
  140.8360   76.6890  221.2520 C   0  0  0  0  0  0  0  0  0  0  0  0
  141.0370   75.2160  221.2760 C   0  0  0  0  0  0  0  0  0  0  0  0
  139.7120   74.5270  221.5300 N   0  0  0  0  0  0  0  0  0  0  0  0
  139.8560   73.2400  222.0290 C   0  0  0  0  0  0  0  0  0  0  0  0
  141.1380   72.9200  222.1500 O   0  0  0  0  0  0  0  0  0  0  0  0
  138.9750   72.2120  222.4290 C   0  0  0  0  0  0  0  0  0  0  0  0
  139.2110   71.0160  222.9120 C   0  0  0  0  0  0  0  0  0  0  0  0
  139.7140   70.7450  224.2550 C   0  0  0  0  0  0  0  0  0  0  0  0
  140.3020   71.7690  225.0100 C   0  0  0  0  0  0  0  0  0  0  0  0
  140.7880   71.5490  226.2790 C   0  0  0  0  0  0  0  0  0  0  0  0
  140.7210   70.2950  226.8820 C   0  0  0  0  0  0  0  0  0  0  0  0
  141.2190   70.1160  228.1510 C   0  0  0  0  0  0  0  0  0  0  0  0
  141.1370   68.8470  228.7160 C   0  0  0  0  0  0  0  0  0  0  0  0
  140.5590   67.8120  227.9890 C   0  0  0  0  0  0  0  0  0  0  0  0
  140.0700   68.0320  226.7210 C   0  0  0  0  0  0  0  0  0  0  0  0
  140.1470   69.2880  226.1470 C   0  0  0  0  0  0  0  0  0  0  0  0
  139.6590   69.5160  224.8680 C   0  0  0  0  0  0  0  0  0  0  0  0
  138.5930   75.3390  221.2040 C   0  0  0  0  0  0  0  0  0  0  0  0
  138.5350   76.4790  222.2160 C   0  0  0  0  0  0  0  0  0  0  0  0
  137.4813   79.8642  224.3886 H   0  0  0  0  0  0  0  0  0  0  0  0
  136.0171   79.4627  223.4285 H   0  0  0  0  0  0  0  0  0  0  0  0
  137.4250   78.3470  223.4285 H   0  0  0  0  0  0  0  0  0  0  0  0
  136.8989   80.4484  221.5669 H   0  0  0  0  0  0  0  0  0  0  0  0
  138.2353   81.0532  222.5692 H   0  0  0  0  0  0  0  0  0  0  0  0
  140.0510   81.0282  221.4772 H   0  0  0  0  0  0  0  0  0  0  0  0
  141.7077   82.6884  222.3111 H   0  0  0  0  0  0  0  0  0  0  0  0
  143.3070   82.0028  224.0984 H   0  0  0  0  0  0  0  0  0  0  0  0
  143.2179   79.7215  225.0102 H   0  0  0  0  0  0  0  0  0  0  0  0
  141.5729   78.0418  224.2058 H   0  0  0  0  0  0  0  0  0  0  0  0
  140.2624   76.8895  223.3171 H   0  0  0  0  0  0  0  0  0  0  0  0
  140.4398   76.9758  220.2667 H   0  0  0  0  0  0  0  0  0  0  0  0
  141.8084   77.1643  221.4482 H   0  0  0  0  0  0  0  0  0  0  0  0
  141.4418   74.8858  220.3079 H   0  0  0  0  0  0  0  0  0  0  0  0
  141.7436   74.9565  222.0781 H   0  0  0  0  0  0  0  0  0  0  0  0
  137.9083   72.4560  222.3162 H   0  0  0  0  0  0  0  0  0  0  0  0
  139.0156   70.1540  222.2572 H   0  0  0  0  0  0  0  0  0  0  0  0
  140.3773   72.7770  224.5762 H   0  0  0  0  0  0  0  0  0  0  0  0
  141.2411   72.3854  226.8314 H   0  0  0  0  0  0  0  0  0  0  0  0
  141.6698   70.9529  228.7044 H   0  0  0  0  0  0  0  0  0  0  0  0
  141.5259   68.6642  229.7286 H   0  0  0  0  0  0  0  0  0  0  0  0
  140.4918   66.8072  228.4316 H   0  0  0  0  0  0  0  0  0  0  0  0
  139.6146   67.2025  226.1601 H   0  0  0  0  0  0  0  0  0  0  0  0
  139.2079   68.6755  224.3202 H   0  0  0  0  0  0  0  0  0  0  0  0
  138.7085   75.7454  220.1884 H   0  0  0  0  0  0  0  0  0  0  0  0
  137.6660   74.7478  221.2369 H   0  0  0  0  0  0  0  0  0  0  0  0
  137.7812   77.2112  221.8910 H   0  0  0  0  0  0  0  0  0  0  0  0
  138.2679   76.0635  223.1989 H   0  0  0  0  0  0  0  0  0  0  0  0
  1  2  1  0
  2  3  1  0
  3  4  2  0
  3  5  1  0
  5  6  1  0
  6  7  2  0
  7  8  1  0
  8  9  2  0
  9 10  1  0
 10 11  2  0
  5 12  1  0
 12 13  1  0
 13 14  1  0
 14 15  1  0
 15 16  1  0
 16 17  2  0
 16 18  1  0
 18 19  2  0
 19 20  1  0
 20 21  2  0
 21 22  1  0
 22 23  2  0
 23 24  1  0
 24 25  2  0
 25 26  1  0
 26 27  2  0
 27 28  1  0
 28 29  2  0
 15 30  1  0
 30 31  1  0
 11  6  1  0
 31 12  1  0
 29 20  1  0
 28 23  1  0
  1 32  1  0
  1 33  1  0
  1 34  1  0
  2 35  1  0
  2 36  1  0
  7 37  1  0
  8 38  1  0
  9 39  1  0
 10 40  1  0
 11 41  1  0
 12 42  1  0
 13 43  1  0
 13 44  1  0
 14 45  1  0
 14 46  1  0
 18 47  1  0
 19 48  1  0
 21 49  1  0
 22 50  1  0
 24 51  1  0
 25 52  1  0
 26 53  1  0
 27 54  1  0
 29 55  1  0
 30 56  1  0
 30 57  1  0
 31 58  1  0
 31 59  1  0
M  END
>  <smiles>  (34) 
CCC(=O)N(c1ccccc1)C1CCN(C(=O)/C=C/c2ccc3ccccc3c2)CC1

>  <score_type>  (34) 
oracle

>  <origin>  (34) 
autodockgpu

>  <m_score__min__energy>  (34) 
-9.4600000000000009

>  <m_primary>  (34) 
energy

>  <rmsd>  (34) 
6.118838441084889

>  <m_score__min__rmsd>  (34) 
6.118838441084889

>  <meeko>  (34) 
{"free_energy": -9.0, "intermolecular_energy": -11.09, "internal_energy": -1.4, "cluster_size": 43, "cluster_id": 1, "rank_in_cluster": 30}

>  <energy>  (34) 
-8.91

>  <cluster_rmsd>  (34) 
1.27

>  <cluster>  (34) 
1

$$$$

     RDKit          3D

 59 62  0  0  0  0  0  0  0  0999 V2000
  142.5090   80.3060  218.2840 C   0  0  0  0  0  0  0  0  0  0  0  0
  142.1600   78.8370  218.5530 C   0  0  0  0  0  0  0  0  0  0  0  0
  140.9880   78.8360  219.4730 C   0  0  0  0  0  0  0  0  0  0  0  0
  139.8800   79.1980  218.9510 O   0  0  0  0  0  0  0  0  0  0  0  0
  141.0830   78.4520  220.8440 N   0  0  0  0  0  0  0  0  0  0  0  0
  141.4450   79.4760  221.7890 C   0  0  0  0  0  0  0  0  0  0  0  0
  141.8620   79.0110  223.0490 C   0  0  0  0  0  0  0  0  0  0  0  0
  142.2340   79.9000  224.0410 C   0  0  0  0  0  0  0  0  0  0  0  0
  142.1860   81.2510  223.7680 C   0  0  0  0  0  0  0  0  0  0  0  0
  141.7740   81.6800  222.5220 C   0  0  0  0  0  0  0  0  0  0  0  0
  141.3970   80.8140  221.5090 C   0  0  0  0  0  0  0  0  0  0  0  0
  140.8580   77.1130  221.2770 C   0  0  0  0  0  0  0  0  0  0  0  0
  141.8230   76.1900  220.5370 C   0  0  0  0  0  0  0  0  0  0  0  0
  141.6560   74.7660  220.9300 C   0  0  0  0  0  0  0  0  0  0  0  0
  140.1820   74.4500  221.0790 N   0  0  0  0  0  0  0  0  0  0  0  0
  139.9430   73.3370  221.8730 C   0  0  0  0  0  0  0  0  0  0  0  0
  141.0810   72.8080  222.3020 O   0  0  0  0  0  0  0  0  0  0  0  0
  138.7940   72.6510  222.3220 C   0  0  0  0  0  0  0  0  0  0  0  0
  138.6020   71.3820  222.5960 C   0  0  0  0  0  0  0  0  0  0  0  0
  139.0300   70.7210  223.8230 C   0  0  0  0  0  0  0  0  0  0  0  0
  138.8000   69.3500  224.0050 C   0  0  0  0  0  0  0  0  0  0  0  0
  139.1890   68.6940  225.1500 C   0  0  0  0  0  0  0  0  0  0  0  0
  139.8330   69.3560  226.1920 C   0  0  0  0  0  0  0  0  0  0  0  0
  140.2040   68.6640  227.3210 C   0  0  0  0  0  0  0  0  0  0  0  0
  140.8420   69.3640  228.3400 C   0  0  0  0  0  0  0  0  0  0  0  0
  141.0830   70.7250  228.1880 C   0  0  0  0  0  0  0  0  0  0  0  0
  140.6970   71.3820  227.0410 C   0  0  0  0  0  0  0  0  0  0  0  0
  140.0610   70.6980  226.0200 C   0  0  0  0  0  0  0  0  0  0  0  0
  139.6670   71.3560  224.8630 C   0  0  0  0  0  0  0  0  0  0  0  0
  139.3460   75.3570  220.3730 C   0  0  0  0  0  0  0  0  0  0  0  0
  139.4330   76.7100  221.0730 C   0  0  0  0  0  0  0  0  0  0  0  0
  142.6345   80.8342  219.2407 H   0  0  0  0  0  0  0  0  0  0  0  0
  143.4452   80.3611  217.7092 H   0  0  0  0  0  0  0  0  0  0  0  0
  141.6976   80.7763  217.7092 H   0  0  0  0  0  0  0  0  0  0  0  0
  141.9029   78.3300  217.6113 H   0  0  0  0  0  0  0  0  0  0  0  0
  143.0126   78.3033  218.9983 H   0  0  0  0  0  0  0  0  0  0  0  0
  141.8926   77.9295  223.2475 H   0  0  0  0  0  0  0  0  0  0  0  0
  142.5611   79.5373  225.0266 H   0  0  0  0  0  0  0  0  0  0  0  0
  142.4741   81.9820  224.5379 H   0  0  0  0  0  0  0  0  0  0  0  0
  141.7437   82.7617  222.3243 H   0  0  0  0  0  0  0  0  0  0  0  0
  141.0740   81.1850  220.5251 H   0  0  0  0  0  0  0  0  0  0  0  0
  141.0488   77.0366  222.3576 H   0  0  0  0  0  0  0  0  0  0  0  0
  141.6416   76.2821  219.4560 H   0  0  0  0  0  0  0  0  0  0  0  0
  142.8470   76.4935  220.8002 H   0  0  0  0  0  0  0  0  0  0  0  0
  142.0928   74.1187  220.1553 H   0  0  0  0  0  0  0  0  0  0  0  0
  142.1665   74.5890  221.8882 H   0  0  0  0  0  0  0  0  0  0  0  0
  137.9092   73.2883  222.4669 H   0  0  0  0  0  0  0  0  0  0  0  0
  138.0796   70.7720  221.8444 H   0  0  0  0  0  0  0  0  0  0  0  0
  138.2942   68.7828  223.2098 H   0  0  0  0  0  0  0  0  0  0  0  0
  138.9857   67.6171  225.2449 H   0  0  0  0  0  0  0  0  0  0  0  0
  140.0019   67.5869  227.4157 H   0  0  0  0  0  0  0  0  0  0  0  0
  141.1533   68.8450  229.2585 H   0  0  0  0  0  0  0  0  0  0  0  0
  141.5868   71.2821  228.9916 H   0  0  0  0  0  0  0  0  0  0  0  0
  140.8958   72.4587  226.9356 H   0  0  0  0  0  0  0  0  0  0  0  0
  139.8735   72.4328  224.7743 H   0  0  0  0  0  0  0  0  0  0  0  0
  139.6899   75.4509  219.3324 H   0  0  0  0  0  0  0  0  0  0  0  0
  138.3073   74.9949  220.3627 H   0  0  0  0  0  0  0  0  0  0  0  0
  138.9289   77.4682  220.4557 H   0  0  0  0  0  0  0  0  0  0  0  0
  138.9457   76.6298  222.0559 H   0  0  0  0  0  0  0  0  0  0  0  0
  1  2  1  0
  2  3  1  0
  3  4  2  0
  3  5  1  0
  5  6  1  0
  6  7  2  0
  7  8  1  0
  8  9  2  0
  9 10  1  0
 10 11  2  0
  5 12  1  0
 12 13  1  0
 13 14  1  0
 14 15  1  0
 15 16  1  0
 16 17  2  0
 16 18  1  0
 18 19  2  0
 19 20  1  0
 20 21  2  0
 21 22  1  0
 22 23  2  0
 23 24  1  0
 24 25  2  0
 25 26  1  0
 26 27  2  0
 27 28  1  0
 28 29  2  0
 15 30  1  0
 30 31  1  0
 11  6  1  0
 31 12  1  0
 29 20  1  0
 28 23  1  0
  1 32  1  0
  1 33  1  0
  1 34  1  0
  2 35  1  0
  2 36  1  0
  7 37  1  0
  8 38  1  0
  9 39  1  0
 10 40  1  0
 11 41  1  0
 12 42  1  0
 13 43  1  0
 13 44  1  0
 14 45  1  0
 14 46  1  0
 18 47  1  0
 19 48  1  0
 21 49  1  0
 22 50  1  0
 24 51  1  0
 25 52  1  0
 26 53  1  0
 27 54  1  0
 29 55  1  0
 30 56  1  0
 30 57  1  0
 31 58  1  0
 31 59  1  0
M  END
>  <smiles>  (35) 
CCC(=O)N(c1ccccc1)C1CCN(C(=O)/C=C/c2ccc3ccccc3c2)CC1

>  <score_type>  (35) 
oracle

>  <origin>  (35) 
autodockgpu

>  <m_score__min__energy>  (35) 
-9.4600000000000009

>  <m_primary>  (35) 
energy

>  <rmsd>  (35) 
6.116380860445986

>  <m_score__min__rmsd>  (35) 
6.116380860445986

>  <meeko>  (35) 
{"free_energy": -9.11, "intermolecular_energy": -11.2, "internal_energy": -1.41, "cluster_size": 43, "cluster_id": 1, "rank_in_cluster": 21}

>  <energy>  (35) 
-8.9

>  <cluster_rmsd>  (35) 
1.79

>  <cluster>  (35) 
1

$$$$

     RDKit          3D

 59 62  0  0  0  0  0  0  0  0999 V2000
  142.5890   80.9050  217.8770 C   0  0  0  0  0  0  0  0  0  0  0  0
  141.3210   80.2570  218.4470 C   0  0  0  0  0  0  0  0  0  0  0  0
  141.7540   79.0340  219.1780 C   0  0  0  0  0  0  0  0  0  0  0  0
  142.6280   78.3180  218.5800 O   0  0  0  0  0  0  0  0  0  0  0  0
  141.2420   78.6790  220.4610 N   0  0  0  0  0  0  0  0  0  0  0  0
  141.4460   79.6180  221.5330 C   0  0  0  0  0  0  0  0  0  0  0  0
  142.5710   79.3750  222.3390 C   0  0  0  0  0  0  0  0  0  0  0  0
  142.8710   80.2080  223.4020 C   0  0  0  0  0  0  0  0  0  0  0  0
  142.0420   81.2800  223.6530 C   0  0  0  0  0  0  0  0  0  0  0  0
  140.9430   81.4970  222.8450 C   0  0  0  0  0  0  0  0  0  0  0  0
  140.6190   80.6810  221.7740 C   0  0  0  0  0  0  0  0  0  0  0  0
  140.5770   77.4410  220.6990 C   0  0  0  0  0  0  0  0  0  0  0  0
  140.0550   77.4340  222.1340 C   0  0  0  0  0  0  0  0  0  0  0  0
  139.3440   76.1720  222.4690 C   0  0  0  0  0  0  0  0  0  0  0  0
  140.0850   74.9960  221.8690 N   0  0  0  0  0  0  0  0  0  0  0  0
  139.2860   73.8710  221.7170 C   0  0  0  0  0  0  0  0  0  0  0  0
  138.0550   74.1010  222.1550 O   0  0  0  0  0  0  0  0  0  0  0  0
  139.4750   72.5640  221.2160 C   0  0  0  0  0  0  0  0  0  0  0  0
  140.0550   71.5150  221.7470 C   0  0  0  0  0  0  0  0  0  0  0  0
  139.9880   71.1510  223.1580 C   0  0  0  0  0  0  0  0  0  0  0  0
  139.2290   70.0450  223.5680 C   0  0  0  0  0  0  0  0  0  0  0  0
  139.1410   69.6730  224.8890 C   0  0  0  0  0  0  0  0  0  0  0  0
  139.8030   70.3750  225.8940 C   0  0  0  0  0  0  0  0  0  0  0  0
  139.6890   69.9720  227.2030 C   0  0  0  0  0  0  0  0  0  0  0  0
  140.3640   70.7020  228.1770 C   0  0  0  0  0  0  0  0  0  0  0  0
  141.1230   71.8040  227.8000 C   0  0  0  0  0  0  0  0  0  0  0  0
  141.2150   72.1750  226.4770 C   0  0  0  0  0  0  0  0  0  0  0  0
  140.5480   71.4580  225.5000 C   0  0  0  0  0  0  0  0  0  0  0  0
  140.6330   71.8290  224.1650 C   0  0  0  0  0  0  0  0  0  0  0  0
  141.4470   75.2850  221.5840 C   0  0  0  0  0  0  0  0  0  0  0  0
  141.4790   76.2800  220.4280 C   0  0  0  0  0  0  0  0  0  0  0  0
  143.2353   81.2353  218.7036 H   0  0  0  0  0  0  0  0  0  0  0  0
  143.1292   80.1724  217.2593 H   0  0  0  0  0  0  0  0  0  0  0  0
  142.3118   81.7720  217.2593 H   0  0  0  0  0  0  0  0  0  0  0  0
  140.8176   80.9515  219.1357 H   0  0  0  0  0  0  0  0  0  0  0  0
  140.6110   80.0068  217.6450 H   0  0  0  0  0  0  0  0  0  0  0  0
  143.2199   78.5135  222.1225 H   0  0  0  0  0  0  0  0  0  0  0  0
  143.7519   80.0189  224.0330 H   0  0  0  0  0  0  0  0  0  0  0  0
  142.2544   81.9589  224.4920 H   0  0  0  0  0  0  0  0  0  0  0  0
  140.2946   82.3585  223.0624 H   0  0  0  0  0  0  0  0  0  0  0  0
  139.7376   80.8783  221.1462 H   0  0  0  0  0  0  0  0  0  0  0  0
  139.7269   77.3390  220.0084 H   0  0  0  0  0  0  0  0  0  0  0  0
  140.9060   77.5537  222.8207 H   0  0  0  0  0  0  0  0  0  0  0  0
  139.3377   78.2618  222.2355 H   0  0  0  0  0  0  0  0  0  0  0  0
  139.2984   76.0567  223.5620 H   0  0  0  0  0  0  0  0  0  0  0  0
  138.3238   76.2080  222.0592 H   0  0  0  0  0  0  0  0  0  0  0  0
  139.0658   72.3980  220.2085 H   0  0  0  0  0  0  0  0  0  0  0  0
  140.6350   70.8610  221.0792 H   0  0  0  0  0  0  0  0  0  0  0  0
  138.6884   69.4581  222.8108 H   0  0  0  0  0  0  0  0  0  0  0  0
  138.5318   68.7979  225.1594 H   0  0  0  0  0  0  0  0  0  0  0  0
  139.0808   69.0963  227.4736 H   0  0  0  0  0  0  0  0  0  0  0  0
  140.2975   70.4097  229.2354 H   0  0  0  0  0  0  0  0  0  0  0  0
  141.6557   72.3858  228.5666 H   0  0  0  0  0  0  0  0  0  0  0  0
  141.8229   73.0474  226.1953 H   0  0  0  0  0  0  0  0  0  0  0  0
  141.2439   72.7049  223.9011 H   0  0  0  0  0  0  0  0  0  0  0  0
  141.9299   75.7241  222.4695 H   0  0  0  0  0  0  0  0  0  0  0  0
  141.9875   74.3654  221.3153 H   0  0  0  0  0  0  0  0  0  0  0  0
  142.5079   76.6462  220.2963 H   0  0  0  0  0  0  0  0  0  0  0  0
  141.1329   75.7711  219.5163 H   0  0  0  0  0  0  0  0  0  0  0  0
  1  2  1  0
  2  3  1  0
  3  4  2  0
  3  5  1  0
  5  6  1  0
  6  7  2  0
  7  8  1  0
  8  9  2  0
  9 10  1  0
 10 11  2  0
  5 12  1  0
 12 13  1  0
 13 14  1  0
 14 15  1  0
 15 16  1  0
 16 17  2  0
 16 18  1  0
 18 19  2  0
 19 20  1  0
 20 21  2  0
 21 22  1  0
 22 23  2  0
 23 24  1  0
 24 25  2  0
 25 26  1  0
 26 27  2  0
 27 28  1  0
 28 29  2  0
 15 30  1  0
 30 31  1  0
 11  6  1  0
 31 12  1  0
 29 20  1  0
 28 23  1  0
  1 32  1  0
  1 33  1  0
  1 34  1  0
  2 35  1  0
  2 36  1  0
  7 37  1  0
  8 38  1  0
  9 39  1  0
 10 40  1  0
 11 41  1  0
 12 42  1  0
 13 43  1  0
 13 44  1  0
 14 45  1  0
 14 46  1  0
 18 47  1  0
 19 48  1  0
 21 49  1  0
 22 50  1  0
 24 51  1  0
 25 52  1  0
 26 53  1  0
 27 54  1  0
 29 55  1  0
 30 56  1  0
 30 57  1  0
 31 58  1  0
 31 59  1  0
M  END
>  <smiles>  (36) 
CCC(=O)N(c1ccccc1)C1CCN(C(=O)/C=C/c2ccc3ccccc3c2)CC1

>  <score_type>  (36) 
oracle

>  <origin>  (36) 
autodockgpu

>  <m_score__min__energy>  (36) 
-9.4600000000000009

>  <m_primary>  (36) 
energy

>  <rmsd>  (36) 
5.932220217271508

>  <m_score__min__rmsd>  (36) 
5.932220217271508

>  <meeko>  (36) 
{"free_energy": -8.8, "intermolecular_energy": -10.89, "internal_energy": -1.54, "cluster_size": 6, "cluster_id": 2, "rank_in_cluster": 6}

>  <energy>  (36) 
-8.89

>  <cluster_rmsd>  (36) 
0.76

>  <cluster>  (36) 
1

$$$$

     RDKit          3D

 59 62  0  0  0  0  0  0  0  0999 V2000
  137.9430   80.8880  224.3270 C   0  0  0  0  0  0  0  0  0  0  0  0
  137.7440   80.3820  222.8930 C   0  0  0  0  0  0  0  0  0  0  0  0
  137.9740   78.9110  222.9220 C   0  0  0  0  0  0  0  0  0  0  0  0
  136.9290   78.1950  223.0950 O   0  0  0  0  0  0  0  0  0  0  0  0
  139.2660   78.3270  222.7620 N   0  0  0  0  0  0  0  0  0  0  0  0
  140.3860   79.2270  222.6660 C   0  0  0  0  0  0  0  0  0  0  0  0
  141.1400   79.3770  223.8420 C   0  0  0  0  0  0  0  0  0  0  0  0
  142.2390   80.2160  223.8740 C   0  0  0  0  0  0  0  0  0  0  0  0
  142.5770   80.9030  222.7270 C   0  0  0  0  0  0  0  0  0  0  0  0
  141.8200   80.7370  221.5850 C   0  0  0  0  0  0  0  0  0  0  0  0
  140.7160   79.9030  221.5220 C   0  0  0  0  0  0  0  0  0  0  0  0
  139.4600   76.9180  222.6730 C   0  0  0  0  0  0  0  0  0  0  0  0
  140.8280   76.6500  222.0510 C   0  0  0  0  0  0  0  0  0  0  0  0
  141.1130   75.1970  221.9200 C   0  0  0  0  0  0  0  0  0  0  0  0
  139.8610   74.4720  221.4740 N   0  0  0  0  0  0  0  0  0  0  0  0
  139.8830   73.1160  221.7720 C   0  0  0  0  0  0  0  0  0  0  0  0
  141.0180   72.7810  222.3720 O   0  0  0  0  0  0  0  0  0  0  0  0
  138.9970   72.0320  221.5890 C   0  0  0  0  0  0  0  0  0  0  0  0
  138.3250   71.3150  222.4580 C   0  0  0  0  0  0  0  0  0  0  0  0
  138.8790   70.7620  223.6880 C   0  0  0  0  0  0  0  0  0  0  0  0
  138.7600   69.3920  223.9640 C   0  0  0  0  0  0  0  0  0  0  0  0
  139.2700   68.8350  225.1150 C   0  0  0  0  0  0  0  0  0  0  0  0
  139.9320   69.6030  226.0700 C   0  0  0  0  0  0  0  0  0  0  0  0
  140.4250   69.0090  227.2070 C   0  0  0  0  0  0  0  0  0  0  0  0
  141.0770   69.8120  228.1380 C   0  0  0  0  0  0  0  0  0  0  0  0
  141.2080   71.1740  227.8910 C   0  0  0  0  0  0  0  0  0  0  0  0
  140.7020   71.7320  226.7380 C   0  0  0  0  0  0  0  0  0  0  0  0
  140.0510   70.9440  225.8060 C   0  0  0  0  0  0  0  0  0  0  0  0
  139.5350   71.5010  224.6430 C   0  0  0  0  0  0  0  0  0  0  0  0
  138.9200   75.3270  220.8390 C   0  0  0  0  0  0  0  0  0  0  0  0
  138.3580   76.2670  221.9010 C   0  0  0  0  0  0  0  0  0  0  0  0
  137.6357   80.1065  225.0375 H   0  0  0  0  0  0  0  0  0  0  0  0
  139.0039   81.1315  224.4860 H   0  0  0  0  0  0  0  0  0  0  0  0
  137.3322   81.7889  224.4860 H   0  0  0  0  0  0  0  0  0  0  0  0
  136.7206   80.5990  222.5531 H   0  0  0  0  0  0  0  0  0  0  0  0
  138.4389   80.8773  222.1989 H   0  0  0  0  0  0  0  0  0  0  0  0
  140.8532   78.8212  224.7469 H   0  0  0  0  0  0  0  0  0  0  0  0
  142.8305   80.3328  224.7941 H   0  0  0  0  0  0  0  0  0  0  0  0
  143.4446   81.5792  222.7223 H   0  0  0  0  0  0  0  0  0  0  0  0
  142.1074   81.2940  220.6811 H   0  0  0  0  0  0  0  0  0  0  0  0
  140.1320   79.7891  220.5968 H   0  0  0  0  0  0  0  0  0  0  0  0
  139.4334   76.4765  223.6802 H   0  0  0  0  0  0  0  0  0  0  0  0
  140.8579   77.1079  221.0513 H   0  0  0  0  0  0  0  0  0  0  0  0
  141.5904   77.0841  222.7146 H   0  0  0  0  0  0  0  0  0  0  0  0
  141.9085   75.0457  221.1755 H   0  0  0  0  0  0  0  0  0  0  0  0
  141.4384   74.7994  222.8926 H   0  0  0  0  0  0  0  0  0  0  0  0
  138.8443   71.7390  220.5398 H   0  0  0  0  0  0  0  0  0  0  0  0
  137.2647   71.1162  222.2427 H   0  0  0  0  0  0  0  0  0  0  0  0
  138.2443   68.7440  223.2400 H   0  0  0  0  0  0  0  0  0  0  0  0
  139.1516   67.7547  225.2850 H   0  0  0  0  0  0  0  0  0  0  0  0
  140.3075   67.9285  227.3765 H   0  0  0  0  0  0  0  0  0  0  0  0
  141.4849   69.3733  229.0606 H   0  0  0  0  0  0  0  0  0  0  0  0
  141.7214   71.8129  228.6246 H   0  0  0  0  0  0  0  0  0  0  0  0
  140.8163   72.8110  226.5571 H   0  0  0  0  0  0  0  0  0  0  0  0
  139.6569   72.5819  224.4790 H   0  0  0  0  0  0  0  0  0  0  0  0
  139.4162   75.9088  220.0483 H   0  0  0  0  0  0  0  0  0  0  0  0
  138.1127   74.7380  220.3793 H   0  0  0  0  0  0  0  0  0  0  0  0
  137.7536   77.0443  221.4107 H   0  0  0  0  0  0  0  0  0  0  0  0
  137.7391   75.6817  222.5969 H   0  0  0  0  0  0  0  0  0  0  0  0
  1  2  1  0
  2  3  1  0
  3  4  2  0
  3  5  1  0
  5  6  1  0
  6  7  2  0
  7  8  1  0
  8  9  2  0
  9 10  1  0
 10 11  2  0
  5 12  1  0
 12 13  1  0
 13 14  1  0
 14 15  1  0
 15 16  1  0
 16 17  2  0
 16 18  1  0
 18 19  2  0
 19 20  1  0
 20 21  2  0
 21 22  1  0
 22 23  2  0
 23 24  1  0
 24 25  2  0
 25 26  1  0
 26 27  2  0
 27 28  1  0
 28 29  2  0
 15 30  1  0
 30 31  1  0
 11  6  1  0
 31 12  1  0
 29 20  1  0
 28 23  1  0
  1 32  1  0
  1 33  1  0
  1 34  1  0
  2 35  1  0
  2 36  1  0
  7 37  1  0
  8 38  1  0
  9 39  1  0
 10 40  1  0
 11 41  1  0
 12 42  1  0
 13 43  1  0
 13 44  1  0
 14 45  1  0
 14 46  1  0
 18 47  1  0
 19 48  1  0
 21 49  1  0
 22 50  1  0
 24 51  1  0
 25 52  1  0
 26 53  1  0
 27 54  1  0
 29 55  1  0
 30 56  1  0
 30 57  1  0
 31 58  1  0
 31 59  1  0
M  END
>  <smiles>  (37) 
CCC(=O)N(c1ccccc1)C1CCN(C(=O)/C=C/c2ccc3ccccc3c2)CC1

>  <score_type>  (37) 
oracle

>  <origin>  (37) 
autodockgpu

>  <m_score__min__energy>  (37) 
-9.4600000000000009

>  <m_primary>  (37) 
energy

>  <rmsd>  (37) 
5.930192554567429

>  <m_score__min__rmsd>  (37) 
5.930192554567429

>  <meeko>  (37) 
{"free_energy": -8.89, "intermolecular_energy": -10.98, "internal_energy": -1.39, "cluster_size": 43, "cluster_id": 1, "rank_in_cluster": 36}

>  <energy>  (37) 
-8.8

>  <cluster_rmsd>  (37) 
1.77

>  <cluster>  (37) 
1

$$$$

     RDKit          3D

 59 62  0  0  0  0  0  0  0  0999 V2000
  138.0730   80.3840  223.7210 C   0  0  0  0  0  0  0  0  0  0  0  0
  137.4190   79.1380  223.1120 C   0  0  0  0  0  0  0  0  0  0  0  0
  138.3310   78.6540  222.0380 C   0  0  0  0  0  0  0  0  0  0  0  0
  137.9320   78.8670  220.8420 O   0  0  0  0  0  0  0  0  0  0  0  0
  139.5700   78.0030  222.3130 N   0  0  0  0  0  0  0  0  0  0  0  0
  140.7120   78.8430  222.5660 C   0  0  0  0  0  0  0  0  0  0  0  0
  141.1460   79.6130  221.4740 C   0  0  0  0  0  0  0  0  0  0  0  0
  142.2350   80.4570  221.5940 C   0  0  0  0  0  0  0  0  0  0  0  0
  142.8840   80.5270  222.8080 C   0  0  0  0  0  0  0  0  0  0  0  0
  142.4360   79.7600  223.8660 C   0  0  0  0  0  0  0  0  0  0  0  0
  141.3490   78.9070  223.7760 C   0  0  0  0  0  0  0  0  0  0  0  0
  139.7000   76.5840  222.3150 C   0  0  0  0  0  0  0  0  0  0  0  0
  141.0320   76.2130  221.6660 C   0  0  0  0  0  0  0  0  0  0  0  0
  141.2500   74.7430  221.6260 C   0  0  0  0  0  0  0  0  0  0  0  0
  139.9530   74.0460  221.2750 N   0  0  0  0  0  0  0  0  0  0  0  0
  139.9280   72.7140  221.6650 C   0  0  0  0  0  0  0  0  0  0  0  0
  141.0700   72.3700  222.2470 O   0  0  0  0  0  0  0  0  0  0  0  0
  138.9910   71.6610  221.5890 C   0  0  0  0  0  0  0  0  0  0  0  0
  138.3200   71.0370  222.5280 C   0  0  0  0  0  0  0  0  0  0  0  0
  138.8710   70.6350  223.8180 C   0  0  0  0  0  0  0  0  0  0  0  0
  138.6590   69.3370  224.3030 C   0  0  0  0  0  0  0  0  0  0  0  0
  139.1620   68.9240  225.5150 C   0  0  0  0  0  0  0  0  0  0  0  0
  139.9090   69.7730  226.3280 C   0  0  0  0  0  0  0  0  0  0  0  0
  140.3920   69.3230  227.5330 C   0  0  0  0  0  0  0  0  0  0  0  0
  141.1310   70.2040  228.3160 C   0  0  0  0  0  0  0  0  0  0  0  0
  141.3560   71.4980  227.8600 C   0  0  0  0  0  0  0  0  0  0  0  0
  140.8560   71.9120  226.6450 C   0  0  0  0  0  0  0  0  0  0  0  0
  140.1190   71.0450  225.8580 C   0  0  0  0  0  0  0  0  0  0  0  0
  139.6100   71.4570  224.6340 C   0  0  0  0  0  0  0  0  0  0  0  0
  139.0250   74.8980  220.6160 C   0  0  0  0  0  0  0  0  0  0  0  0
  138.5440   75.9320  221.6280 C   0  0  0  0  0  0  0  0  0  0  0  0
  138.0380   80.3172  224.8184 H   0  0  0  0  0  0  0  0  0  0  0  0
  139.1204   80.4469  223.3907 H   0  0  0  0  0  0  0  0  0  0  0  0
  137.5298   81.2817  223.3907 H   0  0  0  0  0  0  0  0  0  0  0  0
  137.2943   78.3616  223.8812 H   0  0  0  0  0  0  0  0  0  0  0  0
  136.4232   79.3727  222.7079 H   0  0  0  0  0  0  0  0  0  0  0  0
  140.6141   79.5439  220.5136 H   0  0  0  0  0  0  0  0  0  0  0  0
  142.5759   81.0594  220.7391 H   0  0  0  0  0  0  0  0  0  0  0  0
  143.7532   81.1894  222.9336 H   0  0  0  0  0  0  0  0  0  0  0  0
  142.9684   79.8303  224.8260 H   0  0  0  0  0  0  0  0  0  0  0  0
  141.0132   78.3091  224.6361 H   0  0  0  0  0  0  0  0  0  0  0  0
  139.6915   76.2138  223.3508 H   0  0  0  0  0  0  0  0  0  0  0  0
  141.0440   76.6005  220.6366 H   0  0  0  0  0  0  0  0  0  0  0  0
  141.8364   76.6561  222.2715 H   0  0  0  0  0  0  0  0  0  0  0  0
  142.0098   74.5062  220.8667 H   0  0  0  0  0  0  0  0  0  0  0  0
  141.5945   74.3981  222.6121 H   0  0  0  0  0  0  0  0  0  0  0  0
  138.7890   71.3026  220.5688 H   0  0  0  0  0  0  0  0  0  0  0  0
  137.2647   70.7995  222.3282 H   0  0  0  0  0  0  0  0  0  0  0  0
  138.0741   68.6289  223.6976 H   0  0  0  0  0  0  0  0  0  0  0  0
  138.9689   67.8946  225.8513 H   0  0  0  0  0  0  0  0  0  0  0  0
  140.1995   68.2936  227.8696 H   0  0  0  0  0  0  0  0  0  0  0  0
  141.5336   69.8798  229.2870 H   0  0  0  0  0  0  0  0  0  0  0  0
  141.9393   72.1984  228.4758 H   0  0  0  0  0  0  0  0  0  0  0  0
  141.0440   72.9388  226.2982 H   0  0  0  0  0  0  0  0  0  0  0  0
  139.8071   72.4873  224.3027 H   0  0  0  0  0  0  0  0  0  0  0  0
  139.5149   75.4019  219.7698 H   0  0  0  0  0  0  0  0  0  0  0  0
  138.1764   74.3157  220.2278 H   0  0  0  0  0  0  0  0  0  0  0  0
  137.9555   76.7006  221.1056 H   0  0  0  0  0  0  0  0  0  0  0  0
  137.9274   75.4235  222.3838 H   0  0  0  0  0  0  0  0  0  0  0  0
  1  2  1  0
  2  3  1  0
  3  4  2  0
  3  5  1  0
  5  6  1  0
  6  7  2  0
  7  8  1  0
  8  9  2  0
  9 10  1  0
 10 11  2  0
  5 12  1  0
 12 13  1  0
 13 14  1  0
 14 15  1  0
 15 16  1  0
 16 17  2  0
 16 18  1  0
 18 19  2  0
 19 20  1  0
 20 21  2  0
 21 22  1  0
 22 23  2  0
 23 24  1  0
 24 25  2  0
 25 26  1  0
 26 27  2  0
 27 28  1  0
 28 29  2  0
 15 30  1  0
 30 31  1  0
 11  6  1  0
 31 12  1  0
 29 20  1  0
 28 23  1  0
  1 32  1  0
  1 33  1  0
  1 34  1  0
  2 35  1  0
  2 36  1  0
  7 37  1  0
  8 38  1  0
  9 39  1  0
 10 40  1  0
 11 41  1  0
 12 42  1  0
 13 43  1  0
 13 44  1  0
 14 45  1  0
 14 46  1  0
 18 47  1  0
 19 48  1  0
 21 49  1  0
 22 50  1  0
 24 51  1  0
 25 52  1  0
 26 53  1  0
 27 54  1  0
 29 55  1  0
 30 56  1  0
 30 57  1  0
 31 58  1  0
 31 59  1  0
M  END
>  <smiles>  (38) 
CCC(=O)N(c1ccccc1)C1CCN(C(=O)/C=C/c2ccc3ccccc3c2)CC1

>  <score_type>  (38) 
oracle

>  <origin>  (38) 
autodockgpu

>  <m_score__min__energy>  (38) 
-9.4600000000000009

>  <m_primary>  (38) 
energy

>  <rmsd>  (38) 
5.7915987580390755

>  <m_score__min__rmsd>  (38) 
5.7915987580390755

>  <meeko>  (38) 
{"free_energy": -8.79, "intermolecular_energy": -10.88, "internal_energy": -1.58, "cluster_size": 43, "cluster_id": 1, "rank_in_cluster": 38}

>  <energy>  (38) 
-8.79

>  <cluster_rmsd>  (38) 
0.83

>  <cluster>  (38) 
1

$$$$

     RDKit          3D

 59 62  0  0  0  0  0  0  0  0999 V2000
  136.0110   79.0240  223.2840 C   0  0  0  0  0  0  0  0  0  0  0  0
  137.3270   79.8080  223.3650 C   0  0  0  0  0  0  0  0  0  0  0  0
  138.2460   79.2100  222.3560 C   0  0  0  0  0  0  0  0  0  0  0  0
  137.8580   79.3000  221.1410 O   0  0  0  0  0  0  0  0  0  0  0  0
  139.4780   78.5840  222.7080 N   0  0  0  0  0  0  0  0  0  0  0  0
  140.5730   79.4460  223.0710 C   0  0  0  0  0  0  0  0  0  0  0  0
  140.5400   80.7310  222.5030 C   0  0  0  0  0  0  0  0  0  0  0  0
  141.5380   81.6490  222.7760 C   0  0  0  0  0  0  0  0  0  0  0  0
  142.5650   81.2750  223.6160 C   0  0  0  0  0  0  0  0  0  0  0  0
  142.5730   80.0060  224.1610 C   0  0  0  0  0  0  0  0  0  0  0  0
  141.5870   79.0670  223.9070 C   0  0  0  0  0  0  0  0  0  0  0  0
  139.6480   77.1690  222.6820 C   0  0  0  0  0  0  0  0  0  0  0  0
  140.7500   76.8260  221.6830 C   0  0  0  0  0  0  0  0  0  0  0  0
  140.9940   75.3620  221.5920 C   0  0  0  0  0  0  0  0  0  0  0  0
  139.6720   74.6240  221.6300 N   0  0  0  0  0  0  0  0  0  0  0  0
  139.8010   73.2980  222.0200 C   0  0  0  0  0  0  0  0  0  0  0  0
  141.0710   72.9950  222.2540 O   0  0  0  0  0  0  0  0  0  0  0  0
  138.9140   72.2180  222.2210 C   0  0  0  0  0  0  0  0  0  0  0  0
  139.1190   71.0150  222.7020 C   0  0  0  0  0  0  0  0  0  0  0  0
  139.6260   70.7280  224.0390 C   0  0  0  0  0  0  0  0  0  0  0  0
  140.2520   71.7340  224.7890 C   0  0  0  0  0  0  0  0  0  0  0  0
  140.7430   71.4990  226.0530 C   0  0  0  0  0  0  0  0  0  0  0  0
  140.6460   70.2480  226.6570 C   0  0  0  0  0  0  0  0  0  0  0  0
  141.1500   70.0530  227.9200 C   0  0  0  0  0  0  0  0  0  0  0  0
  141.0360   68.7870  228.4860 C   0  0  0  0  0  0  0  0  0  0  0  0
  140.4210   67.7700  227.7650 C   0  0  0  0  0  0  0  0  0  0  0  0
  139.9250   68.0050  226.5010 C   0  0  0  0  0  0  0  0  0  0  0  0
  140.0340   69.2590  225.9280 C   0  0  0  0  0  0  0  0  0  0  0  0
  139.5400   69.5020  224.6530 C   0  0  0  0  0  0  0  0  0  0  0  0
  138.5700   75.4390  221.2560 C   0  0  0  0  0  0  0  0  0  0  0  0
  138.3640   76.4750  222.3580 C   0  0  0  0  0  0  0  0  0  0  0  0
  135.6494   78.8086  224.3003 H   0  0  0  0  0  0  0  0  0  0  0  0
  135.2603   79.6222  222.7468 H   0  0  0  0  0  0  0  0  0  0  0  0
  136.1796   78.0790  222.7468 H   0  0  0  0  0  0  0  0  0  0  0  0
  137.1506   80.8691  223.1350 H   0  0  0  0  0  0  0  0  0  0  0  0
  137.7588   79.7518  224.3751 H   0  0  0  0  0  0  0  0  0  0  0  0
  139.7121   81.0096  221.8345 H   0  0  0  0  0  0  0  0  0  0  0  0
  141.5127   82.6553  222.3326 H   0  0  0  0  0  0  0  0  0  0  0  0
  143.3734   81.9831  223.8508 H   0  0  0  0  0  0  0  0  0  0  0  0
  143.4018   79.7278  224.8285 H   0  0  0  0  0  0  0  0  0  0  0  0
  141.6180   78.0635  224.3565 H   0  0  0  0  0  0  0  0  0  0  0  0
  139.9474   76.8139  223.6791 H   0  0  0  0  0  0  0  0  0  0  0  0
  140.4559   77.1979  220.6904 H   0  0  0  0  0  0  0  0  0  0  0  0
  141.6792   77.3009  222.0310 H   0  0  0  0  0  0  0  0  0  0  0  0
  141.5131   75.1352  220.6491 H   0  0  0  0  0  0  0  0  0  0  0  0
  141.6161   75.0416  222.4407 H   0  0  0  0  0  0  0  0  0  0  0  0
  137.8743   72.4197  221.9237 H   0  0  0  0  0  0  0  0  0  0  0  0
  138.8918   70.1596  222.0488 H   0  0  0  0  0  0  0  0  0  0  0  0
  140.3535   72.7395  224.3547 H   0  0  0  0  0  0  0  0  0  0  0  0
  141.2252   72.3218  226.6011 H   0  0  0  0  0  0  0  0  0  0  0  0
  141.6309   70.8758  228.4693 H   0  0  0  0  0  0  0  0  0  0  0  0
  141.4290   68.5927  229.4949 H   0  0  0  0  0  0  0  0  0  0  0  0
  140.3293   66.7673  228.2080 H   0  0  0  0  0  0  0  0  0  0  0  0
  139.4393   67.1901  225.9443 H   0  0  0  0  0  0  0  0  0  0  0  0
  139.0581   68.6755  224.1102 H   0  0  0  0  0  0  0  0  0  0  0  0
  138.7840   75.9439  220.3024 H   0  0  0  0  0  0  0  0  0  0  0  0
  137.6646   74.8276  221.1278 H   0  0  0  0  0  0  0  0  0  0  0  0
  137.6274   77.2189  222.0203 H   0  0  0  0  0  0  0  0  0  0  0  0
  138.0035   75.9614  223.2614 H   0  0  0  0  0  0  0  0  0  0  0  0
  1  2  1  0
  2  3  1  0
  3  4  2  0
  3  5  1  0
  5  6  1  0
  6  7  2  0
  7  8  1  0
  8  9  2  0
  9 10  1  0
 10 11  2  0
  5 12  1  0
 12 13  1  0
 13 14  1  0
 14 15  1  0
 15 16  1  0
 16 17  2  0
 16 18  1  0
 18 19  2  0
 19 20  1  0
 20 21  2  0
 21 22  1  0
 22 23  2  0
 23 24  1  0
 24 25  2  0
 25 26  1  0
 26 27  2  0
 27 28  1  0
 28 29  2  0
 15 30  1  0
 30 31  1  0
 11  6  1  0
 31 12  1  0
 29 20  1  0
 28 23  1  0
  1 32  1  0
  1 33  1  0
  1 34  1  0
  2 35  1  0
  2 36  1  0
  7 37  1  0
  8 38  1  0
  9 39  1  0
 10 40  1  0
 11 41  1  0
 12 42  1  0
 13 43  1  0
 13 44  1  0
 14 45  1  0
 14 46  1  0
 18 47  1  0
 19 48  1  0
 21 49  1  0
 22 50  1  0
 24 51  1  0
 25 52  1  0
 26 53  1  0
 27 54  1  0
 29 55  1  0
 30 56  1  0
 30 57  1  0
 31 58  1  0
 31 59  1  0
M  END
>  <smiles>  (39) 
CCC(=O)N(c1ccccc1)C1CCN(C(=O)/C=C/c2ccc3ccccc3c2)CC1

>  <score_type>  (39) 
oracle

>  <origin>  (39) 
autodockgpu

>  <m_score__min__energy>  (39) 
-9.4600000000000009

>  <m_primary>  (39) 
energy

>  <rmsd>  (39) 
6.125510912228405

>  <m_score__min__rmsd>  (39) 
6.125510912228405

>  <meeko>  (39) 
{"free_energy": -9.23, "intermolecular_energy": -11.32, "internal_energy": -1.39, "cluster_size": 43, "cluster_id": 1, "rank_in_cluster": 11}

>  <energy>  (39) 
-8.7

>  <cluster_rmsd>  (39) 
1.31

>  <cluster>  (39) 
1

$$$$

     RDKit          3D

 59 62  0  0  0  0  0  0  0  0999 V2000
  142.2110   78.9750  217.0960 C   0  0  0  0  0  0  0  0  0  0  0  0
  142.1540   79.8160  218.3780 C   0  0  0  0  0  0  0  0  0  0  0  0
  141.1980   79.1350  219.2950 C   0  0  0  0  0  0  0  0  0  0  0  0
  140.0000   79.0330  218.8620 O   0  0  0  0  0  0  0  0  0  0  0  0
  141.5830   78.6230  220.5700 N   0  0  0  0  0  0  0  0  0  0  0  0
  141.7420   79.5750  221.6390 C   0  0  0  0  0  0  0  0  0  0  0  0
  142.1980   79.0400  222.8560 C   0  0  0  0  0  0  0  0  0  0  0  0
  142.3880   79.8550  223.9580 C   0  0  0  0  0  0  0  0  0  0  0  0
  142.1210   81.2020  223.8350 C   0  0  0  0  0  0  0  0  0  0  0  0
  141.6750   81.7010  222.6270 C   0  0  0  0  0  0  0  0  0  0  0  0
  141.4760   80.9100  221.5080 C   0  0  0  0  0  0  0  0  0  0  0  0
  141.8280   77.2370  220.7910 C   0  0  0  0  0  0  0  0  0  0  0  0
  142.6260   76.6870  219.6110 C   0  0  0  0  0  0  0  0  0  0  0  0
  142.9280   75.2390  219.7600 C   0  0  0  0  0  0  0  0  0  0  0  0
  141.7190   74.5240  220.3270 N   0  0  0  0  0  0  0  0  0  0  0  0
  142.0370   73.3150  220.9300 C   0  0  0  0  0  0  0  0  0  0  0  0
  143.3380   73.0720  220.8480 O   0  0  0  0  0  0  0  0  0  0  0  0
  141.3120   72.3020  221.5960 C   0  0  0  0  0  0  0  0  0  0  0  0
  140.3240   72.3760  222.4550 C   0  0  0  0  0  0  0  0  0  0  0  0
  140.1930   71.5470  223.6480 C   0  0  0  0  0  0  0  0  0  0  0  0
  139.5120   70.3230  223.5880 C   0  0  0  0  0  0  0  0  0  0  0  0
  139.3680   69.5160  224.6930 C   0  0  0  0  0  0  0  0  0  0  0  0
  139.8930   69.8710  225.9330 C   0  0  0  0  0  0  0  0  0  0  0  0
  139.7270   69.0380  227.0140 C   0  0  0  0  0  0  0  0  0  0  0  0
  140.2640   69.4310  228.2360 C   0  0  0  0  0  0  0  0  0  0  0  0
  140.9440   70.6410  228.3250 C   0  0  0  0  0  0  0  0  0  0  0  0
  141.0910   71.4480  227.2190 C   0  0  0  0  0  0  0  0  0  0  0  0
  140.5610   71.0680  225.9990 C   0  0  0  0  0  0  0  0  0  0  0  0
  140.7030   71.8790  224.8800 C   0  0  0  0  0  0  0  0  0  0  0  0
  140.5070   75.2370  220.1250 C   0  0  0  0  0  0  0  0  0  0  0  0
  140.5520   76.4870  220.9990 C   0  0  0  0  0  0  0  0  0  0  0  0
  142.2832   77.9094  217.3594 H   0  0  0  0  0  0  0  0  0  0  0  0
  141.2992   79.1456  216.5047 H   0  0  0  0  0  0  0  0  0  0  0  0
  143.0914   79.2670  216.5047 H   0  0  0  0  0  0  0  0  0  0  0  0
  143.1505   79.8694  218.8409 H   0  0  0  0  0  0  0  0  0  0  0  0
  141.8302   80.8448  218.1620 H   0  0  0  0  0  0  0  0  0  0  0  0
  142.4059   77.9626  222.9333 H   0  0  0  0  0  0  0  0  0  0  0  0
  142.7442   79.4374  224.9112 H   0  0  0  0  0  0  0  0  0  0  0  0
  142.2623   81.8750  224.6936 H   0  0  0  0  0  0  0  0  0  0  0  0
  141.4679   82.7786  222.5500 H   0  0  0  0  0  0  0  0  0  0  0  0
  141.1205   81.3356  220.5580 H   0  0  0  0  0  0  0  0  0  0  0  0
  142.4154   77.1076  221.7120 H   0  0  0  0  0  0  0  0  0  0  0  0
  142.0424   76.8337  218.6902 H   0  0  0  0  0  0  0  0  0  0  0  0
  143.5830   77.2279  219.5706 H   0  0  0  0  0  0  0  0  0  0  0  0
  143.1770   74.8138  218.7765 H   0  0  0  0  0  0  0  0  0  0  0  0
  143.7812   75.1119  220.4426 H   0  0  0  0  0  0  0  0  0  0  0  0
  141.6301   71.2775  221.3528 H   0  0  0  0  0  0  0  0  0  0  0  0
  139.5356   73.1183  222.2616 H   0  0  0  0  0  0  0  0  0  0  0  0
  139.0803   69.9984  222.6297 H   0  0  0  0  0  0  0  0  0  0  0  0
  138.8237   68.5652  224.5943 H   0  0  0  0  0  0  0  0  0  0  0  0
  139.1842   68.0863  226.9155 H   0  0  0  0  0  0  0  0  0  0  0  0
  140.1518   68.7907  229.1234 H   0  0  0  0  0  0  0  0  0  0  0  0
  141.3689   70.9567  229.2892 H   0  0  0  0  0  0  0  0  0  0  0  0
  141.6334   72.4010  227.3061 H   0  0  0  0  0  0  0  0  0  0  0  0
  141.2478   72.8289  224.9849 H   0  0  0  0  0  0  0  0  0  0  0  0
  140.4126   75.5230  219.0670 H   0  0  0  0  0  0  0  0  0  0  0  0
  139.6430   74.6111  220.3927 H   0  0  0  0  0  0  0  0  0  0  0  0
  139.7047   77.1387  220.7395 H   0  0  0  0  0  0  0  0  0  0  0  0
  140.4920   76.1809  222.0538 H   0  0  0  0  0  0  0  0  0  0  0  0
  1  2  1  0
  2  3  1  0
  3  4  2  0
  3  5  1  0
  5  6  1  0
  6  7  2  0
  7  8  1  0
  8  9  2  0
  9 10  1  0
 10 11  2  0
  5 12  1  0
 12 13  1  0
 13 14  1  0
 14 15  1  0
 15 16  1  0
 16 17  2  0
 16 18  1  0
 18 19  2  0
 19 20  1  0
 20 21  2  0
 21 22  1  0
 22 23  2  0
 23 24  1  0
 24 25  2  0
 25 26  1  0
 26 27  2  0
 27 28  1  0
 28 29  2  0
 15 30  1  0
 30 31  1  0
 11  6  1  0
 31 12  1  0
 29 20  1  0
 28 23  1  0
  1 32  1  0
  1 33  1  0
  1 34  1  0
  2 35  1  0
  2 36  1  0
  7 37  1  0
  8 38  1  0
  9 39  1  0
 10 40  1  0
 11 41  1  0
 12 42  1  0
 13 43  1  0
 13 44  1  0
 14 45  1  0
 14 46  1  0
 18 47  1  0
 19 48  1  0
 21 49  1  0
 22 50  1  0
 24 51  1  0
 25 52  1  0
 26 53  1  0
 27 54  1  0
 29 55  1  0
 30 56  1  0
 30 57  1  0
 31 58  1  0
 31 59  1  0
M  END
>  <smiles>  (40) 
CCC(=O)N(c1ccccc1)C1CCN(C(=O)/C=C/c2ccc3ccccc3c2)CC1

>  <score_type>  (40) 
oracle

>  <origin>  (40) 
autodockgpu

>  <m_score__min__energy>  (40) 
-9.4600000000000009

>  <m_primary>  (40) 
energy

>  <rmsd>  (40) 
6.0437735213000705

>  <m_score__min__rmsd>  (40) 
6.0437735213000705

>  <meeko>  (40) 
{"free_energy": -9.05, "intermolecular_energy": -11.14, "internal_energy": -1.36, "cluster_size": 6, "cluster_id": 2, "rank_in_cluster": 2}

>  <energy>  (40) 
-8.68

>  <cluster_rmsd>  (40) 
1.88

>  <cluster>  (40) 
1

$$$$

     RDKit          3D

 59 62  0  0  0  0  0  0  0  0999 V2000
  138.2030   81.0860  223.8730 C   0  0  0  0  0  0  0  0  0  0  0  0
  137.5150   79.7670  223.5020 C   0  0  0  0  0  0  0  0  0  0  0  0
  138.3020   79.1720  222.3860 C   0  0  0  0  0  0  0  0  0  0  0  0
  137.8090   79.3360  221.2180 O   0  0  0  0  0  0  0  0  0  0  0  0
  139.5270   78.4700  222.5920 N   0  0  0  0  0  0  0  0  0  0  0  0
  140.7180   79.2620  222.7600 C   0  0  0  0  0  0  0  0  0  0  0  0
  141.0660   80.0630  221.6590 C   0  0  0  0  0  0  0  0  0  0  0  0
  142.1920   80.8660  221.6990 C   0  0  0  0  0  0  0  0  0  0  0  0
  142.9630   80.8630  222.8420 C   0  0  0  0  0  0  0  0  0  0  0  0
  142.5970   80.0680  223.9090 C   0  0  0  0  0  0  0  0  0  0  0  0
  141.4760   79.2540  223.8990 C   0  0  0  0  0  0  0  0  0  0  0  0
  139.5940   77.0460  222.6100 C   0  0  0  0  0  0  0  0  0  0  0  0
  140.7090   76.5980  221.6690 C   0  0  0  0  0  0  0  0  0  0  0  0
  140.8500   75.1180  221.6260 C   0  0  0  0  0  0  0  0  0  0  0  0
  139.4790   74.4770  221.6250 N   0  0  0  0  0  0  0  0  0  0  0  0
  139.4960   73.1570  222.0530 C   0  0  0  0  0  0  0  0  0  0  0  0
  140.7300   72.7710  222.3500 O   0  0  0  0  0  0  0  0  0  0  0  0
  138.5260   72.1490  222.2430 C   0  0  0  0  0  0  0  0  0  0  0  0
  138.6540   70.8740  222.5230 C   0  0  0  0  0  0  0  0  0  0  0  0
  139.1020   70.3430  223.8050 C   0  0  0  0  0  0  0  0  0  0  0  0
  138.9460   68.9810  224.1010 C   0  0  0  0  0  0  0  0  0  0  0  0
  139.3550   68.4470  225.3000 C   0  0  0  0  0  0  0  0  0  0  0  0
  139.9480   69.2290  226.2880 C   0  0  0  0  0  0  0  0  0  0  0  0
  140.3420   68.6570  227.4740 C   0  0  0  0  0  0  0  0  0  0  0  0
  140.9270   69.4750  228.4360 C   0  0  0  0  0  0  0  0  0  0  0  0
  141.0940   70.8290  228.1710 C   0  0  0  0  0  0  0  0  0  0  0  0
  140.6870   71.3650  226.9690 C   0  0  0  0  0  0  0  0  0  0  0  0
  140.1040   70.5630  226.0050 C   0  0  0  0  0  0  0  0  0  0  0  0
  139.6880   71.0980  224.7930 C   0  0  0  0  0  0  0  0  0  0  0  0
  138.4540   75.3580  221.1840 C   0  0  0  0  0  0  0  0  0  0  0  0
  138.2790   76.4360  222.2480 C   0  0  0  0  0  0  0  0  0  0  0  0
  138.2515   81.1789  224.9680 H   0  0  0  0  0  0  0  0  0  0  0  0
  139.2219   81.0973  223.4586 H   0  0  0  0  0  0  0  0  0  0  0  0
  137.6292   81.9281  223.4586 H   0  0  0  0  0  0  0  0  0  0  0  0
  137.5089   79.0866  224.3663 H   0  0  0  0  0  0  0  0  0  0  0  0
  136.4702   79.9366  223.2025 H   0  0  0  0  0  0  0  0  0  0  0  0
  140.4370   80.0515  220.7566 H   0  0  0  0  0  0  0  0  0  0  0  0
  142.4661   81.4930  220.8378 H   0  0  0  0  0  0  0  0  0  0  0  0
  143.8644   81.4905  222.9031 H   0  0  0  0  0  0  0  0  0  0  0  0
  143.2260   80.0813  224.8114 H   0  0  0  0  0  0  0  0  0  0  0  0
  141.2082   78.6311  224.7652 H   0  0  0  0  0  0  0  0  0  0  0  0
  139.8237   76.6990  223.6282 H   0  0  0  0  0  0  0  0  0  0  0  0
  140.4841   76.9616  220.6555 H   0  0  0  0  0  0  0  0  0  0  0  0
  141.6548   77.0156  222.0447 H   0  0  0  0  0  0  0  0  0  0  0  0
  141.3903   74.8281  220.7127 H   0  0  0  0  0  0  0  0  0  0  0  0
  141.4111   74.7788  222.5092 H   0  0  0  0  0  0  0  0  0  0  0  0
  137.4858   72.4911  222.1384 H   0  0  0  0  0  0  0  0  0  0  0  0
  138.4049   70.1515  221.7318 H   0  0  0  0  0  0  0  0  0  0  0  0
  138.4832   68.3212  223.3524 H   0  0  0  0  0  0  0  0  0  0  0  0
  139.2098   67.3723  225.4840 H   0  0  0  0  0  0  0  0  0  0  0  0
  140.1988   67.5820  227.6578 H   0  0  0  0  0  0  0  0  0  0  0  0
  141.2544   69.0535  229.3978 H   0  0  0  0  0  0  0  0  0  0  0  0
  141.5558   71.4792  228.9286 H   0  0  0  0  0  0  0  0  0  0  0  0
  140.8268   72.4386  226.7746 H   0  0  0  0  0  0  0  0  0  0  0  0
  139.8339   72.1738  224.6156 H   0  0  0  0  0  0  0  0  0  0  0  0
  138.7421   75.8189  220.2277 H   0  0  0  0  0  0  0  0  0  0  0  0
  137.5127   74.8090  221.0337 H   0  0  0  0  0  0  0  0  0  0  0  0
  137.6127   77.2205  221.8598 H   0  0  0  0  0  0  0  0  0  0  0  0
  137.8458   75.9748  223.1478 H   0  0  0  0  0  0  0  0  0  0  0  0
  1  2  1  0
  2  3  1  0
  3  4  2  0
  3  5  1  0
  5  6  1  0
  6  7  2  0
  7  8  1  0
  8  9  2  0
  9 10  1  0
 10 11  2  0
  5 12  1  0
 12 13  1  0
 13 14  1  0
 14 15  1  0
 15 16  1  0
 16 17  2  0
 16 18  1  0
 18 19  2  0
 19 20  1  0
 20 21  2  0
 21 22  1  0
 22 23  2  0
 23 24  1  0
 24 25  2  0
 25 26  1  0
 26 27  2  0
 27 28  1  0
 28 29  2  0
 15 30  1  0
 30 31  1  0
 11  6  1  0
 31 12  1  0
 29 20  1  0
 28 23  1  0
  1 32  1  0
  1 33  1  0
  1 34  1  0
  2 35  1  0
  2 36  1  0
  7 37  1  0
  8 38  1  0
  9 39  1  0
 10 40  1  0
 11 41  1  0
 12 42  1  0
 13 43  1  0
 13 44  1  0
 14 45  1  0
 14 46  1  0
 18 47  1  0
 19 48  1  0
 21 49  1  0
 22 50  1  0
 24 51  1  0
 25 52  1  0
 26 53  1  0
 27 54  1  0
 29 55  1  0
 30 56  1  0
 30 57  1  0
 31 58  1  0
 31 59  1  0
M  END
>  <smiles>  (41) 
CCC(=O)N(c1ccccc1)C1CCN(C(=O)/C=C/c2ccc3ccccc3c2)CC1

>  <score_type>  (41) 
oracle

>  <origin>  (41) 
autodockgpu

>  <m_score__min__energy>  (41) 
-9.4600000000000009

>  <m_primary>  (41) 
energy

>  <rmsd>  (41) 
5.82085911051762

>  <m_score__min__rmsd>  (41) 
5.82085911051762

>  <meeko>  (41) 
{"free_energy": -9.27, "intermolecular_energy": -11.35, "internal_energy": -1.49, "cluster_size": 43, "cluster_id": 1, "rank_in_cluster": 8}

>  <energy>  (41) 
-8.64

>  <cluster_rmsd>  (41) 
1.83

>  <cluster>  (41) 
1

$$$$

     RDKit          3D

 59 62  0  0  0  0  0  0  0  0999 V2000
  142.5580   81.3250  224.2170 C   0  0  0  0  0  0  0  0  0  0  0  0
  143.0670   80.1800  223.3320 C   0  0  0  0  0  0  0  0  0  0  0  0
  142.0340   79.9580  222.2820 C   0  0  0  0  0  0  0  0  0  0  0  0
  142.2690   80.5150  221.1550 O   0  0  0  0  0  0  0  0  0  0  0  0
  140.8630   79.1740  222.5030 N   0  0  0  0  0  0  0  0  0  0  0  0
  139.6750   79.8720  222.9210 C   0  0  0  0  0  0  0  0  0  0  0  0
  138.9730   80.5290  221.8960 C   0  0  0  0  0  0  0  0  0  0  0  0
  137.8160   81.2360  222.1730 C   0  0  0  0  0  0  0  0  0  0  0  0
  137.3690   81.2820  223.4770 C   0  0  0  0  0  0  0  0  0  0  0  0
  138.0780   80.6270  224.4640 C   0  0  0  0  0  0  0  0  0  0  0  0
  139.2370   79.9110  224.2170 C   0  0  0  0  0  0  0  0  0  0  0  0
  140.8550   77.7570  222.3490 C   0  0  0  0  0  0  0  0  0  0  0  0
  141.3160   77.4170  220.9340 C   0  0  0  0  0  0  0  0  0  0  0  0
  141.3360   75.9510  220.6850 C   0  0  0  0  0  0  0  0  0  0  0  0
  140.1200   75.3110  221.3200 N   0  0  0  0  0  0  0  0  0  0  0  0
  140.2800   73.9520  221.5530 C   0  0  0  0  0  0  0  0  0  0  0  0
  141.4720   73.5390  221.1440 O   0  0  0  0  0  0  0  0  0  0  0  0
  139.4860   72.9270  222.1120 C   0  0  0  0  0  0  0  0  0  0  0  0
  139.7260   71.6480  222.2790 C   0  0  0  0  0  0  0  0  0  0  0  0
  139.9110   70.9970  223.5710 C   0  0  0  0  0  0  0  0  0  0  0  0
  139.5820   69.6440  223.7350 C   0  0  0  0  0  0  0  0  0  0  0  0
  139.7430   68.9970  224.9390 C   0  0  0  0  0  0  0  0  0  0  0  0
  140.2420   69.6520  226.0620 C   0  0  0  0  0  0  0  0  0  0  0  0
  140.3860   68.9710  227.2470 C   0  0  0  0  0  0  0  0  0  0  0  0
  140.8850   69.6630  228.3460 C   0  0  0  0  0  0  0  0  0  0  0  0
  141.2190   71.0060  228.2130 C   0  0  0  0  0  0  0  0  0  0  0  0
  141.0620   71.6540  227.0080 C   0  0  0  0  0  0  0  0  0  0  0  0
  140.5660   70.9770  225.9080 C   0  0  0  0  0  0  0  0  0  0  0  0
  140.4020   71.6240  224.6910 C   0  0  0  0  0  0  0  0  0  0  0  0
  139.0620   76.2320  221.5460 C   0  0  0  0  0  0  0  0  0  0  0  0
  139.5060   77.1880  222.6490 C   0  0  0  0  0  0  0  0  0  0  0  0
  142.6794   81.0520  225.2756 H   0  0  0  0  0  0  0  0  0  0  0  0
  143.1355   82.2369  224.0050 H   0  0  0  0  0  0  0  0  0  0  0  0
  141.4941   81.5072  224.0050 H   0  0  0  0  0  0  0  0  0  0  0  0
  144.0254   80.4567  222.8683 H   0  0  0  0  0  0  0  0  0  0  0  0
  143.2327   79.2671  223.9230 H   0  0  0  0  0  0  0  0  0  0  0  0
  139.3471   80.4808  220.8627 H   0  0  0  0  0  0  0  0  0  0  0  0
  137.2653   81.7497  221.3713 H   0  0  0  0  0  0  0  0  0  0  0  0
  136.4534   81.8371  223.7290 H   0  0  0  0  0  0  0  0  0  0  0  0
  137.7038   80.6764  225.4972 H   0  0  0  0  0  0  0  0  0  0  0  0
  139.7801   79.3978  225.0242 H   0  0  0  0  0  0  0  0  0  0  0  0
  141.5493   77.3012  223.0702 H   0  0  0  0  0  0  0  0  0  0  0  0
  140.6298   77.8888  220.2153 H   0  0  0  0  0  0  0  0  0  0  0  0
  142.3428   77.7931  220.8146 H   0  0  0  0  0  0  0  0  0  0  0  0
  141.3242   75.7637  219.6011 H   0  0  0  0  0  0  0  0  0  0  0  0
  142.2473   75.5185  221.1238 H   0  0  0  0  0  0  0  0  0  0  0  0
  138.4987   73.2567  222.4678 H   0  0  0  0  0  0  0  0  0  0  0  0
  139.7926   71.0203  221.3781 H   0  0  0  0  0  0  0  0  0  0  0  0
  139.1837   69.0834  222.8765 H   0  0  0  0  0  0  0  0  0  0  0  0
  139.4702   67.9342  225.0163 H   0  0  0  0  0  0  0  0  0  0  0  0
  140.1142   67.9079  227.3244 H   0  0  0  0  0  0  0  0  0  0  0  0
  141.0141   69.1521  229.3115 H   0  0  0  0  0  0  0  0  0  0  0  0
  141.6130   71.5570  229.0797 H   0  0  0  0  0  0  0  0  0  0  0  0
  141.3326   72.7165  226.9195 H   0  0  0  0  0  0  0  0  0  0  0  0
  140.6775   72.6866  224.6198 H   0  0  0  0  0  0  0  0  0  0  0  0
  138.8522   76.7949  220.6245 H   0  0  0  0  0  0  0  0  0  0  0  0
  138.1458   75.7006  221.8429 H   0  0  0  0  0  0  0  0  0  0  0  0
  138.7782   78.0090  222.7288 H   0  0  0  0  0  0  0  0  0  0  0  0
  139.5616   76.6312  223.5960 H   0  0  0  0  0  0  0  0  0  0  0  0
  1  2  1  0
  2  3  1  0
  3  4  2  0
  3  5  1  0
  5  6  1  0
  6  7  2  0
  7  8  1  0
  8  9  2  0
  9 10  1  0
 10 11  2  0
  5 12  1  0
 12 13  1  0
 13 14  1  0
 14 15  1  0
 15 16  1  0
 16 17  2  0
 16 18  1  0
 18 19  2  0
 19 20  1  0
 20 21  2  0
 21 22  1  0
 22 23  2  0
 23 24  1  0
 24 25  2  0
 25 26  1  0
 26 27  2  0
 27 28  1  0
 28 29  2  0
 15 30  1  0
 30 31  1  0
 11  6  1  0
 31 12  1  0
 29 20  1  0
 28 23  1  0
  1 32  1  0
  1 33  1  0
  1 34  1  0
  2 35  1  0
  2 36  1  0
  7 37  1  0
  8 38  1  0
  9 39  1  0
 10 40  1  0
 11 41  1  0
 12 42  1  0
 13 43  1  0
 13 44  1  0
 14 45  1  0
 14 46  1  0
 18 47  1  0
 19 48  1  0
 21 49  1  0
 22 50  1  0
 24 51  1  0
 25 52  1  0
 26 53  1  0
 27 54  1  0
 29 55  1  0
 30 56  1  0
 30 57  1  0
 31 58  1  0
 31 59  1  0
M  END
>  <smiles>  (42) 
CCC(=O)N(c1ccccc1)C1CCN(C(=O)/C=C/c2ccc3ccccc3c2)CC1

>  <score_type>  (42) 
oracle

>  <origin>  (42) 
autodockgpu

>  <m_score__min__energy>  (42) 
-9.4600000000000009

>  <m_primary>  (42) 
energy

>  <rmsd>  (42) 
5.750042158867739

>  <m_score__min__rmsd>  (42) 
5.750042158867739

>  <meeko>  (42) 
{"free_energy": -9.05, "intermolecular_energy": -11.13, "internal_energy": -1.38, "cluster_size": 43, "cluster_id": 1, "rank_in_cluster": 24}

>  <energy>  (42) 
-8.52

>  <cluster_rmsd>  (42) 
1.88

>  <cluster>  (42) 
1

$$$$

     RDKit          3D

 59 62  0  0  0  0  0  0  0  0999 V2000
  137.7180   80.8750  224.3600 C   0  0  0  0  0  0  0  0  0  0  0  0
  137.0580   79.8050  223.4820 C   0  0  0  0  0  0  0  0  0  0  0  0
  138.0320   79.4720  222.4050 C   0  0  0  0  0  0  0  0  0  0  0  0
  137.6690   79.7860  221.2200 O   0  0  0  0  0  0  0  0  0  0  0  0
  139.2890   78.8500  222.6650 N   0  0  0  0  0  0  0  0  0  0  0  0
  140.4080   79.7170  222.9320 C   0  0  0  0  0  0  0  0  0  0  0  0
  141.3320   79.2330  223.8730 C   0  0  0  0  0  0  0  0  0  0  0  0
  142.4470   79.9770  224.2150 C   0  0  0  0  0  0  0  0  0  0  0  0
  142.6310   81.2040  223.6120 C   0  0  0  0  0  0  0  0  0  0  0  0
  141.7070   81.6550  222.6900 C   0  0  0  0  0  0  0  0  0  0  0  0
  140.5830   80.9320  222.3280 C   0  0  0  0  0  0  0  0  0  0  0  0
  139.4590   77.4350  222.6420 C   0  0  0  0  0  0  0  0  0  0  0  0
  140.6860   77.1040  221.7960 C   0  0  0  0  0  0  0  0  0  0  0  0
  140.9370   75.6400  221.7160 C   0  0  0  0  0  0  0  0  0  0  0  0
  139.6220   74.9060  221.5630 N   0  0  0  0  0  0  0  0  0  0  0  0
  139.6960   73.5750  221.9470 C   0  0  0  0  0  0  0  0  0  0  0  0
  140.9220   73.2640  222.3470 O   0  0  0  0  0  0  0  0  0  0  0  0
  138.7880   72.4940  222.0100 C   0  0  0  0  0  0  0  0  0  0  0  0
  138.9750   71.2300  222.3040 C   0  0  0  0  0  0  0  0  0  0  0  0
  139.3500   70.7280  223.6220 C   0  0  0  0  0  0  0  0  0  0  0  0
  139.1500   69.3790  223.9470 C   0  0  0  0  0  0  0  0  0  0  0  0
  139.4900   68.8710  225.1800 C   0  0  0  0  0  0  0  0  0  0  0  0
  140.0510   69.6700  226.1730 C   0  0  0  0  0  0  0  0  0  0  0  0
  140.3750   69.1250  227.3930 C   0  0  0  0  0  0  0  0  0  0  0  0
  140.9310   69.9580  228.3590 C   0  0  0  0  0  0  0  0  0  0  0  0
  141.1400   71.3010  228.0640 C   0  0  0  0  0  0  0  0  0  0  0  0
  140.8030   71.8100  226.8290 C   0  0  0  0  0  0  0  0  0  0  0  0
  140.2490   70.9920  225.8610 C   0  0  0  0  0  0  0  0  0  0  0  0
  139.9040   71.4990  224.6150 C   0  0  0  0  0  0  0  0  0  0  0  0
  138.5810   75.7310  221.0570 C   0  0  0  0  0  0  0  0  0  0  0  0
  138.2300   76.7510  222.1360 C   0  0  0  0  0  0  0  0  0  0  0  0
  137.5641   80.6254  225.4202 H   0  0  0  0  0  0  0  0  0  0  0  0
  138.7961   80.9120  224.1448 H   0  0  0  0  0  0  0  0  0  0  0  0
  137.2673   81.8551  224.1448 H   0  0  0  0  0  0  0  0  0  0  0  0
  136.8339   78.9095  224.0802 H   0  0  0  0  0  0  0  0  0  0  0  0
  136.1108   80.1706  223.0587 H   0  0  0  0  0  0  0  0  0  0  0  0
  141.1672   78.2521  224.3428 H   0  0  0  0  0  0  0  0  0  0  0  0
  143.1710   79.5985  224.9516 H   0  0  0  0  0  0  0  0  0  0  0  0
  143.5076   81.8189  223.8638 H   0  0  0  0  0  0  0  0  0  0  0  0
  141.8720   82.6360  222.2205 H   0  0  0  0  0  0  0  0  0  0  0  0
  139.8643   81.3165  221.5893 H   0  0  0  0  0  0  0  0  0  0  0  0
  139.6198   77.0635  223.6648 H   0  0  0  0  0  0  0  0  0  0  0  0
  140.5298   77.4924  220.7788 H   0  0  0  0  0  0  0  0  0  0  0  0
  141.5604   77.5702  222.2736 H   0  0  0  0  0  0  0  0  0  0  0  0
  141.5788   75.4256  220.8487 H   0  0  0  0  0  0  0  0  0  0  0  0
  141.4371   75.3047  222.6366 H   0  0  0  0  0  0  0  0  0  0  0  0
  137.7470   72.7579  221.7718 H   0  0  0  0  0  0  0  0  0  0  0  0
  138.8393   70.4939  221.4980 H   0  0  0  0  0  0  0  0  0  0  0  0
  138.7089   68.7078  223.1954 H   0  0  0  0  0  0  0  0  0  0  0  0
  139.3139   67.8050  225.3867 H   0  0  0  0  0  0  0  0  0  0  0  0
  140.1994   68.0590  227.5999 H   0  0  0  0  0  0  0  0  0  0  0  0
  141.2028   69.5580  229.3470 H   0  0  0  0  0  0  0  0  0  0  0  0
  141.5789   71.9635  228.8246 H   0  0  0  0  0  0  0  0  0  0  0  0
  140.9757   72.8743  226.6112 H   0  0  0  0  0  0  0  0  0  0  0  0
  140.0823   72.5657  224.4141 H   0  0  0  0  0  0  0  0  0  0  0  0
  138.9220   76.2492  220.1486 H   0  0  0  0  0  0  0  0  0  0  0  0
  137.7001   75.1246  220.7996 H   0  0  0  0  0  0  0  0  0  0  0  0
  137.5476   77.5028  221.7128 H   0  0  0  0  0  0  0  0  0  0  0  0
  137.7495   76.2253  222.9743 H   0  0  0  0  0  0  0  0  0  0  0  0
  1  2  1  0
  2  3  1  0
  3  4  2  0
  3  5  1  0
  5  6  1  0
  6  7  2  0
  7  8  1  0
  8  9  2  0
  9 10  1  0
 10 11  2  0
  5 12  1  0
 12 13  1  0
 13 14  1  0
 14 15  1  0
 15 16  1  0
 16 17  2  0
 16 18  1  0
 18 19  2  0
 19 20  1  0
 20 21  2  0
 21 22  1  0
 22 23  2  0
 23 24  1  0
 24 25  2  0
 25 26  1  0
 26 27  2  0
 27 28  1  0
 28 29  2  0
 15 30  1  0
 30 31  1  0
 11  6  1  0
 31 12  1  0
 29 20  1  0
 28 23  1  0
  1 32  1  0
  1 33  1  0
  1 34  1  0
  2 35  1  0
  2 36  1  0
  7 37  1  0
  8 38  1  0
  9 39  1  0
 10 40  1  0
 11 41  1  0
 12 42  1  0
 13 43  1  0
 13 44  1  0
 14 45  1  0
 14 46  1  0
 18 47  1  0
 19 48  1  0
 21 49  1  0
 22 50  1  0
 24 51  1  0
 25 52  1  0
 26 53  1  0
 27 54  1  0
 29 55  1  0
 30 56  1  0
 30 57  1  0
 31 58  1  0
 31 59  1  0
M  END
>  <smiles>  (43) 
CCC(=O)N(c1ccccc1)C1CCN(C(=O)/C=C/c2ccc3ccccc3c2)CC1

>  <score_type>  (43) 
oracle

>  <origin>  (43) 
autodockgpu

>  <m_score__min__energy>  (43) 
-9.4600000000000009

>  <m_primary>  (43) 
energy

>  <rmsd>  (43) 
6.163977330940829

>  <m_score__min__rmsd>  (43) 
6.163977330940829

>  <meeko>  (43) 
{"free_energy": -9.46, "intermolecular_energy": -11.55, "internal_energy": -1.38, "cluster_size": 43, "cluster_id": 1, "rank_in_cluster": 1}

>  <energy>  (43) 
-8.51

>  <cluster_rmsd>  (43) 
1.87

>  <cluster>  (43) 
1

$$$$

     RDKit          3D

 59 62  0  0  0  0  0  0  0  0999 V2000
  138.1110   80.5150  223.7590 C   0  0  0  0  0  0  0  0  0  0  0  0
  137.4620   79.2980  223.0880 C   0  0  0  0  0  0  0  0  0  0  0  0
  138.4160   78.8210  222.0480 C   0  0  0  0  0  0  0  0  0  0  0  0
  138.0470   79.0060  220.8380 O   0  0  0  0  0  0  0  0  0  0  0  0
  139.6620   78.2050  222.3670 N   0  0  0  0  0  0  0  0  0  0  0  0
  140.7650   79.0760  222.6820 C   0  0  0  0  0  0  0  0  0  0  0  0
  141.1160   79.9900  221.6740 C   0  0  0  0  0  0  0  0  0  0  0  0
  142.1610   80.8770  221.8580 C   0  0  0  0  0  0  0  0  0  0  0  0
  142.8490   80.8460  223.0530 C   0  0  0  0  0  0  0  0  0  0  0  0
  142.4820   79.9390  224.0270 C   0  0  0  0  0  0  0  0  0  0  0  0
  141.4400   79.0400  223.8720 C   0  0  0  0  0  0  0  0  0  0  0  0
  139.8370   76.7900  222.3560 C   0  0  0  0  0  0  0  0  0  0  0  0
  140.9470   76.4430  221.3670 C   0  0  0  0  0  0  0  0  0  0  0  0
  141.1960   74.9790  221.2910 C   0  0  0  0  0  0  0  0  0  0  0  0
  139.8770   74.2360  221.3270 N   0  0  0  0  0  0  0  0  0  0  0  0
  140.0090   72.9140  221.7300 C   0  0  0  0  0  0  0  0  0  0  0  0
  141.2780   72.6180  221.9750 O   0  0  0  0  0  0  0  0  0  0  0  0
  139.1250   71.8330  221.9360 C   0  0  0  0  0  0  0  0  0  0  0  0
  139.2820   70.7050  222.5880 C   0  0  0  0  0  0  0  0  0  0  0  0
  139.7240   70.5990  223.9740 C   0  0  0  0  0  0  0  0  0  0  0  0
  140.2820   71.7080  224.6250 C   0  0  0  0  0  0  0  0  0  0  0  0
  140.7100   71.6440  225.9310 C   0  0  0  0  0  0  0  0  0  0  0  0
  140.6120   70.4730  226.6790 C   0  0  0  0  0  0  0  0  0  0  0  0
  141.0530   70.4490  227.9800 C   0  0  0  0  0  0  0  0  0  0  0  0
  140.9410   69.2580  228.6910 C   0  0  0  0  0  0  0  0  0  0  0  0
  140.3920   68.1420  228.0700 C   0  0  0  0  0  0  0  0  0  0  0  0
  139.9600   68.2050  226.7640 C   0  0  0  0  0  0  0  0  0  0  0  0
  140.0670   69.3840  226.0460 C   0  0  0  0  0  0  0  0  0  0  0  0
  139.6370   69.4540  224.7280 C   0  0  0  0  0  0  0  0  0  0  0  0
  138.7740   75.0440  220.9400 C   0  0  0  0  0  0  0  0  0  0  0  0
  138.5580   76.0890  222.0300 C   0  0  0  0  0  0  0  0  0  0  0  0
  138.0526   80.4056  224.8520 H   0  0  0  0  0  0  0  0  0  0  0  0
  139.1654   80.5835  223.4531 H   0  0  0  0  0  0  0  0  0  0  0  0
  137.5804   81.4287  223.4531 H   0  0  0  0  0  0  0  0  0  0  0  0
  137.2840   78.5061  223.8305 H   0  0  0  0  0  0  0  0  0  0  0  0
  136.4920   79.5633  222.6423 H   0  0  0  0  0  0  0  0  0  0  0  0
  140.5537   80.0001  220.7286 H   0  0  0  0  0  0  0  0  0  0  0  0
  142.4374   81.5915  221.0687 H   0  0  0  0  0  0  0  0  0  0  0  0
  143.6846   81.5394  223.2288 H   0  0  0  0  0  0  0  0  0  0  0  0
  143.0446   79.9300  224.9722 H   0  0  0  0  0  0  0  0  0  0  0  0
  141.1678   78.3307  224.6675 H   0  0  0  0  0  0  0  0  0  0  0  0
  140.1306   76.4443  223.3581 H   0  0  0  0  0  0  0  0  0  0  0  0
  140.6582   76.8052  220.3693 H   0  0  0  0  0  0  0  0  0  0  0  0
  141.8723   76.9246  221.7162 H   0  0  0  0  0  0  0  0  0  0  0  0
  141.7221   74.7455  220.3536 H   0  0  0  0  0  0  0  0  0  0  0  0
  141.8131   74.6688  222.1472 H   0  0  0  0  0  0  0  0  0  0  0  0
  138.1360   71.9573  221.4708 H   0  0  0  0  0  0  0  0  0  0  0  0
  139.0643   69.7707  222.0497 H   0  0  0  0  0  0  0  0  0  0  0  0
  140.3804   72.6562  224.0762 H   0  0  0  0  0  0  0  0  0  0  0  0
  141.1414   72.5421  226.3972 H   0  0  0  0  0  0  0  0  0  0  0  0
  141.4831   71.3472  228.4471 H   0  0  0  0  0  0  0  0  0  0  0  0
  141.2837   69.2002  229.7347 H   0  0  0  0  0  0  0  0  0  0  0  0
  140.3017   67.1983  228.6280 H   0  0  0  0  0  0  0  0  0  0  0  0
  139.5271   67.3128  226.2881 H   0  0  0  0  0  0  0  0  0  0  0  0
  139.2074   68.5525  224.2668 H   0  0  0  0  0  0  0  0  0  0  0  0
  138.9913   75.5407  219.9829 H   0  0  0  0  0  0  0  0  0  0  0  0
  137.8715   74.4280  220.8133 H   0  0  0  0  0  0  0  0  0  0  0  0
  137.8213   76.8273  221.6805 H   0  0  0  0  0  0  0  0  0  0  0  0
  138.1934   75.5826  222.9359 H   0  0  0  0  0  0  0  0  0  0  0  0
  1  2  1  0
  2  3  1  0
  3  4  2  0
  3  5  1  0
  5  6  1  0
  6  7  2  0
  7  8  1  0
  8  9  2  0
  9 10  1  0
 10 11  2  0
  5 12  1  0
 12 13  1  0
 13 14  1  0
 14 15  1  0
 15 16  1  0
 16 17  2  0
 16 18  1  0
 18 19  2  0
 19 20  1  0
 20 21  2  0
 21 22  1  0
 22 23  2  0
 23 24  1  0
 24 25  2  0
 25 26  1  0
 26 27  2  0
 27 28  1  0
 28 29  2  0
 15 30  1  0
 30 31  1  0
 11  6  1  0
 31 12  1  0
 29 20  1  0
 28 23  1  0
  1 32  1  0
  1 33  1  0
  1 34  1  0
  2 35  1  0
  2 36  1  0
  7 37  1  0
  8 38  1  0
  9 39  1  0
 10 40  1  0
 11 41  1  0
 12 42  1  0
 13 43  1  0
 13 44  1  0
 14 45  1  0
 14 46  1  0
 18 47  1  0
 19 48  1  0
 21 49  1  0
 22 50  1  0
 24 51  1  0
 25 52  1  0
 26 53  1  0
 27 54  1  0
 29 55  1  0
 30 56  1  0
 30 57  1  0
 31 58  1  0
 31 59  1  0
M  END
>  <smiles>  (44) 
CCC(=O)N(c1ccccc1)C1CCN(C(=O)/C=C/c2ccc3ccccc3c2)CC1

>  <score_type>  (44) 
oracle

>  <origin>  (44) 
autodockgpu

>  <m_score__min__energy>  (44) 
-9.4600000000000009

>  <m_primary>  (44) 
energy

>  <rmsd>  (44) 
5.862922616626025

>  <m_score__min__rmsd>  (44) 
5.862922616626025

>  <meeko>  (44) 
{"free_energy": -9.19, "intermolecular_energy": -11.28, "internal_energy": -1.46, "cluster_size": 43, "cluster_id": 1, "rank_in_cluster": 14}

>  <energy>  (44) 
-9.17

>  <cluster_rmsd>  (44) 
0.0

>  <cluster>  (44) 
2

$$$$

     RDKit          3D

 59 62  0  0  0  0  0  0  0  0999 V2000
  142.2080   81.0920  218.7150 C   0  0  0  0  0  0  0  0  0  0  0  0
  141.8860   79.5930  218.7390 C   0  0  0  0  0  0  0  0  0  0  0  0
  140.8680   79.3910  219.8080 C   0  0  0  0  0  0  0  0  0  0  0  0
  139.6870   79.7910  219.5250 O   0  0  0  0  0  0  0  0  0  0  0  0
  141.1750   78.7860  221.0630 N   0  0  0  0  0  0  0  0  0  0  0  0
  141.5310   79.6660  222.1460 C   0  0  0  0  0  0  0  0  0  0  0  0
  142.8950   79.6860  222.4820 C   0  0  0  0  0  0  0  0  0  0  0  0
  143.3590   80.4900  223.5070 C   0  0  0  0  0  0  0  0  0  0  0  0
  142.4520   81.2720  224.1920 C   0  0  0  0  0  0  0  0  0  0  0  0
  141.1170   81.2340  223.8410 C   0  0  0  0  0  0  0  0  0  0  0  0
  140.6250   80.4400  222.8190 C   0  0  0  0  0  0  0  0  0  0  0  0
  141.1620   77.3740  221.2520 C   0  0  0  0  0  0  0  0  0  0  0  0
  142.1580   76.7420  220.2830 C   0  0  0  0  0  0  0  0  0  0  0  0
  142.2090   75.2610  220.4130 C   0  0  0  0  0  0  0  0  0  0  0  0
  140.8080   74.7200  220.6050 N   0  0  0  0  0  0  0  0  0  0  0  0
  140.7870   73.4620  221.1920 C   0  0  0  0  0  0  0  0  0  0  0  0
  142.0190   73.0300  221.4300 O   0  0  0  0  0  0  0  0  0  0  0  0
  139.7820   72.5520  221.5860 C   0  0  0  0  0  0  0  0  0  0  0  0
  139.8590   71.3080  221.9920 C   0  0  0  0  0  0  0  0  0  0  0  0
  139.8770   70.8870  223.3880 C   0  0  0  0  0  0  0  0  0  0  0  0
  139.2390   69.7000  223.7770 C   0  0  0  0  0  0  0  0  0  0  0  0
  139.2340   69.2730  225.0850 C   0  0  0  0  0  0  0  0  0  0  0  0
  139.8640   69.9960  226.0950 C   0  0  0  0  0  0  0  0  0  0  0  0
  139.8350   69.5360  227.3900 C   0  0  0  0  0  0  0  0  0  0  0  0
  140.4740   70.2900  228.3700 C   0  0  0  0  0  0  0  0  0  0  0  0
  141.1140   71.4710  228.0130 C   0  0  0  0  0  0  0  0  0  0  0  0
  141.1230   71.8990  226.7040 C   0  0  0  0  0  0  0  0  0  0  0  0
  140.4900   71.1580  225.7210 C   0  0  0  0  0  0  0  0  0  0  0  0
  140.4920   71.5850  224.3990 C   0  0  0  0  0  0  0  0  0  0  0  0
  139.8000   75.6100  220.1460 C   0  0  0  0  0  0  0  0  0  0  0  0
  139.7850   76.8170  221.0790 C   0  0  0  0  0  0  0  0  0  0  0  0
  142.2884   81.4663  219.7462 H   0  0  0  0  0  0  0  0  0  0  0  0
  143.1614   81.2539  218.1908 H   0  0  0  0  0  0  0  0  0  0  0  0
  141.4052   81.6311  218.1908 H   0  0  0  0  0  0  0  0  0  0  0  0
  141.4821   79.2764  217.7661 H   0  0  0  0  0  0  0  0  0  0  0  0
  142.7896   78.9972  218.9354 H   0  0  0  0  0  0  0  0  0  0  0  0
  143.6019   79.0549  221.9234 H   0  0  0  0  0  0  0  0  0  0  0  0
  144.4269   80.5057  223.7702 H   0  0  0  0  0  0  0  0  0  0  0  0
  142.7902   81.9217  225.0127 H   0  0  0  0  0  0  0  0  0  0  0  0
  140.4105   81.8649  224.4003 H   0  0  0  0  0  0  0  0  0  0  0  0
  139.5559   80.4317  222.5601 H   0  0  0  0  0  0  0  0  0  0  0  0
  141.4644   77.1352  222.2823 H   0  0  0  0  0  0  0  0  0  0  0  0
  141.8618   76.9970  219.2548 H   0  0  0  0  0  0  0  0  0  0  0  0
  143.1569   77.1357  220.5223 H   0  0  0  0  0  0  0  0  0  0  0  0
  142.6469   74.8283  219.5014 H   0  0  0  0  0  0  0  0  0  0  0  0
  142.8272   74.9914  221.2820 H   0  0  0  0  0  0  0  0  0  0  0  0
  138.7597   72.9560  221.5453 H   0  0  0  0  0  0  0  0  0  0  0  0
  139.9141   70.5237  221.2227 H   0  0  0  0  0  0  0  0  0  0  0  0
  138.7282   69.0933  223.0148 H   0  0  0  0  0  0  0  0  0  0  0  0
  138.7185   68.3353  225.3399 H   0  0  0  0  0  0  0  0  0  0  0  0
  139.3208   68.5976  227.6449 H   0  0  0  0  0  0  0  0  0  0  0  0
  140.4725   69.9543  229.4175 H   0  0  0  0  0  0  0  0  0  0  0  0
  141.6190   72.0706  228.7847 H   0  0  0  0  0  0  0  0  0  0  0  0
  141.6361   72.8350  226.4382 H   0  0  0  0  0  0  0  0  0  0  0  0
  141.0090   72.5237  224.1507 H   0  0  0  0  0  0  0  0  0  0  0  0
  140.0254   75.9334  219.1191 H   0  0  0  0  0  0  0  0  0  0  0  0
  138.8190   75.1124  220.1449 H   0  0  0  0  0  0  0  0  0  0  0  0
  139.1331   77.5938  220.6528 H   0  0  0  0  0  0  0  0  0  0  0  0
  139.4089   76.4971  222.0620 H   0  0  0  0  0  0  0  0  0  0  0  0
  1  2  1  0
  2  3  1  0
  3  4  2  0
  3  5  1  0
  5  6  1  0
  6  7  2  0
  7  8  1  0
  8  9  2  0
  9 10  1  0
 10 11  2  0
  5 12  1  0
 12 13  1  0
 13 14  1  0
 14 15  1  0
 15 16  1  0
 16 17  2  0
 16 18  1  0
 18 19  2  0
 19 20  1  0
 20 21  2  0
 21 22  1  0
 22 23  2  0
 23 24  1  0
 24 25  2  0
 25 26  1  0
 26 27  2  0
 27 28  1  0
 28 29  2  0
 15 30  1  0
 30 31  1  0
 11  6  1  0
 31 12  1  0
 29 20  1  0
 28 23  1  0
  1 32  1  0
  1 33  1  0
  1 34  1  0
  2 35  1  0
  2 36  1  0
  7 37  1  0
  8 38  1  0
  9 39  1  0
 10 40  1  0
 11 41  1  0
 12 42  1  0
 13 43  1  0
 13 44  1  0
 14 45  1  0
 14 46  1  0
 18 47  1  0
 19 48  1  0
 21 49  1  0
 22 50  1  0
 24 51  1  0
 25 52  1  0
 26 53  1  0
 27 54  1  0
 29 55  1  0
 30 56  1  0
 30 57  1  0
 31 58  1  0
 31 59  1  0
M  END
>  <smiles>  (45) 
CCC(=O)N(c1ccccc1)C1CCN(C(=O)/C=C/c2ccc3ccccc3c2)CC1

>  <score_type>  (45) 
oracle

>  <origin>  (45) 
autodockgpu

>  <m_score__min__energy>  (45) 
-9.4600000000000009

>  <m_primary>  (45) 
energy

>  <rmsd>  (45) 
6.146698581689047

>  <m_score__min__rmsd>  (45) 
6.146698581689047

>  <meeko>  (45) 
{"free_energy": -8.9, "intermolecular_energy": -10.99, "internal_energy": -1.39, "cluster_size": 43, "cluster_id": 1, "rank_in_cluster": 35}

>  <energy>  (45) 
-9.05

>  <cluster_rmsd>  (45) 
0.47

>  <cluster>  (45) 
2

$$$$

     RDKit          3D

 59 62  0  0  0  0  0  0  0  0999 V2000
  138.1010   80.2230  223.4990 C   0  0  0  0  0  0  0  0  0  0  0  0
  137.6030   78.8300  223.0950 C   0  0  0  0  0  0  0  0  0  0  0  0
  138.5110   78.3440  222.0190 C   0  0  0  0  0  0  0  0  0  0  0  0
  138.0480   78.4270  220.8300 O   0  0  0  0  0  0  0  0  0  0  0  0
  139.8130   77.8240  222.2830 N   0  0  0  0  0  0  0  0  0  0  0  0
  140.8460   78.7740  222.6050 C   0  0  0  0  0  0  0  0  0  0  0  0
  141.2000   79.6520  221.5670 C   0  0  0  0  0  0  0  0  0  0  0  0
  142.1820   80.6080  221.7540 C   0  0  0  0  0  0  0  0  0  0  0  0
  142.8060   80.6800  222.9820 C   0  0  0  0  0  0  0  0  0  0  0  0
  142.4380   79.8050  223.9850 C   0  0  0  0  0  0  0  0  0  0  0  0
  141.4580   78.8390  223.8270 C   0  0  0  0  0  0  0  0  0  0  0  0
  140.1060   76.4310  222.2120 C   0  0  0  0  0  0  0  0  0  0  0  0
  141.1840   76.2120  221.1530 C   0  0  0  0  0  0  0  0  0  0  0  0
  141.5510   74.7780  221.0110 C   0  0  0  0  0  0  0  0  0  0  0  0
  140.3040   73.9230  221.0910 N   0  0  0  0  0  0  0  0  0  0  0  0
  140.5700   72.6060  221.4380 C   0  0  0  0  0  0  0  0  0  0  0  0
  141.8710   72.4130  221.6050 O   0  0  0  0  0  0  0  0  0  0  0  0
  139.7930   71.4460  221.6520 C   0  0  0  0  0  0  0  0  0  0  0  0
  139.0510   71.0830  222.6700 C   0  0  0  0  0  0  0  0  0  0  0  0
  139.5490   70.8470  224.0210 C   0  0  0  0  0  0  0  0  0  0  0  0
  140.3100   71.8260  224.6750 C   0  0  0  0  0  0  0  0  0  0  0  0
  140.7970   71.6380  225.9480 C   0  0  0  0  0  0  0  0  0  0  0  0
  140.5600   70.4630  226.6580 C   0  0  0  0  0  0  0  0  0  0  0  0
  141.0660   70.3120  227.9270 C   0  0  0  0  0  0  0  0  0  0  0  0
  140.8090   69.1220  228.6000 C   0  0  0  0  0  0  0  0  0  0  0  0
  140.0580   68.1320  227.9750 C   0  0  0  0  0  0  0  0  0  0  0  0
  139.5670   68.3210  226.7020 C   0  0  0  0  0  0  0  0  0  0  0  0
  139.8160   69.5000  226.0230 C   0  0  0  0  0  0  0  0  0  0  0  0
  139.3270   69.6960  224.7380 C   0  0  0  0  0  0  0  0  0  0  0  0
  139.1170   74.6440  220.7920 C   0  0  0  0  0  0  0  0  0  0  0  0
  138.8750   75.6320  221.9290 C   0  0  0  0  0  0  0  0  0  0  0  0
  138.1281   80.2988  224.5960 H   0  0  0  0  0  0  0  0  0  0  0  0
  139.1118   80.3824  223.0954 H   0  0  0  0  0  0  0  0  0  0  0  0
  137.4203   80.9871  223.0954 H   0  0  0  0  0  0  0  0  0  0  0  0
  137.6404   78.1493  223.9583 H   0  0  0  0  0  0  0  0  0  0  0  0
  136.5611   78.8695  222.7444 H   0  0  0  0  0  0  0  0  0  0  0  0
  140.6906   79.5784  220.5948 H   0  0  0  0  0  0  0  0  0  0  0  0
  142.4592   81.2956  220.9414 H   0  0  0  0  0  0  0  0  0  0  0  0
  143.5913   81.4292  223.1611 H   0  0  0  0  0  0  0  0  0  0  0  0
  142.9480   79.8788  224.9568 H   0  0  0  0  0  0  0  0  0  0  0  0
  141.1847   78.1564  224.6452 H   0  0  0  0  0  0  0  0  0  0  0  0
  140.4833   76.0816  223.1844 H   0  0  0  0  0  0  0  0  0  0  0  0
  140.8099   76.5790  220.1859 H   0  0  0  0  0  0  0  0  0  0  0  0
  142.0836   76.7603  221.4694 H   0  0  0  0  0  0  0  0  0  0  0  0
  142.0410   74.6203  220.0389 H   0  0  0  0  0  0  0  0  0  0  0  0
  142.2394   74.4957  221.8212 H   0  0  0  0  0  0  0  0  0  0  0  0
  139.8141   70.7237  220.8226 H   0  0  0  0  0  0  0  0  0  0  0  0
  137.9740   70.9463  222.4927 H   0  0  0  0  0  0  0  0  0  0  0  0
  140.5239   72.7717  224.1555 H   0  0  0  0  0  0  0  0  0  0  0  0
  141.3894   72.4370  226.4178 H   0  0  0  0  0  0  0  0  0  0  0  0
  141.6582   71.1106  228.3977 H   0  0  0  0  0  0  0  0  0  0  0  0
  141.1963   68.9653  229.6176 H   0  0  0  0  0  0  0  0  0  0  0  0
  139.8541   67.1886  228.5027 H   0  0  0  0  0  0  0  0  0  0  0  0
  138.9730   67.5291  226.2223 H   0  0  0  0  0  0  0  0  0  0  0  0
  138.7353   68.8936  224.2732 H   0  0  0  0  0  0  0  0  0  0  0  0
  139.2377   75.1872  219.8431 H   0  0  0  0  0  0  0  0  0  0  0  0
  138.2641   73.9567  220.6910 H   0  0  0  0  0  0  0  0  0  0  0  0
  138.0599   76.3143  221.6459 H   0  0  0  0  0  0  0  0  0  0  0  0
  138.6065   75.0675  222.8341 H   0  0  0  0  0  0  0  0  0  0  0  0
  1  2  1  0
  2  3  1  0
  3  4  2  0
  3  5  1  0
  5  6  1  0
  6  7  2  0
  7  8  1  0
  8  9  2  0
  9 10  1  0
 10 11  2  0
  5 12  1  0
 12 13  1  0
 13 14  1  0
 14 15  1  0
 15 16  1  0
 16 17  2  0
 16 18  1  0
 18 19  2  0
 19 20  1  0
 20 21  2  0
 21 22  1  0
 22 23  2  0
 23 24  1  0
 24 25  2  0
 25 26  1  0
 26 27  2  0
 27 28  1  0
 28 29  2  0
 15 30  1  0
 30 31  1  0
 11  6  1  0
 31 12  1  0
 29 20  1  0
 28 23  1  0
  1 32  1  0
  1 33  1  0
  1 34  1  0
  2 35  1  0
  2 36  1  0
  7 37  1  0
  8 38  1  0
  9 39  1  0
 10 40  1  0
 11 41  1  0
 12 42  1  0
 13 43  1  0
 13 44  1  0
 14 45  1  0
 14 46  1  0
 18 47  1  0
 19 48  1  0
 21 49  1  0
 22 50  1  0
 24 51  1  0
 25 52  1  0
 26 53  1  0
 27 54  1  0
 29 55  1  0
 30 56  1  0
 30 57  1  0
 31 58  1  0
 31 59  1  0
M  END
>  <smiles>  (46) 
CCC(=O)N(c1ccccc1)C1CCN(C(=O)/C=C/c2ccc3ccccc3c2)CC1

>  <score_type>  (46) 
oracle

>  <origin>  (46) 
autodockgpu

>  <m_score__min__energy>  (46) 
-9.4600000000000009

>  <m_primary>  (46) 
energy

>  <rmsd>  (46) 
5.824719467211969

>  <m_score__min__rmsd>  (46) 
5.824719467211969

>  <meeko>  (46) 
{"free_energy": -8.99, "intermolecular_energy": -11.07, "internal_energy": -1.59, "cluster_size": 43, "cluster_id": 1, "rank_in_cluster": 32}

>  <energy>  (46) 
-8.99

>  <cluster_rmsd>  (46) 
0.61

>  <cluster>  (46) 
2

$$$$

     RDKit          3D

 59 62  0  0  0  0  0  0  0  0999 V2000
  137.7640   80.8580  224.2870 C   0  0  0  0  0  0  0  0  0  0  0  0
  137.2190   79.6730  223.4800 C   0  0  0  0  0  0  0  0  0  0  0  0
  138.2390   79.3570  222.4410 C   0  0  0  0  0  0  0  0  0  0  0  0
  137.9230   79.6830  221.2450 O   0  0  0  0  0  0  0  0  0  0  0  0
  139.4870   78.7390  222.7460 N   0  0  0  0  0  0  0  0  0  0  0  0
  140.5770   79.6050  223.1120 C   0  0  0  0  0  0  0  0  0  0  0  0
  140.5430   80.8890  222.5410 C   0  0  0  0  0  0  0  0  0  0  0  0
  141.5370   81.8110  222.8160 C   0  0  0  0  0  0  0  0  0  0  0  0
  142.5610   81.4420  223.6620 C   0  0  0  0  0  0  0  0  0  0  0  0
  142.5710   80.1750  224.2100 C   0  0  0  0  0  0  0  0  0  0  0  0
  141.5890   79.2320  223.9540 C   0  0  0  0  0  0  0  0  0  0  0  0
  139.6760   77.3280  222.6730 C   0  0  0  0  0  0  0  0  0  0  0  0
  140.6130   77.0190  221.5080 C   0  0  0  0  0  0  0  0  0  0  0  0
  140.8660   75.5610  221.3580 C   0  0  0  0  0  0  0  0  0  0  0  0
  139.5800   74.7970  221.5920 N   0  0  0  0  0  0  0  0  0  0  0  0
  139.7940   73.4690  221.9370 C   0  0  0  0  0  0  0  0  0  0  0  0
  141.0900   73.1890  221.9640 O   0  0  0  0  0  0  0  0  0  0  0  0
  138.9690   72.3690  222.2590 C   0  0  0  0  0  0  0  0  0  0  0  0
  139.2640   71.1830  222.7340 C   0  0  0  0  0  0  0  0  0  0  0  0
  139.7190   70.9200  224.0950 C   0  0  0  0  0  0  0  0  0  0  0  0
  140.4730   71.8790  224.7860 C   0  0  0  0  0  0  0  0  0  0  0  0
  140.9190   71.6650  226.0700 C   0  0  0  0  0  0  0  0  0  0  0  0
  140.6460   70.4840  226.7540 C   0  0  0  0  0  0  0  0  0  0  0  0
  141.1110   70.3080  228.0360 C   0  0  0  0  0  0  0  0  0  0  0  0
  140.8180   69.1110  228.6830 C   0  0  0  0  0  0  0  0  0  0  0  0
  140.0730   68.1420  228.0220 C   0  0  0  0  0  0  0  0  0  0  0  0
  139.6230   68.3560  226.7380 C   0  0  0  0  0  0  0  0  0  0  0  0
  139.9080   69.5410  226.0830 C   0  0  0  0  0  0  0  0  0  0  0  0
  139.4600   69.7620  224.7880 C   0  0  0  0  0  0  0  0  0  0  0  0
  138.4190   75.5940  221.4090 C   0  0  0  0  0  0  0  0  0  0  0  0
  138.3700   76.6120  222.5440 C   0  0  0  0  0  0  0  0  0  0  0  0
  137.6663   80.6455  225.3619 H   0  0  0  0  0  0  0  0  0  0  0  0
  138.8243   81.0139  224.0390 H   0  0  0  0  0  0  0  0  0  0  0  0
  137.1923   81.7645  224.0390 H   0  0  0  0  0  0  0  0  0  0  0  0
  137.0663   78.8046  224.1378 H   0  0  0  0  0  0  0  0  0  0  0  0
  136.2500   79.9191  223.0211 H   0  0  0  0  0  0  0  0  0  0  0  0
  139.7171   81.1636  221.8683 H   0  0  0  0  0  0  0  0  0  0  0  0
  141.5109   82.8160  222.3696 H   0  0  0  0  0  0  0  0  0  0  0  0
  143.3658   82.1534  223.8991 H   0  0  0  0  0  0  0  0  0  0  0  0
  143.3979   79.9012  224.8818 H   0  0  0  0  0  0  0  0  0  0  0  0
  141.6213   78.2299  224.4066 H   0  0  0  0  0  0  0  0  0  0  0  0
  140.1345   76.9675  223.6056 H   0  0  0  0  0  0  0  0  0  0  0  0
  140.1596   77.3966  220.5797 H   0  0  0  0  0  0  0  0  0  0  0  0
  141.5767   77.5083  221.7126 H   0  0  0  0  0  0  0  0  0  0  0  0
  141.2344   75.3557  220.3420 H   0  0  0  0  0  0  0  0  0  0  0  0
  141.6196   75.2429  222.0935 H   0  0  0  0  0  0  0  0  0  0  0  0
  137.8963   72.5355  222.0811 H   0  0  0  0  0  0  0  0  0  0  0  0
  139.1608   70.3228  222.0562 H   0  0  0  0  0  0  0  0  0  0  0  0
  140.7149   72.8293  224.2876 H   0  0  0  0  0  0  0  0  0  0  0  0
  141.5074   72.4487  226.5695 H   0  0  0  0  0  0  0  0  0  0  0  0
  141.6985   71.0918  228.5366 H   0  0  0  0  0  0  0  0  0  0  0  0
  141.1732   68.9336  229.7089 H   0  0  0  0  0  0  0  0  0  0  0  0
  139.8402   67.1942  228.5295 H   0  0  0  0  0  0  0  0  0  0  0  0
  139.0328   67.5793  226.2296 H   0  0  0  0  0  0  0  0  0  0  0  0
  138.8712   68.9749  224.2943 H   0  0  0  0  0  0  0  0  0  0  0  0
  138.4709   76.1144  220.4413 H   0  0  0  0  0  0  0  0  0  0  0  0
  137.5161   74.9658  221.4164 H   0  0  0  0  0  0  0  0  0  0  0  0
  137.5761   77.3447  222.3370 H   0  0  0  0  0  0  0  0  0  0  0  0
  138.1653   76.0806  223.4851 H   0  0  0  0  0  0  0  0  0  0  0  0
  1  2  1  0
  2  3  1  0
  3  4  2  0
  3  5  1  0
  5  6  1  0
  6  7  2  0
  7  8  1  0
  8  9  2  0
  9 10  1  0
 10 11  2  0
  5 12  1  0
 12 13  1  0
 13 14  1  0
 14 15  1  0
 15 16  1  0
 16 17  2  0
 16 18  1  0
 18 19  2  0
 19 20  1  0
 20 21  2  0
 21 22  1  0
 22 23  2  0
 23 24  1  0
 24 25  2  0
 25 26  1  0
 26 27  2  0
 27 28  1  0
 28 29  2  0
 15 30  1  0
 30 31  1  0
 11  6  1  0
 31 12  1  0
 29 20  1  0
 28 23  1  0
  1 32  1  0
  1 33  1  0
  1 34  1  0
  2 35  1  0
  2 36  1  0
  7 37  1  0
  8 38  1  0
  9 39  1  0
 10 40  1  0
 11 41  1  0
 12 42  1  0
 13 43  1  0
 13 44  1  0
 14 45  1  0
 14 46  1  0
 18 47  1  0
 19 48  1  0
 21 49  1  0
 22 50  1  0
 24 51  1  0
 25 52  1  0
 26 53  1  0
 27 54  1  0
 29 55  1  0
 30 56  1  0
 30 57  1  0
 31 58  1  0
 31 59  1  0
M  END
>  <smiles>  (47) 
CCC(=O)N(c1ccccc1)C1CCN(C(=O)/C=C/c2ccc3ccccc3c2)CC1

>  <score_type>  (47) 
oracle

>  <origin>  (47) 
autodockgpu

>  <m_score__min__energy>  (47) 
-9.4600000000000009

>  <m_primary>  (47) 
energy

>  <rmsd>  (47) 
6.146592014662477

>  <m_score__min__rmsd>  (47) 
6.146592014662477

>  <meeko>  (47) 
{"free_energy": -9.35, "intermolecular_energy": -11.44, "internal_energy": -1.43, "cluster_size": 43, "cluster_id": 1, "rank_in_cluster": 6}

>  <energy>  (47) 
-8.91

>  <cluster_rmsd>  (47) 
1.51

>  <cluster>  (47) 
2

$$$$

     RDKit          3D

 59 62  0  0  0  0  0  0  0  0999 V2000
  137.7250   80.5240  223.9040 C   0  0  0  0  0  0  0  0  0  0  0  0
  137.2870   79.2620  223.1510 C   0  0  0  0  0  0  0  0  0  0  0  0
  138.3040   79.0210  222.0890 C   0  0  0  0  0  0  0  0  0  0  0  0
  137.9190   79.2660  220.8950 O   0  0  0  0  0  0  0  0  0  0  0  0
  139.6220   78.5550  222.3730 N   0  0  0  0  0  0  0  0  0  0  0  0
  140.6000   79.5410  222.7520 C   0  0  0  0  0  0  0  0  0  0  0  0
  141.5060   79.1370  223.7480 C   0  0  0  0  0  0  0  0  0  0  0  0
  142.4910   79.9990  224.1980 C   0  0  0  0  0  0  0  0  0  0  0  0
  142.5630   81.2610  223.6480 C   0  0  0  0  0  0  0  0  0  0  0  0
  141.6610   81.6310  222.6700 C   0  0  0  0  0  0  0  0  0  0  0  0
  140.6660   80.7910  222.2000 C   0  0  0  0  0  0  0  0  0  0  0  0
  139.9830   77.1800  222.2670 C   0  0  0  0  0  0  0  0  0  0  0  0
  140.9700   77.0210  221.1130 C   0  0  0  0  0  0  0  0  0  0  0  0
  141.4010   75.6100  220.9300 C   0  0  0  0  0  0  0  0  0  0  0  0
  140.2150   74.6880  221.1180 N   0  0  0  0  0  0  0  0  0  0  0  0
  140.5820   73.3870  221.4320 C   0  0  0  0  0  0  0  0  0  0  0  0
  141.9020   73.2650  221.4780 O   0  0  0  0  0  0  0  0  0  0  0  0
  139.8930   72.1860  221.7080 C   0  0  0  0  0  0  0  0  0  0  0  0
  139.1300   71.8450  222.7190 C   0  0  0  0  0  0  0  0  0  0  0  0
  139.6020   71.1870  223.9330 C   0  0  0  0  0  0  0  0  0  0  0  0
  140.3910   71.8880  224.8560 C   0  0  0  0  0  0  0  0  0  0  0  0
  140.8540   71.3000  226.0100 C   0  0  0  0  0  0  0  0  0  0  0  0
  140.5640   69.9750  226.3260 C   0  0  0  0  0  0  0  0  0  0  0  0
  141.0460   69.4230  227.4880 C   0  0  0  0  0  0  0  0  0  0  0  0
  140.7370   68.0950  227.7640 C   0  0  0  0  0  0  0  0  0  0  0  0
  139.9570   67.3750  226.8660 C   0  0  0  0  0  0  0  0  0  0  0  0
  139.4900   67.9630  225.7120 C   0  0  0  0  0  0  0  0  0  0  0  0
  139.7920   69.2830  225.4260 C   0  0  0  0  0  0  0  0  0  0  0  0
  139.3270   69.8820  224.2620 C   0  0  0  0  0  0  0  0  0  0  0  0
  138.9680   75.3430  220.9320 C   0  0  0  0  0  0  0  0  0  0  0  0
  138.7760   76.3150  222.0930 C   0  0  0  0  0  0  0  0  0  0  0  0
  137.6628   80.3446  224.9875 H   0  0  0  0  0  0  0  0  0  0  0  0
  138.7617   80.7718  223.6323 H   0  0  0  0  0  0  0  0  0  0  0  0
  137.0647   81.3608  223.6323 H   0  0  0  0  0  0  0  0  0  0  0  0
  137.2473   78.4048  223.8392 H   0  0  0  0  0  0  0  0  0  0  0  0
  136.2844   79.3890  222.7166 H   0  0  0  0  0  0  0  0  0  0  0  0
  141.4314   78.1256  224.1741 H   0  0  0  0  0  0  0  0  0  0  0  0
  143.2006   79.6840  224.9772 H   0  0  0  0  0  0  0  0  0  0  0  0
  143.3341   81.9689  223.9860 H   0  0  0  0  0  0  0  0  0  0  0  0
  141.7368   82.6422  222.2437 H   0  0  0  0  0  0  0  0  0  0  0  0
  139.9614   81.1135  221.4192 H   0  0  0  0  0  0  0  0  0  0  0  0
  140.4665   76.8509  223.1986 H   0  0  0  0  0  0  0  0  0  0  0  0
  140.4894   77.3672  220.1861 H   0  0  0  0  0  0  0  0  0  0  0  0
  141.8632   77.6179  221.3493 H   0  0  0  0  0  0  0  0  0  0  0  0
  141.8085   75.4802  219.9165 H   0  0  0  0  0  0  0  0  0  0  0  0
  142.1750   75.3654  221.6723 H   0  0  0  0  0  0  0  0  0  0  0  0
  140.0172   71.4030  220.9454 H   0  0  0  0  0  0  0  0  0  0  0  0
  138.0560   72.0716  222.6464 H   0  0  0  0  0  0  0  0  0  0  0  0
  140.6470   72.9381  224.6514 H   0  0  0  0  0  0  0  0  0  0  0  0
  141.4702   71.8925  226.7023 H   0  0  0  0  0  0  0  0  0  0  0  0
  141.6602   70.0156  228.1820 H   0  0  0  0  0  0  0  0  0  0  0  0
  141.1064   67.6189  228.6843 H   0  0  0  0  0  0  0  0  0  0  0  0
  139.7104   66.3245  227.0798 H   0  0  0  0  0  0  0  0  0  0  0  0
  138.8728   67.3798  225.0127 H   0  0  0  0  0  0  0  0  0  0  0  0
  138.7113   69.2848  223.5733 H   0  0  0  0  0  0  0  0  0  0  0  0
  138.9724   75.8934  219.9796 H   0  0  0  0  0  0  0  0  0  0  0  0
  138.1484   74.6099  220.9041 H   0  0  0  0  0  0  0  0  0  0  0  0
  137.9024   76.9517  221.8894 H   0  0  0  0  0  0  0  0  0  0  0  0
  138.6215   75.7360  223.0154 H   0  0  0  0  0  0  0  0  0  0  0  0
  1  2  1  0
  2  3  1  0
  3  4  2  0
  3  5  1  0
  5  6  1  0
  6  7  2  0
  7  8  1  0
  8  9  2  0
  9 10  1  0
 10 11  2  0
  5 12  1  0
 12 13  1  0
 13 14  1  0
 14 15  1  0
 15 16  1  0
 16 17  2  0
 16 18  1  0
 18 19  2  0
 19 20  1  0
 20 21  2  0
 21 22  1  0
 22 23  2  0
 23 24  1  0
 24 25  2  0
 25 26  1  0
 26 27  2  0
 27 28  1  0
 28 29  2  0
 15 30  1  0
 30 31  1  0
 11  6  1  0
 31 12  1  0
 29 20  1  0
 28 23  1  0
  1 32  1  0
  1 33  1  0
  1 34  1  0
  2 35  1  0
  2 36  1  0
  7 37  1  0
  8 38  1  0
  9 39  1  0
 10 40  1  0
 11 41  1  0
 12 42  1  0
 13 43  1  0
 13 44  1  0
 14 45  1  0
 14 46  1  0
 18 47  1  0
 19 48  1  0
 21 49  1  0
 22 50  1  0
 24 51  1  0
 25 52  1  0
 26 53  1  0
 27 54  1  0
 29 55  1  0
 30 56  1  0
 30 57  1  0
 31 58  1  0
 31 59  1  0
M  END
>  <smiles>  (48) 
CCC(=O)N(c1ccccc1)C1CCN(C(=O)/C=C/c2ccc3ccccc3c2)CC1

>  <score_type>  (48) 
oracle

>  <origin>  (48) 
autodockgpu

>  <m_score__min__energy>  (48) 
-9.4600000000000009

>  <m_primary>  (48) 
energy

>  <rmsd>  (48) 
6.107729431868479

>  <m_score__min__rmsd>  (48) 
6.107729431868479

>  <meeko>  (48) 
{"free_energy": -8.94, "intermolecular_energy": -11.02, "internal_energy": -1.48, "cluster_size": 43, "cluster_id": 1, "rank_in_cluster": 33}

>  <energy>  (48) 
-8.85

>  <cluster_rmsd>  (48) 
1.54

>  <cluster>  (48) 
2

$$$$

     RDKit          3D

 59 62  0  0  0  0  0  0  0  0999 V2000
  136.1060   80.6400  222.7750 C   0  0  0  0  0  0  0  0  0  0  0  0
  137.3010   80.0030  223.4930 C   0  0  0  0  0  0  0  0  0  0  0  0
  138.1220   79.3310  222.4470 C   0  0  0  0  0  0  0  0  0  0  0  0
  137.6500   79.3850  221.2600 O   0  0  0  0  0  0  0  0  0  0  0  0
  139.3550   78.6740  222.7360 N   0  0  0  0  0  0  0  0  0  0  0  0
  140.4910   79.5090  223.0290 C   0  0  0  0  0  0  0  0  0  0  0  0
  140.4870   80.7690  222.4070 C   0  0  0  0  0  0  0  0  0  0  0  0
  141.5260   81.6600  222.6100 C   0  0  0  0  0  0  0  0  0  0  0  0
  142.5650   81.2830  223.4350 C   0  0  0  0  0  0  0  0  0  0  0  0
  142.5440   80.0390  224.0340 C   0  0  0  0  0  0  0  0  0  0  0  0
  141.5170   79.1280  223.8500 C   0  0  0  0  0  0  0  0  0  0  0  0
  139.4850   77.2550  222.7160 C   0  0  0  0  0  0  0  0  0  0  0  0
  140.5900   76.8790  221.7330 C   0  0  0  0  0  0  0  0  0  0  0  0
  140.7930   75.4080  221.6490 C   0  0  0  0  0  0  0  0  0  0  0  0
  139.4510   74.7080  221.6690 N   0  0  0  0  0  0  0  0  0  0  0  0
  139.5370   73.3800  222.0640 C   0  0  0  0  0  0  0  0  0  0  0  0
  140.7950   73.0410  222.3170 O   0  0  0  0  0  0  0  0  0  0  0  0
  138.6170   72.3260  222.2550 C   0  0  0  0  0  0  0  0  0  0  0  0
  138.8080   71.0490  222.4840 C   0  0  0  0  0  0  0  0  0  0  0  0
  139.2140   70.4840  223.7660 C   0  0  0  0  0  0  0  0  0  0  0  0
  139.0490   69.1150  224.0200 C   0  0  0  0  0  0  0  0  0  0  0  0
  139.4190   68.5480  225.2180 C   0  0  0  0  0  0  0  0  0  0  0  0
  139.9780   69.3040  226.2450 C   0  0  0  0  0  0  0  0  0  0  0  0
  140.3320   68.7000  227.4280 C   0  0  0  0  0  0  0  0  0  0  0  0
  140.8840   69.4920  228.4310 C   0  0  0  0  0  0  0  0  0  0  0  0
  141.0580   70.8530  228.2070 C   0  0  0  0  0  0  0  0  0  0  0  0
  140.6920   71.4210  227.0080 C   0  0  0  0  0  0  0  0  0  0  0  0
  140.1410   70.6450  226.0030 C   0  0  0  0  0  0  0  0  0  0  0  0
  139.7660   71.2120  224.7930 C   0  0  0  0  0  0  0  0  0  0  0  0
  138.3780   75.5530  221.2790 C   0  0  0  0  0  0  0  0  0  0  0  0
  138.1860   76.5970  222.3750 C   0  0  0  0  0  0  0  0  0  0  0  0
  135.3914   81.0209  223.5195 H   0  0  0  0  0  0  0  0  0  0  0  0
  136.4570   81.4707  222.1451 H   0  0  0  0  0  0  0  0  0  0  0  0
  135.6120   79.8855  222.1451 H   0  0  0  0  0  0  0  0  0  0  0  0
  137.8945   80.7774  224.0010 H   0  0  0  0  0  0  0  0  0  0  0  0
  136.9665   79.2839  224.2553 H   0  0  0  0  0  0  0  0  0  0  0  0
  139.6492   81.0499  221.7519 H   0  0  0  0  0  0  0  0  0  0  0  0
  141.5234   82.6469  222.1243 H   0  0  0  0  0  0  0  0  0  0  0  0
  143.4056   81.9694  223.6148 H   0  0  0  0  0  0  0  0  0  0  0  0
  143.3826   79.7582  224.6882 H   0  0  0  0  0  0  0  0  0  0  0  0
  141.5259   78.1438  224.3412 H   0  0  0  0  0  0  0  0  0  0  0  0
  139.7602   76.8938  223.7179 H   0  0  0  0  0  0  0  0  0  0  0  0
  140.3200   77.2565  220.7357 H   0  0  0  0  0  0  0  0  0  0  0  0
  141.5276   77.3285  222.0920 H   0  0  0  0  0  0  0  0  0  0  0  0
  141.3193   75.1639  220.7144 H   0  0  0  0  0  0  0  0  0  0  0  0
  141.3928   75.0725  222.5079 H   0  0  0  0  0  0  0  0  0  0  0  0
  137.5604   72.6273  222.2029 H   0  0  0  0  0  0  0  0  0  0  0  0
  138.6504   70.3524  221.6474 H   0  0  0  0  0  0  0  0  0  0  0  0
  138.6112   68.4758  223.2391 H   0  0  0  0  0  0  0  0  0  0  0  0
  139.2692   67.4687  225.3683 H   0  0  0  0  0  0  0  0  0  0  0  0
  140.1832   67.6205  227.5780 H   0  0  0  0  0  0  0  0  0  0  0  0
  141.1797   69.0452  229.3917 H   0  0  0  0  0  0  0  0  0  0  0  0
  141.4931   71.4829  228.9969 H   0  0  0  0  0  0  0  0  0  0  0  0
  140.8384   72.4993  226.8473 H   0  0  0  0  0  0  0  0  0  0  0  0
  139.9173   72.2921  224.6495 H   0  0  0  0  0  0  0  0  0  0  0  0
  138.6191   76.0492  220.3273 H   0  0  0  0  0  0  0  0  0  0  0  0
  137.4575   74.9669  221.1405 H   0  0  0  0  0  0  0  0  0  0  0  0
  137.4760   77.3608  222.0250 H   0  0  0  0  0  0  0  0  0  0  0  0
  137.7979   76.0964  223.2743 H   0  0  0  0  0  0  0  0  0  0  0  0
  1  2  1  0
  2  3  1  0
  3  4  2  0
  3  5  1  0
  5  6  1  0
  6  7  2  0
  7  8  1  0
  8  9  2  0
  9 10  1  0
 10 11  2  0
  5 12  1  0
 12 13  1  0
 13 14  1  0
 14 15  1  0
 15 16  1  0
 16 17  2  0
 16 18  1  0
 18 19  2  0
 19 20  1  0
 20 21  2  0
 21 22  1  0
 22 23  2  0
 23 24  1  0
 24 25  2  0
 25 26  1  0
 26 27  2  0
 27 28  1  0
 28 29  2  0
 15 30  1  0
 30 31  1  0
 11  6  1  0
 31 12  1  0
 29 20  1  0
 28 23  1  0
  1 32  1  0
  1 33  1  0
  1 34  1  0
  2 35  1  0
  2 36  1  0
  7 37  1  0
  8 38  1  0
  9 39  1  0
 10 40  1  0
 11 41  1  0
 12 42  1  0
 13 43  1  0
 13 44  1  0
 14 45  1  0
 14 46  1  0
 18 47  1  0
 19 48  1  0
 21 49  1  0
 22 50  1  0
 24 51  1  0
 25 52  1  0
 26 53  1  0
 27 54  1  0
 29 55  1  0
 30 56  1  0
 30 57  1  0
 31 58  1  0
 31 59  1  0
M  END
>  <smiles>  (49) 
CCC(=O)N(c1ccccc1)C1CCN(C(=O)/C=C/c2ccc3ccccc3c2)CC1

>  <score_type>  (49) 
oracle

>  <origin>  (49) 
autodockgpu

>  <m_score__min__energy>  (49) 
-9.4600000000000009

>  <m_primary>  (49) 
energy

>  <rmsd>  (49) 
6.085648982106249

>  <m_score__min__rmsd>  (49) 
6.085648982106249

>  <meeko>  (49) 
{"free_energy": -9.25, "intermolecular_energy": -11.34, "internal_energy": -1.39, "cluster_size": 43, "cluster_id": 1, "rank_in_cluster": 9}

>  <energy>  (49) 
-8.8

>  <cluster_rmsd>  (49) 
1.53

>  <cluster>  (49) 
2

$$$$

     RDKit          3D

 59 62  0  0  0  0  0  0  0  0999 V2000
  137.7320   80.9230  224.5920 C   0  0  0  0  0  0  0  0  0  0  0  0
  137.5350   80.5490  223.1180 C   0  0  0  0  0  0  0  0  0  0  0  0
  137.8030   79.0880  223.0060 C   0  0  0  0  0  0  0  0  0  0  0  0
  136.7730   78.3330  223.0750 O   0  0  0  0  0  0  0  0  0  0  0  0
  139.1150   78.5550  222.8280 N   0  0  0  0  0  0  0  0  0  0  0  0
  140.2000   79.4970  222.7400 C   0  0  0  0  0  0  0  0  0  0  0  0
  140.3470   80.1300  221.4950 C   0  0  0  0  0  0  0  0  0  0  0  0
  141.3560   81.0540  221.2870 C   0  0  0  0  0  0  0  0  0  0  0  0
  142.2130   81.3390  222.3290 C   0  0  0  0  0  0  0  0  0  0  0  0
  142.0450   80.7020  223.5430 C   0  0  0  0  0  0  0  0  0  0  0  0
  141.0450   79.7740  223.7800 C   0  0  0  0  0  0  0  0  0  0  0  0
  139.3590   77.1550  222.7140 C   0  0  0  0  0  0  0  0  0  0  0  0
  140.7190   76.9480  222.0520 C   0  0  0  0  0  0  0  0  0  0  0  0
  141.0550   75.5090  221.8930 C   0  0  0  0  0  0  0  0  0  0  0  0
  139.8200   74.7430  221.4680 N   0  0  0  0  0  0  0  0  0  0  0  0
  139.9010   73.3850  221.7460 C   0  0  0  0  0  0  0  0  0  0  0  0
  141.0630   73.0850  222.3110 O   0  0  0  0  0  0  0  0  0  0  0  0
  139.0520   72.2700  221.5700 C   0  0  0  0  0  0  0  0  0  0  0  0
  139.1290   71.0480  222.0400 C   0  0  0  0  0  0  0  0  0  0  0  0
  139.3210   70.7060  223.4450 C   0  0  0  0  0  0  0  0  0  0  0  0
  138.7300   69.5520  223.9780 C   0  0  0  0  0  0  0  0  0  0  0  0
  138.8880   69.1990  225.2990 C   0  0  0  0  0  0  0  0  0  0  0  0
  139.6440   69.9690  226.1790 C   0  0  0  0  0  0  0  0  0  0  0  0
  139.7760   69.5830  227.4910 C   0  0  0  0  0  0  0  0  0  0  0  0
  140.5370   70.3830  228.3390 C   0  0  0  0  0  0  0  0  0  0  0  0
  141.1330   71.5340  227.8370 C   0  0  0  0  0  0  0  0  0  0  0  0
  140.9790   71.8870  226.5150 C   0  0  0  0  0  0  0  0  0  0  0  0
  140.2240   71.1010  225.6630 C   0  0  0  0  0  0  0  0  0  0  0  0
  140.0620   71.4520  224.3290 C   0  0  0  0  0  0  0  0  0  0  0  0
  138.8310   75.5700  220.8710 C   0  0  0  0  0  0  0  0  0  0  0  0
  138.2620   76.4740  221.9610 C   0  0  0  0  0  0  0  0  0  0  0  0
  137.3145   80.1304  225.2303 H   0  0  0  0  0  0  0  0  0  0  0  0
  138.8060   81.0349  224.8015 H   0  0  0  0  0  0  0  0  0  0  0  0
  137.2167   81.8720  224.8015 H   0  0  0  0  0  0  0  0  0  0  0  0
  136.5037   80.7700  222.8056 H   0  0  0  0  0  0  0  0  0  0  0  0
  138.2118   81.1256  222.4703 H   0  0  0  0  0  0  0  0  0  0  0  0
  139.6528   79.8888  220.6765 H   0  0  0  0  0  0  0  0  0  0  0  0
  141.4718   81.5501  220.3121 H   0  0  0  0  0  0  0  0  0  0  0  0
  143.0250   82.0687  222.1943 H   0  0  0  0  0  0  0  0  0  0  0  0
  142.7393   80.9436  224.3613 H   0  0  0  0  0  0  0  0  0  0  0  0
  140.9351   79.2827  224.7580 H   0  0  0  0  0  0  0  0  0  0  0  0
  139.3756   76.6988  223.7148 H   0  0  0  0  0  0  0  0  0  0  0  0
  140.7044   77.4199  221.0585 H   0  0  0  0  0  0  0  0  0  0  0  0
  141.4821   77.4024  222.7010 H   0  0  0  0  0  0  0  0  0  0  0  0
  141.8364   75.3980  221.1267 H   0  0  0  0  0  0  0  0  0  0  0  0
  141.4199   75.1110  222.8514 H   0  0  0  0  0  0  0  0  0  0  0  0
  138.1775   72.4586  220.9299 H   0  0  0  0  0  0  0  0  0  0  0  0
  139.0424   70.2196  221.3215 H   0  0  0  0  0  0  0  0  0  0  0  0
  138.1230   68.9106  223.3222 H   0  0  0  0  0  0  0  0  0  0  0  0
  138.4038   68.2835  225.6696 H   0  0  0  0  0  0  0  0  0  0  0  0
  139.2934   68.6665  227.8614 H   0  0  0  0  0  0  0  0  0  0  0  0
  140.6654   70.1069  229.3960 H   0  0  0  0  0  0  0  0  0  0  0  0
  141.7344   72.1700  228.5033 H   0  0  0  0  0  0  0  0  0  0  0  0
  141.4596   72.8001  226.1338 H   0  0  0  0  0  0  0  0  0  0  0  0
  140.5488   72.3684  223.9640 H   0  0  0  0  0  0  0  0  0  0  0  0
  139.2836   76.1810  220.0761 H   0  0  0  0  0  0  0  0  0  0  0  0
  138.0344   74.9567  220.4246 H   0  0  0  0  0  0  0  0  0  0  0  0
  137.6167   77.2349  221.4977 H   0  0  0  0  0  0  0  0  0  0  0  0
  137.6833   75.8566  222.6638 H   0  0  0  0  0  0  0  0  0  0  0  0
  1  2  1  0
  2  3  1  0
  3  4  2  0
  3  5  1  0
  5  6  1  0
  6  7  2  0
  7  8  1  0
  8  9  2  0
  9 10  1  0
 10 11  2  0
  5 12  1  0
 12 13  1  0
 13 14  1  0
 14 15  1  0
 15 16  1  0
 16 17  2  0
 16 18  1  0
 18 19  2  0
 19 20  1  0
 20 21  2  0
 21 22  1  0
 22 23  2  0
 23 24  1  0
 24 25  2  0
 25 26  1  0
 26 27  2  0
 27 28  1  0
 28 29  2  0
 15 30  1  0
 30 31  1  0
 11  6  1  0
 31 12  1  0
 29 20  1  0
 28 23  1  0
  1 32  1  0
  1 33  1  0
  1 34  1  0
  2 35  1  0
  2 36  1  0
  7 37  1  0
  8 38  1  0
  9 39  1  0
 10 40  1  0
 11 41  1  0
 12 42  1  0
 13 43  1  0
 13 44  1  0
 14 45  1  0
 14 46  1  0
 18 47  1  0
 19 48  1  0
 21 49  1  0
 22 50  1  0
 24 51  1  0
 25 52  1  0
 26 53  1  0
 27 54  1  0
 29 55  1  0
 30 56  1  0
 30 57  1  0
 31 58  1  0
 31 59  1  0
M  END
>  <smiles>  (50) 
CCC(=O)N(c1ccccc1)C1CCN(C(=O)/C=C/c2ccc3ccccc3c2)CC1

>  <score_type>  (50) 
oracle

>  <origin>  (50) 
autodockgpu

>  <m_score__min__energy>  (50) 
-9.4600000000000009

>  <m_primary>  (50) 
energy

>  <rmsd>  (50) 
5.725419108100333

>  <m_score__min__rmsd>  (50) 
5.725419108100333

>  <meeko>  (50) 
{"free_energy": -9.07, "intermolecular_energy": -11.16, "internal_energy": -1.2, "cluster_size": 43, "cluster_id": 1, "rank_in_cluster": 23}

>  <energy>  (50) 
-8.9

>  <cluster_rmsd>  (50) 
0.0

>  <cluster>  (50) 
3

$$$$
