
     RDKit          3D

 40 41  0  0  0  0  0  0  0  0999 V2000
  140.0120   69.3510  228.2230 C   0  0  0  0  0  0  0  0  0  0  0  0
  140.1310   68.2110  227.2230 C   0  0  0  0  0  0  0  0  0  0  0  0
  141.0890   68.6840  226.1210 C   0  0  0  0  0  0  0  0  0  0  0  0
  140.9570   70.1650  226.0570 C   0  0  0  0  0  0  0  0  0  0  0  0
  140.5200   70.6950  224.7920 N   0  0  0  0  0  0  0  0  0  0  0  0
  139.1600   70.5770  224.4350 C   0  0  0  0  0  0  0  0  0  0  0  0
  138.4010   69.9970  225.2660 O   0  0  0  0  0  0  0  0  0  0  0  0
  138.5500   71.0620  223.1930 C   0  0  0  0  0  0  0  0  0  0  0  0
  139.0440   72.3250  222.7270 N   0  0  0  0  0  0  0  0  0  0  0  0
  140.3320   72.4720  222.1420 C   0  0  0  0  0  0  0  0  0  0  0  0
  141.1420   71.5210  221.9910 O   0  0  0  0  0  0  0  0  0  0  0  0
  140.7500   73.8090  221.6840 C   0  0  0  0  0  0  0  0  0  0  0  0
  141.7530   73.9750  220.7720 C   0  0  0  0  0  0  0  0  0  0  0  0
  142.1370   75.2310  220.3520 C   0  0  0  0  0  0  0  0  0  0  0  0
  141.4920   76.3300  220.8640 C   0  0  0  0  0  0  0  0  0  0  0  0
  141.8250   77.6220  220.4870 C   0  0  0  0  0  0  0  0  0  0  0  0
  141.1500   78.7210  221.0270 C   0  0  0  0  0  0  0  0  0  0  0  0
  141.5950   80.3520  220.5280 Cl  0  0  0  0  0  0  0  0  0  0  0  0
  140.1290   78.5300  221.9580 C   0  0  0  0  0  0  0  0  0  0  0  0
  139.7910   77.2330  222.3390 C   0  0  0  0  0  0  0  0  0  0  0  0
  140.4780   76.1680  221.7860 C   0  0  0  0  0  0  0  0  0  0  0  0
  140.1490   74.9180  222.1580 N   0  0  0  0  0  0  0  0  0  0  0  0
  140.0541   68.9477  229.2455 H   0  0  0  0  0  0  0  0  0  0  0  0
  140.8412   70.0581  228.0733 H   0  0  0  0  0  0  0  0  0  0  0  0
  139.0546   69.8716  228.0733 H   0  0  0  0  0  0  0  0  0  0  0  0
  140.5352   67.3150  227.7169 H   0  0  0  0  0  0  0  0  0  0  0  0
  139.1478   67.9493  226.8049 H   0  0  0  0  0  0  0  0  0  0  0  0
  142.1233   68.4046  226.3703 H   0  0  0  0  0  0  0  0  0  0  0  0
  140.8451   68.2197  225.1541 H   0  0  0  0  0  0  0  0  0  0  0  0
  140.2302   70.4737  226.8228 H   0  0  0  0  0  0  0  0  0  0  0  0
  141.9688   70.5652  226.2183 H   0  0  0  0  0  0  0  0  0  0  0  0
  141.1820   71.1510  224.1360 H   0  0  0  0  0  0  0  0  0  0  0  0
  138.7333   70.3135  222.4081 H   0  0  0  0  0  0  0  0  0  0  0  0
  137.4828   71.2122  223.4134 H   0  0  0  0  0  0  0  0  0  0  0  0
  138.4460   73.1960  222.8100 H   0  0  0  0  0  0  0  0  0  0  0  0
  142.2641   73.0901  220.3649 H   0  0  0  0  0  0  0  0  0  0  0  0
  142.9475   75.3508  219.6181 H   0  0  0  0  0  0  0  0  0  0  0  0
  142.6295   77.7843  219.7546 H   0  0  0  0  0  0  0  0  0  0  0  0
  139.5973   79.3926  222.3861 H   0  0  0  0  0  0  0  0  0  0  0  0
  138.9880   77.0586  223.0703 H   0  0  0  0  0  0  0  0  0  0  0  0
  1  2  1  0
  2  3  1  0
  3  4  1  0
  4  5  1  0
  5  6  1  0
  6  7  2  0
  6  8  1  0
  8  9  1  0
  9 10  1  0
 10 11  2  0
 10 12  1  0
 12 13  2  0
 13 14  1  0
 14 15  2  0
 15 16  1  0
 16 17  2  0
 17 18  1  0
 17 19  1  0
 19 20  2  0
 20 21  1  0
 21 22  2  0
 22 12  1  0
 21 15  1  0
  1 23  1  0
  1 24  1  0
  1 25  1  0
  2 26  1  0
  2 27  1  0
  3 28  1  0
  3 29  1  0
  4 30  1  0
  4 31  1  0
  5 32  1  0
  8 33  1  0
  8 34  1  0
  9 35  1  0
 13 36  1  0
 14 37  1  0
 16 38  1  0
 19 39  1  0
 20 40  1  0
M  END
>  <smiles>  (1) 
CCCCNC(=O)CNC(=O)c1ccc2cc(Cl)ccc2n1

>  <score_type>  (1) 
oracle

>  <origin>  (1) 
autodockgpu

>  <m_score__min__energy>  (1) 
-7.6100000000000003

>  <m_primary>  (1) 
energy

>  <rmsd>  (1) 
8.649490880443075

>  <m_score__min__rmsd>  (1) 
8.649490880443075

>  <meeko>  (1) 
{"free_energy": -5.98, "intermolecular_energy": -7.77, "internal_energy": -1.74, "cluster_size": 10, "cluster_id": 3, "rank_in_cluster": 6}

>  <energy>  (1) 
-7.61

>  <cluster_rmsd>  (1) 
0.0

>  <cluster>  (1) 
1

$$$$

     RDKit          3D

 40 41  0  0  0  0  0  0  0  0999 V2000
  144.0550   72.1690  220.7930 C   0  0  0  0  0  0  0  0  0  0  0  0
  144.5890   73.1620  219.7720 C   0  0  0  0  0  0  0  0  0  0  0  0
  144.6270   74.5320  220.4630 C   0  0  0  0  0  0  0  0  0  0  0  0
  143.4150   75.2670  220.0090 C   0  0  0  0  0  0  0  0  0  0  0  0
  142.1570   74.6540  220.3450 N   0  0  0  0  0  0  0  0  0  0  0  0
  141.0500   75.4800  220.6360 C   0  0  0  0  0  0  0  0  0  0  0  0
  141.2450   76.7310  220.5880 O   0  0  0  0  0  0  0  0  0  0  0  0
  139.7040   75.0240  220.9920 C   0  0  0  0  0  0  0  0  0  0  0  0
  139.6540   74.0120  222.0070 N   0  0  0  0  0  0  0  0  0  0  0  0
  140.2230   72.7210  221.8270 C   0  0  0  0  0  0  0  0  0  0  0  0
  140.8080   72.3580  220.7730 O   0  0  0  0  0  0  0  0  0  0  0  0
  140.1300   71.7480  222.9300 C   0  0  0  0  0  0  0  0  0  0  0  0
  139.5550   70.5220  222.7600 C   0  0  0  0  0  0  0  0  0  0  0  0
  139.4720   69.6200  223.8000 C   0  0  0  0  0  0  0  0  0  0  0  0
  139.9800   69.9710  225.0270 C   0  0  0  0  0  0  0  0  0  0  0  0
  139.9330   69.1150  226.1170 C   0  0  0  0  0  0  0  0  0  0  0  0
  140.4590   69.5010  227.3530 C   0  0  0  0  0  0  0  0  0  0  0  0
  140.3830   68.3920  228.7210 Cl  0  0  0  0  0  0  0  0  0  0  0  0
  141.0420   70.7590  227.5060 C   0  0  0  0  0  0  0  0  0  0  0  0
  141.0930   71.6220  226.4130 C   0  0  0  0  0  0  0  0  0  0  0  0
  140.5630   71.2090  225.2040 C   0  0  0  0  0  0  0  0  0  0  0  0
  140.6140   72.0460  224.1520 N   0  0  0  0  0  0  0  0  0  0  0  0
  144.2560   72.5427  221.8079 H   0  0  0  0  0  0  0  0  0  0  0  0
  142.9704   72.0485  220.6548 H   0  0  0  0  0  0  0  0  0  0  0  0
  144.5524   71.1977  220.6548 H   0  0  0  0  0  0  0  0  0  0  0  0
  145.6007   72.8704  219.4535 H   0  0  0  0  0  0  0  0  0  0  0  0
  143.9504   73.1893  218.8768 H   0  0  0  0  0  0  0  0  0  0  0  0
  144.6089   74.4073  221.5558 H   0  0  0  0  0  0  0  0  0  0  0  0
  145.5450   75.0815  220.2074 H   0  0  0  0  0  0  0  0  0  0  0  0
  143.4360   76.2686  220.4632 H   0  0  0  0  0  0  0  0  0  0  0  0
  143.4620   75.2776  218.9101 H   0  0  0  0  0  0  0  0  0  0  0  0
  142.0480   73.6230  220.3850 H   0  0  0  0  0  0  0  0  0  0  0  0
  139.1328   75.8936  221.3491 H   0  0  0  0  0  0  0  0  0  0  0  0
  139.2843   74.5680  220.0832 H   0  0  0  0  0  0  0  0  0  0  0  0
  139.1800   74.2080  222.9340 H   0  0  0  0  0  0  0  0  0  0  0  0
  139.1500   70.2480  221.7746 H   0  0  0  0  0  0  0  0  0  0  0  0
  139.0063   68.6349  223.6493 H   0  0  0  0  0  0  0  0  0  0  0  0
  139.4763   68.1203  226.0075 H   0  0  0  0  0  0  0  0  0  0  0  0
  141.4564   71.0661  228.4776 H   0  0  0  0  0  0  0  0  0  0  0  0
  141.5487   72.6184  226.5104 H   0  0  0  0  0  0  0  0  0  0  0  0
  1  2  1  0
  2  3  1  0
  3  4  1  0
  4  5  1  0
  5  6  1  0
  6  7  2  0
  6  8  1  0
  8  9  1  0
  9 10  1  0
 10 11  2  0
 10 12  1  0
 12 13  2  0
 13 14  1  0
 14 15  2  0
 15 16  1  0
 16 17  2  0
 17 18  1  0
 17 19  1  0
 19 20  2  0
 20 21  1  0
 21 22  2  0
 22 12  1  0
 21 15  1  0
  1 23  1  0
  1 24  1  0
  1 25  1  0
  2 26  1  0
  2 27  1  0
  3 28  1  0
  3 29  1  0
  4 30  1  0
  4 31  1  0
  5 32  1  0
  8 33  1  0
  8 34  1  0
  9 35  1  0
 13 36  1  0
 14 37  1  0
 16 38  1  0
 19 39  1  0
 20 40  1  0
M  END
>  <smiles>  (2) 
CCCCNC(=O)CNC(=O)c1ccc2cc(Cl)ccc2n1

>  <score_type>  (2) 
oracle

>  <origin>  (2) 
autodockgpu

>  <m_score__min__energy>  (2) 
-7.6100000000000003

>  <m_primary>  (2) 
energy

>  <rmsd>  (2) 
3.272919806250404

>  <m_score__min__rmsd>  (2) 
3.272919806250404

>  <meeko>  (2) 
{"free_energy": -6.1, "intermolecular_energy": -7.89, "internal_energy": -1.72, "cluster_size": 9, "cluster_id": 2, "rank_in_cluster": 9}

>  <energy>  (2) 
-7.61

>  <cluster_rmsd>  (2) 
0.1

>  <cluster>  (2) 
1

$$$$

     RDKit          3D

 40 41  0  0  0  0  0  0  0  0999 V2000
  140.3690   68.8220  227.5850 C   0  0  0  0  0  0  0  0  0  0  0  0
  140.1240   70.2650  228.0010 C   0  0  0  0  0  0  0  0  0  0  0  0
  141.0200   71.1400  227.1150 C   0  0  0  0  0  0  0  0  0  0  0  0
  141.1800   70.4130  225.8280 C   0  0  0  0  0  0  0  0  0  0  0  0
  140.6170   71.0630  224.6740 N   0  0  0  0  0  0  0  0  0  0  0  0
  139.3180   70.7050  224.2530 C   0  0  0  0  0  0  0  0  0  0  0  0
  138.7250   69.8140  224.9300 O   0  0  0  0  0  0  0  0  0  0  0  0
  138.5980   71.2670  223.1070 C   0  0  0  0  0  0  0  0  0  0  0  0
  139.0810   72.5380  222.6500 N   0  0  0  0  0  0  0  0  0  0  0  0
  140.3790   72.7070  222.0920 C   0  0  0  0  0  0  0  0  0  0  0  0
  141.2060   71.7690  221.9570 O   0  0  0  0  0  0  0  0  0  0  0  0
  140.7840   74.0510  221.6430 C   0  0  0  0  0  0  0  0  0  0  0  0
  141.7240   74.2290  220.6690 C   0  0  0  0  0  0  0  0  0  0  0  0
  142.0980   75.4910  220.2570 C   0  0  0  0  0  0  0  0  0  0  0  0
  141.5060   76.5840  220.8430 C   0  0  0  0  0  0  0  0  0  0  0  0
  141.8310   77.8810  220.4780 C   0  0  0  0  0  0  0  0  0  0  0  0
  141.2110   78.9740  221.0930 C   0  0  0  0  0  0  0  0  0  0  0  0
  141.6450   80.6120  220.6090 Cl  0  0  0  0  0  0  0  0  0  0  0  0
  140.2530   78.7690  222.0860 C   0  0  0  0  0  0  0  0  0  0  0  0
  139.9230   77.4670  222.4550 C   0  0  0  0  0  0  0  0  0  0  0  0
  140.5550   76.4090  221.8270 C   0  0  0  0  0  0  0  0  0  0  0  0
  140.2330   75.1540  222.1870 N   0  0  0  0  0  0  0  0  0  0  0  0
  140.4755   68.1947  228.4823 H   0  0  0  0  0  0  0  0  0  0  0  0
  139.5188   68.4637  226.9860 H   0  0  0  0  0  0  0  0  0  0  0  0
  141.2898   68.7644  226.9860 H   0  0  0  0  0  0  0  0  0  0  0  0
  139.0671   70.5288  227.8484 H   0  0  0  0  0  0  0  0  0  0  0  0
  140.3562   70.4136  229.0659 H   0  0  0  0  0  0  0  0  0  0  0  0
  140.5459   72.1175  226.9429 H   0  0  0  0  0  0  0  0  0  0  0  0
  141.9940   71.3232  227.5922 H   0  0  0  0  0  0  0  0  0  0  0  0
  142.2565   70.2759  225.6480 H   0  0  0  0  0  0  0  0  0  0  0  0
  140.6255   69.4700  225.9434 H   0  0  0  0  0  0  0  0  0  0  0  0
  141.1460   71.7790  224.1410 H   0  0  0  0  0  0  0  0  0  0  0  0
  138.6741   70.5535  222.2733 H   0  0  0  0  0  0  0  0  0  0  0  0
  137.5652   71.4351  223.4460 H   0  0  0  0  0  0  0  0  0  0  0  0
  138.4680   73.3990  222.7210 H   0  0  0  0  0  0  0  0  0  0  0  0
  142.1921   73.3489  220.2039 H   0  0  0  0  0  0  0  0  0  0  0  0
  142.8578   75.6205  219.4722 H   0  0  0  0  0  0  0  0  0  0  0  0
  142.5850   78.0529  219.6958 H   0  0  0  0  0  0  0  0  0  0  0  0
  139.7637   79.6259  222.5722 H   0  0  0  0  0  0  0  0  0  0  0  0
  139.1699   77.2827  223.2353 H   0  0  0  0  0  0  0  0  0  0  0  0
  1  2  1  0
  2  3  1  0
  3  4  1  0
  4  5  1  0
  5  6  1  0
  6  7  2  0
  6  8  1  0
  8  9  1  0
  9 10  1  0
 10 11  2  0
 10 12  1  0
 12 13  2  0
 13 14  1  0
 14 15  2  0
 15 16  1  0
 16 17  2  0
 17 18  1  0
 17 19  1  0
 19 20  2  0
 20 21  1  0
 21 22  2  0
 22 12  1  0
 21 15  1  0
  1 23  1  0
  1 24  1  0
  1 25  1  0
  2 26  1  0
  2 27  1  0
  3 28  1  0
  3 29  1  0
  4 30  1  0
  4 31  1  0
  5 32  1  0
  8 33  1  0
  8 34  1  0
  9 35  1  0
 13 36  1  0
 14 37  1  0
 16 38  1  0
 19 39  1  0
 20 40  1  0
M  END
>  <smiles>  (3) 
CCCCNC(=O)CNC(=O)c1ccc2cc(Cl)ccc2n1

>  <score_type>  (3) 
oracle

>  <origin>  (3) 
autodockgpu

>  <m_score__min__energy>  (3) 
-7.6100000000000003

>  <m_primary>  (3) 
energy

>  <rmsd>  (3) 
8.467317648374511

>  <m_score__min__rmsd>  (3) 
8.467317648374511

>  <meeko>  (3) 
{"free_energy": -6.23, "intermolecular_energy": -8.02, "internal_energy": -1.71, "cluster_size": 7, "cluster_id": 4, "rank_in_cluster": 3}

>  <energy>  (3) 
-7.53

>  <cluster_rmsd>  (3) 
0.36

>  <cluster>  (3) 
1

$$$$

     RDKit          3D

 40 41  0  0  0  0  0  0  0  0999 V2000
  142.5900   80.7430  223.8440 C   0  0  0  0  0  0  0  0  0  0  0  0
  142.5850   79.4910  222.9800 C   0  0  0  0  0  0  0  0  0  0  0  0
  141.4700   78.5850  223.5190 C   0  0  0  0  0  0  0  0  0  0  0  0
  140.2990   78.7800  222.6230 C   0  0  0  0  0  0  0  0  0  0  0  0
  139.5550   77.5900  222.3050 N   0  0  0  0  0  0  0  0  0  0  0  0
  140.1990   76.5460  221.6070 C   0  0  0  0  0  0  0  0  0  0  0  0
  141.4120   76.7330  221.2960 O   0  0  0  0  0  0  0  0  0  0  0  0
  139.5920   75.2720  221.2090 C   0  0  0  0  0  0  0  0  0  0  0  0
  139.6410   74.2400  222.2030 N   0  0  0  0  0  0  0  0  0  0  0  0
  139.9420   72.8860  221.8840 C   0  0  0  0  0  0  0  0  0  0  0  0
  140.1830   72.4830  220.7160 O   0  0  0  0  0  0  0  0  0  0  0  0
  139.9780   71.8950  222.9740 C   0  0  0  0  0  0  0  0  0  0  0  0
  139.5420   70.6140  222.7940 C   0  0  0  0  0  0  0  0  0  0  0  0
  139.5780   69.6950  223.8220 C   0  0  0  0  0  0  0  0  0  0  0  0
  140.0660   70.0850  225.0460 C   0  0  0  0  0  0  0  0  0  0  0  0
  140.1340   69.2150  226.1230 C   0  0  0  0  0  0  0  0  0  0  0  0
  140.6350   69.6420  227.3570 C   0  0  0  0  0  0  0  0  0  0  0  0
  140.7080   68.5140  228.7090 Cl  0  0  0  0  0  0  0  0  0  0  0  0
  141.0750   70.9560  227.5190 C   0  0  0  0  0  0  0  0  0  0  0  0
  141.0100   71.8330  226.4380 C   0  0  0  0  0  0  0  0  0  0  0  0
  140.5090   71.3780  225.2320 C   0  0  0  0  0  0  0  0  0  0  0  0
  140.4470   72.2300  224.1920 N   0  0  0  0  0  0  0  0  0  0  0  0
  142.5889   80.4557  224.9058 H   0  0  0  0  0  0  0  0  0  0  0  0
  143.4905   81.3357  223.6255 H   0  0  0  0  0  0  0  0  0  0  0  0
  141.6942   81.3429  223.6255 H   0  0  0  0  0  0  0  0  0  0  0  0
  142.3844   79.7554  221.9313 H   0  0  0  0  0  0  0  0  0  0  0  0
  143.5595   78.9821  223.0167 H   0  0  0  0  0  0  0  0  0  0  0  0
  141.7922   77.5334  223.5003 H   0  0  0  0  0  0  0  0  0  0  0  0
  141.2209   78.8366  224.5605 H   0  0  0  0  0  0  0  0  0  0  0  0
  139.6130   79.4876  223.1116 H   0  0  0  0  0  0  0  0  0  0  0  0
  140.7074   79.1438  221.6686 H   0  0  0  0  0  0  0  0  0  0  0  0
  138.5560   77.4860  222.5690 H   0  0  0  0  0  0  0  0  0  0  0  0
  138.5362   75.4592  220.9634 H   0  0  0  0  0  0  0  0  0  0  0  0
  140.1808   74.9046  220.3556 H   0  0  0  0  0  0  0  0  0  0  0  0
  139.4490   74.4670  223.2200 H   0  0  0  0  0  0  0  0  0  0  0  0
  139.1547   70.3089  221.8107 H   0  0  0  0  0  0  0  0  0  0  0  0
  139.2217   68.6663  223.6645 H   0  0  0  0  0  0  0  0  0  0  0  0
  139.7900   68.1768  226.0058 H   0  0  0  0  0  0  0  0  0  0  0  0
  141.4685   71.2957  228.4884 H   0  0  0  0  0  0  0  0  0  0  0  0
  141.3525   72.8731  226.5426 H   0  0  0  0  0  0  0  0  0  0  0  0
  1  2  1  0
  2  3  1  0
  3  4  1  0
  4  5  1  0
  5  6  1  0
  6  7  2  0
  6  8  1  0
  8  9  1  0
  9 10  1  0
 10 11  2  0
 10 12  1  0
 12 13  2  0
 13 14  1  0
 14 15  2  0
 15 16  1  0
 16 17  2  0
 17 18  1  0
 17 19  1  0
 19 20  2  0
 20 21  1  0
 21 22  2  0
 22 12  1  0
 21 15  1  0
  1 23  1  0
  1 24  1  0
  1 25  1  0
  2 26  1  0
  2 27  1  0
  3 28  1  0
  3 29  1  0
  4 30  1  0
  4 31  1  0
  5 32  1  0
  8 33  1  0
  8 34  1  0
  9 35  1  0
 13 36  1  0
 14 37  1  0
 16 38  1  0
 19 39  1  0
 20 40  1  0
M  END
>  <smiles>  (4) 
CCCCNC(=O)CNC(=O)c1ccc2cc(Cl)ccc2n1

>  <score_type>  (4) 
oracle

>  <origin>  (4) 
autodockgpu

>  <m_score__min__energy>  (4) 
-7.6100000000000003

>  <m_primary>  (4) 
energy

>  <rmsd>  (4) 
3.567405822255448

>  <m_score__min__rmsd>  (4) 
3.567405822255448

>  <meeko>  (4) 
{"free_energy": -6.93, "intermolecular_energy": -8.72, "internal_energy": -0.83, "cluster_size": 24, "cluster_id": 1, "rank_in_cluster": 13}

>  <energy>  (4) 
-7.52

>  <cluster_rmsd>  (4) 
0.22

>  <cluster>  (4) 
1

$$$$

     RDKit          3D

 40 41  0  0  0  0  0  0  0  0999 V2000
  140.3710   69.0340  227.8940 C   0  0  0  0  0  0  0  0  0  0  0  0
  140.0730   70.5210  228.0090 C   0  0  0  0  0  0  0  0  0  0  0  0
  141.0490   71.2440  227.0710 C   0  0  0  0  0  0  0  0  0  0  0  0
  141.1900   70.3830  225.8660 C   0  0  0  0  0  0  0  0  0  0  0  0
  140.7040   70.9510  224.6360 N   0  0  0  0  0  0  0  0  0  0  0  0
  139.3500   70.7670  224.2850 C   0  0  0  0  0  0  0  0  0  0  0  0
  138.6400   70.0950  225.0910 O   0  0  0  0  0  0  0  0  0  0  0  0
  138.6950   71.2780  223.0780 C   0  0  0  0  0  0  0  0  0  0  0  0
  139.1590   72.5590  222.6310 N   0  0  0  0  0  0  0  0  0  0  0  0
  140.4370   72.7430  222.0330 C   0  0  0  0  0  0  0  0  0  0  0  0
  141.2610   71.8100  221.8510 O   0  0  0  0  0  0  0  0  0  0  0  0
  140.8230   74.0970  221.5980 C   0  0  0  0  0  0  0  0  0  0  0  0
  141.7840   74.2990  220.6490 C   0  0  0  0  0  0  0  0  0  0  0  0
  142.1390   75.5710  220.2500 C   0  0  0  0  0  0  0  0  0  0  0  0
  141.5090   76.6480  220.8230 C   0  0  0  0  0  0  0  0  0  0  0  0
  141.8140   77.9540  220.4700 C   0  0  0  0  0  0  0  0  0  0  0  0
  141.1550   79.0300  221.0720 C   0  0  0  0  0  0  0  0  0  0  0  0
  141.5640   80.6790  220.6040 Cl  0  0  0  0  0  0  0  0  0  0  0  0
  140.1760   78.8010  222.0400 C   0  0  0  0  0  0  0  0  0  0  0  0
  139.8660   77.4900  222.3970 C   0  0  0  0  0  0  0  0  0  0  0  0
  140.5370   76.4500  221.7820 C   0  0  0  0  0  0  0  0  0  0  0  0
  140.2340   75.1860  222.1310 N   0  0  0  0  0  0  0  0  0  0  0  0
  140.4583   68.5986  228.9004 H   0  0  0  0  0  0  0  0  0  0  0  0
  139.5545   68.5375  227.3492 H   0  0  0  0  0  0  0  0  0  0  0  0
  141.3158   68.8904  227.3492 H   0  0  0  0  0  0  0  0  0  0  0  0
  139.0355   70.7237  227.7049 H   0  0  0  0  0  0  0  0  0  0  0  0
  140.1928   70.8680  229.0460 H   0  0  0  0  0  0  0  0  0  0  0  0
  140.6474   72.2288  226.7899 H   0  0  0  0  0  0  0  0  0  0  0  0
  142.0211   71.4099  227.5583 H   0  0  0  0  0  0  0  0  0  0  0  0
  142.2584   70.1561  225.7352 H   0  0  0  0  0  0  0  0  0  0  0  0
  140.5672   69.4962  226.0550 H   0  0  0  0  0  0  0  0  0  0  0  0
  141.3280   71.4840  224.0000 H   0  0  0  0  0  0  0  0  0  0  0  0
  138.8610   70.5533  222.2673 H   0  0  0  0  0  0  0  0  0  0  0  0
  137.6341   71.4094  223.3371 H   0  0  0  0  0  0  0  0  0  0  0  0
  138.5470   73.4170  222.7400 H   0  0  0  0  0  0  0  0  0  0  0  0
  142.2843   73.4313  220.1943 H   0  0  0  0  0  0  0  0  0  0  0  0
  142.9148   75.7201  219.4846 H   0  0  0  0  0  0  0  0  0  0  0  0
  142.5834   78.1455  219.7075 H   0  0  0  0  0  0  0  0  0  0  0  0
  139.6553   79.6452  222.5155 H   0  0  0  0  0  0  0  0  0  0  0  0
  139.0980   77.2859  223.1576 H   0  0  0  0  0  0  0  0  0  0  0  0
  1  2  1  0
  2  3  1  0
  3  4  1  0
  4  5  1  0
  5  6  1  0
  6  7  2  0
  6  8  1  0
  8  9  1  0
  9 10  1  0
 10 11  2  0
 10 12  1  0
 12 13  2  0
 13 14  1  0
 14 15  2  0
 15 16  1  0
 16 17  2  0
 17 18  1  0
 17 19  1  0
 19 20  2  0
 20 21  1  0
 21 22  2  0
 22 12  1  0
 21 15  1  0
  1 23  1  0
  1 24  1  0
  1 25  1  0
  2 26  1  0
  2 27  1  0
  3 28  1  0
  3 29  1  0
  4 30  1  0
  4 31  1  0
  5 32  1  0
  8 33  1  0
  8 34  1  0
  9 35  1  0
 13 36  1  0
 14 37  1  0
 16 38  1  0
 19 39  1  0
 20 40  1  0
M  END
>  <smiles>  (5) 
CCCCNC(=O)CNC(=O)c1ccc2cc(Cl)ccc2n1

>  <score_type>  (5) 
oracle

>  <origin>  (5) 
autodockgpu

>  <m_score__min__energy>  (5) 
-7.6100000000000003

>  <m_primary>  (5) 
energy

>  <rmsd>  (5) 
8.47252976267651

>  <m_score__min__rmsd>  (5) 
8.47252976267651

>  <meeko>  (5) 
{"free_energy": -6.22, "intermolecular_energy": -8.01, "internal_energy": -1.76, "cluster_size": 7, "cluster_id": 4, "rank_in_cluster": 4}

>  <energy>  (5) 
-7.5

>  <cluster_rmsd>  (5) 
0.35

>  <cluster>  (5) 
1

$$$$

     RDKit          3D

 40 41  0  0  0  0  0  0  0  0999 V2000
  142.1870   79.3420  222.6240 C   0  0  0  0  0  0  0  0  0  0  0  0
  140.9440   78.6540  223.1670 C   0  0  0  0  0  0  0  0  0  0  0  0
  140.7590   77.3650  222.3540 C   0  0  0  0  0  0  0  0  0  0  0  0
  139.3380   76.9610  222.5230 C   0  0  0  0  0  0  0  0  0  0  0  0
  139.0640   75.5610  222.3310 N   0  0  0  0  0  0  0  0  0  0  0  0
  138.6110   75.1190  221.0700 C   0  0  0  0  0  0  0  0  0  0  0  0
  138.4680   76.0030  220.1750 O   0  0  0  0  0  0  0  0  0  0  0  0
  138.2890   73.7360  220.7050 C   0  0  0  0  0  0  0  0  0  0  0  0
  138.5200   72.7670  221.7370 N   0  0  0  0  0  0  0  0  0  0  0  0
  139.7330   72.7130  222.4770 C   0  0  0  0  0  0  0  0  0  0  0  0
  140.6990   73.4980  222.2900 O   0  0  0  0  0  0  0  0  0  0  0  0
  139.8760   71.6870  223.5250 C   0  0  0  0  0  0  0  0  0  0  0  0
  139.4960   70.3920  223.3170 C   0  0  0  0  0  0  0  0  0  0  0  0
  139.6330   69.4390  224.3050 C   0  0  0  0  0  0  0  0  0  0  0  0
  140.1630   69.8090  225.5170 C   0  0  0  0  0  0  0  0  0  0  0  0
  140.3310   68.9050  226.5550 C   0  0  0  0  0  0  0  0  0  0  0  0
  140.8730   69.3120  227.7780 C   0  0  0  0  0  0  0  0  0  0  0  0
  141.0730   68.1410  229.0800 Cl  0  0  0  0  0  0  0  0  0  0  0  0
  141.2540   70.6410  227.9690 C   0  0  0  0  0  0  0  0  0  0  0  0
  141.0880   71.5520  226.9280 C   0  0  0  0  0  0  0  0  0  0  0  0
  140.5490   71.1170  225.7320 C   0  0  0  0  0  0  0  0  0  0  0  0
  140.3900   72.0010  224.7300 N   0  0  0  0  0  0  0  0  0  0  0  0
  142.8106   79.6872  223.4618 H   0  0  0  0  0  0  0  0  0  0  0  0
  142.7596   78.6324  222.0087 H   0  0  0  0  0  0  0  0  0  0  0  0
  141.8897   80.2040  222.0087 H   0  0  0  0  0  0  0  0  0  0  0  0
  141.0789   78.4139  224.2320 H   0  0  0  0  0  0  0  0  0  0  0  0
  140.0622   79.3057  223.0793 H   0  0  0  0  0  0  0  0  0  0  0  0
  140.9778   77.5505  221.2921 H   0  0  0  0  0  0  0  0  0  0  0  0
  141.4416   76.5747  222.6996 H   0  0  0  0  0  0  0  0  0  0  0  0
  139.0285   77.2299  223.5437 H   0  0  0  0  0  0  0  0  0  0  0  0
  138.7788   77.4885  221.7362 H   0  0  0  0  0  0  0  0  0  0  0  0
  139.1820   74.8730  223.1000 H   0  0  0  0  0  0  0  0  0  0  0  0
  137.2247   73.6946  220.4302 H   0  0  0  0  0  0  0  0  0  0  0  0
  138.9643   73.4712  219.8781 H   0  0  0  0  0  0  0  0  0  0  0  0
  137.7750   72.0530  221.9750 H   0  0  0  0  0  0  0  0  0  0  0  0
  139.0728   70.1033  222.3436 H   0  0  0  0  0  0  0  0  0  0  0  0
  139.3227   68.3991  224.1250 H   0  0  0  0  0  0  0  0  0  0  0  0
  140.0343   67.8551  226.4146 H   0  0  0  0  0  0  0  0  0  0  0  0
  141.6802   70.9653  228.9298 H   0  0  0  0  0  0  0  0  0  0  0  0
  141.3822   72.6041  227.0564 H   0  0  0  0  0  0  0  0  0  0  0  0
  1  2  1  0
  2  3  1  0
  3  4  1  0
  4  5  1  0
  5  6  1  0
  6  7  2  0
  6  8  1  0
  8  9  1  0
  9 10  1  0
 10 11  2  0
 10 12  1  0
 12 13  2  0
 13 14  1  0
 14 15  2  0
 15 16  1  0
 16 17  2  0
 17 18  1  0
 17 19  1  0
 19 20  2  0
 20 21  1  0
 21 22  2  0
 22 12  1  0
 21 15  1  0
  1 23  1  0
  1 24  1  0
  1 25  1  0
  2 26  1  0
  2 27  1  0
  3 28  1  0
  3 29  1  0
  4 30  1  0
  4 31  1  0
  5 32  1  0
  8 33  1  0
  8 34  1  0
  9 35  1  0
 13 36  1  0
 14 37  1  0
 16 38  1  0
 19 39  1  0
 20 40  1  0
M  END
>  <smiles>  (6) 
CCCCNC(=O)CNC(=O)c1ccc2cc(Cl)ccc2n1

>  <score_type>  (6) 
oracle

>  <origin>  (6) 
autodockgpu

>  <m_score__min__energy>  (6) 
-7.6100000000000003

>  <m_primary>  (6) 
energy

>  <rmsd>  (6) 
2.9753625554453706

>  <m_score__min__rmsd>  (6) 
2.9753625554453706

>  <meeko>  (6) 
{"free_energy": -6.72, "intermolecular_energy": -8.51, "internal_energy": -1.26, "cluster_size": 24, "cluster_id": 1, "rank_in_cluster": 16}

>  <energy>  (6) 
-7.48

>  <cluster_rmsd>  (6) 
0.35

>  <cluster>  (6) 
1

$$$$

     RDKit          3D

 40 41  0  0  0  0  0  0  0  0999 V2000
  142.1960   79.8830  223.8050 C   0  0  0  0  0  0  0  0  0  0  0  0
  141.4220   79.4030  222.5860 C   0  0  0  0  0  0  0  0  0  0  0  0
  141.0680   77.9310  222.8370 C   0  0  0  0  0  0  0  0  0  0  0  0
  141.3410   77.2100  221.5650 C   0  0  0  0  0  0  0  0  0  0  0  0
  140.6460   75.9600  221.3990 N   0  0  0  0  0  0  0  0  0  0  0  0
  139.2420   75.9720  221.2550 C   0  0  0  0  0  0  0  0  0  0  0  0
  138.6760   77.1040  221.2890 O   0  0  0  0  0  0  0  0  0  0  0  0
  138.3840   74.7970  221.0750 C   0  0  0  0  0  0  0  0  0  0  0  0
  138.5690   73.7560  222.0430 N   0  0  0  0  0  0  0  0  0  0  0  0
  139.7680   72.9940  222.1260 C   0  0  0  0  0  0  0  0  0  0  0  0
  140.7540   73.1620  221.3630 O   0  0  0  0  0  0  0  0  0  0  0  0
  139.8700   71.9490  223.1600 C   0  0  0  0  0  0  0  0  0  0  0  0
  139.4810   70.6620  222.9210 C   0  0  0  0  0  0  0  0  0  0  0  0
  139.5790   69.6920  223.8970 C   0  0  0  0  0  0  0  0  0  0  0  0
  140.0800   70.0360  225.1290 C   0  0  0  0  0  0  0  0  0  0  0  0
  140.2080   69.1140  226.1560 C   0  0  0  0  0  0  0  0  0  0  0  0
  140.7210   69.4950  227.4000 C   0  0  0  0  0  0  0  0  0  0  0  0
  140.8720   68.3010  228.6870 Cl  0  0  0  0  0  0  0  0  0  0  0  0
  141.1120   70.8160  227.6230 C   0  0  0  0  0  0  0  0  0  0  0  0
  140.9850   71.7460  226.5930 C   0  0  0  0  0  0  0  0  0  0  0  0
  140.4740   71.3360  225.3760 C   0  0  0  0  0  0  0  0  0  0  0  0
  140.3540   72.2370  224.3840 N   0  0  0  0  0  0  0  0  0  0  0  0
  141.6764   79.5608  224.7195 H   0  0  0  0  0  0  0  0  0  0  0  0
  143.2089   79.4543  223.7884 H   0  0  0  0  0  0  0  0  0  0  0  0
  142.2622   80.9809  223.7884 H   0  0  0  0  0  0  0  0  0  0  0  0
  140.5047   79.9972  222.4617 H   0  0  0  0  0  0  0  0  0  0  0  0
  142.0202   79.5144  221.6696 H   0  0  0  0  0  0  0  0  0  0  0  0
  141.6907   77.5228  223.6467 H   0  0  0  0  0  0  0  0  0  0  0  0
  140.0164   77.8201  223.1402 H   0  0  0  0  0  0  0  0  0  0  0  0
  141.0543   77.8701  220.7331 H   0  0  0  0  0  0  0  0  0  0  0  0
  142.4120   76.9596  221.5839 H   0  0  0  0  0  0  0  0  0  0  0  0
  141.1520   75.0540  221.3910 H   0  0  0  0  0  0  0  0  0  0  0  0
  137.3365   75.1286  221.1269 H   0  0  0  0  0  0  0  0  0  0  0  0
  138.6580   74.3633  220.1020 H   0  0  0  0  0  0  0  0  0  0  0  0
  137.7990   73.5250  222.7340 H   0  0  0  0  0  0  0  0  0  0  0  0
  139.0820   70.3937  221.9316 H   0  0  0  0  0  0  0  0  0  0  0  0
  139.2609   68.6592  223.6919 H   0  0  0  0  0  0  0  0  0  0  0  0
  139.9025   68.0703  225.9906 H   0  0  0  0  0  0  0  0  0  0  0  0
  141.5156   71.1195  228.6002 H   0  0  0  0  0  0  0  0  0  0  0  0
  141.2874   72.7924  226.7465 H   0  0  0  0  0  0  0  0  0  0  0  0
  1  2  1  0
  2  3  1  0
  3  4  1  0
  4  5  1  0
  5  6  1  0
  6  7  2  0
  6  8  1  0
  8  9  1  0
  9 10  1  0
 10 11  2  0
 10 12  1  0
 12 13  2  0
 13 14  1  0
 14 15  2  0
 15 16  1  0
 16 17  2  0
 17 18  1  0
 17 19  1  0
 19 20  2  0
 20 21  1  0
 21 22  2  0
 22 12  1  0
 21 15  1  0
  1 23  1  0
  1 24  1  0
  1 25  1  0
  2 26  1  0
  2 27  1  0
  3 28  1  0
  3 29  1  0
  4 30  1  0
  4 31  1  0
  5 32  1  0
  8 33  1  0
  8 34  1  0
  9 35  1  0
 13 36  1  0
 14 37  1  0
 16 38  1  0
 19 39  1  0
 20 40  1  0
M  END
>  <smiles>  (7) 
CCCCNC(=O)CNC(=O)c1ccc2cc(Cl)ccc2n1

>  <score_type>  (7) 
oracle

>  <origin>  (7) 
autodockgpu

>  <m_score__min__energy>  (7) 
-7.6100000000000003

>  <m_primary>  (7) 
energy

>  <rmsd>  (7) 
3.092372195272219

>  <m_score__min__rmsd>  (7) 
3.092372195272219

>  <meeko>  (7) 
{"free_energy": -6.37, "intermolecular_energy": -8.16, "internal_energy": -1.42, "cluster_size": 24, "cluster_id": 1, "rank_in_cluster": 23}

>  <energy>  (7) 
-7.4

>  <cluster_rmsd>  (7) 
0.53

>  <cluster>  (7) 
1

$$$$

     RDKit          3D

 40 41  0  0  0  0  0  0  0  0999 V2000
  146.3010   73.3880  221.6710 C   0  0  0  0  0  0  0  0  0  0  0  0
  145.5030   73.4600  220.3770 C   0  0  0  0  0  0  0  0  0  0  0  0
  144.6310   74.7200  220.4630 C   0  0  0  0  0  0  0  0  0  0  0  0
  143.3800   74.4180  219.7160 C   0  0  0  0  0  0  0  0  0  0  0  0
  142.2060   74.2230  220.5250 N   0  0  0  0  0  0  0  0  0  0  0  0
  141.1010   75.0820  220.3460 C   0  0  0  0  0  0  0  0  0  0  0  0
  141.2220   75.9900  219.4710 O   0  0  0  0  0  0  0  0  0  0  0  0
  139.8340   75.0210  221.0800 C   0  0  0  0  0  0  0  0  0  0  0  0
  139.7680   74.0100  222.0940 N   0  0  0  0  0  0  0  0  0  0  0  0
  140.1010   72.6500  221.8400 C   0  0  0  0  0  0  0  0  0  0  0  0
  140.4730   72.2220  220.7170 O   0  0  0  0  0  0  0  0  0  0  0  0
  140.0100   71.6830  222.9480 C   0  0  0  0  0  0  0  0  0  0  0  0
  139.3770   70.4820  222.8030 C   0  0  0  0  0  0  0  0  0  0  0  0
  139.2960   69.5840  223.8470 C   0  0  0  0  0  0  0  0  0  0  0  0
  139.8690   69.9130  225.0520 C   0  0  0  0  0  0  0  0  0  0  0  0
  139.8280   69.0600  226.1440 C   0  0  0  0  0  0  0  0  0  0  0  0
  140.4190   69.4230  227.3580 C   0  0  0  0  0  0  0  0  0  0  0  0
  140.3510   68.3180  228.7290 Cl  0  0  0  0  0  0  0  0  0  0  0  0
  141.0610   70.6550  227.4850 C   0  0  0  0  0  0  0  0  0  0  0  0
  141.1050   71.5150  226.3890 C   0  0  0  0  0  0  0  0  0  0  0  0
  140.5100   71.1250  225.2040 C   0  0  0  0  0  0  0  0  0  0  0  0
  140.5550   71.9590  224.1490 N   0  0  0  0  0  0  0  0  0  0  0  0
  145.6151   73.4499  222.5287 H   0  0  0  0  0  0  0  0  0  0  0  0
  146.8516   72.4365  221.7098 H   0  0  0  0  0  0  0  0  0  0  0  0
  147.0130   74.2255  221.7098 H   0  0  0  0  0  0  0  0  0  0  0  0
  146.1837   73.5287  219.5157 H   0  0  0  0  0  0  0  0  0  0  0  0
  144.8843   72.5602  220.2444 H   0  0  0  0  0  0  0  0  0  0  0  0
  144.4002   74.9518  221.5132 H   0  0  0  0  0  0  0  0  0  0  0  0
  145.1484   75.5924  220.0374 H   0  0  0  0  0  0  0  0  0  0  0  0
  143.1839   75.2560  219.0309 H   0  0  0  0  0  0  0  0  0  0  0  0
  143.5573   73.4597  219.2059 H   0  0  0  0  0  0  0  0  0  0  0  0
  142.1580   73.4720  221.2410 H   0  0  0  0  0  0  0  0  0  0  0  0
  139.6710   75.9970  221.5605 H   0  0  0  0  0  0  0  0  0  0  0  0
  139.0624   74.7636  220.3394 H   0  0  0  0  0  0  0  0  0  0  0  0
  139.4610   74.2580  223.0770 H   0  0  0  0  0  0  0  0  0  0  0  0
  138.9227   70.2254  221.8346 H   0  0  0  0  0  0  0  0  0  0  0  0
  138.7813   68.6206  223.7171 H   0  0  0  0  0  0  0  0  0  0  0  0
  139.3246   68.0861  226.0543 H   0  0  0  0  0  0  0  0  0  0  0  0
  141.5269   70.9442  228.4386 H   0  0  0  0  0  0  0  0  0  0  0  0
  141.6065   72.4910  226.4661 H   0  0  0  0  0  0  0  0  0  0  0  0
  1  2  1  0
  2  3  1  0
  3  4  1  0
  4  5  1  0
  5  6  1  0
  6  7  2  0
  6  8  1  0
  8  9  1  0
  9 10  1  0
 10 11  2  0
 10 12  1  0
 12 13  2  0
 13 14  1  0
 14 15  2  0
 15 16  1  0
 16 17  2  0
 17 18  1  0
 17 19  1  0
 19 20  2  0
 20 21  1  0
 21 22  2  0
 22 12  1  0
 21 15  1  0
  1 23  1  0
  1 24  1  0
  1 25  1  0
  2 26  1  0
  2 27  1  0
  3 28  1  0
  3 29  1  0
  4 30  1  0
  4 31  1  0
  5 32  1  0
  8 33  1  0
  8 34  1  0
  9 35  1  0
 13 36  1  0
 14 37  1  0
 16 38  1  0
 19 39  1  0
 20 40  1  0
M  END
>  <smiles>  (8) 
CCCCNC(=O)CNC(=O)c1ccc2cc(Cl)ccc2n1

>  <score_type>  (8) 
oracle

>  <origin>  (8) 
autodockgpu

>  <m_score__min__energy>  (8) 
-7.6100000000000003

>  <m_primary>  (8) 
energy

>  <rmsd>  (8) 
3.414708866972182

>  <m_score__min__rmsd>  (8) 
3.414708866972182

>  <meeko>  (8) 
{"free_energy": -6.38, "intermolecular_energy": -8.17, "internal_energy": -1.45, "cluster_size": 9, "cluster_id": 2, "rank_in_cluster": 8}

>  <energy>  (8) 
-7.38

>  <cluster_rmsd>  (8) 
0.46

>  <cluster>  (8) 
1

$$$$

     RDKit          3D

 40 41  0  0  0  0  0  0  0  0999 V2000
  140.4310   68.6770  227.5490 C   0  0  0  0  0  0  0  0  0  0  0  0
  139.9780   70.0560  228.0040 C   0  0  0  0  0  0  0  0  0  0  0  0
  140.7630   71.0790  227.1720 C   0  0  0  0  0  0  0  0  0  0  0  0
  141.1540   70.3880  225.9140 C   0  0  0  0  0  0  0  0  0  0  0  0
  140.6530   70.9760  224.7010 N   0  0  0  0  0  0  0  0  0  0  0  0
  139.3160   70.7300  224.3220 C   0  0  0  0  0  0  0  0  0  0  0  0
  138.6350   69.9870  225.0890 O   0  0  0  0  0  0  0  0  0  0  0  0
  138.6490   71.2500  223.1250 C   0  0  0  0  0  0  0  0  0  0  0  0
  139.1520   72.5050  222.6470 N   0  0  0  0  0  0  0  0  0  0  0  0
  140.4420   72.6380  222.0600 C   0  0  0  0  0  0  0  0  0  0  0  0
  141.2430   71.6790  221.9160 O   0  0  0  0  0  0  0  0  0  0  0  0
  140.8690   73.9680  221.5900 C   0  0  0  0  0  0  0  0  0  0  0  0
  141.8250   74.1150  220.6260 C   0  0  0  0  0  0  0  0  0  0  0  0
  142.2190   75.3640  220.1950 C   0  0  0  0  0  0  0  0  0  0  0  0
  141.6320   76.4760  220.7500 C   0  0  0  0  0  0  0  0  0  0  0  0
  141.9780   77.7620  220.3650 C   0  0  0  0  0  0  0  0  0  0  0  0
  141.3630   78.8730  220.9490 C   0  0  0  0  0  0  0  0  0  0  0  0
  141.8240   80.4960  220.4400 Cl  0  0  0  0  0  0  0  0  0  0  0  0
  140.3900   78.7000  221.9340 C   0  0  0  0  0  0  0  0  0  0  0  0
  140.0390   77.4090  222.3230 C   0  0  0  0  0  0  0  0  0  0  0  0
  140.6660   76.3320  221.7250 C   0  0  0  0  0  0  0  0  0  0  0  0
  140.3240   75.0870  222.1050 N   0  0  0  0  0  0  0  0  0  0  0  0
  140.6370   68.0499  228.4289 H   0  0  0  0  0  0  0  0  0  0  0  0
  139.6385   68.2117  226.9445 H   0  0  0  0  0  0  0  0  0  0  0  0
  141.3451   68.7723  226.9445 H   0  0  0  0  0  0  0  0  0  0  0  0
  138.8984   70.1759  227.8308 H   0  0  0  0  0  0  0  0  0  0  0  0
  140.1633   70.1969  229.0791 H   0  0  0  0  0  0  0  0  0  0  0  0
  140.1311   71.9507  226.9464 H   0  0  0  0  0  0  0  0  0  0  0  0
  141.6462   71.4424  227.7177 H   0  0  0  0  0  0  0  0  0  0  0  0
  142.2526   70.3818  225.8586 H   0  0  0  0  0  0  0  0  0  0  0  0
  140.7061   69.3849  225.9697 H   0  0  0  0  0  0  0  0  0  0  0  0
  141.2530   71.5690  224.0950 H   0  0  0  0  0  0  0  0  0  0  0  0
  138.7638   70.5080  222.3211 H   0  0  0  0  0  0  0  0  0  0  0  0
  137.6014   71.4274  223.4098 H   0  0  0  0  0  0  0  0  0  0  0  0
  138.5620   73.3820  222.7230 H   0  0  0  0  0  0  0  0  0  0  0  0
  142.2893   73.2205  220.1852 H   0  0  0  0  0  0  0  0  0  0  0  0
  142.9913   75.4689  219.4188 H   0  0  0  0  0  0  0  0  0  0  0  0
  142.7454   77.9098  219.5909 H   0  0  0  0  0  0  0  0  0  0  0  0
  139.9060   79.5722  222.3977 H   0  0  0  0  0  0  0  0  0  0  0  0
  139.2729   77.2489  223.0959 H   0  0  0  0  0  0  0  0  0  0  0  0
  1  2  1  0
  2  3  1  0
  3  4  1  0
  4  5  1  0
  5  6  1  0
  6  7  2  0
  6  8  1  0
  8  9  1  0
  9 10  1  0
 10 11  2  0
 10 12  1  0
 12 13  2  0
 13 14  1  0
 14 15  2  0
 15 16  1  0
 16 17  2  0
 17 18  1  0
 17 19  1  0
 19 20  2  0
 20 21  1  0
 21 22  2  0
 22 12  1  0
 21 15  1  0
  1 23  1  0
  1 24  1  0
  1 25  1  0
  2 26  1  0
  2 27  1  0
  3 28  1  0
  3 29  1  0
  4 30  1  0
  4 31  1  0
  5 32  1  0
  8 33  1  0
  8 34  1  0
  9 35  1  0
 13 36  1  0
 14 37  1  0
 16 38  1  0
 19 39  1  0
 20 40  1  0
M  END
>  <smiles>  (9) 
CCCCNC(=O)CNC(=O)c1ccc2cc(Cl)ccc2n1

>  <score_type>  (9) 
oracle

>  <origin>  (9) 
autodockgpu

>  <m_score__min__energy>  (9) 
-7.6100000000000003

>  <m_primary>  (9) 
energy

>  <rmsd>  (9) 
8.505310651521095

>  <m_score__min__rmsd>  (9) 
8.505310651521095

>  <meeko>  (9) 
{"free_energy": -6.24, "intermolecular_energy": -8.03, "internal_energy": -1.74, "cluster_size": 7, "cluster_id": 4, "rank_in_cluster": 1}

>  <energy>  (9) 
-7.34

>  <cluster_rmsd>  (9) 
0.47

>  <cluster>  (9) 
1

$$$$

     RDKit          3D

 40 41  0  0  0  0  0  0  0  0999 V2000
  140.4530   71.8300  227.6290 C   0  0  0  0  0  0  0  0  0  0  0  0
  141.1000   70.4910  227.9510 C   0  0  0  0  0  0  0  0  0  0  0  0
  140.1690   69.4030  227.3990 C   0  0  0  0  0  0  0  0  0  0  0  0
  140.5850   69.1670  225.9900 C   0  0  0  0  0  0  0  0  0  0  0  0
  139.9440   69.9990  225.0060 N   0  0  0  0  0  0  0  0  0  0  0  0
  138.5900   69.7650  224.6880 C   0  0  0  0  0  0  0  0  0  0  0  0
  138.0190   68.8140  225.3000 O   0  0  0  0  0  0  0  0  0  0  0  0
  137.7890   70.5160  223.7170 C   0  0  0  0  0  0  0  0  0  0  0  0
  138.4000   71.7170  223.2260 N   0  0  0  0  0  0  0  0  0  0  0  0
  139.6560   71.7170  222.5580 C   0  0  0  0  0  0  0  0  0  0  0  0
  140.3330   70.6770  222.3460 O   0  0  0  0  0  0  0  0  0  0  0  0
  140.2010   73.0000  222.0810 C   0  0  0  0  0  0  0  0  0  0  0  0
  141.3390   73.0610  221.3290 C   0  0  0  0  0  0  0  0  0  0  0  0
  141.8420   74.2680  220.8890 C   0  0  0  0  0  0  0  0  0  0  0  0
  141.1770   75.4250  221.2170 C   0  0  0  0  0  0  0  0  0  0  0  0
  141.6240   76.6720  220.8090 C   0  0  0  0  0  0  0  0  0  0  0  0
  140.9250   77.8320  221.1600 C   0  0  0  0  0  0  0  0  0  0  0  0
  141.5170   79.4040  220.6270 Cl  0  0  0  0  0  0  0  0  0  0  0  0
  139.7640   77.7460  221.9290 C   0  0  0  0  0  0  0  0  0  0  0  0
  139.3120   76.4940  222.3400 C   0  0  0  0  0  0  0  0  0  0  0  0
  140.0260   75.3680  221.9770 C   0  0  0  0  0  0  0  0  0  0  0  0
  139.5850   74.1610  222.3770 N   0  0  0  0  0  0  0  0  0  0  0  0
  140.2016   72.3503  228.5650 H   0  0  0  0  0  0  0  0  0  0  0  0
  141.1535   72.4446  227.0446 H   0  0  0  0  0  0  0  0  0  0  0  0
  139.5361   71.6631  227.0446 H   0  0  0  0  0  0  0  0  0  0  0  0
  142.0877   70.4229  227.4716 H   0  0  0  0  0  0  0  0  0  0  0  0
  141.2442   70.3735  229.0352 H   0  0  0  0  0  0  0  0  0  0  0  0
  140.2742   68.4789  227.9863 H   0  0  0  0  0  0  0  0  0  0  0  0
  139.1154   69.7140  227.4563 H   0  0  0  0  0  0  0  0  0  0  0  0
  141.6695   69.3384  225.9238 H   0  0  0  0  0  0  0  0  0  0  0  0
  140.2834   68.1355  225.7553 H   0  0  0  0  0  0  0  0  0  0  0  0
  140.4580   70.7600  224.5200 H   0  0  0  0  0  0  0  0  0  0  0  0
  137.5901   69.8586  222.8578 H   0  0  0  0  0  0  0  0  0  0  0  0
  136.8779   70.8297  224.2476 H   0  0  0  0  0  0  0  0  0  0  0  0
  137.9190   72.6520  223.3550 H   0  0  0  0  0  0  0  0  0  0  0  0
  141.8646   72.1303  221.0691 H   0  0  0  0  0  0  0  0  0  0  0  0
  142.7608   74.3036  220.2852 H   0  0  0  0  0  0  0  0  0  0  0  0
  142.5384   76.7504  220.2026 H   0  0  0  0  0  0  0  0  0  0  0  0
  139.2122   78.6559  222.2074 H   0  0  0  0  0  0  0  0  0  0  0  0
  138.3983   76.4029  222.9458 H   0  0  0  0  0  0  0  0  0  0  0  0
  1  2  1  0
  2  3  1  0
  3  4  1  0
  4  5  1  0
  5  6  1  0
  6  7  2  0
  6  8  1  0
  8  9  1  0
  9 10  1  0
 10 11  2  0
 10 12  1  0
 12 13  2  0
 13 14  1  0
 14 15  2  0
 15 16  1  0
 16 17  2  0
 17 18  1  0
 17 19  1  0
 19 20  2  0
 20 21  1  0
 21 22  2  0
 22 12  1  0
 21 15  1  0
  1 23  1  0
  1 24  1  0
  1 25  1  0
  2 26  1  0
  2 27  1  0
  3 28  1  0
  3 29  1  0
  4 30  1  0
  4 31  1  0
  5 32  1  0
  8 33  1  0
  8 34  1  0
  9 35  1  0
 13 36  1  0
 14 37  1  0
 16 38  1  0
 19 39  1  0
 20 40  1  0
M  END
>  <smiles>  (10) 
CCCCNC(=O)CNC(=O)c1ccc2cc(Cl)ccc2n1

>  <score_type>  (10) 
oracle

>  <origin>  (10) 
autodockgpu

>  <m_score__min__energy>  (10) 
-7.6100000000000003

>  <m_primary>  (10) 
energy

>  <rmsd>  (10) 
8.208130172435398

>  <m_score__min__rmsd>  (10) 
8.208130172435398

>  <meeko>  (10) 
{"free_energy": -5.9, "intermolecular_energy": -7.69, "internal_energy": -1.8, "cluster_size": 10, "cluster_id": 3, "rank_in_cluster": 10}

>  <energy>  (10) 
-7.32

>  <cluster_rmsd>  (10) 
0.43

>  <cluster>  (10) 
1

$$$$

     RDKit          3D

 40 41  0  0  0  0  0  0  0  0999 V2000
  141.0530   72.1710  227.6090 C   0  0  0  0  0  0  0  0  0  0  0  0
  141.0990   71.1780  226.4580 C   0  0  0  0  0  0  0  0  0  0  0  0
  140.6580   69.8210  227.0240 C   0  0  0  0  0  0  0  0  0  0  0  0
  140.4230   68.9330  225.8550 C   0  0  0  0  0  0  0  0  0  0  0  0
  139.9100   69.5810  224.6760 N   0  0  0  0  0  0  0  0  0  0  0  0
  138.5450   69.9350  224.6280 C   0  0  0  0  0  0  0  0  0  0  0  0
  137.8470   69.6470  225.6450 O   0  0  0  0  0  0  0  0  0  0  0  0
  137.8650   70.5980  223.5120 C   0  0  0  0  0  0  0  0  0  0  0  0
  138.4570   71.8340  223.0890 N   0  0  0  0  0  0  0  0  0  0  0  0
  139.6740   71.8850  222.3520 C   0  0  0  0  0  0  0  0  0  0  0  0
  140.3290   70.8640  222.0180 O   0  0  0  0  0  0  0  0  0  0  0  0
  140.2020   73.2010  221.9530 C   0  0  0  0  0  0  0  0  0  0  0  0
  141.3300   73.3220  221.1930 C   0  0  0  0  0  0  0  0  0  0  0  0
  141.8160   74.5600  220.8270 C   0  0  0  0  0  0  0  0  0  0  0  0
  141.1460   75.6860  221.2380 C   0  0  0  0  0  0  0  0  0  0  0  0
  141.5770   76.9620  220.9060 C   0  0  0  0  0  0  0  0  0  0  0  0
  140.8730   78.0900  221.3400 C   0  0  0  0  0  0  0  0  0  0  0  0
  141.4450   79.6980  220.9040 Cl  0  0  0  0  0  0  0  0  0  0  0  0
  139.7230   77.9430  222.1170 C   0  0  0  0  0  0  0  0  0  0  0  0
  139.2870   76.6630  222.4510 C   0  0  0  0  0  0  0  0  0  0  0  0
  140.0060   75.5700  222.0060 C   0  0  0  0  0  0  0  0  0  0  0  0
  139.5800   74.3360  222.3320 N   0  0  0  0  0  0  0  0  0  0  0  0
  141.0782   71.6264  228.5644 H   0  0  0  0  0  0  0  0  0  0  0  0
  141.9209   72.8440  227.5476 H   0  0  0  0  0  0  0  0  0  0  0  0
  140.1266   72.7609  227.5476 H   0  0  0  0  0  0  0  0  0  0  0  0
  140.4145   71.4947  225.6573 H   0  0  0  0  0  0  0  0  0  0  0  0
  142.1105   71.1169  226.0301 H   0  0  0  0  0  0  0  0  0  0  0  0
  141.4467   69.4027  227.6666 H   0  0  0  0  0  0  0  0  0  0  0  0
  139.7499   69.9213  227.6366 H   0  0  0  0  0  0  0  0  0  0  0  0
  141.3802   68.4593  225.5917 H   0  0  0  0  0  0  0  0  0  0  0  0
  139.6464   68.2202  226.1692 H   0  0  0  0  0  0  0  0  0  0  0  0
  140.5190   69.7840  223.8600 H   0  0  0  0  0  0  0  0  0  0  0  0
  137.8649   69.9088  222.6547 H   0  0  0  0  0  0  0  0  0  0  0  0
  136.8561   70.8480  223.8719 H   0  0  0  0  0  0  0  0  0  0  0  0
  137.9920   72.7560  223.3210 H   0  0  0  0  0  0  0  0  0  0  0  0
  141.8609   72.4156  220.8666 H   0  0  0  0  0  0  0  0  0  0  0  0
  142.7263   74.6440  220.2152 H   0  0  0  0  0  0  0  0  0  0  0  0
  142.4826   77.0882  220.2945 H   0  0  0  0  0  0  0  0  0  0  0  0
  139.1675   78.8277  222.4616 H   0  0  0  0  0  0  0  0  0  0  0  0
  138.3822   76.5240  223.0610 H   0  0  0  0  0  0  0  0  0  0  0  0
  1  2  1  0
  2  3  1  0
  3  4  1  0
  4  5  1  0
  5  6  1  0
  6  7  2  0
  6  8  1  0
  8  9  1  0
  9 10  1  0
 10 11  2  0
 10 12  1  0
 12 13  2  0
 13 14  1  0
 14 15  2  0
 15 16  1  0
 16 17  2  0
 17 18  1  0
 17 19  1  0
 19 20  2  0
 20 21  1  0
 21 22  2  0
 22 12  1  0
 21 15  1  0
  1 23  1  0
  1 24  1  0
  1 25  1  0
  2 26  1  0
  2 27  1  0
  3 28  1  0
  3 29  1  0
  4 30  1  0
  4 31  1  0
  5 32  1  0
  8 33  1  0
  8 34  1  0
  9 35  1  0
 13 36  1  0
 14 37  1  0
 16 38  1  0
 19 39  1  0
 20 40  1  0
M  END
>  <smiles>  (11) 
CCCCNC(=O)CNC(=O)c1ccc2cc(Cl)ccc2n1

>  <score_type>  (11) 
oracle

>  <origin>  (11) 
autodockgpu

>  <m_score__min__energy>  (11) 
-7.6100000000000003

>  <m_primary>  (11) 
energy

>  <rmsd>  (11) 
7.935842463713563

>  <m_score__min__rmsd>  (11) 
7.935842463713563

>  <meeko>  (11) 
{"free_energy": -5.96, "intermolecular_energy": -7.75, "internal_energy": -1.96, "cluster_size": 10, "cluster_id": 3, "rank_in_cluster": 8}

>  <energy>  (11) 
-7.28

>  <cluster_rmsd>  (11) 
0.37

>  <cluster>  (11) 
1

$$$$

     RDKit          3D

 40 41  0  0  0  0  0  0  0  0999 V2000
  142.2150   79.2180  222.7090 C   0  0  0  0  0  0  0  0  0  0  0  0
  140.8200   78.7050  223.0350 C   0  0  0  0  0  0  0  0  0  0  0  0
  140.6840   77.3330  222.3610 C   0  0  0  0  0  0  0  0  0  0  0  0
  139.2560   76.9370  222.4980 C   0  0  0  0  0  0  0  0  0  0  0  0
  138.9810   75.5360  222.3150 N   0  0  0  0  0  0  0  0  0  0  0  0
  138.4670   75.0960  221.0760 C   0  0  0  0  0  0  0  0  0  0  0  0
  138.2740   75.9820  220.1930 O   0  0  0  0  0  0  0  0  0  0  0  0
  138.1350   73.7120  220.7240 C   0  0  0  0  0  0  0  0  0  0  0  0
  138.3940   72.7450  221.7500 N   0  0  0  0  0  0  0  0  0  0  0  0
  139.6370   72.6770  222.4400 C   0  0  0  0  0  0  0  0  0  0  0  0
  140.6050   73.4470  222.2080 O   0  0  0  0  0  0  0  0  0  0  0  0
  139.8080   71.6530  223.4860 C   0  0  0  0  0  0  0  0  0  0  0  0
  139.4900   70.3430  223.2670 C   0  0  0  0  0  0  0  0  0  0  0  0
  139.6530   69.3940  224.2550 C   0  0  0  0  0  0  0  0  0  0  0  0
  140.1460   69.7820  225.4770 C   0  0  0  0  0  0  0  0  0  0  0  0
  140.3360   68.8830  226.5140 C   0  0  0  0  0  0  0  0  0  0  0  0
  140.8390   69.3090  227.7470 C   0  0  0  0  0  0  0  0  0  0  0  0
  141.0700   68.1430  229.0480 Cl  0  0  0  0  0  0  0  0  0  0  0  0
  141.1570   70.6520  227.9490 C   0  0  0  0  0  0  0  0  0  0  0  0
  140.9680   71.5600  226.9090 C   0  0  0  0  0  0  0  0  0  0  0  0
  140.4680   71.1050  225.7020 C   0  0  0  0  0  0  0  0  0  0  0  0
  140.2870   71.9850  224.7010 N   0  0  0  0  0  0  0  0  0  0  0  0
  142.7597   79.4183  223.6435 H   0  0  0  0  0  0  0  0  0  0  0  0
  142.7569   78.4603  222.1239 H   0  0  0  0  0  0  0  0  0  0  0  0
  142.1369   80.1462  222.1239 H   0  0  0  0  0  0  0  0  0  0  0  0
  140.6977   78.6060  224.1237 H   0  0  0  0  0  0  0  0  0  0  0  0
  140.0488   79.4009  222.6732 H   0  0  0  0  0  0  0  0  0  0  0  0
  140.9593   77.4023  221.2982 H   0  0  0  0  0  0  0  0  0  0  0  0
  141.3498   76.5919  222.8274 H   0  0  0  0  0  0  0  0  0  0  0  0
  138.9215   77.2190  223.5072 H   0  0  0  0  0  0  0  0  0  0  0  0
  138.7195   77.4579  221.6913 H   0  0  0  0  0  0  0  0  0  0  0  0
  139.1420   74.8460  223.0740 H   0  0  0  0  0  0  0  0  0  0  0  0
  137.0634   73.6703  220.4790 H   0  0  0  0  0  0  0  0  0  0  0  0
  138.7879   73.4454  219.8798 H   0  0  0  0  0  0  0  0  0  0  0  0
  137.6490   72.0430  222.0230 H   0  0  0  0  0  0  0  0  0  0  0  0
  139.0970   70.0392  222.2856 H   0  0  0  0  0  0  0  0  0  0  0  0
  139.3920   68.3421  224.0670 H   0  0  0  0  0  0  0  0  0  0  0  0
  140.0882   67.8216  226.3655 H   0  0  0  0  0  0  0  0  0  0  0  0
  141.5524   70.9904  228.9181 H   0  0  0  0  0  0  0  0  0  0  0  0
  141.2129   72.6236  227.0458 H   0  0  0  0  0  0  0  0  0  0  0  0
  1  2  1  0
  2  3  1  0
  3  4  1  0
  4  5  1  0
  5  6  1  0
  6  7  2  0
  6  8  1  0
  8  9  1  0
  9 10  1  0
 10 11  2  0
 10 12  1  0
 12 13  2  0
 13 14  1  0
 14 15  2  0
 15 16  1  0
 16 17  2  0
 17 18  1  0
 17 19  1  0
 19 20  2  0
 20 21  1  0
 21 22  2  0
 22 12  1  0
 21 15  1  0
  1 23  1  0
  1 24  1  0
  1 25  1  0
  2 26  1  0
  2 27  1  0
  3 28  1  0
  3 29  1  0
  4 30  1  0
  4 31  1  0
  5 32  1  0
  8 33  1  0
  8 34  1  0
  9 35  1  0
 13 36  1  0
 14 37  1  0
 16 38  1  0
 19 39  1  0
 20 40  1  0
M  END
>  <smiles>  (12) 
CCCCNC(=O)CNC(=O)c1ccc2cc(Cl)ccc2n1

>  <score_type>  (12) 
oracle

>  <origin>  (12) 
autodockgpu

>  <m_score__min__energy>  (12) 
-7.6100000000000003

>  <m_primary>  (12) 
energy

>  <rmsd>  (12) 
2.928517892995778

>  <m_score__min__rmsd>  (12) 
2.928517892995778

>  <meeko>  (12) 
{"free_energy": -6.72, "intermolecular_energy": -8.51, "internal_energy": -1.28, "cluster_size": 24, "cluster_id": 1, "rank_in_cluster": 17}

>  <energy>  (12) 
-7.28

>  <cluster_rmsd>  (12) 
0.56

>  <cluster>  (12) 
1

$$$$

     RDKit          3D

 40 41  0  0  0  0  0  0  0  0999 V2000
  141.1680   72.0830  227.3050 C   0  0  0  0  0  0  0  0  0  0  0  0
  140.3260   71.0620  228.0550 C   0  0  0  0  0  0  0  0  0  0  0  0
  141.0720   69.7240  227.9700 C   0  0  0  0  0  0  0  0  0  0  0  0
  140.2230   68.8190  227.1490 C   0  0  0  0  0  0  0  0  0  0  0  0
  139.5370   69.4420  226.0480 N   0  0  0  0  0  0  0  0  0  0  0  0
  139.0980   68.6390  224.9740 C   0  0  0  0  0  0  0  0  0  0  0  0
  139.3480   67.4000  225.0500 O   0  0  0  0  0  0  0  0  0  0  0  0
  138.3860   69.1090  223.7820 C   0  0  0  0  0  0  0  0  0  0  0  0
  139.1230   70.0170  222.9530 N   0  0  0  0  0  0  0  0  0  0  0  0
  139.6760   71.2300  223.4510 C   0  0  0  0  0  0  0  0  0  0  0  0
  139.5630   71.6070  224.6470 O   0  0  0  0  0  0  0  0  0  0  0  0
  140.4250   72.0970  222.5250 C   0  0  0  0  0  0  0  0  0  0  0  0
  141.4210   71.6070  221.7300 C   0  0  0  0  0  0  0  0  0  0  0  0
  142.1170   72.4290  220.8680 C   0  0  0  0  0  0  0  0  0  0  0  0
  141.7950   73.7630  220.8140 C   0  0  0  0  0  0  0  0  0  0  0  0
  142.4510   74.6460  219.9710 C   0  0  0  0  0  0  0  0  0  0  0  0
  142.1000   76.0000  219.9390 C   0  0  0  0  0  0  0  0  0  0  0  0
  142.9520   77.0990  218.8580 Cl  0  0  0  0  0  0  0  0  0  0  0  0
  141.0790   76.4790  220.7610 C   0  0  0  0  0  0  0  0  0  0  0  0
  140.4170   75.5940  221.6090 C   0  0  0  0  0  0  0  0  0  0  0  0
  140.7890   74.2630  221.6160 C   0  0  0  0  0  0  0  0  0  0  0  0
  140.1460   73.4130  222.4370 N   0  0  0  0  0  0  0  0  0  0  0  0
  141.6963   72.7236  228.0265 H   0  0  0  0  0  0  0  0  0  0  0  0
  141.9012   71.5604  226.6731 H   0  0  0  0  0  0  0  0  0  0  0  0
  140.5154   72.7033  226.6731 H   0  0  0  0  0  0  0  0  0  0  0  0
  140.2106   71.3651  229.1061 H   0  0  0  0  0  0  0  0  0  0  0  0
  139.3202   70.9816  227.6170 H   0  0  0  0  0  0  0  0  0  0  0  0
  142.0518   69.8649  227.4903 H   0  0  0  0  0  0  0  0  0  0  0  0
  141.2502   69.3034  228.9707 H   0  0  0  0  0  0  0  0  0  0  0  0
  140.8680   68.0266  226.7415 H   0  0  0  0  0  0  0  0  0  0  0  0
  139.4370   68.4484  227.8234 H   0  0  0  0  0  0  0  0  0  0  0  0
  139.3670   70.4660  226.0230 H   0  0  0  0  0  0  0  0  0  0  0  0
  138.1214   68.2309  223.1746 H   0  0  0  0  0  0  0  0  0  0  0  0
  137.5118   69.6679  224.1473 H   0  0  0  0  0  0  0  0  0  0  0  0
  139.2750   69.8020  221.9270 H   0  0  0  0  0  0  0  0  0  0  0  0
  141.6731   70.5373  221.7777 H   0  0  0  0  0  0  0  0  0  0  0  0
  142.9180   72.0220  220.2333 H   0  0  0  0  0  0  0  0  0  0  0  0
  143.2572   74.2780  219.3193 H   0  0  0  0  0  0  0  0  0  0  0  0
  140.8002   77.5429  220.7396 H   0  0  0  0  0  0  0  0  0  0  0  0
  139.6086   75.9500  222.2646 H   0  0  0  0  0  0  0  0  0  0  0  0
  1  2  1  0
  2  3  1  0
  3  4  1  0
  4  5  1  0
  5  6  1  0
  6  7  2  0
  6  8  1  0
  8  9  1  0
  9 10  1  0
 10 11  2  0
 10 12  1  0
 12 13  2  0
 13 14  1  0
 14 15  2  0
 15 16  1  0
 16 17  2  0
 17 18  1  0
 17 19  1  0
 19 20  2  0
 20 21  1  0
 21 22  2  0
 22 12  1  0
 21 15  1  0
  1 23  1  0
  1 24  1  0
  1 25  1  0
  2 26  1  0
  2 27  1  0
  3 28  1  0
  3 29  1  0
  4 30  1  0
  4 31  1  0
  5 32  1  0
  8 33  1  0
  8 34  1  0
  9 35  1  0
 13 36  1  0
 14 37  1  0
 16 38  1  0
 19 39  1  0
 20 40  1  0
M  END
>  <smiles>  (13) 
CCCCNC(=O)CNC(=O)c1ccc2cc(Cl)ccc2n1

>  <score_type>  (13) 
oracle

>  <origin>  (13) 
autodockgpu

>  <m_score__min__energy>  (13) 
-7.6100000000000003

>  <m_primary>  (13) 
energy

>  <rmsd>  (13) 
8.174276856558597

>  <m_score__min__rmsd>  (13) 
8.174276856558597

>  <meeko>  (13) 
{"free_energy": -6.31, "intermolecular_energy": -8.1, "internal_energy": -1.53, "cluster_size": 10, "cluster_id": 3, "rank_in_cluster": 1}

>  <energy>  (13) 
-6.93

>  <cluster_rmsd>  (13) 
1.02

>  <cluster>  (13) 
1

$$$$

     RDKit          3D

 40 41  0  0  0  0  0  0  0  0999 V2000
  142.5530   80.3910  223.6590 C   0  0  0  0  0  0  0  0  0  0  0  0
  141.8530   80.8640  222.3940 C   0  0  0  0  0  0  0  0  0  0  0  0
  141.4760   79.6060  221.5990 C   0  0  0  0  0  0  0  0  0  0  0  0
  141.4550   78.4820  222.5740 C   0  0  0  0  0  0  0  0  0  0  0  0
  141.1650   77.1860  222.0210 N   0  0  0  0  0  0  0  0  0  0  0  0
  139.8270   76.7360  221.9960 C   0  0  0  0  0  0  0  0  0  0  0  0
  138.9550   77.5190  222.4770 O   0  0  0  0  0  0  0  0  0  0  0  0
  139.3590   75.4510  221.4690 C   0  0  0  0  0  0  0  0  0  0  0  0
  139.4430   74.3520  222.3860 N   0  0  0  0  0  0  0  0  0  0  0  0
  139.8090   73.0400  221.9750 C   0  0  0  0  0  0  0  0  0  0  0  0
  140.0830   72.7340  220.7860 O   0  0  0  0  0  0  0  0  0  0  0  0
  139.8760   71.9750  222.9920 C   0  0  0  0  0  0  0  0  0  0  0  0
  139.4750   70.6990  222.7210 C   0  0  0  0  0  0  0  0  0  0  0  0
  139.5400   69.7100  223.6810 C   0  0  0  0  0  0  0  0  0  0  0  0
  140.0210   70.0250  224.9290 C   0  0  0  0  0  0  0  0  0  0  0  0
  140.1160   69.0820  225.9410 C   0  0  0  0  0  0  0  0  0  0  0  0
  140.6090   69.4340  227.2020 C   0  0  0  0  0  0  0  0  0  0  0  0
  140.7180   68.2150  228.4690 Cl  0  0  0  0  0  0  0  0  0  0  0  0
  141.0140   70.7450  227.4570 C   0  0  0  0  0  0  0  0  0  0  0  0
  140.9200   71.6950  226.4410 C   0  0  0  0  0  0  0  0  0  0  0  0
  140.4280   71.3140  225.2070 C   0  0  0  0  0  0  0  0  0  0  0  0
  140.3390   72.2350  224.2300 N   0  0  0  0  0  0  0  0  0  0  0  0
  142.0071   80.7599  224.5399 H   0  0  0  0  0  0  0  0  0  0  0  0
  142.5762   79.2914  223.6759 H   0  0  0  0  0  0  0  0  0  0  0  0
  143.5819   80.7797  223.6759 H   0  0  0  0  0  0  0  0  0  0  0  0
  140.9484   81.4340  222.6523 H   0  0  0  0  0  0  0  0  0  0  0  0
  142.5070   81.5227  221.8038 H   0  0  0  0  0  0  0  0  0  0  0  0
  140.4841   79.7295  221.1397 H   0  0  0  0  0  0  0  0  0  0  0  0
  142.1951   79.4167  220.7884 H   0  0  0  0  0  0  0  0  0  0  0  0
  142.4434   78.4318  223.0542 H   0  0  0  0  0  0  0  0  0  0  0  0
  140.6332   78.7030  223.2710 H   0  0  0  0  0  0  0  0  0  0  0  0
  141.9160   76.5730  221.6500 H   0  0  0  0  0  0  0  0  0  0  0  0
  138.3063   75.5674  221.1717 H   0  0  0  0  0  0  0  0  0  0  0  0
  140.0255   75.2023  220.6300 H   0  0  0  0  0  0  0  0  0  0  0  0
  139.2280   74.4960  223.4130 H   0  0  0  0  0  0  0  0  0  0  0  0
  139.0930   70.4544  221.7189 H   0  0  0  0  0  0  0  0  0  0  0  0
  139.2119   68.6856  223.4509 H   0  0  0  0  0  0  0  0  0  0  0  0
  139.8003   68.0457  225.7502 H   0  0  0  0  0  0  0  0  0  0  0  0
  141.4025   71.0252  228.4472 H   0  0  0  0  0  0  0  0  0  0  0  0
  141.2333   72.7343  226.6192 H   0  0  0  0  0  0  0  0  0  0  0  0
  1  2  1  0
  2  3  1  0
  3  4  1  0
  4  5  1  0
  5  6  1  0
  6  7  2  0
  6  8  1  0
  8  9  1  0
  9 10  1  0
 10 11  2  0
 10 12  1  0
 12 13  2  0
 13 14  1  0
 14 15  2  0
 15 16  1  0
 16 17  2  0
 17 18  1  0
 17 19  1  0
 19 20  2  0
 20 21  1  0
 21 22  2  0
 22 12  1  0
 21 15  1  0
  1 23  1  0
  1 24  1  0
  1 25  1  0
  2 26  1  0
  2 27  1  0
  3 28  1  0
  3 29  1  0
  4 30  1  0
  4 31  1  0
  5 32  1  0
  8 33  1  0
  8 34  1  0
  9 35  1  0
 13 36  1  0
 14 37  1  0
 16 38  1  0
 19 39  1  0
 20 40  1  0
M  END
>  <smiles>  (14) 
CCCCNC(=O)CNC(=O)c1ccc2cc(Cl)ccc2n1

>  <score_type>  (14) 
oracle

>  <origin>  (14) 
autodockgpu

>  <m_score__min__energy>  (14) 
-7.6100000000000003

>  <m_primary>  (14) 
energy

>  <rmsd>  (14) 
3.5152004714056653

>  <m_score__min__rmsd>  (14) 
3.5152004714056653

>  <meeko>  (14) 
{"free_energy": -7.28, "intermolecular_energy": -9.07, "internal_energy": -0.88, "cluster_size": 24, "cluster_id": 1, "rank_in_cluster": 12}

>  <energy>  (14) 
-6.89

>  <cluster_rmsd>  (14) 
0.96

>  <cluster>  (14) 
1

$$$$

     RDKit          3D

 40 41  0  0  0  0  0  0  0  0999 V2000
  142.5210   80.1750  223.8430 C   0  0  0  0  0  0  0  0  0  0  0  0
  142.0330   80.5320  222.4470 C   0  0  0  0  0  0  0  0  0  0  0  0
  141.7700   79.2080  221.7170 C   0  0  0  0  0  0  0  0  0  0  0  0
  141.2270   78.2670  222.7330 C   0  0  0  0  0  0  0  0  0  0  0  0
  141.0650   76.9060  222.2950 N   0  0  0  0  0  0  0  0  0  0  0  0
  139.8030   76.4830  221.8260 C   0  0  0  0  0  0  0  0  0  0  0  0
  138.8770   77.3470  221.8280 O   0  0  0  0  0  0  0  0  0  0  0  0
  139.4680   75.1400  221.3440 C   0  0  0  0  0  0  0  0  0  0  0  0
  139.5750   74.0980  222.3230 N   0  0  0  0  0  0  0  0  0  0  0  0
  139.7330   72.7290  221.9690 C   0  0  0  0  0  0  0  0  0  0  0  0
  139.7880   72.3200  220.7800 O   0  0  0  0  0  0  0  0  0  0  0  0
  139.8430   71.7300  223.0460 C   0  0  0  0  0  0  0  0  0  0  0  0
  139.4640   70.4310  222.8610 C   0  0  0  0  0  0  0  0  0  0  0  0
  139.5690   69.5040  223.8770 C   0  0  0  0  0  0  0  0  0  0  0  0
  140.0660   69.9040  225.0940 C   0  0  0  0  0  0  0  0  0  0  0  0
  140.2010   69.0260  226.1590 C   0  0  0  0  0  0  0  0  0  0  0  0
  140.7110   69.4630  227.3850 C   0  0  0  0  0  0  0  0  0  0  0  0
  140.8700   68.3260  228.7220 Cl  0  0  0  0  0  0  0  0  0  0  0  0
  141.0920   70.7950  227.5530 C   0  0  0  0  0  0  0  0  0  0  0  0
  140.9590   71.6800  226.4840 C   0  0  0  0  0  0  0  0  0  0  0  0
  140.4510   71.2150  225.2850 C   0  0  0  0  0  0  0  0  0  0  0  0
  140.3240   72.0730  224.2570 N   0  0  0  0  0  0  0  0  0  0  0  0
  141.8705   80.6509  224.5916 H   0  0  0  0  0  0  0  0  0  0  0  0
  142.4924   79.0831  223.9734 H   0  0  0  0  0  0  0  0  0  0  0  0
  143.5529   80.5329  223.9734 H   0  0  0  0  0  0  0  0  0  0  0  0
  141.1060   81.1209  222.5090 H   0  0  0  0  0  0  0  0  0  0  0  0
  142.7791   81.1368  221.9108 H   0  0  0  0  0  0  0  0  0  0  0  0
  141.0390   79.3582  220.9089 H   0  0  0  0  0  0  0  0  0  0  0  0
  142.6909   78.8145  221.2619 H   0  0  0  0  0  0  0  0  0  0  0  0
  141.9116   78.2664  223.5940 H   0  0  0  0  0  0  0  0  0  0  0  0
  140.2158   78.6297  222.9696 H   0  0  0  0  0  0  0  0  0  0  0  0
  141.8510   76.2280  222.3250 H   0  0  0  0  0  0  0  0  0  0  0  0
  138.4309   75.1583  220.9778 H   0  0  0  0  0  0  0  0  0  0  0  0
  140.2046   74.9026  220.5623 H   0  0  0  0  0  0  0  0  0  0  0  0
  139.5360   74.3300  223.3560 H   0  0  0  0  0  0  0  0  0  0  0  0
  139.0677   70.1182  221.8837 H   0  0  0  0  0  0  0  0  0  0  0  0
  139.2597   68.4608  223.7155 H   0  0  0  0  0  0  0  0  0  0  0  0
  139.9035   67.9740  226.0376 H   0  0  0  0  0  0  0  0  0  0  0  0
  141.4923   71.1423  228.5169 H   0  0  0  0  0  0  0  0  0  0  0  0
  141.2542   72.7340  226.5929 H   0  0  0  0  0  0  0  0  0  0  0  0
  1  2  1  0
  2  3  1  0
  3  4  1  0
  4  5  1  0
  5  6  1  0
  6  7  2  0
  6  8  1  0
  8  9  1  0
  9 10  1  0
 10 11  2  0
 10 12  1  0
 12 13  2  0
 13 14  1  0
 14 15  2  0
 15 16  1  0
 16 17  2  0
 17 18  1  0
 17 19  1  0
 19 20  2  0
 20 21  1  0
 21 22  2  0
 22 12  1  0
 21 15  1  0
  1 23  1  0
  1 24  1  0
  1 25  1  0
  2 26  1  0
  2 27  1  0
  3 28  1  0
  3 29  1  0
  4 30  1  0
  4 31  1  0
  5 32  1  0
  8 33  1  0
  8 34  1  0
  9 35  1  0
 13 36  1  0
 14 37  1  0
 16 38  1  0
 19 39  1  0
 20 40  1  0
M  END
>  <smiles>  (15) 
CCCCNC(=O)CNC(=O)c1ccc2cc(Cl)ccc2n1

>  <score_type>  (15) 
oracle

>  <origin>  (15) 
autodockgpu

>  <m_score__min__energy>  (15) 
-7.6100000000000003

>  <m_primary>  (15) 
energy

>  <rmsd>  (15) 
3.3888593589406413

>  <m_score__min__rmsd>  (15) 
3.3888593589406413

>  <meeko>  (15) 
{"free_energy": -7.38, "intermolecular_energy": -9.17, "internal_energy": -0.92, "cluster_size": 24, "cluster_id": 1, "rank_in_cluster": 8}

>  <energy>  (15) 
-6.86

>  <cluster_rmsd>  (15) 
1.0

>  <cluster>  (15) 
1

$$$$

     RDKit          3D

 40 41  0  0  0  0  0  0  0  0999 V2000
  145.9650   73.7280  220.8610 C   0  0  0  0  0  0  0  0  0  0  0  0
  144.4530   73.5630  220.8430 C   0  0  0  0  0  0  0  0  0  0  0  0
  143.9500   74.2230  219.5510 C   0  0  0  0  0  0  0  0  0  0  0  0
  143.2950   75.4960  219.9560 C   0  0  0  0  0  0  0  0  0  0  0  0
  142.1870   75.3630  220.8630 N   0  0  0  0  0  0  0  0  0  0  0  0
  140.8730   75.4130  220.3510 C   0  0  0  0  0  0  0  0  0  0  0  0
  140.7560   75.5800  219.1000 O   0  0  0  0  0  0  0  0  0  0  0  0
  139.6380   75.2930  221.1300 C   0  0  0  0  0  0  0  0  0  0  0  0
  139.6460   74.2600  222.1250 N   0  0  0  0  0  0  0  0  0  0  0  0
  140.1040   72.9400  221.8530 C   0  0  0  0  0  0  0  0  0  0  0  0
  140.5300   72.5690  220.7290 O   0  0  0  0  0  0  0  0  0  0  0  0
  140.0820   71.9480  222.9420 C   0  0  0  0  0  0  0  0  0  0  0  0
  139.6000   70.6850  222.7530 C   0  0  0  0  0  0  0  0  0  0  0  0
  139.5830   69.7640  223.7800 C   0  0  0  0  0  0  0  0  0  0  0  0
  140.0650   70.1330  225.0120 C   0  0  0  0  0  0  0  0  0  0  0  0
  140.0800   69.2600  226.0890 C   0  0  0  0  0  0  0  0  0  0  0  0
  140.5770   69.6650  227.3320 C   0  0  0  0  0  0  0  0  0  0  0  0
  140.5830   68.5340  228.6820 Cl  0  0  0  0  0  0  0  0  0  0  0  0
  141.0650   70.9610  227.5030 C   0  0  0  0  0  0  0  0  0  0  0  0
  141.0520   71.8410  226.4230 C   0  0  0  0  0  0  0  0  0  0  0  0
  140.5540   71.4080  225.2080 C   0  0  0  0  0  0  0  0  0  0  0  0
  140.5430   72.2620  224.1690 N   0  0  0  0  0  0  0  0  0  0  0  0
  146.3173   73.7664  221.9023 H   0  0  0  0  0  0  0  0  0  0  0  0
  146.4330   72.8756  220.3468 H   0  0  0  0  0  0  0  0  0  0  0  0
  146.2381   74.6613  220.3468 H   0  0  0  0  0  0  0  0  0  0  0  0
  144.1885   72.4953  220.8506 H   0  0  0  0  0  0  0  0  0  0  0  0
  143.9947   74.0282  221.7282 H   0  0  0  0  0  0  0  0  0  0  0  0
  144.7934   74.4275  218.8752 H   0  0  0  0  0  0  0  0  0  0  0  0
  143.2483   73.5667  219.0154 H   0  0  0  0  0  0  0  0  0  0  0  0
  144.0542   76.1285  220.4394 H   0  0  0  0  0  0  0  0  0  0  0  0
  142.8790   75.9273  219.0336 H   0  0  0  0  0  0  0  0  0  0  0  0
  142.3310   75.2410  221.8840 H   0  0  0  0  0  0  0  0  0  0  0  0
  139.4596   76.2530  221.6365 H   0  0  0  0  0  0  0  0  0  0  0  0
  138.8481   75.0232  220.4136 H   0  0  0  0  0  0  0  0  0  0  0  0
  139.3030   74.4610  223.1070 H   0  0  0  0  0  0  0  0  0  0  0  0
  139.2178   70.3960  221.7628 H   0  0  0  0  0  0  0  0  0  0  0  0
  139.1896   68.7501  223.6148 H   0  0  0  0  0  0  0  0  0  0  0  0
  139.6964   68.2366  225.9644 H   0  0  0  0  0  0  0  0  0  0  0  0
  141.4555   71.2841  228.4793 H   0  0  0  0  0  0  0  0  0  0  0  0
  141.4329   72.8668  226.5354 H   0  0  0  0  0  0  0  0  0  0  0  0
  1  2  1  0
  2  3  1  0
  3  4  1  0
  4  5  1  0
  5  6  1  0
  6  7  2  0
  6  8  1  0
  8  9  1  0
  9 10  1  0
 10 11  2  0
 10 12  1  0
 12 13  2  0
 13 14  1  0
 14 15  2  0
 15 16  1  0
 16 17  2  0
 17 18  1  0
 17 19  1  0
 19 20  2  0
 20 21  1  0
 21 22  2  0
 22 12  1  0
 21 15  1  0
  1 23  1  0
  1 24  1  0
  1 25  1  0
  2 26  1  0
  2 27  1  0
  3 28  1  0
  3 29  1  0
  4 30  1  0
  4 31  1  0
  5 32  1  0
  8 33  1  0
  8 34  1  0
  9 35  1  0
 13 36  1  0
 14 37  1  0
 16 38  1  0
 19 39  1  0
 20 40  1  0
M  END
>  <smiles>  (16) 
CCCCNC(=O)CNC(=O)c1ccc2cc(Cl)ccc2n1

>  <score_type>  (16) 
oracle

>  <origin>  (16) 
autodockgpu

>  <m_score__min__energy>  (16) 
-7.6100000000000003

>  <m_primary>  (16) 
energy

>  <rmsd>  (16) 
3.2672501533501888

>  <m_score__min__rmsd>  (16) 
3.2672501533501888

>  <meeko>  (16) 
{"free_energy": -6.8, "intermolecular_energy": -8.59, "internal_energy": -1.11, "cluster_size": 9, "cluster_id": 2, "rank_in_cluster": 1}

>  <energy>  (16) 
-6.72

>  <cluster_rmsd>  (16) 
1.24

>  <cluster>  (16) 
1

$$$$

     RDKit          3D

 40 41  0  0  0  0  0  0  0  0999 V2000
  143.0100   80.5430  223.4840 C   0  0  0  0  0  0  0  0  0  0  0  0
  141.5950   80.1130  223.8430 C   0  0  0  0  0  0  0  0  0  0  0  0
  141.5040   78.6070  223.5610 C   0  0  0  0  0  0  0  0  0  0  0  0
  141.5380   78.4530  222.0820 C   0  0  0  0  0  0  0  0  0  0  0  0
  141.3030   77.1200  221.5920 N   0  0  0  0  0  0  0  0  0  0  0  0
  139.9970   76.5880  221.6530 C   0  0  0  0  0  0  0  0  0  0  0  0
  139.1020   77.3330  222.1520 O   0  0  0  0  0  0  0  0  0  0  0  0
  139.5860   75.2570  221.1980 C   0  0  0  0  0  0  0  0  0  0  0  0
  139.6530   74.2270  222.1940 N   0  0  0  0  0  0  0  0  0  0  0  0
  139.8630   72.8590  221.8650 C   0  0  0  0  0  0  0  0  0  0  0  0
  140.0010   72.4390  220.6870 O   0  0  0  0  0  0  0  0  0  0  0  0
  139.9260   71.8720  222.9580 C   0  0  0  0  0  0  0  0  0  0  0  0
  139.5140   70.5820  222.7840 C   0  0  0  0  0  0  0  0  0  0  0  0
  139.5760   69.6670  223.8150 C   0  0  0  0  0  0  0  0  0  0  0  0
  140.0630   70.0700  225.0340 C   0  0  0  0  0  0  0  0  0  0  0  0
  140.1550   69.2050  226.1140 C   0  0  0  0  0  0  0  0  0  0  0  0
  140.6540   69.6450  227.3430 C   0  0  0  0  0  0  0  0  0  0  0  0
  140.7580   68.5230  228.6980 Cl  0  0  0  0  0  0  0  0  0  0  0  0
  141.0690   70.9690  227.4990 C   0  0  0  0  0  0  0  0  0  0  0  0
  140.9790   71.8410  226.4160 C   0  0  0  0  0  0  0  0  0  0  0  0
  140.4800   71.3730  225.2150 C   0  0  0  0  0  0  0  0  0  0  0  0
  140.3950   72.2200  224.1720 N   0  0  0  0  0  0  0  0  0  0  0  0
  143.5850   80.7177  224.4053 H   0  0  0  0  0  0  0  0  0  0  0  0
  143.4950   79.7517  222.8936 H   0  0  0  0  0  0  0  0  0  0  0  0
  142.9727   81.4704  222.8936 H   0  0  0  0  0  0  0  0  0  0  0  0
  141.3972   80.3117  224.9067 H   0  0  0  0  0  0  0  0  0  0  0  0
  140.8518   80.6704  223.2540 H   0  0  0  0  0  0  0  0  0  0  0  0
  142.3562   78.0824  224.0176 H   0  0  0  0  0  0  0  0  0  0  0  0
  140.5847   78.1771  223.9853 H   0  0  0  0  0  0  0  0  0  0  0  0
  140.7675   79.1118  221.6549 H   0  0  0  0  0  0  0  0  0  0  0  0
  142.5622   78.7113  221.7750 H   0  0  0  0  0  0  0  0  0  0  0  0
  142.0720   76.5400  221.2040 H   0  0  0  0  0  0  0  0  0  0  0  0
  138.5461   75.3232  220.8454 H   0  0  0  0  0  0  0  0  0  0  0  0
  140.2976   74.9688  220.4102 H   0  0  0  0  0  0  0  0  0  0  0  0
  139.5450   74.4680  223.2200 H   0  0  0  0  0  0  0  0  0  0  0  0
  139.1257   70.2665  221.8044 H   0  0  0  0  0  0  0  0  0  0  0  0
  139.2404   68.6306  223.6627 H   0  0  0  0  0  0  0  0  0  0  0  0
  139.8312   68.1597  226.0019 H   0  0  0  0  0  0  0  0  0  0  0  0
  141.4621   71.3193  228.4648 H   0  0  0  0  0  0  0  0  0  0  0  0
  141.3009   72.8881  226.5155 H   0  0  0  0  0  0  0  0  0  0  0  0
  1  2  1  0
  2  3  1  0
  3  4  1  0
  4  5  1  0
  5  6  1  0
  6  7  2  0
  6  8  1  0
  8  9  1  0
  9 10  1  0
 10 11  2  0
 10 12  1  0
 12 13  2  0
 13 14  1  0
 14 15  2  0
 15 16  1  0
 16 17  2  0
 17 18  1  0
 17 19  1  0
 19 20  2  0
 20 21  1  0
 21 22  2  0
 22 12  1  0
 21 15  1  0
  1 23  1  0
  1 24  1  0
  1 25  1  0
  2 26  1  0
  2 27  1  0
  3 28  1  0
  3 29  1  0
  4 30  1  0
  4 31  1  0
  5 32  1  0
  8 33  1  0
  8 34  1  0
  9 35  1  0
 13 36  1  0
 14 37  1  0
 16 38  1  0
 19 39  1  0
 20 40  1  0
M  END
>  <smiles>  (17) 
CCCCNC(=O)CNC(=O)c1ccc2cc(Cl)ccc2n1

>  <score_type>  (17) 
oracle

>  <origin>  (17) 
autodockgpu

>  <m_score__min__energy>  (17) 
-7.6100000000000003

>  <m_primary>  (17) 
energy

>  <rmsd>  (17) 
3.747450917743318

>  <m_score__min__rmsd>  (17) 
3.747450917743318

>  <meeko>  (17) 
{"free_energy": -7.34, "intermolecular_energy": -9.13, "internal_energy": -0.92, "cluster_size": 24, "cluster_id": 1, "rank_in_cluster": 9}

>  <energy>  (17) 
-6.72

>  <cluster_rmsd>  (17) 
1.26

>  <cluster>  (17) 
1

$$$$

     RDKit          3D

 40 41  0  0  0  0  0  0  0  0999 V2000
  140.7620   71.8850  227.9660 C   0  0  0  0  0  0  0  0  0  0  0  0
  141.1070   71.5760  226.5170 C   0  0  0  0  0  0  0  0  0  0  0  0
  141.3330   70.0610  226.4280 C   0  0  0  0  0  0  0  0  0  0  0  0
  140.1610   69.5020  225.7030 C   0  0  0  0  0  0  0  0  0  0  0  0
  139.7440   70.2340  224.5370 N   0  0  0  0  0  0  0  0  0  0  0  0
  138.3710   70.2900  224.2170 C   0  0  0  0  0  0  0  0  0  0  0  0
  137.5810   69.6740  224.9920 O   0  0  0  0  0  0  0  0  0  0  0  0
  137.7790   70.9900  223.0740 C   0  0  0  0  0  0  0  0  0  0  0  0
  138.3760   72.2560  222.7620 N   0  0  0  0  0  0  0  0  0  0  0  0
  139.6630   72.3670  222.1650 C   0  0  0  0  0  0  0  0  0  0  0  0
  140.3810   71.3770  221.8670 O   0  0  0  0  0  0  0  0  0  0  0  0
  140.1920   73.7110  221.8730 C   0  0  0  0  0  0  0  0  0  0  0  0
  141.3180   73.8930  221.1220 C   0  0  0  0  0  0  0  0  0  0  0  0
  141.8050   75.1560  220.8570 C   0  0  0  0  0  0  0  0  0  0  0  0
  141.1370   76.2450  221.3600 C   0  0  0  0  0  0  0  0  0  0  0  0
  141.5680   77.5430  221.1320 C   0  0  0  0  0  0  0  0  0  0  0  0
  140.8670   78.6330  221.6590 C   0  0  0  0  0  0  0  0  0  0  0  0
  141.4400   80.2710  221.3540 Cl  0  0  0  0  0  0  0  0  0  0  0  0
  139.7190   78.4250  222.4240 C   0  0  0  0  0  0  0  0  0  0  0  0
  139.2820   77.1220  222.6540 C   0  0  0  0  0  0  0  0  0  0  0  0
  139.9990   76.0680  222.1190 C   0  0  0  0  0  0  0  0  0  0  0  0
  139.5730   74.8120  222.3450 N   0  0  0  0  0  0  0  0  0  0  0  0
  141.4147   71.3004  228.6310 H   0  0  0  0  0  0  0  0  0  0  0  0
  140.9101   72.9580  228.1574 H   0  0  0  0  0  0  0  0  0  0  0  0
  139.7117   71.6200  228.1574 H   0  0  0  0  0  0  0  0  0  0  0  0
  140.2780   71.8745  225.8585 H   0  0  0  0  0  0  0  0  0  0  0  0
  142.0036   72.1280  226.1986 H   0  0  0  0  0  0  0  0  0  0  0  0
  142.2596   69.8467  225.8752 H   0  0  0  0  0  0  0  0  0  0  0  0
  141.4328   69.6139  227.4281 H   0  0  0  0  0  0  0  0  0  0  0  0
  140.4146   68.4792  225.3876 H   0  0  0  0  0  0  0  0  0  0  0  0
  139.3183   69.5542  226.4081 H   0  0  0  0  0  0  0  0  0  0  0  0
  140.4300   70.7140  223.9220 H   0  0  0  0  0  0  0  0  0  0  0  0
  137.8736   70.3414  222.1906 H   0  0  0  0  0  0  0  0  0  0  0  0
  136.7358   71.2024  223.3509 H   0  0  0  0  0  0  0  0  0  0  0  0
  137.8620   73.1570  222.9750 H   0  0  0  0  0  0  0  0  0  0  0  0
  141.8466   73.0157  220.7208 H   0  0  0  0  0  0  0  0  0  0  0  0
  142.7142   75.2887  220.2522 H   0  0  0  0  0  0  0  0  0  0  0  0
  142.4717   77.7178  220.5297 H   0  0  0  0  0  0  0  0  0  0  0  0
  139.1654   79.2794  222.8406 H   0  0  0  0  0  0  0  0  0  0  0  0
  138.3787   76.9346  223.2532 H   0  0  0  0  0  0  0  0  0  0  0  0
  1  2  1  0
  2  3  1  0
  3  4  1  0
  4  5  1  0
  5  6  1  0
  6  7  2  0
  6  8  1  0
  8  9  1  0
  9 10  1  0
 10 11  2  0
 10 12  1  0
 12 13  2  0
 13 14  1  0
 14 15  2  0
 15 16  1  0
 16 17  2  0
 17 18  1  0
 17 19  1  0
 19 20  2  0
 20 21  1  0
 21 22  2  0
 22 12  1  0
 21 15  1  0
  1 23  1  0
  1 24  1  0
  1 25  1  0
  2 26  1  0
  2 27  1  0
  3 28  1  0
  3 29  1  0
  4 30  1  0
  4 31  1  0
  5 32  1  0
  8 33  1  0
  8 34  1  0
  9 35  1  0
 13 36  1  0
 14 37  1  0
 16 38  1  0
 19 39  1  0
 20 40  1  0
M  END
>  <smiles>  (18) 
CCCCNC(=O)CNC(=O)c1ccc2cc(Cl)ccc2n1

>  <score_type>  (18) 
oracle

>  <origin>  (18) 
autodockgpu

>  <m_score__min__energy>  (18) 
-7.6100000000000003

>  <m_primary>  (18) 
energy

>  <rmsd>  (18) 
7.87671966835442

>  <m_score__min__rmsd>  (18) 
7.87671966835442

>  <meeko>  (18) 
{"free_energy": -5.94, "intermolecular_energy": -7.73, "internal_energy": -1.9, "cluster_size": 7, "cluster_id": 4, "rank_in_cluster": 7}

>  <energy>  (18) 
-6.7

>  <cluster_rmsd>  (18) 
0.88

>  <cluster>  (18) 
1

$$$$

     RDKit          3D

 40 41  0  0  0  0  0  0  0  0999 V2000
  141.4500   72.3340  227.6030 C   0  0  0  0  0  0  0  0  0  0  0  0
  140.4630   71.5350  226.7650 C   0  0  0  0  0  0  0  0  0  0  0  0
  140.6280   70.0640  227.1680 C   0  0  0  0  0  0  0  0  0  0  0  0
  140.6180   69.2770  225.9050 C   0  0  0  0  0  0  0  0  0  0  0  0
  140.1060   69.9650  224.7490 N   0  0  0  0  0  0  0  0  0  0  0  0
  138.7120   69.9910  224.5300 C   0  0  0  0  0  0  0  0  0  0  0  0
  137.9910   69.3890  225.3800 O   0  0  0  0  0  0  0  0  0  0  0  0
  138.0270   70.6450  223.4110 C   0  0  0  0  0  0  0  0  0  0  0  0
  138.5990   71.8920  222.9950 N   0  0  0  0  0  0  0  0  0  0  0  0
  139.8350   71.9710  222.2950 C   0  0  0  0  0  0  0  0  0  0  0  0
  140.5280   70.9650  221.9890 O   0  0  0  0  0  0  0  0  0  0  0  0
  140.3400   73.2980  221.9010 C   0  0  0  0  0  0  0  0  0  0  0  0
  141.4540   73.4410  221.1250 C   0  0  0  0  0  0  0  0  0  0  0  0
  141.9180   74.6880  220.7630 C   0  0  0  0  0  0  0  0  0  0  0  0
  141.2400   75.8020  221.1960 C   0  0  0  0  0  0  0  0  0  0  0  0
  141.6490   77.0860  220.8700 C   0  0  0  0  0  0  0  0  0  0  0  0
  140.9370   78.2000  221.3260 C   0  0  0  0  0  0  0  0  0  0  0  0
  141.4810   79.8210  220.8970 Cl  0  0  0  0  0  0  0  0  0  0  0  0
  139.8010   78.0320  222.1180 C   0  0  0  0  0  0  0  0  0  0  0  0
  139.3870   76.7420  222.4470 C   0  0  0  0  0  0  0  0  0  0  0  0
  140.1130   75.6630  221.9800 C   0  0  0  0  0  0  0  0  0  0  0  0
  139.7090   74.4200  222.3010 N   0  0  0  0  0  0  0  0  0  0  0  0
  141.2439   72.1671  228.6706 H   0  0  0  0  0  0  0  0  0  0  0  0
  142.4750   72.0082  227.3722 H   0  0  0  0  0  0  0  0  0  0  0  0
  141.3447   73.4043  227.3722 H   0  0  0  0  0  0  0  0  0  0  0  0
  139.4353   71.8703  226.9683 H   0  0  0  0  0  0  0  0  0  0  0  0
  140.6546   71.6737  225.6907 H   0  0  0  0  0  0  0  0  0  0  0  0
  141.5809   69.9197  227.6983 H   0  0  0  0  0  0  0  0  0  0  0  0
  139.8211   69.7433  227.8433 H   0  0  0  0  0  0  0  0  0  0  0  0
  141.6524   68.9726  225.6874 H   0  0  0  0  0  0  0  0  0  0  0  0
  139.9345   68.4332  226.0809 H   0  0  0  0  0  0  0  0  0  0  0  0
  140.7380   70.4340  224.0710 H   0  0  0  0  0  0  0  0  0  0  0  0
  138.0446   69.9582  222.5519 H   0  0  0  0  0  0  0  0  0  0  0  0
  137.0115   70.8759  223.7653 H   0  0  0  0  0  0  0  0  0  0  0  0
  138.1020   72.8040  223.2050 H   0  0  0  0  0  0  0  0  0  0  0  0
  141.9915   72.5447  220.7821 H   0  0  0  0  0  0  0  0  0  0  0  0
  142.8170   74.7894  220.1373 H   0  0  0  0  0  0  0  0  0  0  0  0
  142.5433   77.2301  220.2459 H   0  0  0  0  0  0  0  0  0  0  0  0
  139.2390   78.9062  222.4784 H   0  0  0  0  0  0  0  0  0  0  0  0
  138.4942   76.5852  223.0701 H   0  0  0  0  0  0  0  0  0  0  0  0
  1  2  1  0
  2  3  1  0
  3  4  1  0
  4  5  1  0
  5  6  1  0
  6  7  2  0
  6  8  1  0
  8  9  1  0
  9 10  1  0
 10 11  2  0
 10 12  1  0
 12 13  2  0
 13 14  1  0
 14 15  2  0
 15 16  1  0
 16 17  2  0
 17 18  1  0
 17 19  1  0
 19 20  2  0
 20 21  1  0
 21 22  2  0
 22 12  1  0
 21 15  1  0
  1 23  1  0
  1 24  1  0
  1 25  1  0
  2 26  1  0
  2 27  1  0
  3 28  1  0
  3 29  1  0
  4 30  1  0
  4 31  1  0
  5 32  1  0
  8 33  1  0
  8 34  1  0
  9 35  1  0
 13 36  1  0
 14 37  1  0
 16 38  1  0
 19 39  1  0
 20 40  1  0
M  END
>  <smiles>  (19) 
CCCCNC(=O)CNC(=O)c1ccc2cc(Cl)ccc2n1

>  <score_type>  (19) 
oracle

>  <origin>  (19) 
autodockgpu

>  <m_score__min__energy>  (19) 
-7.6100000000000003

>  <m_primary>  (19) 
energy

>  <rmsd>  (19) 
7.946848954668738

>  <m_score__min__rmsd>  (19) 
7.946848954668738

>  <meeko>  (19) 
{"free_energy": -5.95, "intermolecular_energy": -7.74, "internal_energy": -1.9, "cluster_size": 10, "cluster_id": 3, "rank_in_cluster": 9}

>  <energy>  (19) 
-6.55

>  <cluster_rmsd>  (19) 
0.99

>  <cluster>  (19) 
1

$$$$

     RDKit          3D

 40 41  0  0  0  0  0  0  0  0999 V2000
  142.9480   80.5030  222.6810 C   0  0  0  0  0  0  0  0  0  0  0  0
  142.1260   80.0800  223.8890 C   0  0  0  0  0  0  0  0  0  0  0  0
  141.7850   78.5960  223.6970 C   0  0  0  0  0  0  0  0  0  0  0  0
  141.2180   78.4680  222.3280 C   0  0  0  0  0  0  0  0  0  0  0  0
  141.0630   77.1220  221.8440 N   0  0  0  0  0  0  0  0  0  0  0  0
  139.7620   76.5950  221.6910 C   0  0  0  0  0  0  0  0  0  0  0  0
  138.8000   77.3570  222.0020 O   0  0  0  0  0  0  0  0  0  0  0  0
  139.4280   75.2510  221.2100 C   0  0  0  0  0  0  0  0  0  0  0  0
  139.5050   74.2160  222.1990 N   0  0  0  0  0  0  0  0  0  0  0  0
  139.8590   72.8760  221.8760 C   0  0  0  0  0  0  0  0  0  0  0  0
  140.1260   72.4880  220.7090 O   0  0  0  0  0  0  0  0  0  0  0  0
  139.9210   71.8810  222.9610 C   0  0  0  0  0  0  0  0  0  0  0  0
  139.5210   70.5890  222.7750 C   0  0  0  0  0  0  0  0  0  0  0  0
  139.5820   69.6670  223.7990 C   0  0  0  0  0  0  0  0  0  0  0  0
  140.0560   70.0640  225.0250 C   0  0  0  0  0  0  0  0  0  0  0  0
  140.1470   69.1910  226.0980 C   0  0  0  0  0  0  0  0  0  0  0  0
  140.6340   69.6260  227.3350 C   0  0  0  0  0  0  0  0  0  0  0  0
  140.7360   68.4940  228.6820 Cl  0  0  0  0  0  0  0  0  0  0  0  0
  141.0370   70.9510  227.5040 C   0  0  0  0  0  0  0  0  0  0  0  0
  140.9480   71.8310  226.4270 C   0  0  0  0  0  0  0  0  0  0  0  0
  140.4620   71.3690  225.2190 C   0  0  0  0  0  0  0  0  0  0  0  0
  140.3790   72.2230  224.1820 N   0  0  0  0  0  0  0  0  0  0  0  0
  143.8785   80.9818  223.0201 H   0  0  0  0  0  0  0  0  0  0  0  0
  143.1909   79.6179  222.0747 H   0  0  0  0  0  0  0  0  0  0  0  0
  142.3690   81.2151  222.0747 H   0  0  0  0  0  0  0  0  0  0  0  0
  142.7097   80.2180  224.8111 H   0  0  0  0  0  0  0  0  0  0  0  0
  141.2124   80.6864  223.9762 H   0  0  0  0  0  0  0  0  0  0  0  0
  142.6927   77.9819  223.7916 H   0  0  0  0  0  0  0  0  0  0  0  0
  141.0703   78.2498  224.4581 H   0  0  0  0  0  0  0  0  0  0  0  0
  140.2267   78.9449  222.3260 H   0  0  0  0  0  0  0  0  0  0  0  0
  141.9434   78.9487  221.6551 H   0  0  0  0  0  0  0  0  0  0  0  0
  141.8830   76.5290  221.6140 H   0  0  0  0  0  0  0  0  0  0  0  0
  138.3997   75.2741  220.8199 H   0  0  0  0  0  0  0  0  0  0  0  0
  140.1799   75.0026  220.4465 H   0  0  0  0  0  0  0  0  0  0  0  0
  139.2950   74.4300  223.2150 H   0  0  0  0  0  0  0  0  0  0  0  0
  139.1430   70.2775  221.7901 H   0  0  0  0  0  0  0  0  0  0  0  0
  139.2558   68.6292  223.6359 H   0  0  0  0  0  0  0  0  0  0  0  0
  139.8326   68.1441  225.9752 H   0  0  0  0  0  0  0  0  0  0  0  0
  141.4203   71.2968  228.4753 H   0  0  0  0  0  0  0  0  0  0  0  0
  141.2606   72.8799  226.5373 H   0  0  0  0  0  0  0  0  0  0  0  0
  1  2  1  0
  2  3  1  0
  3  4  1  0
  4  5  1  0
  5  6  1  0
  6  7  2  0
  6  8  1  0
  8  9  1  0
  9 10  1  0
 10 11  2  0
 10 12  1  0
 12 13  2  0
 13 14  1  0
 14 15  2  0
 15 16  1  0
 16 17  2  0
 17 18  1  0
 17 19  1  0
 19 20  2  0
 20 21  1  0
 21 22  2  0
 22 12  1  0
 21 15  1  0
  1 23  1  0
  1 24  1  0
  1 25  1  0
  2 26  1  0
  2 27  1  0
  3 28  1  0
  3 29  1  0
  4 30  1  0
  4 31  1  0
  5 32  1  0
  8 33  1  0
  8 34  1  0
  9 35  1  0
 13 36  1  0
 14 37  1  0
 16 38  1  0
 19 39  1  0
 20 40  1  0
M  END
>  <smiles>  (20) 
CCCCNC(=O)CNC(=O)c1ccc2cc(Cl)ccc2n1

>  <score_type>  (20) 
oracle

>  <origin>  (20) 
autodockgpu

>  <m_score__min__energy>  (20) 
-7.6100000000000003

>  <m_primary>  (20) 
energy

>  <rmsd>  (20) 
3.745970926188418

>  <m_score__min__rmsd>  (20) 
3.745970926188418

>  <meeko>  (20) 
{"free_energy": -7.5, "intermolecular_energy": -9.29, "internal_energy": -0.87, "cluster_size": 24, "cluster_id": 1, "rank_in_cluster": 5}

>  <energy>  (20) 
-6.52

>  <cluster_rmsd>  (20) 
1.06

>  <cluster>  (20) 
1

$$$$

     RDKit          3D

 40 41  0  0  0  0  0  0  0  0999 V2000
  141.0580   71.8940  227.9850 C   0  0  0  0  0  0  0  0  0  0  0  0
  140.7280   71.1880  226.6780 C   0  0  0  0  0  0  0  0  0  0  0  0
  140.3900   69.7330  227.0320 C   0  0  0  0  0  0  0  0  0  0  0  0
  140.4000   68.9750  225.7530 C   0  0  0  0  0  0  0  0  0  0  0  0
  139.9000   69.6860  224.6060 N   0  0  0  0  0  0  0  0  0  0  0  0
  138.5100   69.8920  224.4800 C   0  0  0  0  0  0  0  0  0  0  0  0
  137.7800   69.4220  225.4030 O   0  0  0  0  0  0  0  0  0  0  0  0
  137.8380   70.5930  223.3830 C   0  0  0  0  0  0  0  0  0  0  0  0
  138.4330   71.8420  223.0060 N   0  0  0  0  0  0  0  0  0  0  0  0
  139.6530   71.9170  222.2770 C   0  0  0  0  0  0  0  0  0  0  0  0
  140.3080   70.9080  221.9100 O   0  0  0  0  0  0  0  0  0  0  0  0
  140.1840   73.2460  221.9270 C   0  0  0  0  0  0  0  0  0  0  0  0
  141.3130   73.3920  221.1720 C   0  0  0  0  0  0  0  0  0  0  0  0
  141.8020   74.6410  220.8510 C   0  0  0  0  0  0  0  0  0  0  0  0
  141.1340   75.7540  221.3030 C   0  0  0  0  0  0  0  0  0  0  0  0
  141.5680   77.0400  221.0180 C   0  0  0  0  0  0  0  0  0  0  0  0
  140.8660   78.1520  221.4930 C   0  0  0  0  0  0  0  0  0  0  0  0
  141.4420   79.7750  221.1160 Cl  0  0  0  0  0  0  0  0  0  0  0  0
  139.7150   77.9800  222.2630 C   0  0  0  0  0  0  0  0  0  0  0  0
  139.2760   76.6900  222.5500 C   0  0  0  0  0  0  0  0  0  0  0  0
  139.9930   75.6120  222.0660 C   0  0  0  0  0  0  0  0  0  0  0  0
  139.5650   74.3670  222.3460 N   0  0  0  0  0  0  0  0  0  0  0  0
  140.7603   71.2571  228.8311 H   0  0  0  0  0  0  0  0  0  0  0  0
  142.1398   72.0873  228.0344 H   0  0  0  0  0  0  0  0  0  0  0  0
  140.5125   72.8479  228.0344 H   0  0  0  0  0  0  0  0  0  0  0  0
  139.8655   71.6701  226.1946 H   0  0  0  0  0  0  0  0  0  0  0  0
  141.5754   71.2370  225.9784 H   0  0  0  0  0  0  0  0  0  0  0  0
  141.1433   69.3247  227.7218 H   0  0  0  0  0  0  0  0  0  0  0  0
  139.4116   69.6613  227.5297 H   0  0  0  0  0  0  0  0  0  0  0  0
  141.4385   68.6800  225.5423 H   0  0  0  0  0  0  0  0  0  0  0  0
  139.7181   68.1247  225.9013 H   0  0  0  0  0  0  0  0  0  0  0  0
  140.5370   70.0410  223.8660 H   0  0  0  0  0  0  0  0  0  0  0  0
  137.8432   69.9333  222.5028 H   0  0  0  0  0  0  0  0  0  0  0  0
  136.8269   70.8315  223.7448 H   0  0  0  0  0  0  0  0  0  0  0  0
  137.9680   72.7560  223.2680 H   0  0  0  0  0  0  0  0  0  0  0  0
  141.8420   72.4967  220.8134 H   0  0  0  0  0  0  0  0  0  0  0  0
  142.7126   74.7448  220.2426 H   0  0  0  0  0  0  0  0  0  0  0  0
  142.4741   77.1867  220.4118 H   0  0  0  0  0  0  0  0  0  0  0  0
  139.1611   78.8529  222.6388 H   0  0  0  0  0  0  0  0  0  0  0  0
  138.3705   76.5310  223.1540 H   0  0  0  0  0  0  0  0  0  0  0  0
  1  2  1  0
  2  3  1  0
  3  4  1  0
  4  5  1  0
  5  6  1  0
  6  7  2  0
  6  8  1  0
  8  9  1  0
  9 10  1  0
 10 11  2  0
 10 12  1  0
 12 13  2  0
 13 14  1  0
 14 15  2  0
 15 16  1  0
 16 17  2  0
 17 18  1  0
 17 19  1  0
 19 20  2  0
 20 21  1  0
 21 22  2  0
 22 12  1  0
 21 15  1  0
  1 23  1  0
  1 24  1  0
  1 25  1  0
  2 26  1  0
  2 27  1  0
  3 28  1  0
  3 29  1  0
  4 30  1  0
  4 31  1  0
  5 32  1  0
  8 33  1  0
  8 34  1  0
  9 35  1  0
 13 36  1  0
 14 37  1  0
 16 38  1  0
 19 39  1  0
 20 40  1  0
M  END
>  <smiles>  (21) 
CCCCNC(=O)CNC(=O)c1ccc2cc(Cl)ccc2n1

>  <score_type>  (21) 
oracle

>  <origin>  (21) 
autodockgpu

>  <m_score__min__energy>  (21) 
-7.6100000000000003

>  <m_primary>  (21) 
energy

>  <rmsd>  (21) 
7.962261534480742

>  <m_score__min__rmsd>  (21) 
7.962261534480742

>  <meeko>  (21) 
{"free_energy": -5.98, "intermolecular_energy": -7.77, "internal_energy": -1.91, "cluster_size": 10, "cluster_id": 3, "rank_in_cluster": 5}

>  <energy>  (21) 
-6.5

>  <cluster_rmsd>  (21) 
0.97

>  <cluster>  (21) 
1

$$$$

     RDKit          3D

 40 41  0  0  0  0  0  0  0  0999 V2000
  142.8600   80.7860  223.8400 C   0  0  0  0  0  0  0  0  0  0  0  0
  141.5220   80.1660  223.4690 C   0  0  0  0  0  0  0  0  0  0  0  0
  141.7280   78.6460  223.4470 C   0  0  0  0  0  0  0  0  0  0  0  0
  141.2640   78.1770  222.1140 C   0  0  0  0  0  0  0  0  0  0  0  0
  140.1910   77.2170  222.1310 N   0  0  0  0  0  0  0  0  0  0  0  0
  140.3400   76.0100  221.4150 C   0  0  0  0  0  0  0  0  0  0  0  0
  141.4290   75.8520  220.7870 O   0  0  0  0  0  0  0  0  0  0  0  0
  139.3530   74.9310  221.3300 C   0  0  0  0  0  0  0  0  0  0  0  0
  139.5000   73.8950  222.3110 N   0  0  0  0  0  0  0  0  0  0  0  0
  139.5610   72.5170  221.9640 C   0  0  0  0  0  0  0  0  0  0  0  0
  139.4870   72.0930  220.7810 O   0  0  0  0  0  0  0  0  0  0  0  0
  139.7200   71.5240  223.0410 C   0  0  0  0  0  0  0  0  0  0  0  0
  139.3780   70.2140  222.8670 C   0  0  0  0  0  0  0  0  0  0  0  0
  139.5300   69.2940  223.8830 C   0  0  0  0  0  0  0  0  0  0  0  0
  140.0380   69.7120  225.0890 C   0  0  0  0  0  0  0  0  0  0  0  0
  140.2200   68.8420  226.1530 C   0  0  0  0  0  0  0  0  0  0  0  0
  140.7380   69.2990  227.3690 C   0  0  0  0  0  0  0  0  0  0  0  0
  140.9570   68.1700  228.7050 Cl  0  0  0  0  0  0  0  0  0  0  0  0
  141.0810   70.6420  227.5260 C   0  0  0  0  0  0  0  0  0  0  0  0
  140.9010   71.5190  226.4580 C   0  0  0  0  0  0  0  0  0  0  0  0
  140.3860   71.0350  225.2700 C   0  0  0  0  0  0  0  0  0  0  0  0
  140.2140   71.8860  224.2420 N   0  0  0  0  0  0  0  0  0  0  0  0
  142.9530   80.8291  224.9352 H   0  0  0  0  0  0  0  0  0  0  0  0
  143.6750   80.1738  223.4266 H   0  0  0  0  0  0  0  0  0  0  0  0
  142.9198   81.8036  223.4266 H   0  0  0  0  0  0  0  0  0  0  0  0
  140.7604   80.4341  224.2161 H   0  0  0  0  0  0  0  0  0  0  0  0
  141.1757   80.5313  222.4909 H   0  0  0  0  0  0  0  0  0  0  0  0
  142.7922   78.4045  223.5857 H   0  0  0  0  0  0  0  0  0  0  0  0
  141.1687   78.1567  224.2580 H   0  0  0  0  0  0  0  0  0  0  0  0
  140.9234   79.0553  221.5460 H   0  0  0  0  0  0  0  0  0  0  0  0
  142.1230   77.6602  221.6612 H   0  0  0  0  0  0  0  0  0  0  0  0
  139.3100   77.3970  222.6500 H   0  0  0  0  0  0  0  0  0  0  0  0
  138.3529   75.3735  221.4486 H   0  0  0  0  0  0  0  0  0  0  0  0
  139.5059   74.4515  220.3519 H   0  0  0  0  0  0  0  0  0  0  0  0
  139.5660   74.1390  223.3400 H   0  0  0  0  0  0  0  0  0  0  0  0
  138.9735   69.8860  221.8981 H   0  0  0  0  0  0  0  0  0  0  0  0
  139.2488   68.2416  223.7301 H   0  0  0  0  0  0  0  0  0  0  0  0
  139.9541   67.7807  226.0395 H   0  0  0  0  0  0  0  0  0  0  0  0
  141.4886   71.0044  228.4813 H   0  0  0  0  0  0  0  0  0  0  0  0
  141.1652   72.5820  226.5590 H   0  0  0  0  0  0  0  0  0  0  0  0
  1  2  1  0
  2  3  1  0
  3  4  1  0
  4  5  1  0
  5  6  1  0
  6  7  2  0
  6  8  1  0
  8  9  1  0
  9 10  1  0
 10 11  2  0
 10 12  1  0
 12 13  2  0
 13 14  1  0
 14 15  2  0
 15 16  1  0
 16 17  2  0
 17 18  1  0
 17 19  1  0
 19 20  2  0
 20 21  1  0
 21 22  2  0
 22 12  1  0
 21 15  1  0
  1 23  1  0
  1 24  1  0
  1 25  1  0
  2 26  1  0
  2 27  1  0
  3 28  1  0
  3 29  1  0
  4 30  1  0
  4 31  1  0
  5 32  1  0
  8 33  1  0
  8 34  1  0
  9 35  1  0
 13 36  1  0
 14 37  1  0
 16 38  1  0
 19 39  1  0
 20 40  1  0
M  END
>  <smiles>  (22) 
CCCCNC(=O)CNC(=O)c1ccc2cc(Cl)ccc2n1

>  <score_type>  (22) 
oracle

>  <origin>  (22) 
autodockgpu

>  <m_score__min__energy>  (22) 
-7.6100000000000003

>  <m_primary>  (22) 
energy

>  <rmsd>  (22) 
3.542088707886341

>  <m_score__min__rmsd>  (22) 
3.542088707886341

>  <meeko>  (22) 
{"free_energy": -6.86, "intermolecular_energy": -8.65, "internal_energy": -0.92, "cluster_size": 24, "cluster_id": 1, "rank_in_cluster": 15}

>  <energy>  (22) 
-6.49

>  <cluster_rmsd>  (22) 
1.08

>  <cluster>  (22) 
1

$$$$

     RDKit          3D

 40 41  0  0  0  0  0  0  0  0999 V2000
  141.8480   81.3010  223.4740 C   0  0  0  0  0  0  0  0  0  0  0  0
  142.6850   80.0310  223.4640 C   0  0  0  0  0  0  0  0  0  0  0  0
  142.1610   79.1640  222.3110 C   0  0  0  0  0  0  0  0  0  0  0  0
  141.0700   78.3250  222.8750 C   0  0  0  0  0  0  0  0  0  0  0  0
  141.0260   76.9650  222.4070 N   0  0  0  0  0  0  0  0  0  0  0  0
  139.8240   76.4690  221.8580 C   0  0  0  0  0  0  0  0  0  0  0  0
  138.8430   77.2700  221.8190 O   0  0  0  0  0  0  0  0  0  0  0  0
  139.6090   75.1170  221.3350 C   0  0  0  0  0  0  0  0  0  0  0  0
  139.6700   74.0710  222.3130 N   0  0  0  0  0  0  0  0  0  0  0  0
  139.8690   72.7070  221.9610 C   0  0  0  0  0  0  0  0  0  0  0  0
  140.0020   72.3050  220.7760 O   0  0  0  0  0  0  0  0  0  0  0  0
  139.9270   71.7010  223.0370 C   0  0  0  0  0  0  0  0  0  0  0  0
  139.5000   70.4190  222.8450 C   0  0  0  0  0  0  0  0  0  0  0  0
  139.5570   69.4870  223.8600 C   0  0  0  0  0  0  0  0  0  0  0  0
  140.0550   69.8640  225.0830 C   0  0  0  0  0  0  0  0  0  0  0  0
  140.1430   68.9800  226.1480 C   0  0  0  0  0  0  0  0  0  0  0  0
  140.6540   69.3950  227.3820 C   0  0  0  0  0  0  0  0  0  0  0  0
  140.7530   68.2500  228.7170 Cl  0  0  0  0  0  0  0  0  0  0  0  0
  141.0840   70.7110  227.5560 C   0  0  0  0  0  0  0  0  0  0  0  0
  140.9980   71.6020  226.4880 C   0  0  0  0  0  0  0  0  0  0  0  0
  140.4880   71.1590  225.2830 C   0  0  0  0  0  0  0  0  0  0  0  0
  140.4060   72.0240  224.2550 N   0  0  0  0  0  0  0  0  0  0  0  0
  141.6500   81.6015  224.5135 H   0  0  0  0  0  0  0  0  0  0  0  0
  142.3943   82.1042  222.9579 H   0  0  0  0  0  0  0  0  0  0  0  0
  140.8944   81.1158  222.9579 H   0  0  0  0  0  0  0  0  0  0  0  0
  143.7447   80.2771  223.3015 H   0  0  0  0  0  0  0  0  0  0  0  0
  142.6078   79.4997  224.4241 H   0  0  0  0  0  0  0  0  0  0  0  0
  141.7715   79.8010  221.5032 H   0  0  0  0  0  0  0  0  0  0  0  0
  142.9620   78.5415  221.8858 H   0  0  0  0  0  0  0  0  0  0  0  0
  141.1908   78.3029  223.9681 H   0  0  0  0  0  0  0  0  0  0  0  0
  140.1303   78.7888  222.5405 H   0  0  0  0  0  0  0  0  0  0  0  0
  141.8520   76.3410  222.4730 H   0  0  0  0  0  0  0  0  0  0  0  0
  138.6147   75.0872  220.8654 H   0  0  0  0  0  0  0  0  0  0  0  0
  140.4316   74.9263  220.6301 H   0  0  0  0  0  0  0  0  0  0  0  0
  139.5650   74.2950  223.3430 H   0  0  0  0  0  0  0  0  0  0  0  0
  139.1030   70.1236  221.8626 H   0  0  0  0  0  0  0  0  0  0  0  0
  139.2088   68.4571  223.6924 H   0  0  0  0  0  0  0  0  0  0  0  0
  139.8070   67.9403  226.0207 H   0  0  0  0  0  0  0  0  0  0  0  0
  141.4862   71.0413  228.5251 H   0  0  0  0  0  0  0  0  0  0  0  0
  141.3317   72.6439  226.6029 H   0  0  0  0  0  0  0  0  0  0  0  0
  1  2  1  0
  2  3  1  0
  3  4  1  0
  4  5  1  0
  5  6  1  0
  6  7  2  0
  6  8  1  0
  8  9  1  0
  9 10  1  0
 10 11  2  0
 10 12  1  0
 12 13  2  0
 13 14  1  0
 14 15  2  0
 15 16  1  0
 16 17  2  0
 17 18  1  0
 17 19  1  0
 19 20  2  0
 20 21  1  0
 21 22  2  0
 22 12  1  0
 21 15  1  0
  1 23  1  0
  1 24  1  0
  1 25  1  0
  2 26  1  0
  2 27  1  0
  3 28  1  0
  3 29  1  0
  4 30  1  0
  4 31  1  0
  5 32  1  0
  8 33  1  0
  8 34  1  0
  9 35  1  0
 13 36  1  0
 14 37  1  0
 16 38  1  0
 19 39  1  0
 20 40  1  0
M  END
>  <smiles>  (23) 
CCCCNC(=O)CNC(=O)c1ccc2cc(Cl)ccc2n1

>  <score_type>  (23) 
oracle

>  <origin>  (23) 
autodockgpu

>  <m_score__min__energy>  (23) 
-7.6100000000000003

>  <m_primary>  (23) 
energy

>  <rmsd>  (23) 
3.676570083317687

>  <m_score__min__rmsd>  (23) 
3.676570083317687

>  <meeko>  (23) 
{"free_energy": -7.48, "intermolecular_energy": -9.27, "internal_energy": -0.86, "cluster_size": 24, "cluster_id": 1, "rank_in_cluster": 6}

>  <energy>  (23) 
-6.37

>  <cluster_rmsd>  (23) 
0.95

>  <cluster>  (23) 
1

$$$$

     RDKit          3D

 40 41  0  0  0  0  0  0  0  0999 V2000
  145.5110   73.0540  221.1440 C   0  0  0  0  0  0  0  0  0  0  0  0
  144.1950   73.5470  220.5610 C   0  0  0  0  0  0  0  0  0  0  0  0
  144.4130   75.0100  220.1480 C   0  0  0  0  0  0  0  0  0  0  0  0
  143.0880   75.5250  219.7090 C   0  0  0  0  0  0  0  0  0  0  0  0
  142.0400   75.4580  220.6920 N   0  0  0  0  0  0  0  0  0  0  0  0
  140.7250   75.1620  220.2710 C   0  0  0  0  0  0  0  0  0  0  0  0
  140.5530   74.9770  219.0300 O   0  0  0  0  0  0  0  0  0  0  0  0
  139.5470   75.0540  221.1360 C   0  0  0  0  0  0  0  0  0  0  0  0
  139.6290   74.0430  222.1500 N   0  0  0  0  0  0  0  0  0  0  0  0
  139.7890   72.6630  221.8410 C   0  0  0  0  0  0  0  0  0  0  0  0
  139.8670   72.2160  220.6680 O   0  0  0  0  0  0  0  0  0  0  0  0
  139.8720   71.6970  222.9510 C   0  0  0  0  0  0  0  0  0  0  0  0
  139.4700   70.4000  222.8060 C   0  0  0  0  0  0  0  0  0  0  0  0
  139.5510   69.5050  223.8520 C   0  0  0  0  0  0  0  0  0  0  0  0
  140.0460   69.9350  225.0590 C   0  0  0  0  0  0  0  0  0  0  0  0
  140.1570   69.0900  226.1530 C   0  0  0  0  0  0  0  0  0  0  0  0
  140.6650   69.5580  227.3690 C   0  0  0  0  0  0  0  0  0  0  0  0
  140.7930   68.4620  228.7430 Cl  0  0  0  0  0  0  0  0  0  0  0  0
  141.0700   70.8870  227.4960 C   0  0  0  0  0  0  0  0  0  0  0  0
  140.9610   71.7390  226.3980 C   0  0  0  0  0  0  0  0  0  0  0  0
  140.4540   71.2440  225.2110 C   0  0  0  0  0  0  0  0  0  0  0  0
  140.3510   72.0710  224.1540 N   0  0  0  0  0  0  0  0  0  0  0  0
  145.4560   73.0746  222.2424 H   0  0  0  0  0  0  0  0  0  0  0  0
  145.6992   72.0244  220.8055 H   0  0  0  0  0  0  0  0  0  0  0  0
  146.3293   73.7065  220.8055 H   0  0  0  0  0  0  0  0  0  0  0  0
  143.9195   72.9430  219.6840 H   0  0  0  0  0  0  0  0  0  0  0  0
  143.3811   73.4615  221.2960 H   0  0  0  0  0  0  0  0  0  0  0  0
  144.7844   75.5951  221.0022 H   0  0  0  0  0  0  0  0  0  0  0  0
  145.1583   75.0901  219.3430 H   0  0  0  0  0  0  0  0  0  0  0  0
  143.2133   76.5786  219.4188 H   0  0  0  0  0  0  0  0  0  0  0  0
  142.7691   74.8720  218.8832 H   0  0  0  0  0  0  0  0  0  0  0  0
  142.2260   75.6310  221.6980 H   0  0  0  0  0  0  0  0  0  0  0  0
  139.3987   76.0241  221.6329 H   0  0  0  0  0  0  0  0  0  0  0  0
  138.7112   74.7654  220.4817 H   0  0  0  0  0  0  0  0  0  0  0  0
  139.5690   74.3070  223.1740 H   0  0  0  0  0  0  0  0  0  0  0  0
  139.0742   70.0628  221.8367 H   0  0  0  0  0  0  0  0  0  0  0  0
  139.2242   68.4628  223.7218 H   0  0  0  0  0  0  0  0  0  0  0  0
  139.8419   68.0399  226.0633 H   0  0  0  0  0  0  0  0  0  0  0  0
  141.4705   71.2581  228.4509 H   0  0  0  0  0  0  0  0  0  0  0  0
  141.2741   72.7907  226.4751 H   0  0  0  0  0  0  0  0  0  0  0  0
  1  2  1  0
  2  3  1  0
  3  4  1  0
  4  5  1  0
  5  6  1  0
  6  7  2  0
  6  8  1  0
  8  9  1  0
  9 10  1  0
 10 11  2  0
 10 12  1  0
 12 13  2  0
 13 14  1  0
 14 15  2  0
 15 16  1  0
 16 17  2  0
 17 18  1  0
 17 19  1  0
 19 20  2  0
 20 21  1  0
 21 22  2  0
 22 12  1  0
 21 15  1  0
  1 23  1  0
  1 24  1  0
  1 25  1  0
  2 26  1  0
  2 27  1  0
  3 28  1  0
  3 29  1  0
  4 30  1  0
  4 31  1  0
  5 32  1  0
  8 33  1  0
  8 34  1  0
  9 35  1  0
 13 36  1  0
 14 37  1  0
 16 38  1  0
 19 39  1  0
 20 40  1  0
M  END
>  <smiles>  (24) 
CCCCNC(=O)CNC(=O)c1ccc2cc(Cl)ccc2n1

>  <score_type>  (24) 
oracle

>  <origin>  (24) 
autodockgpu

>  <m_score__min__energy>  (24) 
-7.6100000000000003

>  <m_primary>  (24) 
energy

>  <rmsd>  (24) 
3.134155497091298

>  <m_score__min__rmsd>  (24) 
3.134155497091298

>  <meeko>  (24) 
{"free_energy": -6.66, "intermolecular_energy": -8.45, "internal_energy": -1.15, "cluster_size": 9, "cluster_id": 2, "rank_in_cluster": 3}

>  <energy>  (24) 
-6.03

>  <cluster_rmsd>  (24) 
1.32

>  <cluster>  (24) 
1

$$$$

     RDKit          3D

 40 41  0  0  0  0  0  0  0  0999 V2000
  142.5550   79.7820  222.7560 C   0  0  0  0  0  0  0  0  0  0  0  0
  141.4290   79.0910  223.5100 C   0  0  0  0  0  0  0  0  0  0  0  0
  140.2100   79.0830  222.5780 C   0  0  0  0  0  0  0  0  0  0  0  0
  140.6690   78.5000  221.2890 C   0  0  0  0  0  0  0  0  0  0  0  0
  139.9440   77.3420  220.8370 N   0  0  0  0  0  0  0  0  0  0  0  0
  139.9840   76.1640  221.6120 C   0  0  0  0  0  0  0  0  0  0  0  0
  140.6740   76.2040  222.6730 O   0  0  0  0  0  0  0  0  0  0  0  0
  139.3040   74.9030  221.3010 C   0  0  0  0  0  0  0  0  0  0  0  0
  139.4490   73.8750  222.2900 N   0  0  0  0  0  0  0  0  0  0  0  0
  139.4210   72.4910  221.9620 C   0  0  0  0  0  0  0  0  0  0  0  0
  139.2640   72.0550  220.7920 O   0  0  0  0  0  0  0  0  0  0  0  0
  139.5860   71.5060  223.0450 C   0  0  0  0  0  0  0  0  0  0  0  0
  139.1970   70.2050  222.8990 C   0  0  0  0  0  0  0  0  0  0  0  0
  139.3550   69.2920  223.9210 C   0  0  0  0  0  0  0  0  0  0  0  0
  139.9170   69.7070  225.1030 C   0  0  0  0  0  0  0  0  0  0  0  0
  140.1080   68.8440  226.1720 C   0  0  0  0  0  0  0  0  0  0  0  0
  140.6820   69.2970  227.3630 C   0  0  0  0  0  0  0  0  0  0  0  0
  140.9110   68.1780  228.7050 Cl  0  0  0  0  0  0  0  0  0  0  0  0
  141.0720   70.6310  227.4920 C   0  0  0  0  0  0  0  0  0  0  0  0
  140.8830   71.5010  226.4200 C   0  0  0  0  0  0  0  0  0  0  0  0
  140.3120   71.0210  225.2560 C   0  0  0  0  0  0  0  0  0  0  0  0
  140.1320   71.8650  224.2240 N   0  0  0  0  0  0  0  0  0  0  0  0
  143.2646   80.2174  223.4750 H   0  0  0  0  0  0  0  0  0  0  0  0
  143.0771   79.0486  222.1239 H   0  0  0  0  0  0  0  0  0  0  0  0
  142.1376   80.5796  222.1239 H   0  0  0  0  0  0  0  0  0  0  0  0
  141.7192   78.0605  223.7626 H   0  0  0  0  0  0  0  0  0  0  0  0
  141.2034   79.6160  224.4499 H   0  0  0  0  0  0  0  0  0  0  0  0
  139.4062   78.4679  223.0087 H   0  0  0  0  0  0  0  0  0  0  0  0
  139.8106   80.0980  222.4361 H   0  0  0  0  0  0  0  0  0  0  0  0
  140.5812   79.2774  220.5157 H   0  0  0  0  0  0  0  0  0  0  0  0
  141.7006   78.1601  221.4629 H   0  0  0  0  0  0  0  0  0  0  0  0
  139.4020   77.3520  219.9510 H   0  0  0  0  0  0  0  0  0  0  0  0
  138.2309   75.1142  221.1835 H   0  0  0  0  0  0  0  0  0  0  0  0
  139.7767   74.5171  220.3857 H   0  0  0  0  0  0  0  0  0  0  0  0
  139.5820   74.1290  223.3090 H   0  0  0  0  0  0  0  0  0  0  0  0
  138.7493   69.8790  221.9486 H   0  0  0  0  0  0  0  0  0  0  0  0
  139.0356   68.2475  223.7910 H   0  0  0  0  0  0  0  0  0  0  0  0
  139.8041   67.7907  226.0813 H   0  0  0  0  0  0  0  0  0  0  0  0
  141.5230   70.9911  228.4284 H   0  0  0  0  0  0  0  0  0  0  0  0
  141.1842   72.5560  226.4989 H   0  0  0  0  0  0  0  0  0  0  0  0
  1  2  1  0
  2  3  1  0
  3  4  1  0
  4  5  1  0
  5  6  1  0
  6  7  2  0
  6  8  1  0
  8  9  1  0
  9 10  1  0
 10 11  2  0
 10 12  1  0
 12 13  2  0
 13 14  1  0
 14 15  2  0
 15 16  1  0
 16 17  2  0
 17 18  1  0
 17 19  1  0
 19 20  2  0
 20 21  1  0
 21 22  2  0
 22 12  1  0
 21 15  1  0
  1 23  1  0
  1 24  1  0
  1 25  1  0
  2 26  1  0
  2 27  1  0
  3 28  1  0
  3 29  1  0
  4 30  1  0
  4 31  1  0
  5 32  1  0
  8 33  1  0
  8 34  1  0
  9 35  1  0
 13 36  1  0
 14 37  1  0
 16 38  1  0
 19 39  1  0
 20 40  1  0
M  END
>  <smiles>  (25) 
CCCCNC(=O)CNC(=O)c1ccc2cc(Cl)ccc2n1

>  <score_type>  (25) 
oracle

>  <origin>  (25) 
autodockgpu

>  <m_score__min__energy>  (25) 
-7.6100000000000003

>  <m_primary>  (25) 
energy

>  <rmsd>  (25) 
3.2234372924482084

>  <m_score__min__rmsd>  (25) 
3.2234372924482084

>  <meeko>  (25) 
{"free_energy": -6.55, "intermolecular_energy": -8.34, "internal_energy": -1.32, "cluster_size": 24, "cluster_id": 1, "rank_in_cluster": 19}

>  <energy>  (25) 
-6.8

>  <cluster_rmsd>  (25) 
0.0

>  <cluster>  (25) 
2

$$$$

     RDKit          3D

 40 41  0  0  0  0  0  0  0  0999 V2000
  142.4820   80.3880  223.0930 C   0  0  0  0  0  0  0  0  0  0  0  0
  141.7870   79.0350  223.0510 C   0  0  0  0  0  0  0  0  0  0  0  0
  141.4350   78.7630  221.5820 C   0  0  0  0  0  0  0  0  0  0  0  0
  139.9520   78.6720  221.5130 C   0  0  0  0  0  0  0  0  0  0  0  0
  139.4290   77.4400  220.9840 N   0  0  0  0  0  0  0  0  0  0  0  0
  139.6920   76.2350  221.6690 C   0  0  0  0  0  0  0  0  0  0  0  0
  140.3900   76.3200  222.7220 O   0  0  0  0  0  0  0  0  0  0  0  0
  139.2360   74.9000  221.2710 C   0  0  0  0  0  0  0  0  0  0  0  0
  139.3980   73.8810  222.2680 N   0  0  0  0  0  0  0  0  0  0  0  0
  139.3200   72.4940  221.9610 C   0  0  0  0  0  0  0  0  0  0  0  0
  139.1010   72.0470  220.8060 O   0  0  0  0  0  0  0  0  0  0  0  0
  139.5080   71.5190  223.0510 C   0  0  0  0  0  0  0  0  0  0  0  0
  139.1390   70.2120  222.9160 C   0  0  0  0  0  0  0  0  0  0  0  0
  139.3180   69.3090  223.9430 C   0  0  0  0  0  0  0  0  0  0  0  0
  139.8800   69.7410  225.1190 C   0  0  0  0  0  0  0  0  0  0  0  0
  140.0910   68.8890  226.1920 C   0  0  0  0  0  0  0  0  0  0  0  0
  140.6660   69.3590  227.3770 C   0  0  0  0  0  0  0  0  0  0  0  0
  140.9210   68.2530  228.7240 Cl  0  0  0  0  0  0  0  0  0  0  0  0
  141.0360   70.7000  227.4930 C   0  0  0  0  0  0  0  0  0  0  0  0
  140.8270   71.5590  226.4170 C   0  0  0  0  0  0  0  0  0  0  0  0
  140.2560   71.0610  225.2600 C   0  0  0  0  0  0  0  0  0  0  0  0
  140.0550   71.8950  224.2230 N   0  0  0  0  0  0  0  0  0  0  0  0
  142.6364   80.6886  224.1398 H   0  0  0  0  0  0  0  0  0  0  0  0
  143.4549   80.3164  222.5848 H   0  0  0  0  0  0  0  0  0  0  0  0
  141.8571   81.1371  222.5848 H   0  0  0  0  0  0  0  0  0  0  0  0
  142.4597   78.2518  223.4306 H   0  0  0  0  0  0  0  0  0  0  0  0
  140.8844   79.0351  223.6798 H   0  0  0  0  0  0  0  0  0  0  0  0
  141.7953   79.5853  220.9464 H   0  0  0  0  0  0  0  0  0  0  0  0
  141.9075   77.8361  221.2248 H   0  0  0  0  0  0  0  0  0  0  0  0
  139.5574   78.7974  222.5321 H   0  0  0  0  0  0  0  0  0  0  0  0
  139.6342   79.4591  220.8133 H   0  0  0  0  0  0  0  0  0  0  0  0
  138.8730   77.4180  220.1080 H   0  0  0  0  0  0  0  0  0  0  0  0
  138.1669   74.9653  221.0206 H   0  0  0  0  0  0  0  0  0  0  0  0
  139.8666   74.6009  220.4208 H   0  0  0  0  0  0  0  0  0  0  0  0
  139.5820   74.1450  223.2770 H   0  0  0  0  0  0  0  0  0  0  0  0
  138.6906   69.8725  221.9707 H   0  0  0  0  0  0  0  0  0  0  0  0
  139.0151   68.2585  223.8218 H   0  0  0  0  0  0  0  0  0  0  0  0
  139.8027   67.8306  226.1104 H   0  0  0  0  0  0  0  0  0  0  0  0
  141.4875   71.0739  228.4237 H   0  0  0  0  0  0  0  0  0  0  0  0
  141.1122   72.6191  226.4864 H   0  0  0  0  0  0  0  0  0  0  0  0
  1  2  1  0
  2  3  1  0
  3  4  1  0
  4  5  1  0
  5  6  1  0
  6  7  2  0
  6  8  1  0
  8  9  1  0
  9 10  1  0
 10 11  2  0
 10 12  1  0
 12 13  2  0
 13 14  1  0
 14 15  2  0
 15 16  1  0
 16 17  2  0
 17 18  1  0
 17 19  1  0
 19 20  2  0
 20 21  1  0
 21 22  2  0
 22 12  1  0
 21 15  1  0
  1 23  1  0
  1 24  1  0
  1 25  1  0
  2 26  1  0
  2 27  1  0
  3 28  1  0
  3 29  1  0
  4 30  1  0
  4 31  1  0
  5 32  1  0
  8 33  1  0
  8 34  1  0
  9 35  1  0
 13 36  1  0
 14 37  1  0
 16 38  1  0
 19 39  1  0
 20 40  1  0
M  END
>  <smiles>  (26) 
CCCCNC(=O)CNC(=O)c1ccc2cc(Cl)ccc2n1

>  <score_type>  (26) 
oracle

>  <origin>  (26) 
autodockgpu

>  <m_score__min__energy>  (26) 
-7.6100000000000003

>  <m_primary>  (26) 
energy

>  <rmsd>  (26) 
3.1478600317683685

>  <m_score__min__rmsd>  (26) 
3.1478600317683685

>  <meeko>  (26) 
{"free_energy": -6.52, "intermolecular_energy": -8.31, "internal_energy": -1.33, "cluster_size": 24, "cluster_id": 1, "rank_in_cluster": 20}

>  <energy>  (26) 
-6.73

>  <cluster_rmsd>  (26) 
0.47

>  <cluster>  (26) 
2

$$$$

     RDKit          3D

 40 41  0  0  0  0  0  0  0  0999 V2000
  141.7750   79.0510  223.9310 C   0  0  0  0  0  0  0  0  0  0  0  0
  141.9850   79.6040  222.5300 C   0  0  0  0  0  0  0  0  0  0  0  0
  140.8160   79.1000  221.6730 C   0  0  0  0  0  0  0  0  0  0  0  0
  141.3970   78.1590  220.6790 C   0  0  0  0  0  0  0  0  0  0  0  0
  140.5590   77.0490  220.3100 N   0  0  0  0  0  0  0  0  0  0  0  0
  140.2990   76.0420  221.2630 C   0  0  0  0  0  0  0  0  0  0  0  0
  140.8370   76.1820  222.4010 O   0  0  0  0  0  0  0  0  0  0  0  0
  139.4700   74.8510  221.0540 C   0  0  0  0  0  0  0  0  0  0  0  0
  139.5620   73.8590  222.0860 N   0  0  0  0  0  0  0  0  0  0  0  0
  139.5500   72.4640  221.8070 C   0  0  0  0  0  0  0  0  0  0  0  0
  139.4540   71.9860  220.6460 O   0  0  0  0  0  0  0  0  0  0  0  0
  139.6580   71.5180  222.9320 C   0  0  0  0  0  0  0  0  0  0  0  0
  139.1960   70.2370  222.8390 C   0  0  0  0  0  0  0  0  0  0  0  0
  139.3010   69.3610  223.9000 C   0  0  0  0  0  0  0  0  0  0  0  0
  139.8830   69.7940  225.0660 C   0  0  0  0  0  0  0  0  0  0  0  0
  140.0230   68.9680  226.1710 C   0  0  0  0  0  0  0  0  0  0  0  0
  140.6200   69.4390  227.3450 C   0  0  0  0  0  0  0  0  0  0  0  0
  140.7830   68.3670  228.7340 Cl  0  0  0  0  0  0  0  0  0  0  0  0
  141.0840   70.7530  227.4180 C   0  0  0  0  0  0  0  0  0  0  0  0
  140.9470   71.5850  226.3090 C   0  0  0  0  0  0  0  0  0  0  0  0
  140.3520   71.0880  225.1640 C   0  0  0  0  0  0  0  0  0  0  0  0
  140.2210   71.8970  224.0970 N   0  0  0  0  0  0  0  0  0  0  0  0
  142.0636   79.8109  224.6722 H   0  0  0  0  0  0  0  0  0  0  0  0
  140.7151   78.7899  224.0671 H   0  0  0  0  0  0  0  0  0  0  0  0
  142.3944   78.1522  224.0671 H   0  0  0  0  0  0  0  0  0  0  0  0
  141.9900   80.7037  222.5540 H   0  0  0  0  0  0  0  0  0  0  0  0
  142.9488   79.2728  222.1159 H   0  0  0  0  0  0  0  0  0  0  0  0
  140.0792   78.5802  222.3030 H   0  0  0  0  0  0  0  0  0  0  0  0
  140.2980   79.9337  221.1764 H   0  0  0  0  0  0  0  0  0  0  0  0
  141.6249   78.7291  219.7663 H   0  0  0  0  0  0  0  0  0  0  0  0
  142.2825   77.7200  221.1619 H   0  0  0  0  0  0  0  0  0  0  0  0
  140.1510   76.9690  219.3580 H   0  0  0  0  0  0  0  0  0  0  0  0
  138.4208   75.1737  220.9836 H   0  0  0  0  0  0  0  0  0  0  0  0
  139.8432   74.3743  220.1356 H   0  0  0  0  0  0  0  0  0  0  0  0
  139.6420   74.1500  223.1010 H   0  0  0  0  0  0  0  0  0  0  0  0
  138.7317   69.8969  221.9016 H   0  0  0  0  0  0  0  0  0  0  0  0
  138.9241   68.3312  223.8131 H   0  0  0  0  0  0  0  0  0  0  0  0
  139.6604   67.9305  226.1238 H   0  0  0  0  0  0  0  0  0  0  0  0
  141.5524   71.1274  228.3402 H   0  0  0  0  0  0  0  0  0  0  0  0
  141.3074   72.6237  226.3438 H   0  0  0  0  0  0  0  0  0  0  0  0
  1  2  1  0
  2  3  1  0
  3  4  1  0
  4  5  1  0
  5  6  1  0
  6  7  2  0
  6  8  1  0
  8  9  1  0
  9 10  1  0
 10 11  2  0
 10 12  1  0
 12 13  2  0
 13 14  1  0
 14 15  2  0
 15 16  1  0
 16 17  2  0
 17 18  1  0
 17 19  1  0
 19 20  2  0
 20 21  1  0
 21 22  2  0
 22 12  1  0
 21 15  1  0
  1 23  1  0
  1 24  1  0
  1 25  1  0
  2 26  1  0
  2 27  1  0
  3 28  1  0
  3 29  1  0
  4 30  1  0
  4 31  1  0
  5 32  1  0
  8 33  1  0
  8 34  1  0
  9 35  1  0
 13 36  1  0
 14 37  1  0
 16 38  1  0
 19 39  1  0
 20 40  1  0
M  END
>  <smiles>  (27) 
CCCCNC(=O)CNC(=O)c1ccc2cc(Cl)ccc2n1

>  <score_type>  (27) 
oracle

>  <origin>  (27) 
autodockgpu

>  <m_score__min__energy>  (27) 
-7.6100000000000003

>  <m_primary>  (27) 
energy

>  <rmsd>  (27) 
2.9988508055223404

>  <m_score__min__rmsd>  (27) 
2.9988508055223404

>  <meeko>  (27) 
{"free_energy": -6.49, "intermolecular_energy": -8.28, "internal_energy": -1.3, "cluster_size": 24, "cluster_id": 1, "rank_in_cluster": 22}

>  <energy>  (27) 
-6.66

>  <cluster_rmsd>  (27) 
0.43

>  <cluster>  (27) 
2

$$$$

     RDKit          3D

 40 41  0  0  0  0  0  0  0  0999 V2000
  145.6120   73.0990  221.1090 C   0  0  0  0  0  0  0  0  0  0  0  0
  144.2980   73.5140  220.4660 C   0  0  0  0  0  0  0  0  0  0  0  0
  144.4330   74.9980  220.0990 C   0  0  0  0  0  0  0  0  0  0  0  0
  143.0930   75.4390  219.6260 C   0  0  0  0  0  0  0  0  0  0  0  0
  142.0500   75.4260  220.6160 N   0  0  0  0  0  0  0  0  0  0  0  0
  140.7470   75.0380  220.2340 C   0  0  0  0  0  0  0  0  0  0  0  0
  140.5810   74.7260  219.0180 O   0  0  0  0  0  0  0  0  0  0  0  0
  139.5760   74.9670  221.1120 C   0  0  0  0  0  0  0  0  0  0  0  0
  139.6340   73.9480  222.1200 N   0  0  0  0  0  0  0  0  0  0  0  0
  139.8810   72.5810  221.8110 C   0  0  0  0  0  0  0  0  0  0  0  0
  140.0630   72.1530  220.6420 O   0  0  0  0  0  0  0  0  0  0  0  0
  139.9300   71.6060  222.9150 C   0  0  0  0  0  0  0  0  0  0  0  0
  139.4910   70.3230  222.7590 C   0  0  0  0  0  0  0  0  0  0  0  0
  139.5410   69.4190  223.8000 C   0  0  0  0  0  0  0  0  0  0  0  0
  140.0430   69.8260  225.0120 C   0  0  0  0  0  0  0  0  0  0  0  0
  140.1230   68.9720  226.1010 C   0  0  0  0  0  0  0  0  0  0  0  0
  140.6390   69.4160  227.3220 C   0  0  0  0  0  0  0  0  0  0  0  0
  140.7290   68.3080  228.6890 Cl  0  0  0  0  0  0  0  0  0  0  0  0
  141.0820   70.7330  227.4600 C   0  0  0  0  0  0  0  0  0  0  0  0
  141.0030   71.5940  226.3670 C   0  0  0  0  0  0  0  0  0  0  0  0
  140.4870   71.1220  225.1750 C   0  0  0  0  0  0  0  0  0  0  0  0
  140.4130   71.9580  224.1230 N   0  0  0  0  0  0  0  0  0  0  0  0
  145.5107   73.1310  222.2038 H   0  0  0  0  0  0  0  0  0  0  0  0
  145.8674   72.0764  220.7941 H   0  0  0  0  0  0  0  0  0  0  0  0
  146.4084   73.7893  220.7941 H   0  0  0  0  0  0  0  0  0  0  0  0
  144.1133   72.9156  219.5617 H   0  0  0  0  0  0  0  0  0  0  0  0
  143.4542   73.3525  221.1529 H   0  0  0  0  0  0  0  0  0  0  0  0
  144.7359   75.5816  220.9808 H   0  0  0  0  0  0  0  0  0  0  0  0
  145.1983   75.1482  219.3233 H   0  0  0  0  0  0  0  0  0  0  0  0
  143.1889   76.4678  219.2487 H   0  0  0  0  0  0  0  0  0  0  0  0
  142.7896   74.7109  218.8593 H   0  0  0  0  0  0  0  0  0  0  0  0
  142.2300   75.7030  221.6000 H   0  0  0  0  0  0  0  0  0  0  0  0
  139.4678   75.9390  221.6155 H   0  0  0  0  0  0  0  0  0  0  0  0
  138.7230   74.7118  220.4661 H   0  0  0  0  0  0  0  0  0  0  0  0
  139.4890   74.1960  223.1390 H   0  0  0  0  0  0  0  0  0  0  0  0
  139.0901   70.0040  221.7856 H   0  0  0  0  0  0  0  0  0  0  0  0
  139.1842   68.3877  223.6614 H   0  0  0  0  0  0  0  0  0  0  0  0
  139.7763   67.9326  226.0032 H   0  0  0  0  0  0  0  0  0  0  0  0
  141.4882   71.0864  228.4192 H   0  0  0  0  0  0  0  0  0  0  0  0
  141.3468   72.6354  226.4519 H   0  0  0  0  0  0  0  0  0  0  0  0
  1  2  1  0
  2  3  1  0
  3  4  1  0
  4  5  1  0
  5  6  1  0
  6  7  2  0
  6  8  1  0
  8  9  1  0
  9 10  1  0
 10 11  2  0
 10 12  1  0
 12 13  2  0
 13 14  1  0
 14 15  2  0
 15 16  1  0
 16 17  2  0
 17 18  1  0
 17 19  1  0
 19 20  2  0
 20 21  1  0
 21 22  2  0
 22 12  1  0
 21 15  1  0
  1 23  1  0
  1 24  1  0
  1 25  1  0
  2 26  1  0
  2 27  1  0
  3 28  1  0
  3 29  1  0
  4 30  1  0
  4 31  1  0
  5 32  1  0
  8 33  1  0
  8 34  1  0
  9 35  1  0
 13 36  1  0
 14 37  1  0
 16 38  1  0
 19 39  1  0
 20 40  1  0
M  END
>  <smiles>  (28) 
CCCCNC(=O)CNC(=O)c1ccc2cc(Cl)ccc2n1

>  <score_type>  (28) 
oracle

>  <origin>  (28) 
autodockgpu

>  <m_score__min__energy>  (28) 
-7.6100000000000003

>  <m_primary>  (28) 
energy

>  <rmsd>  (28) 
3.1280270164957416

>  <m_score__min__rmsd>  (28) 
3.1280270164957416

>  <meeko>  (28) 
{"free_energy": -6.73, "intermolecular_energy": -8.52, "internal_energy": -1.09, "cluster_size": 9, "cluster_id": 2, "rank_in_cluster": 2}

>  <energy>  (28) 
-6.5

>  <cluster_rmsd>  (28) 
0.6

>  <cluster>  (28) 
2

$$$$

     RDKit          3D

 40 41  0  0  0  0  0  0  0  0999 V2000
  141.0380   72.1830  227.5900 C   0  0  0  0  0  0  0  0  0  0  0  0
  141.0650   71.2180  226.4140 C   0  0  0  0  0  0  0  0  0  0  0  0
  140.8040   69.8170  226.9830 C   0  0  0  0  0  0  0  0  0  0  0  0
  140.4790   68.9440  225.8230 C   0  0  0  0  0  0  0  0  0  0  0  0
  139.9390   69.6180  224.6720 N   0  0  0  0  0  0  0  0  0  0  0  0
  138.5690   69.9570  224.6570 C   0  0  0  0  0  0  0  0  0  0  0  0
  137.8920   69.6340  225.6780 O   0  0  0  0  0  0  0  0  0  0  0  0
  137.8620   70.6430  223.5720 C   0  0  0  0  0  0  0  0  0  0  0  0
  138.4700   71.8630  223.1270 N   0  0  0  0  0  0  0  0  0  0  0  0
  139.6840   71.8840  222.3850 C   0  0  0  0  0  0  0  0  0  0  0  0
  140.3220   70.8490  222.0630 O   0  0  0  0  0  0  0  0  0  0  0  0
  140.2300   73.1860  221.9630 C   0  0  0  0  0  0  0  0  0  0  0  0
  141.3590   73.2790  221.2000 C   0  0  0  0  0  0  0  0  0  0  0  0
  141.8610   74.5030  220.8120 C   0  0  0  0  0  0  0  0  0  0  0  0
  141.2070   75.6450  221.2030 C   0  0  0  0  0  0  0  0  0  0  0  0
  141.6540   76.9090  220.8490 C   0  0  0  0  0  0  0  0  0  0  0  0
  140.9660   78.0540  221.2640 C   0  0  0  0  0  0  0  0  0  0  0  0
  141.5590   79.6470  220.7990 Cl  0  0  0  0  0  0  0  0  0  0  0  0
  139.8140   77.9370  222.0430 C   0  0  0  0  0  0  0  0  0  0  0  0
  139.3610   76.6680  222.4000 C   0  0  0  0  0  0  0  0  0  0  0  0
  140.0650   75.5580  221.9740 C   0  0  0  0  0  0  0  0  0  0  0  0
  139.6230   74.3350  222.3220 N   0  0  0  0  0  0  0  0  0  0  0  0
  141.0539   71.6143  228.5314 H   0  0  0  0  0  0  0  0  0  0  0  0
  141.9181   72.8413  227.5444 H   0  0  0  0  0  0  0  0  0  0  0  0
  140.1225   72.7911  227.5444 H   0  0  0  0  0  0  0  0  0  0  0  0
  140.2822   71.4837  225.6883 H   0  0  0  0  0  0  0  0  0  0  0  0
  142.0330   71.2581  225.8931 H   0  0  0  0  0  0  0  0  0  0  0  0
  141.7002   69.4438  227.5002 H   0  0  0  0  0  0  0  0  0  0  0  0
  139.9814   69.8310  227.7132 H   0  0  0  0  0  0  0  0  0  0  0  0
  141.4029   68.4332  225.5140 H   0  0  0  0  0  0  0  0  0  0  0  0
  139.6897   68.2613  226.1708 H   0  0  0  0  0  0  0  0  0  0  0  0
  140.5300   69.8510  223.8510 H   0  0  0  0  0  0  0  0  0  0  0  0
  137.8064   69.9570  222.7139 H   0  0  0  0  0  0  0  0  0  0  0  0
  136.8768   70.9204  223.9749 H   0  0  0  0  0  0  0  0  0  0  0  0
  138.0190   72.7960  223.3460 H   0  0  0  0  0  0  0  0  0  0  0  0
  141.8775   72.3600  220.8892 H   0  0  0  0  0  0  0  0  0  0  0  0
  142.7719   74.5637  220.1983 H   0  0  0  0  0  0  0  0  0  0  0  0
  142.5605   77.0125  220.2345 H   0  0  0  0  0  0  0  0  0  0  0  0
  139.2702   78.8351  222.3712 H   0  0  0  0  0  0  0  0  0  0  0  0
  138.4549   76.5518  223.0128 H   0  0  0  0  0  0  0  0  0  0  0  0
  1  2  1  0
  2  3  1  0
  3  4  1  0
  4  5  1  0
  5  6  1  0
  6  7  2  0
  6  8  1  0
  8  9  1  0
  9 10  1  0
 10 11  2  0
 10 12  1  0
 12 13  2  0
 13 14  1  0
 14 15  2  0
 15 16  1  0
 16 17  2  0
 17 18  1  0
 17 19  1  0
 19 20  2  0
 20 21  1  0
 21 22  2  0
 22 12  1  0
 21 15  1  0
  1 23  1  0
  1 24  1  0
  1 25  1  0
  2 26  1  0
  2 27  1  0
  3 28  1  0
  3 29  1  0
  4 30  1  0
  4 31  1  0
  5 32  1  0
  8 33  1  0
  8 34  1  0
  9 35  1  0
 13 36  1  0
 14 37  1  0
 16 38  1  0
 19 39  1  0
 20 40  1  0
M  END
>  <smiles>  (29) 
CCCCNC(=O)CNC(=O)c1ccc2cc(Cl)ccc2n1

>  <score_type>  (29) 
oracle

>  <origin>  (29) 
autodockgpu

>  <m_score__min__energy>  (29) 
-7.6100000000000003

>  <m_primary>  (29) 
energy

>  <rmsd>  (29) 
7.916805365859351

>  <m_score__min__rmsd>  (29) 
7.916805365859351

>  <meeko>  (29) 
{"free_energy": -5.96, "intermolecular_energy": -7.75, "internal_energy": -1.97, "cluster_size": 10, "cluster_id": 3, "rank_in_cluster": 7}

>  <energy>  (29) 
-6.48

>  <cluster_rmsd>  (29) 
0.53

>  <cluster>  (29) 
2

$$$$

     RDKit          3D

 40 41  0  0  0  0  0  0  0  0999 V2000
  139.9380   69.5780  228.1350 C   0  0  0  0  0  0  0  0  0  0  0  0
  140.3540   68.3560  227.3290 C   0  0  0  0  0  0  0  0  0  0  0  0
  141.0990   68.8750  226.0910 C   0  0  0  0  0  0  0  0  0  0  0  0
  140.9320   70.3530  226.0870 C   0  0  0  0  0  0  0  0  0  0  0  0
  140.4660   70.9210  224.8500 N   0  0  0  0  0  0  0  0  0  0  0  0
  139.1490   70.6450  224.4230 C   0  0  0  0  0  0  0  0  0  0  0  0
  138.4550   69.8950  225.1710 O   0  0  0  0  0  0  0  0  0  0  0  0
  138.5180   71.1420  223.1980 C   0  0  0  0  0  0  0  0  0  0  0  0
  139.0310   72.3910  222.7140 N   0  0  0  0  0  0  0  0  0  0  0  0
  140.3430   72.5220  222.1800 C   0  0  0  0  0  0  0  0  0  0  0  0
  141.1580   71.5670  222.0920 O   0  0  0  0  0  0  0  0  0  0  0  0
  140.7800   73.8450  221.7000 C   0  0  0  0  0  0  0  0  0  0  0  0
  141.7640   73.9790  220.7620 C   0  0  0  0  0  0  0  0  0  0  0  0
  142.1660   75.2230  220.3210 C   0  0  0  0  0  0  0  0  0  0  0  0
  141.5590   76.3410  220.8390 C   0  0  0  0  0  0  0  0  0  0  0  0
  141.9120   77.6220  220.4410 C   0  0  0  0  0  0  0  0  0  0  0  0
  141.2760   78.7410  220.9870 C   0  0  0  0  0  0  0  0  0  0  0  0
  141.7450   80.3560  220.4630 Cl  0  0  0  0  0  0  0  0  0  0  0  0
  140.2730   78.5810  221.9440 C   0  0  0  0  0  0  0  0  0  0  0  0
  139.9150   77.2950  222.3460 C   0  0  0  0  0  0  0  0  0  0  0  0
  140.5640   76.2110  221.7860 C   0  0  0  0  0  0  0  0  0  0  0  0
  140.2160   74.9720  222.1780 N   0  0  0  0  0  0  0  0  0  0  0  0
  140.0148   69.3525  229.2089 H   0  0  0  0  0  0  0  0  0  0  0  0
  140.5995   70.4219  227.8893 H   0  0  0  0  0  0  0  0  0  0  0  0
  138.8990   69.8430  227.8893 H   0  0  0  0  0  0  0  0  0  0  0  0
  141.0165   67.7143  227.9285 H   0  0  0  0  0  0  0  0  0  0  0  0
  139.4783   67.7561  227.0405 H   0  0  0  0  0  0  0  0  0  0  0  0
  142.1657   68.6132  226.1518 H   0  0  0  0  0  0  0  0  0  0  0  0
  140.6996   68.4269  225.1692 H   0  0  0  0  0  0  0  0  0  0  0  0
  140.2087   70.6143  226.8735 H   0  0  0  0  0  0  0  0  0  0  0  0
  141.9364   70.7705  226.2512 H   0  0  0  0  0  0  0  0  0  0  0  0
  141.0770   71.5200  224.2620 H   0  0  0  0  0  0  0  0  0  0  0  0
  138.6602   70.3870  222.4107 H   0  0  0  0  0  0  0  0  0  0  0  0
  137.4616   71.3203  223.4476 H   0  0  0  0  0  0  0  0  0  0  0  0
  138.4310   73.2630  222.7460 H   0  0  0  0  0  0  0  0  0  0  0  0
  142.2445   73.0789  220.3509 H   0  0  0  0  0  0  0  0  0  0  0  0
  142.9604   75.3180  219.5661 H   0  0  0  0  0  0  0  0  0  0  0  0
  142.7013   77.7591  219.6872 H   0  0  0  0  0  0  0  0  0  0  0  0
  139.7708   79.4592  222.3760 H   0  0  0  0  0  0  0  0  0  0  0  0
  139.1268   77.1452  223.0985 H   0  0  0  0  0  0  0  0  0  0  0  0
  1  2  1  0
  2  3  1  0
  3  4  1  0
  4  5  1  0
  5  6  1  0
  6  7  2  0
  6  8  1  0
  8  9  1  0
  9 10  1  0
 10 11  2  0
 10 12  1  0
 12 13  2  0
 13 14  1  0
 14 15  2  0
 15 16  1  0
 16 17  2  0
 17 18  1  0
 17 19  1  0
 19 20  2  0
 20 21  1  0
 21 22  2  0
 22 12  1  0
 21 15  1  0
  1 23  1  0
  1 24  1  0
  1 25  1  0
  2 26  1  0
  2 27  1  0
  3 28  1  0
  3 29  1  0
  4 30  1  0
  4 31  1  0
  5 32  1  0
  8 33  1  0
  8 34  1  0
  9 35  1  0
 13 36  1  0
 14 37  1  0
 16 38  1  0
 19 39  1  0
 20 40  1  0
M  END
>  <smiles>  (30) 
CCCCNC(=O)CNC(=O)c1ccc2cc(Cl)ccc2n1

>  <score_type>  (30) 
oracle

>  <origin>  (30) 
autodockgpu

>  <m_score__min__energy>  (30) 
-7.6100000000000003

>  <m_primary>  (30) 
energy

>  <rmsd>  (30) 
8.619974007913902

>  <m_score__min__rmsd>  (30) 
8.619974007913902

>  <meeko>  (30) 
{"free_energy": -6.03, "intermolecular_energy": -7.82, "internal_energy": -1.72, "cluster_size": 10, "cluster_id": 3, "rank_in_cluster": 3}

>  <energy>  (30) 
-6.47

>  <cluster_rmsd>  (30) 
0.51

>  <cluster>  (30) 
2

$$$$

     RDKit          3D

 40 41  0  0  0  0  0  0  0  0999 V2000
  140.4810   68.9680  227.9210 C   0  0  0  0  0  0  0  0  0  0  0  0
  140.0500   70.4260  227.9700 C   0  0  0  0  0  0  0  0  0  0  0  0
  141.0420   71.2110  227.0990 C   0  0  0  0  0  0  0  0  0  0  0  0
  141.2410   70.4110  225.8610 C   0  0  0  0  0  0  0  0  0  0  0  0
  140.7250   70.9980  224.6530 N   0  0  0  0  0  0  0  0  0  0  0  0
  139.3850   70.7450  224.2870 C   0  0  0  0  0  0  0  0  0  0  0  0
  138.7150   69.9980  225.0610 O   0  0  0  0  0  0  0  0  0  0  0  0
  138.7040   71.2630  223.0980 C   0  0  0  0  0  0  0  0  0  0  0  0
  139.1730   72.5380  222.6360 N   0  0  0  0  0  0  0  0  0  0  0  0
  140.4540   72.7110  222.0420 C   0  0  0  0  0  0  0  0  0  0  0  0
  141.2770   71.7730  221.8770 O   0  0  0  0  0  0  0  0  0  0  0  0
  140.8460   74.0570  221.5900 C   0  0  0  0  0  0  0  0  0  0  0  0
  141.7950   74.2430  220.6260 C   0  0  0  0  0  0  0  0  0  0  0  0
  142.1550   75.5080  220.2120 C   0  0  0  0  0  0  0  0  0  0  0  0
  141.5420   76.5960  220.7850 C   0  0  0  0  0  0  0  0  0  0  0  0
  141.8530   77.8960  220.4170 C   0  0  0  0  0  0  0  0  0  0  0  0
  141.2120   78.9830  221.0190 C   0  0  0  0  0  0  0  0  0  0  0  0
  141.6290   80.6240  220.5320 Cl  0  0  0  0  0  0  0  0  0  0  0  0
  140.2460   78.7700  222.0030 C   0  0  0  0  0  0  0  0  0  0  0  0
  139.9300   77.4650  222.3750 C   0  0  0  0  0  0  0  0  0  0  0  0
  140.5830   76.4140  221.7600 C   0  0  0  0  0  0  0  0  0  0  0  0
  140.2740   75.1550  222.1230 N   0  0  0  0  0  0  0  0  0  0  0  0
  140.5944   68.5845  228.9457 H   0  0  0  0  0  0  0  0  0  0  0  0
  139.7189   68.3780  227.3909 H   0  0  0  0  0  0  0  0  0  0  0  0
  141.4415   68.8872  227.3909 H   0  0  0  0  0  0  0  0  0  0  0  0
  139.0299   70.5330  227.5725 H   0  0  0  0  0  0  0  0  0  0  0  0
  140.0480   70.8027  229.0035 H   0  0  0  0  0  0  0  0  0  0  0  0
  140.6296   72.2000  226.8503 H   0  0  0  0  0  0  0  0  0  0  0  0
  141.9939   71.3719  227.6263 H   0  0  0  0  0  0  0  0  0  0  0  0
  142.3219   70.2567  225.7276 H   0  0  0  0  0  0  0  0  0  0  0  0
  140.6744   69.4799  226.0095 H   0  0  0  0  0  0  0  0  0  0  0  0
  141.3160   71.5930  224.0420 H   0  0  0  0  0  0  0  0  0  0  0  0
  138.8379   70.5351  222.2842 H   0  0  0  0  0  0  0  0  0  0  0  0
  137.6524   71.4089  223.3860 H   0  0  0  0  0  0  0  0  0  0  0  0
  138.5620   73.3980  222.7310 H   0  0  0  0  0  0  0  0  0  0  0  0
  142.2813   73.3674  220.1713 H   0  0  0  0  0  0  0  0  0  0  0  0
  142.9214   75.6441  219.4347 H   0  0  0  0  0  0  0  0  0  0  0  0
  142.6131   78.0744  219.6422 H   0  0  0  0  0  0  0  0  0  0  0  0
  139.7398   79.6225  222.4795 H   0  0  0  0  0  0  0  0  0  0  0  0
  139.1709   77.2740  223.1479 H   0  0  0  0  0  0  0  0  0  0  0  0
  1  2  1  0
  2  3  1  0
  3  4  1  0
  4  5  1  0
  5  6  1  0
  6  7  2  0
  6  8  1  0
  8  9  1  0
  9 10  1  0
 10 11  2  0
 10 12  1  0
 12 13  2  0
 13 14  1  0
 14 15  2  0
 15 16  1  0
 16 17  2  0
 17 18  1  0
 17 19  1  0
 19 20  2  0
 20 21  1  0
 21 22  2  0
 22 12  1  0
 21 15  1  0
  1 23  1  0
  1 24  1  0
  1 25  1  0
  2 26  1  0
  2 27  1  0
  3 28  1  0
  3 29  1  0
  4 30  1  0
  4 31  1  0
  5 32  1  0
  8 33  1  0
  8 34  1  0
  9 35  1  0
 13 36  1  0
 14 37  1  0
 16 38  1  0
 19 39  1  0
 20 40  1  0
M  END
>  <smiles>  (31) 
CCCCNC(=O)CNC(=O)c1ccc2cc(Cl)ccc2n1

>  <score_type>  (31) 
oracle

>  <origin>  (31) 
autodockgpu

>  <m_score__min__energy>  (31) 
-7.6100000000000003

>  <m_primary>  (31) 
energy

>  <rmsd>  (31) 
8.474312155853342

>  <m_score__min__rmsd>  (31) 
8.474312155853342

>  <meeko>  (31) 
{"free_energy": -6.23, "intermolecular_energy": -8.02, "internal_energy": -1.75, "cluster_size": 7, "cluster_id": 4, "rank_in_cluster": 2}

>  <energy>  (31) 
-6.4

>  <cluster_rmsd>  (31) 
0.6

>  <cluster>  (31) 
2

$$$$

     RDKit          3D

 40 41  0  0  0  0  0  0  0  0999 V2000
  140.6620   71.8410  228.2990 C   0  0  0  0  0  0  0  0  0  0  0  0
  141.1060   71.2610  226.9640 C   0  0  0  0  0  0  0  0  0  0  0  0
  140.8920   69.7440  227.0470 C   0  0  0  0  0  0  0  0  0  0  0  0
  140.6690   69.2730  225.6530 C   0  0  0  0  0  0  0  0  0  0  0  0
  139.9720   70.1910  224.7920 N   0  0  0  0  0  0  0  0  0  0  0  0
  138.6660   69.8710  224.3640 C   0  0  0  0  0  0  0  0  0  0  0  0
  138.1880   68.7700  224.7710 O   0  0  0  0  0  0  0  0  0  0  0  0
  137.8180   70.6900  223.4930 C   0  0  0  0  0  0  0  0  0  0  0  0
  138.4180   71.9090  223.0350 N   0  0  0  0  0  0  0  0  0  0  0  0
  139.7070   71.9480  222.4340 C   0  0  0  0  0  0  0  0  0  0  0  0
  140.4250   70.9290  222.2590 O   0  0  0  0  0  0  0  0  0  0  0  0
  140.2380   73.2480  221.9860 C   0  0  0  0  0  0  0  0  0  0  0  0
  141.3540   73.3370  221.2060 C   0  0  0  0  0  0  0  0  0  0  0  0
  141.8430   74.5590  220.7940 C   0  0  0  0  0  0  0  0  0  0  0  0
  141.1880   75.7020  221.1800 C   0  0  0  0  0  0  0  0  0  0  0  0
  141.6220   76.9640  220.8020 C   0  0  0  0  0  0  0  0  0  0  0  0
  140.9330   78.1100  221.2120 C   0  0  0  0  0  0  0  0  0  0  0  0
  141.5080   79.7000  220.7170 Cl  0  0  0  0  0  0  0  0  0  0  0  0
  139.7940   77.9960  222.0100 C   0  0  0  0  0  0  0  0  0  0  0  0
  139.3540   76.7300  222.3910 C   0  0  0  0  0  0  0  0  0  0  0  0
  140.0590   75.6180  221.9690 C   0  0  0  0  0  0  0  0  0  0  0  0
  139.6300   74.3970  222.3390 N   0  0  0  0  0  0  0  0  0  0  0  0
  141.1081   71.2583  229.1185 H   0  0  0  0  0  0  0  0  0  0  0  0
  140.9917   72.8879  228.3718 H   0  0  0  0  0  0  0  0  0  0  0  0
  139.5653   71.7960  228.3718 H   0  0  0  0  0  0  0  0  0  0  0  0
  140.5026   71.6845  226.1476 H   0  0  0  0  0  0  0  0  0  0  0  0
  142.1602   71.5005  226.7605 H   0  0  0  0  0  0  0  0  0  0  0  0
  141.7808   69.2575  227.4751 H   0  0  0  0  0  0  0  0  0  0  0  0
  140.0361   69.4973  227.6925 H   0  0  0  0  0  0  0  0  0  0  0  0
  141.6518   69.0671  225.2038 H   0  0  0  0  0  0  0  0  0  0  0  0
  140.0232   68.3862  225.7340 H   0  0  0  0  0  0  0  0  0  0  0  0
  140.4100   71.0770  224.4720 H   0  0  0  0  0  0  0  0  0  0  0  0
  137.5525   70.0881  222.6114 H   0  0  0  0  0  0  0  0  0  0  0  0
  136.9484   70.9842  224.0991 H   0  0  0  0  0  0  0  0  0  0  0  0
  137.9030   72.8290  223.1370 H   0  0  0  0  0  0  0  0  0  0  0  0
  141.8734   72.4169  220.9000 H   0  0  0  0  0  0  0  0  0  0  0  0
  142.7441   74.6169  220.1657 H   0  0  0  0  0  0  0  0  0  0  0  0
  142.5184   77.0647  220.1725 H   0  0  0  0  0  0  0  0  0  0  0  0
  139.2498   78.8952  222.3345 H   0  0  0  0  0  0  0  0  0  0  0  0
  138.4580   76.6168  223.0190 H   0  0  0  0  0  0  0  0  0  0  0  0
  1  2  1  0
  2  3  1  0
  3  4  1  0
  4  5  1  0
  5  6  1  0
  6  7  2  0
  6  8  1  0
  8  9  1  0
  9 10  1  0
 10 11  2  0
 10 12  1  0
 12 13  2  0
 13 14  1  0
 14 15  2  0
 15 16  1  0
 16 17  2  0
 17 18  1  0
 17 19  1  0
 19 20  2  0
 20 21  1  0
 21 22  2  0
 22 12  1  0
 21 15  1  0
  1 23  1  0
  1 24  1  0
  1 25  1  0
  2 26  1  0
  2 27  1  0
  3 28  1  0
  3 29  1  0
  4 30  1  0
  4 31  1  0
  5 32  1  0
  8 33  1  0
  8 34  1  0
  9 35  1  0
 13 36  1  0
 14 37  1  0
 16 38  1  0
 19 39  1  0
 20 40  1  0
M  END
>  <smiles>  (32) 
CCCCNC(=O)CNC(=O)c1ccc2cc(Cl)ccc2n1

>  <score_type>  (32) 
oracle

>  <origin>  (32) 
autodockgpu

>  <m_score__min__energy>  (32) 
-7.6100000000000003

>  <m_primary>  (32) 
energy

>  <rmsd>  (32) 
7.994176827991113

>  <m_score__min__rmsd>  (32) 
7.994176827991113

>  <meeko>  (32) 
{"free_energy": -6.01, "intermolecular_energy": -7.8, "internal_energy": -1.71, "cluster_size": 10, "cluster_id": 3, "rank_in_cluster": 4}

>  <energy>  (32) 
-6.38

>  <cluster_rmsd>  (32) 
0.66

>  <cluster>  (32) 
2

$$$$

     RDKit          3D

 40 41  0  0  0  0  0  0  0  0999 V2000
  142.1590   81.2060  223.8390 C   0  0  0  0  0  0  0  0  0  0  0  0
  142.6950   79.9500  223.1680 C   0  0  0  0  0  0  0  0  0  0  0  0
  141.8220   78.7830  223.6500 C   0  0  0  0  0  0  0  0  0  0  0  0
  140.8600   78.4960  222.5530 C   0  0  0  0  0  0  0  0  0  0  0  0
  140.9240   77.1680  222.0010 N   0  0  0  0  0  0  0  0  0  0  0  0
  139.7350   76.4170  221.8840 C   0  0  0  0  0  0  0  0  0  0  0  0
  138.6700   76.9720  222.2860 O   0  0  0  0  0  0  0  0  0  0  0  0
  139.6230   75.0590  221.3450 C   0  0  0  0  0  0  0  0  0  0  0  0
  139.6720   74.0110  222.3230 N   0  0  0  0  0  0  0  0  0  0  0  0
  139.9160   72.6530  221.9770 C   0  0  0  0  0  0  0  0  0  0  0  0
  140.1020   72.2580  220.7970 O   0  0  0  0  0  0  0  0  0  0  0  0
  139.9560   71.6470  223.0530 C   0  0  0  0  0  0  0  0  0  0  0  0
  139.5150   70.3690  222.8580 C   0  0  0  0  0  0  0  0  0  0  0  0
  139.5560   69.4360  223.8730 C   0  0  0  0  0  0  0  0  0  0  0  0
  140.0530   69.8070  225.0980 C   0  0  0  0  0  0  0  0  0  0  0  0
  140.1250   68.9220  226.1630 C   0  0  0  0  0  0  0  0  0  0  0  0
  140.6350   69.3300  227.3990 C   0  0  0  0  0  0  0  0  0  0  0  0
  140.7140   68.1830  228.7350 Cl  0  0  0  0  0  0  0  0  0  0  0  0
  141.0800   70.6400  227.5770 C   0  0  0  0  0  0  0  0  0  0  0  0
  141.0100   71.5330  226.5090 C   0  0  0  0  0  0  0  0  0  0  0  0
  140.5000   71.0970  225.3000 C   0  0  0  0  0  0  0  0  0  0  0  0
  140.4340   71.9630  224.2730 N   0  0  0  0  0  0  0  0  0  0  0  0
  142.2093   81.0880  224.9315 H   0  0  0  0  0  0  0  0  0  0  0  0
  142.7661   82.0715  223.5353 H   0  0  0  0  0  0  0  0  0  0  0  0
  141.1140   81.3665  223.5353 H   0  0  0  0  0  0  0  0  0  0  0  0
  142.6278   80.0468  222.0743 H   0  0  0  0  0  0  0  0  0  0  0  0
  143.7517   79.7852  223.4254 H   0  0  0  0  0  0  0  0  0  0  0  0
  142.4454   77.8991  223.8500 H   0  0  0  0  0  0  0  0  0  0  0  0
  141.2979   79.0366  224.5833 H   0  0  0  0  0  0  0  0  0  0  0  0
  139.8439   78.6510  222.9448 H   0  0  0  0  0  0  0  0  0  0  0  0
  141.1286   79.1765  221.7316 H   0  0  0  0  0  0  0  0  0  0  0  0
  141.8240   76.7490  221.6960 H   0  0  0  0  0  0  0  0  0  0  0  0
  138.6645   74.9822  220.8108 H   0  0  0  0  0  0  0  0  0  0  0  0
  140.4989   74.9136  220.6956 H   0  0  0  0  0  0  0  0  0  0  0  0
  139.5230   74.2310  223.3490 H   0  0  0  0  0  0  0  0  0  0  0  0
  139.1199   70.0786  221.8734 H   0  0  0  0  0  0  0  0  0  0  0  0
  139.1961   68.4104  223.7037 H   0  0  0  0  0  0  0  0  0  0  0  0
  139.7767   67.8866  226.0338 H   0  0  0  0  0  0  0  0  0  0  0  0
  141.4813   70.9644  228.5484 H   0  0  0  0  0  0  0  0  0  0  0  0
  141.3558   72.5706  226.6264 H   0  0  0  0  0  0  0  0  0  0  0  0
  1  2  1  0
  2  3  1  0
  3  4  1  0
  4  5  1  0
  5  6  1  0
  6  7  2  0
  6  8  1  0
  8  9  1  0
  9 10  1  0
 10 11  2  0
 10 12  1  0
 12 13  2  0
 13 14  1  0
 14 15  2  0
 15 16  1  0
 16 17  2  0
 17 18  1  0
 17 19  1  0
 19 20  2  0
 20 21  1  0
 21 22  2  0
 22 12  1  0
 21 15  1  0
  1 23  1  0
  1 24  1  0
  1 25  1  0
  2 26  1  0
  2 27  1  0
  3 28  1  0
  3 29  1  0
  4 30  1  0
  4 31  1  0
  5 32  1  0
  8 33  1  0
  8 34  1  0
  9 35  1  0
 13 36  1  0
 14 37  1  0
 16 38  1  0
 19 39  1  0
 20 40  1  0
M  END
>  <smiles>  (33) 
CCCCNC(=O)CNC(=O)c1ccc2cc(Cl)ccc2n1

>  <score_type>  (33) 
oracle

>  <origin>  (33) 
autodockgpu

>  <m_score__min__energy>  (33) 
-7.6100000000000003

>  <m_primary>  (33) 
energy

>  <rmsd>  (33) 
3.6347386292988655

>  <m_score__min__rmsd>  (33) 
3.6347386292988655

>  <meeko>  (33) 
{"free_energy": -7.61, "intermolecular_energy": -9.4, "internal_energy": -0.86, "cluster_size": 24, "cluster_id": 1, "rank_in_cluster": 2}

>  <energy>  (33) 
-6.1

>  <cluster_rmsd>  (33) 
0.79

>  <cluster>  (33) 
2

$$$$

     RDKit          3D

 40 41  0  0  0  0  0  0  0  0999 V2000
  142.9040   80.5070  223.8520 C   0  0  0  0  0  0  0  0  0  0  0  0
  141.9890   80.6890  222.6500 C   0  0  0  0  0  0  0  0  0  0  0  0
  141.8810   79.3200  221.9640 C   0  0  0  0  0  0  0  0  0  0  0  0
  141.2600   78.4000  222.9540 C   0  0  0  0  0  0  0  0  0  0  0  0
  141.0820   77.0420  222.5120 N   0  0  0  0  0  0  0  0  0  0  0  0
  139.8820   76.6850  221.8600 C   0  0  0  0  0  0  0  0  0  0  0  0
  139.0230   77.6030  221.7090 O   0  0  0  0  0  0  0  0  0  0  0  0
  139.5420   75.3550  221.3480 C   0  0  0  0  0  0  0  0  0  0  0  0
  139.6120   74.2970  222.3120 N   0  0  0  0  0  0  0  0  0  0  0  0
  139.8190   72.9380  221.9420 C   0  0  0  0  0  0  0  0  0  0  0  0
  139.9520   72.5530  220.7510 O   0  0  0  0  0  0  0  0  0  0  0  0
  139.8850   71.9200  223.0050 C   0  0  0  0  0  0  0  0  0  0  0  0
  139.4820   70.6330  222.7920 C   0  0  0  0  0  0  0  0  0  0  0  0
  139.5470   69.6880  223.7940 C   0  0  0  0  0  0  0  0  0  0  0  0
  140.0270   70.0570  225.0270 C   0  0  0  0  0  0  0  0  0  0  0  0
  140.1220   69.1600  226.0800 C   0  0  0  0  0  0  0  0  0  0  0  0
  140.6150   69.5670  227.3240 C   0  0  0  0  0  0  0  0  0  0  0  0
  140.7230   68.4050  228.6450 Cl  0  0  0  0  0  0  0  0  0  0  0  0
  141.0210   70.8880  227.5200 C   0  0  0  0  0  0  0  0  0  0  0  0
  140.9280   71.7920  226.4640 C   0  0  0  0  0  0  0  0  0  0  0  0
  140.4360   71.3570  225.2480 C   0  0  0  0  0  0  0  0  0  0  0  0
  140.3480   72.2340  224.2310 N   0  0  0  0  0  0  0  0  0  0  0  0
  142.3210   80.6230  224.7775 H   0  0  0  0  0  0  0  0  0  0  0  0
  143.3511   79.5023  223.8237 H   0  0  0  0  0  0  0  0  0  0  0  0
  143.7015   81.2641  223.8237 H   0  0  0  0  0  0  0  0  0  0  0  0
  140.9952   81.0276  222.9783 H   0  0  0  0  0  0  0  0  0  0  0  0
  142.3897   81.4460  221.9598 H   0  0  0  0  0  0  0  0  0  0  0  0
  141.2503   79.3936  221.0658 H   0  0  0  0  0  0  0  0  0  0  0  0
  142.8689   78.9549  221.6464 H   0  0  0  0  0  0  0  0  0  0  0  0
  141.8993   78.3839  223.8490 H   0  0  0  0  0  0  0  0  0  0  0  0
  140.2490   78.7925  223.1378 H   0  0  0  0  0  0  0  0  0  0  0  0
  141.8100   76.3180  222.6700 H   0  0  0  0  0  0  0  0  0  0  0  0
  138.5145   75.3926  220.9572 H   0  0  0  0  0  0  0  0  0  0  0  0
  140.2941   75.1205  220.5803 H   0  0  0  0  0  0  0  0  0  0  0  0
  139.5070   74.5070  223.3450 H   0  0  0  0  0  0  0  0  0  0  0  0
  139.0982   70.3445  221.8023 H   0  0  0  0  0  0  0  0  0  0  0  0
  139.2195   68.6544  223.6088 H   0  0  0  0  0  0  0  0  0  0  0  0
  139.8060   68.1163  225.9354 H   0  0  0  0  0  0  0  0  0  0  0  0
  141.4098   71.2115  228.4968 H   0  0  0  0  0  0  0  0  0  0  0  0
  141.2419   72.8379  226.5963 H   0  0  0  0  0  0  0  0  0  0  0  0
  1  2  1  0
  2  3  1  0
  3  4  1  0
  4  5  1  0
  5  6  1  0
  6  7  2  0
  6  8  1  0
  8  9  1  0
  9 10  1  0
 10 11  2  0
 10 12  1  0
 12 13  2  0
 13 14  1  0
 14 15  2  0
 15 16  1  0
 16 17  2  0
 17 18  1  0
 17 19  1  0
 19 20  2  0
 20 21  1  0
 21 22  2  0
 22 12  1  0
 21 15  1  0
  1 23  1  0
  1 24  1  0
  1 25  1  0
  2 26  1  0
  2 27  1  0
  3 28  1  0
  3 29  1  0
  4 30  1  0
  4 31  1  0
  5 32  1  0
  8 33  1  0
  8 34  1  0
  9 35  1  0
 13 36  1  0
 14 37  1  0
 16 38  1  0
 19 39  1  0
 20 40  1  0
M  END
>  <smiles>  (34) 
CCCCNC(=O)CNC(=O)c1ccc2cc(Cl)ccc2n1

>  <score_type>  (34) 
oracle

>  <origin>  (34) 
autodockgpu

>  <m_score__min__energy>  (34) 
-7.6100000000000003

>  <m_primary>  (34) 
energy

>  <rmsd>  (34) 
3.5623626538905246

>  <m_score__min__rmsd>  (34) 
3.5623626538905246

>  <meeko>  (34) 
{"free_energy": -7.4, "intermolecular_energy": -9.19, "internal_energy": -0.9, "cluster_size": 24, "cluster_id": 1, "rank_in_cluster": 7}

>  <energy>  (34) 
-6.31

>  <cluster_rmsd>  (34) 
0.0

>  <cluster>  (34) 
3

$$$$

     RDKit          3D

 40 41  0  0  0  0  0  0  0  0999 V2000
  142.9630   80.0400  222.7600 C   0  0  0  0  0  0  0  0  0  0  0  0
  141.9030   80.3900  223.7930 C   0  0  0  0  0  0  0  0  0  0  0  0
  140.7370   79.4150  223.5800 C   0  0  0  0  0  0  0  0  0  0  0  0
  141.2480   78.3340  222.6940 C   0  0  0  0  0  0  0  0  0  0  0  0
  140.3820   77.1950  222.5420 N   0  0  0  0  0  0  0  0  0  0  0  0
  140.5020   76.3940  221.3860 C   0  0  0  0  0  0  0  0  0  0  0  0
  141.3780   76.7430  220.5410 O   0  0  0  0  0  0  0  0  0  0  0  0
  139.7060   75.2030  221.0770 C   0  0  0  0  0  0  0  0  0  0  0  0
  139.7220   74.1830  222.0850 N   0  0  0  0  0  0  0  0  0  0  0  0
  140.0570   72.8300  221.7980 C   0  0  0  0  0  0  0  0  0  0  0  0
  140.3600   72.4160  220.6490 O   0  0  0  0  0  0  0  0  0  0  0  0
  140.0540   71.8530  222.9010 C   0  0  0  0  0  0  0  0  0  0  0  0
  139.5840   70.5820  222.7330 C   0  0  0  0  0  0  0  0  0  0  0  0
  139.5850   69.6760  223.7740 C   0  0  0  0  0  0  0  0  0  0  0  0
  140.0700   70.0690  224.9970 C   0  0  0  0  0  0  0  0  0  0  0  0
  140.1030   69.2120  226.0870 C   0  0  0  0  0  0  0  0  0  0  0  0
  140.6020   69.6410  227.3200 C   0  0  0  0  0  0  0  0  0  0  0  0
  140.6300   68.5290  228.6870 Cl  0  0  0  0  0  0  0  0  0  0  0  0
  141.0770   70.9440  227.4700 C   0  0  0  0  0  0  0  0  0  0  0  0
  141.0470   71.8090  226.3770 C   0  0  0  0  0  0  0  0  0  0  0  0
  140.5460   71.3520  225.1720 C   0  0  0  0  0  0  0  0  0  0  0  0
  140.5190   72.1910  224.1200 N   0  0  0  0  0  0  0  0  0  0  0  0
  143.8874   79.7348  223.2721 H   0  0  0  0  0  0  0  0  0  0  0  0
  142.6025   79.2132  222.1304 H   0  0  0  0  0  0  0  0  0  0  0  0
  143.1657   80.9189  222.1304 H   0  0  0  0  0  0  0  0  0  0  0  0
  142.3113   80.2761  224.8081 H   0  0  0  0  0  0  0  0  0  0  0  0
  141.5712   81.4327  223.6802 H   0  0  0  0  0  0  0  0  0  0  0  0
  140.4117   78.9951  224.5433 H   0  0  0  0  0  0  0  0  0  0  0  0
  139.8707   79.9223  223.1303 H   0  0  0  0  0  0  0  0  0  0  0  0
  141.4181   78.7656  221.6966 H   0  0  0  0  0  0  0  0  0  0  0  0
  142.1617   77.9559  223.1759 H   0  0  0  0  0  0  0  0  0  0  0  0
  139.6680   76.9550  223.2570 H   0  0  0  0  0  0  0  0  0  0  0  0
  138.6629   75.5192  220.9285 H   0  0  0  0  0  0  0  0  0  0  0  0
  140.1595   74.7552  220.1804 H   0  0  0  0  0  0  0  0  0  0  0  0
  139.4780   74.4190  223.0880 H   0  0  0  0  0  0  0  0  0  0  0  0
  139.1976   70.2747  221.7500 H   0  0  0  0  0  0  0  0  0  0  0  0
  139.2032   68.6550  223.6263 H   0  0  0  0  0  0  0  0  0  0  0  0
  139.7319   68.1821  225.9797 H   0  0  0  0  0  0  0  0  0  0  0  0
  141.4705   71.2849  228.4390 H   0  0  0  0  0  0  0  0  0  0  0  0
  141.4167   72.8406  226.4719 H   0  0  0  0  0  0  0  0  0  0  0  0
  1  2  1  0
  2  3  1  0
  3  4  1  0
  4  5  1  0
  5  6  1  0
  6  7  2  0
  6  8  1  0
  8  9  1  0
  9 10  1  0
 10 11  2  0
 10 12  1  0
 12 13  2  0
 13 14  1  0
 14 15  2  0
 15 16  1  0
 16 17  2  0
 17 18  1  0
 17 19  1  0
 19 20  2  0
 20 21  1  0
 21 22  2  0
 22 12  1  0
 21 15  1  0
  1 23  1  0
  1 24  1  0
  1 25  1  0
  2 26  1  0
  2 27  1  0
  3 28  1  0
  3 29  1  0
  4 30  1  0
  4 31  1  0
  5 32  1  0
  8 33  1  0
  8 34  1  0
  9 35  1  0
 13 36  1  0
 14 37  1  0
 16 38  1  0
 19 39  1  0
 20 40  1  0
M  END
>  <smiles>  (35) 
CCCCNC(=O)CNC(=O)c1ccc2cc(Cl)ccc2n1

>  <score_type>  (35) 
oracle

>  <origin>  (35) 
autodockgpu

>  <m_score__min__energy>  (35) 
-7.6100000000000003

>  <m_primary>  (35) 
energy

>  <rmsd>  (35) 
3.7786045010994678

>  <m_score__min__rmsd>  (35) 
3.7786045010994678

>  <meeko>  (35) 
{"free_energy": -6.89, "intermolecular_energy": -8.68, "internal_energy": -0.85, "cluster_size": 24, "cluster_id": 1, "rank_in_cluster": 14}

>  <energy>  (35) 
-6.11

>  <cluster_rmsd>  (35) 
0.46

>  <cluster>  (35) 
3

$$$$

     RDKit          3D

 40 41  0  0  0  0  0  0  0  0999 V2000
  142.2050   81.2650  223.8150 C   0  0  0  0  0  0  0  0  0  0  0  0
  142.7220   79.9880  223.1690 C   0  0  0  0  0  0  0  0  0  0  0  0
  141.8660   78.8370  223.7150 C   0  0  0  0  0  0  0  0  0  0  0  0
  140.8670   78.5170  222.6600 C   0  0  0  0  0  0  0  0  0  0  0  0
  140.9310   77.1820  222.1280 N   0  0  0  0  0  0  0  0  0  0  0  0
  139.7280   76.4850  221.8820 C   0  0  0  0  0  0  0  0  0  0  0  0
  138.6520   77.0930  222.1570 O   0  0  0  0  0  0  0  0  0  0  0  0
  139.6140   75.1270  221.3430 C   0  0  0  0  0  0  0  0  0  0  0  0
  139.6680   74.0790  222.3210 N   0  0  0  0  0  0  0  0  0  0  0  0
  139.8790   72.7160  221.9700 C   0  0  0  0  0  0  0  0  0  0  0  0
  140.0290   72.3180  220.7860 O   0  0  0  0  0  0  0  0  0  0  0  0
  139.9270   71.7100  223.0450 C   0  0  0  0  0  0  0  0  0  0  0  0
  139.4890   70.4320  222.8520 C   0  0  0  0  0  0  0  0  0  0  0  0
  139.5380   69.4980  223.8670 C   0  0  0  0  0  0  0  0  0  0  0  0
  140.0400   69.8700  225.0900 C   0  0  0  0  0  0  0  0  0  0  0  0
  140.1200   68.9850  226.1540 C   0  0  0  0  0  0  0  0  0  0  0  0
  140.6360   69.3940  227.3870 C   0  0  0  0  0  0  0  0  0  0  0  0
  140.7250   68.2470  228.7220 Cl  0  0  0  0  0  0  0  0  0  0  0  0
  141.0780   70.7060  227.5630 C   0  0  0  0  0  0  0  0  0  0  0  0
  141.0000   71.5980  226.4960 C   0  0  0  0  0  0  0  0  0  0  0  0
  140.4850   71.1610  225.2900 C   0  0  0  0  0  0  0  0  0  0  0  0
  140.4110   72.0270  224.2630 N   0  0  0  0  0  0  0  0  0  0  0  0
  142.2456   81.1646  224.9097 H   0  0  0  0  0  0  0  0  0  0  0  0
  142.8303   82.1138  223.5012 H   0  0  0  0  0  0  0  0  0  0  0  0
  141.1653   81.4397  223.5012 H   0  0  0  0  0  0  0  0  0  0  0  0
  142.6212   80.0492  222.0753 H   0  0  0  0  0  0  0  0  0  0  0  0
  143.7863   79.8321  223.3992 H   0  0  0  0  0  0  0  0  0  0  0  0
  142.4961   77.9591  223.9207 H   0  0  0  0  0  0  0  0  0  0  0  0
  141.3734   79.1195  224.6571 H   0  0  0  0  0  0  0  0  0  0  0  0
  139.8642   78.6631  223.0879 H   0  0  0  0  0  0  0  0  0  0  0  0
  141.0932   79.1877  221.8180 H   0  0  0  0  0  0  0  0  0  0  0  0
  141.8380   76.7170  221.9320 H   0  0  0  0  0  0  0  0  0  0  0  0
  138.6531   75.0499  220.8133 H   0  0  0  0  0  0  0  0  0  0  0  0
  140.4867   74.9820  220.6892 H   0  0  0  0  0  0  0  0  0  0  0  0
  139.5480   74.3020  223.3500 H   0  0  0  0  0  0  0  0  0  0  0  0
  139.0895   70.1409  221.8693 H   0  0  0  0  0  0  0  0  0  0  0  0
  139.1804   68.4714  223.6989 H   0  0  0  0  0  0  0  0  0  0  0  0
  139.7734   67.9489  226.0265 H   0  0  0  0  0  0  0  0  0  0  0  0
  141.4830   71.0317  228.5325 H   0  0  0  0  0  0  0  0  0  0  0  0
  141.3437   72.6365  226.6116 H   0  0  0  0  0  0  0  0  0  0  0  0
  1  2  1  0
  2  3  1  0
  3  4  1  0
  4  5  1  0
  5  6  1  0
  6  7  2  0
  6  8  1  0
  8  9  1  0
  9 10  1  0
 10 11  2  0
 10 12  1  0
 12 13  2  0
 13 14  1  0
 14 15  2  0
 15 16  1  0
 16 17  2  0
 17 18  1  0
 17 19  1  0
 19 20  2  0
 20 21  1  0
 21 22  2  0
 22 12  1  0
 21 15  1  0
  1 23  1  0
  1 24  1  0
  1 25  1  0
  2 26  1  0
  2 27  1  0
  3 28  1  0
  3 29  1  0
  4 30  1  0
  4 31  1  0
  5 32  1  0
  8 33  1  0
  8 34  1  0
  9 35  1  0
 13 36  1  0
 14 37  1  0
 16 38  1  0
 19 39  1  0
 20 40  1  0
M  END
>  <smiles>  (36) 
CCCCNC(=O)CNC(=O)c1ccc2cc(Cl)ccc2n1

>  <score_type>  (36) 
oracle

>  <origin>  (36) 
autodockgpu

>  <m_score__min__energy>  (36) 
-7.6100000000000003

>  <m_primary>  (36) 
energy

>  <rmsd>  (36) 
3.6762287523957835

>  <m_score__min__rmsd>  (36) 
3.6762287523957835

>  <meeko>  (36) 
{"free_energy": -7.61, "intermolecular_energy": -9.4, "internal_energy": -0.85, "cluster_size": 24, "cluster_id": 1, "rank_in_cluster": 1}

>  <energy>  (36) 
-6.03

>  <cluster_rmsd>  (36) 
1.98

>  <cluster>  (36) 
3

$$$$

     RDKit          3D

 40 41  0  0  0  0  0  0  0  0999 V2000
  141.0840   72.2500  227.5940 C   0  0  0  0  0  0  0  0  0  0  0  0
  141.1140   70.8230  227.0680 C   0  0  0  0  0  0  0  0  0  0  0  0
  140.2670   69.9780  228.0300 C   0  0  0  0  0  0  0  0  0  0  0  0
  139.6160   68.9260  227.2040 C   0  0  0  0  0  0  0  0  0  0  0  0
  139.0090   69.3830  225.9820 N   0  0  0  0  0  0  0  0  0  0  0  0
  139.0020   68.5270  224.8600 C   0  0  0  0  0  0  0  0  0  0  0  0
  139.5460   67.3930  225.0060 O   0  0  0  0  0  0  0  0  0  0  0  0
  138.4270   68.8320  223.5460 C   0  0  0  0  0  0  0  0  0  0  0  0
  139.1690   69.7770  222.7630 N   0  0  0  0  0  0  0  0  0  0  0  0
  139.4720   71.0860  223.2310 C   0  0  0  0  0  0  0  0  0  0  0  0
  139.1150   71.5240  224.3550 O   0  0  0  0  0  0  0  0  0  0  0  0
  140.2470   71.9850  222.3580 C   0  0  0  0  0  0  0  0  0  0  0  0
  141.2080   71.5110  221.5120 C   0  0  0  0  0  0  0  0  0  0  0  0
  141.9290   72.3620  220.7010 C   0  0  0  0  0  0  0  0  0  0  0  0
  141.6680   73.7100  220.7500 C   0  0  0  0  0  0  0  0  0  0  0  0
  142.3520   74.6230  219.9630 C   0  0  0  0  0  0  0  0  0  0  0  0
  142.0630   75.9890  220.0370 C   0  0  0  0  0  0  0  0  0  0  0  0
  142.9500   77.1270  219.0240 Cl  0  0  0  0  0  0  0  0  0  0  0  0
  141.0770   76.4520  220.9090 C   0  0  0  0  0  0  0  0  0  0  0  0
  140.3860   75.5370  221.7010 C   0  0  0  0  0  0  0  0  0  0  0  0
  140.6970   74.1940  221.6040 C   0  0  0  0  0  0  0  0  0  0  0  0
  140.0270   73.3150  222.3710 N   0  0  0  0  0  0  0  0  0  0  0  0
  141.0843   72.2354  228.6939 H   0  0  0  0  0  0  0  0  0  0  0  0
  141.9709   72.7921  227.2342 H   0  0  0  0  0  0  0  0  0  0  0  0
  140.1751   72.7544  227.2342 H   0  0  0  0  0  0  0  0  0  0  0  0
  140.6883   70.7839  226.0545 H   0  0  0  0  0  0  0  0  0  0  0  0
  142.1452   70.4441  227.0131 H   0  0  0  0  0  0  0  0  0  0  0  0
  140.9076   69.5175  228.7965 H   0  0  0  0  0  0  0  0  0  0  0  0
  139.5199   70.5953  228.5504 H   0  0  0  0  0  0  0  0  0  0  0  0
  140.3801   68.1788  226.9437 H   0  0  0  0  0  0  0  0  0  0  0  0
  138.7948   68.5266  227.8173 H   0  0  0  0  0  0  0  0  0  0  0  0
  138.5870   70.3280  225.9050 H   0  0  0  0  0  0  0  0  0  0  0  0
  138.3619   67.8934  222.9761 H   0  0  0  0  0  0  0  0  0  0  0  0
  137.4482   69.2951  223.7394 H   0  0  0  0  0  0  0  0  0  0  0  0
  139.5150   69.5150  221.7970 H   0  0  0  0  0  0  0  0  0  0  0  0
  141.4109   70.4305  221.4766 H   0  0  0  0  0  0  0  0  0  0  0  0
  142.7017   71.9674  220.0248 H   0  0  0  0  0  0  0  0  0  0  0  0
  143.1313   74.2689  219.2721 H   0  0  0  0  0  0  0  0  0  0  0  0
  140.8479   77.5261  220.9705 H   0  0  0  0  0  0  0  0  0  0  0  0
  139.6034   75.8792  222.3942 H   0  0  0  0  0  0  0  0  0  0  0  0
  1  2  1  0
  2  3  1  0
  3  4  1  0
  4  5  1  0
  5  6  1  0
  6  7  2  0
  6  8  1  0
  8  9  1  0
  9 10  1  0
 10 11  2  0
 10 12  1  0
 12 13  2  0
 13 14  1  0
 14 15  2  0
 15 16  1  0
 16 17  2  0
 17 18  1  0
 17 19  1  0
 19 20  2  0
 20 21  1  0
 21 22  2  0
 22 12  1  0
 21 15  1  0
  1 23  1  0
  1 24  1  0
  1 25  1  0
  2 26  1  0
  2 27  1  0
  3 28  1  0
  3 29  1  0
  4 30  1  0
  4 31  1  0
  5 32  1  0
  8 33  1  0
  8 34  1  0
  9 35  1  0
 13 36  1  0
 14 37  1  0
 16 38  1  0
 19 39  1  0
 20 40  1  0
M  END
>  <smiles>  (37) 
CCCCNC(=O)CNC(=O)c1ccc2cc(Cl)ccc2n1

>  <score_type>  (37) 
oracle

>  <origin>  (37) 
autodockgpu

>  <m_score__min__energy>  (37) 
-7.6100000000000003

>  <m_primary>  (37) 
energy

>  <rmsd>  (37) 
8.103837991118766

>  <m_score__min__rmsd>  (37) 
8.103837991118766

>  <meeko>  (37) 
{"free_energy": -6.11, "intermolecular_energy": -7.9, "internal_energy": -1.6, "cluster_size": 10, "cluster_id": 3, "rank_in_cluster": 2}

>  <energy>  (37) 
-6.01

>  <cluster_rmsd>  (37) 
1.74

>  <cluster>  (37) 
3

$$$$

     RDKit          3D

 40 41  0  0  0  0  0  0  0  0999 V2000
  142.2320   81.2740  223.8350 C   0  0  0  0  0  0  0  0  0  0  0  0
  142.7540   80.1110  223.0050 C   0  0  0  0  0  0  0  0  0  0  0  0
  142.1710   78.8310  223.6190 C   0  0  0  0  0  0  0  0  0  0  0  0
  141.0050   78.4520  222.7750 C   0  0  0  0  0  0  0  0  0  0  0  0
  140.9720   77.0810  222.3410 N   0  0  0  0  0  0  0  0  0  0  0  0
  139.8380   76.6100  221.6460 C   0  0  0  0  0  0  0  0  0  0  0  0
  138.9040   77.4430  221.4510 O   0  0  0  0  0  0  0  0  0  0  0  0
  139.6430   75.2510  221.1340 C   0  0  0  0  0  0  0  0  0  0  0  0
  139.6370   74.2210  222.1320 N   0  0  0  0  0  0  0  0  0  0  0  0
  140.1510   72.9170  221.8870 C   0  0  0  0  0  0  0  0  0  0  0  0
  140.6430   72.5580  220.7860 O   0  0  0  0  0  0  0  0  0  0  0  0
  140.1100   71.9260  222.9770 C   0  0  0  0  0  0  0  0  0  0  0  0
  139.5990   70.6740  222.7900 C   0  0  0  0  0  0  0  0  0  0  0  0
  139.5640   69.7550  223.8190 C   0  0  0  0  0  0  0  0  0  0  0  0
  140.0560   70.1150  225.0490 C   0  0  0  0  0  0  0  0  0  0  0  0
  140.0540   69.2430  226.1280 C   0  0  0  0  0  0  0  0  0  0  0  0
  140.5620   69.6400  227.3690 C   0  0  0  0  0  0  0  0  0  0  0  0
  140.5450   68.5100  228.7210 Cl  0  0  0  0  0  0  0  0  0  0  0  0
  141.0780   70.9250  227.5380 C   0  0  0  0  0  0  0  0  0  0  0  0
  141.0830   71.8030  226.4570 C   0  0  0  0  0  0  0  0  0  0  0  0
  140.5730   71.3800  225.2430 C   0  0  0  0  0  0  0  0  0  0  0  0
  140.5800   72.2330  224.2030 N   0  0  0  0  0  0  0  0  0  0  0  0
  142.3379   81.0381  224.9042 H   0  0  0  0  0  0  0  0  0  0  0  0
  142.8097   82.1802  223.6005 H   0  0  0  0  0  0  0  0  0  0  0  0
  141.1709   81.4447  223.6005 H   0  0  0  0  0  0  0  0  0  0  0  0
  142.4252   80.2137  221.9603 H   0  0  0  0  0  0  0  0  0  0  0  0
  143.8537   80.0854  223.0093 H   0  0  0  0  0  0  0  0  0  0  0  0
  142.9233   78.0285  223.6107 H   0  0  0  0  0  0  0  0  0  0  0  0
  141.8702   78.9921  224.6647 H   0  0  0  0  0  0  0  0  0  0  0  0
  140.0904   78.6457  223.3546 H   0  0  0  0  0  0  0  0  0  0  0  0
  141.0872   79.0559  221.8592 H   0  0  0  0  0  0  0  0  0  0  0  0
  141.7570   76.4290  222.5360 H   0  0  0  0  0  0  0  0  0  0  0  0
  138.6781   75.2205  220.6067 H   0  0  0  0  0  0  0  0  0  0  0  0
  140.5044   75.0420  220.4826 H   0  0  0  0  0  0  0  0  0  0  0  0
  139.2410   74.4130  223.0950 H   0  0  0  0  0  0  0  0  0  0  0  0
  139.2080   70.3925  221.8011 H   0  0  0  0  0  0  0  0  0  0  0  0
  139.1483   68.7497  223.6561 H   0  0  0  0  0  0  0  0  0  0  0  0
  139.6483   68.2279  226.0060 H   0  0  0  0  0  0  0  0  0  0  0  0
  141.4762   71.2410  228.5135 H   0  0  0  0  0  0  0  0  0  0  0  0
  141.4874   72.8200  226.5673 H   0  0  0  0  0  0  0  0  0  0  0  0
  1  2  1  0
  2  3  1  0
  3  4  1  0
  4  5  1  0
  5  6  1  0
  6  7  2  0
  6  8  1  0
  8  9  1  0
  9 10  1  0
 10 11  2  0
 10 12  1  0
 12 13  2  0
 13 14  1  0
 14 15  2  0
 15 16  1  0
 16 17  2  0
 17 18  1  0
 17 19  1  0
 19 20  2  0
 20 21  1  0
 21 22  2  0
 22 12  1  0
 21 15  1  0
  1 23  1  0
  1 24  1  0
  1 25  1  0
  2 26  1  0
  2 27  1  0
  3 28  1  0
  3 29  1  0
  4 30  1  0
  4 31  1  0
  5 32  1  0
  8 33  1  0
  8 34  1  0
  9 35  1  0
 13 36  1  0
 14 37  1  0
 16 38  1  0
 19 39  1  0
 20 40  1  0
M  END
>  <smiles>  (38) 
CCCCNC(=O)CNC(=O)c1ccc2cc(Cl)ccc2n1

>  <score_type>  (38) 
oracle

>  <origin>  (38) 
autodockgpu

>  <m_score__min__energy>  (38) 
-7.6100000000000003

>  <m_primary>  (38) 
energy

>  <rmsd>  (38) 
3.715398127052687

>  <m_score__min__rmsd>  (38) 
3.715398127052687

>  <meeko>  (38) 
{"free_energy": -7.53, "intermolecular_energy": -9.32, "internal_energy": -0.75, "cluster_size": 24, "cluster_id": 1, "rank_in_cluster": 3}

>  <energy>  (38) 
-5.98

>  <cluster_rmsd>  (38) 
1.86

>  <cluster>  (38) 
3

$$$$

     RDKit          3D

 40 41  0  0  0  0  0  0  0  0999 V2000
  141.9160   79.5530  223.2840 C   0  0  0  0  0  0  0  0  0  0  0  0
  141.9140   79.7230  221.7720 C   0  0  0  0  0  0  0  0  0  0  0  0
  141.4750   78.3790  221.1750 C   0  0  0  0  0  0  0  0  0  0  0  0
  141.0750   77.5190  222.3220 C   0  0  0  0  0  0  0  0  0  0  0  0
  140.6060   76.2030  221.9770 N   0  0  0  0  0  0  0  0  0  0  0  0
  139.2320   76.0130  221.7180 C   0  0  0  0  0  0  0  0  0  0  0  0
  138.4880   77.0340  221.8130 O   0  0  0  0  0  0  0  0  0  0  0  0
  138.5910   74.7460  221.3530 C   0  0  0  0  0  0  0  0  0  0  0  0
  138.7680   73.6820  222.2970 N   0  0  0  0  0  0  0  0  0  0  0  0
  140.0220   73.0390  222.4970 C   0  0  0  0  0  0  0  0  0  0  0  0
  141.0680   73.3420  221.8670 O   0  0  0  0  0  0  0  0  0  0  0  0
  140.1090   71.9600  223.4970 C   0  0  0  0  0  0  0  0  0  0  0  0
  139.7730   70.6720  223.1930 C   0  0  0  0  0  0  0  0  0  0  0  0
  139.8570   69.6690  224.1370 C   0  0  0  0  0  0  0  0  0  0  0  0
  140.2910   69.9820  225.4030 C   0  0  0  0  0  0  0  0  0  0  0  0
  140.4010   69.0260  226.4010 C   0  0  0  0  0  0  0  0  0  0  0  0
  140.8450   69.3750  227.6800 C   0  0  0  0  0  0  0  0  0  0  0  0
  140.9750   68.1380  228.9280 Cl  0  0  0  0  0  0  0  0  0  0  0  0
  141.1840   70.6980  227.9680 C   0  0  0  0  0  0  0  0  0  0  0  0
  141.0750   71.6610  226.9680 C   0  0  0  0  0  0  0  0  0  0  0  0
  140.6320   71.2820  225.7140 C   0  0  0  0  0  0  0  0  0  0  0  0
  140.5280   72.2160  224.7510 N   0  0  0  0  0  0  0  0  0  0  0  0
  141.9044   80.5426  223.7642 H   0  0  0  0  0  0  0  0  0  0  0  0
  141.0245   78.9862  223.5904 H   0  0  0  0  0  0  0  0  0  0  0  0
  142.8206   79.0073  223.5904 H   0  0  0  0  0  0  0  0  0  0  0  0
  141.2084   80.5151  221.4810 H   0  0  0  0  0  0  0  0  0  0  0  0
  142.9106   80.0107  221.4059 H   0  0  0  0  0  0  0  0  0  0  0  0
  140.6234   78.5253  220.4943 H   0  0  0  0  0  0  0  0  0  0  0  0
  142.2871   77.9167  220.5947 H   0  0  0  0  0  0  0  0  0  0  0  0
  141.9485   77.4053  222.9809 H   0  0  0  0  0  0  0  0  0  0  0  0
  140.2233   78.0275  222.7975 H   0  0  0  0  0  0  0  0  0  0  0  0
  141.2520   75.3920  221.9250 H   0  0  0  0  0  0  0  0  0  0  0  0
  137.5118   74.9289  221.2438 H   0  0  0  0  0  0  0  0  0  0  0  0
  139.0749   74.4143  220.4225 H   0  0  0  0  0  0  0  0  0  0  0  0
  137.9510   73.3420  222.8790 H   0  0  0  0  0  0  0  0  0  0  0  0
  139.4290   70.4294  222.1767 H   0  0  0  0  0  0  0  0  0  0  0  0
  139.5810   68.6356  223.8804 H   0  0  0  0  0  0  0  0  0  0  0  0
  140.1359   67.9807  226.1841 H   0  0  0  0  0  0  0  0  0  0  0  0
  141.5332   70.9767  228.9732 H   0  0  0  0  0  0  0  0  0  0  0  0
  141.3378   72.7093  227.1729 H   0  0  0  0  0  0  0  0  0  0  0  0
  1  2  1  0
  2  3  1  0
  3  4  1  0
  4  5  1  0
  5  6  1  0
  6  7  2  0
  6  8  1  0
  8  9  1  0
  9 10  1  0
 10 11  2  0
 10 12  1  0
 12 13  2  0
 13 14  1  0
 14 15  2  0
 15 16  1  0
 16 17  2  0
 17 18  1  0
 17 19  1  0
 19 20  2  0
 20 21  1  0
 21 22  2  0
 22 12  1  0
 21 15  1  0
  1 23  1  0
  1 24  1  0
  1 25  1  0
  2 26  1  0
  2 27  1  0
  3 28  1  0
  3 29  1  0
  4 30  1  0
  4 31  1  0
  5 32  1  0
  8 33  1  0
  8 34  1  0
  9 35  1  0
 13 36  1  0
 14 37  1  0
 16 38  1  0
 19 39  1  0
 20 40  1  0
M  END
>  <smiles>  (39) 
CCCCNC(=O)CNC(=O)c1ccc2cc(Cl)ccc2n1

>  <score_type>  (39) 
oracle

>  <origin>  (39) 
autodockgpu

>  <m_score__min__energy>  (39) 
-7.6100000000000003

>  <m_primary>  (39) 
energy

>  <rmsd>  (39) 
2.9646134432920817

>  <m_score__min__rmsd>  (39) 
2.9646134432920817

>  <meeko>  (39) 
{"free_energy": -6.5, "intermolecular_energy": -8.29, "internal_energy": -1.44, "cluster_size": 24, "cluster_id": 1, "rank_in_cluster": 21}

>  <energy>  (39) 
-5.98

>  <cluster_rmsd>  (39) 
1.98

>  <cluster>  (39) 
3

$$$$

     RDKit          3D

 40 41  0  0  0  0  0  0  0  0999 V2000
  140.5990   69.2080  227.6840 C   0  0  0  0  0  0  0  0  0  0  0  0
  140.3840   70.6800  228.0000 C   0  0  0  0  0  0  0  0  0  0  0  0
  141.0710   71.4790  226.8840 C   0  0  0  0  0  0  0  0  0  0  0  0
  141.1710   70.5670  225.7130 C   0  0  0  0  0  0  0  0  0  0  0  0
  140.7550   71.1250  224.4540 N   0  0  0  0  0  0  0  0  0  0  0  0
  139.3870   71.0930  224.1090 C   0  0  0  0  0  0  0  0  0  0  0  0
  138.6020   70.5570  224.9460 O   0  0  0  0  0  0  0  0  0  0  0  0
  138.7970   71.6160  222.8740 C   0  0  0  0  0  0  0  0  0  0  0  0
  139.2220   72.9360  222.5100 N   0  0  0  0  0  0  0  0  0  0  0  0
  140.5070   73.1990  221.9580 C   0  0  0  0  0  0  0  0  0  0  0  0
  141.3710   72.3090  221.7490 O   0  0  0  0  0  0  0  0  0  0  0  0
  140.8530   74.5880  221.6060 C   0  0  0  0  0  0  0  0  0  0  0  0
  141.7450   74.8760  220.6140 C   0  0  0  0  0  0  0  0  0  0  0  0
  142.0630   76.1800  220.2940 C   0  0  0  0  0  0  0  0  0  0  0  0
  141.4650   77.2010  220.9910 C   0  0  0  0  0  0  0  0  0  0  0  0
  141.7350   78.5340  220.7240 C   0  0  0  0  0  0  0  0  0  0  0  0
  141.1100   79.5510  221.4520 C   0  0  0  0  0  0  0  0  0  0  0  0
  141.4740   81.2370  221.0890 Cl  0  0  0  0  0  0  0  0  0  0  0  0
  140.2010   79.2340  222.4620 C   0  0  0  0  0  0  0  0  0  0  0  0
  139.9260   77.8950  222.7340 C   0  0  0  0  0  0  0  0  0  0  0  0
  140.5620   76.9150  221.9950 C   0  0  0  0  0  0  0  0  0  0  0  0
  140.2930   75.6230  222.2620 N   0  0  0  0  0  0  0  0  0  0  0  0
  140.6820   68.6399  228.6223 H   0  0  0  0  0  0  0  0  0  0  0  0
  139.7465   68.8299  227.1006 H   0  0  0  0  0  0  0  0  0  0  0  0
  141.5240   69.0895  227.1006 H   0  0  0  0  0  0  0  0  0  0  0  0
  139.3084   70.9091  228.0225 H   0  0  0  0  0  0  0  0  0  0  0  0
  140.8026   70.9373  228.9842 H   0  0  0  0  0  0  0  0  0  0  0  0
  140.4716   72.3645  226.6261 H   0  0  0  0  0  0  0  0  0  0  0  0
  142.0639   71.8316  227.2000 H   0  0  0  0  0  0  0  0  0  0  0  0
  142.2215   70.2560  225.6149 H   0  0  0  0  0  0  0  0  0  0  0  0
  140.4790   69.7368  225.9178 H   0  0  0  0  0  0  0  0  0  0  0  0
  141.4380   71.5420  223.7920 H   0  0  0  0  0  0  0  0  0  0  0  0
  139.0631   70.9336  222.0533 H   0  0  0  0  0  0  0  0  0  0  0  0
  137.7139   71.6812  223.0548 H   0  0  0  0  0  0  0  0  0  0  0  0
  138.5760   73.7630  222.6480 H   0  0  0  0  0  0  0  0  0  0  0  0
  142.2193   74.0531  220.0591 H   0  0  0  0  0  0  0  0  0  0  0  0
  142.7845   76.3984  219.4929 H   0  0  0  0  0  0  0  0  0  0  0  0
  142.4497   78.7950  219.9296 H   0  0  0  0  0  0  0  0  0  0  0  0
  139.7073   80.0314  223.0368 H   0  0  0  0  0  0  0  0  0  0  0  0
  139.2128   77.6218  223.5257 H   0  0  0  0  0  0  0  0  0  0  0  0
  1  2  1  0
  2  3  1  0
  3  4  1  0
  4  5  1  0
  5  6  1  0
  6  7  2  0
  6  8  1  0
  8  9  1  0
  9 10  1  0
 10 11  2  0
 10 12  1  0
 12 13  2  0
 13 14  1  0
 14 15  2  0
 15 16  1  0
 16 17  2  0
 17 18  1  0
 17 19  1  0
 19 20  2  0
 20 21  1  0
 21 22  2  0
 22 12  1  0
 21 15  1  0
  1 23  1  0
  1 24  1  0
  1 25  1  0
  2 26  1  0
  2 27  1  0
  3 28  1  0
  3 29  1  0
  4 30  1  0
  4 31  1  0
  5 32  1  0
  8 33  1  0
  8 34  1  0
  9 35  1  0
 13 36  1  0
 14 37  1  0
 16 38  1  0
 19 39  1  0
 20 40  1  0
M  END
>  <smiles>  (40) 
CCCCNC(=O)CNC(=O)c1ccc2cc(Cl)ccc2n1

>  <score_type>  (40) 
oracle

>  <origin>  (40) 
autodockgpu

>  <m_score__min__energy>  (40) 
-7.6100000000000003

>  <m_primary>  (40) 
energy

>  <rmsd>  (40) 
8.518385541700933

>  <m_score__min__rmsd>  (40) 
8.518385541700933

>  <meeko>  (40) 
{"free_energy": -6.21, "intermolecular_energy": -8.0, "internal_energy": -1.72, "cluster_size": 7, "cluster_id": 4, "rank_in_cluster": 5}

>  <energy>  (40) 
-5.96

>  <cluster_rmsd>  (40) 
1.8

>  <cluster>  (40) 
3

$$$$

     RDKit          3D

 40 41  0  0  0  0  0  0  0  0999 V2000
  146.2220   73.4100  221.2810 C   0  0  0  0  0  0  0  0  0  0  0  0
  144.7740   73.1200  220.9140 C   0  0  0  0  0  0  0  0  0  0  0  0
  144.4600   73.9450  219.6590 C   0  0  0  0  0  0  0  0  0  0  0  0
  143.5930   75.0700  220.1010 C   0  0  0  0  0  0  0  0  0  0  0  0
  142.3610   74.6910  220.7410 N   0  0  0  0  0  0  0  0  0  0  0  0
  141.2140   75.4900  220.5470 C   0  0  0  0  0  0  0  0  0  0  0  0
  141.3510   76.5120  219.8110 O   0  0  0  0  0  0  0  0  0  0  0  0
  139.8870   75.2470  221.1200 C   0  0  0  0  0  0  0  0  0  0  0  0
  139.8360   74.2190  222.1190 N   0  0  0  0  0  0  0  0  0  0  0  0
  140.2610   72.8850  221.8660 C   0  0  0  0  0  0  0  0  0  0  0  0
  140.7080   72.4950  220.7560 O   0  0  0  0  0  0  0  0  0  0  0  0
  140.1790   71.8990  222.9580 C   0  0  0  0  0  0  0  0  0  0  0  0
  139.6390   70.6590  222.7660 C   0  0  0  0  0  0  0  0  0  0  0  0
  139.5660   69.7450  223.7960 C   0  0  0  0  0  0  0  0  0  0  0  0
  140.0480   70.0960  225.0340 C   0  0  0  0  0  0  0  0  0  0  0  0
  140.0080   69.2280  226.1140 C   0  0  0  0  0  0  0  0  0  0  0  0
  140.5070   69.6150  227.3620 C   0  0  0  0  0  0  0  0  0  0  0  0
  140.4420   68.4900  228.7170 Cl  0  0  0  0  0  0  0  0  0  0  0  0
  141.0530   70.8870  227.5350 C   0  0  0  0  0  0  0  0  0  0  0  0
  141.0960   71.7620  226.4520 C   0  0  0  0  0  0  0  0  0  0  0  0
  140.5940   71.3480  225.2320 C   0  0  0  0  0  0  0  0  0  0  0  0
  140.6380   72.1970  224.1890 N   0  0  0  0  0  0  0  0  0  0  0  0
  146.3256   73.4308  222.3759 H   0  0  0  0  0  0  0  0  0  0  0  0
  146.8699   72.6238  220.8662 H   0  0  0  0  0  0  0  0  0  0  0  0
  146.5172   74.3851  220.8662 H   0  0  0  0  0  0  0  0  0  0  0  0
  144.6440   72.0480  220.7046 H   0  0  0  0  0  0  0  0  0  0  0  0
  144.0973   73.3851  221.7397 H   0  0  0  0  0  0  0  0  0  0  0  0
  145.3894   74.3324  219.2162 H   0  0  0  0  0  0  0  0  0  0  0  0
  143.9593   73.3326  218.8946 H   0  0  0  0  0  0  0  0  0  0  0  0
  144.1687   75.6823  220.8107 H   0  0  0  0  0  0  0  0  0  0  0  0
  143.3039   75.6052  219.1845 H   0  0  0  0  0  0  0  0  0  0  0  0
  142.3000   73.8500  221.3480 H   0  0  0  0  0  0  0  0  0  0  0  0
  139.5359   76.1841  221.5767 H   0  0  0  0  0  0  0  0  0  0  0  0
  139.2532   74.9005  220.2904 H   0  0  0  0  0  0  0  0  0  0  0  0
  139.4710   74.4360  223.0900 H   0  0  0  0  0  0  0  0  0  0  0  0
  139.2556   70.3847  221.7721 H   0  0  0  0  0  0  0  0  0  0  0  0
  139.1284   68.7497  223.6291 H   0  0  0  0  0  0  0  0  0  0  0  0
  139.5788   68.2231  225.9881 H   0  0  0  0  0  0  0  0  0  0  0  0
  141.4451   71.1955  228.5154 H   0  0  0  0  0  0  0  0  0  0  0  0
  141.5237   72.7690  226.5658 H   0  0  0  0  0  0  0  0  0  0  0  0
  1  2  1  0
  2  3  1  0
  3  4  1  0
  4  5  1  0
  5  6  1  0
  6  7  2  0
  6  8  1  0
  8  9  1  0
  9 10  1  0
 10 11  2  0
 10 12  1  0
 12 13  2  0
 13 14  1  0
 14 15  2  0
 15 16  1  0
 16 17  2  0
 17 18  1  0
 17 19  1  0
 19 20  2  0
 20 21  1  0
 21 22  2  0
 22 12  1  0
 21 15  1  0
  1 23  1  0
  1 24  1  0
  1 25  1  0
  2 26  1  0
  2 27  1  0
  3 28  1  0
  3 29  1  0
  4 30  1  0
  4 31  1  0
  5 32  1  0
  8 33  1  0
  8 34  1  0
  9 35  1  0
 13 36  1  0
 14 37  1  0
 16 38  1  0
 19 39  1  0
 20 40  1  0
M  END
>  <smiles>  (41) 
CCCCNC(=O)CNC(=O)c1ccc2cc(Cl)ccc2n1

>  <score_type>  (41) 
oracle

>  <origin>  (41) 
autodockgpu

>  <m_score__min__energy>  (41) 
-7.6100000000000003

>  <m_primary>  (41) 
energy

>  <rmsd>  (41) 
3.491326839718929

>  <m_score__min__rmsd>  (41) 
3.491326839718929

>  <meeko>  (41) 
{"free_energy": -6.47, "intermolecular_energy": -8.26, "internal_energy": -1.62, "cluster_size": 9, "cluster_id": 2, "rank_in_cluster": 6}

>  <energy>  (41) 
-5.96

>  <cluster_rmsd>  (41) 
1.82

>  <cluster>  (41) 
3

$$$$

     RDKit          3D

 40 41  0  0  0  0  0  0  0  0999 V2000
  142.3150   80.5030  222.3680 C   0  0  0  0  0  0  0  0  0  0  0  0
  142.2620   80.0980  223.8330 C   0  0  0  0  0  0  0  0  0  0  0  0
  141.8110   78.6310  223.8720 C   0  0  0  0  0  0  0  0  0  0  0  0
  141.1000   78.3750  222.5910 C   0  0  0  0  0  0  0  0  0  0  0  0
  141.0110   76.9940  222.1950 N   0  0  0  0  0  0  0  0  0  0  0  0
  139.8490   76.5460  221.5320 C   0  0  0  0  0  0  0  0  0  0  0  0
  138.9420   77.4060  221.3300 O   0  0  0  0  0  0  0  0  0  0  0  0
  139.5980   75.1810  221.0610 C   0  0  0  0  0  0  0  0  0  0  0  0
  139.6740   74.1660  222.0710 N   0  0  0  0  0  0  0  0  0  0  0  0
  139.7770   72.7820  221.7580 C   0  0  0  0  0  0  0  0  0  0  0  0
  139.8050   72.3340  220.5820 O   0  0  0  0  0  0  0  0  0  0  0  0
  139.8580   71.8120  222.8640 C   0  0  0  0  0  0  0  0  0  0  0  0
  139.4670   70.5130  222.7100 C   0  0  0  0  0  0  0  0  0  0  0  0
  139.5460   69.6140  223.7530 C   0  0  0  0  0  0  0  0  0  0  0  0
  140.0300   70.0430  224.9660 C   0  0  0  0  0  0  0  0  0  0  0  0
  140.1380   69.1940  226.0570 C   0  0  0  0  0  0  0  0  0  0  0  0
  140.6340   69.6600  227.2790 C   0  0  0  0  0  0  0  0  0  0  0  0
  140.7600   68.5590  228.6490 Cl  0  0  0  0  0  0  0  0  0  0  0  0
  141.0280   70.9920  227.4140 C   0  0  0  0  0  0  0  0  0  0  0  0
  140.9210   71.8470  226.3190 C   0  0  0  0  0  0  0  0  0  0  0  0
  140.4260   71.3540  225.1260 C   0  0  0  0  0  0  0  0  0  0  0  0
  140.3250   72.1850  224.0720 N   0  0  0  0  0  0  0  0  0  0  0  0
  142.4574   81.5912  222.2933 H   0  0  0  0  0  0  0  0  0  0  0  0
  143.1535   79.9888  221.8755 H   0  0  0  0  0  0  0  0  0  0  0  0
  141.3724   80.2219  221.8755 H   0  0  0  0  0  0  0  0  0  0  0  0
  143.2571   80.2005  224.2904 H   0  0  0  0  0  0  0  0  0  0  0  0
  141.5671   80.7395  224.3948 H   0  0  0  0  0  0  0  0  0  0  0  0
  142.6835   77.9672  223.9618 H   0  0  0  0  0  0  0  0  0  0  0  0
  141.1577   78.4379  224.7357 H   0  0  0  0  0  0  0  0  0  0  0  0
  140.0764   78.7661  222.6879 H   0  0  0  0  0  0  0  0  0  0  0  0
  141.6945   78.8741  221.8116 H   0  0  0  0  0  0  0  0  0  0  0  0
  141.7760   76.3210  222.3950 H   0  0  0  0  0  0  0  0  0  0  0  0
  138.5893   75.1515  220.6233 H   0  0  0  0  0  0  0  0  0  0  0  0
  140.3956   74.9546  220.3382 H   0  0  0  0  0  0  0  0  0  0  0  0
  139.6540   74.4310  223.0960 H   0  0  0  0  0  0  0  0  0  0  0  0
  139.0818   70.1771  221.7359 H   0  0  0  0  0  0  0  0  0  0  0  0
  139.2268   68.5702  223.6164 H   0  0  0  0  0  0  0  0  0  0  0  0
  139.8302   68.1424  225.9604 H   0  0  0  0  0  0  0  0  0  0  0  0
  141.4183   71.3625  228.3734 H   0  0  0  0  0  0  0  0  0  0  0  0
  141.2264   72.9004  226.4027 H   0  0  0  0  0  0  0  0  0  0  0  0
  1  2  1  0
  2  3  1  0
  3  4  1  0
  4  5  1  0
  5  6  1  0
  6  7  2  0
  6  8  1  0
  8  9  1  0
  9 10  1  0
 10 11  2  0
 10 12  1  0
 12 13  2  0
 13 14  1  0
 14 15  2  0
 15 16  1  0
 16 17  2  0
 17 18  1  0
 17 19  1  0
 19 20  2  0
 20 21  1  0
 21 22  2  0
 22 12  1  0
 21 15  1  0
  1 23  1  0
  1 24  1  0
  1 25  1  0
  2 26  1  0
  2 27  1  0
  3 28  1  0
  3 29  1  0
  4 30  1  0
  4 31  1  0
  5 32  1  0
  8 33  1  0
  8 34  1  0
  9 35  1  0
 13 36  1  0
 14 37  1  0
 16 38  1  0
 19 39  1  0
 20 40  1  0
M  END
>  <smiles>  (42) 
CCCCNC(=O)CNC(=O)c1ccc2cc(Cl)ccc2n1

>  <score_type>  (42) 
oracle

>  <origin>  (42) 
autodockgpu

>  <m_score__min__energy>  (42) 
-7.6100000000000003

>  <m_primary>  (42) 
energy

>  <rmsd>  (42) 
3.7563734195001532

>  <m_score__min__rmsd>  (42) 
3.7563734195001532

>  <meeko>  (42) 
{"free_energy": -7.32, "intermolecular_energy": -9.11, "internal_energy": -0.93, "cluster_size": 24, "cluster_id": 1, "rank_in_cluster": 10}

>  <energy>  (42) 
-5.95

>  <cluster_rmsd>  (42) 
1.82

>  <cluster>  (42) 
3

$$$$

     RDKit          3D

 40 41  0  0  0  0  0  0  0  0999 V2000
  146.1400   73.4420  221.3000 C   0  0  0  0  0  0  0  0  0  0  0  0
  144.7020   73.2160  220.8580 C   0  0  0  0  0  0  0  0  0  0  0  0
  144.4580   74.1330  219.6520 C   0  0  0  0  0  0  0  0  0  0  0  0
  143.5160   75.1900  220.1100 C   0  0  0  0  0  0  0  0  0  0  0  0
  142.2740   74.7180  220.6610 N   0  0  0  0  0  0  0  0  0  0  0  0
  141.1330   75.5450  220.5840 C   0  0  0  0  0  0  0  0  0  0  0  0
  141.2840   76.6720  220.0280 O   0  0  0  0  0  0  0  0  0  0  0  0
  139.7960   75.2190  221.0900 C   0  0  0  0  0  0  0  0  0  0  0  0
  139.7600   74.1990  222.0980 N   0  0  0  0  0  0  0  0  0  0  0  0
  140.1750   72.8610  221.8460 C   0  0  0  0  0  0  0  0  0  0  0  0
  140.5990   72.4620  220.7300 O   0  0  0  0  0  0  0  0  0  0  0  0
  140.1100   71.8840  222.9460 C   0  0  0  0  0  0  0  0  0  0  0  0
  139.5720   70.6410  222.7710 C   0  0  0  0  0  0  0  0  0  0  0  0
  139.5150   69.7340  223.8090 C   0  0  0  0  0  0  0  0  0  0  0  0
  140.0120   70.0960  225.0370 C   0  0  0  0  0  0  0  0  0  0  0  0
  139.9890   69.2360  226.1250 C   0  0  0  0  0  0  0  0  0  0  0  0
  140.5020   69.6340  227.3630 C   0  0  0  0  0  0  0  0  0  0  0  0
  140.4580   68.5190  228.7270 Cl  0  0  0  0  0  0  0  0  0  0  0  0
  141.0460   70.9090  227.5200 C   0  0  0  0  0  0  0  0  0  0  0  0
  141.0720   71.7760  226.4290 C   0  0  0  0  0  0  0  0  0  0  0  0
  140.5560   71.3510  225.2190 C   0  0  0  0  0  0  0  0  0  0  0  0
  140.5840   72.1920  224.1700 N   0  0  0  0  0  0  0  0  0  0  0  0
  146.1889   73.4497  222.3989 H   0  0  0  0  0  0  0  0  0  0  0  0
  146.7749   72.6326  220.9104 H   0  0  0  0  0  0  0  0  0  0  0  0
  146.4960   74.4071  220.9104 H   0  0  0  0  0  0  0  0  0  0  0  0
  144.5555   72.1646  220.5697 H   0  0  0  0  0  0  0  0  0  0  0  0
  143.9990   73.4417  221.6734 H   0  0  0  0  0  0  0  0  0  0  0  0
  145.4044   74.5849  219.3204 H   0  0  0  0  0  0  0  0  0  0  0  0
  144.0434   73.5712  218.8020 H   0  0  0  0  0  0  0  0  0  0  0  0
  144.0247   75.7853  220.8826 H   0  0  0  0  0  0  0  0  0  0  0  0
  143.2479   75.7648  219.2112 H   0  0  0  0  0  0  0  0  0  0  0  0
  142.2010   73.7900  221.1210 H   0  0  0  0  0  0  0  0  0  0  0  0
  139.3599   76.1347  221.5158 H   0  0  0  0  0  0  0  0  0  0  0  0
  139.2316   74.8233  220.2328 H   0  0  0  0  0  0  0  0  0  0  0  0
  139.4150   74.4240  223.0740 H   0  0  0  0  0  0  0  0  0  0  0  0
  139.1769   70.3578  221.7843 H   0  0  0  0  0  0  0  0  0  0  0  0
  139.0782   68.7362  223.6554 H   0  0  0  0  0  0  0  0  0  0  0  0
  139.5619   68.2286  226.0123 H   0  0  0  0  0  0  0  0  0  0  0  0
  141.4495   71.2262  228.4929 H   0  0  0  0  0  0  0  0  0  0  0  0
  141.4976   72.7853  226.5295 H   0  0  0  0  0  0  0  0  0  0  0  0
  1  2  1  0
  2  3  1  0
  3  4  1  0
  4  5  1  0
  5  6  1  0
  6  7  2  0
  6  8  1  0
  8  9  1  0
  9 10  1  0
 10 11  2  0
 10 12  1  0
 12 13  2  0
 13 14  1  0
 14 15  2  0
 15 16  1  0
 16 17  2  0
 17 18  1  0
 17 19  1  0
 19 20  2  0
 20 21  1  0
 21 22  2  0
 22 12  1  0
 21 15  1  0
  1 23  1  0
  1 24  1  0
  1 25  1  0
  2 26  1  0
  2 27  1  0
  3 28  1  0
  3 29  1  0
  4 30  1  0
  4 31  1  0
  5 32  1  0
  8 33  1  0
  8 34  1  0
  9 35  1  0
 13 36  1  0
 14 37  1  0
 16 38  1  0
 19 39  1  0
 20 40  1  0
M  END
>  <smiles>  (43) 
CCCCNC(=O)CNC(=O)c1ccc2cc(Cl)ccc2n1

>  <score_type>  (43) 
oracle

>  <origin>  (43) 
autodockgpu

>  <m_score__min__energy>  (43) 
-7.6100000000000003

>  <m_primary>  (43) 
energy

>  <rmsd>  (43) 
3.429906235941201

>  <m_score__min__rmsd>  (43) 
3.429906235941201

>  <meeko>  (43) 
{"free_energy": -6.48, "intermolecular_energy": -8.27, "internal_energy": -1.63, "cluster_size": 9, "cluster_id": 2, "rank_in_cluster": 5}

>  <energy>  (43) 
-5.9

>  <cluster_rmsd>  (43) 
1.63

>  <cluster>  (43) 
3

$$$$

     RDKit          3D

 40 41  0  0  0  0  0  0  0  0999 V2000
  140.3520   68.8680  227.6580 C   0  0  0  0  0  0  0  0  0  0  0  0
  140.3500   70.3520  227.9930 C   0  0  0  0  0  0  0  0  0  0  0  0
  141.0600   71.0690  226.8370 C   0  0  0  0  0  0  0  0  0  0  0  0
  140.9870   70.1540  225.6660 C   0  0  0  0  0  0  0  0  0  0  0  0
  140.5610   70.7590  224.4310 N   0  0  0  0  0  0  0  0  0  0  0  0
  139.1850   70.7730  224.1150 C   0  0  0  0  0  0  0  0  0  0  0  0
  138.4030   70.2360  224.9540 O   0  0  0  0  0  0  0  0  0  0  0  0
  138.5840   71.3470  222.9080 C   0  0  0  0  0  0  0  0  0  0  0  0
  139.0590   72.6530  222.5550 N   0  0  0  0  0  0  0  0  0  0  0  0
  140.3420   72.8690  221.9780 C   0  0  0  0  0  0  0  0  0  0  0  0
  141.1620   71.9450  221.7360 O   0  0  0  0  0  0  0  0  0  0  0  0
  140.7400   74.2470  221.6410 C   0  0  0  0  0  0  0  0  0  0  0  0
  141.7080   74.5080  220.7140 C   0  0  0  0  0  0  0  0  0  0  0  0
  142.0740   75.8020  220.4070 C   0  0  0  0  0  0  0  0  0  0  0  0
  141.4470   76.8410  221.0500 C   0  0  0  0  0  0  0  0  0  0  0  0
  141.7630   78.1660  220.7910 C   0  0  0  0  0  0  0  0  0  0  0  0
  141.1080   79.2030  221.4630 C   0  0  0  0  0  0  0  0  0  0  0  0
  141.5310   80.8770  221.1140 Cl  0  0  0  0  0  0  0  0  0  0  0  0
  140.1220   78.9130  222.4080 C   0  0  0  0  0  0  0  0  0  0  0  0
  139.8010   77.5830  222.6700 C   0  0  0  0  0  0  0  0  0  0  0  0
  140.4690   76.5830  221.9880 C   0  0  0  0  0  0  0  0  0  0  0  0
  140.1550   75.3000  222.2450 N   0  0  0  0  0  0  0  0  0  0  0  0
  140.3528   68.2820  228.5889 H   0  0  0  0  0  0  0  0  0  0  0  0
  139.4542   68.6233  227.0714 H   0  0  0  0  0  0  0  0  0  0  0  0
  141.2505   68.6257  227.0714 H   0  0  0  0  0  0  0  0  0  0  0  0
  139.3168   70.7174  228.0875 H   0  0  0  0  0  0  0  0  0  0  0  0
  140.8615   70.5414  228.9482 H   0  0  0  0  0  0  0  0  0  0  0  0
  140.5532   72.0185  226.6099 H   0  0  0  0  0  0  0  0  0  0  0  0
  142.1033   71.3040  227.0946 H   0  0  0  0  0  0  0  0  0  0  0  0
  141.9883   69.7275  225.5065 H   0  0  0  0  0  0  0  0  0  0  0  0
  140.2203   69.4057  225.9154 H   0  0  0  0  0  0  0  0  0  0  0  0
  141.2410   71.1750  223.7660 H   0  0  0  0  0  0  0  0  0  0  0  0
  138.7937   70.6692  222.0674 H   0  0  0  0  0  0  0  0  0  0  0  0
  137.5110   71.4587  223.1230 H   0  0  0  0  0  0  0  0  0  0  0  0
  138.4520   73.5050  222.7200 H   0  0  0  0  0  0  0  0  0  0  0  0
  142.2052   73.6707  220.2025 H   0  0  0  0  0  0  0  0  0  0  0  0
  142.8560   75.9987  219.6588 H   0  0  0  0  0  0  0  0  0  0  0  0
  142.5383   78.4044  220.0480 H   0  0  0  0  0  0  0  0  0  0  0  0
  139.6046   79.7253  222.9395 H   0  0  0  0  0  0  0  0  0  0  0  0
  139.0264   77.3318  223.4096 H   0  0  0  0  0  0  0  0  0  0  0  0
  1  2  1  0
  2  3  1  0
  3  4  1  0
  4  5  1  0
  5  6  1  0
  6  7  2  0
  6  8  1  0
  8  9  1  0
  9 10  1  0
 10 11  2  0
 10 12  1  0
 12 13  2  0
 13 14  1  0
 14 15  2  0
 15 16  1  0
 16 17  2  0
 17 18  1  0
 17 19  1  0
 19 20  2  0
 20 21  1  0
 21 22  2  0
 22 12  1  0
 21 15  1  0
  1 23  1  0
  1 24  1  0
  1 25  1  0
  2 26  1  0
  2 27  1  0
  3 28  1  0
  3 29  1  0
  4 30  1  0
  4 31  1  0
  5 32  1  0
  8 33  1  0
  8 34  1  0
  9 35  1  0
 13 36  1  0
 14 37  1  0
 16 38  1  0
 19 39  1  0
 20 40  1  0
M  END
>  <smiles>  (44) 
CCCCNC(=O)CNC(=O)c1ccc2cc(Cl)ccc2n1

>  <score_type>  (44) 
oracle

>  <origin>  (44) 
autodockgpu

>  <m_score__min__energy>  (44) 
-7.6100000000000003

>  <m_primary>  (44) 
energy

>  <rmsd>  (44) 
8.458851550259674

>  <m_score__min__rmsd>  (44) 
8.458851550259674

>  <meeko>  (44) 
{"free_energy": -6.14, "intermolecular_energy": -7.93, "internal_energy": -1.76, "cluster_size": 7, "cluster_id": 4, "rank_in_cluster": 6}

>  <energy>  (44) 
-6.24

>  <cluster_rmsd>  (44) 
0.0

>  <cluster>  (44) 
4

$$$$

     RDKit          3D

 40 41  0  0  0  0  0  0  0  0999 V2000
  146.1610   73.3890  221.1910 C   0  0  0  0  0  0  0  0  0  0  0  0
  144.6880   73.2710  220.8280 C   0  0  0  0  0  0  0  0  0  0  0  0
  144.4700   74.1270  219.5740 C   0  0  0  0  0  0  0  0  0  0  0  0
  143.4660   75.1620  219.9390 C   0  0  0  0  0  0  0  0  0  0  0  0
  142.2200   74.6610  220.4570 N   0  0  0  0  0  0  0  0  0  0  0  0
  141.1290   75.5470  220.5910 C   0  0  0  0  0  0  0  0  0  0  0  0
  141.3270   76.7490  220.2450 O   0  0  0  0  0  0  0  0  0  0  0  0
  139.7970   75.2040  221.0960 C   0  0  0  0  0  0  0  0  0  0  0  0
  139.7730   74.1840  222.1040 N   0  0  0  0  0  0  0  0  0  0  0  0
  140.1490   72.8380  221.8370 C   0  0  0  0  0  0  0  0  0  0  0  0
  140.5260   72.4300  220.7080 O   0  0  0  0  0  0  0  0  0  0  0  0
  140.1010   71.8610  222.9390 C   0  0  0  0  0  0  0  0  0  0  0  0
  139.5850   70.6090  222.7660 C   0  0  0  0  0  0  0  0  0  0  0  0
  139.5430   69.7020  223.8050 C   0  0  0  0  0  0  0  0  0  0  0  0
  140.0330   70.0750  225.0330 C   0  0  0  0  0  0  0  0  0  0  0  0
  140.0250   69.2160  226.1210 C   0  0  0  0  0  0  0  0  0  0  0  0
  140.5310   69.6240  227.3590 C   0  0  0  0  0  0  0  0  0  0  0  0
  140.5060   68.5110  228.7250 Cl  0  0  0  0  0  0  0  0  0  0  0  0
  141.0540   70.9090  227.5140 C   0  0  0  0  0  0  0  0  0  0  0  0
  141.0650   71.7750  226.4220 C   0  0  0  0  0  0  0  0  0  0  0  0
  140.5570   71.3390  225.2130 C   0  0  0  0  0  0  0  0  0  0  0  0
  140.5690   72.1790  224.1620 N   0  0  0  0  0  0  0  0  0  0  0  0
  146.2693   73.3977  222.2856 H   0  0  0  0  0  0  0  0  0  0  0  0
  146.7110   72.5320  220.7749 H   0  0  0  0  0  0  0  0  0  0  0  0
  146.5675   74.3226  220.7749 H   0  0  0  0  0  0  0  0  0  0  0  0
  144.4324   72.2217  220.6192 H   0  0  0  0  0  0  0  0  0  0  0  0
  144.0492   73.6136  221.6554 H   0  0  0  0  0  0  0  0  0  0  0  0
  145.4138   74.6034  219.2702 H   0  0  0  0  0  0  0  0  0  0  0  0
  144.1211   73.5143  218.7297 H   0  0  0  0  0  0  0  0  0  0  0  0
  143.9136   75.8135  220.7040 H   0  0  0  0  0  0  0  0  0  0  0  0
  143.2162   75.6837  219.0034 H   0  0  0  0  0  0  0  0  0  0  0  0
  142.1080   73.6690  220.7410 H   0  0  0  0  0  0  0  0  0  0  0  0
  139.3489   76.1141  221.5213 H   0  0  0  0  0  0  0  0  0  0  0  0
  139.2385   74.8007  220.2384 H   0  0  0  0  0  0  0  0  0  0  0  0
  139.4670   74.4160  223.0910 H   0  0  0  0  0  0  0  0  0  0  0  0
  139.1953   70.3177  221.7795 H   0  0  0  0  0  0  0  0  0  0  0  0
  139.1239   68.6965  223.6524 H   0  0  0  0  0  0  0  0  0  0  0  0
  139.6156   68.2012  226.0091 H   0  0  0  0  0  0  0  0  0  0  0  0
  141.4526   71.2342  228.4863 H   0  0  0  0  0  0  0  0  0  0  0  0
  141.4726   72.7919  226.5211 H   0  0  0  0  0  0  0  0  0  0  0  0
  1  2  1  0
  2  3  1  0
  3  4  1  0
  4  5  1  0
  5  6  1  0
  6  7  2  0
  6  8  1  0
  8  9  1  0
  9 10  1  0
 10 11  2  0
 10 12  1  0
 12 13  2  0
 13 14  1  0
 14 15  2  0
 15 16  1  0
 16 17  2  0
 17 18  1  0
 17 19  1  0
 19 20  2  0
 20 21  1  0
 21 22  2  0
 22 12  1  0
 21 15  1  0
  1 23  1  0
  1 24  1  0
  1 25  1  0
  2 26  1  0
  2 27  1  0
  3 28  1  0
  3 29  1  0
  4 30  1  0
  4 31  1  0
  5 32  1  0
  8 33  1  0
  8 34  1  0
  9 35  1  0
 13 36  1  0
 14 37  1  0
 16 38  1  0
 19 39  1  0
 20 40  1  0
M  END
>  <smiles>  (45) 
CCCCNC(=O)CNC(=O)c1ccc2cc(Cl)ccc2n1

>  <score_type>  (45) 
oracle

>  <origin>  (45) 
autodockgpu

>  <m_score__min__energy>  (45) 
-7.6100000000000003

>  <m_primary>  (45) 
energy

>  <rmsd>  (45) 
3.3947369354374644

>  <m_score__min__rmsd>  (45) 
3.3947369354374644

>  <meeko>  (45) 
{"free_energy": -6.5, "intermolecular_energy": -8.29, "internal_energy": -1.66, "cluster_size": 9, "cluster_id": 2, "rank_in_cluster": 4}

>  <energy>  (45) 
-6.23

>  <cluster_rmsd>  (45) 
0.18

>  <cluster>  (45) 
4

$$$$

     RDKit          3D

 40 41  0  0  0  0  0  0  0  0999 V2000
  142.5460   81.1680  223.8680 C   0  0  0  0  0  0  0  0  0  0  0  0
  142.4890   79.9180  223.0030 C   0  0  0  0  0  0  0  0  0  0  0  0
  141.6000   78.9080  223.7410 C   0  0  0  0  0  0  0  0  0  0  0  0
  140.5930   78.4340  222.7540 C   0  0  0  0  0  0  0  0  0  0  0  0
  140.7070   77.0520  222.3660 N   0  0  0  0  0  0  0  0  0  0  0  0
  139.7210   76.4940  221.5240 C   0  0  0  0  0  0  0  0  0  0  0  0
  138.7810   77.2620  221.1630 O   0  0  0  0  0  0  0  0  0  0  0  0
  139.6870   75.1130  221.0340 C   0  0  0  0  0  0  0  0  0  0  0  0
  139.7030   74.1070  222.0560 N   0  0  0  0  0  0  0  0  0  0  0  0
  139.9110   72.7290  221.7670 C   0  0  0  0  0  0  0  0  0  0  0  0
  140.0910   72.2800  220.6050 O   0  0  0  0  0  0  0  0  0  0  0  0
  139.9200   71.7680  222.8840 C   0  0  0  0  0  0  0  0  0  0  0  0
  139.4610   70.4900  222.7350 C   0  0  0  0  0  0  0  0  0  0  0  0
  139.4720   69.5990  223.7880 C   0  0  0  0  0  0  0  0  0  0  0  0
  139.9580   70.0130  225.0050 C   0  0  0  0  0  0  0  0  0  0  0  0
  140.0010   69.1720  226.1060 C   0  0  0  0  0  0  0  0  0  0  0  0
  140.5010   69.6230  227.3320 C   0  0  0  0  0  0  0  0  0  0  0  0
  140.5420   68.5310  228.7140 Cl  0  0  0  0  0  0  0  0  0  0  0  0
  140.9640   70.9320  227.4610 C   0  0  0  0  0  0  0  0  0  0  0  0
  140.9230   71.7810  226.3570 C   0  0  0  0  0  0  0  0  0  0  0  0
  140.4230   71.3030  225.1600 C   0  0  0  0  0  0  0  0  0  0  0  0
  140.3860   72.1270  224.0960 N   0  0  0  0  0  0  0  0  0  0  0  0
  142.5329   80.8802  224.9296 H   0  0  0  0  0  0  0  0  0  0  0  0
  143.4704   81.7229  223.6499 H   0  0  0  0  0  0  0  0  0  0  0  0
  141.6760   81.8048  223.6499 H   0  0  0  0  0  0  0  0  0  0  0  0
  142.0557   80.1568  222.0205 H   0  0  0  0  0  0  0  0  0  0  0  0
  143.4959   79.5083  222.8347 H   0  0  0  0  0  0  0  0  0  0  0  0
  142.2042   78.0632  224.1035 H   0  0  0  0  0  0  0  0  0  0  0  0
  141.1156   79.3676  224.6151 H   0  0  0  0  0  0  0  0  0  0  0  0
  139.5945   78.5818  223.1912 H   0  0  0  0  0  0  0  0  0  0  0  0
  140.7682   79.0195  221.8394 H   0  0  0  0  0  0  0  0  0  0  0  0
  141.4900   76.4570  222.6980 H   0  0  0  0  0  0  0  0  0  0  0  0
  138.7690   74.9834  220.4419 H   0  0  0  0  0  0  0  0  0  0  0  0
  140.6076   74.9716  220.4488 H   0  0  0  0  0  0  0  0  0  0  0  0
  139.5570   74.3730  223.0700 H   0  0  0  0  0  0  0  0  0  0  0  0
  139.0755   70.1654  221.7572 H   0  0  0  0  0  0  0  0  0  0  0  0
  139.0976   68.5732  223.6557 H   0  0  0  0  0  0  0  0  0  0  0  0
  139.6377   68.1378  226.0145 H   0  0  0  0  0  0  0  0  0  0  0  0
  141.3573   71.2904  228.4238 H   0  0  0  0  0  0  0  0  0  0  0  0
  141.2835   72.8172  226.4367 H   0  0  0  0  0  0  0  0  0  0  0  0
  1  2  1  0
  2  3  1  0
  3  4  1  0
  4  5  1  0
  5  6  1  0
  6  7  2  0
  6  8  1  0
  8  9  1  0
  9 10  1  0
 10 11  2  0
 10 12  1  0
 12 13  2  0
 13 14  1  0
 14 15  2  0
 15 16  1  0
 16 17  2  0
 17 18  1  0
 17 19  1  0
 19 20  2  0
 20 21  1  0
 21 22  2  0
 22 12  1  0
 21 15  1  0
  1 23  1  0
  1 24  1  0
  1 25  1  0
  2 26  1  0
  2 27  1  0
  3 28  1  0
  3 29  1  0
  4 30  1  0
  4 31  1  0
  5 32  1  0
  8 33  1  0
  8 34  1  0
  9 35  1  0
 13 36  1  0
 14 37  1  0
 16 38  1  0
 19 39  1  0
 20 40  1  0
M  END
>  <smiles>  (46) 
CCCCNC(=O)CNC(=O)c1ccc2cc(Cl)ccc2n1

>  <score_type>  (46) 
oracle

>  <origin>  (46) 
autodockgpu

>  <m_score__min__energy>  (46) 
-7.6100000000000003

>  <m_primary>  (46) 
energy

>  <rmsd>  (46) 
3.628779331058874

>  <m_score__min__rmsd>  (46) 
3.628779331058874

>  <meeko>  (46) 
{"free_energy": -7.28, "intermolecular_energy": -9.07, "internal_energy": -0.84, "cluster_size": 24, "cluster_id": 1, "rank_in_cluster": 11}

>  <energy>  (46) 
-6.23

>  <cluster_rmsd>  (46) 
0.18

>  <cluster>  (46) 
4

$$$$

     RDKit          3D

 40 41  0  0  0  0  0  0  0  0999 V2000
  142.4770   81.0720  223.8260 C   0  0  0  0  0  0  0  0  0  0  0  0
  142.6860   79.7860  223.0410 C   0  0  0  0  0  0  0  0  0  0  0  0
  141.8370   78.7060  223.7240 C   0  0  0  0  0  0  0  0  0  0  0  0
  140.7920   78.3070  222.7430 C   0  0  0  0  0  0  0  0  0  0  0  0
  140.8620   76.9460  222.2800 N   0  0  0  0  0  0  0  0  0  0  0  0
  139.7060   76.3470  221.7360 C   0  0  0  0  0  0  0  0  0  0  0  0
  138.6610   77.0620  221.6960 O   0  0  0  0  0  0  0  0  0  0  0  0
  139.6040   74.9800  221.2200 C   0  0  0  0  0  0  0  0  0  0  0  0
  139.6700   73.9490  222.2140 N   0  0  0  0  0  0  0  0  0  0  0  0
  139.8590   72.5780  221.8820 C   0  0  0  0  0  0  0  0  0  0  0  0
  139.9780   72.1570  220.7020 O   0  0  0  0  0  0  0  0  0  0  0  0
  139.9220   71.5900  222.9740 C   0  0  0  0  0  0  0  0  0  0  0  0
  139.5030   70.3020  222.8010 C   0  0  0  0  0  0  0  0  0  0  0  0
  139.5650   69.3860  223.8310 C   0  0  0  0  0  0  0  0  0  0  0  0
  140.0600   69.7850  225.0480 C   0  0  0  0  0  0  0  0  0  0  0  0
  140.1530   68.9180  226.1260 C   0  0  0  0  0  0  0  0  0  0  0  0
  140.6610   69.3550  227.3530 C   0  0  0  0  0  0  0  0  0  0  0  0
  140.7660   68.2310  228.7070 Cl  0  0  0  0  0  0  0  0  0  0  0  0
  141.0840   70.6760  227.5080 C   0  0  0  0  0  0  0  0  0  0  0  0
  140.9930   71.5500  226.4260 C   0  0  0  0  0  0  0  0  0  0  0  0
  140.4850   71.0860  225.2270 C   0  0  0  0  0  0  0  0  0  0  0  0
  140.3990   71.9340  224.1860 N   0  0  0  0  0  0  0  0  0  0  0  0
  142.5125   80.8537  224.9035 H   0  0  0  0  0  0  0  0  0  0  0  0
  143.2702   81.7902  223.5711 H   0  0  0  0  0  0  0  0  0  0  0  0
  141.4972   81.5021  223.5711 H   0  0  0  0  0  0  0  0  0  0  0  0
  142.3600   79.9212  221.9992 H   0  0  0  0  0  0  0  0  0  0  0  0
  143.7485   79.5015  223.0258 H   0  0  0  0  0  0  0  0  0  0  0  0
  142.4627   77.8401  223.9860 H   0  0  0  0  0  0  0  0  0  0  0  0
  141.3864   79.0832  224.6539 H   0  0  0  0  0  0  0  0  0  0  0  0
  139.8098   78.4536  223.2161 H   0  0  0  0  0  0  0  0  0  0  0  0
  140.9560   78.9359  221.8556 H   0  0  0  0  0  0  0  0  0  0  0  0
  141.7390   76.3930  222.3470 H   0  0  0  0  0  0  0  0  0  0  0  0
  138.6428   74.8851  220.6937 H   0  0  0  0  0  0  0  0  0  0  0  0
  140.4769   74.8328  220.5670 H   0  0  0  0  0  0  0  0  0  0  0  0
  139.5760   74.1900  223.2410 H   0  0  0  0  0  0  0  0  0  0  0  0
  139.1089   69.9890  221.8229 H   0  0  0  0  0  0  0  0  0  0  0  0
  139.2230   68.3516  223.6794 H   0  0  0  0  0  0  0  0  0  0  0  0
  139.8233   67.8745  226.0146 H   0  0  0  0  0  0  0  0  0  0  0  0
  141.4842   71.0231  228.4720 H   0  0  0  0  0  0  0  0  0  0  0  0
  141.3211   72.5953  226.5249 H   0  0  0  0  0  0  0  0  0  0  0  0
  1  2  1  0
  2  3  1  0
  3  4  1  0
  4  5  1  0
  5  6  1  0
  6  7  2  0
  6  8  1  0
  8  9  1  0
  9 10  1  0
 10 11  2  0
 10 12  1  0
 12 13  2  0
 13 14  1  0
 14 15  2  0
 15 16  1  0
 16 17  2  0
 17 18  1  0
 17 19  1  0
 19 20  2  0
 20 21  1  0
 21 22  2  0
 22 12  1  0
 21 15  1  0
  1 23  1  0
  1 24  1  0
  1 25  1  0
  2 26  1  0
  2 27  1  0
  3 28  1  0
  3 29  1  0
  4 30  1  0
  4 31  1  0
  5 32  1  0
  8 33  1  0
  8 34  1  0
  9 35  1  0
 13 36  1  0
 14 37  1  0
 16 38  1  0
 19 39  1  0
 20 40  1  0
M  END
>  <smiles>  (47) 
CCCCNC(=O)CNC(=O)c1ccc2cc(Cl)ccc2n1

>  <score_type>  (47) 
oracle

>  <origin>  (47) 
autodockgpu

>  <m_score__min__energy>  (47) 
-7.6100000000000003

>  <m_primary>  (47) 
energy

>  <rmsd>  (47) 
3.581884760368313

>  <m_score__min__rmsd>  (47) 
3.581884760368313

>  <meeko>  (47) 
{"free_energy": -7.52, "intermolecular_energy": -9.31, "internal_energy": -0.85, "cluster_size": 24, "cluster_id": 1, "rank_in_cluster": 4}

>  <energy>  (47) 
-6.22

>  <cluster_rmsd>  (47) 
0.23

>  <cluster>  (47) 
4

$$$$

     RDKit          3D

 40 41  0  0  0  0  0  0  0  0999 V2000
  142.5620   80.5180  223.7030 C   0  0  0  0  0  0  0  0  0  0  0  0
  141.6450   79.3430  223.4010 C   0  0  0  0  0  0  0  0  0  0  0  0
  141.8910   78.9520  221.9370 C   0  0  0  0  0  0  0  0  0  0  0  0
  140.5510   78.8330  221.3020 C   0  0  0  0  0  0  0  0  0  0  0  0
  140.2650   77.5630  220.6890 N   0  0  0  0  0  0  0  0  0  0  0  0
  139.9590   76.4580  221.5120 C   0  0  0  0  0  0  0  0  0  0  0  0
  139.9630   76.6630  222.7620 O   0  0  0  0  0  0  0  0  0  0  0  0
  139.6430   75.1030  221.0540 C   0  0  0  0  0  0  0  0  0  0  0  0
  139.6770   74.0940  222.0730 N   0  0  0  0  0  0  0  0  0  0  0  0
  139.8940   72.7190  221.7800 C   0  0  0  0  0  0  0  0  0  0  0  0
  140.0680   72.2740  220.6160 O   0  0  0  0  0  0  0  0  0  0  0  0
  139.9200   71.7560  222.8950 C   0  0  0  0  0  0  0  0  0  0  0  0
  139.4570   70.4790  222.7520 C   0  0  0  0  0  0  0  0  0  0  0  0
  139.4850   69.5860  223.8030 C   0  0  0  0  0  0  0  0  0  0  0  0
  139.9920   69.9970  225.0120 C   0  0  0  0  0  0  0  0  0  0  0  0
  140.0520   69.1540  226.1100 C   0  0  0  0  0  0  0  0  0  0  0  0
  140.5740   69.6010  227.3280 C   0  0  0  0  0  0  0  0  0  0  0  0
  140.6370   68.5070  228.7080 Cl  0  0  0  0  0  0  0  0  0  0  0  0
  141.0420   70.9100  227.4520 C   0  0  0  0  0  0  0  0  0  0  0  0
  140.9840   71.7600  226.3500 C   0  0  0  0  0  0  0  0  0  0  0  0
  140.4620   71.2860  225.1610 C   0  0  0  0  0  0  0  0  0  0  0  0
  140.4080   72.1110  224.1000 N   0  0  0  0  0  0  0  0  0  0  0  0
  142.6564   80.6389  224.7923 H   0  0  0  0  0  0  0  0  0  0  0  0
  143.5545   80.3299  223.2676 H   0  0  0  0  0  0  0  0  0  0  0  0
  142.1384   81.4351  223.2676 H   0  0  0  0  0  0  0  0  0  0  0  0
  141.8823   78.4976  224.0636 H   0  0  0  0  0  0  0  0  0  0  0  0
  140.5913   79.6127  223.5654 H   0  0  0  0  0  0  0  0  0  0  0  0
  142.4841   79.7278  221.4307 H   0  0  0  0  0  0  0  0  0  0  0  0
  142.4509   78.0078  221.8656 H   0  0  0  0  0  0  0  0  0  0  0  0
  139.7917   79.0134  222.0772 H   0  0  0  0  0  0  0  0  0  0  0  0
  140.5374   79.5711  220.4865 H   0  0  0  0  0  0  0  0  0  0  0  0
  140.2880   77.4390  219.6580 H   0  0  0  0  0  0  0  0  0  0  0  0
  138.6319   75.1165  220.6211 H   0  0  0  0  0  0  0  0  0  0  0  0
  140.4255   74.8337  220.3293 H   0  0  0  0  0  0  0  0  0  0  0  0
  139.5370   74.3570  223.0900 H   0  0  0  0  0  0  0  0  0  0  0  0
  139.0542   70.1566  221.7805 H   0  0  0  0  0  0  0  0  0  0  0  0
  139.1073   68.5608  223.6751 H   0  0  0  0  0  0  0  0  0  0  0  0
  139.6847   68.1208  226.0226 H   0  0  0  0  0  0  0  0  0  0  0  0
  141.4518   71.2662  228.4086 H   0  0  0  0  0  0  0  0  0  0  0  0
  141.3488   72.7950  226.4249 H   0  0  0  0  0  0  0  0  0  0  0  0
  1  2  1  0
  2  3  1  0
  3  4  1  0
  4  5  1  0
  5  6  1  0
  6  7  2  0
  6  8  1  0
  8  9  1  0
  9 10  1  0
 10 11  2  0
 10 12  1  0
 12 13  2  0
 13 14  1  0
 14 15  2  0
 15 16  1  0
 16 17  2  0
 17 18  1  0
 17 19  1  0
 19 20  2  0
 20 21  1  0
 21 22  2  0
 22 12  1  0
 21 15  1  0
  1 23  1  0
  1 24  1  0
  1 25  1  0
  2 26  1  0
  2 27  1  0
  3 28  1  0
  3 29  1  0
  4 30  1  0
  4 31  1  0
  5 32  1  0
  8 33  1  0
  8 34  1  0
  9 35  1  0
 13 36  1  0
 14 37  1  0
 16 38  1  0
 19 39  1  0
 20 40  1  0
M  END
>  <smiles>  (48) 
CCCCNC(=O)CNC(=O)c1ccc2cc(Cl)ccc2n1

>  <score_type>  (48) 
oracle

>  <origin>  (48) 
autodockgpu

>  <m_score__min__energy>  (48) 
-7.6100000000000003

>  <m_primary>  (48) 
energy

>  <rmsd>  (48) 
3.394950791062944

>  <m_score__min__rmsd>  (48) 
3.394950791062944

>  <meeko>  (48) 
{"free_energy": -6.7, "intermolecular_energy": -8.49, "internal_energy": -1.29, "cluster_size": 24, "cluster_id": 1, "rank_in_cluster": 18}

>  <energy>  (48) 
-6.21

>  <cluster_rmsd>  (48) 
0.63

>  <cluster>  (48) 
4

$$$$

     RDKit          3D

 40 41  0  0  0  0  0  0  0  0999 V2000
  146.0600   73.4010  221.2380 C   0  0  0  0  0  0  0  0  0  0  0  0
  144.5840   73.3440  220.8770 C   0  0  0  0  0  0  0  0  0  0  0  0
  144.4180   74.1190  219.5620 C   0  0  0  0  0  0  0  0  0  0  0  0
  143.3780   75.1530  219.8100 C   0  0  0  0  0  0  0  0  0  0  0  0
  142.1490   74.6720  220.3840 N   0  0  0  0  0  0  0  0  0  0  0  0
  141.0810   75.5750  220.5680 C   0  0  0  0  0  0  0  0  0  0  0  0
  141.2820   76.7740  220.2140 O   0  0  0  0  0  0  0  0  0  0  0  0
  139.7670   75.2530  221.1330 C   0  0  0  0  0  0  0  0  0  0  0  0
  139.7720   74.2290  222.1370 N   0  0  0  0  0  0  0  0  0  0  0  0
  140.0610   72.8680  221.8400 C   0  0  0  0  0  0  0  0  0  0  0  0
  140.3290   72.4500  220.6830 O   0  0  0  0  0  0  0  0  0  0  0  0
  140.0510   71.8880  222.9400 C   0  0  0  0  0  0  0  0  0  0  0  0
  139.5840   70.6170  222.7650 C   0  0  0  0  0  0  0  0  0  0  0  0
  139.5770   69.7080  223.8020 C   0  0  0  0  0  0  0  0  0  0  0  0
  140.0530   70.0970  225.0310 C   0  0  0  0  0  0  0  0  0  0  0  0
  140.0780   69.2370  226.1170 C   0  0  0  0  0  0  0  0  0  0  0  0
  140.5690   69.6620  227.3560 C   0  0  0  0  0  0  0  0  0  0  0  0
  140.5870   68.5470  228.7200 Cl  0  0  0  0  0  0  0  0  0  0  0  0
  141.0410   70.9660  227.5130 C   0  0  0  0  0  0  0  0  0  0  0  0
  141.0190   71.8330  226.4230 C   0  0  0  0  0  0  0  0  0  0  0  0
  140.5270   71.3800  225.2130 C   0  0  0  0  0  0  0  0  0  0  0  0
  140.5070   72.2220  224.1630 N   0  0  0  0  0  0  0  0  0  0  0  0
  146.1699   73.4052  222.3325 H   0  0  0  0  0  0  0  0  0  0  0  0
  146.5736   72.5220  220.8213 H   0  0  0  0  0  0  0  0  0  0  0  0
  146.5043   74.3170  220.8213 H   0  0  0  0  0  0  0  0  0  0  0  0
  144.2671   72.2992  220.7432 H   0  0  0  0  0  0  0  0  0  0  0  0
  143.9658   73.7827  221.6741 H   0  0  0  0  0  0  0  0  0  0  0  0
  145.3681   74.5958  219.2793 H   0  0  0  0  0  0  0  0  0  0  0  0
  144.1254   73.4495  218.7397 H   0  0  0  0  0  0  0  0  0  0  0  0
  143.8016   75.9019  220.4954 H   0  0  0  0  0  0  0  0  0  0  0  0
  143.1118   75.5559  218.8217 H   0  0  0  0  0  0  0  0  0  0  0  0
  142.0350   73.6810  220.6730 H   0  0  0  0  0  0  0  0  0  0  0  0
  139.3552   76.1688  221.5821 H   0  0  0  0  0  0  0  0  0  0  0  0
  139.1622   74.8637  220.3007 H   0  0  0  0  0  0  0  0  0  0  0  0
  139.5550   74.4700  223.1460 H   0  0  0  0  0  0  0  0  0  0  0  0
  139.2061   70.3122  221.7779 H   0  0  0  0  0  0  0  0  0  0  0  0
  139.1964   68.6875  223.6478 H   0  0  0  0  0  0  0  0  0  0  0  0
  139.7073   68.2076  226.0036 H   0  0  0  0  0  0  0  0  0  0  0  0
  141.4259   71.3051  228.4861 H   0  0  0  0  0  0  0  0  0  0  0  0
  141.3881   72.8643  226.5236 H   0  0  0  0  0  0  0  0  0  0  0  0
  1  2  1  0
  2  3  1  0
  3  4  1  0
  4  5  1  0
  5  6  1  0
  6  7  2  0
  6  8  1  0
  8  9  1  0
  9 10  1  0
 10 11  2  0
 10 12  1  0
 12 13  2  0
 13 14  1  0
 14 15  2  0
 15 16  1  0
 16 17  2  0
 17 18  1  0
 17 19  1  0
 19 20  2  0
 20 21  1  0
 21 22  2  0
 22 12  1  0
 21 15  1  0
  1 23  1  0
  1 24  1  0
  1 25  1  0
  2 26  1  0
  2 27  1  0
  3 28  1  0
  3 29  1  0
  4 30  1  0
  4 31  1  0
  5 32  1  0
  8 33  1  0
  8 34  1  0
  9 35  1  0
 13 36  1  0
 14 37  1  0
 16 38  1  0
 19 39  1  0
 20 40  1  0
M  END
>  <smiles>  (49) 
CCCCNC(=O)CNC(=O)c1ccc2cc(Cl)ccc2n1

>  <score_type>  (49) 
oracle

>  <origin>  (49) 
autodockgpu

>  <m_score__min__energy>  (49) 
-7.6100000000000003

>  <m_primary>  (49) 
energy

>  <rmsd>  (49) 
3.3499207820538244

>  <m_score__min__rmsd>  (49) 
3.3499207820538244

>  <meeko>  (49) 
{"free_energy": -6.4, "intermolecular_energy": -8.19, "internal_energy": -1.71, "cluster_size": 9, "cluster_id": 2, "rank_in_cluster": 7}

>  <energy>  (49) 
-6.14

>  <cluster_rmsd>  (49) 
0.44

>  <cluster>  (49) 
4

$$$$

     RDKit          3D

 40 41  0  0  0  0  0  0  0  0999 V2000
  142.1940   78.0250  219.0910 C   0  0  0  0  0  0  0  0  0  0  0  0
  141.8780   77.2530  220.3630 C   0  0  0  0  0  0  0  0  0  0  0  0
  141.4780   78.2880  221.4230 C   0  0  0  0  0  0  0  0  0  0  0  0
  140.8180   77.5320  222.5220 C   0  0  0  0  0  0  0  0  0  0  0  0
  140.3910   76.1990  222.1890 N   0  0  0  0  0  0  0  0  0  0  0  0
  139.1190   76.0120  221.6080 C   0  0  0  0  0  0  0  0  0  0  0  0
  138.4210   77.0520  221.4200 O   0  0  0  0  0  0  0  0  0  0  0  0
  138.5330   74.7290  221.2080 C   0  0  0  0  0  0  0  0  0  0  0  0
  138.6720   73.6730  222.1680 N   0  0  0  0  0  0  0  0  0  0  0  0
  139.9130   73.0200  222.4110 C   0  0  0  0  0  0  0  0  0  0  0  0
  140.9800   73.3060  221.8090 O   0  0  0  0  0  0  0  0  0  0  0  0
  139.9610   71.9490  223.4230 C   0  0  0  0  0  0  0  0  0  0  0  0
  139.5300   70.6830  223.1490 C   0  0  0  0  0  0  0  0  0  0  0  0
  139.5770   69.6900  224.1050 C   0  0  0  0  0  0  0  0  0  0  0  0
  140.0710   69.9890  225.3510 C   0  0  0  0  0  0  0  0  0  0  0  0
  140.1490   69.0400  226.3600 C   0  0  0  0  0  0  0  0  0  0  0  0
  140.6560   69.3750  227.6190 C   0  0  0  0  0  0  0  0  0  0  0  0
  140.7430   68.1490  228.8820 Cl  0  0  0  0  0  0  0  0  0  0  0  0
  141.0910   70.6760  227.8770 C   0  0  0  0  0  0  0  0  0  0  0  0
  141.0140   71.6310  226.8660 C   0  0  0  0  0  0  0  0  0  0  0  0
  140.5080   71.2670  225.6330 C   0  0  0  0  0  0  0  0  0  0  0  0
  140.4360   72.1940  224.6600 N   0  0  0  0  0  0  0  0  0  0  0  0
  142.5987   79.0137  219.3531 H   0  0  0  0  0  0  0  0  0  0  0  0
  142.9371   77.4696  218.5000 H   0  0  0  0  0  0  0  0  0  0  0  0
  141.2747   78.1500  218.5000 H   0  0  0  0  0  0  0  0  0  0  0  0
  141.0480   76.5534  220.1849 H   0  0  0  0  0  0  0  0  0  0  0  0
  142.7470   76.6654  220.6938 H   0  0  0  0  0  0  0  0  0  0  0  0
  142.3699   78.8085  221.8018 H   0  0  0  0  0  0  0  0  0  0  0  0
  140.8042   79.0489  221.0024 H   0  0  0  0  0  0  0  0  0  0  0  0
  141.5287   77.4609  223.3585 H   0  0  0  0  0  0  0  0  0  0  0  0
  139.9017   78.0904  222.7640 H   0  0  0  0  0  0  0  0  0  0  0  0
  140.9930   75.3730  222.3750 H   0  0  0  0  0  0  0  0  0  0  0  0
  137.4595   74.8861  221.0267 H   0  0  0  0  0  0  0  0  0  0  0  0
  139.0846   74.4051  220.3131 H   0  0  0  0  0  0  0  0  0  0  0  0
  137.8350   73.3470  222.7290 H   0  0  0  0  0  0  0  0  0  0  0  0
  139.1382   70.4507  222.1477 H   0  0  0  0  0  0  0  0  0  0  0  0
  139.2242   68.6742  223.8730 H   0  0  0  0  0  0  0  0  0  0  0  0
  139.8080   68.0121  226.1671 H   0  0  0  0  0  0  0  0  0  0  0  0
  141.4897   70.9438  228.8666 H   0  0  0  0  0  0  0  0  0  0  0  0
  141.3518   72.6621  227.0470 H   0  0  0  0  0  0  0  0  0  0  0  0
  1  2  1  0
  2  3  1  0
  3  4  1  0
  4  5  1  0
  5  6  1  0
  6  7  2  0
  6  8  1  0
  8  9  1  0
  9 10  1  0
 10 11  2  0
 10 12  1  0
 12 13  2  0
 13 14  1  0
 14 15  2  0
 15 16  1  0
 16 17  2  0
 17 18  1  0
 17 19  1  0
 19 20  2  0
 20 21  1  0
 21 22  2  0
 22 12  1  0
 21 15  1  0
  1 23  1  0
  1 24  1  0
  1 25  1  0
  2 26  1  0
  2 27  1  0
  3 28  1  0
  3 29  1  0
  4 30  1  0
  4 31  1  0
  5 32  1  0
  8 33  1  0
  8 34  1  0
  9 35  1  0
 13 36  1  0
 14 37  1  0
 16 38  1  0
 19 39  1  0
 20 40  1  0
M  END
>  <smiles>  (50) 
CCCCNC(=O)CNC(=O)c1ccc2cc(Cl)ccc2n1

>  <score_type>  (50) 
oracle

>  <origin>  (50) 
autodockgpu

>  <m_score__min__energy>  (50) 
-7.6100000000000003

>  <m_primary>  (50) 
energy

>  <rmsd>  (50) 
2.665795672852777

>  <m_score__min__rmsd>  (50) 
2.665795672852777

>  <meeko>  (50) 
{"free_energy": -6.03, "intermolecular_energy": -7.82, "internal_energy": -1.5, "cluster_size": 24, "cluster_id": 1, "rank_in_cluster": 24}

>  <energy>  (50) 
-5.94

>  <cluster_rmsd>  (50) 
0.92

>  <cluster>  (50) 
4

$$$$
