
     RDKit          3D

 40 41  0  0  0  0  0  0  0  0999 V2000
  146.0180   73.3950  221.3550 C   0  0  0  0  0  0  0  0  0  0  0  0
  145.0620   73.3650  220.1540 C   0  0  0  0  0  0  0  0  0  0  0  0
  144.5160   71.9580  220.0730 C   0  0  0  0  0  0  0  0  0  0  0  0
  143.9930   74.3610  220.4600 C   0  0  0  0  0  0  0  0  0  0  0  0
  142.7060   73.8050  220.7790 N   0  0  0  0  0  0  0  0  0  0  0  0
  141.5700   74.6260  220.7690 C   0  0  0  0  0  0  0  0  0  0  0  0
  141.7530   75.8550  220.4740 O   0  0  0  0  0  0  0  0  0  0  0  0
  140.1930   74.2200  221.0650 C   0  0  0  0  0  0  0  0  0  0  0  0
  140.0250   73.4410  222.2710 N   0  0  0  0  0  0  0  0  0  0  0  0
  140.4700   72.0890  222.3880 C   0  0  0  0  0  0  0  0  0  0  0  0
  141.0430   71.4870  221.4170 O   0  0  0  0  0  0  0  0  0  0  0  0
  140.2760   71.3570  223.6460 C   0  0  0  0  0  0  0  0  0  0  0  0
  139.6410   70.1390  223.6530 C   0  0  0  0  0  0  0  0  0  0  0  0
  139.4340   69.4110  224.8110 C   0  0  0  0  0  0  0  0  0  0  0  0
  139.8940   69.9600  225.9890 C   0  0  0  0  0  0  0  0  0  0  0  0
  139.6930   69.2440  227.1520 C   0  0  0  0  0  0  0  0  0  0  0  0
  140.1670   69.8220  228.3270 C   0  0  0  0  0  0  0  0  0  0  0  0
  140.7990   71.0450  228.2880 C   0  0  0  0  0  0  0  0  0  0  0  0
  140.9990   71.7560  227.1330 C   0  0  0  0  0  0  0  0  0  0  0  0
  140.5270   71.1860  225.9560 C   0  0  0  0  0  0  0  0  0  0  0  0
  140.7200   71.8800  224.8180 N   0  0  0  0  0  0  0  0  0  0  0  0
  145.4355   73.3767  222.2879 H   0  0  0  0  0  0  0  0  0  0  0  0
  146.6799   72.5172  221.3188 H   0  0  0  0  0  0  0  0  0  0  0  0
  146.6236   74.3126  221.3188 H   0  0  0  0  0  0  0  0  0  0  0  0
  145.5308   73.6168  219.1913 H   0  0  0  0  0  0  0  0  0  0  0  0
  144.3634   71.5648  221.0889 H   0  0  0  0  0  0  0  0  0  0  0  0
  143.5563   71.9675  219.5355 H   0  0  0  0  0  0  0  0  0  0  0  0
  145.2309   71.3176  219.5355 H   0  0  0  0  0  0  0  0  0  0  0  0
  144.3253   74.9626  221.3189 H   0  0  0  0  0  0  0  0  0  0  0  0
  143.8510   74.9461  219.5394 H   0  0  0  0  0  0  0  0  0  0  0  0
  142.6010   72.7990  221.0290 H   0  0  0  0  0  0  0  0  0  0  0  0
  139.5832   75.1305  221.1607 H   0  0  0  0  0  0  0  0  0  0  0  0
  139.8829   73.5675  220.2354 H   0  0  0  0  0  0  0  0  0  0  0  0
  139.5580   73.8330  223.1430 H   0  0  0  0  0  0  0  0  0  0  0  0
  139.2824   69.7256  222.6988 H   0  0  0  0  0  0  0  0  0  0  0  0
  138.9245   68.4363  224.7927 H   0  0  0  0  0  0  0  0  0  0  0  0
  139.1851   68.2683  227.1507 H   0  0  0  0  0  0  0  0  0  0  0  0
  140.0365   69.3012  229.2871 H   0  0  0  0  0  0  0  0  0  0  0  0
  141.1625   71.4740  229.2334 H   0  0  0  0  0  0  0  0  0  0  0  0
  141.5085   72.7308  227.1373 H   0  0  0  0  0  0  0  0  0  0  0  0
  1  2  1  0
  2  3  1  0
  2  4  1  0
  4  5  1  0
  5  6  1  0
  6  7  2  0
  6  8  1  0
  8  9  1  0
  9 10  1  0
 10 11  2  0
 10 12  1  0
 12 13  2  0
 13 14  1  0
 14 15  2  0
 15 16  1  0
 16 17  2  0
 17 18  1  0
 18 19  2  0
 19 20  1  0
 20 21  2  0
 21 12  1  0
 20 15  1  0
  1 22  1  0
  1 23  1  0
  1 24  1  0
  2 25  1  0
  3 26  1  0
  3 27  1  0
  3 28  1  0
  4 29  1  0
  4 30  1  0
  5 31  1  0
  8 32  1  0
  8 33  1  0
  9 34  1  0
 13 35  1  0
 14 36  1  0
 16 37  1  0
 17 38  1  0
 18 39  1  0
 19 40  1  0
M  END
>  <smiles>  (1) 
CC(C)CNC(=O)CNC(=O)c1ccc2ccccc2n1

>  <score_type>  (1) 
oracle

>  <origin>  (1) 
autodockgpu

>  <m_score__min__energy>  (1) 
-7.5300000000000002

>  <m_primary>  (1) 
energy

>  <rmsd>  (1) 
3.5859680235947304

>  <m_score__min__rmsd>  (1) 
3.5859680235947304

>  <meeko>  (1) 
{"free_energy": -6.88, "intermolecular_energy": -8.37, "internal_energy": -1.58, "cluster_size": 36, "cluster_id": 2, "rank_in_cluster": 16}

>  <energy>  (1) 
-7.53

>  <cluster_rmsd>  (1) 
0.0

>  <cluster>  (1) 
1

$$$$

     RDKit          3D

 40 41  0  0  0  0  0  0  0  0999 V2000
  145.5280   72.1190  219.6220 C   0  0  0  0  0  0  0  0  0  0  0  0
  145.0710   72.9630  220.8210 C   0  0  0  0  0  0  0  0  0  0  0  0
  146.2710   73.7690  221.2620 C   0  0  0  0  0  0  0  0  0  0  0  0
  143.9710   73.8330  220.3090 C   0  0  0  0  0  0  0  0  0  0  0  0
  142.6460   73.4560  220.7180 N   0  0  0  0  0  0  0  0  0  0  0  0
  141.6240   74.4150  220.7430 C   0  0  0  0  0  0  0  0  0  0  0  0
  141.9430   75.6010  220.3950 O   0  0  0  0  0  0  0  0  0  0  0  0
  140.2260   74.1980  221.1280 C   0  0  0  0  0  0  0  0  0  0  0  0
  140.0320   73.4130  222.3270 N   0  0  0  0  0  0  0  0  0  0  0  0
  140.4470   72.0510  222.4360 C   0  0  0  0  0  0  0  0  0  0  0  0
  141.0120   71.4430  221.4640 O   0  0  0  0  0  0  0  0  0  0  0  0
  140.2260   71.3130  223.6870 C   0  0  0  0  0  0  0  0  0  0  0  0
  139.5860   70.0980  223.6770 C   0  0  0  0  0  0  0  0  0  0  0  0
  139.3550   69.3650  224.8270 C   0  0  0  0  0  0  0  0  0  0  0  0
  139.7970   69.9060  226.0150 C   0  0  0  0  0  0  0  0  0  0  0  0
  139.5720   69.1850  227.1710 C   0  0  0  0  0  0  0  0  0  0  0  0
  140.0290   69.7550  228.3580 C   0  0  0  0  0  0  0  0  0  0  0  0
  140.6670   70.9750  228.3360 C   0  0  0  0  0  0  0  0  0  0  0  0
  140.8910   71.6910  227.1870 C   0  0  0  0  0  0  0  0  0  0  0  0
  140.4370   71.1290  226.0000 C   0  0  0  0  0  0  0  0  0  0  0  0
  140.6530   71.8280  224.8690 N   0  0  0  0  0  0  0  0  0  0  0  0
  146.0226   71.2055  219.9838 H   0  0  0  0  0  0  0  0  0  0  0  0
  144.6546   71.8458  219.0117 H   0  0  0  0  0  0  0  0  0  0  0  0
  146.2341   72.7011  219.0117 H   0  0  0  0  0  0  0  0  0  0  0  0
  144.7053   72.3790  221.6785 H   0  0  0  0  0  0  0  0  0  0  0  0
  146.3109   73.7958  222.3609 H   0  0  0  0  0  0  0  0  0  0  0  0
  147.1885   73.3033  220.8730 H   0  0  0  0  0  0  0  0  0  0  0  0
  146.1870   74.7945  220.8730 H   0  0  0  0  0  0  0  0  0  0  0  0
  144.1565   74.8580  220.6625 H   0  0  0  0  0  0  0  0  0  0  0  0
  143.9902   73.7329  219.2137 H   0  0  0  0  0  0  0  0  0  0  0  0
  142.4290   72.4790  221.0090 H   0  0  0  0  0  0  0  0  0  0  0  0
  139.7600   75.1818  221.2863 H   0  0  0  0  0  0  0  0  0  0  0  0
  139.7699   73.6222  220.3092 H   0  0  0  0  0  0  0  0  0  0  0  0
  139.5680   73.8080  223.1990 H   0  0  0  0  0  0  0  0  0  0  0  0
  139.2428   69.6908  222.7145 H   0  0  0  0  0  0  0  0  0  0  0  0
  138.8411   68.3930  224.7948 H   0  0  0  0  0  0  0  0  0  0  0  0
  139.0591   68.2120  227.1559 H   0  0  0  0  0  0  0  0  0  0  0  0
  139.8799   69.2299  229.3130 H   0  0  0  0  0  0  0  0  0  0  0  0
  141.0155   71.3980  229.2897 H   0  0  0  0  0  0  0  0  0  0  0  0
  141.4053   72.6632  227.2047 H   0  0  0  0  0  0  0  0  0  0  0  0
  1  2  1  0
  2  3  1  0
  2  4  1  0
  4  5  1  0
  5  6  1  0
  6  7  2  0
  6  8  1  0
  8  9  1  0
  9 10  1  0
 10 11  2  0
 10 12  1  0
 12 13  2  0
 13 14  1  0
 14 15  2  0
 15 16  1  0
 16 17  2  0
 17 18  1  0
 18 19  2  0
 19 20  1  0
 20 21  2  0
 21 12  1  0
 20 15  1  0
  1 22  1  0
  1 23  1  0
  1 24  1  0
  2 25  1  0
  3 26  1  0
  3 27  1  0
  3 28  1  0
  4 29  1  0
  4 30  1  0
  5 31  1  0
  8 32  1  0
  8 33  1  0
  9 34  1  0
 13 35  1  0
 14 36  1  0
 16 37  1  0
 17 38  1  0
 18 39  1  0
 19 40  1  0
M  END
>  <smiles>  (2) 
CC(C)CNC(=O)CNC(=O)c1ccc2ccccc2n1

>  <score_type>  (2) 
oracle

>  <origin>  (2) 
autodockgpu

>  <m_score__min__energy>  (2) 
-7.5300000000000002

>  <m_primary>  (2) 
energy

>  <rmsd>  (2) 
3.724835247861605

>  <m_score__min__rmsd>  (2) 
3.724835247861605

>  <meeko>  (2) 
{"free_energy": -6.86, "intermolecular_energy": -8.35, "internal_energy": -1.52, "cluster_size": 36, "cluster_id": 2, "rank_in_cluster": 21}

>  <energy>  (2) 
-7.48

>  <cluster_rmsd>  (2) 
0.67

>  <cluster>  (2) 
1

$$$$

     RDKit          3D

 40 41  0  0  0  0  0  0  0  0999 V2000
  146.0020   73.4300  221.2900 C   0  0  0  0  0  0  0  0  0  0  0  0
  145.0120   73.3840  220.1170 C   0  0  0  0  0  0  0  0  0  0  0  0
  144.4720   71.9730  220.0650 C   0  0  0  0  0  0  0  0  0  0  0  0
  143.9470   74.3780  220.4450 C   0  0  0  0  0  0  0  0  0  0  0  0
  142.6650   73.8190  220.7780 N   0  0  0  0  0  0  0  0  0  0  0  0
  141.5230   74.6320  220.7530 C   0  0  0  0  0  0  0  0  0  0  0  0
  141.6970   75.8550  220.4320 O   0  0  0  0  0  0  0  0  0  0  0  0
  140.1490   74.2220  221.0600 C   0  0  0  0  0  0  0  0  0  0  0  0
  139.9930   73.4480  222.2710 N   0  0  0  0  0  0  0  0  0  0  0  0
  140.4360   72.0950  222.3870 C   0  0  0  0  0  0  0  0  0  0  0  0
  140.9960   71.4870  221.4120 O   0  0  0  0  0  0  0  0  0  0  0  0
  140.2530   71.3670  223.6500 C   0  0  0  0  0  0  0  0  0  0  0  0
  139.6190   70.1490  223.6680 C   0  0  0  0  0  0  0  0  0  0  0  0
  139.4230   69.4250  224.8300 C   0  0  0  0  0  0  0  0  0  0  0  0
  139.8930   69.9790  226.0010 C   0  0  0  0  0  0  0  0  0  0  0  0
  139.7030   69.2670  227.1690 C   0  0  0  0  0  0  0  0  0  0  0  0
  140.1870   69.8500  228.3380 C   0  0  0  0  0  0  0  0  0  0  0  0
  140.8180   71.0730  228.2880 C   0  0  0  0  0  0  0  0  0  0  0  0
  141.0060   71.7810  227.1280 C   0  0  0  0  0  0  0  0  0  0  0  0
  140.5250   71.2050  225.9580 C   0  0  0  0  0  0  0  0  0  0  0  0
  140.7070   71.8950  224.8160 N   0  0  0  0  0  0  0  0  0  0  0  0
  145.4471   73.4042  222.2394 H   0  0  0  0  0  0  0  0  0  0  0  0
  146.6757   72.5622  221.2354 H   0  0  0  0  0  0  0  0  0  0  0  0
  146.5924   74.3565  221.2354 H   0  0  0  0  0  0  0  0  0  0  0  0
  145.4509   73.6291  219.1386 H   0  0  0  0  0  0  0  0  0  0  0  0
  144.3283   71.5974  221.0889 H   0  0  0  0  0  0  0  0  0  0  0  0
  143.5086   71.9684  219.5342 H   0  0  0  0  0  0  0  0  0  0  0  0
  145.1862   71.3264  219.5342 H   0  0  0  0  0  0  0  0  0  0  0  0
  144.2911   74.9736  221.3034 H   0  0  0  0  0  0  0  0  0  0  0  0
  143.7921   74.9699  219.5309 H   0  0  0  0  0  0  0  0  0  0  0  0
  142.5680   72.8180  221.0500 H   0  0  0  0  0  0  0  0  0  0  0  0
  139.5362   75.1305  221.1556 H   0  0  0  0  0  0  0  0  0  0  0  0
  139.8354   73.5648  220.2355 H   0  0  0  0  0  0  0  0  0  0  0  0
  139.5370   73.8440  223.1470 H   0  0  0  0  0  0  0  0  0  0  0  0
  139.2518   69.7318  222.7187 H   0  0  0  0  0  0  0  0  0  0  0  0
  138.9143   68.4498  224.8199 H   0  0  0  0  0  0  0  0  0  0  0  0
  139.1961   68.2908  227.1759 H   0  0  0  0  0  0  0  0  0  0  0  0
  140.0651   69.3332  229.3014 H   0  0  0  0  0  0  0  0  0  0  0  0
  141.1911   71.5052  229.2282 H   0  0  0  0  0  0  0  0  0  0  0  0
  141.5129   72.7573  227.1240 H   0  0  0  0  0  0  0  0  0  0  0  0
  1  2  1  0
  2  3  1  0
  2  4  1  0
  4  5  1  0
  5  6  1  0
  6  7  2  0
  6  8  1  0
  8  9  1  0
  9 10  1  0
 10 11  2  0
 10 12  1  0
 12 13  2  0
 13 14  1  0
 14 15  2  0
 15 16  1  0
 16 17  2  0
 17 18  1  0
 18 19  2  0
 19 20  1  0
 20 21  2  0
 21 12  1  0
 20 15  1  0
  1 22  1  0
  1 23  1  0
  1 24  1  0
  2 25  1  0
  3 26  1  0
  3 27  1  0
  3 28  1  0
  4 29  1  0
  4 30  1  0
  5 31  1  0
  8 32  1  0
  8 33  1  0
  9 34  1  0
 13 35  1  0
 14 36  1  0
 16 37  1  0
 17 38  1  0
 18 39  1  0
 19 40  1  0
M  END
>  <smiles>  (3) 
CC(C)CNC(=O)CNC(=O)c1ccc2ccccc2n1

>  <score_type>  (3) 
oracle

>  <origin>  (3) 
autodockgpu

>  <m_score__min__energy>  (3) 
-7.5300000000000002

>  <m_primary>  (3) 
energy

>  <rmsd>  (3) 
3.5558069798483425

>  <m_score__min__rmsd>  (3) 
3.5558069798483425

>  <meeko>  (3) 
{"free_energy": -6.88, "intermolecular_energy": -8.37, "internal_energy": -1.58, "cluster_size": 36, "cluster_id": 2, "rank_in_cluster": 18}

>  <energy>  (3) 
-7.47

>  <cluster_rmsd>  (3) 
0.56

>  <cluster>  (3) 
1

$$$$

     RDKit          3D

 40 41  0  0  0  0  0  0  0  0999 V2000
  145.8600   73.8570  221.0330 C   0  0  0  0  0  0  0  0  0  0  0  0
  144.8100   73.4090  220.0060 C   0  0  0  0  0  0  0  0  0  0  0  0
  144.3420   72.0380  220.4390 C   0  0  0  0  0  0  0  0  0  0  0  0
  143.7150   74.4210  220.0750 C   0  0  0  0  0  0  0  0  0  0  0  0
  142.3950   73.8870  220.2780 N   0  0  0  0  0  0  0  0  0  0  0  0
  141.4020   74.6860  220.8620 C   0  0  0  0  0  0  0  0  0  0  0  0
  141.7420   75.8710  221.1930 O   0  0  0  0  0  0  0  0  0  0  0  0
  140.0150   74.3000  221.1340 C   0  0  0  0  0  0  0  0  0  0  0  0
  139.8220   73.4770  222.3070 N   0  0  0  0  0  0  0  0  0  0  0  0
  140.4780   72.2210  222.4880 C   0  0  0  0  0  0  0  0  0  0  0  0
  141.2750   71.7490  221.6080 O   0  0  0  0  0  0  0  0  0  0  0  0
  140.2430   71.4390  223.7090 C   0  0  0  0  0  0  0  0  0  0  0  0
  139.5790   70.2380  223.6510 C   0  0  0  0  0  0  0  0  0  0  0  0
  139.3340   69.4650  224.7720 C   0  0  0  0  0  0  0  0  0  0  0  0
  139.7860   69.9490  225.9800 C   0  0  0  0  0  0  0  0  0  0  0  0
  139.5470   69.1870  227.1060 C   0  0  0  0  0  0  0  0  0  0  0  0
  140.0150   69.7000  228.3140 C   0  0  0  0  0  0  0  0  0  0  0  0
  140.6770   70.9070  228.3400 C   0  0  0  0  0  0  0  0  0  0  0  0
  140.9140   71.6640  227.2210 C   0  0  0  0  0  0  0  0  0  0  0  0
  140.4500   71.1590  226.0130 C   0  0  0  0  0  0  0  0  0  0  0  0
  140.6790   71.8980  224.9100 N   0  0  0  0  0  0  0  0  0  0  0  0
  145.4727   73.6918  222.0492 H   0  0  0  0  0  0  0  0  0  0  0  0
  146.7822   73.2740  220.8927 H   0  0  0  0  0  0  0  0  0  0  0  0
  146.0772   74.9262  220.8927 H   0  0  0  0  0  0  0  0  0  0  0  0
  145.1809   73.3440  218.9724 H   0  0  0  0  0  0  0  0  0  0  0  0
  144.3245   71.9866  221.5377 H   0  0  0  0  0  0  0  0  0  0  0  0
  143.3305   71.8551  220.0472 H   0  0  0  0  0  0  0  0  0  0  0  0
  145.0305   71.2748  220.0472 H   0  0  0  0  0  0  0  0  0  0  0  0
  143.9365   75.1048  220.9077 H   0  0  0  0  0  0  0  0  0  0  0  0
  143.6951   74.9144  219.0921 H   0  0  0  0  0  0  0  0  0  0  0  0
  142.1630   72.9080  220.0070 H   0  0  0  0  0  0  0  0  0  0  0  0
  139.4253   75.2196  221.2631 H   0  0  0  0  0  0  0  0  0  0  0  0
  139.6955   73.6886  220.2772 H   0  0  0  0  0  0  0  0  0  0  0  0
  139.1780   73.7620  223.1040 H   0  0  0  0  0  0  0  0  0  0  0  0
  139.2277   69.8760  222.6735 H   0  0  0  0  0  0  0  0  0  0  0  0
  138.8012   68.5052  224.7017 H   0  0  0  0  0  0  0  0  0  0  0  0
  139.0152   68.2256  227.0524 H   0  0  0  0  0  0  0  0  0  0  0  0
  139.8555   69.1404  229.2475 H   0  0  0  0  0  0  0  0  0  0  0  0
  141.0347   71.2841  229.3094 H   0  0  0  0  0  0  0  0  0  0  0  0
  141.4461   72.6251  227.2775 H   0  0  0  0  0  0  0  0  0  0  0  0
  1  2  1  0
  2  3  1  0
  2  4  1  0
  4  5  1  0
  5  6  1  0
  6  7  2  0
  6  8  1  0
  8  9  1  0
  9 10  1  0
 10 11  2  0
 10 12  1  0
 12 13  2  0
 13 14  1  0
 14 15  2  0
 15 16  1  0
 16 17  2  0
 17 18  1  0
 18 19  2  0
 19 20  1  0
 20 21  2  0
 21 12  1  0
 20 15  1  0
  1 22  1  0
  1 23  1  0
  1 24  1  0
  2 25  1  0
  3 26  1  0
  3 27  1  0
  3 28  1  0
  4 29  1  0
  4 30  1  0
  5 31  1  0
  8 32  1  0
  8 33  1  0
  9 34  1  0
 13 35  1  0
 14 36  1  0
 16 37  1  0
 17 38  1  0
 18 39  1  0
 19 40  1  0
M  END
>  <smiles>  (4) 
CC(C)CNC(=O)CNC(=O)c1ccc2ccccc2n1

>  <score_type>  (4) 
oracle

>  <origin>  (4) 
autodockgpu

>  <m_score__min__energy>  (4) 
-7.5300000000000002

>  <m_primary>  (4) 
energy

>  <rmsd>  (4) 
3.410029309905661

>  <m_score__min__rmsd>  (4) 
3.410029309905661

>  <meeko>  (4) 
{"free_energy": -6.8, "intermolecular_energy": -8.3, "internal_energy": -1.54, "cluster_size": 36, "cluster_id": 2, "rank_in_cluster": 29}

>  <energy>  (4) 
-6.92

>  <cluster_rmsd>  (4) 
0.95

>  <cluster>  (4) 
1

$$$$

     RDKit          3D

 40 41  0  0  0  0  0  0  0  0999 V2000
  146.0130   73.3960  221.2920 C   0  0  0  0  0  0  0  0  0  0  0  0
  145.0300   73.3630  220.1120 C   0  0  0  0  0  0  0  0  0  0  0  0
  144.4830   71.9550  220.0460 C   0  0  0  0  0  0  0  0  0  0  0  0
  143.9670   74.3590  220.4410 C   0  0  0  0  0  0  0  0  0  0  0  0
  142.6790   73.8040  220.7560 N   0  0  0  0  0  0  0  0  0  0  0  0
  141.5450   74.6290  220.7520 C   0  0  0  0  0  0  0  0  0  0  0  0
  141.7320   75.8590  220.4650 O   0  0  0  0  0  0  0  0  0  0  0  0
  140.1670   74.2240  221.0440 C   0  0  0  0  0  0  0  0  0  0  0  0
  139.9950   73.4490  222.2520 N   0  0  0  0  0  0  0  0  0  0  0  0
  140.4500   72.1010  222.3780 C   0  0  0  0  0  0  0  0  0  0  0  0
  141.0360   71.4990  221.4140 O   0  0  0  0  0  0  0  0  0  0  0  0
  140.2510   71.3720  223.6380 C   0  0  0  0  0  0  0  0  0  0  0  0
  139.5940   70.1660  223.6490 C   0  0  0  0  0  0  0  0  0  0  0  0
  139.3810   69.4410  224.8080 C   0  0  0  0  0  0  0  0  0  0  0  0
  139.8590   69.9810  225.9820 C   0  0  0  0  0  0  0  0  0  0  0  0
  139.6530   69.2680  227.1460 C   0  0  0  0  0  0  0  0  0  0  0  0
  140.1450   69.8370  228.3190 C   0  0  0  0  0  0  0  0  0  0  0  0
  140.8000   71.0470  228.2750 C   0  0  0  0  0  0  0  0  0  0  0  0
  141.0050   71.7560  227.1190 C   0  0  0  0  0  0  0  0  0  0  0  0
  140.5150   71.1950  225.9450 C   0  0  0  0  0  0  0  0  0  0  0  0
  140.7130   71.8860  224.8060 N   0  0  0  0  0  0  0  0  0  0  0  0
  145.4514   73.3771  222.2377 H   0  0  0  0  0  0  0  0  0  0  0  0
  146.6759   72.5196  221.2417 H   0  0  0  0  0  0  0  0  0  0  0  0
  146.6156   74.3149  221.2417 H   0  0  0  0  0  0  0  0  0  0  0  0
  145.4769   73.6132  219.1385 H   0  0  0  0  0  0  0  0  0  0  0  0
  144.3340   71.5714  221.0661 H   0  0  0  0  0  0  0  0  0  0  0  0
  143.5214   71.9599  219.5119 H   0  0  0  0  0  0  0  0  0  0  0  0
  145.1957   71.3094  219.5119 H   0  0  0  0  0  0  0  0  0  0  0  0
  144.3063   74.9434  221.3089 H   0  0  0  0  0  0  0  0  0  0  0  0
  143.8236   74.9612  219.5317 H   0  0  0  0  0  0  0  0  0  0  0  0
  142.5710   72.7970  220.9990 H   0  0  0  0  0  0  0  0  0  0  0  0
  139.5568   75.1347  221.1345 H   0  0  0  0  0  0  0  0  0  0  0  0
  139.8598   73.5690  220.2154 H   0  0  0  0  0  0  0  0  0  0  0  0
  139.5170   73.8400  223.1190 H   0  0  0  0  0  0  0  0  0  0  0  0
  139.2217   69.7597  222.6970 H   0  0  0  0  0  0  0  0  0  0  0  0
  138.8533   68.4760  224.7928 H   0  0  0  0  0  0  0  0  0  0  0  0
  139.1280   68.3014  227.1475 H   0  0  0  0  0  0  0  0  0  0  0  0
  140.0100   69.3193  229.2801 H   0  0  0  0  0  0  0  0  0  0  0  0
  141.1794   71.4679  229.2178 H   0  0  0  0  0  0  0  0  0  0  0  0
  141.5316   72.7217  227.1206 H   0  0  0  0  0  0  0  0  0  0  0  0
  1  2  1  0
  2  3  1  0
  2  4  1  0
  4  5  1  0
  5  6  1  0
  6  7  2  0
  6  8  1  0
  8  9  1  0
  9 10  1  0
 10 11  2  0
 10 12  1  0
 12 13  2  0
 13 14  1  0
 14 15  2  0
 15 16  1  0
 16 17  2  0
 17 18  1  0
 18 19  2  0
 19 20  1  0
 20 21  2  0
 21 12  1  0
 20 15  1  0
  1 22  1  0
  1 23  1  0
  1 24  1  0
  2 25  1  0
  3 26  1  0
  3 27  1  0
  3 28  1  0
  4 29  1  0
  4 30  1  0
  5 31  1  0
  8 32  1  0
  8 33  1  0
  9 34  1  0
 13 35  1  0
 14 36  1  0
 16 37  1  0
 17 38  1  0
 18 39  1  0
 19 40  1  0
M  END
>  <smiles>  (5) 
CC(C)CNC(=O)CNC(=O)c1ccc2ccccc2n1

>  <score_type>  (5) 
oracle

>  <origin>  (5) 
autodockgpu

>  <m_score__min__energy>  (5) 
-7.5300000000000002

>  <m_primary>  (5) 
energy

>  <rmsd>  (5) 
3.5676086237003473

>  <m_score__min__rmsd>  (5) 
3.5676086237003473

>  <meeko>  (5) 
{"free_energy": -6.89, "intermolecular_energy": -8.38, "internal_energy": -1.57, "cluster_size": 36, "cluster_id": 2, "rank_in_cluster": 14}

>  <energy>  (5) 
-6.71

>  <cluster_rmsd>  (5) 
1.29

>  <cluster>  (5) 
1

$$$$

     RDKit          3D

 40 41  0  0  0  0  0  0  0  0999 V2000
  146.0210   73.3850  221.3810 C   0  0  0  0  0  0  0  0  0  0  0  0
  145.0890   73.3730  220.1610 C   0  0  0  0  0  0  0  0  0  0  0  0
  144.5500   71.9650  220.0450 C   0  0  0  0  0  0  0  0  0  0  0  0
  144.0110   74.3600  220.4640 C   0  0  0  0  0  0  0  0  0  0  0  0
  142.7150   73.7960  220.7280 N   0  0  0  0  0  0  0  0  0  0  0  0
  141.5950   74.6340  220.8140 C   0  0  0  0  0  0  0  0  0  0  0  0
  141.8000   75.8840  220.6530 O   0  0  0  0  0  0  0  0  0  0  0  0
  140.2110   74.2230  221.0710 C   0  0  0  0  0  0  0  0  0  0  0  0
  140.0130   73.4450  222.2730 N   0  0  0  0  0  0  0  0  0  0  0  0
  140.4920   72.1070  222.4180 C   0  0  0  0  0  0  0  0  0  0  0  0
  141.1240   71.5170  221.4770 O   0  0  0  0  0  0  0  0  0  0  0  0
  140.2620   71.3760  223.6710 C   0  0  0  0  0  0  0  0  0  0  0  0
  139.5890   70.1790  223.6660 C   0  0  0  0  0  0  0  0  0  0  0  0
  139.3480   69.4520  224.8190 C   0  0  0  0  0  0  0  0  0  0  0  0
  139.8160   69.9800  226.0030 C   0  0  0  0  0  0  0  0  0  0  0  0
  139.5810   69.2650  227.1600 C   0  0  0  0  0  0  0  0  0  0  0  0
  140.0640   69.8220  228.3430 C   0  0  0  0  0  0  0  0  0  0  0  0
  140.7350   71.0230  228.3150 C   0  0  0  0  0  0  0  0  0  0  0  0
  140.9680   71.7340  227.1650 C   0  0  0  0  0  0  0  0  0  0  0  0
  140.4890   71.1850  225.9820 C   0  0  0  0  0  0  0  0  0  0  0  0
  140.7140   71.8780  224.8490 N   0  0  0  0  0  0  0  0  0  0  0  0
  145.4195   73.3773  222.3020 H   0  0  0  0  0  0  0  0  0  0  0  0
  146.6672   72.4951  221.3576 H   0  0  0  0  0  0  0  0  0  0  0  0
  146.6440   74.2912  221.3576 H   0  0  0  0  0  0  0  0  0  0  0  0
  145.5751   73.6431  219.2119 H   0  0  0  0  0  0  0  0  0  0  0  0
  144.3909   71.5493  221.0509 H   0  0  0  0  0  0  0  0  0  0  0  0
  143.5947   71.9818  219.4999 H   0  0  0  0  0  0  0  0  0  0  0  0
  145.2723   71.3396  219.4999 H   0  0  0  0  0  0  0  0  0  0  0  0
  144.3173   74.9359  221.3497 H   0  0  0  0  0  0  0  0  0  0  0  0
  143.8964   74.9717  219.5570 H   0  0  0  0  0  0  0  0  0  0  0  0
  142.5920   72.7710  220.8680 H   0  0  0  0  0  0  0  0  0  0  0  0
  139.5951   75.1311  221.1482 H   0  0  0  0  0  0  0  0  0  0  0  0
  139.9264   73.5688  220.2337 H   0  0  0  0  0  0  0  0  0  0  0  0
  139.4960   73.8270  223.1220 H   0  0  0  0  0  0  0  0  0  0  0  0
  139.2266   69.7816  222.7064 H   0  0  0  0  0  0  0  0  0  0  0  0
  138.8067   68.4948  224.7915 H   0  0  0  0  0  0  0  0  0  0  0  0
  139.0413   68.3066  227.1491 H   0  0  0  0  0  0  0  0  0  0  0  0
  139.9087   69.3012  229.2994 H   0  0  0  0  0  0  0  0  0  0  0  0
  141.1044   71.4351  229.2656 H   0  0  0  0  0  0  0  0  0  0  0  0
  141.5079   72.6923  227.1789 H   0  0  0  0  0  0  0  0  0  0  0  0
  1  2  1  0
  2  3  1  0
  2  4  1  0
  4  5  1  0
  5  6  1  0
  6  7  2  0
  6  8  1  0
  8  9  1  0
  9 10  1  0
 10 11  2  0
 10 12  1  0
 12 13  2  0
 13 14  1  0
 14 15  2  0
 15 16  1  0
 16 17  2  0
 17 18  1  0
 18 19  2  0
 19 20  1  0
 20 21  2  0
 21 12  1  0
 20 15  1  0
  1 22  1  0
  1 23  1  0
  1 24  1  0
  2 25  1  0
  3 26  1  0
  3 27  1  0
  3 28  1  0
  4 29  1  0
  4 30  1  0
  5 31  1  0
  8 32  1  0
  8 33  1  0
  9 34  1  0
 13 35  1  0
 14 36  1  0
 16 37  1  0
 17 38  1  0
 18 39  1  0
 19 40  1  0
M  END
>  <smiles>  (6) 
CC(C)CNC(=O)CNC(=O)c1ccc2ccccc2n1

>  <score_type>  (6) 
oracle

>  <origin>  (6) 
autodockgpu

>  <m_score__min__energy>  (6) 
-7.5300000000000002

>  <m_primary>  (6) 
energy

>  <rmsd>  (6) 
3.599103185333975

>  <m_score__min__rmsd>  (6) 
3.599103185333975

>  <meeko>  (6) 
{"free_energy": -6.92, "intermolecular_energy": -8.41, "internal_energy": -1.56, "cluster_size": 36, "cluster_id": 2, "rank_in_cluster": 6}

>  <energy>  (6) 
-6.41

>  <cluster_rmsd>  (6) 
1.65

>  <cluster>  (6) 
1

$$$$

     RDKit          3D

 40 41  0  0  0  0  0  0  0  0999 V2000
  141.8680   80.2460  221.4370 C   0  0  0  0  0  0  0  0  0  0  0  0
  142.0290   79.0740  222.4170 C   0  0  0  0  0  0  0  0  0  0  0  0
  142.0990   79.6780  223.8010 C   0  0  0  0  0  0  0  0  0  0  0  0
  140.8140   78.2260  222.2390 C   0  0  0  0  0  0  0  0  0  0  0  0
  141.0670   76.8370  221.9680 N   0  0  0  0  0  0  0  0  0  0  0  0
  140.0190   76.0080  221.5440 C   0  0  0  0  0  0  0  0  0  0  0  0
  138.8700   76.5510  221.4250 O   0  0  0  0  0  0  0  0  0  0  0  0
  140.1060   74.5800  221.2240 C   0  0  0  0  0  0  0  0  0  0  0  0
  139.9440   73.6850  222.3470 N   0  0  0  0  0  0  0  0  0  0  0  0
  140.3920   72.3290  222.3280 C   0  0  0  0  0  0  0  0  0  0  0  0
  140.9620   71.8260  221.3010 O   0  0  0  0  0  0  0  0  0  0  0  0
  140.2030   71.4760  223.5090 C   0  0  0  0  0  0  0  0  0  0  0  0
  139.5700   70.2620  223.3980 C   0  0  0  0  0  0  0  0  0  0  0  0
  139.3680   69.4230  224.4790 C   0  0  0  0  0  0  0  0  0  0  0  0
  139.8330   69.8530  225.7030 C   0  0  0  0  0  0  0  0  0  0  0  0
  139.6370   69.0250  226.7900 C   0  0  0  0  0  0  0  0  0  0  0  0
  140.1150   69.4840  228.0150 C   0  0  0  0  0  0  0  0  0  0  0  0
  140.7460   70.7050  228.0950 C   0  0  0  0  0  0  0  0  0  0  0  0
  140.9410   71.5280  227.0150 C   0  0  0  0  0  0  0  0  0  0  0  0
  140.4650   71.0770  225.7890 C   0  0  0  0  0  0  0  0  0  0  0  0
  140.6520   71.8800  224.7250 N   0  0  0  0  0  0  0  0  0  0  0  0
  141.7395   81.1812  222.0017 H   0  0  0  0  0  0  0  0  0  0  0  0
  142.7644   80.3203  220.8038 H   0  0  0  0  0  0  0  0  0  0  0  0
  140.9848   80.0758  220.8038 H   0  0  0  0  0  0  0  0  0  0  0  0
  142.9282   78.4617  222.2539 H   0  0  0  0  0  0  0  0  0  0  0  0
  142.0067   78.8813  224.5538 H   0  0  0  0  0  0  0  0  0  0  0  0
  143.0628   80.1927  223.9281 H   0  0  0  0  0  0  0  0  0  0  0  0
  141.2784   80.3995  223.9281 H   0  0  0  0  0  0  0  0  0  0  0  0
  140.2179   78.2889  223.1613 H   0  0  0  0  0  0  0  0  0  0  0  0
  140.2968   78.6192  221.3514 H   0  0  0  0  0  0  0  0  0  0  0  0
  142.0170   76.4280  222.0910 H   0  0  0  0  0  0  0  0  0  0  0  0
  139.3216   74.3480  220.4885 H   0  0  0  0  0  0  0  0  0  0  0  0
  141.1260   74.4141  220.8472 H   0  0  0  0  0  0  0  0  0  0  0  0
  139.4800   73.9880  223.2560 H   0  0  0  0  0  0  0  0  0  0  0  0
  139.2089   69.9440  222.4088 H   0  0  0  0  0  0  0  0  0  0  0  0
  138.8584   68.4547  224.3666 H   0  0  0  0  0  0  0  0  0  0  0  0
  139.1299   68.0536  226.6937 H   0  0  0  0  0  0  0  0  0  0  0  0
  139.9883   68.8705  228.9192 H   0  0  0  0  0  0  0  0  0  0  0  0
  141.1132   71.0382  229.0769 H   0  0  0  0  0  0  0  0  0  0  0  0
  141.4496   72.4983  227.1142 H   0  0  0  0  0  0  0  0  0  0  0  0
  1  2  1  0
  2  3  1  0
  2  4  1  0
  4  5  1  0
  5  6  1  0
  6  7  2  0
  6  8  1  0
  8  9  1  0
  9 10  1  0
 10 11  2  0
 10 12  1  0
 12 13  2  0
 13 14  1  0
 14 15  2  0
 15 16  1  0
 16 17  2  0
 17 18  1  0
 18 19  2  0
 19 20  1  0
 20 21  2  0
 21 12  1  0
 20 15  1  0
  1 22  1  0
  1 23  1  0
  1 24  1  0
  2 25  1  0
  3 26  1  0
  3 27  1  0
  3 28  1  0
  4 29  1  0
  4 30  1  0
  5 31  1  0
  8 32  1  0
  8 33  1  0
  9 34  1  0
 13 35  1  0
 14 36  1  0
 16 37  1  0
 17 38  1  0
 18 39  1  0
 19 40  1  0
M  END
>  <smiles>  (7) 
CC(C)CNC(=O)CNC(=O)c1ccc2ccccc2n1

>  <score_type>  (7) 
oracle

>  <origin>  (7) 
autodockgpu

>  <m_score__min__energy>  (7) 
-7.5300000000000002

>  <m_primary>  (7) 
energy

>  <rmsd>  (7) 
3.287666756799511

>  <m_score__min__rmsd>  (7) 
3.287666756799511

>  <meeko>  (7) 
{"free_energy": -7.47, "intermolecular_energy": -8.96, "internal_energy": -0.73, "cluster_size": 8, "cluster_id": 1, "rank_in_cluster": 3}

>  <energy>  (7) 
-6.19

>  <cluster_rmsd>  (7) 
1.75

>  <cluster>  (7) 
1

$$$$

     RDKit          3D

 40 41  0  0  0  0  0  0  0  0999 V2000
  141.0730   76.2740  221.2060 C   0  0  0  0  0  0  0  0  0  0  0  0
  140.1040   76.6050  222.3510 C   0  0  0  0  0  0  0  0  0  0  0  0
  139.9900   78.1120  222.3960 C   0  0  0  0  0  0  0  0  0  0  0  0
  138.8090   75.9580  221.9870 C   0  0  0  0  0  0  0  0  0  0  0  0
  138.7640   74.5310  222.1580 N   0  0  0  0  0  0  0  0  0  0  0  0
  138.4990   73.7050  221.0570 C   0  0  0  0  0  0  0  0  0  0  0  0
  138.3030   74.2880  219.9380 O   0  0  0  0  0  0  0  0  0  0  0  0
  138.4220   72.2420  221.0570 C   0  0  0  0  0  0  0  0  0  0  0  0
  138.7390   71.6080  222.3170 N   0  0  0  0  0  0  0  0  0  0  0  0
  139.8770   71.9700  223.1010 C   0  0  0  0  0  0  0  0  0  0  0  0
  140.6890   72.8800  222.7220 O   0  0  0  0  0  0  0  0  0  0  0  0
  140.1360   71.2910  224.3780 C   0  0  0  0  0  0  0  0  0  0  0  0
  140.9160   71.8870  225.3390 C   0  0  0  0  0  0  0  0  0  0  0  0
  141.1890   71.2890  226.5560 C   0  0  0  0  0  0  0  0  0  0  0  0
  140.6420   70.0440  226.7810 C   0  0  0  0  0  0  0  0  0  0  0  0
  140.9070   69.4360  227.9910 C   0  0  0  0  0  0  0  0  0  0  0  0
  140.3430   68.1780  228.1920 C   0  0  0  0  0  0  0  0  0  0  0  0
  139.5660   67.6070  227.2100 C   0  0  0  0  0  0  0  0  0  0  0  0
  139.3020   68.2110  226.0070 C   0  0  0  0  0  0  0  0  0  0  0  0
  139.8630   69.4660  225.7990 C   0  0  0  0  0  0  0  0  0  0  0  0
  139.6080   70.0640  224.6200 N   0  0  0  0  0  0  0  0  0  0  0  0
  142.0358   75.9451  221.6240 H   0  0  0  0  0  0  0  0  0  0  0  0
  140.6482   75.4700  220.5870 H   0  0  0  0  0  0  0  0  0  0  0  0
  141.2289   77.1699  220.5870 H   0  0  0  0  0  0  0  0  0  0  0  0
  140.4257   76.2466  223.3399 H   0  0  0  0  0  0  0  0  0  0  0  0
  139.9647   78.4467  223.4435 H   0  0  0  0  0  0  0  0  0  0  0  0
  140.8568   78.5606  221.8886 H   0  0  0  0  0  0  0  0  0  0  0  0
  139.0656   78.4251  221.8886 H   0  0  0  0  0  0  0  0  0  0  0  0
  138.0206   76.4001  222.6138 H   0  0  0  0  0  0  0  0  0  0  0  0
  138.6711   76.1392  220.9108 H   0  0  0  0  0  0  0  0  0  0  0  0
  138.9160   74.0950  223.0920 H   0  0  0  0  0  0  0  0  0  0  0  0
  137.3966   71.9554  220.7805 H   0  0  0  0  0  0  0  0  0  0  0  0
  139.1833   71.8967  220.3420 H   0  0  0  0  0  0  0  0  0  0  0  0
  138.1400   70.8330  222.7330 H   0  0  0  0  0  0  0  0  0  0  0  0
  141.3408   72.8804  225.1322 H   0  0  0  0  0  0  0  0  0  0  0  0
  141.8155   71.7855  227.3116 H   0  0  0  0  0  0  0  0  0  0  0  0
  141.5311   69.9194  228.7570 H   0  0  0  0  0  0  0  0  0  0  0  0
  140.5188   67.6410  229.1358 H   0  0  0  0  0  0  0  0  0  0  0  0
  139.1337   66.6135  227.3999 H   0  0  0  0  0  0  0  0  0  0  0  0
  138.6764   67.7256  225.2434 H   0  0  0  0  0  0  0  0  0  0  0  0
  1  2  1  0
  2  3  1  0
  2  4  1  0
  4  5  1  0
  5  6  1  0
  6  7  2  0
  6  8  1  0
  8  9  1  0
  9 10  1  0
 10 11  2  0
 10 12  1  0
 12 13  2  0
 13 14  1  0
 14 15  2  0
 15 16  1  0
 16 17  2  0
 17 18  1  0
 18 19  2  0
 19 20  1  0
 20 21  2  0
 21 12  1  0
 20 15  1  0
  1 22  1  0
  1 23  1  0
  1 24  1  0
  2 25  1  0
  3 26  1  0
  3 27  1  0
  3 28  1  0
  4 29  1  0
  4 30  1  0
  5 31  1  0
  8 32  1  0
  8 33  1  0
  9 34  1  0
 13 35  1  0
 14 36  1  0
 16 37  1  0
 17 38  1  0
 18 39  1  0
 19 40  1  0
M  END
>  <smiles>  (8) 
CC(C)CNC(=O)CNC(=O)c1ccc2ccccc2n1

>  <score_type>  (8) 
oracle

>  <origin>  (8) 
autodockgpu

>  <m_score__min__energy>  (8) 
-7.5300000000000002

>  <m_primary>  (8) 
energy

>  <rmsd>  (8) 
3.607678603159963

>  <m_score__min__rmsd>  (8) 
3.607678603159963

>  <meeko>  (8) 
{"free_energy": -6.41, "intermolecular_energy": -7.9, "internal_energy": -1.65, "cluster_size": 8, "cluster_id": 1, "rank_in_cluster": 6}

>  <energy>  (8) 
-6.12

>  <cluster_rmsd>  (8) 
1.79

>  <cluster>  (8) 
1

$$$$

     RDKit          3D

 40 41  0  0  0  0  0  0  0  0999 V2000
  145.8810   73.4250  221.2230 C   0  0  0  0  0  0  0  0  0  0  0  0
  144.7760   73.2760  220.1670 C   0  0  0  0  0  0  0  0  0  0  0  0
  144.2170   71.8800  220.3220 C   0  0  0  0  0  0  0  0  0  0  0  0
  143.7610   74.3220  220.4910 C   0  0  0  0  0  0  0  0  0  0  0  0
  142.4940   73.8280  220.9580 N   0  0  0  0  0  0  0  0  0  0  0  0
  141.3180   74.5300  220.6560 C   0  0  0  0  0  0  0  0  0  0  0  0
  141.4490   75.5980  219.9700 O   0  0  0  0  0  0  0  0  0  0  0  0
  139.9550   74.1640  221.0490 C   0  0  0  0  0  0  0  0  0  0  0  0
  139.8500   73.3930  222.2680 N   0  0  0  0  0  0  0  0  0  0  0  0
  140.3370   72.0560  222.3830 C   0  0  0  0  0  0  0  0  0  0  0  0
  140.8940   71.4590  221.3990 O   0  0  0  0  0  0  0  0  0  0  0  0
  140.2060   71.3320  223.6540 C   0  0  0  0  0  0  0  0  0  0  0  0
  139.5920   70.1040  223.6970 C   0  0  0  0  0  0  0  0  0  0  0  0
  139.4440   69.3830  224.8690 C   0  0  0  0  0  0  0  0  0  0  0  0
  139.9430   69.9500  226.0220 C   0  0  0  0  0  0  0  0  0  0  0  0
  139.8010   69.2410  227.1980 C   0  0  0  0  0  0  0  0  0  0  0  0
  140.3140   69.8360  228.3480 C   0  0  0  0  0  0  0  0  0  0  0  0
  140.9250   71.0680  228.2730 C   0  0  0  0  0  0  0  0  0  0  0  0
  141.0650   71.7730  227.1040 C   0  0  0  0  0  0  0  0  0  0  0  0
  140.5550   71.1850  225.9530 C   0  0  0  0  0  0  0  0  0  0  0  0
  140.6900   71.8720  224.8020 N   0  0  0  0  0  0  0  0  0  0  0  0
  145.4381   73.3653  222.2281 H   0  0  0  0  0  0  0  0  0  0  0  0
  146.6182   72.6181  221.0986 H   0  0  0  0  0  0  0  0  0  0  0  0
  146.3782   74.3983  221.0986 H   0  0  0  0  0  0  0  0  0  0  0  0
  145.1161   73.4057  219.1290 H   0  0  0  0  0  0  0  0  0  0  0  0
  144.1209   71.6401  221.3912 H   0  0  0  0  0  0  0  0  0  0  0  0
  143.2279   71.8259  219.8438 H   0  0  0  0  0  0  0  0  0  0  0  0
  144.8954   71.1582  219.8438 H   0  0  0  0  0  0  0  0  0  0  0  0
  144.1810   74.9718  221.2729 H   0  0  0  0  0  0  0  0  0  0  0  0
  143.5527   74.8453  219.5461 H   0  0  0  0  0  0  0  0  0  0  0  0
  142.4320   72.9580  221.5280 H   0  0  0  0  0  0  0  0  0  0  0  0
  139.3791   75.0916  221.1827 H   0  0  0  0  0  0  0  0  0  0  0  0
  139.5696   73.5183  220.2462 H   0  0  0  0  0  0  0  0  0  0  0  0
  139.4010   73.7810  223.1520 H   0  0  0  0  0  0  0  0  0  0  0  0
  139.2020   69.6762  222.7617 H   0  0  0  0  0  0  0  0  0  0  0  0
  138.9497   68.4004  224.8799 H   0  0  0  0  0  0  0  0  0  0  0  0
  139.3085   68.2578  227.2253 H   0  0  0  0  0  0  0  0  0  0  0  0
  140.2311   69.3216  229.3168 H   0  0  0  0  0  0  0  0  0  0  0  0
  141.3217   71.5101  229.1988 H   0  0  0  0  0  0  0  0  0  0  0  0
  141.5573   72.7564  227.0793 H   0  0  0  0  0  0  0  0  0  0  0  0
  1  2  1  0
  2  3  1  0
  2  4  1  0
  4  5  1  0
  5  6  1  0
  6  7  2  0
  6  8  1  0
  8  9  1  0
  9 10  1  0
 10 11  2  0
 10 12  1  0
 12 13  2  0
 13 14  1  0
 14 15  2  0
 15 16  1  0
 16 17  2  0
 17 18  1  0
 18 19  2  0
 19 20  1  0
 20 21  2  0
 21 12  1  0
 20 15  1  0
  1 22  1  0
  1 23  1  0
  1 24  1  0
  2 25  1  0
  3 26  1  0
  3 27  1  0
  3 28  1  0
  4 29  1  0
  4 30  1  0
  5 31  1  0
  8 32  1  0
  8 33  1  0
  9 34  1  0
 13 35  1  0
 14 36  1  0
 16 37  1  0
 17 38  1  0
 18 39  1  0
 19 40  1  0
M  END
>  <smiles>  (9) 
CC(C)CNC(=O)CNC(=O)c1ccc2ccccc2n1

>  <score_type>  (9) 
oracle

>  <origin>  (9) 
autodockgpu

>  <m_score__min__energy>  (9) 
-7.5300000000000002

>  <m_primary>  (9) 
energy

>  <rmsd>  (9) 
3.4850659790175564

>  <m_score__min__rmsd>  (9) 
3.4850659790175564

>  <meeko>  (9) 
{"free_energy": -6.72, "intermolecular_energy": -8.21, "internal_energy": -1.61, "cluster_size": 36, "cluster_id": 2, "rank_in_cluster": 33}

>  <energy>  (9) 
-7.27

>  <cluster_rmsd>  (9) 
0.0

>  <cluster>  (9) 
2

$$$$

     RDKit          3D

 40 41  0  0  0  0  0  0  0  0999 V2000
  144.0550   72.2250  220.7870 C   0  0  0  0  0  0  0  0  0  0  0  0
  144.8000   73.5660  220.7240 C   0  0  0  0  0  0  0  0  0  0  0  0
  145.9440   73.3780  219.7540 C   0  0  0  0  0  0  0  0  0  0  0  0
  143.8050   74.5610  220.2260 C   0  0  0  0  0  0  0  0  0  0  0  0
  142.5740   74.6240  220.9670 N   0  0  0  0  0  0  0  0  0  0  0  0
  141.3830   74.1730  220.3800 C   0  0  0  0  0  0  0  0  0  0  0  0
  141.4660   73.7250  219.1880 O   0  0  0  0  0  0  0  0  0  0  0  0
  140.0530   74.1640  220.9950 C   0  0  0  0  0  0  0  0  0  0  0  0
  139.9460   73.4100  222.2230 N   0  0  0  0  0  0  0  0  0  0  0  0
  140.3210   72.0360  222.3230 C   0  0  0  0  0  0  0  0  0  0  0  0
  140.7700   71.3890  221.3160 O   0  0  0  0  0  0  0  0  0  0  0  0
  140.1940   71.3300  223.6060 C   0  0  0  0  0  0  0  0  0  0  0  0
  139.5760   70.1060  223.6700 C   0  0  0  0  0  0  0  0  0  0  0  0
  139.4320   69.4020  224.8530 C   0  0  0  0  0  0  0  0  0  0  0  0
  139.9400   69.9840  225.9940 C   0  0  0  0  0  0  0  0  0  0  0  0
  139.8020   69.2920  227.1810 C   0  0  0  0  0  0  0  0  0  0  0  0
  140.3240   69.9020  228.3200 C   0  0  0  0  0  0  0  0  0  0  0  0
  140.9390   71.1300  228.2230 C   0  0  0  0  0  0  0  0  0  0  0  0
  141.0750   71.8170  227.0440 C   0  0  0  0  0  0  0  0  0  0  0  0
  140.5560   71.2150  225.9040 C   0  0  0  0  0  0  0  0  0  0  0  0
  140.6870   71.8850  224.7430 N   0  0  0  0  0  0  0  0  0  0  0  0
  143.8977   71.9420  221.8383 H   0  0  0  0  0  0  0  0  0  0  0  0
  143.0816   72.3223  220.2839 H   0  0  0  0  0  0  0  0  0  0  0  0
  144.6519   71.4500  220.2839 H   0  0  0  0  0  0  0  0  0  0  0  0
  145.2072   73.9074  221.6871 H   0  0  0  0  0  0  0  0  0  0  0  0
  146.8782   73.2245  220.3141 H   0  0  0  0  0  0  0  0  0  0  0  0
  145.7475   72.5001  219.1210 H   0  0  0  0  0  0  0  0  0  0  0  0
  146.0388   74.2726  219.1210 H   0  0  0  0  0  0  0  0  0  0  0  0
  144.2732   75.5558  220.2600 H   0  0  0  0  0  0  0  0  0  0  0  0
  143.5324   74.2361  219.2110 H   0  0  0  0  0  0  0  0  0  0  0  0
  142.5470   75.0110  221.9340 H   0  0  0  0  0  0  0  0  0  0  0  0
  139.7708   75.2053  221.2098 H   0  0  0  0  0  0  0  0  0  0  0  0
  139.3875   73.6670  220.2738 H   0  0  0  0  0  0  0  0  0  0  0  0
  139.5800   73.8390  223.1260 H   0  0  0  0  0  0  0  0  0  0  0  0
  139.1789   69.6666  222.7431 H   0  0  0  0  0  0  0  0  0  0  0  0
  138.9342   68.4215  224.8810 H   0  0  0  0  0  0  0  0  0  0  0  0
  139.3062   68.3111  227.2251 H   0  0  0  0  0  0  0  0  0  0  0  0
  140.2447   69.4023  229.2968 H   0  0  0  0  0  0  0  0  0  0  0  0
  141.3427   71.5841  229.1399 H   0  0  0  0  0  0  0  0  0  0  0  0
  141.5712   72.7978  227.0026 H   0  0  0  0  0  0  0  0  0  0  0  0
  1  2  1  0
  2  3  1  0
  2  4  1  0
  4  5  1  0
  5  6  1  0
  6  7  2  0
  6  8  1  0
  8  9  1  0
  9 10  1  0
 10 11  2  0
 10 12  1  0
 12 13  2  0
 13 14  1  0
 14 15  2  0
 15 16  1  0
 16 17  2  0
 17 18  1  0
 18 19  2  0
 19 20  1  0
 20 21  2  0
 21 12  1  0
 20 15  1  0
  1 22  1  0
  1 23  1  0
  1 24  1  0
  2 25  1  0
  3 26  1  0
  3 27  1  0
  3 28  1  0
  4 29  1  0
  4 30  1  0
  5 31  1  0
  8 32  1  0
  8 33  1  0
  9 34  1  0
 13 35  1  0
 14 36  1  0
 16 37  1  0
 17 38  1  0
 18 39  1  0
 19 40  1  0
M  END
>  <smiles>  (10) 
CC(C)CNC(=O)CNC(=O)c1ccc2ccccc2n1

>  <score_type>  (10) 
oracle

>  <origin>  (10) 
autodockgpu

>  <m_score__min__energy>  (10) 
-7.5300000000000002

>  <m_primary>  (10) 
energy

>  <rmsd>  (10) 
3.440098489494632

>  <m_score__min__rmsd>  (10) 
3.440098489494632

>  <meeko>  (10) 
{"free_energy": -6.94, "intermolecular_energy": -8.43, "internal_energy": -1.05, "cluster_size": 36, "cluster_id": 2, "rank_in_cluster": 3}

>  <energy>  (10) 
-7.0

>  <cluster_rmsd>  (10) 
0.4

>  <cluster>  (10) 
2

$$$$

     RDKit          3D

 40 41  0  0  0  0  0  0  0  0999 V2000
  145.1050   71.8690  219.7010 C   0  0  0  0  0  0  0  0  0  0  0  0
  144.9900   73.0760  220.6430 C   0  0  0  0  0  0  0  0  0  0  0  0
  146.3280   73.7780  220.6100 C   0  0  0  0  0  0  0  0  0  0  0  0
  143.8990   73.9270  220.0820 C   0  0  0  0  0  0  0  0  0  0  0  0
  142.5620   73.4960  220.3880 N   0  0  0  0  0  0  0  0  0  0  0  0
  141.5980   74.4390  220.7720 C   0  0  0  0  0  0  0  0  0  0  0  0
  141.9780   75.6560  220.8320 O   0  0  0  0  0  0  0  0  0  0  0  0
  140.1980   74.1700  221.1130 C   0  0  0  0  0  0  0  0  0  0  0  0
  139.9940   73.3860  222.3100 N   0  0  0  0  0  0  0  0  0  0  0  0
  140.4590   72.0420  222.4440 C   0  0  0  0  0  0  0  0  0  0  0  0
  141.0810   71.4510  221.4970 O   0  0  0  0  0  0  0  0  0  0  0  0
  140.2250   71.3040  223.6930 C   0  0  0  0  0  0  0  0  0  0  0  0
  139.5480   70.1090  223.6810 C   0  0  0  0  0  0  0  0  0  0  0  0
  139.3040   69.3770  224.8290 C   0  0  0  0  0  0  0  0  0  0  0  0
  139.7700   69.8980  226.0170 C   0  0  0  0  0  0  0  0  0  0  0  0
  139.5320   69.1780  227.1700 C   0  0  0  0  0  0  0  0  0  0  0  0
  140.0140   69.7260  228.3560 C   0  0  0  0  0  0  0  0  0  0  0  0
  140.6890   70.9260  228.3360 C   0  0  0  0  0  0  0  0  0  0  0  0
  140.9250   71.6420  227.1900 C   0  0  0  0  0  0  0  0  0  0  0  0
  140.4460   71.1010  226.0030 C   0  0  0  0  0  0  0  0  0  0  0  0
  140.6760   71.7990  224.8740 N   0  0  0  0  0  0  0  0  0  0  0  0
  145.1928   70.9473  220.2950 H   0  0  0  0  0  0  0  0  0  0  0  0
  144.2082   71.8123  219.0666 H   0  0  0  0  0  0  0  0  0  0  0  0
  145.9964   71.9826  219.0666 H   0  0  0  0  0  0  0  0  0  0  0  0
  144.7532   72.8198  221.6862 H   0  0  0  0  0  0  0  0  0  0  0  0
  146.6727   73.9588  221.6388 H   0  0  0  0  0  0  0  0  0  0  0  0
  147.0599   73.1477  220.0836 H   0  0  0  0  0  0  0  0  0  0  0  0
  146.2253   74.7384  220.0836 H   0  0  0  0  0  0  0  0  0  0  0  0
  144.0260   74.9457  220.4770 H   0  0  0  0  0  0  0  0  0  0  0  0
  143.9957   73.8619  218.9882 H   0  0  0  0  0  0  0  0  0  0  0  0
  142.2960   72.4900  220.3410 H   0  0  0  0  0  0  0  0  0  0  0  0
  139.6895   75.1359  221.2485 H   0  0  0  0  0  0  0  0  0  0  0  0
  139.7924   73.5712  220.2841 H   0  0  0  0  0  0  0  0  0  0  0  0
  139.4850   73.7680  223.1630 H   0  0  0  0  0  0  0  0  0  0  0  0
  139.1850   69.7181  222.7190 H   0  0  0  0  0  0  0  0  0  0  0  0
  138.7616   68.4206  224.7953 H   0  0  0  0  0  0  0  0  0  0  0  0
  138.9898   68.2211  227.1531 H   0  0  0  0  0  0  0  0  0  0  0  0
  139.8555   69.2001  229.3091 H   0  0  0  0  0  0  0  0  0  0  0  0
  141.0585   71.3319  229.2893 H   0  0  0  0  0  0  0  0  0  0  0  0
  141.4675   72.5987  227.2097 H   0  0  0  0  0  0  0  0  0  0  0  0
  1  2  1  0
  2  3  1  0
  2  4  1  0
  4  5  1  0
  5  6  1  0
  6  7  2  0
  6  8  1  0
  8  9  1  0
  9 10  1  0
 10 11  2  0
 10 12  1  0
 12 13  2  0
 13 14  1  0
 14 15  2  0
 15 16  1  0
 16 17  2  0
 17 18  1  0
 18 19  2  0
 19 20  1  0
 20 21  2  0
 21 12  1  0
 20 15  1  0
  1 22  1  0
  1 23  1  0
  1 24  1  0
  2 25  1  0
  3 26  1  0
  3 27  1  0
  3 28  1  0
  4 29  1  0
  4 30  1  0
  5 31  1  0
  8 32  1  0
  8 33  1  0
  9 34  1  0
 13 35  1  0
 14 36  1  0
 16 37  1  0
 17 38  1  0
 18 39  1  0
 19 40  1  0
M  END
>  <smiles>  (11) 
CC(C)CNC(=O)CNC(=O)c1ccc2ccccc2n1

>  <score_type>  (11) 
oracle

>  <origin>  (11) 
autodockgpu

>  <m_score__min__energy>  (11) 
-7.5300000000000002

>  <m_primary>  (11) 
energy

>  <rmsd>  (11) 
3.628677777673645

>  <m_score__min__rmsd>  (11) 
3.628677777673645

>  <meeko>  (11) 
{"free_energy": -6.77, "intermolecular_energy": -8.26, "internal_energy": -1.53, "cluster_size": 36, "cluster_id": 2, "rank_in_cluster": 31}

>  <energy>  (11) 
-6.94

>  <cluster_rmsd>  (11) 
0.42

>  <cluster>  (11) 
2

$$$$

     RDKit          3D

 40 41  0  0  0  0  0  0  0  0999 V2000
  140.7040   76.1740  221.8890 C   0  0  0  0  0  0  0  0  0  0  0  0
  139.4460   76.9170  222.3630 C   0  0  0  0  0  0  0  0  0  0  0  0
  139.4210   78.2350  221.6230 C   0  0  0  0  0  0  0  0  0  0  0  0
  138.2940   76.0450  221.9890 C   0  0  0  0  0  0  0  0  0  0  0  0
  138.5480   74.6310  222.0440 N   0  0  0  0  0  0  0  0  0  0  0  0
  138.1150   73.8040  220.9980 C   0  0  0  0  0  0  0  0  0  0  0  0
  137.4990   74.3720  220.0360 O   0  0  0  0  0  0  0  0  0  0  0  0
  138.2950   72.3530  220.8970 C   0  0  0  0  0  0  0  0  0  0  0  0
  138.6320   71.6860  222.1350 N   0  0  0  0  0  0  0  0  0  0  0  0
  139.7780   72.0300  222.9130 C   0  0  0  0  0  0  0  0  0  0  0  0
  140.5820   72.9550  222.5490 O   0  0  0  0  0  0  0  0  0  0  0  0
  140.0570   71.3160  224.1670 C   0  0  0  0  0  0  0  0  0  0  0  0
  140.8160   71.9040  225.1500 C   0  0  0  0  0  0  0  0  0  0  0  0
  141.1060   71.2740  226.3470 C   0  0  0  0  0  0  0  0  0  0  0  0
  140.5990   70.0050  226.5270 C   0  0  0  0  0  0  0  0  0  0  0  0
  140.8820   69.3650  227.7170 C   0  0  0  0  0  0  0  0  0  0  0  0
  140.3580   68.0840  227.8740 C   0  0  0  0  0  0  0  0  0  0  0  0
  139.6010   67.5210  226.8700 C   0  0  0  0  0  0  0  0  0  0  0  0
  139.3200   68.1570  225.6880 C   0  0  0  0  0  0  0  0  0  0  0  0
  139.8400   69.4360  225.5240 C   0  0  0  0  0  0  0  0  0  0  0  0
  139.5680   70.0650  224.3650 N   0  0  0  0  0  0  0  0  0  0  0  0
  141.2799   75.8339  222.7623 H   0  0  0  0  0  0  0  0  0  0  0  0
  140.4098   75.3047  221.2826 H   0  0  0  0  0  0  0  0  0  0  0  0
  141.3233   76.8513  221.2826 H   0  0  0  0  0  0  0  0  0  0  0  0
  139.4145   77.1192  223.4438 H   0  0  0  0  0  0  0  0  0  0  0  0
  139.4053   79.0622  222.3479 H   0  0  0  0  0  0  0  0  0  0  0  0
  140.3177   78.3179  220.9913 H   0  0  0  0  0  0  0  0  0  0  0  0
  138.5218   78.2839  220.9913 H   0  0  0  0  0  0  0  0  0  0  0  0
  137.4632   76.2675  222.6747 H   0  0  0  0  0  0  0  0  0  0  0  0
  138.0709   76.2723  220.9361 H   0  0  0  0  0  0  0  0  0  0  0  0
  139.0420   74.2040  222.8560 H   0  0  0  0  0  0  0  0  0  0  0  0
  137.3565   71.9192  220.5214 H   0  0  0  0  0  0  0  0  0  0  0  0
  139.1514   72.1981  220.2243 H   0  0  0  0  0  0  0  0  0  0  0  0
  138.0410   70.8970  222.5360 H   0  0  0  0  0  0  0  0  0  0  0  0
  141.2090   72.9169  224.9781 H   0  0  0  0  0  0  0  0  0  0  0  0
  141.7145   71.7643  227.1212 H   0  0  0  0  0  0  0  0  0  0  0  0
  141.4896   69.8418  228.5003 H   0  0  0  0  0  0  0  0  0  0  0  0
  140.5487   67.5217  228.8000 H   0  0  0  0  0  0  0  0  0  0  0  0
  139.2009   66.5081  227.0246 H   0  0  0  0  0  0  0  0  0  0  0  0
  138.7119   67.6779  224.9065 H   0  0  0  0  0  0  0  0  0  0  0  0
  1  2  1  0
  2  3  1  0
  2  4  1  0
  4  5  1  0
  5  6  1  0
  6  7  2  0
  6  8  1  0
  8  9  1  0
  9 10  1  0
 10 11  2  0
 10 12  1  0
 12 13  2  0
 13 14  1  0
 14 15  2  0
 15 16  1  0
 16 17  2  0
 17 18  1  0
 18 19  2  0
 19 20  1  0
 20 21  2  0
 21 12  1  0
 20 15  1  0
  1 22  1  0
  1 23  1  0
  1 24  1  0
  2 25  1  0
  3 26  1  0
  3 27  1  0
  3 28  1  0
  4 29  1  0
  4 30  1  0
  5 31  1  0
  8 32  1  0
  8 33  1  0
  9 34  1  0
 13 35  1  0
 14 36  1  0
 16 37  1  0
 17 38  1  0
 18 39  1  0
 19 40  1  0
M  END
>  <smiles>  (12) 
CC(C)CNC(=O)CNC(=O)c1ccc2ccccc2n1

>  <score_type>  (12) 
oracle

>  <origin>  (12) 
autodockgpu

>  <m_score__min__energy>  (12) 
-7.5300000000000002

>  <m_primary>  (12) 
energy

>  <rmsd>  (12) 
3.6655015659000894

>  <m_score__min__rmsd>  (12) 
3.6655015659000894

>  <meeko>  (12) 
{"free_energy": -6.19, "intermolecular_energy": -7.68, "internal_energy": -1.75, "cluster_size": 8, "cluster_id": 1, "rank_in_cluster": 7}

>  <energy>  (12) 
-6.93

>  <cluster_rmsd>  (12) 
0.94

>  <cluster>  (12) 
2

$$$$

     RDKit          3D

 40 41  0  0  0  0  0  0  0  0999 V2000
  140.7040   71.6030  225.5850 C   0  0  0  0  0  0  0  0  0  0  0  0
  140.1020   70.6840  224.5110 C   0  0  0  0  0  0  0  0  0  0  0  0
  139.3100   69.6260  225.2450 C   0  0  0  0  0  0  0  0  0  0  0  0
  139.2260   71.5570  223.6740 C   0  0  0  0  0  0  0  0  0  0  0  0
  139.8970   72.6310  222.9940 N   0  0  0  0  0  0  0  0  0  0  0  0
  140.7320   72.3510  221.9030 C   0  0  0  0  0  0  0  0  0  0  0  0
  140.8530   71.1240  221.5740 O   0  0  0  0  0  0  0  0  0  0  0  0
  141.4820   73.3230  221.1020 C   0  0  0  0  0  0  0  0  0  0  0  0
  141.4200   74.6880  221.5710 N   0  0  0  0  0  0  0  0  0  0  0  0
  140.1880   75.3660  221.8210 C   0  0  0  0  0  0  0  0  0  0  0  0
  139.0600   74.7950  221.6340 O   0  0  0  0  0  0  0  0  0  0  0  0
  140.1970   76.7530  222.3060 C   0  0  0  0  0  0  0  0  0  0  0  0
  139.0200   77.3890  222.6210 C   0  0  0  0  0  0  0  0  0  0  0  0
  138.9760   78.6920  223.0820 C   0  0  0  0  0  0  0  0  0  0  0  0
  140.1790   79.3510  223.2170 C   0  0  0  0  0  0  0  0  0  0  0  0
  140.1480   80.6530  223.6750 C   0  0  0  0  0  0  0  0  0  0  0  0
  141.3770   81.2970  223.8030 C   0  0  0  0  0  0  0  0  0  0  0  0
  142.5390   80.6330  223.4790 C   0  0  0  0  0  0  0  0  0  0  0  0
  142.5700   79.3390  223.0240 C   0  0  0  0  0  0  0  0  0  0  0  0
  141.3470   78.6910  222.8930 C   0  0  0  0  0  0  0  0  0  0  0  0
  141.3700   77.4210  222.4470 N   0  0  0  0  0  0  0  0  0  0  0  0
  140.4504   71.2159  226.5829 H   0  0  0  0  0  0  0  0  0  0  0  0
  141.7976   71.6334  225.4705 H   0  0  0  0  0  0  0  0  0  0  0  0
  140.2950   72.6177  225.4705 H   0  0  0  0  0  0  0  0  0  0  0  0
  140.8427   70.1863  223.8678 H   0  0  0  0  0  0  0  0  0  0  0  0
  139.4197   69.7725  226.3297 H   0  0  0  0  0  0  0  0  0  0  0  0
  138.2480   69.7061  224.9697 H   0  0  0  0  0  0  0  0  0  0  0  0
  139.6860   68.6296  224.9697 H   0  0  0  0  0  0  0  0  0  0  0  0
  138.7418   70.9246  222.9153 H   0  0  0  0  0  0  0  0  0  0  0  0
  138.5184   72.0327  224.3690 H   0  0  0  0  0  0  0  0  0  0  0  0
  139.7840   73.6190  223.3030 H   0  0  0  0  0  0  0  0  0  0  0  0
  142.5377   73.0141  221.0936 H   0  0  0  0  0  0  0  0  0  0  0  0
  141.0147   73.3219  220.1062 H   0  0  0  0  0  0  0  0  0  0  0  0
  142.2930   75.2680  221.7580 H   0  0  0  0  0  0  0  0  0  0  0  0
  138.0747   76.8393  222.5016 H   0  0  0  0  0  0  0  0  0  0  0  0
  138.0225   79.1812  223.3301 H   0  0  0  0  0  0  0  0  0  0  0  0
  139.2023   81.1558  223.9258 H   0  0  0  0  0  0  0  0  0  0  0  0
  141.4190   82.3356  224.1628 H   0  0  0  0  0  0  0  0  0  0  0  0
  143.4933   81.1686  223.5909 H   0  0  0  0  0  0  0  0  0  0  0  0
  143.5172   78.8382  222.7748 H   0  0  0  0  0  0  0  0  0  0  0  0
  1  2  1  0
  2  3  1  0
  2  4  1  0
  4  5  1  0
  5  6  1  0
  6  7  2  0
  6  8  1  0
  8  9  1  0
  9 10  1  0
 10 11  2  0
 10 12  1  0
 12 13  2  0
 13 14  1  0
 14 15  2  0
 15 16  1  0
 16 17  2  0
 17 18  1  0
 18 19  2  0
 19 20  1  0
 20 21  2  0
 21 12  1  0
 20 15  1  0
  1 22  1  0
  1 23  1  0
  1 24  1  0
  2 25  1  0
  3 26  1  0
  3 27  1  0
  3 28  1  0
  4 29  1  0
  4 30  1  0
  5 31  1  0
  8 32  1  0
  8 33  1  0
  9 34  1  0
 13 35  1  0
 14 36  1  0
 16 37  1  0
 17 38  1  0
 18 39  1  0
 19 40  1  0
M  END
>  <smiles>  (13) 
CC(C)CNC(=O)CNC(=O)c1ccc2ccccc2n1

>  <score_type>  (13) 
oracle

>  <origin>  (13) 
autodockgpu

>  <m_score__min__energy>  (13) 
-7.5300000000000002

>  <m_primary>  (13) 
energy

>  <rmsd>  (13) 
8.344910597621555

>  <m_score__min__rmsd>  (13) 
8.344910597621555

>  <meeko>  (13) 
{"free_energy": -6.27, "intermolecular_energy": -7.76, "internal_energy": -1.72, "cluster_size": 6, "cluster_id": 3, "rank_in_cluster": 6}

>  <energy>  (13) 
-6.92

>  <cluster_rmsd>  (13) 
0.89

>  <cluster>  (13) 
2

$$$$

     RDKit          3D

 40 41  0  0  0  0  0  0  0  0999 V2000
  145.5340   72.1440  219.5060 C   0  0  0  0  0  0  0  0  0  0  0  0
  145.0190   72.9460  220.7110 C   0  0  0  0  0  0  0  0  0  0  0  0
  146.1870   73.7600  221.2170 C   0  0  0  0  0  0  0  0  0  0  0  0
  143.9220   73.8100  220.1850 C   0  0  0  0  0  0  0  0  0  0  0  0
  142.5940   73.4370  220.5910 N   0  0  0  0  0  0  0  0  0  0  0  0
  141.6020   74.4200  220.7190 C   0  0  0  0  0  0  0  0  0  0  0  0
  141.9500   75.6210  220.4640 O   0  0  0  0  0  0  0  0  0  0  0  0
  140.2070   74.2100  221.1170 C   0  0  0  0  0  0  0  0  0  0  0  0
  140.0200   73.4250  222.3170 N   0  0  0  0  0  0  0  0  0  0  0  0
  140.4300   72.0610  222.4210 C   0  0  0  0  0  0  0  0  0  0  0  0
  140.9860   71.4520  221.4450 O   0  0  0  0  0  0  0  0  0  0  0  0
  140.2170   71.3230  223.6730 C   0  0  0  0  0  0  0  0  0  0  0  0
  139.5840   70.1030  223.6650 C   0  0  0  0  0  0  0  0  0  0  0  0
  139.3600   69.3700  224.8170 C   0  0  0  0  0  0  0  0  0  0  0  0
  139.8010   69.9150  226.0030 C   0  0  0  0  0  0  0  0  0  0  0  0
  139.5820   69.1930  227.1600 C   0  0  0  0  0  0  0  0  0  0  0  0
  140.0370   69.7660  228.3450 C   0  0  0  0  0  0  0  0  0  0  0  0
  140.6680   70.9900  228.3210 C   0  0  0  0  0  0  0  0  0  0  0  0
  140.8850   71.7070  227.1720 C   0  0  0  0  0  0  0  0  0  0  0  0
  140.4330   71.1410  225.9860 C   0  0  0  0  0  0  0  0  0  0  0  0
  140.6420   71.8410  224.8540 N   0  0  0  0  0  0  0  0  0  0  0  0
  146.0964   71.2682  219.8618 H   0  0  0  0  0  0  0  0  0  0  0  0
  144.6814   71.8095  218.8967 H   0  0  0  0  0  0  0  0  0  0  0  0
  146.1929   72.7801  218.8967 H   0  0  0  0  0  0  0  0  0  0  0  0
  144.6342   72.3315  221.5382 H   0  0  0  0  0  0  0  0  0  0  0  0
  146.1855   73.7590  222.3170 H   0  0  0  0  0  0  0  0  0  0  0  0
  147.1264   73.3200  220.8512 H   0  0  0  0  0  0  0  0  0  0  0  0
  146.0994   74.7937  220.8512 H   0  0  0  0  0  0  0  0  0  0  0  0
  144.1056   74.8385  220.5290 H   0  0  0  0  0  0  0  0  0  0  0  0
  143.9468   73.6985  219.0909 H   0  0  0  0  0  0  0  0  0  0  0  0
  142.3550   72.4460  220.8050 H   0  0  0  0  0  0  0  0  0  0  0  0
  139.7478   75.1961  221.2806 H   0  0  0  0  0  0  0  0  0  0  0  0
  139.7403   73.6373  220.3021 H   0  0  0  0  0  0  0  0  0  0  0  0
  139.5630   73.8210  223.1920 H   0  0  0  0  0  0  0  0  0  0  0  0
  139.2415   69.6926  222.7036 H   0  0  0  0  0  0  0  0  0  0  0  0
  138.8520   68.3948  224.7872 H   0  0  0  0  0  0  0  0  0  0  0  0
  139.0750   68.2169  227.1462 H   0  0  0  0  0  0  0  0  0  0  0  0
  139.8923   69.2407  229.3006 H   0  0  0  0  0  0  0  0  0  0  0  0
  141.0164   71.4151  229.2738 H   0  0  0  0  0  0  0  0  0  0  0  0
  141.3923   72.6829  227.1885 H   0  0  0  0  0  0  0  0  0  0  0  0
  1  2  1  0
  2  3  1  0
  2  4  1  0
  4  5  1  0
  5  6  1  0
  6  7  2  0
  6  8  1  0
  8  9  1  0
  9 10  1  0
 10 11  2  0
 10 12  1  0
 12 13  2  0
 13 14  1  0
 14 15  2  0
 15 16  1  0
 16 17  2  0
 17 18  1  0
 18 19  2  0
 19 20  1  0
 20 21  2  0
 21 12  1  0
 20 15  1  0
  1 22  1  0
  1 23  1  0
  1 24  1  0
  2 25  1  0
  3 26  1  0
  3 27  1  0
  3 28  1  0
  4 29  1  0
  4 30  1  0
  5 31  1  0
  8 32  1  0
  8 33  1  0
  9 34  1  0
 13 35  1  0
 14 36  1  0
 16 37  1  0
 17 38  1  0
 18 39  1  0
 19 40  1  0
M  END
>  <smiles>  (14) 
CC(C)CNC(=O)CNC(=O)c1ccc2ccccc2n1

>  <score_type>  (14) 
oracle

>  <origin>  (14) 
autodockgpu

>  <m_score__min__energy>  (14) 
-7.5300000000000002

>  <m_primary>  (14) 
energy

>  <rmsd>  (14) 
3.6932763015475634

>  <m_score__min__rmsd>  (14) 
3.6932763015475634

>  <meeko>  (14) 
{"free_energy": -6.83, "intermolecular_energy": -8.33, "internal_energy": -1.53, "cluster_size": 36, "cluster_id": 2, "rank_in_cluster": 26}

>  <energy>  (14) 
-6.92

>  <cluster_rmsd>  (14) 
0.92

>  <cluster>  (14) 
2

$$$$

     RDKit          3D

 40 41  0  0  0  0  0  0  0  0999 V2000
  139.3020   70.1540  225.3740 C   0  0  0  0  0  0  0  0  0  0  0  0
  140.0350   71.4850  225.1450 C   0  0  0  0  0  0  0  0  0  0  0  0
  141.0590   71.6080  226.2490 C   0  0  0  0  0  0  0  0  0  0  0  0
  140.6740   71.3700  223.8010 C   0  0  0  0  0  0  0  0  0  0  0  0
  140.3970   72.4500  222.8930 N   0  0  0  0  0  0  0  0  0  0  0  0
  141.1950   72.6250  221.7530 C   0  0  0  0  0  0  0  0  0  0  0  0
  142.1490   71.7920  221.5890 O   0  0  0  0  0  0  0  0  0  0  0  0
  141.0470   73.6650  220.7310 C   0  0  0  0  0  0  0  0  0  0  0  0
  141.1240   75.0240  221.2190 N   0  0  0  0  0  0  0  0  0  0  0  0
  140.0710   75.6400  221.9610 C   0  0  0  0  0  0  0  0  0  0  0  0
  138.9880   75.0180  222.2320 O   0  0  0  0  0  0  0  0  0  0  0  0
  140.2180   77.0230  222.4350 C   0  0  0  0  0  0  0  0  0  0  0  0
  139.1160   77.7550  222.8020 C   0  0  0  0  0  0  0  0  0  0  0  0
  139.2020   79.0600  223.2550 C   0  0  0  0  0  0  0  0  0  0  0  0
  140.4600   79.6180  223.3260 C   0  0  0  0  0  0  0  0  0  0  0  0
  140.5590   80.9200  223.7750 C   0  0  0  0  0  0  0  0  0  0  0  0
  141.8420   81.4600  223.8370 C   0  0  0  0  0  0  0  0  0  0  0  0
  142.9280   80.7010  223.4620 C   0  0  0  0  0  0  0  0  0  0  0  0
  142.8290   79.4070  223.0150 C   0  0  0  0  0  0  0  0  0  0  0  0
  141.5520   78.8630  222.9500 C   0  0  0  0  0  0  0  0  0  0  0  0
  141.4480   77.5930  222.5120 N   0  0  0  0  0  0  0  0  0  0  0  0
  139.2017   69.9718  226.4541 H   0  0  0  0  0  0  0  0  0  0  0  0
  138.3031   70.2020  224.9159 H   0  0  0  0  0  0  0  0  0  0  0  0
  139.8766   69.3354  224.9159 H   0  0  0  0  0  0  0  0  0  0  0  0
  139.3867   72.3734  225.1663 H   0  0  0  0  0  0  0  0  0  0  0  0
  140.5551   71.5475  227.2249 H   0  0  0  0  0  0  0  0  0  0  0  0
  141.7909   70.7913  226.1629 H   0  0  0  0  0  0  0  0  0  0  0  0
  141.5766   72.5748  226.1629 H   0  0  0  0  0  0  0  0  0  0  0  0
  141.7632   71.3193  223.9461 H   0  0  0  0  0  0  0  0  0  0  0  0
  140.2477   70.4676  223.3384 H   0  0  0  0  0  0  0  0  0  0  0  0
  139.6170   73.1170  223.0710 H   0  0  0  0  0  0  0  0  0  0  0  0
  141.8440   73.5255  219.9858 H   0  0  0  0  0  0  0  0  0  0  0  0
  140.0340   73.5458  220.3191 H   0  0  0  0  0  0  0  0  0  0  0  0
  141.9730   75.6430  221.0510 H   0  0  0  0  0  0  0  0  0  0  0  0
  138.1239   77.2850  222.7332 H   0  0  0  0  0  0  0  0  0  0  0  0
  138.3053   79.6270  223.5457 H   0  0  0  0  0  0  0  0  0  0  0  0
  139.6718   81.5003  224.0683 H   0  0  0  0  0  0  0  0  0  0  0  0
  141.9874   82.4931  224.1857 H   0  0  0  0  0  0  0  0  0  0  0  0
  143.9277   81.1557  223.5239 H   0  0  0  0  0  0  0  0  0  0  0  0
  143.7177   78.8285  222.7223 H   0  0  0  0  0  0  0  0  0  0  0  0
  1  2  1  0
  2  3  1  0
  2  4  1  0
  4  5  1  0
  5  6  1  0
  6  7  2  0
  6  8  1  0
  8  9  1  0
  9 10  1  0
 10 11  2  0
 10 12  1  0
 12 13  2  0
 13 14  1  0
 14 15  2  0
 15 16  1  0
 16 17  2  0
 17 18  1  0
 18 19  2  0
 19 20  1  0
 20 21  2  0
 21 12  1  0
 20 15  1  0
  1 22  1  0
  1 23  1  0
  1 24  1  0
  2 25  1  0
  3 26  1  0
  3 27  1  0
  3 28  1  0
  4 29  1  0
  4 30  1  0
  5 31  1  0
  8 32  1  0
  8 33  1  0
  9 34  1  0
 13 35  1  0
 14 36  1  0
 16 37  1  0
 17 38  1  0
 18 39  1  0
 19 40  1  0
M  END
>  <smiles>  (15) 
CC(C)CNC(=O)CNC(=O)c1ccc2ccccc2n1

>  <score_type>  (15) 
oracle

>  <origin>  (15) 
autodockgpu

>  <m_score__min__energy>  (15) 
-7.5300000000000002

>  <m_primary>  (15) 
energy

>  <rmsd>  (15) 
8.579809996117648

>  <m_score__min__rmsd>  (15) 
8.579809996117648

>  <meeko>  (15) 
{"free_energy": -6.4, "intermolecular_energy": -7.89, "internal_energy": -1.71, "cluster_size": 6, "cluster_id": 3, "rank_in_cluster": 2}

>  <energy>  (15) 
-6.92

>  <cluster_rmsd>  (15) 
0.88

>  <cluster>  (15) 
2

$$$$

     RDKit          3D

 40 41  0  0  0  0  0  0  0  0999 V2000
  145.9620   73.3980  221.2800 C   0  0  0  0  0  0  0  0  0  0  0  0
  144.9410   73.3340  220.1340 C   0  0  0  0  0  0  0  0  0  0  0  0
  144.3880   71.9260  220.1290 C   0  0  0  0  0  0  0  0  0  0  0  0
  143.8930   74.3440  220.4650 C   0  0  0  0  0  0  0  0  0  0  0  0
  142.6170   73.8040  220.8500 N   0  0  0  0  0  0  0  0  0  0  0  0
  141.4680   74.6030  220.7630 C   0  0  0  0  0  0  0  0  0  0  0  0
  141.6300   75.7960  220.3400 O   0  0  0  0  0  0  0  0  0  0  0  0
  140.1000   74.2090  221.1100 C   0  0  0  0  0  0  0  0  0  0  0  0
  139.9700   73.4250  222.3170 N   0  0  0  0  0  0  0  0  0  0  0  0
  140.3930   72.0630  222.4060 C   0  0  0  0  0  0  0  0  0  0  0  0
  140.9080   71.4560  221.4060 O   0  0  0  0  0  0  0  0  0  0  0  0
  140.2400   71.3260  223.6680 C   0  0  0  0  0  0  0  0  0  0  0  0
  139.6280   70.0970  223.6870 C   0  0  0  0  0  0  0  0  0  0  0  0
  139.4600   69.3640  224.8490 C   0  0  0  0  0  0  0  0  0  0  0  0
  139.9380   69.9200  226.0160 C   0  0  0  0  0  0  0  0  0  0  0  0
  139.7760   69.2000  227.1820 C   0  0  0  0  0  0  0  0  0  0  0  0
  140.2670   69.7850  228.3470 C   0  0  0  0  0  0  0  0  0  0  0  0
  140.8760   71.0180  228.2950 C   0  0  0  0  0  0  0  0  0  0  0  0
  141.0360   71.7350  227.1370 C   0  0  0  0  0  0  0  0  0  0  0  0
  140.5480   71.1570  225.9700 C   0  0  0  0  0  0  0  0  0  0  0  0
  140.7020   71.8560  224.8290 N   0  0  0  0  0  0  0  0  0  0  0  0
  145.4335   73.3649  222.2442 H   0  0  0  0  0  0  0  0  0  0  0  0
  146.6480   72.5411  221.2082 H   0  0  0  0  0  0  0  0  0  0  0  0
  146.5356   74.3339  221.2082 H   0  0  0  0  0  0  0  0  0  0  0  0
  145.3566   73.5531  219.1394 H   0  0  0  0  0  0  0  0  0  0  0  0
  144.2527   71.5815  221.1649 H   0  0  0  0  0  0  0  0  0  0  0  0
  143.4186   71.9146  219.6092 H   0  0  0  0  0  0  0  0  0  0  0  0
  145.0906   71.2580  219.6092 H   0  0  0  0  0  0  0  0  0  0  0  0
  144.2658   74.9602  221.2965 H   0  0  0  0  0  0  0  0  0  0  0  0
  143.7156   74.9118  219.5397 H   0  0  0  0  0  0  0  0  0  0  0  0
  142.5300   72.8290  221.2050 H   0  0  0  0  0  0  0  0  0  0  0  0
  139.5037   75.1250  221.2340 H   0  0  0  0  0  0  0  0  0  0  0  0
  139.7521   73.5640  220.2897 H   0  0  0  0  0  0  0  0  0  0  0  0
  139.5520   73.8200  223.2120 H   0  0  0  0  0  0  0  0  0  0  0  0
  139.2562   69.6780  222.7403 H   0  0  0  0  0  0  0  0  0  0  0  0
  138.9667   68.3809  224.8414 H   0  0  0  0  0  0  0  0  0  0  0  0
  139.2849   68.2157  227.1911 H   0  0  0  0  0  0  0  0  0  0  0  0
  140.1679   69.2611  229.3091 H   0  0  0  0  0  0  0  0  0  0  0  0
  141.2547   71.4516  229.2323 H   0  0  0  0  0  0  0  0  0  0  0  0
  141.5265   72.7196  227.1315 H   0  0  0  0  0  0  0  0  0  0  0  0
  1  2  1  0
  2  3  1  0
  2  4  1  0
  4  5  1  0
  5  6  1  0
  6  7  2  0
  6  8  1  0
  8  9  1  0
  9 10  1  0
 10 11  2  0
 10 12  1  0
 12 13  2  0
 13 14  1  0
 14 15  2  0
 15 16  1  0
 16 17  2  0
 17 18  1  0
 18 19  2  0
 19 20  1  0
 20 21  2  0
 21 12  1  0
 20 15  1  0
  1 22  1  0
  1 23  1  0
  1 24  1  0
  2 25  1  0
  3 26  1  0
  3 27  1  0
  3 28  1  0
  4 29  1  0
  4 30  1  0
  5 31  1  0
  8 32  1  0
  8 33  1  0
  9 34  1  0
 13 35  1  0
 14 36  1  0
 16 37  1  0
 17 38  1  0
 18 39  1  0
 19 40  1  0
M  END
>  <smiles>  (16) 
CC(C)CNC(=O)CNC(=O)c1ccc2ccccc2n1

>  <score_type>  (16) 
oracle

>  <origin>  (16) 
autodockgpu

>  <m_score__min__energy>  (16) 
-7.5300000000000002

>  <m_primary>  (16) 
energy

>  <rmsd>  (16) 
3.5347398617469277

>  <m_score__min__rmsd>  (16) 
3.5347398617469277

>  <meeko>  (16) 
{"free_energy": -6.85, "intermolecular_energy": -8.34, "internal_energy": -1.6, "cluster_size": 36, "cluster_id": 2, "rank_in_cluster": 23}

>  <energy>  (16) 
-6.91

>  <cluster_rmsd>  (16) 
0.92

>  <cluster>  (16) 
2

$$$$

     RDKit          3D

 40 41  0  0  0  0  0  0  0  0999 V2000
  145.9320   73.4580  221.2640 C   0  0  0  0  0  0  0  0  0  0  0  0
  144.8940   73.3070  220.1410 C   0  0  0  0  0  0  0  0  0  0  0  0
  144.3450   71.9030  220.2490 C   0  0  0  0  0  0  0  0  0  0  0  0
  143.8500   74.3380  220.4120 C   0  0  0  0  0  0  0  0  0  0  0  0
  142.5760   73.8260  220.8400 N   0  0  0  0  0  0  0  0  0  0  0  0
  141.4300   74.6260  220.7260 C   0  0  0  0  0  0  0  0  0  0  0  0
  141.5920   75.7940  220.2390 O   0  0  0  0  0  0  0  0  0  0  0  0
  140.0630   74.2580  221.1090 C   0  0  0  0  0  0  0  0  0  0  0  0
  139.9520   73.4700  222.3160 N   0  0  0  0  0  0  0  0  0  0  0  0
  140.3700   72.1060  222.3910 C   0  0  0  0  0  0  0  0  0  0  0  0
  140.8650   71.5000  221.3800 O   0  0  0  0  0  0  0  0  0  0  0  0
  140.2370   71.3650  223.6530 C   0  0  0  0  0  0  0  0  0  0  0  0
  139.6520   70.1220  223.6730 C   0  0  0  0  0  0  0  0  0  0  0  0
  139.5030   69.3850  224.8340 C   0  0  0  0  0  0  0  0  0  0  0  0
  139.9710   69.9510  226.0000 C   0  0  0  0  0  0  0  0  0  0  0  0
  139.8280   69.2250  227.1660 C   0  0  0  0  0  0  0  0  0  0  0  0
  140.3080   69.8200  228.3310 C   0  0  0  0  0  0  0  0  0  0  0  0
  140.8890   71.0670  228.2790 C   0  0  0  0  0  0  0  0  0  0  0  0
  141.0310   71.7880  227.1200 C   0  0  0  0  0  0  0  0  0  0  0  0
  140.5530   71.2010  225.9540 C   0  0  0  0  0  0  0  0  0  0  0  0
  140.6900   71.9040  224.8140 N   0  0  0  0  0  0  0  0  0  0  0  0
  145.4297   73.3849  222.2399 H   0  0  0  0  0  0  0  0  0  0  0  0
  146.6840   72.6598  221.1780 H   0  0  0  0  0  0  0  0  0  0  0  0
  146.4254   74.4374  221.1780 H   0  0  0  0  0  0  0  0  0  0  0  0
  145.2936   73.4511  219.1263 H   0  0  0  0  0  0  0  0  0  0  0  0
  144.2388   71.6314  221.3096 H   0  0  0  0  0  0  0  0  0  0  0  0
  143.3618   71.8550  219.7580 H   0  0  0  0  0  0  0  0  0  0  0  0
  145.0348   71.2008  219.7580 H   0  0  0  0  0  0  0  0  0  0  0  0
  144.2291   75.0066  221.1989 H   0  0  0  0  0  0  0  0  0  0  0  0
  143.6672   74.8446  219.4529 H   0  0  0  0  0  0  0  0  0  0  0  0
  142.4880   72.8710  221.2460 H   0  0  0  0  0  0  0  0  0  0  0  0
  139.4892   75.1852  221.2541 H   0  0  0  0  0  0  0  0  0  0  0  0
  139.6783   73.6254  220.2955 H   0  0  0  0  0  0  0  0  0  0  0  0
  139.5510   73.8630  223.2190 H   0  0  0  0  0  0  0  0  0  0  0  0
  139.2872   69.6955  222.7270 H   0  0  0  0  0  0  0  0  0  0  0  0
  139.0318   68.3911  224.8268 H   0  0  0  0  0  0  0  0  0  0  0  0
  139.3599   68.2296  227.1746 H   0  0  0  0  0  0  0  0  0  0  0  0
  140.2226   69.2930  229.2928 H   0  0  0  0  0  0  0  0  0  0  0  0
  141.2590   71.5088  229.2160 H   0  0  0  0  0  0  0  0  0  0  0  0
  141.5006   72.7827  227.1139 H   0  0  0  0  0  0  0  0  0  0  0  0
  1  2  1  0
  2  3  1  0
  2  4  1  0
  4  5  1  0
  5  6  1  0
  6  7  2  0
  6  8  1  0
  8  9  1  0
  9 10  1  0
 10 11  2  0
 10 12  1  0
 12 13  2  0
 13 14  1  0
 14 15  2  0
 15 16  1  0
 16 17  2  0
 17 18  1  0
 18 19  2  0
 19 20  1  0
 20 21  2  0
 21 12  1  0
 20 15  1  0
  1 22  1  0
  1 23  1  0
  1 24  1  0
  2 25  1  0
  3 26  1  0
  3 27  1  0
  3 28  1  0
  4 29  1  0
  4 30  1  0
  5 31  1  0
  8 32  1  0
  8 33  1  0
  9 34  1  0
 13 35  1  0
 14 36  1  0
 16 37  1  0
 17 38  1  0
 18 39  1  0
 19 40  1  0
M  END
>  <smiles>  (17) 
CC(C)CNC(=O)CNC(=O)c1ccc2ccccc2n1

>  <score_type>  (17) 
oracle

>  <origin>  (17) 
autodockgpu

>  <m_score__min__energy>  (17) 
-7.5300000000000002

>  <m_primary>  (17) 
energy

>  <rmsd>  (17) 
3.5183000184944633

>  <m_score__min__rmsd>  (17) 
3.5183000184944633

>  <meeko>  (17) 
{"free_energy": -6.79, "intermolecular_energy": -8.29, "internal_energy": -1.62, "cluster_size": 36, "cluster_id": 2, "rank_in_cluster": 30}

>  <energy>  (17) 
-6.9

>  <cluster_rmsd>  (17) 
0.9

>  <cluster>  (17) 
2

$$$$

     RDKit          3D

 40 41  0  0  0  0  0  0  0  0999 V2000
  145.6120   73.6930  221.1070 C   0  0  0  0  0  0  0  0  0  0  0  0
  144.4300   73.3840  220.1770 C   0  0  0  0  0  0  0  0  0  0  0  0
  143.6120   72.3130  220.8610 C   0  0  0  0  0  0  0  0  0  0  0  0
  143.6730   74.6640  220.0420 C   0  0  0  0  0  0  0  0  0  0  0  0
  142.4830   74.7630  220.8430 N   0  0  0  0  0  0  0  0  0  0  0  0
  141.2710   74.2550  220.3560 C   0  0  0  0  0  0  0  0  0  0  0  0
  141.2970   73.7240  219.1960 O   0  0  0  0  0  0  0  0  0  0  0  0
  139.9750   74.2720  221.0420 C   0  0  0  0  0  0  0  0  0  0  0  0
  139.9080   73.4850  222.2530 N   0  0  0  0  0  0  0  0  0  0  0  0
  140.2670   72.1030  222.2990 C   0  0  0  0  0  0  0  0  0  0  0  0
  140.6640   71.4790  221.2570 O   0  0  0  0  0  0  0  0  0  0  0  0
  140.1830   71.3640  223.5660 C   0  0  0  0  0  0  0  0  0  0  0  0
  139.6250   70.1090  223.6060 C   0  0  0  0  0  0  0  0  0  0  0  0
  139.5230   69.3730  224.7730 C   0  0  0  0  0  0  0  0  0  0  0  0
  140.0110   69.9530  225.9240 C   0  0  0  0  0  0  0  0  0  0  0  0
  139.9150   69.2290  227.0960 C   0  0  0  0  0  0  0  0  0  0  0  0
  140.4140   69.8370  228.2450 C   0  0  0  0  0  0  0  0  0  0  0  0
  140.9680   71.0960  228.1730 C   0  0  0  0  0  0  0  0  0  0  0  0
  141.0630   71.8150  227.0090 C   0  0  0  0  0  0  0  0  0  0  0  0
  140.5660   71.2140  225.8590 C   0  0  0  0  0  0  0  0  0  0  0  0
  140.6560   71.9160  224.7120 N   0  0  0  0  0  0  0  0  0  0  0  0
  145.2865   73.6079  222.1543 H   0  0  0  0  0  0  0  0  0  0  0  0
  146.4253   72.9773  220.9165 H   0  0  0  0  0  0  0  0  0  0  0  0
  145.9710   74.7152  220.9165 H   0  0  0  0  0  0  0  0  0  0  0  0
  144.7172   73.0231  219.1784 H   0  0  0  0  0  0  0  0  0  0  0  0
  143.6984   72.4262  221.9517 H   0  0  0  0  0  0  0  0  0  0  0  0
  142.5573   72.4118  220.5645 H   0  0  0  0  0  0  0  0  0  0  0  0
  143.9849   71.3215  220.5645 H   0  0  0  0  0  0  0  0  0  0  0  0
  144.3442   75.4872  220.3279 H   0  0  0  0  0  0  0  0  0  0  0  0
  143.3389   74.7101  218.9950 H   0  0  0  0  0  0  0  0  0  0  0  0
  142.5010   75.2170  221.7810 H   0  0  0  0  0  0  0  0  0  0  0  0
  139.7409   75.3152  221.3009 H   0  0  0  0  0  0  0  0  0  0  0  0
  139.2549   73.8196  220.3443 H   0  0  0  0  0  0  0  0  0  0  0  0
  139.5870   73.8930  223.1820 H   0  0  0  0  0  0  0  0  0  0  0  0
  139.2437   69.6714  222.6716 H   0  0  0  0  0  0  0  0  0  0  0  0
  139.0724   68.3695  224.7818 H   0  0  0  0  0  0  0  0  0  0  0  0
  139.4676   68.2244  227.1206 H   0  0  0  0  0  0  0  0  0  0  0  0
  140.3658   69.3118  229.2103 H   0  0  0  0  0  0  0  0  0  0  0  0
  141.3547   71.5487  229.0980 H   0  0  0  0  0  0  0  0  0  0  0  0
  141.5112   72.8193  226.9869 H   0  0  0  0  0  0  0  0  0  0  0  0
  1  2  1  0
  2  3  1  0
  2  4  1  0
  4  5  1  0
  5  6  1  0
  6  7  2  0
  6  8  1  0
  8  9  1  0
  9 10  1  0
 10 11  2  0
 10 12  1  0
 12 13  2  0
 13 14  1  0
 14 15  2  0
 15 16  1  0
 16 17  2  0
 17 18  1  0
 18 19  2  0
 19 20  1  0
 20 21  2  0
 21 12  1  0
 20 15  1  0
  1 22  1  0
  1 23  1  0
  1 24  1  0
  2 25  1  0
  3 26  1  0
  3 27  1  0
  3 28  1  0
  4 29  1  0
  4 30  1  0
  5 31  1  0
  8 32  1  0
  8 33  1  0
  9 34  1  0
 13 35  1  0
 14 36  1  0
 16 37  1  0
 17 38  1  0
 18 39  1  0
 19 40  1  0
M  END
>  <smiles>  (18) 
CC(C)CNC(=O)CNC(=O)c1ccc2ccccc2n1

>  <score_type>  (18) 
oracle

>  <origin>  (18) 
autodockgpu

>  <m_score__min__energy>  (18) 
-7.5300000000000002

>  <m_primary>  (18) 
energy

>  <rmsd>  (18) 
3.363818108334577

>  <m_score__min__rmsd>  (18) 
3.363818108334577

>  <meeko>  (18) 
{"free_energy": -7.0, "intermolecular_energy": -8.49, "internal_energy": -1.03, "cluster_size": 36, "cluster_id": 2, "rank_in_cluster": 2}

>  <energy>  (18) 
-6.89

>  <cluster_rmsd>  (18) 
0.97

>  <cluster>  (18) 
2

$$$$

     RDKit          3D

 40 41  0  0  0  0  0  0  0  0999 V2000
  145.9890   73.4400  221.2800 C   0  0  0  0  0  0  0  0  0  0  0  0
  144.9870   73.4000  220.1170 C   0  0  0  0  0  0  0  0  0  0  0  0
  144.4480   71.9880  220.0620 C   0  0  0  0  0  0  0  0  0  0  0  0
  143.9250   74.3900  220.4610 C   0  0  0  0  0  0  0  0  0  0  0  0
  142.6390   73.8290  220.7770 N   0  0  0  0  0  0  0  0  0  0  0  0
  141.5010   74.6480  220.7690 C   0  0  0  0  0  0  0  0  0  0  0  0
  141.6820   75.8780  220.4790 O   0  0  0  0  0  0  0  0  0  0  0  0
  140.1250   74.2370  221.0620 C   0  0  0  0  0  0  0  0  0  0  0  0
  139.9570   73.4570  222.2670 N   0  0  0  0  0  0  0  0  0  0  0  0
  140.4570   72.1260  222.4040 C   0  0  0  0  0  0  0  0  0  0  0  0
  141.0820   71.5440  221.4530 O   0  0  0  0  0  0  0  0  0  0  0  0
  140.2590   71.3920  223.6610 C   0  0  0  0  0  0  0  0  0  0  0  0
  139.6080   70.1820  223.6670 C   0  0  0  0  0  0  0  0  0  0  0  0
  139.3960   69.4530  224.8240 C   0  0  0  0  0  0  0  0  0  0  0  0
  139.8700   69.9920  226.0010 C   0  0  0  0  0  0  0  0  0  0  0  0
  139.6650   69.2740  227.1620 C   0  0  0  0  0  0  0  0  0  0  0  0
  140.1530   69.8410  228.3370 C   0  0  0  0  0  0  0  0  0  0  0  0
  140.8010   71.0560  228.2990 C   0  0  0  0  0  0  0  0  0  0  0  0
  141.0040   71.7690  227.1450 C   0  0  0  0  0  0  0  0  0  0  0  0
  140.5200   71.2090  225.9690 C   0  0  0  0  0  0  0  0  0  0  0  0
  140.7160   71.9050  224.8320 N   0  0  0  0  0  0  0  0  0  0  0  0
  145.4434   73.4182  222.2349 H   0  0  0  0  0  0  0  0  0  0  0  0
  146.6565   72.5678  221.2191 H   0  0  0  0  0  0  0  0  0  0  0  0
  146.5848   74.3626  221.2191 H   0  0  0  0  0  0  0  0  0  0  0  0
  145.4157   73.6517  219.1357 H   0  0  0  0  0  0  0  0  0  0  0  0
  144.3039   71.6104  221.0851 H   0  0  0  0  0  0  0  0  0  0  0  0
  143.4850   71.9836  219.5305 H   0  0  0  0  0  0  0  0  0  0  0  0
  145.1631   71.3430  219.5305 H   0  0  0  0  0  0  0  0  0  0  0  0
  144.2676   74.9663  221.3331 H   0  0  0  0  0  0  0  0  0  0  0  0
  143.7761   75.0012  219.5587 H   0  0  0  0  0  0  0  0  0  0  0  0
  142.5360   72.8220  221.0220 H   0  0  0  0  0  0  0  0  0  0  0  0
  139.5119   75.1453  221.1568 H   0  0  0  0  0  0  0  0  0  0  0  0
  139.8192   73.5837  220.2315 H   0  0  0  0  0  0  0  0  0  0  0  0
  139.4490   73.8320  223.1240 H   0  0  0  0  0  0  0  0  0  0  0  0
  139.2403   69.7761  222.7130 H   0  0  0  0  0  0  0  0  0  0  0  0
  138.8722   68.4859  224.8054 H   0  0  0  0  0  0  0  0  0  0  0  0
  139.1438   68.3053  227.1594 H   0  0  0  0  0  0  0  0  0  0  0  0
  140.0209   69.3183  229.2958 H   0  0  0  0  0  0  0  0  0  0  0  0
  141.1754   71.4766  229.2440 H   0  0  0  0  0  0  0  0  0  0  0  0
  141.5250   72.7378  227.1502 H   0  0  0  0  0  0  0  0  0  0  0  0
  1  2  1  0
  2  3  1  0
  2  4  1  0
  4  5  1  0
  5  6  1  0
  6  7  2  0
  6  8  1  0
  8  9  1  0
  9 10  1  0
 10 11  2  0
 10 12  1  0
 12 13  2  0
 13 14  1  0
 14 15  2  0
 15 16  1  0
 16 17  2  0
 17 18  1  0
 18 19  2  0
 19 20  1  0
 20 21  2  0
 21 12  1  0
 20 15  1  0
  1 22  1  0
  1 23  1  0
  1 24  1  0
  2 25  1  0
  3 26  1  0
  3 27  1  0
  3 28  1  0
  4 29  1  0
  4 30  1  0
  5 31  1  0
  8 32  1  0
  8 33  1  0
  9 34  1  0
 13 35  1  0
 14 36  1  0
 16 37  1  0
 17 38  1  0
 18 39  1  0
 19 40  1  0
M  END
>  <smiles>  (19) 
CC(C)CNC(=O)CNC(=O)c1ccc2ccccc2n1

>  <score_type>  (19) 
oracle

>  <origin>  (19) 
autodockgpu

>  <m_score__min__energy>  (19) 
-7.5300000000000002

>  <m_primary>  (19) 
energy

>  <rmsd>  (19) 
3.5473118557650127

>  <m_score__min__rmsd>  (19) 
3.5473118557650127

>  <meeko>  (19) 
{"free_energy": -6.89, "intermolecular_energy": -8.38, "internal_energy": -1.57, "cluster_size": 36, "cluster_id": 2, "rank_in_cluster": 13}

>  <energy>  (19) 
-6.89

>  <cluster_rmsd>  (19) 
0.9

>  <cluster>  (19) 
2

$$$$

     RDKit          3D

 40 41  0  0  0  0  0  0  0  0999 V2000
  145.9400   73.3880  221.2530 C   0  0  0  0  0  0  0  0  0  0  0  0
  144.8780   73.2490  220.1520 C   0  0  0  0  0  0  0  0  0  0  0  0
  144.3080   71.8540  220.2780 C   0  0  0  0  0  0  0  0  0  0  0  0
  143.8550   74.2970  220.4410 C   0  0  0  0  0  0  0  0  0  0  0  0
  142.5840   73.8070  220.9000 N   0  0  0  0  0  0  0  0  0  0  0  0
  141.4210   74.5540  220.6610 C   0  0  0  0  0  0  0  0  0  0  0  0
  141.5670   75.6570  220.0350 O   0  0  0  0  0  0  0  0  0  0  0  0
  140.0550   74.1990  221.0560 C   0  0  0  0  0  0  0  0  0  0  0  0
  139.9470   73.4190  222.2690 N   0  0  0  0  0  0  0  0  0  0  0  0
  140.3900   72.0640  222.3600 C   0  0  0  0  0  0  0  0  0  0  0  0
  140.9060   71.4590  221.3600 O   0  0  0  0  0  0  0  0  0  0  0  0
  140.2580   71.3320  223.6270 C   0  0  0  0  0  0  0  0  0  0  0  0
  139.6850   70.0840  223.6540 C   0  0  0  0  0  0  0  0  0  0  0  0
  139.5380   69.3540  224.8200 C   0  0  0  0  0  0  0  0  0  0  0  0
  139.9950   69.9330  225.9850 C   0  0  0  0  0  0  0  0  0  0  0  0
  139.8540   69.2150  227.1550 C   0  0  0  0  0  0  0  0  0  0  0  0
  140.3240   69.8230  228.3170 C   0  0  0  0  0  0  0  0  0  0  0  0
  140.8940   71.0750  228.2580 C   0  0  0  0  0  0  0  0  0  0  0  0
  141.0340   71.7880  227.0950 C   0  0  0  0  0  0  0  0  0  0  0  0
  140.5670   71.1880  225.9310 C   0  0  0  0  0  0  0  0  0  0  0  0
  140.7010   71.8830  224.7860 N   0  0  0  0  0  0  0  0  0  0  0  0
  145.4564   73.3247  222.2390 H   0  0  0  0  0  0  0  0  0  0  0  0
  146.6786   72.5789  221.1543 H   0  0  0  0  0  0  0  0  0  0  0  0
  146.4455   74.3600  221.1543 H   0  0  0  0  0  0  0  0  0  0  0  0
  145.2598   73.3828  219.1291 H   0  0  0  0  0  0  0  0  0  0  0  0
  144.2025   71.5958  221.3420 H   0  0  0  0  0  0  0  0  0  0  0  0
  143.3220   71.8155  219.7918 H   0  0  0  0  0  0  0  0  0  0  0  0
  144.9849   71.1360  219.7918 H   0  0  0  0  0  0  0  0  0  0  0  0
  144.2616   74.9639  221.2156 H   0  0  0  0  0  0  0  0  0  0  0  0
  143.6580   74.8009  219.4833 H   0  0  0  0  0  0  0  0  0  0  0  0
  142.5090   72.9080  221.4210 H   0  0  0  0  0  0  0  0  0  0  0  0
  139.4893   75.1314  221.1997 H   0  0  0  0  0  0  0  0  0  0  0  0
  139.6595   73.5644  220.2492 H   0  0  0  0  0  0  0  0  0  0  0  0
  139.5290   73.8120  223.1650 H   0  0  0  0  0  0  0  0  0  0  0  0
  139.3283   69.6469  222.7097 H   0  0  0  0  0  0  0  0  0  0  0  0
  139.0767   68.3554  224.8178 H   0  0  0  0  0  0  0  0  0  0  0  0
  139.3948   68.2155  227.1694 H   0  0  0  0  0  0  0  0  0  0  0  0
  140.2397   69.3025  229.2824 H   0  0  0  0  0  0  0  0  0  0  0  0
  141.2562   71.5271  229.1931 H   0  0  0  0  0  0  0  0  0  0  0  0
  141.4939   72.7872  227.0836 H   0  0  0  0  0  0  0  0  0  0  0  0
  1  2  1  0
  2  3  1  0
  2  4  1  0
  4  5  1  0
  5  6  1  0
  6  7  2  0
  6  8  1  0
  8  9  1  0
  9 10  1  0
 10 11  2  0
 10 12  1  0
 12 13  2  0
 13 14  1  0
 14 15  2  0
 15 16  1  0
 16 17  2  0
 17 18  1  0
 18 19  2  0
 19 20  1  0
 20 21  2  0
 21 12  1  0
 20 15  1  0
  1 22  1  0
  1 23  1  0
  1 24  1  0
  2 25  1  0
  3 26  1  0
  3 27  1  0
  3 28  1  0
  4 29  1  0
  4 30  1  0
  5 31  1  0
  8 32  1  0
  8 33  1  0
  9 34  1  0
 13 35  1  0
 14 36  1  0
 16 37  1  0
 17 38  1  0
 18 39  1  0
 19 40  1  0
M  END
>  <smiles>  (20) 
CC(C)CNC(=O)CNC(=O)c1ccc2ccccc2n1

>  <score_type>  (20) 
oracle

>  <origin>  (20) 
autodockgpu

>  <m_score__min__energy>  (20) 
-7.5300000000000002

>  <m_primary>  (20) 
energy

>  <rmsd>  (20) 
3.5293043964672126

>  <m_score__min__rmsd>  (20) 
3.5293043964672126

>  <meeko>  (20) 
{"free_energy": -6.74, "intermolecular_energy": -8.24, "internal_energy": -1.62, "cluster_size": 36, "cluster_id": 2, "rank_in_cluster": 32}

>  <energy>  (20) 
-6.89

>  <cluster_rmsd>  (20) 
0.89

>  <cluster>  (20) 
2

$$$$

     RDKit          3D

 40 41  0  0  0  0  0  0  0  0999 V2000
  145.9520   73.4660  221.2920 C   0  0  0  0  0  0  0  0  0  0  0  0
  144.9410   73.3990  220.1370 C   0  0  0  0  0  0  0  0  0  0  0  0
  144.3990   71.9880  220.1220 C   0  0  0  0  0  0  0  0  0  0  0  0
  143.8830   74.3990  220.4650 C   0  0  0  0  0  0  0  0  0  0  0  0
  142.6060   73.8490  220.8290 N   0  0  0  0  0  0  0  0  0  0  0  0
  141.4540   74.6430  220.7420 C   0  0  0  0  0  0  0  0  0  0  0  0
  141.6150   75.8430  220.3380 O   0  0  0  0  0  0  0  0  0  0  0  0
  140.0840   74.2380  221.0690 C   0  0  0  0  0  0  0  0  0  0  0  0
  139.9430   73.4600  222.2790 N   0  0  0  0  0  0  0  0  0  0  0  0
  140.3840   72.1060  222.3860 C   0  0  0  0  0  0  0  0  0  0  0  0
  140.9290   71.5000  221.4010 O   0  0  0  0  0  0  0  0  0  0  0  0
  140.2180   71.3760  223.6490 C   0  0  0  0  0  0  0  0  0  0  0  0
  139.5930   70.1530  223.6710 C   0  0  0  0  0  0  0  0  0  0  0  0
  139.4120   69.4260  224.8340 C   0  0  0  0  0  0  0  0  0  0  0  0
  139.8890   69.9820  226.0020 C   0  0  0  0  0  0  0  0  0  0  0  0
  139.7150   69.2670  227.1700 C   0  0  0  0  0  0  0  0  0  0  0  0
  140.2060   69.8510  228.3350 C   0  0  0  0  0  0  0  0  0  0  0  0
  140.8280   71.0780  228.2820 C   0  0  0  0  0  0  0  0  0  0  0  0
  141.0010   71.7880  227.1210 C   0  0  0  0  0  0  0  0  0  0  0  0
  140.5130   71.2120  225.9540 C   0  0  0  0  0  0  0  0  0  0  0  0
  140.6800   71.9050  224.8110 N   0  0  0  0  0  0  0  0  0  0  0  0
  145.4153   73.4304  222.2516 H   0  0  0  0  0  0  0  0  0  0  0  0
  146.6416   72.6116  221.2257 H   0  0  0  0  0  0  0  0  0  0  0  0
  146.5228   74.4039  221.2257 H   0  0  0  0  0  0  0  0  0  0  0  0
  145.3628   73.6253  219.1466 H   0  0  0  0  0  0  0  0  0  0  0  0
  144.2638   71.6361  221.1554 H   0  0  0  0  0  0  0  0  0  0  0  0
  143.4310   71.9726  219.5998 H   0  0  0  0  0  0  0  0  0  0  0  0
  145.1078   71.3285  219.5998 H   0  0  0  0  0  0  0  0  0  0  0  0
  144.2421   75.0091  221.3069 H   0  0  0  0  0  0  0  0  0  0  0  0
  143.7134   74.9741  219.5428 H   0  0  0  0  0  0  0  0  0  0  0  0
  142.5190   72.8680  221.1690 H   0  0  0  0  0  0  0  0  0  0  0  0
  139.4769   75.1489  221.1777 H   0  0  0  0  0  0  0  0  0  0  0  0
  139.7549   73.5852  220.2471 H   0  0  0  0  0  0  0  0  0  0  0  0
  139.5000   73.8550  223.1630 H   0  0  0  0  0  0  0  0  0  0  0  0
  139.2209   69.7342  222.7244 H   0  0  0  0  0  0  0  0  0  0  0  0
  138.9096   68.4474  224.8272 H   0  0  0  0  0  0  0  0  0  0  0  0
  139.2148   68.2874  227.1799 H   0  0  0  0  0  0  0  0  0  0  0  0
  140.0967   69.3314  229.2984 H   0  0  0  0  0  0  0  0  0  0  0  0
  141.2060   71.5117  229.2195 H   0  0  0  0  0  0  0  0  0  0  0  0
  141.5023   72.7671  227.1140 H   0  0  0  0  0  0  0  0  0  0  0  0
  1  2  1  0
  2  3  1  0
  2  4  1  0
  4  5  1  0
  5  6  1  0
  6  7  2  0
  6  8  1  0
  8  9  1  0
  9 10  1  0
 10 11  2  0
 10 12  1  0
 12 13  2  0
 13 14  1  0
 14 15  2  0
 15 16  1  0
 16 17  2  0
 17 18  1  0
 18 19  2  0
 19 20  1  0
 20 21  2  0
 21 12  1  0
 20 15  1  0
  1 22  1  0
  1 23  1  0
  1 24  1  0
  2 25  1  0
  3 26  1  0
  3 27  1  0
  3 28  1  0
  4 29  1  0
  4 30  1  0
  5 31  1  0
  8 32  1  0
  8 33  1  0
  9 34  1  0
 13 35  1  0
 14 36  1  0
 16 37  1  0
 17 38  1  0
 18 39  1  0
 19 40  1  0
M  END
>  <smiles>  (21) 
CC(C)CNC(=O)CNC(=O)c1ccc2ccccc2n1

>  <score_type>  (21) 
oracle

>  <origin>  (21) 
autodockgpu

>  <m_score__min__energy>  (21) 
-7.5300000000000002

>  <m_primary>  (21) 
energy

>  <rmsd>  (21) 
3.524590764691049

>  <m_score__min__rmsd>  (21) 
3.524590764691049

>  <meeko>  (21) 
{"free_energy": -6.85, "intermolecular_energy": -8.34, "internal_energy": -1.59, "cluster_size": 36, "cluster_id": 2, "rank_in_cluster": 24}

>  <energy>  (21) 
-6.89

>  <cluster_rmsd>  (21) 
0.89

>  <cluster>  (21) 
2

$$$$

     RDKit          3D

 40 41  0  0  0  0  0  0  0  0999 V2000
  145.8930   73.7360  221.1980 C   0  0  0  0  0  0  0  0  0  0  0  0
  144.9320   73.4890  220.0250 C   0  0  0  0  0  0  0  0  0  0  0  0
  144.4630   72.0570  220.1490 C   0  0  0  0  0  0  0  0  0  0  0  0
  143.8140   74.4610  220.2050 C   0  0  0  0  0  0  0  0  0  0  0  0
  142.5160   73.8760  220.4080 N   0  0  0  0  0  0  0  0  0  0  0  0
  141.4550   74.6750  220.8560 C   0  0  0  0  0  0  0  0  0  0  0  0
  141.7130   75.9070  221.0670 O   0  0  0  0  0  0  0  0  0  0  0  0
  140.0780   74.2400  221.1090 C   0  0  0  0  0  0  0  0  0  0  0  0
  139.8910   73.4440  222.3010 N   0  0  0  0  0  0  0  0  0  0  0  0
  140.4670   72.1470  222.4650 C   0  0  0  0  0  0  0  0  0  0  0  0
  141.1820   71.6120  221.5500 O   0  0  0  0  0  0  0  0  0  0  0  0
  140.2450   71.3950  223.7070 C   0  0  0  0  0  0  0  0  0  0  0  0
  139.5800   70.1930  223.6850 C   0  0  0  0  0  0  0  0  0  0  0  0
  139.3460   69.4480  224.8260 C   0  0  0  0  0  0  0  0  0  0  0  0
  139.8110   69.9620  226.0180 C   0  0  0  0  0  0  0  0  0  0  0  0
  139.5830   69.2280  227.1650 C   0  0  0  0  0  0  0  0  0  0  0  0
  140.0620   69.7700  228.3550 C   0  0  0  0  0  0  0  0  0  0  0  0
  140.7240   70.9770  228.3450 C   0  0  0  0  0  0  0  0  0  0  0  0
  140.9500   71.7070  227.2060 C   0  0  0  0  0  0  0  0  0  0  0  0
  140.4740   71.1720  226.0140 C   0  0  0  0  0  0  0  0  0  0  0  0
  140.6930   71.8840  224.8920 N   0  0  0  0  0  0  0  0  0  0  0  0
  145.3555   73.5978  222.1477 H   0  0  0  0  0  0  0  0  0  0  0  0
  146.7294   73.0236  221.1431 H   0  0  0  0  0  0  0  0  0  0  0  0
  146.2822   74.7634  221.1431 H   0  0  0  0  0  0  0  0  0  0  0  0
  145.3790   73.6281  219.0296 H   0  0  0  0  0  0  0  0  0  0  0  0
  144.3757   71.7906  221.2127 H   0  0  0  0  0  0  0  0  0  0  0  0
  143.4825   71.9488  219.6623 H   0  0  0  0  0  0  0  0  0  0  0  0
  145.1895   71.3898  219.6623 H   0  0  0  0  0  0  0  0  0  0  0  0
  144.0452   75.0863  221.0799 H   0  0  0  0  0  0  0  0  0  0  0  0
  143.7484   75.0260  219.2635 H   0  0  0  0  0  0  0  0  0  0  0  0
  142.3500   72.8620  220.2380 H   0  0  0  0  0  0  0  0  0  0  0  0
  139.4488   75.1379  221.1977 H   0  0  0  0  0  0  0  0  0  0  0  0
  139.8037   73.5915  220.2639 H   0  0  0  0  0  0  0  0  0  0  0  0
  139.3120   73.7820  223.1280 H   0  0  0  0  0  0  0  0  0  0  0  0
  139.2189   69.8075  222.7201 H   0  0  0  0  0  0  0  0  0  0  0  0
  138.8121   68.4871  224.7846 H   0  0  0  0  0  0  0  0  0  0  0  0
  139.0509   68.2656  227.1401 H   0  0  0  0  0  0  0  0  0  0  0  0
  139.9113   69.2334  229.3034 H   0  0  0  0  0  0  0  0  0  0  0  0
  141.0913   71.3773  229.3015 H   0  0  0  0  0  0  0  0  0  0  0  0
  141.4821   72.6693  227.2341 H   0  0  0  0  0  0  0  0  0  0  0  0
  1  2  1  0
  2  3  1  0
  2  4  1  0
  4  5  1  0
  5  6  1  0
  6  7  2  0
  6  8  1  0
  8  9  1  0
  9 10  1  0
 10 11  2  0
 10 12  1  0
 12 13  2  0
 13 14  1  0
 14 15  2  0
 15 16  1  0
 16 17  2  0
 17 18  1  0
 18 19  2  0
 19 20  1  0
 20 21  2  0
 21 12  1  0
 20 15  1  0
  1 22  1  0
  1 23  1  0
  1 24  1  0
  2 25  1  0
  3 26  1  0
  3 27  1  0
  3 28  1  0
  4 29  1  0
  4 30  1  0
  5 31  1  0
  8 32  1  0
  8 33  1  0
  9 34  1  0
 13 35  1  0
 14 36  1  0
 16 37  1  0
 17 38  1  0
 18 39  1  0
 19 40  1  0
M  END
>  <smiles>  (22) 
CC(C)CNC(=O)CNC(=O)c1ccc2ccccc2n1

>  <score_type>  (22) 
oracle

>  <origin>  (22) 
autodockgpu

>  <m_score__min__energy>  (22) 
-7.5300000000000002

>  <m_primary>  (22) 
energy

>  <rmsd>  (22) 
3.4563657600693234

>  <m_score__min__rmsd>  (22) 
3.4563657600693234

>  <meeko>  (22) 
{"free_energy": -6.89, "intermolecular_energy": -8.38, "internal_energy": -1.53, "cluster_size": 36, "cluster_id": 2, "rank_in_cluster": 10}

>  <energy>  (22) 
-6.89

>  <cluster_rmsd>  (22) 
0.89

>  <cluster>  (22) 
2

$$$$

     RDKit          3D

 40 41  0  0  0  0  0  0  0  0999 V2000
  140.7420   71.8890  226.0750 C   0  0  0  0  0  0  0  0  0  0  0  0
  140.7580   71.0580  224.7830 C   0  0  0  0  0  0  0  0  0  0  0  0
  140.5960   69.6130  225.1990 C   0  0  0  0  0  0  0  0  0  0  0  0
  139.5980   71.5390  223.9760 C   0  0  0  0  0  0  0  0  0  0  0  0
  139.8800   72.6300  223.0820 N   0  0  0  0  0  0  0  0  0  0  0  0
  140.8190   72.4630  222.0540 C   0  0  0  0  0  0  0  0  0  0  0  0
  141.3850   71.3220  221.9750 O   0  0  0  0  0  0  0  0  0  0  0  0
  141.2170   73.4650  221.0610 C   0  0  0  0  0  0  0  0  0  0  0  0
  141.2530   74.8280  221.5400 N   0  0  0  0  0  0  0  0  0  0  0  0
  140.0730   75.5690  221.8540 C   0  0  0  0  0  0  0  0  0  0  0  0
  138.9070   75.0610  221.7200 O   0  0  0  0  0  0  0  0  0  0  0  0
  140.1810   76.9490  222.3450 C   0  0  0  0  0  0  0  0  0  0  0  0
  139.0550   77.6570  222.6900 C   0  0  0  0  0  0  0  0  0  0  0  0
  139.1030   78.9580  223.1570 C   0  0  0  0  0  0  0  0  0  0  0  0
  140.3490   79.5390  223.2680 C   0  0  0  0  0  0  0  0  0  0  0  0
  140.4110   80.8370  223.7320 C   0  0  0  0  0  0  0  0  0  0  0  0
  141.6810   81.4000  223.8350 C   0  0  0  0  0  0  0  0  0  0  0  0
  142.7910   80.6660  223.4820 C   0  0  0  0  0  0  0  0  0  0  0  0
  142.7290   79.3760  223.0200 C   0  0  0  0  0  0  0  0  0  0  0  0
  141.4650   78.8080  222.9140 C   0  0  0  0  0  0  0  0  0  0  0  0
  141.3970   77.5410  222.4620 N   0  0  0  0  0  0  0  0  0  0  0  0
  140.7550   71.2153  226.9445 H   0  0  0  0  0  0  0  0  0  0  0  0
  141.6278   72.5406  226.1028 H   0  0  0  0  0  0  0  0  0  0  0  0
  139.8318   72.5061  226.1028 H   0  0  0  0  0  0  0  0  0  0  0  0
  141.6797   71.1531  224.1902 H   0  0  0  0  0  0  0  0  0  0  0  0
  140.5885   69.5462  226.2969 H   0  0  0  0  0  0  0  0  0  0  0  0
  139.6483   69.2210  224.8013 H   0  0  0  0  0  0  0  0  0  0  0  0
  141.4334   69.0209  224.8013 H   0  0  0  0  0  0  0  0  0  0  0  0
  139.2286   70.6946  223.3755 H   0  0  0  0  0  0  0  0  0  0  0  0
  138.8626   71.9213  224.6992 H   0  0  0  0  0  0  0  0  0  0  0  0
  139.4060   73.5510  223.1900 H   0  0  0  0  0  0  0  0  0  0  0  0
  142.2230   73.2049  220.6999 H   0  0  0  0  0  0  0  0  0  0  0  0
  140.4468   73.4384  220.2761 H   0  0  0  0  0  0  0  0  0  0  0  0
  142.1640   75.3580  221.6870 H   0  0  0  0  0  0  0  0  0  0  0  0
  138.0744   77.1686  222.5906 H   0  0  0  0  0  0  0  0  0  0  0  0
  138.1880   79.5051  223.4279 H   0  0  0  0  0  0  0  0  0  0  0  0
  139.5052   81.3977  224.0061 H   0  0  0  0  0  0  0  0  0  0  0  0
  141.7971   82.4317  224.1986 H   0  0  0  0  0  0  0  0  0  0  0  0
  143.7797   81.1390  223.5754 H   0  0  0  0  0  0  0  0  0  0  0  0
  143.6364   78.8177  222.7465 H   0  0  0  0  0  0  0  0  0  0  0  0
  1  2  1  0
  2  3  1  0
  2  4  1  0
  4  5  1  0
  5  6  1  0
  6  7  2  0
  6  8  1  0
  8  9  1  0
  9 10  1  0
 10 11  2  0
 10 12  1  0
 12 13  2  0
 13 14  1  0
 14 15  2  0
 15 16  1  0
 16 17  2  0
 17 18  1  0
 18 19  2  0
 19 20  1  0
 20 21  2  0
 21 12  1  0
 20 15  1  0
  1 22  1  0
  1 23  1  0
  1 24  1  0
  2 25  1  0
  3 26  1  0
  3 27  1  0
  3 28  1  0
  4 29  1  0
  4 30  1  0
  5 31  1  0
  8 32  1  0
  8 33  1  0
  9 34  1  0
 13 35  1  0
 14 36  1  0
 16 37  1  0
 17 38  1  0
 18 39  1  0
 19 40  1  0
M  END
>  <smiles>  (23) 
CC(C)CNC(=O)CNC(=O)c1ccc2ccccc2n1

>  <score_type>  (23) 
oracle

>  <origin>  (23) 
autodockgpu

>  <m_score__min__energy>  (23) 
-7.5300000000000002

>  <m_primary>  (23) 
energy

>  <rmsd>  (23) 
8.450445818900306

>  <m_score__min__rmsd>  (23) 
8.450445818900306

>  <meeko>  (23) 
{"free_energy": -6.39, "intermolecular_energy": -7.88, "internal_energy": -1.77, "cluster_size": 6, "cluster_id": 3, "rank_in_cluster": 3}

>  <energy>  (23) 
-6.88

>  <cluster_rmsd>  (23) 
0.88

>  <cluster>  (23) 
2

$$$$

     RDKit          3D

 40 41  0  0  0  0  0  0  0  0999 V2000
  141.4690   78.6160  221.3800 C   0  0  0  0  0  0  0  0  0  0  0  0
  141.0680   77.9720  222.7150 C   0  0  0  0  0  0  0  0  0  0  0  0
  141.2020   79.0470  223.7690 C   0  0  0  0  0  0  0  0  0  0  0  0
  139.6520   77.5320  222.5440 C   0  0  0  0  0  0  0  0  0  0  0  0
  139.4430   76.1100  222.5560 N   0  0  0  0  0  0  0  0  0  0  0  0
  139.5840   75.3740  221.3710 C   0  0  0  0  0  0  0  0  0  0  0  0
  139.8950   76.0320  220.3220 O   0  0  0  0  0  0  0  0  0  0  0  0
  139.4120   73.9270  221.2120 C   0  0  0  0  0  0  0  0  0  0  0  0
  139.5490   73.1530  222.4250 N   0  0  0  0  0  0  0  0  0  0  0  0
  139.6500   71.7280  222.4270 C   0  0  0  0  0  0  0  0  0  0  0  0
  139.6180   71.0530  221.3420 O   0  0  0  0  0  0  0  0  0  0  0  0
  139.7970   71.0030  223.6970 C   0  0  0  0  0  0  0  0  0  0  0  0
  139.4390   69.6800  223.7890 C   0  0  0  0  0  0  0  0  0  0  0  0
  139.5580   68.9540  224.9610 C   0  0  0  0  0  0  0  0  0  0  0  0
  140.0570   69.6170  226.0620 C   0  0  0  0  0  0  0  0  0  0  0  0
  140.1800   68.9030  227.2370 C   0  0  0  0  0  0  0  0  0  0  0  0
  140.6860   69.5960  228.3340 C   0  0  0  0  0  0  0  0  0  0  0  0
  141.0360   70.9230  228.2100 C   0  0  0  0  0  0  0  0  0  0  0  0
  140.9130   71.6310  227.0420 C   0  0  0  0  0  0  0  0  0  0  0  0
  140.4080   70.9460  225.9440 C   0  0  0  0  0  0  0  0  0  0  0  0
  140.2850   71.6360  224.7940 N   0  0  0  0  0  0  0  0  0  0  0  0
  142.0414   79.5352  221.5736 H   0  0  0  0  0  0  0  0  0  0  0  0
  142.0889   77.9123  220.8050 H   0  0  0  0  0  0  0  0  0  0  0  0
  140.5640   78.8618  220.8050 H   0  0  0  0  0  0  0  0  0  0  0  0
  141.6851   77.1107  223.0104 H   0  0  0  0  0  0  0  0  0  0  0  0
  141.1450   78.5901  224.7680 H   0  0  0  0  0  0  0  0  0  0  0  0
  142.1705   79.5555  223.6530 H   0  0  0  0  0  0  0  0  0  0  0  0
  140.3880   79.7777  223.6530 H   0  0  0  0  0  0  0  0  0  0  0  0
  139.0597   77.9691  223.3614 H   0  0  0  0  0  0  0  0  0  0  0  0
  139.3464   77.8750  221.5445 H   0  0  0  0  0  0  0  0  0  0  0  0
  139.1760   75.6120  223.4320 H   0  0  0  0  0  0  0  0  0  0  0  0
  138.4060   73.7467  220.8054 H   0  0  0  0  0  0  0  0  0  0  0  0
  140.2219   73.5952  220.5457 H   0  0  0  0  0  0  0  0  0  0  0  0
  139.5820   73.6030  223.3890 H   0  0  0  0  0  0  0  0  0  0  0  0
  139.0417   69.1774  222.8949 H   0  0  0  0  0  0  0  0  0  0  0  0
  139.2672   67.8944  225.0120 H   0  0  0  0  0  0  0  0  0  0  0  0
  139.8936   67.8430  227.3034 H   0  0  0  0  0  0  0  0  0  0  0  0
  140.8063   69.0837  229.3000 H   0  0  0  0  0  0  0  0  0  0  0  0
  141.4350   71.4416  229.0943 H   0  0  0  0  0  0  0  0  0  0  0  0
  141.2005   72.6908  226.9776 H   0  0  0  0  0  0  0  0  0  0  0  0
  1  2  1  0
  2  3  1  0
  2  4  1  0
  4  5  1  0
  5  6  1  0
  6  7  2  0
  6  8  1  0
  8  9  1  0
  9 10  1  0
 10 11  2  0
 10 12  1  0
 12 13  2  0
 13 14  1  0
 14 15  2  0
 15 16  1  0
 16 17  2  0
 17 18  1  0
 18 19  2  0
 19 20  1  0
 20 21  2  0
 21 12  1  0
 20 15  1  0
  1 22  1  0
  1 23  1  0
  1 24  1  0
  2 25  1  0
  3 26  1  0
  3 27  1  0
  3 28  1  0
  4 29  1  0
  4 30  1  0
  5 31  1  0
  8 32  1  0
  8 33  1  0
  9 34  1  0
 13 35  1  0
 14 36  1  0
 16 37  1  0
 17 38  1  0
 18 39  1  0
 19 40  1  0
M  END
>  <smiles>  (24) 
CC(C)CNC(=O)CNC(=O)c1ccc2ccccc2n1

>  <score_type>  (24) 
oracle

>  <origin>  (24) 
autodockgpu

>  <m_score__min__energy>  (24) 
-7.5300000000000002

>  <m_primary>  (24) 
energy

>  <rmsd>  (24) 
2.9293650681700814

>  <m_score__min__rmsd>  (24) 
2.9293650681700814

>  <meeko>  (24) 
{"free_energy": -6.92, "intermolecular_energy": -8.41, "internal_energy": -0.96, "cluster_size": 8, "cluster_id": 1, "rank_in_cluster": 4}

>  <energy>  (24) 
-6.88

>  <cluster_rmsd>  (24) 
0.89

>  <cluster>  (24) 
2

$$$$

     RDKit          3D

 40 41  0  0  0  0  0  0  0  0999 V2000
  145.7760   73.7530  221.0010 C   0  0  0  0  0  0  0  0  0  0  0  0
  144.7880   73.2470  219.9400 C   0  0  0  0  0  0  0  0  0  0  0  0
  144.3180   71.8870  220.4040 C   0  0  0  0  0  0  0  0  0  0  0  0
  143.6760   74.2420  219.9130 C   0  0  0  0  0  0  0  0  0  0  0  0
  142.3880   73.7380  220.3050 N   0  0  0  0  0  0  0  0  0  0  0  0
  141.3830   74.6300  220.7070 C   0  0  0  0  0  0  0  0  0  0  0  0
  141.6840   75.8700  220.7050 O   0  0  0  0  0  0  0  0  0  0  0  0
  140.0230   74.2840  221.1310 C   0  0  0  0  0  0  0  0  0  0  0  0
  139.9370   73.4870  222.3340 N   0  0  0  0  0  0  0  0  0  0  0  0
  140.3420   72.1180  222.3870 C   0  0  0  0  0  0  0  0  0  0  0  0
  140.8030   71.5160  221.3590 O   0  0  0  0  0  0  0  0  0  0  0  0
  140.2350   71.3680  223.6460 C   0  0  0  0  0  0  0  0  0  0  0  0
  139.6780   70.1130  223.6640 C   0  0  0  0  0  0  0  0  0  0  0  0
  139.5540   69.3670  224.8230 C   0  0  0  0  0  0  0  0  0  0  0  0
  140.0190   69.9370  225.9890 C   0  0  0  0  0  0  0  0  0  0  0  0
  139.9010   69.2030  227.1520 C   0  0  0  0  0  0  0  0  0  0  0  0
  140.3770   69.8020  228.3160 C   0  0  0  0  0  0  0  0  0  0  0  0
  140.9310   71.0620  228.2660 C   0  0  0  0  0  0  0  0  0  0  0  0
  141.0470   71.7910  227.1100 C   0  0  0  0  0  0  0  0  0  0  0  0
  140.5730   71.2000  225.9450 C   0  0  0  0  0  0  0  0  0  0  0  0
  140.6850   71.9110  224.8060 N   0  0  0  0  0  0  0  0  0  0  0  0
  145.3741   73.5472  222.0041 H   0  0  0  0  0  0  0  0  0  0  0  0
  146.7402   73.2377  220.8795 H   0  0  0  0  0  0  0  0  0  0  0  0
  145.9214   74.8366  220.8795 H   0  0  0  0  0  0  0  0  0  0  0  0
  145.2131   73.1474  218.9304 H   0  0  0  0  0  0  0  0  0  0  0  0
  144.3080   71.8580  221.5036 H   0  0  0  0  0  0  0  0  0  0  0  0
  143.3031   71.7001  220.0230 H   0  0  0  0  0  0  0  0  0  0  0  0
  145.0009   71.1134  220.0230 H   0  0  0  0  0  0  0  0  0  0  0  0
  143.9401   75.0646  220.5938 H   0  0  0  0  0  0  0  0  0  0  0  0
  143.5730   74.5530  218.8629 H   0  0  0  0  0  0  0  0  0  0  0  0
  142.1870   72.7160  220.3070 H   0  0  0  0  0  0  0  0  0  0  0  0
  139.4717   75.2202  221.3030 H   0  0  0  0  0  0  0  0  0  0  0  0
  139.6000   73.6664  220.3250 H   0  0  0  0  0  0  0  0  0  0  0  0
  139.5640   73.8770  223.2520 H   0  0  0  0  0  0  0  0  0  0  0  0
  139.3156   69.6831  222.7186 H   0  0  0  0  0  0  0  0  0  0  0  0
  139.1041   68.3632  224.8143 H   0  0  0  0  0  0  0  0  0  0  0  0
  139.4545   68.1977  227.1592 H   0  0  0  0  0  0  0  0  0  0  0  0
  140.3104   69.2685  229.2756 H   0  0  0  0  0  0  0  0  0  0  0  0
  141.2997   71.5069  229.2020 H   0  0  0  0  0  0  0  0  0  0  0  0
  141.4941   72.7960  227.1053 H   0  0  0  0  0  0  0  0  0  0  0  0
  1  2  1  0
  2  3  1  0
  2  4  1  0
  4  5  1  0
  5  6  1  0
  6  7  2  0
  6  8  1  0
  8  9  1  0
  9 10  1  0
 10 11  2  0
 10 12  1  0
 12 13  2  0
 13 14  1  0
 14 15  2  0
 15 16  1  0
 16 17  2  0
 17 18  1  0
 18 19  2  0
 19 20  1  0
 20 21  2  0
 21 12  1  0
 20 15  1  0
  1 22  1  0
  1 23  1  0
  1 24  1  0
  2 25  1  0
  3 26  1  0
  3 27  1  0
  3 28  1  0
  4 29  1  0
  4 30  1  0
  5 31  1  0
  8 32  1  0
  8 33  1  0
  9 34  1  0
 13 35  1  0
 14 36  1  0
 16 37  1  0
 17 38  1  0
 18 39  1  0
 19 40  1  0
M  END
>  <smiles>  (25) 
CC(C)CNC(=O)CNC(=O)c1ccc2ccccc2n1

>  <score_type>  (25) 
oracle

>  <origin>  (25) 
autodockgpu

>  <m_score__min__energy>  (25) 
-7.5300000000000002

>  <m_primary>  (25) 
energy

>  <rmsd>  (25) 
3.3934324259634674

>  <m_score__min__rmsd>  (25) 
3.3934324259634674

>  <meeko>  (25) 
{"free_energy": -6.67, "intermolecular_energy": -8.16, "internal_energy": -1.63, "cluster_size": 36, "cluster_id": 2, "rank_in_cluster": 34}

>  <energy>  (25) 
-6.88

>  <cluster_rmsd>  (25) 
0.89

>  <cluster>  (25) 
2

$$$$

     RDKit          3D

 40 41  0  0  0  0  0  0  0  0999 V2000
  146.0100   73.4430  221.3170 C   0  0  0  0  0  0  0  0  0  0  0  0
  145.0080   73.3870  220.1550 C   0  0  0  0  0  0  0  0  0  0  0  0
  144.4670   71.9760  220.1210 C   0  0  0  0  0  0  0  0  0  0  0  0
  143.9460   74.3830  220.4860 C   0  0  0  0  0  0  0  0  0  0  0  0
  142.6650   73.8280  220.8250 N   0  0  0  0  0  0  0  0  0  0  0  0
  141.5190   74.6340  220.7710 C   0  0  0  0  0  0  0  0  0  0  0  0
  141.6900   75.8490  220.4180 O   0  0  0  0  0  0  0  0  0  0  0  0
  140.1450   74.2260  221.0790 C   0  0  0  0  0  0  0  0  0  0  0  0
  139.9890   73.4490  222.2880 N   0  0  0  0  0  0  0  0  0  0  0  0
  140.4350   72.0970  222.4010 C   0  0  0  0  0  0  0  0  0  0  0  0
  140.9960   71.4920  221.4250 O   0  0  0  0  0  0  0  0  0  0  0  0
  140.2520   71.3660  223.6630 C   0  0  0  0  0  0  0  0  0  0  0  0
  139.6180   70.1480  223.6780 C   0  0  0  0  0  0  0  0  0  0  0  0
  139.4220   69.4220  224.8390 C   0  0  0  0  0  0  0  0  0  0  0  0
  139.8940   69.9720  226.0110 C   0  0  0  0  0  0  0  0  0  0  0  0
  139.7050   69.2580  227.1770 C   0  0  0  0  0  0  0  0  0  0  0  0
  140.1910   69.8370  228.3470 C   0  0  0  0  0  0  0  0  0  0  0  0
  140.8230   71.0590  228.3000 C   0  0  0  0  0  0  0  0  0  0  0  0
  141.0110   71.7690  227.1410 C   0  0  0  0  0  0  0  0  0  0  0  0
  140.5280   71.1980  225.9700 C   0  0  0  0  0  0  0  0  0  0  0  0
  140.7090   71.8900  224.8290 N   0  0  0  0  0  0  0  0  0  0  0  0
  145.4656   73.4126  222.2724 H   0  0  0  0  0  0  0  0  0  0  0  0
  146.6912   72.5815  221.2556 H   0  0  0  0  0  0  0  0  0  0  0  0
  146.5910   74.3750  221.2556 H   0  0  0  0  0  0  0  0  0  0  0  0
  145.4371   73.6239  219.1702 H   0  0  0  0  0  0  0  0  0  0  0  0
  144.3274   71.6119  221.1496 H   0  0  0  0  0  0  0  0  0  0  0  0
  143.5013   71.9661  219.5943 H   0  0  0  0  0  0  0  0  0  0  0  0
  145.1786   71.3231  219.5943 H   0  0  0  0  0  0  0  0  0  0  0  0
  144.2948   74.9793  221.3420 H   0  0  0  0  0  0  0  0  0  0  0  0
  143.7882   74.9732  219.5712 H   0  0  0  0  0  0  0  0  0  0  0  0
  142.5700   72.8340  221.1230 H   0  0  0  0  0  0  0  0  0  0  0  0
  139.5343   75.1355  221.1780 H   0  0  0  0  0  0  0  0  0  0  0  0
  139.8290   73.5716  220.2532 H   0  0  0  0  0  0  0  0  0  0  0  0
  139.5320   73.8420  223.1640 H   0  0  0  0  0  0  0  0  0  0  0  0
  139.2510   69.7327  222.7278 H   0  0  0  0  0  0  0  0  0  0  0  0
  138.9114   68.4477  224.8272 H   0  0  0  0  0  0  0  0  0  0  0  0
  139.1970   68.2824  227.1821 H   0  0  0  0  0  0  0  0  0  0  0  0
  140.0697   69.3175  229.3090 H   0  0  0  0  0  0  0  0  0  0  0  0
  141.1969   71.4889  229.2410 H   0  0  0  0  0  0  0  0  0  0  0  0
  141.5200   72.7441  227.1390 H   0  0  0  0  0  0  0  0  0  0  0  0
  1  2  1  0
  2  3  1  0
  2  4  1  0
  4  5  1  0
  5  6  1  0
  6  7  2  0
  6  8  1  0
  8  9  1  0
  9 10  1  0
 10 11  2  0
 10 12  1  0
 12 13  2  0
 13 14  1  0
 14 15  2  0
 15 16  1  0
 16 17  2  0
 17 18  1  0
 18 19  2  0
 19 20  1  0
 20 21  2  0
 21 12  1  0
 20 15  1  0
  1 22  1  0
  1 23  1  0
  1 24  1  0
  2 25  1  0
  3 26  1  0
  3 27  1  0
  3 28  1  0
  4 29  1  0
  4 30  1  0
  5 31  1  0
  8 32  1  0
  8 33  1  0
  9 34  1  0
 13 35  1  0
 14 36  1  0
 16 37  1  0
 17 38  1  0
 18 39  1  0
 19 40  1  0
M  END
>  <smiles>  (26) 
CC(C)CNC(=O)CNC(=O)c1ccc2ccccc2n1

>  <score_type>  (26) 
oracle

>  <origin>  (26) 
autodockgpu

>  <m_score__min__energy>  (26) 
-7.5300000000000002

>  <m_primary>  (26) 
energy

>  <rmsd>  (26) 
3.5624911297553474

>  <m_score__min__rmsd>  (26) 
3.5624911297553474

>  <meeko>  (26) 
{"free_energy": -6.87, "intermolecular_energy": -8.36, "internal_energy": -1.58, "cluster_size": 36, "cluster_id": 2, "rank_in_cluster": 19}

>  <energy>  (26) 
-6.88

>  <cluster_rmsd>  (26) 
0.88

>  <cluster>  (26) 
2

$$$$

     RDKit          3D

 40 41  0  0  0  0  0  0  0  0999 V2000
  145.5770   73.0040  218.9270 C   0  0  0  0  0  0  0  0  0  0  0  0
  144.9400   73.2300  220.3070 C   0  0  0  0  0  0  0  0  0  0  0  0
  146.0260   73.7930  221.1950 C   0  0  0  0  0  0  0  0  0  0  0  0
  143.8340   74.2090  220.0880 C   0  0  0  0  0  0  0  0  0  0  0  0
  142.5110   73.7130  220.3520 N   0  0  0  0  0  0  0  0  0  0  0  0
  141.5120   74.5920  220.7930 C   0  0  0  0  0  0  0  0  0  0  0  0
  141.8490   75.8140  220.9420 O   0  0  0  0  0  0  0  0  0  0  0  0
  140.1200   74.2520  221.1020 C   0  0  0  0  0  0  0  0  0  0  0  0
  139.9290   73.4580  222.2940 N   0  0  0  0  0  0  0  0  0  0  0  0
  140.4910   72.1550  222.4550 C   0  0  0  0  0  0  0  0  0  0  0  0
  141.1970   71.6120  221.5380 O   0  0  0  0  0  0  0  0  0  0  0  0
  140.2640   71.4050  223.6980 C   0  0  0  0  0  0  0  0  0  0  0  0
  139.5860   70.2110  223.6780 C   0  0  0  0  0  0  0  0  0  0  0  0
  139.3470   69.4680  224.8200 C   0  0  0  0  0  0  0  0  0  0  0  0
  139.8230   69.9760  226.0100 C   0  0  0  0  0  0  0  0  0  0  0  0
  139.5910   69.2440  227.1570 C   0  0  0  0  0  0  0  0  0  0  0  0
  140.0810   69.7790  228.3460 C   0  0  0  0  0  0  0  0  0  0  0  0
  140.7580   70.9780  228.3340 C   0  0  0  0  0  0  0  0  0  0  0  0
  140.9880   71.7060  227.1940 C   0  0  0  0  0  0  0  0  0  0  0  0
  140.5010   71.1780  226.0040 C   0  0  0  0  0  0  0  0  0  0  0  0
  140.7230   71.8870  224.8810 N   0  0  0  0  0  0  0  0  0  0  0  0
  146.6068   72.6386  219.0539 H   0  0  0  0  0  0  0  0  0  0  0  0
  144.9898   72.2593  218.3696 H   0  0  0  0  0  0  0  0  0  0  0  0
  145.5904   73.9522  218.3696 H   0  0  0  0  0  0  0  0  0  0  0  0
  144.5357   72.3220  220.7783 H   0  0  0  0  0  0  0  0  0  0  0  0
  145.7485   73.6492  222.2497 H   0  0  0  0  0  0  0  0  0  0  0  0
  146.9732   73.2724  220.9908 H   0  0  0  0  0  0  0  0  0  0  0  0
  146.1465   74.8671  220.9908 H   0  0  0  0  0  0  0  0  0  0  0  0
  144.0102   75.0729  220.7457 H   0  0  0  0  0  0  0  0  0  0  0  0
  143.8566   74.4575  219.0167 H   0  0  0  0  0  0  0  0  0  0  0  0
  142.2800   72.7040  220.2310 H   0  0  0  0  0  0  0  0  0  0  0  0
  139.5601   75.1908  221.2255 H   0  0  0  0  0  0  0  0  0  0  0  0
  139.7643   73.6341  220.2643 H   0  0  0  0  0  0  0  0  0  0  0  0
  139.3560   73.8020  223.1230 H   0  0  0  0  0  0  0  0  0  0  0  0
  139.2178   69.8297  222.7141 H   0  0  0  0  0  0  0  0  0  0  0  0
  138.8012   68.5138  224.7805 H   0  0  0  0  0  0  0  0  0  0  0  0
  139.0475   68.2880  227.1333 H   0  0  0  0  0  0  0  0  0  0  0  0
  139.9271   69.2437  229.2946 H   0  0  0  0  0  0  0  0  0  0  0  0
  141.1344   71.3731  229.2891 H   0  0  0  0  0  0  0  0  0  0  0  0
  141.5318   72.6618  227.2205 H   0  0  0  0  0  0  0  0  0  0  0  0
  1  2  1  0
  2  3  1  0
  2  4  1  0
  4  5  1  0
  5  6  1  0
  6  7  2  0
  6  8  1  0
  8  9  1  0
  9 10  1  0
 10 11  2  0
 10 12  1  0
 12 13  2  0
 13 14  1  0
 14 15  2  0
 15 16  1  0
 16 17  2  0
 17 18  1  0
 18 19  2  0
 19 20  1  0
 20 21  2  0
 21 12  1  0
 20 15  1  0
  1 22  1  0
  1 23  1  0
  1 24  1  0
  2 25  1  0
  3 26  1  0
  3 27  1  0
  3 28  1  0
  4 29  1  0
  4 30  1  0
  5 31  1  0
  8 32  1  0
  8 33  1  0
  9 34  1  0
 13 35  1  0
 14 36  1  0
 16 37  1  0
 17 38  1  0
 18 39  1  0
 19 40  1  0
M  END
>  <smiles>  (27) 
CC(C)CNC(=O)CNC(=O)c1ccc2ccccc2n1

>  <score_type>  (27) 
oracle

>  <origin>  (27) 
autodockgpu

>  <m_score__min__energy>  (27) 
-7.5300000000000002

>  <m_primary>  (27) 
energy

>  <rmsd>  (27) 
3.5197380450316205

>  <m_score__min__rmsd>  (27) 
3.5197380450316205

>  <meeko>  (27) 
{"free_energy": -6.84, "intermolecular_energy": -8.34, "internal_energy": -1.48, "cluster_size": 36, "cluster_id": 2, "rank_in_cluster": 25}

>  <energy>  (27) 
-6.87

>  <cluster_rmsd>  (27) 
0.88

>  <cluster>  (27) 
2

$$$$

     RDKit          3D

 40 41  0  0  0  0  0  0  0  0999 V2000
  145.9550   73.4440  221.3100 C   0  0  0  0  0  0  0  0  0  0  0  0
  144.9640   73.3880  220.1380 C   0  0  0  0  0  0  0  0  0  0  0  0
  144.4260   71.9750  220.0980 C   0  0  0  0  0  0  0  0  0  0  0  0
  143.8980   74.3820  220.4580 C   0  0  0  0  0  0  0  0  0  0  0  0
  142.6210   73.8240  220.8120 N   0  0  0  0  0  0  0  0  0  0  0  0
  141.4750   74.6300  220.7810 C   0  0  0  0  0  0  0  0  0  0  0  0
  141.6400   75.8480  220.4350 O   0  0  0  0  0  0  0  0  0  0  0  0
  140.1060   74.2200  221.1070 C   0  0  0  0  0  0  0  0  0  0  0  0
  139.9670   73.4370  222.3140 N   0  0  0  0  0  0  0  0  0  0  0  0
  140.4110   72.0840  222.4140 C   0  0  0  0  0  0  0  0  0  0  0  0
  140.9550   71.4820  221.4260 O   0  0  0  0  0  0  0  0  0  0  0  0
  140.2470   71.3480  223.6750 C   0  0  0  0  0  0  0  0  0  0  0  0
  139.6320   70.1190  223.6900 C   0  0  0  0  0  0  0  0  0  0  0  0
  139.4540   69.3870  224.8510 C   0  0  0  0  0  0  0  0  0  0  0  0
  139.9230   69.9430  226.0220 C   0  0  0  0  0  0  0  0  0  0  0  0
  139.7510   69.2230  227.1870 C   0  0  0  0  0  0  0  0  0  0  0  0
  140.2320   69.8080  228.3560 C   0  0  0  0  0  0  0  0  0  0  0  0
  140.8440   71.0410  228.3080 C   0  0  0  0  0  0  0  0  0  0  0  0
  141.0150   71.7560  227.1500 C   0  0  0  0  0  0  0  0  0  0  0  0
  140.5350   71.1790  225.9800 C   0  0  0  0  0  0  0  0  0  0  0  0
  140.7000   71.8770  224.8400 N   0  0  0  0  0  0  0  0  0  0  0  0
  145.4014   73.4127  222.2600 H   0  0  0  0  0  0  0  0  0  0  0  0
  146.6373   72.5830  221.2547 H   0  0  0  0  0  0  0  0  0  0  0  0
  146.5360   74.3764  221.2547 H   0  0  0  0  0  0  0  0  0  0  0  0
  145.4019   73.6268  219.1576 H   0  0  0  0  0  0  0  0  0  0  0  0
  144.2858   71.6068  221.1250 H   0  0  0  0  0  0  0  0  0  0  0  0
  143.4611   71.9649  219.5699 H   0  0  0  0  0  0  0  0  0  0  0  0
  145.1398   71.3257  219.5699 H   0  0  0  0  0  0  0  0  0  0  0  0
  144.2470   74.9939  221.3029 H   0  0  0  0  0  0  0  0  0  0  0  0
  143.7323   74.9567  219.5348 H   0  0  0  0  0  0  0  0  0  0  0  0
  142.5310   72.8280  221.1040 H   0  0  0  0  0  0  0  0  0  0  0  0
  139.4966   75.1289  221.2193 H   0  0  0  0  0  0  0  0  0  0  0  0
  139.7787   73.5693  220.2827 H   0  0  0  0  0  0  0  0  0  0  0  0
  139.5250   73.8280  223.1990 H   0  0  0  0  0  0  0  0  0  0  0  0
  139.2665   69.7002  222.7408 H   0  0  0  0  0  0  0  0  0  0  0  0
  138.9598   68.4043  224.8398 H   0  0  0  0  0  0  0  0  0  0  0  0
  139.2598   68.2388  227.1920 H   0  0  0  0  0  0  0  0  0  0  0  0
  140.1231   69.2852  229.3177 H   0  0  0  0  0  0  0  0  0  0  0  0
  141.2152   71.4753  229.2480 H   0  0  0  0  0  0  0  0  0  0  0  0
  141.5084   72.7391  227.1473 H   0  0  0  0  0  0  0  0  0  0  0  0
  1  2  1  0
  2  3  1  0
  2  4  1  0
  4  5  1  0
  5  6  1  0
  6  7  2  0
  6  8  1  0
  8  9  1  0
  9 10  1  0
 10 11  2  0
 10 12  1  0
 12 13  2  0
 13 14  1  0
 14 15  2  0
 15 16  1  0
 16 17  2  0
 17 18  1  0
 18 19  2  0
 19 20  1  0
 20 21  2  0
 21 12  1  0
 20 15  1  0
  1 22  1  0
  1 23  1  0
  1 24  1  0
  2 25  1  0
  3 26  1  0
  3 27  1  0
  3 28  1  0
  4 29  1  0
  4 30  1  0
  5 31  1  0
  8 32  1  0
  8 33  1  0
  9 34  1  0
 13 35  1  0
 14 36  1  0
 16 37  1  0
 17 38  1  0
 18 39  1  0
 19 40  1  0
M  END
>  <smiles>  (28) 
CC(C)CNC(=O)CNC(=O)c1ccc2ccccc2n1

>  <score_type>  (28) 
oracle

>  <origin>  (28) 
autodockgpu

>  <m_score__min__energy>  (28) 
-7.5300000000000002

>  <m_primary>  (28) 
energy

>  <rmsd>  (28) 
3.533118716000735

>  <m_score__min__rmsd>  (28) 
3.533118716000735

>  <meeko>  (28) 
{"free_energy": -6.87, "intermolecular_energy": -8.36, "internal_energy": -1.59, "cluster_size": 36, "cluster_id": 2, "rank_in_cluster": 20}

>  <energy>  (28) 
-6.87

>  <cluster_rmsd>  (28) 
0.88

>  <cluster>  (28) 
2

$$$$

     RDKit          3D

 40 41  0  0  0  0  0  0  0  0999 V2000
  138.5540   78.1260  222.7550 C   0  0  0  0  0  0  0  0  0  0  0  0
  138.9390   76.9700  221.8190 C   0  0  0  0  0  0  0  0  0  0  0  0
  140.3120   76.5070  222.2500 C   0  0  0  0  0  0  0  0  0  0  0  0
  137.9030   75.9150  222.0290 C   0  0  0  0  0  0  0  0  0  0  0  0
  138.3920   74.5630  222.0320 N   0  0  0  0  0  0  0  0  0  0  0  0
  138.3340   73.7990  220.8570 C   0  0  0  0  0  0  0  0  0  0  0  0
  137.8330   74.3660  219.8290 O   0  0  0  0  0  0  0  0  0  0  0  0
  138.7900   72.4160  220.6890 C   0  0  0  0  0  0  0  0  0  0  0  0
  139.0390   71.6950  221.9170 N   0  0  0  0  0  0  0  0  0  0  0  0
  139.9960   72.1240  222.8860 C   0  0  0  0  0  0  0  0  0  0  0  0
  140.6970   73.1790  222.7150 O   0  0  0  0  0  0  0  0  0  0  0  0
  140.1930   71.3480  224.1180 C   0  0  0  0  0  0  0  0  0  0  0  0
  140.8710   71.8890  225.1820 C   0  0  0  0  0  0  0  0  0  0  0  0
  141.0830   71.2000  226.3630 C   0  0  0  0  0  0  0  0  0  0  0  0
  140.5800   69.9190  226.4400 C   0  0  0  0  0  0  0  0  0  0  0  0
  140.7850   69.2190  227.6120 C   0  0  0  0  0  0  0  0  0  0  0  0
  140.2670   67.9270  227.6640 C   0  0  0  0  0  0  0  0  0  0  0  0
  139.5920   67.4120  226.5800 C   0  0  0  0  0  0  0  0  0  0  0  0
  139.3880   68.1070  225.4150 C   0  0  0  0  0  0  0  0  0  0  0  0
  139.9030   69.3960  225.3570 C   0  0  0  0  0  0  0  0  0  0  0  0
  139.7070   70.0840  224.2150 N   0  0  0  0  0  0  0  0  0  0  0  0
  138.6618   77.8024  223.8008 H   0  0  0  0  0  0  0  0  0  0  0  0
  139.2144   78.9854  222.5672 H   0  0  0  0  0  0  0  0  0  0  0  0
  137.5102   78.4178  222.5672 H   0  0  0  0  0  0  0  0  0  0  0  0
  138.9761   77.2382  220.7528 H   0  0  0  0  0  0  0  0  0  0  0  0
  140.3648   76.4892  223.3486 H   0  0  0  0  0  0  0  0  0  0  0  0
  140.4981   75.4964  221.8575 H   0  0  0  0  0  0  0  0  0  0  0  0
  141.0721   77.1985  221.8575 H   0  0  0  0  0  0  0  0  0  0  0  0
  137.4188   76.1030  222.9987 H   0  0  0  0  0  0  0  0  0  0  0  0
  137.2179   75.9878  221.1715 H   0  0  0  0  0  0  0  0  0  0  0  0
  138.7810   74.1330  222.8970 H   0  0  0  0  0  0  0  0  0  0  0  0
  138.0196   71.8702  220.1245 H   0  0  0  0  0  0  0  0  0  0  0  0
  139.7576   72.4754  220.1691 H   0  0  0  0  0  0  0  0  0  0  0  0
  138.5210   70.8000  222.1680 H   0  0  0  0  0  0  0  0  0  0  0  0
  141.2621   72.9132  225.0919 H   0  0  0  0  0  0  0  0  0  0  0  0
  141.6287   71.6543  227.2031 H   0  0  0  0  0  0  0  0  0  0  0  0
  141.3292   69.6587  228.4608 H   0  0  0  0  0  0  0  0  0  0  0  0
  140.3972   67.3182  228.5709 H   0  0  0  0  0  0  0  0  0  0  0  0
  139.1951   66.3886  226.6520 H   0  0  0  0  0  0  0  0  0  0  0  0
  138.8431   67.6651  224.5678 H   0  0  0  0  0  0  0  0  0  0  0  0
  1  2  1  0
  2  3  1  0
  2  4  1  0
  4  5  1  0
  5  6  1  0
  6  7  2  0
  6  8  1  0
  8  9  1  0
  9 10  1  0
 10 11  2  0
 10 12  1  0
 12 13  2  0
 13 14  1  0
 14 15  2  0
 15 16  1  0
 16 17  2  0
 17 18  1  0
 18 19  2  0
 19 20  1  0
 20 21  2  0
 21 12  1  0
 20 15  1  0
  1 22  1  0
  1 23  1  0
  1 24  1  0
  2 25  1  0
  3 26  1  0
  3 27  1  0
  3 28  1  0
  4 29  1  0
  4 30  1  0
  5 31  1  0
  8 32  1  0
  8 33  1  0
  9 34  1  0
 13 35  1  0
 14 36  1  0
 16 37  1  0
 17 38  1  0
 18 39  1  0
 19 40  1  0
M  END
>  <smiles>  (29) 
CC(C)CNC(=O)CNC(=O)c1ccc2ccccc2n1

>  <score_type>  (29) 
oracle

>  <origin>  (29) 
autodockgpu

>  <m_score__min__energy>  (29) 
-7.5300000000000002

>  <m_primary>  (29) 
energy

>  <rmsd>  (29) 
3.689087894850136

>  <m_score__min__rmsd>  (29) 
3.689087894850136

>  <meeko>  (29) 
{"free_energy": -6.12, "intermolecular_energy": -7.61, "internal_energy": -1.82, "cluster_size": 8, "cluster_id": 1, "rank_in_cluster": 8}

>  <energy>  (29) 
-6.86

>  <cluster_rmsd>  (29) 
0.92

>  <cluster>  (29) 
2

$$$$

     RDKit          3D

 40 41  0  0  0  0  0  0  0  0999 V2000
  145.5490   72.9800  219.0610 C   0  0  0  0  0  0  0  0  0  0  0  0
  145.0820   73.1940  220.5080 C   0  0  0  0  0  0  0  0  0  0  0  0
  146.2750   73.7230  221.2710 C   0  0  0  0  0  0  0  0  0  0  0  0
  143.9770   74.1950  220.4350 C   0  0  0  0  0  0  0  0  0  0  0  0
  142.6650   73.6860  220.7290 N   0  0  0  0  0  0  0  0  0  0  0  0
  141.5770   74.5670  220.8040 C   0  0  0  0  0  0  0  0  0  0  0  0
  141.8260   75.8040  220.6050 O   0  0  0  0  0  0  0  0  0  0  0  0
  140.1830   74.2160  221.0900 C   0  0  0  0  0  0  0  0  0  0  0  0
  139.9770   73.4290  222.2840 N   0  0  0  0  0  0  0  0  0  0  0  0
  140.4980   72.1080  222.4410 C   0  0  0  0  0  0  0  0  0  0  0  0
  141.1760   71.5410  221.5170 O   0  0  0  0  0  0  0  0  0  0  0  0
  140.2590   71.3660  223.6860 C   0  0  0  0  0  0  0  0  0  0  0  0
  139.5810   70.1710  223.6670 C   0  0  0  0  0  0  0  0  0  0  0  0
  139.3310   69.4350  224.8110 C   0  0  0  0  0  0  0  0  0  0  0  0
  139.7940   69.9520  226.0030 C   0  0  0  0  0  0  0  0  0  0  0  0
  139.5500   69.2270  227.1530 C   0  0  0  0  0  0  0  0  0  0  0  0
  140.0270   69.7720  228.3430 C   0  0  0  0  0  0  0  0  0  0  0  0
  140.7030   70.9710  228.3300 C   0  0  0  0  0  0  0  0  0  0  0  0
  140.9450   71.6910  227.1870 C   0  0  0  0  0  0  0  0  0  0  0  0
  140.4700   71.1540  225.9960 C   0  0  0  0  0  0  0  0  0  0  0  0
  140.7040   71.8560  224.8710 N   0  0  0  0  0  0  0  0  0  0  0  0
  146.5490   72.5218  219.0624 H   0  0  0  0  0  0  0  0  0  0  0  0
  144.8421   72.3160  218.5420 H   0  0  0  0  0  0  0  0  0  0  0  0
  145.5904   73.9490  218.5420 H   0  0  0  0  0  0  0  0  0  0  0  0
  144.7179   72.2853  221.0097 H   0  0  0  0  0  0  0  0  0  0  0  0
  146.0858   73.6391  222.3514 H   0  0  0  0  0  0  0  0  0  0  0  0
  147.1677   73.1364  221.0084 H   0  0  0  0  0  0  0  0  0  0  0  0
  146.4395   74.7784  221.0084 H   0  0  0  0  0  0  0  0  0  0  0  0
  144.1984   74.9982  221.1532 H   0  0  0  0  0  0  0  0  0  0  0  0
  143.9436   74.5347  219.3893 H   0  0  0  0  0  0  0  0  0  0  0  0
  142.5060   72.6710  220.9000 H   0  0  0  0  0  0  0  0  0  0  0  0
  139.6122   75.1503  221.1961 H   0  0  0  0  0  0  0  0  0  0  0  0
  139.8490   73.5884  220.2506 H   0  0  0  0  0  0  0  0  0  0  0  0
  139.4250   73.7910  223.1180 H   0  0  0  0  0  0  0  0  0  0  0  0
  139.2222   69.7837  222.7020 H   0  0  0  0  0  0  0  0  0  0  0  0
  138.7870   68.4797  224.7720 H   0  0  0  0  0  0  0  0  0  0  0  0
  139.0079   68.2701  227.1304 H   0  0  0  0  0  0  0  0  0  0  0  0
  139.8633   69.2437  229.2939 H   0  0  0  0  0  0  0  0  0  0  0  0
  141.0686   71.3733  229.2863 H   0  0  0  0  0  0  0  0  0  0  0  0
  141.4886   72.6469  227.2121 H   0  0  0  0  0  0  0  0  0  0  0  0
  1  2  1  0
  2  3  1  0
  2  4  1  0
  4  5  1  0
  5  6  1  0
  6  7  2  0
  6  8  1  0
  8  9  1  0
  9 10  1  0
 10 11  2  0
 10 12  1  0
 12 13  2  0
 13 14  1  0
 14 15  2  0
 15 16  1  0
 16 17  2  0
 17 18  1  0
 18 19  2  0
 19 20  1  0
 20 21  2  0
 21 12  1  0
 20 15  1  0
  1 22  1  0
  1 23  1  0
  1 24  1  0
  2 25  1  0
  3 26  1  0
  3 27  1  0
  3 28  1  0
  4 29  1  0
  4 30  1  0
  5 31  1  0
  8 32  1  0
  8 33  1  0
  9 34  1  0
 13 35  1  0
 14 36  1  0
 16 37  1  0
 17 38  1  0
 18 39  1  0
 19 40  1  0
M  END
>  <smiles>  (30) 
CC(C)CNC(=O)CNC(=O)c1ccc2ccccc2n1

>  <score_type>  (30) 
oracle

>  <origin>  (30) 
autodockgpu

>  <m_score__min__energy>  (30) 
-7.5300000000000002

>  <m_primary>  (30) 
energy

>  <rmsd>  (30) 
3.5968763605742464

>  <m_score__min__rmsd>  (30) 
3.5968763605742464

>  <meeko>  (30) 
{"free_energy": -6.92, "intermolecular_energy": -8.41, "internal_energy": -1.49, "cluster_size": 36, "cluster_id": 2, "rank_in_cluster": 5}

>  <energy>  (30) 
-6.85

>  <cluster_rmsd>  (30) 
0.87

>  <cluster>  (30) 
2

$$$$

     RDKit          3D

 40 41  0  0  0  0  0  0  0  0999 V2000
  146.0010   73.3970  221.4080 C   0  0  0  0  0  0  0  0  0  0  0  0
  145.1030   73.3940  220.1620 C   0  0  0  0  0  0  0  0  0  0  0  0
  144.5730   71.9860  220.0180 C   0  0  0  0  0  0  0  0  0  0  0  0
  144.0140   74.3740  220.4450 C   0  0  0  0  0  0  0  0  0  0  0  0
  142.7180   73.8010  220.6930 N   0  0  0  0  0  0  0  0  0  0  0  0
  141.6000   74.6370  220.8240 C   0  0  0  0  0  0  0  0  0  0  0  0
  141.8070   75.8920  220.7160 O   0  0  0  0  0  0  0  0  0  0  0  0
  140.2180   74.2180  221.0720 C   0  0  0  0  0  0  0  0  0  0  0  0
  140.0160   73.4410  222.2750 N   0  0  0  0  0  0  0  0  0  0  0  0
  140.4790   72.0970  222.4150 C   0  0  0  0  0  0  0  0  0  0  0  0
  141.0990   71.5000  221.4700 O   0  0  0  0  0  0  0  0  0  0  0  0
  140.2470   71.3670  223.6690 C   0  0  0  0  0  0  0  0  0  0  0  0
  139.5990   70.1560  223.6610 C   0  0  0  0  0  0  0  0  0  0  0  0
  139.3570   69.4310  224.8140 C   0  0  0  0  0  0  0  0  0  0  0  0
  139.7970   69.9750  226.0020 C   0  0  0  0  0  0  0  0  0  0  0  0
  139.5610   69.2610  227.1590 C   0  0  0  0  0  0  0  0  0  0  0  0
  140.0140   69.8330  228.3460 C   0  0  0  0  0  0  0  0  0  0  0  0
  140.6610   71.0480  228.3210 C   0  0  0  0  0  0  0  0  0  0  0  0
  140.8950   71.7580  227.1710 C   0  0  0  0  0  0  0  0  0  0  0  0
  140.4440   71.1930  225.9840 C   0  0  0  0  0  0  0  0  0  0  0  0
  140.6710   71.8850  224.8500 N   0  0  0  0  0  0  0  0  0  0  0  0
  145.3740   73.3949  222.3118 H   0  0  0  0  0  0  0  0  0  0  0  0
  146.6391   72.5010  221.4023 H   0  0  0  0  0  0  0  0  0  0  0  0
  146.6331   74.2973  221.4023 H   0  0  0  0  0  0  0  0  0  0  0  0
  145.6137   73.6751  219.2292 H   0  0  0  0  0  0  0  0  0  0  0  0
  144.4096   71.5519  221.0154 H   0  0  0  0  0  0  0  0  0  0  0  0
  143.6213   72.0070  219.4669 H   0  0  0  0  0  0  0  0  0  0  0  0
  145.3024   71.3742  219.4669 H   0  0  0  0  0  0  0  0  0  0  0  0
  144.3033   74.9560  221.3325 H   0  0  0  0  0  0  0  0  0  0  0  0
  143.9079   74.9811  219.5338 H   0  0  0  0  0  0  0  0  0  0  0  0
  142.5940   72.7720  220.7880 H   0  0  0  0  0  0  0  0  0  0  0  0
  139.5958   75.1224  221.1427 H   0  0  0  0  0  0  0  0  0  0  0  0
  139.9438   73.5600  220.2343 H   0  0  0  0  0  0  0  0  0  0  0  0
  139.5090   73.8290  223.1260 H   0  0  0  0  0  0  0  0  0  0  0  0
  139.2587   69.7460  222.6987 H   0  0  0  0  0  0  0  0  0  0  0  0
  138.8362   68.4626  224.7843 H   0  0  0  0  0  0  0  0  0  0  0  0
  139.0424   68.2910  227.1449 H   0  0  0  0  0  0  0  0  0  0  0  0
  139.8548   69.3140  229.3027 H   0  0  0  0  0  0  0  0  0  0  0  0
  141.0089   71.4721  229.2744 H   0  0  0  0  0  0  0  0  0  0  0  0
  141.4144   72.7275  227.1874 H   0  0  0  0  0  0  0  0  0  0  0  0
  1  2  1  0
  2  3  1  0
  2  4  1  0
  4  5  1  0
  5  6  1  0
  6  7  2  0
  6  8  1  0
  8  9  1  0
  9 10  1  0
 10 11  2  0
 10 12  1  0
 12 13  2  0
 13 14  1  0
 14 15  2  0
 15 16  1  0
 16 17  2  0
 17 18  1  0
 18 19  2  0
 19 20  1  0
 20 21  2  0
 21 12  1  0
 20 15  1  0
  1 22  1  0
  1 23  1  0
  1 24  1  0
  2 25  1  0
  3 26  1  0
  3 27  1  0
  3 28  1  0
  4 29  1  0
  4 30  1  0
  5 31  1  0
  8 32  1  0
  8 33  1  0
  9 34  1  0
 13 35  1  0
 14 36  1  0
 16 37  1  0
 17 38  1  0
 18 39  1  0
 19 40  1  0
M  END
>  <smiles>  (31) 
CC(C)CNC(=O)CNC(=O)c1ccc2ccccc2n1

>  <score_type>  (31) 
oracle

>  <origin>  (31) 
autodockgpu

>  <m_score__min__energy>  (31) 
-7.5300000000000002

>  <m_primary>  (31) 
energy

>  <rmsd>  (31) 
3.5945369292772207

>  <m_score__min__rmsd>  (31) 
3.5945369292772207

>  <meeko>  (31) 
{"free_energy": -6.91, "intermolecular_energy": -8.41, "internal_energy": -1.56, "cluster_size": 36, "cluster_id": 2, "rank_in_cluster": 8}

>  <energy>  (31) 
-6.85

>  <cluster_rmsd>  (31) 
0.87

>  <cluster>  (31) 
2

$$$$

     RDKit          3D

 40 41  0  0  0  0  0  0  0  0999 V2000
  145.9560   73.6740  221.2040 C   0  0  0  0  0  0  0  0  0  0  0  0
  144.9380   73.5320  220.0630 C   0  0  0  0  0  0  0  0  0  0  0  0
  144.4690   72.0950  220.0820 C   0  0  0  0  0  0  0  0  0  0  0  0
  143.8340   74.4840  220.3830 C   0  0  0  0  0  0  0  0  0  0  0  0
  142.5470   73.8820  220.6050 N   0  0  0  0  0  0  0  0  0  0  0  0
  141.4310   74.6940  220.8540 C   0  0  0  0  0  0  0  0  0  0  0  0
  141.6330   75.9540  220.8740 O   0  0  0  0  0  0  0  0  0  0  0  0
  140.0570   74.2440  221.0960 C   0  0  0  0  0  0  0  0  0  0  0  0
  139.8700   73.4450  222.2860 N   0  0  0  0  0  0  0  0  0  0  0  0
  140.4740   72.1630  222.4600 C   0  0  0  0  0  0  0  0  0  0  0  0
  141.2170   71.6440  221.5580 O   0  0  0  0  0  0  0  0  0  0  0  0
  140.2490   71.4060  223.6990 C   0  0  0  0  0  0  0  0  0  0  0  0
  139.5650   70.2150  223.6740 C   0  0  0  0  0  0  0  0  0  0  0  0
  139.3270   69.4660  224.8120 C   0  0  0  0  0  0  0  0  0  0  0  0
  139.8090   69.9640  226.0030 C   0  0  0  0  0  0  0  0  0  0  0  0
  139.5780   69.2260  227.1470 C   0  0  0  0  0  0  0  0  0  0  0  0
  140.0760   69.7520  228.3370 C   0  0  0  0  0  0  0  0  0  0  0  0
  140.7570   70.9480  228.3300 C   0  0  0  0  0  0  0  0  0  0  0  0
  140.9870   71.6820  227.1940 C   0  0  0  0  0  0  0  0  0  0  0  0
  140.4930   71.1630  226.0020 C   0  0  0  0  0  0  0  0  0  0  0  0
  140.7140   71.8780  224.8830 N   0  0  0  0  0  0  0  0  0  0  0  0
  145.4359   73.6015  222.1706 H   0  0  0  0  0  0  0  0  0  0  0  0
  146.7047   72.8716  221.1294 H   0  0  0  0  0  0  0  0  0  0  0  0
  146.4565   74.6507  221.1294 H   0  0  0  0  0  0  0  0  0  0  0  0
  145.3369   73.7590  219.0633 H   0  0  0  0  0  0  0  0  0  0  0  0
  144.3593   71.7589  221.1236 H   0  0  0  0  0  0  0  0  0  0  0  0
  143.4994   72.0189  219.5681 H   0  0  0  0  0  0  0  0  0  0  0  0
  145.2070   71.4616  219.5681 H   0  0  0  0  0  0  0  0  0  0  0  0
  144.1132   75.0341  221.2937 H   0  0  0  0  0  0  0  0  0  0  0  0
  143.7202   75.1259  219.4970 H   0  0  0  0  0  0  0  0  0  0  0  0
  142.4270   72.8470  220.5950 H   0  0  0  0  0  0  0  0  0  0  0  0
  139.4174   75.1349  221.1807 H   0  0  0  0  0  0  0  0  0  0  0  0
  139.7959   73.5935  220.2483 H   0  0  0  0  0  0  0  0  0  0  0  0
  139.2690   73.7680  223.1020 H   0  0  0  0  0  0  0  0  0  0  0  0
  139.1912   69.8416  222.7092 H   0  0  0  0  0  0  0  0  0  0  0  0
  138.7770   68.5144  224.7683 H   0  0  0  0  0  0  0  0  0  0  0  0
  139.0296   68.2728  227.1201 H   0  0  0  0  0  0  0  0  0  0  0  0
  139.9248   69.2111  229.2828 H   0  0  0  0  0  0  0  0  0  0  0  0
  141.1372   71.3361  229.2864 H   0  0  0  0  0  0  0  0  0  0  0  0
  141.5356   72.6349  227.2245 H   0  0  0  0  0  0  0  0  0  0  0  0
  1  2  1  0
  2  3  1  0
  2  4  1  0
  4  5  1  0
  5  6  1  0
  6  7  2  0
  6  8  1  0
  8  9  1  0
  9 10  1  0
 10 11  2  0
 10 12  1  0
 12 13  2  0
 13 14  1  0
 14 15  2  0
 15 16  1  0
 16 17  2  0
 17 18  1  0
 18 19  2  0
 19 20  1  0
 20 21  2  0
 21 12  1  0
 20 15  1  0
  1 22  1  0
  1 23  1  0
  1 24  1  0
  2 25  1  0
  3 26  1  0
  3 27  1  0
  3 28  1  0
  4 29  1  0
  4 30  1  0
  5 31  1  0
  8 32  1  0
  8 33  1  0
  9 34  1  0
 13 35  1  0
 14 36  1  0
 16 37  1  0
 17 38  1  0
 18 39  1  0
 19 40  1  0
M  END
>  <smiles>  (32) 
CC(C)CNC(=O)CNC(=O)c1ccc2ccccc2n1

>  <score_type>  (32) 
oracle

>  <origin>  (32) 
autodockgpu

>  <m_score__min__energy>  (32) 
-7.5300000000000002

>  <m_primary>  (32) 
energy

>  <rmsd>  (32) 
3.475867326334701

>  <m_score__min__rmsd>  (32) 
3.475867326334701

>  <meeko>  (32) 
{"free_energy": -6.93, "intermolecular_energy": -8.43, "internal_energy": -1.51, "cluster_size": 36, "cluster_id": 2, "rank_in_cluster": 4}

>  <energy>  (32) 
-6.85

>  <cluster_rmsd>  (32) 
0.86

>  <cluster>  (32) 
2

$$$$

     RDKit          3D

 40 41  0  0  0  0  0  0  0  0999 V2000
  146.0340   73.4050  221.3740 C   0  0  0  0  0  0  0  0  0  0  0  0
  145.0910   73.3890  220.1620 C   0  0  0  0  0  0  0  0  0  0  0  0
  144.5550   71.9790  220.0530 C   0  0  0  0  0  0  0  0  0  0  0  0
  144.0130   74.3730  220.4720 C   0  0  0  0  0  0  0  0  0  0  0  0
  142.7250   73.8050  220.7620 N   0  0  0  0  0  0  0  0  0  0  0  0
  141.5900   74.6280  220.7910 C   0  0  0  0  0  0  0  0  0  0  0  0
  141.7760   75.8690  220.5550 O   0  0  0  0  0  0  0  0  0  0  0  0
  140.2120   74.2110  221.0650 C   0  0  0  0  0  0  0  0  0  0  0  0
  140.0310   73.4360  222.2710 N   0  0  0  0  0  0  0  0  0  0  0  0
  140.4940   72.0920  222.4050 C   0  0  0  0  0  0  0  0  0  0  0  0
  141.0960   71.4930  221.4490 O   0  0  0  0  0  0  0  0  0  0  0  0
  140.2840   71.3630  223.6630 C   0  0  0  0  0  0  0  0  0  0  0  0
  139.6220   70.1600  223.6700 C   0  0  0  0  0  0  0  0  0  0  0  0
  139.4000   69.4350  224.8270 C   0  0  0  0  0  0  0  0  0  0  0  0
  139.8740   69.9730  226.0050 C   0  0  0  0  0  0  0  0  0  0  0  0
  139.6580   69.2600  227.1670 C   0  0  0  0  0  0  0  0  0  0  0  0
  140.1460   69.8260  228.3430 C   0  0  0  0  0  0  0  0  0  0  0  0
  140.8060   71.0340  228.3040 C   0  0  0  0  0  0  0  0  0  0  0  0
  141.0210   71.7420  227.1490 C   0  0  0  0  0  0  0  0  0  0  0  0
  140.5350   71.1840  225.9720 C   0  0  0  0  0  0  0  0  0  0  0  0
  140.7420   71.8740  224.8340 N   0  0  0  0  0  0  0  0  0  0  0  0
  145.4408   73.3949  222.3003 H   0  0  0  0  0  0  0  0  0  0  0  0
  146.6836   72.5177  221.3449 H   0  0  0  0  0  0  0  0  0  0  0  0
  146.6531   74.3138  221.3449 H   0  0  0  0  0  0  0  0  0  0  0  0
  145.5682   73.6595  219.2085 H   0  0  0  0  0  0  0  0  0  0  0  0
  144.3985   71.5673  221.0610 H   0  0  0  0  0  0  0  0  0  0  0  0
  143.5988   71.9912  219.5094 H   0  0  0  0  0  0  0  0  0  0  0  0
  145.2779   71.3529  219.5094 H   0  0  0  0  0  0  0  0  0  0  0  0
  144.3301   74.9595  221.3469 H   0  0  0  0  0  0  0  0  0  0  0  0
  143.8807   74.9749  219.5609 H   0  0  0  0  0  0  0  0  0  0  0  0
  142.6170   72.7890  220.9640 H   0  0  0  0  0  0  0  0  0  0  0  0
  139.5925   75.1163  221.1463 H   0  0  0  0  0  0  0  0  0  0  0  0
  139.9217   73.5525  220.2331 H   0  0  0  0  0  0  0  0  0  0  0  0
  139.5400   73.8250  223.1310 H   0  0  0  0  0  0  0  0  0  0  0  0
  139.2528   69.7560  222.7158 H   0  0  0  0  0  0  0  0  0  0  0  0
  138.8689   68.4719  224.8082 H   0  0  0  0  0  0  0  0  0  0  0  0
  139.1285   68.2958  227.1647 H   0  0  0  0  0  0  0  0  0  0  0  0
  140.0040   69.3078  229.3028 H   0  0  0  0  0  0  0  0  0  0  0  0
  141.1807   71.4535  229.2493 H   0  0  0  0  0  0  0  0  0  0  0  0
  141.5524   72.7051  227.1538 H   0  0  0  0  0  0  0  0  0  0  0  0
  1  2  1  0
  2  3  1  0
  2  4  1  0
  4  5  1  0
  5  6  1  0
  6  7  2  0
  6  8  1  0
  8  9  1  0
  9 10  1  0
 10 11  2  0
 10 12  1  0
 12 13  2  0
 13 14  1  0
 14 15  2  0
 15 16  1  0
 16 17  2  0
 17 18  1  0
 18 19  2  0
 19 20  1  0
 20 21  2  0
 21 12  1  0
 20 15  1  0
  1 22  1  0
  1 23  1  0
  1 24  1  0
  2 25  1  0
  3 26  1  0
  3 27  1  0
  3 28  1  0
  4 29  1  0
  4 30  1  0
  5 31  1  0
  8 32  1  0
  8 33  1  0
  9 34  1  0
 13 35  1  0
 14 36  1  0
 16 37  1  0
 17 38  1  0
 18 39  1  0
 19 40  1  0
M  END
>  <smiles>  (33) 
CC(C)CNC(=O)CNC(=O)c1ccc2ccccc2n1

>  <score_type>  (33) 
oracle

>  <origin>  (33) 
autodockgpu

>  <m_score__min__energy>  (33) 
-7.5300000000000002

>  <m_primary>  (33) 
energy

>  <rmsd>  (33) 
3.5973702102944323

>  <m_score__min__rmsd>  (33) 
3.5973702102944323

>  <meeko>  (33) 
{"free_energy": -6.9, "intermolecular_energy": -8.39, "internal_energy": -1.56, "cluster_size": 36, "cluster_id": 2, "rank_in_cluster": 9}

>  <energy>  (33) 
-6.84

>  <cluster_rmsd>  (33) 
0.95

>  <cluster>  (33) 
2

$$$$

     RDKit          3D

 40 41  0  0  0  0  0  0  0  0999 V2000
  145.6440   73.8450  220.8220 C   0  0  0  0  0  0  0  0  0  0  0  0
  144.6130   73.2170  219.8720 C   0  0  0  0  0  0  0  0  0  0  0  0
  144.1260   71.9520  220.5400 C   0  0  0  0  0  0  0  0  0  0  0  0
  143.5240   74.2280  219.7290 C   0  0  0  0  0  0  0  0  0  0  0  0
  142.2030   73.7580  220.0470 N   0  0  0  0  0  0  0  0  0  0  0  0
  141.3030   74.6040  220.7100 C   0  0  0  0  0  0  0  0  0  0  0  0
  141.7250   75.7730  221.0040 O   0  0  0  0  0  0  0  0  0  0  0  0
  139.9270   74.2860  221.1020 C   0  0  0  0  0  0  0  0  0  0  0  0
  139.7970   73.4690  222.2880 N   0  0  0  0  0  0  0  0  0  0  0  0
  140.3870   72.1740  222.4040 C   0  0  0  0  0  0  0  0  0  0  0  0
  141.0650   71.6590  221.4520 O   0  0  0  0  0  0  0  0  0  0  0  0
  140.2230   71.4000  223.6430 C   0  0  0  0  0  0  0  0  0  0  0  0
  139.5990   70.1770  223.6220 C   0  0  0  0  0  0  0  0  0  0  0  0
  139.4200   69.4100  224.7600 C   0  0  0  0  0  0  0  0  0  0  0  0
  139.8980   69.9260  225.9460 C   0  0  0  0  0  0  0  0  0  0  0  0
  139.7250   69.1710  227.0880 C   0  0  0  0  0  0  0  0  0  0  0  0
  140.2170   69.7150  228.2730 C   0  0  0  0  0  0  0  0  0  0  0  0
  140.8380   70.9440  228.2610 C   0  0  0  0  0  0  0  0  0  0  0  0
  141.0090   71.6940  227.1250 C   0  0  0  0  0  0  0  0  0  0  0  0
  140.5200   71.1570  225.9400 C   0  0  0  0  0  0  0  0  0  0  0  0
  140.6850   71.8890  224.8210 N   0  0  0  0  0  0  0  0  0  0  0  0
  145.3423   73.6612  221.8638 H   0  0  0  0  0  0  0  0  0  0  0  0
  146.6312   73.3947  220.6413 H   0  0  0  0  0  0  0  0  0  0  0  0
  145.6967   74.9288  220.6413 H   0  0  0  0  0  0  0  0  0  0  0  0
  145.0056   72.9602  218.8770 H   0  0  0  0  0  0  0  0  0  0  0  0
  144.1725   72.0729  221.6323 H   0  0  0  0  0  0  0  0  0  0  0  0
  143.0873   71.7538  220.2369 H   0  0  0  0  0  0  0  0  0  0  0  0
  144.7637   71.1085  220.2369 H   0  0  0  0  0  0  0  0  0  0  0  0
  143.7541   75.0718  220.3961 H   0  0  0  0  0  0  0  0  0  0  0  0
  143.5011   74.5014  218.6638 H   0  0  0  0  0  0  0  0  0  0  0  0
  141.9010   72.7920  219.8020 H   0  0  0  0  0  0  0  0  0  0  0  0
  139.3970   75.2330  221.2816 H   0  0  0  0  0  0  0  0  0  0  0  0
  139.5038   73.6947  220.2766 H   0  0  0  0  0  0  0  0  0  0  0  0
  139.2510   73.7890  223.1440 H   0  0  0  0  0  0  0  0  0  0  0  0
  139.2263   69.7912  222.6617 H   0  0  0  0  0  0  0  0  0  0  0  0
  138.9185   68.4318  224.7201 H   0  0  0  0  0  0  0  0  0  0  0  0
  139.2251   68.1914  227.0643 H   0  0  0  0  0  0  0  0  0  0  0  0
  140.1092   69.1625  229.2181 H   0  0  0  0  0  0  0  0  0  0  0  0
  141.2169   71.3456  229.2124 H   0  0  0  0  0  0  0  0  0  0  0  0
  141.5091   72.6734  227.1508 H   0  0  0  0  0  0  0  0  0  0  0  0
  1  2  1  0
  2  3  1  0
  2  4  1  0
  4  5  1  0
  5  6  1  0
  6  7  2  0
  6  8  1  0
  8  9  1  0
  9 10  1  0
 10 11  2  0
 10 12  1  0
 12 13  2  0
 13 14  1  0
 14 15  2  0
 15 16  1  0
 16 17  2  0
 17 18  1  0
 18 19  2  0
 19 20  1  0
 20 21  2  0
 21 12  1  0
 20 15  1  0
  1 22  1  0
  1 23  1  0
  1 24  1  0
  2 25  1  0
  3 26  1  0
  3 27  1  0
  3 28  1  0
  4 29  1  0
  4 30  1  0
  5 31  1  0
  8 32  1  0
  8 33  1  0
  9 34  1  0
 13 35  1  0
 14 36  1  0
 16 37  1  0
 17 38  1  0
 18 39  1  0
 19 40  1  0
M  END
>  <smiles>  (34) 
CC(C)CNC(=O)CNC(=O)c1ccc2ccccc2n1

>  <score_type>  (34) 
oracle

>  <origin>  (34) 
autodockgpu

>  <m_score__min__energy>  (34) 
-7.5300000000000002

>  <m_primary>  (34) 
energy

>  <rmsd>  (34) 
3.303658792568806

>  <m_score__min__rmsd>  (34) 
3.303658792568806

>  <meeko>  (34) 
{"free_energy": -6.65, "intermolecular_energy": -8.14, "internal_energy": -1.6, "cluster_size": 36, "cluster_id": 2, "rank_in_cluster": 35}

>  <energy>  (34) 
-6.83

>  <cluster_rmsd>  (34) 
0.93

>  <cluster>  (34) 
2

$$$$

     RDKit          3D

 40 41  0  0  0  0  0  0  0  0999 V2000
  145.0120   72.7230  219.1980 C   0  0  0  0  0  0  0  0  0  0  0  0
  144.6700   73.4080  220.5300 C   0  0  0  0  0  0  0  0  0  0  0  0
  145.9870   73.7620  221.1820 C   0  0  0  0  0  0  0  0  0  0  0  0
  143.8810   74.6230  220.1710 C   0  0  0  0  0  0  0  0  0  0  0  0
  142.6340   74.7760  220.8700 N   0  0  0  0  0  0  0  0  0  0  0  0
  141.4900   74.1080  220.4100 C   0  0  0  0  0  0  0  0  0  0  0  0
  141.6290   73.3880  219.3650 O   0  0  0  0  0  0  0  0  0  0  0  0
  140.1510   74.1530  221.0040 C   0  0  0  0  0  0  0  0  0  0  0  0
  139.9960   73.4060  222.2320 N   0  0  0  0  0  0  0  0  0  0  0  0
  140.4060   72.0440  222.3670 C   0  0  0  0  0  0  0  0  0  0  0  0
  140.9320   71.4040  221.3950 O   0  0  0  0  0  0  0  0  0  0  0  0
  140.2270   71.3460  223.6470 C   0  0  0  0  0  0  0  0  0  0  0  0
  139.5860   70.1320  223.6960 C   0  0  0  0  0  0  0  0  0  0  0  0
  139.3920   69.4360  224.8760 C   0  0  0  0  0  0  0  0  0  0  0  0
  139.8740   70.0130  226.0310 C   0  0  0  0  0  0  0  0  0  0  0  0
  139.6870   69.3280  227.2150 C   0  0  0  0  0  0  0  0  0  0  0  0
  140.1830   69.9340  228.3680 C   0  0  0  0  0  0  0  0  0  0  0  0
  140.8220   71.1510  228.2870 C   0  0  0  0  0  0  0  0  0  0  0  0
  141.0070   71.8310  227.1100 C   0  0  0  0  0  0  0  0  0  0  0  0
  140.5140   71.2330  225.9560 C   0  0  0  0  0  0  0  0  0  0  0  0
  140.6930   71.8960  224.7980 N   0  0  0  0  0  0  0  0  0  0  0  0
  145.4952   71.7551  219.3969 H   0  0  0  0  0  0  0  0  0  0  0  0
  144.0892   72.5606  218.6217 H   0  0  0  0  0  0  0  0  0  0  0  0
  145.6964   73.3629  218.6217 H   0  0  0  0  0  0  0  0  0  0  0  0
  144.0876   72.7873  221.2268 H   0  0  0  0  0  0  0  0  0  0  0  0
  145.8745   73.7318  222.2758 H   0  0  0  0  0  0  0  0  0  0  0  0
  146.7556   73.0386  220.8723 H   0  0  0  0  0  0  0  0  0  0  0  0
  146.2893   74.7733  220.8723 H   0  0  0  0  0  0  0  0  0  0  0  0
  144.5010   75.5060  220.3853 H   0  0  0  0  0  0  0  0  0  0  0  0
  143.6215   74.5132  219.1077 H   0  0  0  0  0  0  0  0  0  0  0  0
  142.5590   75.3850  221.7120 H   0  0  0  0  0  0  0  0  0  0  0  0
  139.9067   75.2050  221.2127 H   0  0  0  0  0  0  0  0  0  0  0  0
  139.4774   73.6815  220.2733 H   0  0  0  0  0  0  0  0  0  0  0  0
  139.5660   73.8300  223.1080 H   0  0  0  0  0  0  0  0  0  0  0  0
  139.2115   69.6952  222.7585 H   0  0  0  0  0  0  0  0  0  0  0  0
  138.8757   68.4648  224.8915 H   0  0  0  0  0  0  0  0  0  0  0  0
  139.1738   68.3556  227.2467 H   0  0  0  0  0  0  0  0  0  0  0  0
  140.0639   69.4397  229.3434 H   0  0  0  0  0  0  0  0  0  0  0  0
  141.2042   71.6016  229.2148 H   0  0  0  0  0  0  0  0  0  0  0  0
  141.5210   72.8031  227.0808 H   0  0  0  0  0  0  0  0  0  0  0  0
  1  2  1  0
  2  3  1  0
  2  4  1  0
  4  5  1  0
  5  6  1  0
  6  7  2  0
  6  8  1  0
  8  9  1  0
  9 10  1  0
 10 11  2  0
 10 12  1  0
 12 13  2  0
 13 14  1  0
 14 15  2  0
 15 16  1  0
 16 17  2  0
 17 18  1  0
 18 19  2  0
 19 20  1  0
 20 21  2  0
 21 12  1  0
 20 15  1  0
  1 22  1  0
  1 23  1  0
  1 24  1  0
  2 25  1  0
  3 26  1  0
  3 27  1  0
  3 28  1  0
  4 29  1  0
  4 30  1  0
  5 31  1  0
  8 32  1  0
  8 33  1  0
  9 34  1  0
 13 35  1  0
 14 36  1  0
 16 37  1  0
 17 38  1  0
 18 39  1  0
 19 40  1  0
M  END
>  <smiles>  (35) 
CC(C)CNC(=O)CNC(=O)c1ccc2ccccc2n1

>  <score_type>  (35) 
oracle

>  <origin>  (35) 
autodockgpu

>  <m_score__min__energy>  (35) 
-7.5300000000000002

>  <m_primary>  (35) 
energy

>  <rmsd>  (35) 
3.466249051671052

>  <m_score__min__rmsd>  (35) 
3.466249051671052

>  <meeko>  (35) 
{"free_energy": -7.27, "intermolecular_energy": -8.76, "internal_energy": -0.94, "cluster_size": 36, "cluster_id": 2, "rank_in_cluster": 1}

>  <energy>  (35) 
-6.81

>  <cluster_rmsd>  (35) 
0.9

>  <cluster>  (35) 
2

$$$$

     RDKit          3D

 40 41  0  0  0  0  0  0  0  0999 V2000
  141.8430   79.9760  221.4430 C   0  0  0  0  0  0  0  0  0  0  0  0
  142.0690   79.0070  222.6130 C   0  0  0  0  0  0  0  0  0  0  0  0
  142.2290   79.8590  223.8520 C   0  0  0  0  0  0  0  0  0  0  0  0
  140.8450   78.1550  222.6770 C   0  0  0  0  0  0  0  0  0  0  0  0
  141.0500   76.7600  222.3930 N   0  0  0  0  0  0  0  0  0  0  0  0
  140.0980   76.0540  221.6440 C   0  0  0  0  0  0  0  0  0  0  0  0
  139.0760   76.7090  221.2530 O   0  0  0  0  0  0  0  0  0  0  0  0
  140.1560   74.6390  221.2650 C   0  0  0  0  0  0  0  0  0  0  0  0
  139.9250   73.7020  222.3420 N   0  0  0  0  0  0  0  0  0  0  0  0
  140.6270   72.4640  222.4550 C   0  0  0  0  0  0  0  0  0  0  0  0
  141.5040   72.1100  221.5960 O   0  0  0  0  0  0  0  0  0  0  0  0
  140.3490   71.5610  223.5810 C   0  0  0  0  0  0  0  0  0  0  0  0
  139.6440   70.3990  223.3840 C   0  0  0  0  0  0  0  0  0  0  0  0
  139.3560   69.5170  224.4100 C   0  0  0  0  0  0  0  0  0  0  0  0
  139.8100   69.8490  225.6690 C   0  0  0  0  0  0  0  0  0  0  0  0
  139.5290   68.9770  226.7020 C   0  0  0  0  0  0  0  0  0  0  0  0
  139.9980   69.3370  227.9640 C   0  0  0  0  0  0  0  0  0  0  0  0
  140.7020   70.5090  228.1290 C   0  0  0  0  0  0  0  0  0  0  0  0
  140.9810   71.3750  227.1020 C   0  0  0  0  0  0  0  0  0  0  0  0
  140.5150   71.0230  225.8410 C   0  0  0  0  0  0  0  0  0  0  0  0
  140.7850   71.8690  224.8290 N   0  0  0  0  0  0  0  0  0  0  0  0
  141.6096   80.9767  221.8355 H   0  0  0  0  0  0  0  0  0  0  0  0
  142.7534   80.0266  220.8277 H   0  0  0  0  0  0  0  0  0  0  0  0
  141.0041   79.6186  220.8277 H   0  0  0  0  0  0  0  0  0  0  0  0
  142.9561   78.3648  222.5096 H   0  0  0  0  0  0  0  0  0  0  0  0
  142.1110   79.2304  224.7470 H   0  0  0  0  0  0  0  0  0  0  0  0
  143.2289   80.3174  223.8552 H   0  0  0  0  0  0  0  0  0  0  0  0
  141.4635   80.6489  223.8552 H   0  0  0  0  0  0  0  0  0  0  0  0
  140.4267   78.2372  223.6910 H   0  0  0  0  0  0  0  0  0  0  0  0
  140.1731   78.5293  221.8906 H   0  0  0  0  0  0  0  0  0  0  0  0
  141.8920   76.2570  222.7440 H   0  0  0  0  0  0  0  0  0  0  0  0
  139.3941   74.4626  220.4915 H   0  0  0  0  0  0  0  0  0  0  0  0
  141.1844   74.4581  220.9190 H   0  0  0  0  0  0  0  0  0  0  0  0
  139.2150   73.8840  223.1140 H   0  0  0  0  0  0  0  0  0  0  0  0
  139.2940   70.1599  222.3689 H   0  0  0  0  0  0  0  0  0  0  0  0
  138.7897   68.5914  224.2295 H   0  0  0  0  0  0  0  0  0  0  0  0
  138.9647   68.0472  226.5375 H   0  0  0  0  0  0  0  0  0  0  0  0
  139.8058   68.6847  228.8286 H   0  0  0  0  0  0  0  0  0  0  0  0
  141.0595   70.7644  229.1374 H   0  0  0  0  0  0  0  0  0  0  0  0
  141.5466   72.3036  227.2688 H   0  0  0  0  0  0  0  0  0  0  0  0
  1  2  1  0
  2  3  1  0
  2  4  1  0
  4  5  1  0
  5  6  1  0
  6  7  2  0
  6  8  1  0
  8  9  1  0
  9 10  1  0
 10 11  2  0
 10 12  1  0
 12 13  2  0
 13 14  1  0
 14 15  2  0
 15 16  1  0
 16 17  2  0
 17 18  1  0
 18 19  2  0
 19 20  1  0
 20 21  2  0
 21 12  1  0
 20 15  1  0
  1 22  1  0
  1 23  1  0
  1 24  1  0
  2 25  1  0
  3 26  1  0
  3 27  1  0
  3 28  1  0
  4 29  1  0
  4 30  1  0
  5 31  1  0
  8 32  1  0
  8 33  1  0
  9 34  1  0
 13 35  1  0
 14 36  1  0
 16 37  1  0
 17 38  1  0
 18 39  1  0
 19 40  1  0
M  END
>  <smiles>  (36) 
CC(C)CNC(=O)CNC(=O)c1ccc2ccccc2n1

>  <score_type>  (36) 
oracle

>  <origin>  (36) 
autodockgpu

>  <m_score__min__energy>  (36) 
-7.5300000000000002

>  <m_primary>  (36) 
energy

>  <rmsd>  (36) 
3.382697617300564

>  <m_score__min__rmsd>  (36) 
3.382697617300564

>  <meeko>  (36) 
{"free_energy": -7.48, "intermolecular_energy": -8.98, "internal_energy": -0.68, "cluster_size": 8, "cluster_id": 1, "rank_in_cluster": 2}

>  <energy>  (36) 
-6.81

>  <cluster_rmsd>  (36) 
0.91

>  <cluster>  (36) 
2

$$$$

     RDKit          3D

 40 41  0  0  0  0  0  0  0  0999 V2000
  144.6470   71.9860  220.4230 C   0  0  0  0  0  0  0  0  0  0  0  0
  144.9790   73.4430  220.7800 C   0  0  0  0  0  0  0  0  0  0  0  0
  146.2990   73.7590  220.1160 C   0  0  0  0  0  0  0  0  0  0  0  0
  143.8630   74.2620  220.2220 C   0  0  0  0  0  0  0  0  0  0  0  0
  142.5420   73.7410  220.4500 N   0  0  0  0  0  0  0  0  0  0  0  0
  141.5170   74.6010  220.8700 C   0  0  0  0  0  0  0  0  0  0  0  0
  141.8290   75.8280  221.0320 O   0  0  0  0  0  0  0  0  0  0  0  0
  140.1240   74.2360  221.1430 C   0  0  0  0  0  0  0  0  0  0  0  0
  139.9180   73.4290  222.3240 N   0  0  0  0  0  0  0  0  0  0  0  0
  140.4590   72.1150  222.4680 C   0  0  0  0  0  0  0  0  0  0  0  0
  141.1580   71.5730  221.5450 O   0  0  0  0  0  0  0  0  0  0  0  0
  140.2190   71.3520  223.7000 C   0  0  0  0  0  0  0  0  0  0  0  0
  139.5750   70.1390  223.6550 C   0  0  0  0  0  0  0  0  0  0  0  0
  139.3240   69.3830  224.7860 C   0  0  0  0  0  0  0  0  0  0  0  0
  139.7510   69.8970  225.9920 C   0  0  0  0  0  0  0  0  0  0  0  0
  139.5070   69.1530  227.1280 C   0  0  0  0  0  0  0  0  0  0  0  0
  139.9480   69.6950  228.3330 C   0  0  0  0  0  0  0  0  0  0  0  0
  140.5900   70.9130  228.3470 C   0  0  0  0  0  0  0  0  0  0  0  0
  140.8320   71.6530  227.2170 C   0  0  0  0  0  0  0  0  0  0  0  0
  140.3950   71.1180  226.0110 C   0  0  0  0  0  0  0  0  0  0  0  0
  140.6290   71.8400  224.8990 N   0  0  0  0  0  0  0  0  0  0  0  0
  144.5142   71.4033  221.3465 H   0  0  0  0  0  0  0  0  0  0  0  0
  143.7188   71.9553  219.8335 H   0  0  0  0  0  0  0  0  0  0  0  0
  145.4702   71.5562  219.8335 H   0  0  0  0  0  0  0  0  0  0  0  0
  145.0721   73.6394  221.8583 H   0  0  0  0  0  0  0  0  0  0  0  0
  147.0625   73.9418  220.8865 H   0  0  0  0  0  0  0  0  0  0  0  0
  146.6068   72.9092  219.4891 H   0  0  0  0  0  0  0  0  0  0  0  0
  146.1886   74.6561  219.4891 H   0  0  0  0  0  0  0  0  0  0  0  0
  143.9163   75.2625  220.6760 H   0  0  0  0  0  0  0  0  0  0  0  0
  144.0042   74.2637  219.1311 H   0  0  0  0  0  0  0  0  0  0  0  0
  142.3320   72.7290  220.3200 H   0  0  0  0  0  0  0  0  0  0  0  0
  139.5460   75.1645  221.2606 H   0  0  0  0  0  0  0  0  0  0  0  0
  139.7983   73.6195  220.2922 H   0  0  0  0  0  0  0  0  0  0  0  0
  139.3490   73.7700  223.1560 H   0  0  0  0  0  0  0  0  0  0  0  0
  139.2453   69.7531  222.6791 H   0  0  0  0  0  0  0  0  0  0  0  0
  138.8064   68.4142  224.7258 H   0  0  0  0  0  0  0  0  0  0  0  0
  138.9911   68.1824  227.0844 H   0  0  0  0  0  0  0  0  0  0  0  0
  139.7833   69.1496  229.2740 H   0  0  0  0  0  0  0  0  0  0  0  0
  140.9265   71.3138  229.3145 H   0  0  0  0  0  0  0  0  0  0  0  0
  141.3474   72.6236  227.2635 H   0  0  0  0  0  0  0  0  0  0  0  0
  1  2  1  0
  2  3  1  0
  2  4  1  0
  4  5  1  0
  5  6  1  0
  6  7  2  0
  6  8  1  0
  8  9  1  0
  9 10  1  0
 10 11  2  0
 10 12  1  0
 12 13  2  0
 13 14  1  0
 14 15  2  0
 15 16  1  0
 16 17  2  0
 17 18  1  0
 18 19  2  0
 19 20  1  0
 20 21  2  0
 21 12  1  0
 20 15  1  0
  1 22  1  0
  1 23  1  0
  1 24  1  0
  2 25  1  0
  3 26  1  0
  3 27  1  0
  3 28  1  0
  4 29  1  0
  4 30  1  0
  5 31  1  0
  8 32  1  0
  8 33  1  0
  9 34  1  0
 13 35  1  0
 14 36  1  0
 16 37  1  0
 17 38  1  0
 18 39  1  0
 19 40  1  0
M  END
>  <smiles>  (37) 
CC(C)CNC(=O)CNC(=O)c1ccc2ccccc2n1

>  <score_type>  (37) 
oracle

>  <origin>  (37) 
autodockgpu

>  <m_score__min__energy>  (37) 
-7.5300000000000002

>  <m_primary>  (37) 
energy

>  <rmsd>  (37) 
3.5531357177688747

>  <m_score__min__rmsd>  (37) 
3.5531357177688747

>  <meeko>  (37) 
{"free_energy": -6.62, "intermolecular_energy": -8.11, "internal_energy": -1.56, "cluster_size": 36, "cluster_id": 2, "rank_in_cluster": 36}

>  <energy>  (37) 
-6.8

>  <cluster_rmsd>  (37) 
1.02

>  <cluster>  (37) 
2

$$$$

     RDKit          3D

 40 41  0  0  0  0  0  0  0  0999 V2000
  146.0230   73.4300  221.3210 C   0  0  0  0  0  0  0  0  0  0  0  0
  145.0450   73.3910  220.1370 C   0  0  0  0  0  0  0  0  0  0  0  0
  144.5080   71.9800  220.0700 C   0  0  0  0  0  0  0  0  0  0  0  0
  143.9760   74.3810  220.4620 C   0  0  0  0  0  0  0  0  0  0  0  0
  142.6900   73.8180  220.7740 N   0  0  0  0  0  0  0  0  0  0  0  0
  141.5560   74.6410  220.7980 C   0  0  0  0  0  0  0  0  0  0  0  0
  141.7400   75.8780  220.5380 O   0  0  0  0  0  0  0  0  0  0  0  0
  140.1800   74.2300  221.0920 C   0  0  0  0  0  0  0  0  0  0  0  0
  140.0140   73.4510  222.2990 N   0  0  0  0  0  0  0  0  0  0  0  0
  140.4490   72.0960  222.4120 C   0  0  0  0  0  0  0  0  0  0  0  0
  141.0100   71.4890  221.4370 O   0  0  0  0  0  0  0  0  0  0  0  0
  140.2570   71.3650  223.6720 C   0  0  0  0  0  0  0  0  0  0  0  0
  139.6240   70.1460  223.6810 C   0  0  0  0  0  0  0  0  0  0  0  0
  139.4190   69.4190  224.8400 C   0  0  0  0  0  0  0  0  0  0  0  0
  139.8800   69.9700  226.0160 C   0  0  0  0  0  0  0  0  0  0  0  0
  139.6810   69.2540  227.1800 C   0  0  0  0  0  0  0  0  0  0  0  0
  140.1570   69.8340  228.3540 C   0  0  0  0  0  0  0  0  0  0  0  0
  140.7880   71.0570  228.3130 C   0  0  0  0  0  0  0  0  0  0  0  0
  140.9850   71.7670  227.1570 C   0  0  0  0  0  0  0  0  0  0  0  0
  140.5120   71.1960  225.9810 C   0  0  0  0  0  0  0  0  0  0  0  0
  140.7030   71.8890  224.8420 N   0  0  0  0  0  0  0  0  0  0  0  0
  145.4577   73.4075  222.2644 H   0  0  0  0  0  0  0  0  0  0  0  0
  146.6916   72.5578  221.2732 H   0  0  0  0  0  0  0  0  0  0  0  0
  146.6200   74.3527  221.2732 H   0  0  0  0  0  0  0  0  0  0  0  0
  145.4928   73.6435  219.1645 H   0  0  0  0  0  0  0  0  0  0  0  0
  144.3614   71.5947  221.0898 H   0  0  0  0  0  0  0  0  0  0  0  0
  143.5465   71.9786  219.5357 H   0  0  0  0  0  0  0  0  0  0  0  0
  145.2253   71.3397  219.5357 H   0  0  0  0  0  0  0  0  0  0  0  0
  144.3095   74.9681  221.3304 H   0  0  0  0  0  0  0  0  0  0  0  0
  143.8318   74.9820  219.5521 H   0  0  0  0  0  0  0  0  0  0  0  0
  142.5840   72.8050  220.9950 H   0  0  0  0  0  0  0  0  0  0  0  0
  139.5665   75.1381  221.1862 H   0  0  0  0  0  0  0  0  0  0  0  0
  139.8732   73.5761  220.2624 H   0  0  0  0  0  0  0  0  0  0  0  0
  139.5560   73.8470  223.1750 H   0  0  0  0  0  0  0  0  0  0  0  0
  139.2654   69.7309  222.7276 H   0  0  0  0  0  0  0  0  0  0  0  0
  138.9103   68.4438  224.8236 H   0  0  0  0  0  0  0  0  0  0  0  0
  139.1738   68.2779  227.1803 H   0  0  0  0  0  0  0  0  0  0  0  0
  140.0285   69.3141  229.3148 H   0  0  0  0  0  0  0  0  0  0  0  0
  141.1532   71.4869  229.2573 H   0  0  0  0  0  0  0  0  0  0  0  0
  141.4934   72.7425  227.1598 H   0  0  0  0  0  0  0  0  0  0  0  0
  1  2  1  0
  2  3  1  0
  2  4  1  0
  4  5  1  0
  5  6  1  0
  6  7  2  0
  6  8  1  0
  8  9  1  0
  9 10  1  0
 10 11  2  0
 10 12  1  0
 12 13  2  0
 13 14  1  0
 14 15  2  0
 15 16  1  0
 16 17  2  0
 17 18  1  0
 18 19  2  0
 19 20  1  0
 20 21  2  0
 21 12  1  0
 20 15  1  0
  1 22  1  0
  1 23  1  0
  1 24  1  0
  2 25  1  0
  3 26  1  0
  3 27  1  0
  3 28  1  0
  4 29  1  0
  4 30  1  0
  5 31  1  0
  8 32  1  0
  8 33  1  0
  9 34  1  0
 13 35  1  0
 14 36  1  0
 16 37  1  0
 17 38  1  0
 18 39  1  0
 19 40  1  0
M  END
>  <smiles>  (38) 
CC(C)CNC(=O)CNC(=O)c1ccc2ccccc2n1

>  <score_type>  (38) 
oracle

>  <origin>  (38) 
autodockgpu

>  <m_score__min__energy>  (38) 
-7.5300000000000002

>  <m_primary>  (38) 
energy

>  <rmsd>  (38) 
3.5733036707817716

>  <m_score__min__rmsd>  (38) 
3.5733036707817716

>  <meeko>  (38) 
{"free_energy": -6.89, "intermolecular_energy": -8.38, "internal_energy": -1.58, "cluster_size": 36, "cluster_id": 2, "rank_in_cluster": 12}

>  <energy>  (38) 
-6.79

>  <cluster_rmsd>  (38) 
0.87

>  <cluster>  (38) 
2

$$$$

     RDKit          3D

 40 41  0  0  0  0  0  0  0  0999 V2000
  145.5440   72.2530  219.4080 C   0  0  0  0  0  0  0  0  0  0  0  0
  145.0040   72.9350  220.6740 C   0  0  0  0  0  0  0  0  0  0  0  0
  146.1550   73.7160  221.2660 C   0  0  0  0  0  0  0  0  0  0  0  0
  143.9010   73.8300  220.2140 C   0  0  0  0  0  0  0  0  0  0  0  0
  142.5830   73.4580  220.6530 N   0  0  0  0  0  0  0  0  0  0  0  0
  141.5680   74.4230  220.7040 C   0  0  0  0  0  0  0  0  0  0  0  0
  141.8850   75.6080  220.3520 O   0  0  0  0  0  0  0  0  0  0  0  0
  140.1780   74.2120  221.1220 C   0  0  0  0  0  0  0  0  0  0  0  0
  140.0090   73.4310  222.3270 N   0  0  0  0  0  0  0  0  0  0  0  0
  140.4080   72.0640  222.4260 C   0  0  0  0  0  0  0  0  0  0  0  0
  140.9370   71.4470  221.4390 O   0  0  0  0  0  0  0  0  0  0  0  0
  140.2140   71.3300  223.6840 C   0  0  0  0  0  0  0  0  0  0  0  0
  139.5810   70.1120  223.6900 C   0  0  0  0  0  0  0  0  0  0  0  0
  139.3740   69.3830  224.8480 C   0  0  0  0  0  0  0  0  0  0  0  0
  139.8350   69.9310  226.0250 C   0  0  0  0  0  0  0  0  0  0  0  0
  139.6340   69.2140  227.1880 C   0  0  0  0  0  0  0  0  0  0  0  0
  140.1090   69.7910  228.3640 C   0  0  0  0  0  0  0  0  0  0  0  0
  140.7400   71.0150  228.3250 C   0  0  0  0  0  0  0  0  0  0  0  0
  140.9390   71.7270  227.1700 C   0  0  0  0  0  0  0  0  0  0  0  0
  140.4670   71.1580  225.9930 C   0  0  0  0  0  0  0  0  0  0  0  0
  140.6590   71.8530  224.8550 N   0  0  0  0  0  0  0  0  0  0  0  0
  146.2035   71.4201  219.6931 H   0  0  0  0  0  0  0  0  0  0  0  0
  144.7035   71.8677  218.8121 H   0  0  0  0  0  0  0  0  0  0  0  0
  146.1117   72.9828  218.8121 H   0  0  0  0  0  0  0  0  0  0  0  0
  144.6185   72.2427  221.4370 H   0  0  0  0  0  0  0  0  0  0  0  0
  146.0981   73.6774  222.3639 H   0  0  0  0  0  0  0  0  0  0  0  0
  147.1065   73.2763  220.9325 H   0  0  0  0  0  0  0  0  0  0  0  0
  146.0979   74.7627  220.9325 H   0  0  0  0  0  0  0  0  0  0  0  0
  144.1092   74.8442  220.5857 H   0  0  0  0  0  0  0  0  0  0  0  0
  143.8877   73.7563  219.1166 H   0  0  0  0  0  0  0  0  0  0  0  0
  142.3680   72.4820  220.9470 H   0  0  0  0  0  0  0  0  0  0  0  0
  139.7194   75.1979  221.2884 H   0  0  0  0  0  0  0  0  0  0  0  0
  139.7010   73.6358  220.3155 H   0  0  0  0  0  0  0  0  0  0  0  0
  139.5750   73.8340  223.2110 H   0  0  0  0  0  0  0  0  0  0  0  0
  139.2237   69.6985  222.7354 H   0  0  0  0  0  0  0  0  0  0  0  0
  138.8637   68.4087  224.8295 H   0  0  0  0  0  0  0  0  0  0  0  0
  139.1256   68.2385  227.1861 H   0  0  0  0  0  0  0  0  0  0  0  0
  139.9801   69.2691  229.3237 H   0  0  0  0  0  0  0  0  0  0  0  0
  141.1035   71.4439  229.2704 H   0  0  0  0  0  0  0  0  0  0  0  0
  141.4480   72.7021  227.1748 H   0  0  0  0  0  0  0  0  0  0  0  0
  1  2  1  0
  2  3  1  0
  2  4  1  0
  4  5  1  0
  5  6  1  0
  6  7  2  0
  6  8  1  0
  8  9  1  0
  9 10  1  0
 10 11  2  0
 10 12  1  0
 12 13  2  0
 13 14  1  0
 14 15  2  0
 15 16  1  0
 16 17  2  0
 17 18  1  0
 18 19  2  0
 19 20  1  0
 20 21  2  0
 21 12  1  0
 20 15  1  0
  1 22  1  0
  1 23  1  0
  1 24  1  0
  2 25  1  0
  3 26  1  0
  3 27  1  0
  3 28  1  0
  4 29  1  0
  4 30  1  0
  5 31  1  0
  8 32  1  0
  8 33  1  0
  9 34  1  0
 13 35  1  0
 14 36  1  0
 16 37  1  0
 17 38  1  0
 18 39  1  0
 19 40  1  0
M  END
>  <smiles>  (39) 
CC(C)CNC(=O)CNC(=O)c1ccc2ccccc2n1

>  <score_type>  (39) 
oracle

>  <origin>  (39) 
autodockgpu

>  <m_score__min__energy>  (39) 
-7.5300000000000002

>  <m_primary>  (39) 
energy

>  <rmsd>  (39) 
3.6761503660175254

>  <m_score__min__rmsd>  (39) 
3.6761503660175254

>  <meeko>  (39) 
{"free_energy": -6.81, "intermolecular_energy": -8.3, "internal_energy": -1.53, "cluster_size": 36, "cluster_id": 2, "rank_in_cluster": 27}

>  <energy>  (39) 
-6.77

>  <cluster_rmsd>  (39) 
0.99

>  <cluster>  (39) 
2

$$$$

     RDKit          3D

 40 41  0  0  0  0  0  0  0  0999 V2000
  140.8440   71.9390  226.2080 C   0  0  0  0  0  0  0  0  0  0  0  0
  140.8340   71.0560  224.9510 C   0  0  0  0  0  0  0  0  0  0  0  0
  140.6540   69.6320  225.4270 C   0  0  0  0  0  0  0  0  0  0  0  0
  139.6730   71.5230  224.1360 C   0  0  0  0  0  0  0  0  0  0  0  0
  139.9490   72.6110  223.2390 N   0  0  0  0  0  0  0  0  0  0  0  0
  140.6910   72.3810  222.0720 C   0  0  0  0  0  0  0  0  0  0  0  0
  141.0930   71.1860  221.8740 O   0  0  0  0  0  0  0  0  0  0  0  0
  141.0560   73.3730  221.0550 C   0  0  0  0  0  0  0  0  0  0  0  0
  141.0850   74.7430  221.5140 N   0  0  0  0  0  0  0  0  0  0  0  0
  139.9160   75.4420  221.9420 C   0  0  0  0  0  0  0  0  0  0  0  0
  138.7640   74.8870  221.9370 O   0  0  0  0  0  0  0  0  0  0  0  0
  140.0190   76.8330  222.4050 C   0  0  0  0  0  0  0  0  0  0  0  0
  138.8880   77.5580  222.6920 C   0  0  0  0  0  0  0  0  0  0  0  0
  138.9310   78.8690  223.1300 C   0  0  0  0  0  0  0  0  0  0  0  0
  140.1770   79.4420  223.2730 C   0  0  0  0  0  0  0  0  0  0  0  0
  140.2350   80.7500  223.7090 C   0  0  0  0  0  0  0  0  0  0  0  0
  141.5050   81.3050  223.8430 C   0  0  0  0  0  0  0  0  0  0  0  0
  142.6200   80.5530  223.5480 C   0  0  0  0  0  0  0  0  0  0  0  0
  142.5630   79.2530  223.1140 C   0  0  0  0  0  0  0  0  0  0  0  0
  141.2980   78.6930  222.9770 C   0  0  0  0  0  0  0  0  0  0  0  0
  141.2350   77.4170  222.5510 N   0  0  0  0  0  0  0  0  0  0  0  0
  140.8368   71.3012  227.1042 H   0  0  0  0  0  0  0  0  0  0  0  0
  141.7493   72.5639  226.2099 H   0  0  0  0  0  0  0  0  0  0  0  0
  139.9531   72.5842  226.2099 H   0  0  0  0  0  0  0  0  0  0  0  0
  141.7509   71.1118  224.3459 H   0  0  0  0  0  0  0  0  0  0  0  0
  140.6513   69.6106  226.5268 H   0  0  0  0  0  0  0  0  0  0  0  0
  139.6988   69.2374  225.0502 H   0  0  0  0  0  0  0  0  0  0  0  0
  141.4809   69.0122  225.0502 H   0  0  0  0  0  0  0  0  0  0  0  0
  139.3139   70.6725  223.5379 H   0  0  0  0  0  0  0  0  0  0  0  0
  138.9310   71.9023  224.8540 H   0  0  0  0  0  0  0  0  0  0  0  0
  139.6150   73.5770  223.4440 H   0  0  0  0  0  0  0  0  0  0  0  0
  142.0573   73.1197  220.6765 H   0  0  0  0  0  0  0  0  0  0  0  0
  140.2705   73.3253  220.2864 H   0  0  0  0  0  0  0  0  0  0  0  0
  141.9850   75.3110  221.5580 H   0  0  0  0  0  0  0  0  0  0  0  0
  137.9072   77.0756  222.5682 H   0  0  0  0  0  0  0  0  0  0  0  0
  138.0118   79.4299  223.3544 H   0  0  0  0  0  0  0  0  0  0  0  0
  139.3254   81.3243  223.9387 H   0  0  0  0  0  0  0  0  0  0  0  0
  141.6175   82.3445  224.1846 H   0  0  0  0  0  0  0  0  0  0  0  0
  143.6091   81.0195  223.6667 H   0  0  0  0  0  0  0  0  0  0  0  0
  143.4744   78.6811  222.8854 H   0  0  0  0  0  0  0  0  0  0  0  0
  1  2  1  0
  2  3  1  0
  2  4  1  0
  4  5  1  0
  5  6  1  0
  6  7  2  0
  6  8  1  0
  8  9  1  0
  9 10  1  0
 10 11  2  0
 10 12  1  0
 12 13  2  0
 13 14  1  0
 14 15  2  0
 15 16  1  0
 16 17  2  0
 17 18  1  0
 18 19  2  0
 19 20  1  0
 20 21  2  0
 21 12  1  0
 20 15  1  0
  1 22  1  0
  1 23  1  0
  1 24  1  0
  2 25  1  0
  3 26  1  0
  3 27  1  0
  3 28  1  0
  4 29  1  0
  4 30  1  0
  5 31  1  0
  8 32  1  0
  8 33  1  0
  9 34  1  0
 13 35  1  0
 14 36  1  0
 16 37  1  0
 17 38  1  0
 18 39  1  0
 19 40  1  0
M  END
>  <smiles>  (40) 
CC(C)CNC(=O)CNC(=O)c1ccc2ccccc2n1

>  <score_type>  (40) 
oracle

>  <origin>  (40) 
autodockgpu

>  <m_score__min__energy>  (40) 
-7.5300000000000002

>  <m_primary>  (40) 
energy

>  <rmsd>  (40) 
8.41131876337679

>  <m_score__min__rmsd>  (40) 
8.41131876337679

>  <meeko>  (40) 
{"free_energy": -6.29, "intermolecular_energy": -7.78, "internal_energy": -1.78, "cluster_size": 6, "cluster_id": 3, "rank_in_cluster": 5}

>  <energy>  (40) 
-6.74

>  <cluster_rmsd>  (40) 
0.84

>  <cluster>  (40) 
2

$$$$

     RDKit          3D

 40 41  0  0  0  0  0  0  0  0999 V2000
  139.2780   70.1310  225.2950 C   0  0  0  0  0  0  0  0  0  0  0  0
  140.0100   71.4730  225.1450 C   0  0  0  0  0  0  0  0  0  0  0  0
  140.9980   71.5530  226.2860 C   0  0  0  0  0  0  0  0  0  0  0  0
  140.6930   71.4170  223.8190 C   0  0  0  0  0  0  0  0  0  0  0  0
  140.3730   72.4890  222.9160 N   0  0  0  0  0  0  0  0  0  0  0  0
  141.1480   72.6840  221.7640 C   0  0  0  0  0  0  0  0  0  0  0  0
  142.1200   71.8770  221.5830 O   0  0  0  0  0  0  0  0  0  0  0  0
  140.9570   73.7210  220.7450 C   0  0  0  0  0  0  0  0  0  0  0  0
  141.0540   75.0810  221.2230 N   0  0  0  0  0  0  0  0  0  0  0  0
  140.0380   75.6970  222.0170 C   0  0  0  0  0  0  0  0  0  0  0  0
  138.9730   75.0720  222.3440 O   0  0  0  0  0  0  0  0  0  0  0  0
  140.2050   77.0820  222.4780 C   0  0  0  0  0  0  0  0  0  0  0  0
  139.1110   77.8370  222.8250 C   0  0  0  0  0  0  0  0  0  0  0  0
  139.2150   79.1450  223.2650 C   0  0  0  0  0  0  0  0  0  0  0  0
  140.4820   79.6810  223.3440 C   0  0  0  0  0  0  0  0  0  0  0  0
  140.6000   80.9860  223.7810 C   0  0  0  0  0  0  0  0  0  0  0  0
  141.8910   81.5040  223.8510 C   0  0  0  0  0  0  0  0  0  0  0  0
  142.9670   80.7220  223.4960 C   0  0  0  0  0  0  0  0  0  0  0  0
  142.8510   79.4260  223.0620 C   0  0  0  0  0  0  0  0  0  0  0  0
  141.5650   78.9030  222.9880 C   0  0  0  0  0  0  0  0  0  0  0  0
  141.4430   77.6310  222.5620 N   0  0  0  0  0  0  0  0  0  0  0  0
  139.1518   69.8996  226.3629 H   0  0  0  0  0  0  0  0  0  0  0  0
  138.2905   70.1963  224.8147 H   0  0  0  0  0  0  0  0  0  0  0  0
  139.8675   69.3361  224.8147 H   0  0  0  0  0  0  0  0  0  0  0  0
  139.3563   72.3569  225.1819 H   0  0  0  0  0  0  0  0  0  0  0  0
  140.4573   71.5092  227.2429 H   0  0  0  0  0  0  0  0  0  0  0  0
  141.7004   70.7088  226.2227 H   0  0  0  0  0  0  0  0  0  0  0  0
  141.5554   72.4992  226.2227 H   0  0  0  0  0  0  0  0  0  0  0  0
  141.7787   71.4341  223.9952 H   0  0  0  0  0  0  0  0  0  0  0  0
  140.3390   70.4954  223.3338 H   0  0  0  0  0  0  0  0  0  0  0  0
  139.5790   73.1360  223.1070 H   0  0  0  0  0  0  0  0  0  0  0  0
  141.7220   73.5786  219.9675 H   0  0  0  0  0  0  0  0  0  0  0  0
  139.9274   73.6003  220.3772 H   0  0  0  0  0  0  0  0  0  0  0  0
  141.8910   75.7030  221.0100 H   0  0  0  0  0  0  0  0  0  0  0  0
  138.1117   77.3834  222.7501 H   0  0  0  0  0  0  0  0  0  0  0  0
  138.3255   79.7309  223.5396 H   0  0  0  0  0  0  0  0  0  0  0  0
  139.7203   81.5849  224.0592 H   0  0  0  0  0  0  0  0  0  0  0  0
  142.0509   82.5382  224.1900 H   0  0  0  0  0  0  0  0  0  0  0  0
  143.9737   81.1600  223.5641 H   0  0  0  0  0  0  0  0  0  0  0  0
  143.7329   78.8293  222.7858 H   0  0  0  0  0  0  0  0  0  0  0  0
  1  2  1  0
  2  3  1  0
  2  4  1  0
  4  5  1  0
  5  6  1  0
  6  7  2  0
  6  8  1  0
  8  9  1  0
  9 10  1  0
 10 11  2  0
 10 12  1  0
 12 13  2  0
 13 14  1  0
 14 15  2  0
 15 16  1  0
 16 17  2  0
 17 18  1  0
 18 19  2  0
 19 20  1  0
 20 21  2  0
 21 12  1  0
 20 15  1  0
  1 22  1  0
  1 23  1  0
  1 24  1  0
  2 25  1  0
  3 26  1  0
  3 27  1  0
  3 28  1  0
  4 29  1  0
  4 30  1  0
  5 31  1  0
  8 32  1  0
  8 33  1  0
  9 34  1  0
 13 35  1  0
 14 36  1  0
 16 37  1  0
 17 38  1  0
 18 39  1  0
 19 40  1  0
M  END
>  <smiles>  (41) 
CC(C)CNC(=O)CNC(=O)c1ccc2ccccc2n1

>  <score_type>  (41) 
oracle

>  <origin>  (41) 
autodockgpu

>  <m_score__min__energy>  (41) 
-7.5300000000000002

>  <m_primary>  (41) 
energy

>  <rmsd>  (41) 
8.601605923458111

>  <m_score__min__rmsd>  (41) 
8.601605923458111

>  <meeko>  (41) 
{"free_energy": -6.42, "intermolecular_energy": -7.91, "internal_energy": -1.68, "cluster_size": 6, "cluster_id": 3, "rank_in_cluster": 1}

>  <energy>  (41) 
-6.72

>  <cluster_rmsd>  (41) 
0.83

>  <cluster>  (41) 
2

$$$$

     RDKit          3D

 40 41  0  0  0  0  0  0  0  0999 V2000
  139.5130   70.1110  225.5210 C   0  0  0  0  0  0  0  0  0  0  0  0
  140.0440   71.5170  225.2060 C   0  0  0  0  0  0  0  0  0  0  0  0
  141.0320   71.8590  226.2980 C   0  0  0  0  0  0  0  0  0  0  0  0
  140.7030   71.4120  223.8700 C   0  0  0  0  0  0  0  0  0  0  0  0
  140.4470   72.5040  222.9700 N   0  0  0  0  0  0  0  0  0  0  0  0
  141.1710   72.6050  221.7740 C   0  0  0  0  0  0  0  0  0  0  0  0
  142.0410   71.6970  221.5520 O   0  0  0  0  0  0  0  0  0  0  0  0
  141.0330   73.6460  220.7510 C   0  0  0  0  0  0  0  0  0  0  0  0
  141.1140   75.0040  221.2390 N   0  0  0  0  0  0  0  0  0  0  0  0
  140.0580   75.6290  221.9690 C   0  0  0  0  0  0  0  0  0  0  0  0
  138.9670   75.0140  222.2280 O   0  0  0  0  0  0  0  0  0  0  0  0
  140.2090   77.0110  222.4440 C   0  0  0  0  0  0  0  0  0  0  0  0
  139.1100   77.7430  222.8210 C   0  0  0  0  0  0  0  0  0  0  0  0
  139.2010   79.0470  223.2740 C   0  0  0  0  0  0  0  0  0  0  0  0
  140.4600   79.6040  223.3370 C   0  0  0  0  0  0  0  0  0  0  0  0
  140.5640   80.9050  223.7870 C   0  0  0  0  0  0  0  0  0  0  0  0
  141.8480   81.4430  223.8400 C   0  0  0  0  0  0  0  0  0  0  0  0
  142.9300   80.6840  223.4560 C   0  0  0  0  0  0  0  0  0  0  0  0
  142.8270   79.3920  223.0080 C   0  0  0  0  0  0  0  0  0  0  0  0
  141.5490   78.8480  222.9520 C   0  0  0  0  0  0  0  0  0  0  0  0
  141.4400   77.5790  222.5130 N   0  0  0  0  0  0  0  0  0  0  0  0
  139.4614   69.9743  226.6112 H   0  0  0  0  0  0  0  0  0  0  0  0
  138.5084   69.9931  225.0887 H   0  0  0  0  0  0  0  0  0  0  0  0
  140.1888   69.3584  225.0887 H   0  0  0  0  0  0  0  0  0  0  0  0
  139.2721   72.2999  225.1721 H   0  0  0  0  0  0  0  0  0  0  0  0
  140.5637   71.6969  227.2801 H   0  0  0  0  0  0  0  0  0  0  0  0
  141.9194   71.2157  226.2042 H   0  0  0  0  0  0  0  0  0  0  0  0
  141.3318   72.9132  226.2042 H   0  0  0  0  0  0  0  0  0  0  0  0
  141.7895   71.3521  224.0310 H   0  0  0  0  0  0  0  0  0  0  0  0
  140.2779   70.5176  223.3911 H   0  0  0  0  0  0  0  0  0  0  0  0
  139.7380   73.2330  223.1950 H   0  0  0  0  0  0  0  0  0  0  0  0
  141.8330   73.5027  220.0098 H   0  0  0  0  0  0  0  0  0  0  0  0
  140.0215   73.5316  220.3342 H   0  0  0  0  0  0  0  0  0  0  0  0
  141.9690   75.6170  221.0810 H   0  0  0  0  0  0  0  0  0  0  0  0
  138.1171   77.2735  222.7603 H   0  0  0  0  0  0  0  0  0  0  0  0
  138.3070   79.6148  223.5711 H   0  0  0  0  0  0  0  0  0  0  0  0
  139.6798   81.4861  224.0878 H   0  0  0  0  0  0  0  0  0  0  0  0
  141.9972   82.4754  224.1891 H   0  0  0  0  0  0  0  0  0  0  0  0
  143.9305   81.1378  223.5114 H   0  0  0  0  0  0  0  0  0  0  0  0
  143.7132   78.8138  222.7074 H   0  0  0  0  0  0  0  0  0  0  0  0
  1  2  1  0
  2  3  1  0
  2  4  1  0
  4  5  1  0
  5  6  1  0
  6  7  2  0
  6  8  1  0
  8  9  1  0
  9 10  1  0
 10 11  2  0
 10 12  1  0
 12 13  2  0
 13 14  1  0
 14 15  2  0
 15 16  1  0
 16 17  2  0
 17 18  1  0
 18 19  2  0
 19 20  1  0
 20 21  2  0
 21 12  1  0
 20 15  1  0
  1 22  1  0
  1 23  1  0
  1 24  1  0
  2 25  1  0
  3 26  1  0
  3 27  1  0
  3 28  1  0
  4 29  1  0
  4 30  1  0
  5 31  1  0
  8 32  1  0
  8 33  1  0
  9 34  1  0
 13 35  1  0
 14 36  1  0
 16 37  1  0
 17 38  1  0
 18 39  1  0
 19 40  1  0
M  END
>  <smiles>  (42) 
CC(C)CNC(=O)CNC(=O)c1ccc2ccccc2n1

>  <score_type>  (42) 
oracle

>  <origin>  (42) 
autodockgpu

>  <m_score__min__energy>  (42) 
-7.5300000000000002

>  <m_primary>  (42) 
energy

>  <rmsd>  (42) 
8.589898344485182

>  <m_score__min__rmsd>  (42) 
8.589898344485182

>  <meeko>  (42) 
{"free_energy": -6.37, "intermolecular_energy": -7.86, "internal_energy": -1.71, "cluster_size": 6, "cluster_id": 3, "rank_in_cluster": 4}

>  <energy>  (42) 
-6.67

>  <cluster_rmsd>  (42) 
0.99

>  <cluster>  (42) 
2

$$$$

     RDKit          3D

 40 41  0  0  0  0  0  0  0  0999 V2000
  141.3120   76.9370  220.8760 C   0  0  0  0  0  0  0  0  0  0  0  0
  140.8640   76.9360  222.3450 C   0  0  0  0  0  0  0  0  0  0  0  0
  141.1100   78.3320  222.8710 C   0  0  0  0  0  0  0  0  0  0  0  0
  139.4120   76.5940  222.3270 C   0  0  0  0  0  0  0  0  0  0  0  0
  139.1100   75.1900  222.2730 N   0  0  0  0  0  0  0  0  0  0  0  0
  138.6370   74.6230  221.0810 C   0  0  0  0  0  0  0  0  0  0  0  0
  138.4950   75.4130  220.0880 O   0  0  0  0  0  0  0  0  0  0  0  0
  138.2880   73.2170  220.8570 C   0  0  0  0  0  0  0  0  0  0  0  0
  138.4960   72.3420  221.9890 N   0  0  0  0  0  0  0  0  0  0  0  0
  139.7110   72.3230  222.7390 C   0  0  0  0  0  0  0  0  0  0  0  0
  140.6950   73.0830  222.4420 O   0  0  0  0  0  0  0  0  0  0  0  0
  139.8530   71.4140  223.8840 C   0  0  0  0  0  0  0  0  0  0  0  0
  139.4620   70.1010  223.7850 C   0  0  0  0  0  0  0  0  0  0  0  0
  139.5760   69.2060  224.8340 C   0  0  0  0  0  0  0  0  0  0  0  0
  140.1050   69.6850  226.0130 C   0  0  0  0  0  0  0  0  0  0  0  0
  140.2230   68.8020  227.0680 C   0  0  0  0  0  0  0  0  0  0  0  0
  140.7610   69.3120  228.2480 C   0  0  0  0  0  0  0  0  0  0  0  0
  141.1430   70.6320  228.3160 C   0  0  0  0  0  0  0  0  0  0  0  0
  141.0260   71.5100  227.2680 C   0  0  0  0  0  0  0  0  0  0  0  0
  140.4900   71.0080  226.0880 C   0  0  0  0  0  0  0  0  0  0  0  0
  140.3720   71.8640  225.0550 N   0  0  0  0  0  0  0  0  0  0  0  0
  142.4109   76.9394  220.8278 H   0  0  0  0  0  0  0  0  0  0  0  0
  140.9250   76.0380  220.3740 H   0  0  0  0  0  0  0  0  0  0  0  0
  140.9210   77.8343  220.3740 H   0  0  0  0  0  0  0  0  0  0  0  0
  141.3993   76.2194  222.9853 H   0  0  0  0  0  0  0  0  0  0  0  0
  141.1070   78.3152  223.9709 H   0  0  0  0  0  0  0  0  0  0  0  0
  142.0855   78.6923  222.5124 H   0  0  0  0  0  0  0  0  0  0  0  0
  140.3164   79.0041  222.5124 H   0  0  0  0  0  0  0  0  0  0  0  0
  138.9553   77.0045  223.2397 H   0  0  0  0  0  0  0  0  0  0  0  0
  139.0103   77.0263  221.3987 H   0  0  0  0  0  0  0  0  0  0  0  0
  139.2260   74.5810  223.1110 H   0  0  0  0  0  0  0  0  0  0  0  0
  137.2239   73.1704  220.5822 H   0  0  0  0  0  0  0  0  0  0  0  0
  138.9629   72.8578  220.0662 H   0  0  0  0  0  0  0  0  0  0  0  0
  137.7520   71.6610  222.3270 H   0  0  0  0  0  0  0  0  0  0  0  0
  139.0410   69.7465  222.8326 H   0  0  0  0  0  0  0  0  0  0  0  0
  139.2583   68.1579  224.7314 H   0  0  0  0  0  0  0  0  0  0  0  0
  139.9089   67.7514  226.9815 H   0  0  0  0  0  0  0  0  0  0  0  0
  140.8803   68.6591  229.1252 H   0  0  0  0  0  0  0  0  0  0  0  0
  141.5650   71.0035  229.2615 H   0  0  0  0  0  0  0  0  0  0  0  0
  141.3411   72.5601  227.3574 H   0  0  0  0  0  0  0  0  0  0  0  0
  1  2  1  0
  2  3  1  0
  2  4  1  0
  4  5  1  0
  5  6  1  0
  6  7  2  0
  6  8  1  0
  8  9  1  0
  9 10  1  0
 10 11  2  0
 10 12  1  0
 12 13  2  0
 13 14  1  0
 14 15  2  0
 15 16  1  0
 16 17  2  0
 17 18  1  0
 18 19  2  0
 19 20  1  0
 20 21  2  0
 21 12  1  0
 20 15  1  0
  1 22  1  0
  1 23  1  0
  1 24  1  0
  2 25  1  0
  3 26  1  0
  3 27  1  0
  3 28  1  0
  4 29  1  0
  4 30  1  0
  5 31  1  0
  8 32  1  0
  8 33  1  0
  9 34  1  0
 13 35  1  0
 14 36  1  0
 16 37  1  0
 17 38  1  0
 18 39  1  0
 19 40  1  0
M  END
>  <smiles>  (43) 
CC(C)CNC(=O)CNC(=O)c1ccc2ccccc2n1

>  <score_type>  (43) 
oracle

>  <origin>  (43) 
autodockgpu

>  <m_score__min__energy>  (43) 
-7.5300000000000002

>  <m_primary>  (43) 
energy

>  <rmsd>  (43) 
2.7088956114312714

>  <m_score__min__rmsd>  (43) 
2.7088956114312714

>  <meeko>  (43) 
{"free_energy": -6.71, "intermolecular_energy": -8.21, "internal_energy": -1.36, "cluster_size": 8, "cluster_id": 1, "rank_in_cluster": 5}

>  <energy>  (43) 
-6.65

>  <cluster_rmsd>  (43) 
1.06

>  <cluster>  (43) 
2

$$$$

     RDKit          3D

 40 41  0  0  0  0  0  0  0  0999 V2000
  146.0400   73.4220  221.2460 C   0  0  0  0  0  0  0  0  0  0  0  0
  145.0060   73.3730  220.1120 C   0  0  0  0  0  0  0  0  0  0  0  0
  144.4680   71.9600  220.0820 C   0  0  0  0  0  0  0  0  0  0  0  0
  143.9520   74.3640  220.4800 C   0  0  0  0  0  0  0  0  0  0  0  0
  142.6660   73.8050  220.7990 N   0  0  0  0  0  0  0  0  0  0  0  0
  141.5260   74.6210  220.7730 C   0  0  0  0  0  0  0  0  0  0  0  0
  141.7060   75.8470  220.4640 O   0  0  0  0  0  0  0  0  0  0  0  0
  140.1490   74.2130  221.0660 C   0  0  0  0  0  0  0  0  0  0  0  0
  139.9800   73.4400  222.2760 N   0  0  0  0  0  0  0  0  0  0  0  0
  140.4240   72.0890  222.4000 C   0  0  0  0  0  0  0  0  0  0  0  0
  140.9970   71.4800  221.4330 O   0  0  0  0  0  0  0  0  0  0  0  0
  140.2270   71.3630  223.6620 C   0  0  0  0  0  0  0  0  0  0  0  0
  139.5780   70.1530  223.6770 C   0  0  0  0  0  0  0  0  0  0  0  0
  139.3690   69.4310  224.8390 C   0  0  0  0  0  0  0  0  0  0  0  0
  139.8420   69.9790  226.0120 C   0  0  0  0  0  0  0  0  0  0  0  0
  139.6380   69.2690  227.1780 C   0  0  0  0  0  0  0  0  0  0  0  0
  140.1260   69.8450  228.3490 C   0  0  0  0  0  0  0  0  0  0  0  0
  140.7720   71.0600  228.3020 C   0  0  0  0  0  0  0  0  0  0  0  0
  140.9740   71.7650  227.1430 C   0  0  0  0  0  0  0  0  0  0  0  0
  140.4900   71.1970  225.9710 C   0  0  0  0  0  0  0  0  0  0  0  0
  140.6850   71.8840  224.8300 N   0  0  0  0  0  0  0  0  0  0  0  0
  145.5218   73.3974  222.2160 H   0  0  0  0  0  0  0  0  0  0  0  0
  146.7120   72.5547  221.1672 H   0  0  0  0  0  0  0  0  0  0  0  0
  146.6270   74.3490  221.1672 H   0  0  0  0  0  0  0  0  0  0  0  0
  145.4062   73.6189  219.1173 H   0  0  0  0  0  0  0  0  0  0  0  0
  144.3302   71.5982  221.1116 H   0  0  0  0  0  0  0  0  0  0  0  0
  143.5019   71.9466  219.5563 H   0  0  0  0  0  0  0  0  0  0  0  0
  145.1806   71.3074  219.5563 H   0  0  0  0  0  0  0  0  0  0  0  0
  144.3053   74.9256  221.3574 H   0  0  0  0  0  0  0  0  0  0  0  0
  143.7985   74.9894  219.5882 H   0  0  0  0  0  0  0  0  0  0  0  0
  142.5640   72.8020  221.0600 H   0  0  0  0  0  0  0  0  0  0  0  0
  139.5363   75.1222  221.1547 H   0  0  0  0  0  0  0  0  0  0  0  0
  139.8429   73.5557  220.2388 H   0  0  0  0  0  0  0  0  0  0  0  0
  139.5120   73.8370  223.1450 H   0  0  0  0  0  0  0  0  0  0  0  0
  139.2091   69.7406  222.7263 H   0  0  0  0  0  0  0  0  0  0  0  0
  138.8482   68.4622  224.8271 H   0  0  0  0  0  0  0  0  0  0  0  0
  139.1177   68.2998  227.1824 H   0  0  0  0  0  0  0  0  0  0  0  0
  139.9951   69.3288  229.3115 H   0  0  0  0  0  0  0  0  0  0  0  0
  141.1459   71.4879  229.2439 H   0  0  0  0  0  0  0  0  0  0  0  0
  141.4945   72.7341  227.1414 H   0  0  0  0  0  0  0  0  0  0  0  0
  1  2  1  0
  2  3  1  0
  2  4  1  0
  4  5  1  0
  5  6  1  0
  6  7  2  0
  6  8  1  0
  8  9  1  0
  9 10  1  0
 10 11  2  0
 10 12  1  0
 12 13  2  0
 13 14  1  0
 14 15  2  0
 15 16  1  0
 16 17  2  0
 17 18  1  0
 18 19  2  0
 19 20  1  0
 20 21  2  0
 21 12  1  0
 20 15  1  0
  1 22  1  0
  1 23  1  0
  1 24  1  0
  2 25  1  0
  3 26  1  0
  3 27  1  0
  3 28  1  0
  4 29  1  0
  4 30  1  0
  5 31  1  0
  8 32  1  0
  8 33  1  0
  9 34  1  0
 13 35  1  0
 14 36  1  0
 16 37  1  0
 17 38  1  0
 18 39  1  0
 19 40  1  0
M  END
>  <smiles>  (44) 
CC(C)CNC(=O)CNC(=O)c1ccc2ccccc2n1

>  <score_type>  (44) 
oracle

>  <origin>  (44) 
autodockgpu

>  <m_score__min__energy>  (44) 
-7.5300000000000002

>  <m_primary>  (44) 
energy

>  <rmsd>  (44) 
3.560278477183546

>  <m_score__min__rmsd>  (44) 
3.560278477183546

>  <meeko>  (44) 
{"free_energy": -6.88, "intermolecular_energy": -8.38, "internal_energy": -1.57, "cluster_size": 36, "cluster_id": 2, "rank_in_cluster": 15}

>  <energy>  (44) 
-6.62

>  <cluster_rmsd>  (44) 
1.02

>  <cluster>  (44) 
2

$$$$

     RDKit          3D

 40 41  0  0  0  0  0  0  0  0999 V2000
  145.9970   73.3950  221.2880 C   0  0  0  0  0  0  0  0  0  0  0  0
  144.9890   73.3410  220.1300 C   0  0  0  0  0  0  0  0  0  0  0  0
  144.4380   71.9330  220.1050 C   0  0  0  0  0  0  0  0  0  0  0  0
  143.9360   74.3460  220.4610 C   0  0  0  0  0  0  0  0  0  0  0  0
  142.6570   73.8010  220.8250 N   0  0  0  0  0  0  0  0  0  0  0  0
  141.5080   74.6010  220.7350 C   0  0  0  0  0  0  0  0  0  0  0  0
  141.6740   75.7990  220.3290 O   0  0  0  0  0  0  0  0  0  0  0  0
  140.1360   74.2020  221.0610 C   0  0  0  0  0  0  0  0  0  0  0  0
  139.9890   73.4330  222.2770 N   0  0  0  0  0  0  0  0  0  0  0  0
  140.4210   72.0770  222.3920 C   0  0  0  0  0  0  0  0  0  0  0  0
  140.9620   71.4600  221.4120 O   0  0  0  0  0  0  0  0  0  0  0  0
  140.2490   71.3560  223.6610 C   0  0  0  0  0  0  0  0  0  0  0  0
  139.6350   70.1280  223.6880 C   0  0  0  0  0  0  0  0  0  0  0  0
  139.4500   69.4100  224.8560 C   0  0  0  0  0  0  0  0  0  0  0  0
  139.9110   69.9800  226.0230 C   0  0  0  0  0  0  0  0  0  0  0  0
  139.7320   69.2740  227.1950 C   0  0  0  0  0  0  0  0  0  0  0  0
  140.2070   69.8730  228.3600 C   0  0  0  0  0  0  0  0  0  0  0  0
  140.8190   71.1050  228.3010 C   0  0  0  0  0  0  0  0  0  0  0  0
  140.9970   71.8070  227.1360 C   0  0  0  0  0  0  0  0  0  0  0  0
  140.5240   71.2160  225.9700 C   0  0  0  0  0  0  0  0  0  0  0  0
  140.6960   71.9000  224.8220 N   0  0  0  0  0  0  0  0  0  0  0  0
  145.4569   73.3661  222.2459 H   0  0  0  0  0  0  0  0  0  0  0  0
  146.6759   72.5319  221.2237 H   0  0  0  0  0  0  0  0  0  0  0  0
  146.5799   74.3257  221.2237 H   0  0  0  0  0  0  0  0  0  0  0  0
  145.4150   73.5704  219.1422 H   0  0  0  0  0  0  0  0  0  0  0  0
  144.2982   71.5756  221.1359 H   0  0  0  0  0  0  0  0  0  0  0  0
  143.4711   71.9269  219.5805 H   0  0  0  0  0  0  0  0  0  0  0  0
  145.1439   71.2723  219.5805 H   0  0  0  0  0  0  0  0  0  0  0  0
  144.2988   74.9527  221.3038 H   0  0  0  0  0  0  0  0  0  0  0  0
  143.7684   74.9241  219.5403 H   0  0  0  0  0  0  0  0  0  0  0  0
  142.5650   72.8210  221.1660 H   0  0  0  0  0  0  0  0  0  0  0  0
  139.5311   75.1153  221.1611 H   0  0  0  0  0  0  0  0  0  0  0  0
  139.8078   73.5438  220.2430 H   0  0  0  0  0  0  0  0  0  0  0  0
  139.5490   73.8370  223.1580 H   0  0  0  0  0  0  0  0  0  0  0  0
  139.2754   69.6974  222.7418 H   0  0  0  0  0  0  0  0  0  0  0  0
  138.9564   68.4270  224.8533 H   0  0  0  0  0  0  0  0  0  0  0  0
  139.2402   68.2902  227.2089 H   0  0  0  0  0  0  0  0  0  0  0  0
  140.0930   69.3615  229.3271 H   0  0  0  0  0  0  0  0  0  0  0  0
  141.1847   71.5501  229.2381 H   0  0  0  0  0  0  0  0  0  0  0  0
  141.4902   72.7902  227.1250 H   0  0  0  0  0  0  0  0  0  0  0  0
  1  2  1  0
  2  3  1  0
  2  4  1  0
  4  5  1  0
  5  6  1  0
  6  7  2  0
  6  8  1  0
  8  9  1  0
  9 10  1  0
 10 11  2  0
 10 12  1  0
 12 13  2  0
 13 14  1  0
 14 15  2  0
 15 16  1  0
 16 17  2  0
 17 18  1  0
 18 19  2  0
 19 20  1  0
 20 21  2  0
 21 12  1  0
 20 15  1  0
  1 22  1  0
  1 23  1  0
  1 24  1  0
  2 25  1  0
  3 26  1  0
  3 27  1  0
  3 28  1  0
  4 29  1  0
  4 30  1  0
  5 31  1  0
  8 32  1  0
  8 33  1  0
  9 34  1  0
 13 35  1  0
 14 36  1  0
 16 37  1  0
 17 38  1  0
 18 39  1  0
 19 40  1  0
M  END
>  <smiles>  (45) 
CC(C)CNC(=O)CNC(=O)c1ccc2ccccc2n1

>  <score_type>  (45) 
oracle

>  <origin>  (45) 
autodockgpu

>  <m_score__min__energy>  (45) 
-7.5300000000000002

>  <m_primary>  (45) 
energy

>  <rmsd>  (45) 
3.559783584309584

>  <m_score__min__rmsd>  (45) 
3.559783584309584

>  <meeko>  (45) 
{"free_energy": -6.85, "intermolecular_energy": -8.35, "internal_energy": -1.6, "cluster_size": 36, "cluster_id": 2, "rank_in_cluster": 22}

>  <energy>  (45) 
-6.42

>  <cluster_rmsd>  (45) 
0.0

>  <cluster>  (45) 
3

$$$$

     RDKit          3D

 40 41  0  0  0  0  0  0  0  0999 V2000
  146.0140   73.4150  221.3490 C   0  0  0  0  0  0  0  0  0  0  0  0
  145.0440   73.3790  220.1590 C   0  0  0  0  0  0  0  0  0  0  0  0
  144.5020   71.9690  220.0880 C   0  0  0  0  0  0  0  0  0  0  0  0
  143.9760   74.3720  220.4760 C   0  0  0  0  0  0  0  0  0  0  0  0
  142.6870   73.8130  220.7840 N   0  0  0  0  0  0  0  0  0  0  0  0
  141.5580   74.6440  220.8200 C   0  0  0  0  0  0  0  0  0  0  0  0
  141.7490   75.8820  220.5750 O   0  0  0  0  0  0  0  0  0  0  0  0
  140.1810   74.2370  221.1120 C   0  0  0  0  0  0  0  0  0  0  0  0
  140.0110   73.4530  222.3150 N   0  0  0  0  0  0  0  0  0  0  0  0
  140.4560   72.1010  222.4270 C   0  0  0  0  0  0  0  0  0  0  0  0
  141.0300   71.5020  221.4550 O   0  0  0  0  0  0  0  0  0  0  0  0
  140.2590   71.3640  223.6820 C   0  0  0  0  0  0  0  0  0  0  0  0
  139.6240   70.1460  223.6840 C   0  0  0  0  0  0  0  0  0  0  0  0
  139.4140   69.4140  224.8390 C   0  0  0  0  0  0  0  0  0  0  0  0
  139.8740   69.9580  226.0190 C   0  0  0  0  0  0  0  0  0  0  0  0
  139.6710   69.2370  227.1790 C   0  0  0  0  0  0  0  0  0  0  0  0
  140.1440   69.8100  228.3570 C   0  0  0  0  0  0  0  0  0  0  0  0
  140.7770   71.0320  228.3230 C   0  0  0  0  0  0  0  0  0  0  0  0
  140.9790   71.7480  227.1710 C   0  0  0  0  0  0  0  0  0  0  0  0
  140.5080   71.1830  225.9910 C   0  0  0  0  0  0  0  0  0  0  0  0
  140.7030   71.8820  224.8560 N   0  0  0  0  0  0  0  0  0  0  0  0
  145.4425   73.3938  222.2887 H   0  0  0  0  0  0  0  0  0  0  0  0
  146.6805   72.5410  221.3054 H   0  0  0  0  0  0  0  0  0  0  0  0
  146.6138   74.3360  221.3054 H   0  0  0  0  0  0  0  0  0  0  0  0
  145.4999   73.6300  219.1899 H   0  0  0  0  0  0  0  0  0  0  0  0
  144.3531   71.5817  221.1067 H   0  0  0  0  0  0  0  0  0  0  0  0
  143.5410   71.9721  219.5528 H   0  0  0  0  0  0  0  0  0  0  0  0
  145.2177   71.3276  219.5528 H   0  0  0  0  0  0  0  0  0  0  0  0
  144.3069   74.9611  221.3440 H   0  0  0  0  0  0  0  0  0  0  0  0
  143.8372   74.9703  219.5634 H   0  0  0  0  0  0  0  0  0  0  0  0
  142.5760   72.7990  220.9920 H   0  0  0  0  0  0  0  0  0  0  0  0
  139.5711   75.1471  221.2103 H   0  0  0  0  0  0  0  0  0  0  0  0
  139.8723   73.5879  220.2793 H   0  0  0  0  0  0  0  0  0  0  0  0
  139.5420   73.8420  223.1880 H   0  0  0  0  0  0  0  0  0  0  0  0
  139.2677   69.7356  222.7276 H   0  0  0  0  0  0  0  0  0  0  0  0
  138.9024   68.4405  224.8167 H   0  0  0  0  0  0  0  0  0  0  0  0
  139.1626   68.2616  227.1730 H   0  0  0  0  0  0  0  0  0  0  0  0
  140.0117   69.2859  229.3150 H   0  0  0  0  0  0  0  0  0  0  0  0
  141.1401   71.4568  229.2705 H   0  0  0  0  0  0  0  0  0  0  0  0
  141.4892   72.7225  227.1800 H   0  0  0  0  0  0  0  0  0  0  0  0
  1  2  1  0
  2  3  1  0
  2  4  1  0
  4  5  1  0
  5  6  1  0
  6  7  2  0
  6  8  1  0
  8  9  1  0
  9 10  1  0
 10 11  2  0
 10 12  1  0
 12 13  2  0
 13 14  1  0
 14 15  2  0
 15 16  1  0
 16 17  2  0
 17 18  1  0
 18 19  2  0
 19 20  1  0
 20 21  2  0
 21 12  1  0
 20 15  1  0
  1 22  1  0
  1 23  1  0
  1 24  1  0
  2 25  1  0
  3 26  1  0
  3 27  1  0
  3 28  1  0
  4 29  1  0
  4 30  1  0
  5 31  1  0
  8 32  1  0
  8 33  1  0
  9 34  1  0
 13 35  1  0
 14 36  1  0
 16 37  1  0
 17 38  1  0
 18 39  1  0
 19 40  1  0
M  END
>  <smiles>  (46) 
CC(C)CNC(=O)CNC(=O)c1ccc2ccccc2n1

>  <score_type>  (46) 
oracle

>  <origin>  (46) 
autodockgpu

>  <m_score__min__energy>  (46) 
-7.5300000000000002

>  <m_primary>  (46) 
energy

>  <rmsd>  (46) 
3.5789643205541415

>  <m_score__min__rmsd>  (46) 
3.5789643205541415

>  <meeko>  (46) 
{"free_energy": -6.89, "intermolecular_energy": -8.38, "internal_energy": -1.58, "cluster_size": 36, "cluster_id": 2, "rank_in_cluster": 11}

>  <energy>  (46) 
-6.4

>  <cluster_rmsd>  (46) 
0.08

>  <cluster>  (46) 
3

$$$$

     RDKit          3D

 40 41  0  0  0  0  0  0  0  0999 V2000
  144.9260   71.9220  219.8530 C   0  0  0  0  0  0  0  0  0  0  0  0
  145.0110   73.1320  220.7950 C   0  0  0  0  0  0  0  0  0  0  0  0
  146.3640   73.7650  220.5610 C   0  0  0  0  0  0  0  0  0  0  0  0
  143.8950   74.0380  220.3940 C   0  0  0  0  0  0  0  0  0  0  0  0
  142.5800   73.6040  220.7810 N   0  0  0  0  0  0  0  0  0  0  0  0
  141.5160   74.5170  220.7810 C   0  0  0  0  0  0  0  0  0  0  0  0
  141.7880   75.7140  220.4330 O   0  0  0  0  0  0  0  0  0  0  0  0
  140.1230   74.2390  221.1430 C   0  0  0  0  0  0  0  0  0  0  0  0
  139.9420   73.4420  222.3350 N   0  0  0  0  0  0  0  0  0  0  0  0
  140.4190   72.1010  222.4500 C   0  0  0  0  0  0  0  0  0  0  0  0
  141.0330   71.5240  221.4890 O   0  0  0  0  0  0  0  0  0  0  0  0
  140.2090   71.3500  223.6950 C   0  0  0  0  0  0  0  0  0  0  0  0
  139.5260   70.1580  223.6830 C   0  0  0  0  0  0  0  0  0  0  0  0
  139.3020   69.4140  224.8280 C   0  0  0  0  0  0  0  0  0  0  0  0
  139.7970   69.9180  226.0110 C   0  0  0  0  0  0  0  0  0  0  0  0
  139.5800   69.1850  227.1610 C   0  0  0  0  0  0  0  0  0  0  0  0
  140.0900   69.7180  228.3430 C   0  0  0  0  0  0  0  0  0  0  0  0
  140.7710   70.9150  228.3220 C   0  0  0  0  0  0  0  0  0  0  0  0
  140.9860   71.6430  227.1800 C   0  0  0  0  0  0  0  0  0  0  0  0
  140.4790   71.1180  225.9970 C   0  0  0  0  0  0  0  0  0  0  0  0
  140.6870   71.8280  224.8720 N   0  0  0  0  0  0  0  0  0  0  0  0
  144.8611   70.9986  220.4472 H   0  0  0  0  0  0  0  0  0  0  0  0
  144.0321   72.0133  219.2185 H   0  0  0  0  0  0  0  0  0  0  0  0
  145.8239   71.8874  219.2185 H   0  0  0  0  0  0  0  0  0  0  0  0
  144.9165   72.8869  221.8632 H   0  0  0  0  0  0  0  0  0  0  0  0
  146.8375   73.9865  221.5289 H   0  0  0  0  0  0  0  0  0  0  0  0
  147.0000   73.0710  219.9920 H   0  0  0  0  0  0  0  0  0  0  0  0
  146.2388   74.6980  219.9920 H   0  0  0  0  0  0  0  0  0  0  0  0
  144.0759   75.0222  220.8508 H   0  0  0  0  0  0  0  0  0  0  0  0
  143.8977   74.0544  219.2941 H   0  0  0  0  0  0  0  0  0  0  0  0
  142.4020   72.6200  221.0740 H   0  0  0  0  0  0  0  0  0  0  0  0
  139.6133   75.2015  221.2971 H   0  0  0  0  0  0  0  0  0  0  0  0
  139.7058   73.6471  220.3150 H   0  0  0  0  0  0  0  0  0  0  0  0
  139.4410   73.8120  223.1980 H   0  0  0  0  0  0  0  0  0  0  0  0
  139.1416   69.7797  222.7243 H   0  0  0  0  0  0  0  0  0  0  0  0
  138.7526   68.4616  224.7952 H   0  0  0  0  0  0  0  0  0  0  0  0
  139.0333   68.2306  227.1447 H   0  0  0  0  0  0  0  0  0  0  0  0
  139.9487   69.1825  229.2934 H   0  0  0  0  0  0  0  0  0  0  0  0
  141.1632   71.3078  229.2717 H   0  0  0  0  0  0  0  0  0  0  0  0
  141.5335   72.5969  227.1992 H   0  0  0  0  0  0  0  0  0  0  0  0
  1  2  1  0
  2  3  1  0
  2  4  1  0
  4  5  1  0
  5  6  1  0
  6  7  2  0
  6  8  1  0
  8  9  1  0
  9 10  1  0
 10 11  2  0
 10 12  1  0
 12 13  2  0
 13 14  1  0
 14 15  2  0
 15 16  1  0
 16 17  2  0
 17 18  1  0
 18 19  2  0
 19 20  1  0
 20 21  2  0
 21 12  1  0
 20 15  1  0
  1 22  1  0
  1 23  1  0
  1 24  1  0
  2 25  1  0
  3 26  1  0
  3 27  1  0
  3 28  1  0
  4 29  1  0
  4 30  1  0
  5 31  1  0
  8 32  1  0
  8 33  1  0
  9 34  1  0
 13 35  1  0
 14 36  1  0
 16 37  1  0
 17 38  1  0
 18 39  1  0
 19 40  1  0
M  END
>  <smiles>  (47) 
CC(C)CNC(=O)CNC(=O)c1ccc2ccccc2n1

>  <score_type>  (47) 
oracle

>  <origin>  (47) 
autodockgpu

>  <m_score__min__energy>  (47) 
-7.5300000000000002

>  <m_primary>  (47) 
energy

>  <rmsd>  (47) 
3.6207213521031956

>  <m_score__min__rmsd>  (47) 
3.6207213521031956

>  <meeko>  (47) 
{"free_energy": -6.81, "intermolecular_energy": -8.3, "internal_energy": -1.52, "cluster_size": 36, "cluster_id": 2, "rank_in_cluster": 28}

>  <energy>  (47) 
-6.39

>  <cluster_rmsd>  (47) 
0.59

>  <cluster>  (47) 
3

$$$$

     RDKit          3D

 40 41  0  0  0  0  0  0  0  0999 V2000
  145.5460   72.9940  219.0720 C   0  0  0  0  0  0  0  0  0  0  0  0
  145.0990   73.2100  220.5250 C   0  0  0  0  0  0  0  0  0  0  0  0
  146.3030   73.7380  221.2710 C   0  0  0  0  0  0  0  0  0  0  0  0
  143.9950   74.2130  220.4650 C   0  0  0  0  0  0  0  0  0  0  0  0
  142.6860   73.7070  220.7770 N   0  0  0  0  0  0  0  0  0  0  0  0
  141.5880   74.5780  220.7970 C   0  0  0  0  0  0  0  0  0  0  0  0
  141.8250   75.8050  220.5330 O   0  0  0  0  0  0  0  0  0  0  0  0
  140.1950   74.2270  221.0900 C   0  0  0  0  0  0  0  0  0  0  0  0
  139.9960   73.4420  222.2870 N   0  0  0  0  0  0  0  0  0  0  0  0
  140.4900   72.1100  222.4310 C   0  0  0  0  0  0  0  0  0  0  0  0
  141.1370   71.5300  221.4930 O   0  0  0  0  0  0  0  0  0  0  0  0
  140.2590   71.3710  223.6800 C   0  0  0  0  0  0  0  0  0  0  0  0
  139.5770   70.1790  223.6690 C   0  0  0  0  0  0  0  0  0  0  0  0
  139.3340   69.4460  224.8170 C   0  0  0  0  0  0  0  0  0  0  0  0
  139.8090   69.9620  226.0030 C   0  0  0  0  0  0  0  0  0  0  0  0
  139.5730   69.2410  227.1560 C   0  0  0  0  0  0  0  0  0  0  0  0
  140.0640   69.7850  228.3410 C   0  0  0  0  0  0  0  0  0  0  0  0
  140.7440   70.9820  228.3200 C   0  0  0  0  0  0  0  0  0  0  0  0
  140.9790   71.6990  227.1740 C   0  0  0  0  0  0  0  0  0  0  0  0
  140.4910   71.1620  225.9880 C   0  0  0  0  0  0  0  0  0  0  0  0
  140.7180   71.8620  224.8600 N   0  0  0  0  0  0  0  0  0  0  0  0
  146.5364   72.5154  219.0604 H   0  0  0  0  0  0  0  0  0  0  0  0
  144.8202   72.3472  218.5574 H   0  0  0  0  0  0  0  0  0  0  0  0
  145.6017   73.9646  218.5574 H   0  0  0  0  0  0  0  0  0  0  0  0
  144.7403   72.3026  221.0330 H   0  0  0  0  0  0  0  0  0  0  0  0
  146.1263   73.6605  222.3539 H   0  0  0  0  0  0  0  0  0  0  0  0
  147.1901   73.1463  221.0010 H   0  0  0  0  0  0  0  0  0  0  0  0
  146.4687   74.7914  221.0010 H   0  0  0  0  0  0  0  0  0  0  0  0
  144.2274   75.0169  221.1790 H   0  0  0  0  0  0  0  0  0  0  0  0
  143.9485   74.5511  219.4193 H   0  0  0  0  0  0  0  0  0  0  0  0
  142.5360   72.7000  221.0010 H   0  0  0  0  0  0  0  0  0  0  0  0
  139.6242   75.1612  221.1971 H   0  0  0  0  0  0  0  0  0  0  0  0
  139.8567   73.5981  220.2533 H   0  0  0  0  0  0  0  0  0  0  0  0
  139.4680   73.8150  223.1330 H   0  0  0  0  0  0  0  0  0  0  0  0
  139.2087   69.7910  222.7078 H   0  0  0  0  0  0  0  0  0  0  0  0
  138.7856   68.4930  224.7843 H   0  0  0  0  0  0  0  0  0  0  0  0
  139.0259   68.2868  227.1402 H   0  0  0  0  0  0  0  0  0  0  0  0
  139.9083   69.2579  229.2938 H   0  0  0  0  0  0  0  0  0  0  0  0
  141.1188   71.3849  229.2725 H   0  0  0  0  0  0  0  0  0  0  0  0
  141.5270   72.6526  227.1927 H   0  0  0  0  0  0  0  0  0  0  0  0
  1  2  1  0
  2  3  1  0
  2  4  1  0
  4  5  1  0
  5  6  1  0
  6  7  2  0
  6  8  1  0
  8  9  1  0
  9 10  1  0
 10 11  2  0
 10 12  1  0
 12 13  2  0
 13 14  1  0
 14 15  2  0
 15 16  1  0
 16 17  2  0
 17 18  1  0
 18 19  2  0
 19 20  1  0
 20 21  2  0
 21 12  1  0
 20 15  1  0
  1 22  1  0
  1 23  1  0
  1 24  1  0
  2 25  1  0
  3 26  1  0
  3 27  1  0
  3 28  1  0
  4 29  1  0
  4 30  1  0
  5 31  1  0
  8 32  1  0
  8 33  1  0
  9 34  1  0
 13 35  1  0
 14 36  1  0
 16 37  1  0
 17 38  1  0
 18 39  1  0
 19 40  1  0
M  END
>  <smiles>  (48) 
CC(C)CNC(=O)CNC(=O)c1ccc2ccccc2n1

>  <score_type>  (48) 
oracle

>  <origin>  (48) 
autodockgpu

>  <m_score__min__energy>  (48) 
-7.5300000000000002

>  <m_primary>  (48) 
energy

>  <rmsd>  (48) 
3.6027308764484474

>  <m_score__min__rmsd>  (48) 
3.6027308764484474

>  <meeko>  (48) 
{"free_energy": -6.92, "intermolecular_energy": -8.41, "internal_energy": -1.5, "cluster_size": 36, "cluster_id": 2, "rank_in_cluster": 7}

>  <energy>  (48) 
-6.37

>  <cluster_rmsd>  (48) 
0.14

>  <cluster>  (48) 
3

$$$$

     RDKit          3D

 40 41  0  0  0  0  0  0  0  0999 V2000
  145.4980   72.1660  219.5860 C   0  0  0  0  0  0  0  0  0  0  0  0
  145.0980   72.9730  220.8310 C   0  0  0  0  0  0  0  0  0  0  0  0
  146.3270   73.7400  221.2600 C   0  0  0  0  0  0  0  0  0  0  0  0
  143.9990   73.8810  220.3890 C   0  0  0  0  0  0  0  0  0  0  0  0
  142.6780   73.5030  220.8140 N   0  0  0  0  0  0  0  0  0  0  0  0
  141.6290   74.4300  220.7390 C   0  0  0  0  0  0  0  0  0  0  0  0
  141.9200   75.5890  220.2890 O   0  0  0  0  0  0  0  0  0  0  0  0
  140.2330   74.2070  221.1260 C   0  0  0  0  0  0  0  0  0  0  0  0
  140.0430   73.4250  222.3260 N   0  0  0  0  0  0  0  0  0  0  0  0
  140.4660   72.0650  222.4400 C   0  0  0  0  0  0  0  0  0  0  0  0
  141.0360   71.4580  221.4700 O   0  0  0  0  0  0  0  0  0  0  0  0
  140.2490   71.3300  223.6930 C   0  0  0  0  0  0  0  0  0  0  0  0
  139.6030   70.1180  223.6880 C   0  0  0  0  0  0  0  0  0  0  0  0
  139.3750   69.3880  224.8410 C   0  0  0  0  0  0  0  0  0  0  0  0
  139.8270   69.9280  226.0260 C   0  0  0  0  0  0  0  0  0  0  0  0
  139.6060   69.2090  227.1830 C   0  0  0  0  0  0  0  0  0  0  0  0
  140.0720   69.7780  228.3670 C   0  0  0  0  0  0  0  0  0  0  0  0
  140.7160   70.9940  228.3390 C   0  0  0  0  0  0  0  0  0  0  0  0
  140.9360   71.7080  227.1890 C   0  0  0  0  0  0  0  0  0  0  0  0
  140.4730   71.1480  226.0050 C   0  0  0  0  0  0  0  0  0  0  0  0
  140.6860   71.8440  224.8720 N   0  0  0  0  0  0  0  0  0  0  0  0
  145.9666   71.2206  219.8968 H   0  0  0  0  0  0  0  0  0  0  0  0
  144.6021   71.9510  218.9850 H   0  0  0  0  0  0  0  0  0  0  0  0
  146.2116   72.7487  218.9850 H   0  0  0  0  0  0  0  0  0  0  0  0
  144.7503   72.3641  221.6785 H   0  0  0  0  0  0  0  0  0  0  0  0
  146.3754   73.7702  222.3585 H   0  0  0  0  0  0  0  0  0  0  0  0
  147.2257   73.2422  220.8669 H   0  0  0  0  0  0  0  0  0  0  0  0
  146.2746   74.7660  220.8669 H   0  0  0  0  0  0  0  0  0  0  0  0
  144.2086   74.8855  220.7854 H   0  0  0  0  0  0  0  0  0  0  0  0
  143.9893   73.8326  219.2901 H   0  0  0  0  0  0  0  0  0  0  0  0
  142.4860   72.5510  221.1890 H   0  0  0  0  0  0  0  0  0  0  0  0
  139.7625   75.1890  221.2821 H   0  0  0  0  0  0  0  0  0  0  0  0
  139.7796   73.6263  220.3092 H   0  0  0  0  0  0  0  0  0  0  0  0
  139.5760   73.8200  223.1970 H   0  0  0  0  0  0  0  0  0  0  0  0
  139.2525   69.7110  222.7280 H   0  0  0  0  0  0  0  0  0  0  0  0
  138.8556   68.4188  224.8133 H   0  0  0  0  0  0  0  0  0  0  0  0
  139.0893   68.2380  227.1714 H   0  0  0  0  0  0  0  0  0  0  0  0
  139.9251   69.2552  229.3236 H   0  0  0  0  0  0  0  0  0  0  0  0
  141.0734   71.4158  229.2900 H   0  0  0  0  0  0  0  0  0  0  0  0
  141.4545   72.6780  227.2034 H   0  0  0  0  0  0  0  0  0  0  0  0
  1  2  1  0
  2  3  1  0
  2  4  1  0
  4  5  1  0
  5  6  1  0
  6  7  2  0
  6  8  1  0
  8  9  1  0
  9 10  1  0
 10 11  2  0
 10 12  1  0
 12 13  2  0
 13 14  1  0
 14 15  2  0
 15 16  1  0
 16 17  2  0
 17 18  1  0
 18 19  2  0
 19 20  1  0
 20 21  2  0
 21 12  1  0
 20 15  1  0
  1 22  1  0
  1 23  1  0
  1 24  1  0
  2 25  1  0
  3 26  1  0
  3 27  1  0
  3 28  1  0
  4 29  1  0
  4 30  1  0
  5 31  1  0
  8 32  1  0
  8 33  1  0
  9 34  1  0
 13 35  1  0
 14 36  1  0
 16 37  1  0
 17 38  1  0
 18 39  1  0
 19 40  1  0
M  END
>  <smiles>  (49) 
CC(C)CNC(=O)CNC(=O)c1ccc2ccccc2n1

>  <score_type>  (49) 
oracle

>  <origin>  (49) 
autodockgpu

>  <m_score__min__energy>  (49) 
-7.5300000000000002

>  <m_primary>  (49) 
energy

>  <rmsd>  (49) 
3.727909631407575

>  <m_score__min__rmsd>  (49) 
3.727909631407575

>  <meeko>  (49) 
{"free_energy": -6.88, "intermolecular_energy": -8.37, "internal_energy": -1.51, "cluster_size": 36, "cluster_id": 2, "rank_in_cluster": 17}

>  <energy>  (49) 
-6.29

>  <cluster_rmsd>  (49) 
0.65

>  <cluster>  (49) 
3

$$$$

     RDKit          3D

 40 41  0  0  0  0  0  0  0  0999 V2000
  142.5580   79.4750  222.9830 C   0  0  0  0  0  0  0  0  0  0  0  0
  141.3730   78.5100  223.1440 C   0  0  0  0  0  0  0  0  0  0  0  0
  140.2390   79.3170  223.7330 C   0  0  0  0  0  0  0  0  0  0  0  0
  141.0570   78.0230  221.7690 C   0  0  0  0  0  0  0  0  0  0  0  0
  141.2280   76.6100  221.5620 N   0  0  0  0  0  0  0  0  0  0  0  0
  140.1050   75.7920  221.3750 C   0  0  0  0  0  0  0  0  0  0  0  0
  138.9660   76.3670  221.4060 O   0  0  0  0  0  0  0  0  0  0  0  0
  140.1040   74.3440  221.1490 C   0  0  0  0  0  0  0  0  0  0  0  0
  139.9650   73.5340  222.3390 N   0  0  0  0  0  0  0  0  0  0  0  0
  140.3990   72.1750  222.4060 C   0  0  0  0  0  0  0  0  0  0  0  0
  140.9340   71.5930  221.4020 O   0  0  0  0  0  0  0  0  0  0  0  0
  140.2350   71.4110  223.6500 C   0  0  0  0  0  0  0  0  0  0  0  0
  139.5920   70.1970  223.6440 C   0  0  0  0  0  0  0  0  0  0  0  0
  139.4130   69.4410  224.7880 C   0  0  0  0  0  0  0  0  0  0  0  0
  139.9110   69.9560  225.9650 C   0  0  0  0  0  0  0  0  0  0  0  0
  139.7380   69.2110  227.1150 C   0  0  0  0  0  0  0  0  0  0  0  0
  140.2490   69.7550  228.2910 C   0  0  0  0  0  0  0  0  0  0  0  0
  140.8880   70.9740  228.2650 C   0  0  0  0  0  0  0  0  0  0  0  0
  141.0600   71.7140  227.1230 C   0  0  0  0  0  0  0  0  0  0  0  0
  140.5510   71.1780  225.9460 C   0  0  0  0  0  0  0  0  0  0  0  0
  140.7160   71.9010  224.8220 N   0  0  0  0  0  0  0  0  0  0  0  0
  142.9250   79.7739  223.9760 H   0  0  0  0  0  0  0  0  0  0  0  0
  143.3658   78.9745  222.4289 H   0  0  0  0  0  0  0  0  0  0  0  0
  142.2315   80.3674  222.4289 H   0  0  0  0  0  0  0  0  0  0  0  0
  141.5697   77.6489  223.7996 H   0  0  0  0  0  0  0  0  0  0  0  0
  140.2932   79.2784  224.8310 H   0  0  0  0  0  0  0  0  0  0  0  0
  140.3200   80.3617  223.3984 H   0  0  0  0  0  0  0  0  0  0  0  0
  139.2785   78.8982  223.3984 H   0  0  0  0  0  0  0  0  0  0  0  0
  140.0080   78.2735  221.5527 H   0  0  0  0  0  0  0  0  0  0  0  0
  141.7759   78.5173  221.0990 H   0  0  0  0  0  0  0  0  0  0  0  0
  142.1750   76.1770  221.5580 H   0  0  0  0  0  0  0  0  0  0  0  0
  139.2675   74.1055  220.4757 H   0  0  0  0  0  0  0  0  0  0  0  0
  141.0908   74.1006  220.7283 H   0  0  0  0  0  0  0  0  0  0  0  0
  139.5300   73.9070  223.2350 H   0  0  0  0  0  0  0  0  0  0  0  0
  139.2036   69.8105  222.6902 H   0  0  0  0  0  0  0  0  0  0  0  0
  138.8956   68.4707  224.7596 H   0  0  0  0  0  0  0  0  0  0  0  0
  139.2235   68.2388  227.1028 H   0  0  0  0  0  0  0  0  0  0  0  0
  140.1419   69.2104  229.2407 H   0  0  0  0  0  0  0  0  0  0  0  0
  141.2816   71.3760  229.2103 H   0  0  0  0  0  0  0  0  0  0  0  0
  141.5761   72.6853  227.1380 H   0  0  0  0  0  0  0  0  0  0  0  0
  1  2  1  0
  2  3  1  0
  2  4  1  0
  4  5  1  0
  5  6  1  0
  6  7  2  0
  6  8  1  0
  8  9  1  0
  9 10  1  0
 10 11  2  0
 10 12  1  0
 12 13  2  0
 13 14  1  0
 14 15  2  0
 15 16  1  0
 16 17  2  0
 17 18  1  0
 18 19  2  0
 19 20  1  0
 20 21  2  0
 21 12  1  0
 20 15  1  0
  1 22  1  0
  1 23  1  0
  1 24  1  0
  2 25  1  0
  3 26  1  0
  3 27  1  0
  3 28  1  0
  4 29  1  0
  4 30  1  0
  5 31  1  0
  8 32  1  0
  8 33  1  0
  9 34  1  0
 13 35  1  0
 14 36  1  0
 16 37  1  0
 17 38  1  0
 18 39  1  0
 19 40  1  0
M  END
>  <smiles>  (50) 
CC(C)CNC(=O)CNC(=O)c1ccc2ccccc2n1

>  <score_type>  (50) 
oracle

>  <origin>  (50) 
autodockgpu

>  <m_score__min__energy>  (50) 
-7.5300000000000002

>  <m_primary>  (50) 
energy

>  <rmsd>  (50) 
3.4128455496562955

>  <m_score__min__rmsd>  (50) 
3.4128455496562955

>  <meeko>  (50) 
{"free_energy": -7.53, "intermolecular_energy": -9.02, "internal_energy": -0.78, "cluster_size": 8, "cluster_id": 1, "rank_in_cluster": 1}

>  <energy>  (50) 
-6.27

>  <cluster_rmsd>  (50) 
0.71

>  <cluster>  (50) 
3

$$$$
