
     RDKit          3D

 49 52  0  0  0  0  0  0  0  0999 V2000
  139.9100   71.0640  221.2160 O   0  0  0  0  0  0  0  0  0  0  0  0
  139.6030   71.7250  222.2660 C   0  0  0  0  0  0  0  0  0  0  0  0
  139.0280   73.0350  222.1450 N   0  0  0  0  0  0  0  0  0  0  0  0
  138.7690   73.6980  220.9220 C   0  0  0  0  0  0  0  0  0  0  0  0
  139.7260   73.6330  219.8350 C   0  0  0  0  0  0  0  0  0  0  0  0
  139.2340   73.8450  218.6620 O   0  0  0  0  0  0  0  0  0  0  0  0
  141.1230   73.3780  219.8780 N   0  0  0  0  0  0  0  0  0  0  0  0
  141.9290   72.5230  218.9950 C   0  0  0  0  0  0  0  0  0  0  0  0
  143.1710   72.2310  219.8870 C   0  0  2  0  0  0  0  0  0  0  0  0
  142.8430   71.3870  220.9350 O   0  0  0  0  0  0  0  0  0  0  0  0
  143.3630   73.6300  220.4920 C   0  0  0  0  0  0  0  0  0  0  0  0
  141.9740   73.9730  220.8980 C   0  0  1  0  0  0  0  0  0  0  0  0
  141.7980   75.4490  220.9610 C   0  0  0  0  0  0  0  0  0  0  0  0
  141.0670   76.0000  221.9880 C   0  0  0  0  0  0  0  0  0  0  0  0
  140.9020   77.3830  222.0470 C   0  0  0  0  0  0  0  0  0  0  0  0
  141.4780   78.1800  221.0690 C   0  0  0  0  0  0  0  0  0  0  0  0
  141.2950   79.9410  221.1030 Cl  0  0  0  0  0  0  0  0  0  0  0  0
  142.2040   77.5830  220.0550 C   0  0  0  0  0  0  0  0  0  0  0  0
  142.3890   76.2190  219.9630 C   0  0  0  0  0  0  0  0  0  0  0  0
  139.8450   71.1340  223.5990 C   0  0  0  0  0  0  0  0  0  0  0  0
  139.5540   69.8180  223.8050 C   0  0  0  0  0  0  0  0  0  0  0  0
  139.7960   69.2940  225.0750 C   0  0  0  0  0  0  0  0  0  0  0  0
  140.3150   70.0950  226.0930 C   0  0  0  0  0  0  0  0  0  0  0  0
  140.5500   69.5600  227.3540 C   0  0  0  0  0  0  0  0  0  0  0  0
  141.0710   70.4050  228.3390 C   0  0  0  0  0  0  0  0  0  0  0  0
  141.3510   71.7320  228.0850 C   0  0  0  0  0  0  0  0  0  0  0  0
  141.1020   72.2230  226.8180 C   0  0  0  0  0  0  0  0  0  0  0  0
  140.5890   71.4250  225.8190 C   0  0  0  0  0  0  0  0  0  0  0  0
  140.3520   71.9080  224.5990 N   0  0  0  0  0  0  0  0  0  0  0  0
  138.8020   73.4910  223.0810 H   0  0  0  0  0  0  0  0  0  0  0  0
  137.8239   73.2890  220.5353 H   0  0  0  0  0  0  0  0  0  0  0  0
  138.7882   74.7604  221.2065 H   0  0  0  0  0  0  0  0  0  0  0  0
  141.3945   71.5971  218.7361 H   0  0  0  0  0  0  0  0  0  0  0  0
  142.1729   72.9848  218.0269 H   0  0  0  0  0  0  0  0  0  0  0  0
  144.0167   71.7765  219.3501 H   0  0  0  0  0  0  0  0  0  0  0  0
  141.8510   71.2200  220.9850 H   0  0  0  0  0  0  0  0  0  0  0  0
  144.0396   73.6031  221.3589 H   0  0  0  0  0  0  0  0  0  0  0  0
  143.8206   74.3562  219.8041 H   0  0  0  0  0  0  0  0  0  0  0  0
  141.7254   73.5936  221.9001 H   0  0  0  0  0  0  0  0  0  0  0  0
  140.6164   75.3545  222.7563 H   0  0  0  0  0  0  0  0  0  0  0  0
  140.3201   77.8381  222.8620 H   0  0  0  0  0  0  0  0  0  0  0  0
  142.6554   78.2261  219.2852 H   0  0  0  0  0  0  0  0  0  0  0  0
  142.9707   75.7653  219.1470 H   0  0  0  0  0  0  0  0  0  0  0  0
  139.1433   69.1922  222.9990 H   0  0  0  0  0  0  0  0  0  0  0  0
  139.5748   68.2355  225.2766 H   0  0  0  0  0  0  0  0  0  0  0  0
  140.3327   68.5037  227.5708 H   0  0  0  0  0  0  0  0  0  0  0  0
  141.2628   70.0007  229.3438 H   0  0  0  0  0  0  0  0  0  0  0  0
  141.7620   72.3823  228.8713 H   0  0  0  0  0  0  0  0  0  0  0  0
  141.3191   73.2793  226.6010 H   0  0  0  0  0  0  0  0  0  0  0  0
  1  2  2  0
  2  3  1  0
  3  4  1  0
  4  5  1  0
  5  6  2  0
  5  7  1  0
  7  8  1  0
  8  9  1  0
  9 10  1  0
  9 11  1  0
 11 12  1  0
 12 13  1  0
 13 14  2  0
 14 15  1  0
 15 16  2  0
 16 17  1  0
 16 18  1  0
 18 19  2  0
  2 20  1  0
 20 21  2  0
 21 22  1  0
 22 23  2  0
 23 24  1  0
 24 25  2  0
 25 26  1  0
 26 27  2  0
 27 28  1  0
 28 29  2  0
 12  7  1  0
 19 13  1  0
 29 20  1  0
 28 23  1  0
  3 30  1  0
  4 31  1  0
  4 32  1  0
  8 33  1  0
  8 34  1  0
  9 35  1  6
 10 36  1  0
 11 37  1  0
 11 38  1  0
 12 39  1  1
 14 40  1  0
 15 41  1  0
 18 42  1  0
 19 43  1  0
 21 44  1  0
 22 45  1  0
 24 46  1  0
 25 47  1  0
 26 48  1  0
 27 49  1  0
M  END
>  <smiles>  (1) 
O=C(NCC(=O)N1C[C@H](O)C[C@H]1c1ccc(Cl)cc1)c1ccc2ccccc2n1

>  <score_type>  (1) 
oracle

>  <origin>  (1) 
autodockgpu

>  <m_score__min__energy>  (1) 
-9.0500000000000007

>  <m_primary>  (1) 
energy

>  <rmsd>  (1) 
2.733511459320496

>  <m_score__min__rmsd>  (1) 
2.733511459320496

>  <meeko>  (1) 
{"free_energy": -7.37, "intermolecular_energy": -9.16, "internal_energy": -2.67, "cluster_size": 22, "cluster_id": 6, "rank_in_cluster": 12}

>  <energy>  (1) 
-9.05

>  <cluster_rmsd>  (1) 
0.0

>  <cluster>  (1) 
1

$$$$

     RDKit          3D

 49 52  0  0  0  0  0  0  0  0999 V2000
  138.8150   74.9380  221.7080 O   0  0  0  0  0  0  0  0  0  0  0  0
  139.9630   75.4480  221.9460 C   0  0  0  0  0  0  0  0  0  0  0  0
  141.1480   74.6570  221.7670 N   0  0  0  0  0  0  0  0  0  0  0  0
  141.1670   73.3060  221.3480 C   0  0  0  0  0  0  0  0  0  0  0  0
  140.4480   72.2950  222.0990 C   0  0  0  0  0  0  0  0  0  0  0  0
  141.1880   71.5190  222.8160 O   0  0  0  0  0  0  0  0  0  0  0  0
  139.0520   72.0410  222.1630 N   0  0  0  0  0  0  0  0  0  0  0  0
  138.0860   71.9270  221.0600 C   0  0  0  0  0  0  0  0  0  0  0  0
  136.7420   72.2280  221.7860 C   0  0  2  0  0  0  0  0  0  0  0  0
  136.6590   73.5630  222.1460 O   0  0  0  0  0  0  0  0  0  0  0  0
  136.9890   71.4380  223.0800 C   0  0  0  0  0  0  0  0  0  0  0  0
  138.3670   71.8710  223.4360 C   0  0  1  0  0  0  0  0  0  0  0  0
  139.0350   70.8440  224.2810 C   0  0  0  0  0  0  0  0  0  0  0  0
  138.7850   69.5110  224.0480 C   0  0  0  0  0  0  0  0  0  0  0  0
  139.4100   68.5490  224.8390 C   0  0  0  0  0  0  0  0  0  0  0  0
  140.2740   68.9520  225.8470 C   0  0  0  0  0  0  0  0  0  0  0  0
  141.0910   67.7650  226.8760 Cl  0  0  0  0  0  0  0  0  0  0  0  0
  140.4950   70.3020  226.0450 C   0  0  0  0  0  0  0  0  0  0  0  0
  139.8940   71.2830  225.2830 C   0  0  0  0  0  0  0  0  0  0  0  0
  140.0590   76.8490  222.4030 C   0  0  0  0  0  0  0  0  0  0  0  0
  138.9160   77.5390  222.6790 C   0  0  0  0  0  0  0  0  0  0  0  0
  139.0460   78.8600  223.1080 C   0  0  0  0  0  0  0  0  0  0  0  0
  140.3050   79.4480  223.2470 C   0  0  0  0  0  0  0  0  0  0  0  0
  140.4190   80.7650  223.6760 C   0  0  0  0  0  0  0  0  0  0  0  0
  141.7020   81.3060  223.7980 C   0  0  0  0  0  0  0  0  0  0  0  0
  142.8330   80.5700  223.5070 C   0  0  0  0  0  0  0  0  0  0  0  0
  142.6730   79.2650  223.0850 C   0  0  0  0  0  0  0  0  0  0  0  0
  141.4280   78.6930  222.9500 C   0  0  0  0  0  0  0  0  0  0  0  0
  141.2840   77.4310  222.5410 N   0  0  0  0  0  0  0  0  0  0  0  0
  142.0490   75.1820  221.9840 H   0  0  0  0  0  0  0  0  0  0  0  0
  140.7624   73.2869  220.3253 H   0  0  0  0  0  0  0  0  0  0  0  0
  142.2194   73.0174  221.4868 H   0  0  0  0  0  0  0  0  0  0  0  0
  138.2896   72.6655  220.2706 H   0  0  0  0  0  0  0  0  0  0  0  0
  138.1080   70.9550  220.5455 H   0  0  0  0  0  0  0  0  0  0  0  0
  135.8456   71.9898  221.1946 H   0  0  0  0  0  0  0  0  0  0  0  0
  137.4290   73.8420  222.7300 H   0  0  0  0  0  0  0  0  0  0  0  0
  136.2668   71.7136  223.8626 H   0  0  0  0  0  0  0  0  0  0  0  0
  136.8767   70.3495  222.9683 H   0  0  0  0  0  0  0  0  0  0  0  0
  138.3744   72.8009  224.0236 H   0  0  0  0  0  0  0  0  0  0  0  0
  138.0979   69.2075  223.2444 H   0  0  0  0  0  0  0  0  0  0  0  0
  139.2200   67.4795  224.6658 H   0  0  0  0  0  0  0  0  0  0  0  0
  141.1820   70.6087  226.8475 H   0  0  0  0  0  0  0  0  0  0  0  0
  140.0836   72.3523  225.4582 H   0  0  0  0  0  0  0  0  0  0  0  0
  137.9268   77.0709  222.5674 H   0  0  0  0  0  0  0  0  0  0  0  0
  138.1447   79.4464  223.3399 H   0  0  0  0  0  0  0  0  0  0  0  0
  139.5268   81.3634  223.9123 H   0  0  0  0  0  0  0  0  0  0  0  0
  141.8135   82.3471  224.1352 H   0  0  0  0  0  0  0  0  0  0  0  0
  143.8354   81.0115  223.6086 H   0  0  0  0  0  0  0  0  0  0  0  0
  143.5651   78.6658  222.8502 H   0  0  0  0  0  0  0  0  0  0  0  0
  1  2  2  0
  2  3  1  0
  3  4  1  0
  4  5  1  0
  5  6  2  0
  5  7  1  0
  7  8  1  0
  8  9  1  0
  9 10  1  0
  9 11  1  0
 11 12  1  0
 12 13  1  0
 13 14  2  0
 14 15  1  0
 15 16  2  0
 16 17  1  0
 16 18  1  0
 18 19  2  0
  2 20  1  0
 20 21  2  0
 21 22  1  0
 22 23  2  0
 23 24  1  0
 24 25  2  0
 25 26  1  0
 26 27  2  0
 27 28  1  0
 28 29  2  0
 12  7  1  0
 19 13  1  0
 29 20  1  0
 28 23  1  0
  3 30  1  0
  4 31  1  0
  4 32  1  0
  8 33  1  0
  8 34  1  0
  9 35  1  6
 10 36  1  0
 11 37  1  0
 11 38  1  0
 12 39  1  1
 14 40  1  0
 15 41  1  0
 18 42  1  0
 19 43  1  0
 21 44  1  0
 22 45  1  0
 24 46  1  0
 25 47  1  0
 26 48  1  0
 27 49  1  0
M  END
>  <smiles>  (2) 
O=C(NCC(=O)N1C[C@H](O)C[C@H]1c1ccc(Cl)cc1)c1ccc2ccccc2n1

>  <score_type>  (2) 
oracle

>  <origin>  (2) 
autodockgpu

>  <m_score__min__energy>  (2) 
-9.0500000000000007

>  <m_primary>  (2) 
energy

>  <rmsd>  (2) 
7.903645702347543

>  <m_score__min__rmsd>  (2) 
7.903645702347543

>  <meeko>  (2) 
{"free_energy": -7.83, "intermolecular_energy": -9.62, "internal_energy": -2.28, "cluster_size": 4, "cluster_id": 4, "rank_in_cluster": 1}

>  <energy>  (2) 
-9.03

>  <cluster_rmsd>  (2) 
0.4

>  <cluster>  (2) 
1

$$$$

     RDKit          3D

 49 52  0  0  0  0  0  0  0  0999 V2000
  140.5800   71.3900  221.3200 O   0  0  0  0  0  0  0  0  0  0  0  0
  140.1900   71.9490  222.4010 C   0  0  0  0  0  0  0  0  0  0  0  0
  139.8990   73.3550  222.4140 N   0  0  0  0  0  0  0  0  0  0  0  0
  140.0190   74.2200  221.3020 C   0  0  0  0  0  0  0  0  0  0  0  0
  140.4790   75.5830  221.4790 C   0  0  0  0  0  0  0  0  0  0  0  0
  140.4100   76.0290  222.6880 O   0  0  0  0  0  0  0  0  0  0  0  0
  140.9990   76.4920  220.5190 N   0  0  0  0  0  0  0  0  0  0  0  0
  141.0320   76.3630  219.0550 C   0  0  0  0  0  0  0  0  0  0  0  0
  142.1850   77.3390  218.6780 C   0  0  2  0  0  0  0  0  0  0  0  0
  143.4140   76.8330  219.0710 O   0  0  0  0  0  0  0  0  0  0  0  0
  141.8520   78.4850  219.6460 C   0  0  0  0  0  0  0  0  0  0  0  0
  141.6230   77.7450  220.9170 C   0  0  1  0  0  0  0  0  0  0  0  0
  140.7420   78.5280  221.8250 C   0  0  0  0  0  0  0  0  0  0  0  0
  141.2550   79.0270  223.0010 C   0  0  0  0  0  0  0  0  0  0  0  0
  140.4290   79.7600  223.8510 C   0  0  0  0  0  0  0  0  0  0  0  0
  139.1050   79.9740  223.4980 C   0  0  0  0  0  0  0  0  0  0  0  0
  138.0200   80.9000  224.5470 Cl  0  0  0  0  0  0  0  0  0  0  0  0
  138.6330   79.4540  222.3080 C   0  0  0  0  0  0  0  0  0  0  0  0
  139.4190   78.7230  221.4400 C   0  0  0  0  0  0  0  0  0  0  0  0
  140.0440   71.1410  223.6300 C   0  0  0  0  0  0  0  0  0  0  0  0
  139.4900   69.8990  223.5460 C   0  0  0  0  0  0  0  0  0  0  0  0
  139.3670   69.1650  224.7260 C   0  0  0  0  0  0  0  0  0  0  0  0
  139.7970   69.6930  225.9460 C   0  0  0  0  0  0  0  0  0  0  0  0
  139.6680   68.9500  227.1130 C   0  0  0  0  0  0  0  0  0  0  0  0
  140.1140   69.5250  228.3080 C   0  0  0  0  0  0  0  0  0  0  0  0
  140.6680   70.7880  228.3450 C   0  0  0  0  0  0  0  0  0  0  0  0
  140.7770   71.4900  227.1610 C   0  0  0  0  0  0  0  0  0  0  0  0
  140.3500   70.9620  225.9630 C   0  0  0  0  0  0  0  0  0  0  0  0
  140.4600   71.6480  224.8240 N   0  0  0  0  0  0  0  0  0  0  0  0
  139.5730   73.7140  223.3630 H   0  0  0  0  0  0  0  0  0  0  0  0
  140.7184   73.7392  220.6023 H   0  0  0  0  0  0  0  0  0  0  0  0
  138.9768   74.3501  220.9750 H   0  0  0  0  0  0  0  0  0  0  0  0
  141.2629   75.3321  218.7484 H   0  0  0  0  0  0  0  0  0  0  0  0
  140.0744   76.5926  218.5648 H   0  0  0  0  0  0  0  0  0  0  0  0
  142.2505   77.5678  217.6040 H   0  0  0  0  0  0  0  0  0  0  0  0
  143.8760   77.4400  219.7280 H   0  0  0  0  0  0  0  0  0  0  0  0
  142.6914   79.1900  219.7375 H   0  0  0  0  0  0  0  0  0  0  0  0
  141.0007   79.1055  219.3294 H   0  0  0  0  0  0  0  0  0  0  0  0
  142.5557   77.5703  221.4733 H   0  0  0  0  0  0  0  0  0  0  0  0
  142.3073   78.8488  223.2673 H   0  0  0  0  0  0  0  0  0  0  0  0
  140.8239   80.1655  224.7942 H   0  0  0  0  0  0  0  0  0  0  0  0
  137.5810   79.6309  222.0396 H   0  0  0  0  0  0  0  0  0  0  0  0
  139.0221   78.3177  220.4976 H   0  0  0  0  0  0  0  0  0  0  0  0
  139.1519   69.4898  222.5825 H   0  0  0  0  0  0  0  0  0  0  0  0
  138.9259   68.1578  224.6955 H   0  0  0  0  0  0  0  0  0  0  0  0
  139.2291   67.9415  227.0979 H   0  0  0  0  0  0  0  0  0  0  0  0
  140.0204   68.9544  229.2437 H   0  0  0  0  0  0  0  0  0  0  0  0
  141.0140   71.2246  229.2935 H   0  0  0  0  0  0  0  0  0  0  0  0
  141.2167   72.4982  227.1751 H   0  0  0  0  0  0  0  0  0  0  0  0
  1  2  2  0
  2  3  1  0
  3  4  1  0
  4  5  1  0
  5  6  2  0
  5  7  1  0
  7  8  1  0
  8  9  1  0
  9 10  1  0
  9 11  1  0
 11 12  1  0
 12 13  1  0
 13 14  2  0
 14 15  1  0
 15 16  2  0
 16 17  1  0
 16 18  1  0
 18 19  2  0
  2 20  1  0
 20 21  2  0
 21 22  1  0
 22 23  2  0
 23 24  1  0
 24 25  2  0
 25 26  1  0
 26 27  2  0
 27 28  1  0
 28 29  2  0
 12  7  1  0
 19 13  1  0
 29 20  1  0
 28 23  1  0
  3 30  1  0
  4 31  1  0
  4 32  1  0
  8 33  1  0
  8 34  1  0
  9 35  1  6
 10 36  1  0
 11 37  1  0
 11 38  1  0
 12 39  1  1
 14 40  1  0
 15 41  1  0
 18 42  1  0
 19 43  1  0
 21 44  1  0
 22 45  1  0
 24 46  1  0
 25 47  1  0
 26 48  1  0
 27 49  1  0
M  END
>  <smiles>  (3) 
O=C(NCC(=O)N1C[C@H](O)C[C@H]1c1ccc(Cl)cc1)c1ccc2ccccc2n1

>  <score_type>  (3) 
oracle

>  <origin>  (3) 
autodockgpu

>  <m_score__min__energy>  (3) 
-9.0500000000000007

>  <m_primary>  (3) 
energy

>  <rmsd>  (3) 
1.6455612374670363

>  <m_score__min__rmsd>  (3) 
1.6455612374670363

>  <meeko>  (3) 
{"free_energy": -8.98, "intermolecular_energy": -10.77, "internal_energy": -1.36, "cluster_size": 11, "cluster_id": 1, "rank_in_cluster": 3}

>  <energy>  (3) 
-8.98

>  <cluster_rmsd>  (3) 
0.48

>  <cluster>  (3) 
1

$$$$

     RDKit          3D

 49 52  0  0  0  0  0  0  0  0999 V2000
  139.7250   70.9700  221.1920 O   0  0  0  0  0  0  0  0  0  0  0  0
  139.5270   71.6760  222.2390 C   0  0  0  0  0  0  0  0  0  0  0  0
  139.0410   73.0210  222.1130 N   0  0  0  0  0  0  0  0  0  0  0  0
  138.7610   73.6720  220.8900 C   0  0  0  0  0  0  0  0  0  0  0  0
  139.7130   73.6240  219.7970 C   0  0  0  0  0  0  0  0  0  0  0  0
  139.2160   73.8510  218.6290 O   0  0  0  0  0  0  0  0  0  0  0  0
  141.1110   73.3700  219.8300 N   0  0  0  0  0  0  0  0  0  0  0  0
  141.9140   72.5300  218.9300 C   0  0  0  0  0  0  0  0  0  0  0  0
  143.1600   72.2240  219.8120 C   0  0  2  0  0  0  0  0  0  0  0  0
  142.8370   71.3620  220.8470 O   0  0  0  0  0  0  0  0  0  0  0  0
  143.3530   73.6130  220.4400 C   0  0  0  0  0  0  0  0  0  0  0  0
  141.9650   73.9480  220.8570 C   0  0  1  0  0  0  0  0  0  0  0  0
  141.7890   75.4230  220.9450 C   0  0  0  0  0  0  0  0  0  0  0  0
  141.0460   75.9540  221.9760 C   0  0  0  0  0  0  0  0  0  0  0  0
  140.8800   77.3350  222.0580 C   0  0  0  0  0  0  0  0  0  0  0  0
  141.4660   78.1510  221.1010 C   0  0  0  0  0  0  0  0  0  0  0  0
  141.2820   79.9100  221.1660 Cl  0  0  0  0  0  0  0  0  0  0  0  0
  142.2020   77.5730  220.0840 C   0  0  0  0  0  0  0  0  0  0  0  0
  142.3880   76.2110  219.9680 C   0  0  0  0  0  0  0  0  0  0  0  0
  139.8010   71.0990  223.5710 C   0  0  0  0  0  0  0  0  0  0  0  0
  139.5480   69.7770  223.7880 C   0  0  0  0  0  0  0  0  0  0  0  0
  139.8190   69.2680  225.0580 C   0  0  0  0  0  0  0  0  0  0  0  0
  140.3300   70.0890  226.0660 C   0  0  0  0  0  0  0  0  0  0  0  0
  140.5950   69.5670  227.3260 C   0  0  0  0  0  0  0  0  0  0  0  0
  141.1050   70.4320  228.3000 C   0  0  0  0  0  0  0  0  0  0  0  0
  141.3460   71.7640  228.0350 C   0  0  0  0  0  0  0  0  0  0  0  0
  141.0690   72.2400  226.7680 C   0  0  0  0  0  0  0  0  0  0  0  0
  140.5640   71.4240  225.7800 C   0  0  0  0  0  0  0  0  0  0  0  0
  140.3000   71.8930  224.5600 N   0  0  0  0  0  0  0  0  0  0  0  0
  138.9020   73.5140  223.0480 H   0  0  0  0  0  0  0  0  0  0  0  0
  137.8231   73.2404  220.5105 H   0  0  0  0  0  0  0  0  0  0  0  0
  138.7587   74.7357  221.1702 H   0  0  0  0  0  0  0  0  0  0  0  0
  141.3790   71.6081  218.6581 H   0  0  0  0  0  0  0  0  0  0  0  0
  142.1538   73.0078  217.9687 H   0  0  0  0  0  0  0  0  0  0  0  0
  144.0039   71.7795  219.2641 H   0  0  0  0  0  0  0  0  0  0  0  0
  141.8410   71.2450  220.9390 H   0  0  0  0  0  0  0  0  0  0  0  0
  144.0328   73.5721  221.3038 H   0  0  0  0  0  0  0  0  0  0  0  0
  143.8073   74.3512  219.7628 H   0  0  0  0  0  0  0  0  0  0  0  0
  141.7199   73.5515  221.8533 H   0  0  0  0  0  0  0  0  0  0  0  0
  140.5880   75.2941  222.7275 H   0  0  0  0  0  0  0  0  0  0  0  0
  140.2891   77.7748  222.8749 H   0  0  0  0  0  0  0  0  0  0  0  0
  142.6614   78.2303  219.3311 H   0  0  0  0  0  0  0  0  0  0  0  0
  142.9770   75.7728  219.1488 H   0  0  0  0  0  0  0  0  0  0  0  0
  139.1449   69.1353  222.9907 H   0  0  0  0  0  0  0  0  0  0  0  0
  139.6277   68.2055  225.2687 H   0  0  0  0  0  0  0  0  0  0  0  0
  140.4095   68.5063  227.5508 H   0  0  0  0  0  0  0  0  0  0  0  0
  141.3197   70.0391  229.3048 H   0  0  0  0  0  0  0  0  0  0  0  0
  141.7484   72.4301  228.8124 H   0  0  0  0  0  0  0  0  0  0  0  0
  141.2570   73.3000  226.5420 H   0  0  0  0  0  0  0  0  0  0  0  0
  1  2  2  0
  2  3  1  0
  3  4  1  0
  4  5  1  0
  5  6  2  0
  5  7  1  0
  7  8  1  0
  8  9  1  0
  9 10  1  0
  9 11  1  0
 11 12  1  0
 12 13  1  0
 13 14  2  0
 14 15  1  0
 15 16  2  0
 16 17  1  0
 16 18  1  0
 18 19  2  0
  2 20  1  0
 20 21  2  0
 21 22  1  0
 22 23  2  0
 23 24  1  0
 24 25  2  0
 25 26  1  0
 26 27  2  0
 27 28  1  0
 28 29  2  0
 12  7  1  0
 19 13  1  0
 29 20  1  0
 28 23  1  0
  3 30  1  0
  4 31  1  0
  4 32  1  0
  8 33  1  0
  8 34  1  0
  9 35  1  6
 10 36  1  0
 11 37  1  0
 11 38  1  0
 12 39  1  1
 14 40  1  0
 15 41  1  0
 18 42  1  0
 19 43  1  0
 21 44  1  0
 22 45  1  0
 24 46  1  0
 25 47  1  0
 26 48  1  0
 27 49  1  0
M  END
>  <smiles>  (4) 
O=C(NCC(=O)N1C[C@H](O)C[C@H]1c1ccc(Cl)cc1)c1ccc2ccccc2n1

>  <score_type>  (4) 
oracle

>  <origin>  (4) 
autodockgpu

>  <m_score__min__energy>  (4) 
-9.0500000000000007

>  <m_primary>  (4) 
energy

>  <rmsd>  (4) 
2.723323477376166

>  <m_score__min__rmsd>  (4) 
2.723323477376166

>  <meeko>  (4) 
{"free_energy": -7.34, "intermolecular_energy": -9.13, "internal_energy": -2.71, "cluster_size": 22, "cluster_id": 6, "rank_in_cluster": 15}

>  <energy>  (4) 
-8.96

>  <cluster_rmsd>  (4) 
0.52

>  <cluster>  (4) 
1

$$$$

     RDKit          3D

 49 52  0  0  0  0  0  0  0  0999 V2000
  139.9000   71.0660  221.2240 O   0  0  0  0  0  0  0  0  0  0  0  0
  139.5790   71.7180  222.2740 C   0  0  0  0  0  0  0  0  0  0  0  0
  138.9790   73.0170  222.1550 N   0  0  0  0  0  0  0  0  0  0  0  0
  138.7110   73.6780  220.9330 C   0  0  0  0  0  0  0  0  0  0  0  0
  139.6930   73.6760  219.8660 C   0  0  0  0  0  0  0  0  0  0  0  0
  139.2290   73.9680  218.6980 O   0  0  0  0  0  0  0  0  0  0  0  0
  141.0860   73.4050  219.9240 N   0  0  0  0  0  0  0  0  0  0  0  0
  141.8880   72.5230  219.0630 C   0  0  0  0  0  0  0  0  0  0  0  0
  143.1200   72.2340  219.9700 C   0  0  2  0  0  0  0  0  0  0  0  0
  142.7750   71.4150  221.0330 O   0  0  0  0  0  0  0  0  0  0  0  0
  143.3250   73.6420  220.5480 C   0  0  0  0  0  0  0  0  0  0  0  0
  141.9370   74.0100  220.9380 C   0  0  1  0  0  0  0  0  0  0  0  0
  141.7790   75.4890  220.9690 C   0  0  0  0  0  0  0  0  0  0  0  0
  142.3510   76.2520  219.9760 C   0  0  0  0  0  0  0  0  0  0  0  0
  142.2040   77.6370  220.0050 C   0  0  0  0  0  0  0  0  0  0  0  0
  141.4820   78.2240  221.0350 C   0  0  0  0  0  0  0  0  0  0  0  0
  141.2680   79.9800  221.1130 Cl  0  0  0  0  0  0  0  0  0  0  0  0
  140.9260   77.4190  222.0110 C   0  0  0  0  0  0  0  0  0  0  0  0
  141.0510   76.0450  222.0160 C   0  0  0  0  0  0  0  0  0  0  0  0
  139.8280   71.1280  223.6060 C   0  0  0  0  0  0  0  0  0  0  0  0
  139.5450   69.8110  223.8130 C   0  0  0  0  0  0  0  0  0  0  0  0
  139.7930   69.2890  225.0830 C   0  0  0  0  0  0  0  0  0  0  0  0
  140.3120   70.0920  226.0990 C   0  0  0  0  0  0  0  0  0  0  0  0
  140.5550   69.5580  227.3590 C   0  0  0  0  0  0  0  0  0  0  0  0
  141.0750   70.4060  228.3420 C   0  0  0  0  0  0  0  0  0  0  0  0
  141.3480   71.7340  228.0870 C   0  0  0  0  0  0  0  0  0  0  0  0
  141.0920   72.2230  226.8210 C   0  0  0  0  0  0  0  0  0  0  0  0
  140.5790   71.4230  225.8240 C   0  0  0  0  0  0  0  0  0  0  0  0
  140.3350   71.9050  224.6040 N   0  0  0  0  0  0  0  0  0  0  0  0
  138.7430   73.4670  223.0910 H   0  0  0  0  0  0  0  0  0  0  0  0
  137.7977   73.2231  220.5220 H   0  0  0  0  0  0  0  0  0  0  0  0
  138.6674   74.7368  221.2280 H   0  0  0  0  0  0  0  0  0  0  0  0
  141.3443   71.5986  218.8183 H   0  0  0  0  0  0  0  0  0  0  0  0
  142.1441   72.9626  218.0877 H   0  0  0  0  0  0  0  0  0  0  0  0
  143.9635   71.7584  219.4482 H   0  0  0  0  0  0  0  0  0  0  0  0
  141.7790   71.2740  221.0890 H   0  0  0  0  0  0  0  0  0  0  0  0
  143.9956   73.6244  221.4198 H   0  0  0  0  0  0  0  0  0  0  0  0
  143.7958   74.3487  219.8488 H   0  0  0  0  0  0  0  0  0  0  0  0
  141.6770   73.6542  221.9459 H   0  0  0  0  0  0  0  0  0  0  0  0
  142.9196   75.7718  219.1660 H   0  0  0  0  0  0  0  0  0  0  0  0
  142.6559   78.2597  219.2189 H   0  0  0  0  0  0  0  0  0  0  0  0
  140.3568   77.8963  222.8223 H   0  0  0  0  0  0  0  0  0  0  0  0
  140.6002   75.4238  222.8039 H   0  0  0  0  0  0  0  0  0  0  0  0
  139.1360   69.1825  223.0082 H   0  0  0  0  0  0  0  0  0  0  0  0
  139.5763   68.2298  225.2859 H   0  0  0  0  0  0  0  0  0  0  0  0
  140.3447   68.5004  227.5764 H   0  0  0  0  0  0  0  0  0  0  0  0
  141.2718   70.0029  229.3464 H   0  0  0  0  0  0  0  0  0  0  0  0
  141.7589   72.3864  228.8716 H   0  0  0  0  0  0  0  0  0  0  0  0
  141.3036   73.2802  226.6029 H   0  0  0  0  0  0  0  0  0  0  0  0
  1  2  2  0
  2  3  1  0
  3  4  1  0
  4  5  1  0
  5  6  2  0
  5  7  1  0
  7  8  1  0
  8  9  1  0
  9 10  1  0
  9 11  1  0
 11 12  1  0
 12 13  1  0
 13 14  2  0
 14 15  1  0
 15 16  2  0
 16 17  1  0
 16 18  1  0
 18 19  2  0
  2 20  1  0
 20 21  2  0
 21 22  1  0
 22 23  2  0
 23 24  1  0
 24 25  2  0
 25 26  1  0
 26 27  2  0
 27 28  1  0
 28 29  2  0
 12  7  1  0
 19 13  1  0
 29 20  1  0
 28 23  1  0
  3 30  1  0
  4 31  1  0
  4 32  1  0
  8 33  1  0
  8 34  1  0
  9 35  1  6
 10 36  1  0
 11 37  1  0
 11 38  1  0
 12 39  1  1
 14 40  1  0
 15 41  1  0
 18 42  1  0
 19 43  1  0
 21 44  1  0
 22 45  1  0
 24 46  1  0
 25 47  1  0
 26 48  1  0
 27 49  1  0
M  END
>  <smiles>  (5) 
O=C(NCC(=O)N1C[C@H](O)C[C@H]1c1ccc(Cl)cc1)c1ccc2ccccc2n1

>  <score_type>  (5) 
oracle

>  <origin>  (5) 
autodockgpu

>  <m_score__min__energy>  (5) 
-9.0500000000000007

>  <m_primary>  (5) 
energy

>  <rmsd>  (5) 
2.7226462910491502

>  <m_score__min__rmsd>  (5) 
2.7226462910491502

>  <meeko>  (5) 
{"free_energy": -7.32, "intermolecular_energy": -9.11, "internal_energy": -2.69, "cluster_size": 22, "cluster_id": 6, "rank_in_cluster": 17}

>  <energy>  (5) 
-8.89

>  <cluster_rmsd>  (5) 
0.52

>  <cluster>  (5) 
1

$$$$

     RDKit          3D

 49 52  0  0  0  0  0  0  0  0999 V2000
  141.1320   72.5400  221.5290 O   0  0  0  0  0  0  0  0  0  0  0  0
  140.1840   72.6960  222.3710 C   0  0  0  0  0  0  0  0  0  0  0  0
  139.3330   73.8490  222.2850 N   0  0  0  0  0  0  0  0  0  0  0  0
  139.4560   74.8790  221.3240 C   0  0  0  0  0  0  0  0  0  0  0  0
  140.7220   75.5610  221.1370 C   0  0  0  0  0  0  0  0  0  0  0  0
  141.6490   75.2270  221.9690 O   0  0  0  0  0  0  0  0  0  0  0  0
  141.0880   76.5340  220.1690 N   0  0  0  0  0  0  0  0  0  0  0  0
  141.0070   76.4490  218.7030 C   0  0  0  0  0  0  0  0  0  0  0  0
  142.0470   77.5230  218.2670 C   0  0  2  0  0  0  0  0  0  0  0  0
  143.3380   77.1030  218.5400 O   0  0  0  0  0  0  0  0  0  0  0  0
  141.7110   78.6110  219.2980 C   0  0  0  0  0  0  0  0  0  0  0  0
  141.6470   77.8210  220.5570 C   0  0  1  0  0  0  0  0  0  0  0  0
  140.7890   78.5060  221.5610 C   0  0  0  0  0  0  0  0  0  0  0  0
  141.3130   78.8240  222.7940 C   0  0  0  0  0  0  0  0  0  0  0  0
  140.5090   79.4650  223.7350 C   0  0  0  0  0  0  0  0  0  0  0  0
  139.1960   79.7740  223.4120 C   0  0  0  0  0  0  0  0  0  0  0  0
  138.1390   80.5890  224.5750 Cl  0  0  0  0  0  0  0  0  0  0  0  0
  138.7120   79.4350  222.1620 C   0  0  0  0  0  0  0  0  0  0  0  0
  139.4760   78.7990  221.2050 C   0  0  0  0  0  0  0  0  0  0  0  0
  139.9730   71.6860  223.4280 C   0  0  0  0  0  0  0  0  0  0  0  0
  139.2600   70.5610  223.1400 C   0  0  0  0  0  0  0  0  0  0  0  0
  139.0810   69.6300  224.1640 C   0  0  0  0  0  0  0  0  0  0  0  0
  139.6150   69.8500  225.4340 C   0  0  0  0  0  0  0  0  0  0  0  0
  139.4290   68.9130  226.4440 C   0  0  0  0  0  0  0  0  0  0  0  0
  139.9850   69.1820  227.6990 C   0  0  0  0  0  0  0  0  0  0  0  0
  140.7000   70.3360  227.9460 C   0  0  0  0  0  0  0  0  0  0  0  0
  140.8610   71.2390  226.9130 C   0  0  0  0  0  0  0  0  0  0  0  0
  140.3300   71.0140  225.6620 C   0  0  0  0  0  0  0  0  0  0  0  0
  140.4910   71.8930  224.6720 N   0  0  0  0  0  0  0  0  0  0  0  0
  138.5710   73.8730  223.0290 H   0  0  0  0  0  0  0  0  0  0  0  0
  139.1887   74.4377  220.3525 H   0  0  0  0  0  0  0  0  0  0  0  0
  138.8043   75.6702  221.7231 H   0  0  0  0  0  0  0  0  0  0  0  0
  141.2888   75.4485  218.3431 H   0  0  0  0  0  0  0  0  0  0  0  0
  139.9969   76.6163  218.3010 H   0  0  0  0  0  0  0  0  0  0  0  0
  142.0045   77.7875  217.2001 H   0  0  0  0  0  0  0  0  0  0  0  0
  143.7310   77.5880  219.3300 H   0  0  0  0  0  0  0  0  0  0  0  0
  142.4991   79.3770  219.3445 H   0  0  0  0  0  0  0  0  0  0  0  0
  140.7910   79.1709  219.0739 H   0  0  0  0  0  0  0  0  0  0  0  0
  142.6343   77.7055  221.0282 H   0  0  0  0  0  0  0  0  0  0  0  0
  142.3570   78.5743  223.0343 H   0  0  0  0  0  0  0  0  0  0  0  0
  140.9123   79.7236  224.7252 H   0  0  0  0  0  0  0  0  0  0  0  0
  137.6685   79.6841  221.9189 H   0  0  0  0  0  0  0  0  0  0  0  0
  139.0701   78.5383  220.2164 H   0  0  0  0  0  0  0  0  0  0  0  0
  138.8408   70.3929  222.1370 H   0  0  0  0  0  0  0  0  0  0  0  0
  138.5110   68.7100  223.9671 H   0  0  0  0  0  0  0  0  0  0  0  0
  138.8619   67.9883  226.2618 H   0  0  0  0  0  0  0  0  0  0  0  0
  139.8485   68.4533  228.5116 H   0  0  0  0  0  0  0  0  0  0  0  0
  141.1304   70.5318  228.9392 H   0  0  0  0  0  0  0  0  0  0  0  0
  141.4290   72.1634  227.0945 H   0  0  0  0  0  0  0  0  0  0  0  0
  1  2  2  0
  2  3  1  0
  3  4  1  0
  4  5  1  0
  5  6  2  0
  5  7  1  0
  7  8  1  0
  8  9  1  0
  9 10  1  0
  9 11  1  0
 11 12  1  0
 12 13  1  0
 13 14  2  0
 14 15  1  0
 15 16  2  0
 16 17  1  0
 16 18  1  0
 18 19  2  0
  2 20  1  0
 20 21  2  0
 21 22  1  0
 22 23  2  0
 23 24  1  0
 24 25  2  0
 25 26  1  0
 26 27  2  0
 27 28  1  0
 28 29  2  0
 12  7  1  0
 19 13  1  0
 29 20  1  0
 28 23  1  0
  3 30  1  0
  4 31  1  0
  4 32  1  0
  8 33  1  0
  8 34  1  0
  9 35  1  6
 10 36  1  0
 11 37  1  0
 11 38  1  0
 12 39  1  1
 14 40  1  0
 15 41  1  0
 18 42  1  0
 19 43  1  0
 21 44  1  0
 22 45  1  0
 24 46  1  0
 25 47  1  0
 26 48  1  0
 27 49  1  0
M  END
>  <smiles>  (6) 
O=C(NCC(=O)N1C[C@H](O)C[C@H]1c1ccc(Cl)cc1)c1ccc2ccccc2n1

>  <score_type>  (6) 
oracle

>  <origin>  (6) 
autodockgpu

>  <m_score__min__energy>  (6) 
-9.0500000000000007

>  <m_primary>  (6) 
energy

>  <rmsd>  (6) 
1.6727509367478164

>  <m_score__min__rmsd>  (6) 
1.6727509367478164

>  <meeko>  (6) 
{"free_energy": -8.58, "intermolecular_energy": -10.37, "internal_energy": -1.24, "cluster_size": 11, "cluster_id": 1, "rank_in_cluster": 7}

>  <energy>  (6) 
-8.8

>  <cluster_rmsd>  (6) 
0.52

>  <cluster>  (6) 
1

$$$$

     RDKit          3D

 49 52  0  0  0  0  0  0  0  0999 V2000
  141.4580   72.3900  221.9350 O   0  0  0  0  0  0  0  0  0  0  0  0
  140.3830   72.4090  222.6250 C   0  0  0  0  0  0  0  0  0  0  0  0
  139.3520   73.3580  222.3180 N   0  0  0  0  0  0  0  0  0  0  0  0
  139.4190   74.3260  221.2890 C   0  0  0  0  0  0  0  0  0  0  0  0
  140.0510   75.6090  221.5280 C   0  0  0  0  0  0  0  0  0  0  0  0
  139.9790   76.0340  222.7440 O   0  0  0  0  0  0  0  0  0  0  0  0
  140.7410   76.4570  220.6210 N   0  0  0  0  0  0  0  0  0  0  0  0
  140.9000   76.3140  219.1670 C   0  0  0  0  0  0  0  0  0  0  0  0
  142.1690   77.1760  218.9020 C   0  0  2  0  0  0  0  0  0  0  0  0
  143.3030   76.5610  219.4080 O   0  0  0  0  0  0  0  0  0  0  0  0
  141.8550   78.3550  219.8340 C   0  0  0  0  0  0  0  0  0  0  0  0
  141.4390   77.6510  221.0770 C   0  0  1  0  0  0  0  0  0  0  0  0
  140.5530   78.5190  221.8980 C   0  0  0  0  0  0  0  0  0  0  0  0
  139.2830   78.8050  221.4500 C   0  0  0  0  0  0  0  0  0  0  0  0
  138.4530   79.6190  222.2190 C   0  0  0  0  0  0  0  0  0  0  0  0
  138.9210   80.1270  223.4220 C   0  0  0  0  0  0  0  0  0  0  0  0
  137.9010   81.1640  224.4310 Cl  0  0  0  0  0  0  0  0  0  0  0  0
  140.2030   79.8140  223.8320 C   0  0  0  0  0  0  0  0  0  0  0  0
  141.0540   79.0130  223.0990 C   0  0  0  0  0  0  0  0  0  0  0  0
  140.2120   71.4490  223.7360 C   0  0  0  0  0  0  0  0  0  0  0  0
  139.5680   70.2710  223.5040 C   0  0  0  0  0  0  0  0  0  0  0  0
  139.4250   69.3900  224.5760 C   0  0  0  0  0  0  0  0  0  0  0  0
  139.9250   69.7130  225.8400 C   0  0  0  0  0  0  0  0  0  0  0  0
  139.7750   68.8260  226.8990 C   0  0  0  0  0  0  0  0  0  0  0  0
  140.2930   69.1970  228.1430 C   0  0  0  0  0  0  0  0  0  0  0  0
  140.9380   70.4020  228.3330 C   0  0  0  0  0  0  0  0  0  0  0  0
  141.0650   71.2530  227.2520 C   0  0  0  0  0  0  0  0  0  0  0  0
  140.5690   70.9270  226.0100 C   0  0  0  0  0  0  0  0  0  0  0  0
  140.6960   71.7560  224.9720 N   0  0  0  0  0  0  0  0  0  0  0  0
  138.4960   73.2790  222.9480 H   0  0  0  0  0  0  0  0  0  0  0  0
  139.9587   73.8595  220.4516 H   0  0  0  0  0  0  0  0  0  0  0  0
  138.3639   74.5944  221.1316 H   0  0  0  0  0  0  0  0  0  0  0  0
  141.0621   75.2638  218.8827 H   0  0  0  0  0  0  0  0  0  0  0  0
  140.0185   76.6274  218.5885 H   0  0  0  0  0  0  0  0  0  0  0  0
  142.3563   77.3896  217.8393 H   0  0  0  0  0  0  0  0  0  0  0  0
  143.7830   77.1480  220.0700 H   0  0  0  0  0  0  0  0  0  0  0  0
  142.7442   78.9795  220.0048 H   0  0  0  0  0  0  0  0  0  0  0  0
  141.0989   79.0492  219.4384 H   0  0  0  0  0  0  0  0  0  0  0  0
  142.2950   77.3961  221.7191 H   0  0  0  0  0  0  0  0  0  0  0  0
  138.9265   78.3948  220.4937 H   0  0  0  0  0  0  0  0  0  0  0  0
  137.4356   79.8565  221.8749 H   0  0  0  0  0  0  0  0  0  0  0  0
  140.5619   80.2229  224.7880 H   0  0  0  0  0  0  0  0  0  0  0  0
  142.0716   78.7779  223.4443 H   0  0  0  0  0  0  0  0  0  0  0  0
  139.1748   70.0235  222.5069 H   0  0  0  0  0  0  0  0  0  0  0  0
  138.9121   68.4288  224.4243 H   0  0  0  0  0  0  0  0  0  0  0  0
  139.2642   67.8614  226.7625 H   0  0  0  0  0  0  0  0  0  0  0  0
  140.1834   68.5092  228.9944 H   0  0  0  0  0  0  0  0  0  0  0  0
  141.3404   70.6777  229.3189 H   0  0  0  0  0  0  0  0  0  0  0  0
  141.5764   72.2174  227.3875 H   0  0  0  0  0  0  0  0  0  0  0  0
  1  2  2  0
  2  3  1  0
  3  4  1  0
  4  5  1  0
  5  6  2  0
  5  7  1  0
  7  8  1  0
  8  9  1  0
  9 10  1  0
  9 11  1  0
 11 12  1  0
 12 13  1  0
 13 14  2  0
 14 15  1  0
 15 16  2  0
 16 17  1  0
 16 18  1  0
 18 19  2  0
  2 20  1  0
 20 21  2  0
 21 22  1  0
 22 23  2  0
 23 24  1  0
 24 25  2  0
 25 26  1  0
 26 27  2  0
 27 28  1  0
 28 29  2  0
 12  7  1  0
 19 13  1  0
 29 20  1  0
 28 23  1  0
  3 30  1  0
  4 31  1  0
  4 32  1  0
  8 33  1  0
  8 34  1  0
  9 35  1  6
 10 36  1  0
 11 37  1  0
 11 38  1  0
 12 39  1  1
 14 40  1  0
 15 41  1  0
 18 42  1  0
 19 43  1  0
 21 44  1  0
 22 45  1  0
 24 46  1  0
 25 47  1  0
 26 48  1  0
 27 49  1  0
M  END
>  <smiles>  (7) 
O=C(NCC(=O)N1C[C@H](O)C[C@H]1c1ccc(Cl)cc1)c1ccc2ccccc2n1

>  <score_type>  (7) 
oracle

>  <origin>  (7) 
autodockgpu

>  <m_score__min__energy>  (7) 
-9.0500000000000007

>  <m_primary>  (7) 
energy

>  <rmsd>  (7) 
1.666038680961038

>  <m_score__min__rmsd>  (7) 
1.666038680961038

>  <meeko>  (7) 
{"free_energy": -9.05, "intermolecular_energy": -10.84, "internal_energy": -1.1, "cluster_size": 11, "cluster_id": 1, "rank_in_cluster": 1}

>  <energy>  (7) 
-8.58

>  <cluster_rmsd>  (7) 
0.66

>  <cluster>  (7) 
1

$$$$

     RDKit          3D

 49 52  0  0  0  0  0  0  0  0999 V2000
  138.8780   71.0130  221.5620 O   0  0  0  0  0  0  0  0  0  0  0  0
  139.3040   71.4990  222.6640 C   0  0  0  0  0  0  0  0  0  0  0  0
  139.6060   72.8990  222.7600 N   0  0  0  0  0  0  0  0  0  0  0  0
  139.4840   73.8300  221.7030 C   0  0  0  0  0  0  0  0  0  0  0  0
  139.4190   75.2520  221.9820 C   0  0  0  0  0  0  0  0  0  0  0  0
  140.5200   75.7760  222.4020 O   0  0  0  0  0  0  0  0  0  0  0  0
  138.3240   76.1470  221.8530 N   0  0  0  0  0  0  0  0  0  0  0  0
  136.9230   75.9520  222.2570 C   0  0  0  0  0  0  0  0  0  0  0  0
  136.1880   76.9850  221.3540 C   0  0  2  0  0  0  0  0  0  0  0  0
  136.1960   76.5820  220.0280 O   0  0  0  0  0  0  0  0  0  0  0  0
  137.1830   78.1500  221.4660 C   0  0  0  0  0  0  0  0  0  0  0  0
  138.4800   77.4570  221.2380 C   0  0  1  0  0  0  0  0  0  0  0  0
  139.5960   78.2210  221.8600 C   0  0  0  0  0  0  0  0  0  0  0  0
  140.7550   78.4240  221.1460 C   0  0  0  0  0  0  0  0  0  0  0  0
  141.8010   79.1390  221.7290 C   0  0  0  0  0  0  0  0  0  0  0  0
  141.6540   79.6330  223.0170 C   0  0  0  0  0  0  0  0  0  0  0  0
  142.9540   80.5470  223.7970 Cl  0  0  0  0  0  0  0  0  0  0  0  0
  140.4720   79.4030  223.6950 C   0  0  0  0  0  0  0  0  0  0  0  0
  139.4160   78.7010  223.1530 C   0  0  0  0  0  0  0  0  0  0  0  0
  139.4840   70.6110  223.8320 C   0  0  0  0  0  0  0  0  0  0  0  0
  139.0850   69.3110  223.7470 C   0  0  0  0  0  0  0  0  0  0  0  0
  139.2700   68.5030  224.8690 C   0  0  0  0  0  0  0  0  0  0  0  0
  139.8430   69.0160  226.0340 C   0  0  0  0  0  0  0  0  0  0  0  0
  140.0200   68.1990  227.1440 C   0  0  0  0  0  0  0  0  0  0  0  0
  140.5990   68.7620  228.2860 C   0  0  0  0  0  0  0  0  0  0  0  0
  140.9880   70.0850  228.3280 C   0  0  0  0  0  0  0  0  0  0  0  0
  140.7930   70.8600  227.2020 C   0  0  0  0  0  0  0  0  0  0  0  0
  140.2260   70.3460  226.0560 C   0  0  0  0  0  0  0  0  0  0  0  0
  140.0420   71.1030  224.9730 N   0  0  0  0  0  0  0  0  0  0  0  0
  139.9440   73.1980  223.7250 H   0  0  0  0  0  0  0  0  0  0  0  0
  140.3523   73.6766  221.0453 H   0  0  0  0  0  0  0  0  0  0  0  0
  138.4871   73.6112  221.2926 H   0  0  0  0  0  0  0  0  0  0  0  0
  136.5849   74.9260  222.0497 H   0  0  0  0  0  0  0  0  0  0  0  0
  136.7447   76.0929  223.3333 H   0  0  0  0  0  0  0  0  0  0  0  0
  135.1407   77.1674  221.6366 H   0  0  0  0  0  0  0  0  0  0  0  0
  136.8870   75.8700  219.8580 H   0  0  0  0  0  0  0  0  0  0  0  0
  136.9952   78.9139  220.6971 H   0  0  0  0  0  0  0  0  0  0  0  0
  137.1282   78.6959  222.4194 H   0  0  0  0  0  0  0  0  0  0  0  0
  138.7264   77.3721  220.1693 H   0  0  0  0  0  0  0  0  0  0  0  0
  140.8554   78.0262  220.1254 H   0  0  0  0  0  0  0  0  0  0  0  0
  142.7343   79.3097  221.1724 H   0  0  0  0  0  0  0  0  0  0  0  0
  140.3685   79.7989  224.7161 H   0  0  0  0  0  0  0  0  0  0  0  0
  138.4839   78.5303  223.7117 H   0  0  0  0  0  0  0  0  0  0  0  0
  138.6332   68.9128  222.8265 H   0  0  0  0  0  0  0  0  0  0  0  0
  138.9604   67.4480  224.8353 H   0  0  0  0  0  0  0  0  0  0  0  0
  139.7143   67.1425  227.1252 H   0  0  0  0  0  0  0  0  0  0  0  0
  140.7484   68.1323  229.1755 H   0  0  0  0  0  0  0  0  0  0  0  0
  141.4417   70.5113  229.2349 H   0  0  0  0  0  0  0  0  0  0  0  0
  141.0986   71.9165  227.2202 H   0  0  0  0  0  0  0  0  0  0  0  0
  1  2  2  0
  2  3  1  0
  3  4  1  0
  4  5  1  0
  5  6  2  0
  5  7  1  0
  7  8  1  0
  8  9  1  0
  9 10  1  0
  9 11  1  0
 11 12  1  0
 12 13  1  0
 13 14  2  0
 14 15  1  0
 15 16  2  0
 16 17  1  0
 16 18  1  0
 18 19  2  0
  2 20  1  0
 20 21  2  0
 21 22  1  0
 22 23  2  0
 23 24  1  0
 24 25  2  0
 25 26  1  0
 26 27  2  0
 27 28  1  0
 28 29  2  0
 12  7  1  0
 19 13  1  0
 29 20  1  0
 28 23  1  0
  3 30  1  0
  4 31  1  0
  4 32  1  0
  8 33  1  0
  8 34  1  0
  9 35  1  1
 10 36  1  0
 11 37  1  0
 11 38  1  0
 12 39  1  6
 14 40  1  0
 15 41  1  0
 18 42  1  0
 19 43  1  0
 21 44  1  0
 22 45  1  0
 24 46  1  0
 25 47  1  0
 26 48  1  0
 27 49  1  0
M  END
>  <smiles>  (8) 
O=C(NCC(=O)N1C[C@H](O)C[C@H]1c1ccc(Cl)cc1)c1ccc2ccccc2n1

>  <score_type>  (8) 
oracle

>  <origin>  (8) 
autodockgpu

>  <m_score__min__energy>  (8) 
-9.0500000000000007

>  <m_primary>  (8) 
energy

>  <rmsd>  (8) 
2.7890902023358892

>  <m_score__min__rmsd>  (8) 
2.7890902023358892

>  <meeko>  (8) 
{"free_energy": -8.1, "intermolecular_energy": -9.89, "internal_energy": -1.42, "cluster_size": 1, "cluster_id": 2, "rank_in_cluster": 1}

>  <energy>  (8) 
-8.08

>  <cluster_rmsd>  (8) 
1.11

>  <cluster>  (8) 
1

$$$$

     RDKit          3D

 49 52  0  0  0  0  0  0  0  0999 V2000
  139.9860   71.1930  221.2320 O   0  0  0  0  0  0  0  0  0  0  0  0
  139.5020   71.7430  222.2790 C   0  0  0  0  0  0  0  0  0  0  0  0
  138.7150   72.9380  222.1600 N   0  0  0  0  0  0  0  0  0  0  0  0
  138.4230   73.6010  220.9460 C   0  0  0  0  0  0  0  0  0  0  0  0
  139.3610   74.5540  220.3850 C   0  0  0  0  0  0  0  0  0  0  0  0
  138.8470   75.6820  220.0310 O   0  0  0  0  0  0  0  0  0  0  0  0
  140.7610   74.4260  220.1780 N   0  0  0  0  0  0  0  0  0  0  0  0
  141.4700   73.7320  219.0930 C   0  0  0  0  0  0  0  0  0  0  0  0
  142.8630   73.4750  219.7400 C   0  0  2  0  0  0  0  0  0  0  0  0
  142.7800   72.5130  220.7330 O   0  0  0  0  0  0  0  0  0  0  0  0
  143.0470   74.8250  220.4490 C   0  0  0  0  0  0  0  0  0  0  0  0
  141.7230   75.0010  221.1060 C   0  0  1  0  0  0  0  0  0  0  0  0
  141.4490   76.4430  221.3490 C   0  0  0  0  0  0  0  0  0  0  0  0
  141.8730   77.3760  220.4300 C   0  0  0  0  0  0  0  0  0  0  0  0
  141.6160   78.7270  220.6580 C   0  0  0  0  0  0  0  0  0  0  0  0
  140.9390   79.1080  221.8080 C   0  0  0  0  0  0  0  0  0  0  0  0
  140.5910   80.8120  222.1390 Cl  0  0  0  0  0  0  0  0  0  0  0  0
  140.5340   78.1360  222.7030 C   0  0  0  0  0  0  0  0  0  0  0  0
  140.7690   76.7900  222.5120 C   0  0  0  0  0  0  0  0  0  0  0  0
  139.7580   71.1430  223.6040 C   0  0  0  0  0  0  0  0  0  0  0  0
  139.4560   69.8290  223.8090 C   0  0  0  0  0  0  0  0  0  0  0  0
  139.7110   69.2970  225.0730 C   0  0  0  0  0  0  0  0  0  0  0  0
  140.2550   70.0870  226.0870 C   0  0  0  0  0  0  0  0  0  0  0  0
  140.5030   69.5430  227.3410 C   0  0  0  0  0  0  0  0  0  0  0  0
  141.0480   70.3770  228.3220 C   0  0  0  0  0  0  0  0  0  0  0  0
  141.3390   71.7030  228.0700 C   0  0  0  0  0  0  0  0  0  0  0  0
  141.0760   72.2020  226.8090 C   0  0  0  0  0  0  0  0  0  0  0  0
  140.5380   71.4150  225.8150 C   0  0  0  0  0  0  0  0  0  0  0  0
  140.2880   71.9070  224.6000 N   0  0  0  0  0  0  0  0  0  0  0  0
  138.3540   73.3060  223.0930 H   0  0  0  0  0  0  0  0  0  0  0  0
  138.2762   72.8187  220.1868 H   0  0  0  0  0  0  0  0  0  0  0  0
  137.5587   74.2289  221.2081 H   0  0  0  0  0  0  0  0  0  0  0  0
  140.9711   72.7884  218.8272 H   0  0  0  0  0  0  0  0  0  0  0  0
  141.5126   74.3004  218.1522 H   0  0  0  0  0  0  0  0  0  0  0  0
  143.6387   73.1503  219.0309 H   0  0  0  0  0  0  0  0  0  0  0  0
  141.8430   72.1560  220.8320 H   0  0  0  0  0  0  0  0  0  0  0  0
  143.8598   74.7823  221.1890 H   0  0  0  0  0  0  0  0  0  0  0  0
  143.3258   75.6494  219.7762 H   0  0  0  0  0  0  0  0  0  0  0  0
  141.6755   74.5113  222.0899 H   0  0  0  0  0  0  0  0  0  0  0  0
  142.4098   77.0584  219.5239 H   0  0  0  0  0  0  0  0  0  0  0  0
  141.9470   79.4847  219.9325 H   0  0  0  0  0  0  0  0  0  0  0  0
  139.9987   78.4505  223.6110 H   0  0  0  0  0  0  0  0  0  0  0  0
  140.4373   76.0336  223.2385 H   0  0  0  0  0  0  0  0  0  0  0  0
  139.0268   69.2110  223.0066 H   0  0  0  0  0  0  0  0  0  0  0  0
  139.4802   68.2403  225.2734 H   0  0  0  0  0  0  0  0  0  0  0  0
  140.2774   68.4880  227.5557 H   0  0  0  0  0  0  0  0  0  0  0  0
  141.2505   69.9655  229.3218 H   0  0  0  0  0  0  0  0  0  0  0  0
  141.7690   72.3452  228.8528 H   0  0  0  0  0  0  0  0  0  0  0  0
  141.3024   73.2565  226.5929 H   0  0  0  0  0  0  0  0  0  0  0  0
  1  2  2  0
  2  3  1  0
  3  4  1  0
  4  5  1  0
  5  6  2  0
  5  7  1  0
  7  8  1  0
  8  9  1  0
  9 10  1  0
  9 11  1  0
 11 12  1  0
 12 13  1  0
 13 14  2  0
 14 15  1  0
 15 16  2  0
 16 17  1  0
 16 18  1  0
 18 19  2  0
  2 20  1  0
 20 21  2  0
 21 22  1  0
 22 23  2  0
 23 24  1  0
 24 25  2  0
 25 26  1  0
 26 27  2  0
 27 28  1  0
 28 29  2  0
 12  7  1  0
 19 13  1  0
 29 20  1  0
 28 23  1  0
  3 30  1  0
  4 31  1  0
  4 32  1  0
  8 33  1  0
  8 34  1  0
  9 35  1  6
 10 36  1  0
 11 37  1  0
 11 38  1  0
 12 39  1  1
 14 40  1  0
 15 41  1  0
 18 42  1  0
 19 43  1  0
 21 44  1  0
 22 45  1  0
 24 46  1  0
 25 47  1  0
 26 48  1  0
 27 49  1  0
M  END
>  <smiles>  (9) 
O=C(NCC(=O)N1C[C@H](O)C[C@H]1c1ccc(Cl)cc1)c1ccc2ccccc2n1

>  <score_type>  (9) 
oracle

>  <origin>  (9) 
autodockgpu

>  <m_score__min__energy>  (9) 
-9.0500000000000007

>  <m_primary>  (9) 
energy

>  <rmsd>  (9) 
2.1609197726625546

>  <m_score__min__rmsd>  (9) 
2.1609197726625546

>  <meeko>  (9) 
{"free_energy": -7.48, "intermolecular_energy": -9.27, "internal_energy": -2.43, "cluster_size": 11, "cluster_id": 1, "rank_in_cluster": 9}

>  <energy>  (9) 
-7.48

>  <cluster_rmsd>  (9) 
1.87

>  <cluster>  (9) 
1

$$$$

     RDKit          3D

 49 52  0  0  0  0  0  0  0  0999 V2000
  138.7880   74.8930  221.7330 O   0  0  0  0  0  0  0  0  0  0  0  0
  139.9330   75.4190  221.9490 C   0  0  0  0  0  0  0  0  0  0  0  0
  141.1240   74.6420  221.7560 N   0  0  0  0  0  0  0  0  0  0  0  0
  141.1540   73.2890  221.3440 C   0  0  0  0  0  0  0  0  0  0  0  0
  140.4350   72.2780  222.0940 C   0  0  0  0  0  0  0  0  0  0  0  0
  141.1760   71.4910  222.7980 O   0  0  0  0  0  0  0  0  0  0  0  0
  139.0380   72.0350  222.1690 N   0  0  0  0  0  0  0  0  0  0  0  0
  138.0630   71.9200  221.0740 C   0  0  0  0  0  0  0  0  0  0  0  0
  136.7260   72.2350  221.8060 C   0  0  2  0  0  0  0  0  0  0  0  0
  136.6550   73.5730  222.1570 O   0  0  0  0  0  0  0  0  0  0  0  0
  136.9770   71.4520  223.1040 C   0  0  0  0  0  0  0  0  0  0  0  0
  138.3600   71.8780  223.4480 C   0  0  1  0  0  0  0  0  0  0  0  0
  139.0270   70.8530  224.2950 C   0  0  0  0  0  0  0  0  0  0  0  0
  138.7700   69.5190  224.0700 C   0  0  0  0  0  0  0  0  0  0  0  0
  139.3940   68.5580  224.8630 C   0  0  0  0  0  0  0  0  0  0  0  0
  140.2640   68.9620  225.8660 C   0  0  0  0  0  0  0  0  0  0  0  0
  141.0790   67.7770  226.8980 Cl  0  0  0  0  0  0  0  0  0  0  0  0
  140.4910   70.3120  226.0560 C   0  0  0  0  0  0  0  0  0  0  0  0
  139.8920   71.2920  225.2920 C   0  0  0  0  0  0  0  0  0  0  0  0
  140.0180   76.8240  222.3980 C   0  0  0  0  0  0  0  0  0  0  0  0
  138.8700   77.5050  222.6730 C   0  0  0  0  0  0  0  0  0  0  0  0
  138.9890   78.8300  223.0940 C   0  0  0  0  0  0  0  0  0  0  0  0
  140.2430   79.4290  223.2250 C   0  0  0  0  0  0  0  0  0  0  0  0
  140.3470   80.7500  223.6450 C   0  0  0  0  0  0  0  0  0  0  0  0
  141.6260   81.3030  223.7600 C   0  0  0  0  0  0  0  0  0  0  0  0
  142.7620   80.5760  223.4710 C   0  0  0  0  0  0  0  0  0  0  0  0
  142.6130   79.2660  223.0560 C   0  0  0  0  0  0  0  0  0  0  0  0
  141.3720   78.6830  222.9290 C   0  0  0  0  0  0  0  0  0  0  0  0
  141.2380   77.4170  222.5280 N   0  0  0  0  0  0  0  0  0  0  0  0
  142.0220   75.1800  221.9550 H   0  0  0  0  0  0  0  0  0  0  0  0
  140.7578   73.2625  220.3182 H   0  0  0  0  0  0  0  0  0  0  0  0
  142.2068   73.0071  221.4927 H   0  0  0  0  0  0  0  0  0  0  0  0
  138.2661   72.6515  220.2780 H   0  0  0  0  0  0  0  0  0  0  0  0
  138.0747   70.9439  220.5669 H   0  0  0  0  0  0  0  0  0  0  0  0
  135.8238   71.9990  221.2226 H   0  0  0  0  0  0  0  0  0  0  0  0
  137.4340   73.8520  222.7300 H   0  0  0  0  0  0  0  0  0  0  0  0
  136.2620   71.7376  223.8896 H   0  0  0  0  0  0  0  0  0  0  0  0
  136.8570   70.3635  223.0002 H   0  0  0  0  0  0  0  0  0  0  0  0
  138.3770   72.8116  224.0294 H   0  0  0  0  0  0  0  0  0  0  0  0
  138.0780   69.2146  223.2710 H   0  0  0  0  0  0  0  0  0  0  0  0
  139.1987   67.4885  224.6955 H   0  0  0  0  0  0  0  0  0  0  0  0
  141.1822   70.6196  226.8545 H   0  0  0  0  0  0  0  0  0  0  0  0
  140.0875   72.3611  225.4617 H   0  0  0  0  0  0  0  0  0  0  0  0
  137.8849   77.0272  222.5669 H   0  0  0  0  0  0  0  0  0  0  0  0
  138.0833   79.4098  223.3255 H   0  0  0  0  0  0  0  0  0  0  0  0
  139.4503   81.3423  223.8798 H   0  0  0  0  0  0  0  0  0  0  0  0
  141.7292   82.3472  224.0902 H   0  0  0  0  0  0  0  0  0  0  0  0
  143.7606   81.0270  223.5683 H   0  0  0  0  0  0  0  0  0  0  0  0
  143.5095   78.6735  222.8210 H   0  0  0  0  0  0  0  0  0  0  0  0
  1  2  2  0
  2  3  1  0
  3  4  1  0
  4  5  1  0
  5  6  2  0
  5  7  1  0
  7  8  1  0
  8  9  1  0
  9 10  1  0
  9 11  1  0
 11 12  1  0
 12 13  1  0
 13 14  2  0
 14 15  1  0
 15 16  2  0
 16 17  1  0
 16 18  1  0
 18 19  2  0
  2 20  1  0
 20 21  2  0
 21 22  1  0
 22 23  2  0
 23 24  1  0
 24 25  2  0
 25 26  1  0
 26 27  2  0
 27 28  1  0
 28 29  2  0
 12  7  1  0
 19 13  1  0
 29 20  1  0
 28 23  1  0
  3 30  1  0
  4 31  1  0
  4 32  1  0
  8 33  1  0
  8 34  1  0
  9 35  1  6
 10 36  1  0
 11 37  1  0
 11 38  1  0
 12 39  1  1
 14 40  1  0
 15 41  1  0
 18 42  1  0
 19 43  1  0
 21 44  1  0
 22 45  1  0
 24 46  1  0
 25 47  1  0
 26 48  1  0
 27 49  1  0
M  END
>  <smiles>  (10) 
O=C(NCC(=O)N1C[C@H](O)C[C@H]1c1ccc(Cl)cc1)c1ccc2ccccc2n1

>  <score_type>  (10) 
oracle

>  <origin>  (10) 
autodockgpu

>  <m_score__min__energy>  (10) 
-9.0500000000000007

>  <m_primary>  (10) 
energy

>  <rmsd>  (10) 
7.898325323918249

>  <m_score__min__rmsd>  (10) 
7.898325323918249

>  <meeko>  (10) 
{"free_energy": -7.82, "intermolecular_energy": -9.61, "internal_energy": -2.29, "cluster_size": 4, "cluster_id": 4, "rank_in_cluster": 2}

>  <energy>  (10) 
-7.48

>  <cluster_rmsd>  (10) 
1.93

>  <cluster>  (10) 
1

$$$$

     RDKit          3D

 49 52  0  0  0  0  0  0  0  0999 V2000
  139.9550   71.0850  221.2100 O   0  0  0  0  0  0  0  0  0  0  0  0
  139.6460   71.7480  222.2580 C   0  0  0  0  0  0  0  0  0  0  0  0
  139.0940   73.0670  222.1340 N   0  0  0  0  0  0  0  0  0  0  0  0
  138.8610   73.7380  220.9110 C   0  0  0  0  0  0  0  0  0  0  0  0
  139.8050   73.6190  219.8170 C   0  0  0  0  0  0  0  0  0  0  0  0
  139.2940   73.7410  218.6390 O   0  0  0  0  0  0  0  0  0  0  0  0
  141.2070   73.3950  219.8570 N   0  0  0  0  0  0  0  0  0  0  0  0
  142.0320   72.5670  218.9650 C   0  0  0  0  0  0  0  0  0  0  0  0
  143.2810   72.2940  219.8540 C   0  0  2  0  0  0  0  0  0  0  0  0
  142.9730   71.4330  220.8940 O   0  0  0  0  0  0  0  0  0  0  0  0
  143.4420   73.6910  220.4720 C   0  0  0  0  0  0  0  0  0  0  0  0
  142.0460   73.9990  220.8820 C   0  0  1  0  0  0  0  0  0  0  0  0
  141.8370   75.4700  220.9590 C   0  0  0  0  0  0  0  0  0  0  0  0
  141.0770   75.9920  221.9810 C   0  0  0  0  0  0  0  0  0  0  0  0
  140.8810   77.3700  222.0530 C   0  0  0  0  0  0  0  0  0  0  0  0
  141.4560   78.1920  221.0940 C   0  0  0  0  0  0  0  0  0  0  0  0
  141.2340   79.9470  221.1460 Cl  0  0  0  0  0  0  0  0  0  0  0  0
  142.2100   77.6230  220.0860 C   0  0  0  0  0  0  0  0  0  0  0  0
  142.4270   76.2640  219.9810 C   0  0  0  0  0  0  0  0  0  0  0  0
  139.8620   71.1480  223.5910 C   0  0  0  0  0  0  0  0  0  0  0  0
  139.5430   69.8380  223.7900 C   0  0  0  0  0  0  0  0  0  0  0  0
  139.7600   69.3060  225.0620 C   0  0  0  0  0  0  0  0  0  0  0  0
  140.2840   70.0940  226.0880 C   0  0  0  0  0  0  0  0  0  0  0  0
  140.4950   69.5500  227.3490 C   0  0  0  0  0  0  0  0  0  0  0  0
  141.0220   70.3820  228.3420 C   0  0  0  0  0  0  0  0  0  0  0  0
  141.3310   71.7040  228.0950 C   0  0  0  0  0  0  0  0  0  0  0  0
  141.1060   72.2030  226.8270 C   0  0  0  0  0  0  0  0  0  0  0  0
  140.5870   71.4190  225.8210 C   0  0  0  0  0  0  0  0  0  0  0  0
  140.3730   71.9100  224.5990 N   0  0  0  0  0  0  0  0  0  0  0  0
  138.8640   73.5240  223.0690 H   0  0  0  0  0  0  0  0  0  0  0  0
  137.8928   73.3778  220.5329 H   0  0  0  0  0  0  0  0  0  0  0  0
  138.9382   74.7989  221.1912 H   0  0  0  0  0  0  0  0  0  0  0  0
  141.5184   71.6319  218.6969 H   0  0  0  0  0  0  0  0  0  0  0  0
  142.2651   73.0439  218.0015 H   0  0  0  0  0  0  0  0  0  0  0  0
  144.1362   71.8634  219.3124 H   0  0  0  0  0  0  0  0  0  0  0  0
  141.9800   71.2810  220.9730 H   0  0  0  0  0  0  0  0  0  0  0  0
  144.1197   73.6711  221.3382 H   0  0  0  0  0  0  0  0  0  0  0  0
  143.8826   74.4338  219.7907 H   0  0  0  0  0  0  0  0  0  0  0  0
  141.8072   73.6044  221.8806 H   0  0  0  0  0  0  0  0  0  0  0  0
  140.6284   75.3276  222.7342 H   0  0  0  0  0  0  0  0  0  0  0  0
  140.2756   77.8025  222.8632 H   0  0  0  0  0  0  0  0  0  0  0  0
  142.6590   78.2848  219.3308 H   0  0  0  0  0  0  0  0  0  0  0  0
  143.0323   75.8331  219.1698 H   0  0  0  0  0  0  0  0  0  0  0  0
  139.1295   69.2223  222.9776 H   0  0  0  0  0  0  0  0  0  0  0  0
  139.5148   68.2518  225.2585 H   0  0  0  0  0  0  0  0  0  0  0  0
  140.2549   68.4974  227.5598 H   0  0  0  0  0  0  0  0  0  0  0  0
  141.1950   69.9712  229.3476 H   0  0  0  0  0  0  0  0  0  0  0  0
  141.7459   72.3440  228.8877 H   0  0  0  0  0  0  0  0  0  0  0  0
  141.3479   73.2549  226.6150 H   0  0  0  0  0  0  0  0  0  0  0  0
  1  2  2  0
  2  3  1  0
  3  4  1  0
  4  5  1  0
  5  6  2  0
  5  7  1  0
  7  8  1  0
  8  9  1  0
  9 10  1  0
  9 11  1  0
 11 12  1  0
 12 13  1  0
 13 14  2  0
 14 15  1  0
 15 16  2  0
 16 17  1  0
 16 18  1  0
 18 19  2  0
  2 20  1  0
 20 21  2  0
 21 22  1  0
 22 23  2  0
 23 24  1  0
 24 25  2  0
 25 26  1  0
 26 27  2  0
 27 28  1  0
 28 29  2  0
 12  7  1  0
 19 13  1  0
 29 20  1  0
 28 23  1  0
  3 30  1  0
  4 31  1  0
  4 32  1  0
  8 33  1  0
  8 34  1  0
  9 35  1  6
 10 36  1  0
 11 37  1  0
 11 38  1  0
 12 39  1  1
 14 40  1  0
 15 41  1  0
 18 42  1  0
 19 43  1  0
 21 44  1  0
 22 45  1  0
 24 46  1  0
 25 47  1  0
 26 48  1  0
 27 49  1  0
M  END
>  <smiles>  (11) 
O=C(NCC(=O)N1C[C@H](O)C[C@H]1c1ccc(Cl)cc1)c1ccc2ccccc2n1

>  <score_type>  (11) 
oracle

>  <origin>  (11) 
autodockgpu

>  <m_score__min__energy>  (11) 
-9.0500000000000007

>  <m_primary>  (11) 
energy

>  <rmsd>  (11) 
2.740068372290844

>  <m_score__min__rmsd>  (11) 
2.740068372290844

>  <meeko>  (11) 
{"free_energy": -7.4, "intermolecular_energy": -9.19, "internal_energy": -2.63, "cluster_size": 22, "cluster_id": 6, "rank_in_cluster": 6}

>  <energy>  (11) 
-7.36

>  <cluster_rmsd>  (11) 
1.94

>  <cluster>  (11) 
1

$$$$

     RDKit          3D

 49 52  0  0  0  0  0  0  0  0999 V2000
  140.1180   71.3540  221.2880 O   0  0  0  0  0  0  0  0  0  0  0  0
  139.5000   71.7820  222.3210 C   0  0  0  0  0  0  0  0  0  0  0  0
  138.5750   72.8740  222.2000 N   0  0  0  0  0  0  0  0  0  0  0  0
  138.2800   73.5590  220.9980 C   0  0  0  0  0  0  0  0  0  0  0  0
  139.2660   74.4300  220.3890 C   0  0  0  0  0  0  0  0  0  0  0  0
  138.8080   75.5590  219.9650 O   0  0  0  0  0  0  0  0  0  0  0  0
  140.6580   74.2230  220.2000 N   0  0  0  0  0  0  0  0  0  0  0  0
  141.3400   73.4710  219.1370 C   0  0  0  0  0  0  0  0  0  0  0  0
  142.7100   73.1520  219.8040 C   0  0  2  0  0  0  0  0  0  0  0  0
  142.5650   72.2160  220.8150 O   0  0  0  0  0  0  0  0  0  0  0  0
  142.9600   74.5040  220.4900 C   0  0  0  0  0  0  0  0  0  0  0  0
  141.6410   74.7640  221.1280 C   0  0  1  0  0  0  0  0  0  0  0  0
  141.4430   76.2230  221.3400 C   0  0  0  0  0  0  0  0  0  0  0  0
  141.9330   77.1150  220.4130 C   0  0  0  0  0  0  0  0  0  0  0  0
  141.7480   78.4820  220.6120 C   0  0  0  0  0  0  0  0  0  0  0  0
  141.0730   78.9210  221.7420 C   0  0  0  0  0  0  0  0  0  0  0  0
  140.8140   80.6470  222.0360 Cl  0  0  0  0  0  0  0  0  0  0  0  0
  140.5980   77.9900  222.6460 C   0  0  0  0  0  0  0  0  0  0  0  0
  140.7620   76.6290  222.4840 C   0  0  0  0  0  0  0  0  0  0  0  0
  139.7430   71.1480  223.6330 C   0  0  0  0  0  0  0  0  0  0  0  0
  139.4110   69.8390  223.8100 C   0  0  0  0  0  0  0  0  0  0  0  0
  139.6550   69.2740  225.0620 C   0  0  0  0  0  0  0  0  0  0  0  0
  140.2190   70.0300  226.0920 C   0  0  0  0  0  0  0  0  0  0  0  0
  140.4570   69.4540  227.3340 C   0  0  0  0  0  0  0  0  0  0  0  0
  141.0230   70.2540  228.3310 C   0  0  0  0  0  0  0  0  0  0  0  0
  141.3440   71.5780  228.1060 C   0  0  0  0  0  0  0  0  0  0  0  0
  141.0910   72.1090  226.8560 C   0  0  0  0  0  0  0  0  0  0  0  0
  140.5340   71.3560  225.8470 C   0  0  0  0  0  0  0  0  0  0  0  0
  140.2930   71.8790  224.6430 N   0  0  0  0  0  0  0  0  0  0  0  0
  138.1090   73.1430  223.1190 H   0  0  0  0  0  0  0  0  0  0  0  0
  138.0320   72.7915  220.2501 H   0  0  0  0  0  0  0  0  0  0  0  0
  137.4842   74.2564  221.2984 H   0  0  0  0  0  0  0  0  0  0  0  0
  140.7937   72.5506  218.8834 H   0  0  0  0  0  0  0  0  0  0  0  0
  141.4232   74.0181  218.1863 H   0  0  0  0  0  0  0  0  0  0  0  0
  143.4736   72.7719  219.1094 H   0  0  0  0  0  0  0  0  0  0  0  0
  141.6290   71.8480  220.8530 H   0  0  0  0  0  0  0  0  0  0  0  0
  143.7614   74.4315  221.2400 H   0  0  0  0  0  0  0  0  0  0  0  0
  143.2905   75.2990  219.8053 H   0  0  0  0  0  0  0  0  0  0  0  0
  141.5570   74.2971  222.1204 H   0  0  0  0  0  0  0  0  0  0  0  0
  142.4664   76.7517  219.5222 H   0  0  0  0  0  0  0  0  0  0  0  0
  142.1337   79.2065  219.8797 H   0  0  0  0  0  0  0  0  0  0  0  0
  140.0637   78.3507  223.5373 H   0  0  0  0  0  0  0  0  0  0  0  0
  140.3762   75.9060  223.2177 H   0  0  0  0  0  0  0  0  0  0  0  0
  138.9665   69.2486  222.9952 H   0  0  0  0  0  0  0  0  0  0  0  0
  139.3998   68.2190  225.2403 H   0  0  0  0  0  0  0  0  0  0  0  0
  140.2075   68.4002  227.5269 H   0  0  0  0  0  0  0  0  0  0  0  0
  141.2179   69.8169  229.3214 H   0  0  0  0  0  0  0  0  0  0  0  0
  141.7895   72.1938  228.9012 H   0  0  0  0  0  0  0  0  0  0  0  0
  141.3415   73.1623  226.6616 H   0  0  0  0  0  0  0  0  0  0  0  0
  1  2  2  0
  2  3  1  0
  3  4  1  0
  4  5  1  0
  5  6  2  0
  5  7  1  0
  7  8  1  0
  8  9  1  0
  9 10  1  0
  9 11  1  0
 11 12  1  0
 12 13  1  0
 13 14  2  0
 14 15  1  0
 15 16  2  0
 16 17  1  0
 16 18  1  0
 18 19  2  0
  2 20  1  0
 20 21  2  0
 21 22  1  0
 22 23  2  0
 23 24  1  0
 24 25  2  0
 25 26  1  0
 26 27  2  0
 27 28  1  0
 28 29  2  0
 12  7  1  0
 19 13  1  0
 29 20  1  0
 28 23  1  0
  3 30  1  0
  4 31  1  0
  4 32  1  0
  8 33  1  0
  8 34  1  0
  9 35  1  6
 10 36  1  0
 11 37  1  0
 11 38  1  0
 12 39  1  1
 14 40  1  0
 15 41  1  0
 18 42  1  0
 19 43  1  0
 21 44  1  0
 22 45  1  0
 24 46  1  0
 25 47  1  0
 26 48  1  0
 27 49  1  0
M  END
>  <smiles>  (12) 
O=C(NCC(=O)N1C[C@H](O)C[C@H]1c1ccc(Cl)cc1)c1ccc2ccccc2n1

>  <score_type>  (12) 
oracle

>  <origin>  (12) 
autodockgpu

>  <m_score__min__energy>  (12) 
-9.0500000000000007

>  <m_primary>  (12) 
energy

>  <rmsd>  (12) 
2.216352807220977

>  <m_score__min__rmsd>  (12) 
2.216352807220977

>  <meeko>  (12) 
{"free_energy": -7.48, "intermolecular_energy": -9.27, "internal_energy": -2.5, "cluster_size": 11, "cluster_id": 1, "rank_in_cluster": 10}

>  <energy>  (12) 
-8.1

>  <cluster_rmsd>  (12) 
0.0

>  <cluster>  (12) 
2

$$$$

     RDKit          3D

 49 52  0  0  0  0  0  0  0  0999 V2000
  139.8780   71.0250  221.2080 O   0  0  0  0  0  0  0  0  0  0  0  0
  139.6060   71.7110  222.2510 C   0  0  0  0  0  0  0  0  0  0  0  0
  139.0850   73.0420  222.1160 N   0  0  0  0  0  0  0  0  0  0  0  0
  138.8440   73.7000  220.8870 C   0  0  0  0  0  0  0  0  0  0  0  0
  139.7900   73.5810  219.7950 C   0  0  0  0  0  0  0  0  0  0  0  0
  139.2790   73.6970  218.6160 O   0  0  0  0  0  0  0  0  0  0  0  0
  141.1930   73.3640  219.8360 N   0  0  0  0  0  0  0  0  0  0  0  0
  142.0230   72.5390  218.9460 C   0  0  0  0  0  0  0  0  0  0  0  0
  143.2720   72.2710  219.8360 C   0  0  2  0  0  0  0  0  0  0  0  0
  142.9660   71.4090  220.8760 O   0  0  0  0  0  0  0  0  0  0  0  0
  143.4260   73.6690  220.4540 C   0  0  0  0  0  0  0  0  0  0  0  0
  142.0270   73.9720  220.8630 C   0  0  1  0  0  0  0  0  0  0  0  0
  141.8120   75.4420  220.9390 C   0  0  0  0  0  0  0  0  0  0  0  0
  141.0560   75.9620  221.9640 C   0  0  0  0  0  0  0  0  0  0  0  0
  140.8540   77.3390  222.0350 C   0  0  0  0  0  0  0  0  0  0  0  0
  141.4190   78.1620  221.0720 C   0  0  0  0  0  0  0  0  0  0  0  0
  141.1890   79.9170  221.1230 Cl  0  0  0  0  0  0  0  0  0  0  0  0
  142.1700   77.5950  220.0600 C   0  0  0  0  0  0  0  0  0  0  0  0
  142.3920   76.2380  219.9550 C   0  0  0  0  0  0  0  0  0  0  0  0
  139.8330   71.1270  223.5890 C   0  0  0  0  0  0  0  0  0  0  0  0
  139.5320   69.8150  223.8010 C   0  0  0  0  0  0  0  0  0  0  0  0
  139.7580   69.2970  225.0770 C   0  0  0  0  0  0  0  0  0  0  0  0
  140.2750   70.1020  226.0940 C   0  0  0  0  0  0  0  0  0  0  0  0
  140.4950   69.5720  227.3600 C   0  0  0  0  0  0  0  0  0  0  0  0
  141.0130   70.4210  228.3440 C   0  0  0  0  0  0  0  0  0  0  0  0
  141.3040   71.7440  228.0850 C   0  0  0  0  0  0  0  0  0  0  0  0
  141.0690   72.2280  226.8120 C   0  0  0  0  0  0  0  0  0  0  0  0
  140.5590   71.4280  225.8140 C   0  0  0  0  0  0  0  0  0  0  0  0
  140.3360   71.9050  224.5880 N   0  0  0  0  0  0  0  0  0  0  0  0
  138.8840   73.5190  223.0480 H   0  0  0  0  0  0  0  0  0  0  0  0
  137.8799   73.3258  220.5120 H   0  0  0  0  0  0  0  0  0  0  0  0
  138.9082   74.7643  221.1574 H   0  0  0  0  0  0  0  0  0  0  0  0
  141.5136   71.6018  218.6776 H   0  0  0  0  0  0  0  0  0  0  0  0
  142.2557   73.0170  217.9830 H   0  0  0  0  0  0  0  0  0  0  0  0
  144.1296   71.8438  219.2956 H   0  0  0  0  0  0  0  0  0  0  0  0
  141.9720   71.2840  220.9790 H   0  0  0  0  0  0  0  0  0  0  0  0
  144.1028   73.6522  221.3210 H   0  0  0  0  0  0  0  0  0  0  0  0
  143.8639   74.4134  219.7727 H   0  0  0  0  0  0  0  0  0  0  0  0
  141.7879   73.5774  221.8616 H   0  0  0  0  0  0  0  0  0  0  0  0
  140.6149   75.2967  222.7209 H   0  0  0  0  0  0  0  0  0  0  0  0
  140.2514   77.7698  222.8482 H   0  0  0  0  0  0  0  0  0  0  0  0
  142.6120   78.2580  219.3017 H   0  0  0  0  0  0  0  0  0  0  0  0
  142.9933   75.8088  219.1400 H   0  0  0  0  0  0  0  0  0  0  0  0
  139.1253   69.1865  222.9950 H   0  0  0  0  0  0  0  0  0  0  0  0
  139.5261   68.2419  225.2840 H   0  0  0  0  0  0  0  0  0  0  0  0
  140.2690   68.5184  227.5812 H   0  0  0  0  0  0  0  0  0  0  0  0
  141.1933   70.0219  229.3531 H   0  0  0  0  0  0  0  0  0  0  0  0
  141.7123   72.3966  228.8708 H   0  0  0  0  0  0  0  0  0  0  0  0
  141.2956   73.2812  226.5899 H   0  0  0  0  0  0  0  0  0  0  0  0
  1  2  2  0
  2  3  1  0
  3  4  1  0
  4  5  1  0
  5  6  2  0
  5  7  1  0
  7  8  1  0
  8  9  1  0
  9 10  1  0
  9 11  1  0
 11 12  1  0
 12 13  1  0
 13 14  2  0
 14 15  1  0
 15 16  2  0
 16 17  1  0
 16 18  1  0
 18 19  2  0
  2 20  1  0
 20 21  2  0
 21 22  1  0
 22 23  2  0
 23 24  1  0
 24 25  2  0
 25 26  1  0
 26 27  2  0
 27 28  1  0
 28 29  2  0
 12  7  1  0
 19 13  1  0
 29 20  1  0
 28 23  1  0
  3 30  1  0
  4 31  1  0
  4 32  1  0
  8 33  1  0
  8 34  1  0
  9 35  1  6
 10 36  1  0
 11 37  1  0
 11 38  1  0
 12 39  1  1
 14 40  1  0
 15 41  1  0
 18 42  1  0
 19 43  1  0
 21 44  1  0
 22 45  1  0
 24 46  1  0
 25 47  1  0
 26 48  1  0
 27 49  1  0
M  END
>  <smiles>  (13) 
O=C(NCC(=O)N1C[C@H](O)C[C@H]1c1ccc(Cl)cc1)c1ccc2ccccc2n1

>  <score_type>  (13) 
oracle

>  <origin>  (13) 
autodockgpu

>  <m_score__min__energy>  (13) 
-9.0500000000000007

>  <m_primary>  (13) 
energy

>  <rmsd>  (13) 
2.7439318139703235

>  <m_score__min__rmsd>  (13) 
2.7439318139703235

>  <meeko>  (13) 
{"free_energy": -7.4, "intermolecular_energy": -9.19, "internal_energy": -2.64, "cluster_size": 22, "cluster_id": 6, "rank_in_cluster": 8}

>  <energy>  (13) 
-7.87

>  <cluster_rmsd>  (13) 
0.0

>  <cluster>  (13) 
3

$$$$

     RDKit          3D

 49 52  0  0  0  0  0  0  0  0999 V2000
  139.0890   71.2290  221.3720 O   0  0  0  0  0  0  0  0  0  0  0  0
  139.7010   71.7120  222.3850 C   0  0  0  0  0  0  0  0  0  0  0  0
  140.3440   72.9920  222.2880 N   0  0  0  0  0  0  0  0  0  0  0  0
  140.3780   73.7980  221.1270 C   0  0  0  0  0  0  0  0  0  0  0  0
  140.9570   75.1270  221.1730 C   0  0  0  0  0  0  0  0  0  0  0  0
  141.0760   75.6290  222.3550 O   0  0  0  0  0  0  0  0  0  0  0  0
  141.4150   75.9480  220.1080 N   0  0  0  0  0  0  0  0  0  0  0  0
  141.3600   75.6940  218.6610 C   0  0  0  0  0  0  0  0  0  0  0  0
  142.4850   76.6310  218.1330 C   0  0  2  0  0  0  0  0  0  0  0  0
  143.7360   76.1580  218.4920 O   0  0  0  0  0  0  0  0  0  0  0  0
  142.2080   77.8570  219.0170 C   0  0  0  0  0  0  0  0  0  0  0  0
  142.0580   77.2300  220.3580 C   0  0  1  0  0  0  0  0  0  0  0  0
  141.2310   78.0900  221.2470 C   0  0  0  0  0  0  0  0  0  0  0  0
  141.8150   78.6910  222.3400 C   0  0  0  0  0  0  0  0  0  0  0  0
  141.0400   79.4960  223.1730 C   0  0  0  0  0  0  0  0  0  0  0  0
  139.6950   79.6790  222.8860 C   0  0  0  0  0  0  0  0  0  0  0  0
  138.6730   80.6930  223.9160 Cl  0  0  0  0  0  0  0  0  0  0  0  0
  139.1520   79.0550  221.7790 C   0  0  0  0  0  0  0  0  0  0  0  0
  139.8860   78.2500  220.9320 C   0  0  0  0  0  0  0  0  0  0  0  0
  139.7410   70.9460  223.6480 C   0  0  0  0  0  0  0  0  0  0  0  0
  139.2120   69.6910  223.6810 C   0  0  0  0  0  0  0  0  0  0  0  0
  139.2680   68.9980  224.8910 C   0  0  0  0  0  0  0  0  0  0  0  0
  139.8450   69.5770  226.0230 C   0  0  0  0  0  0  0  0  0  0  0  0
  139.8930   68.8750  227.2210 C   0  0  0  0  0  0  0  0  0  0  0  0
  140.4820   69.5010  228.3240 C   0  0  0  0  0  0  0  0  0  0  0  0
  141.0050   70.7750  228.2450 C   0  0  0  0  0  0  0  0  0  0  0  0
  140.9360   71.4370  227.0340 C   0  0  0  0  0  0  0  0  0  0  0  0
  140.3640   70.8580  225.9220 C   0  0  0  0  0  0  0  0  0  0  0  0
  140.3020   71.5040  224.7570 N   0  0  0  0  0  0  0  0  0  0  0  0
  140.8150   73.3030  223.1920 H   0  0  0  0  0  0  0  0  0  0  0  0
  140.9407   73.2347  220.3680 H   0  0  0  0  0  0  0  0  0  0  0  0
  139.3140   73.9971  220.9314 H   0  0  0  0  0  0  0  0  0  0  0  0
  141.5749   74.6401  218.4305 H   0  0  0  0  0  0  0  0  0  0  0  0
  140.3739   75.8831  218.2117 H   0  0  0  0  0  0  0  0  0  0  0  0
  142.4847   76.7666  217.0414 H   0  0  0  0  0  0  0  0  0  0  0  0
  144.4390   76.4060  217.8160 H   0  0  0  0  0  0  0  0  0  0  0  0
  143.0495   78.5651  218.9967 H   0  0  0  0  0  0  0  0  0  0  0  0
  141.3375   78.4502  218.7001 H   0  0  0  0  0  0  0  0  0  0  0  0
  143.0232   77.1021  220.8698 H   0  0  0  0  0  0  0  0  0  0  0  0
  142.8831   78.5371  222.5535 H   0  0  0  0  0  0  0  0  0  0  0  0
  141.4909   79.9822  224.0507 H   0  0  0  0  0  0  0  0  0  0  0  0
  138.0842   79.2072  221.5628 H   0  0  0  0  0  0  0  0  0  0  0  0
  139.4325   77.7621  220.0566 H   0  0  0  0  0  0  0  0  0  0  0  0
  138.7573   69.2403  222.7865 H   0  0  0  0  0  0  0  0  0  0  0  0
  138.8519   67.9817  224.9538 H   0  0  0  0  0  0  0  0  0  0  0  0
  139.4805   67.8583  227.2994 H   0  0  0  0  0  0  0  0  0  0  0  0
  140.5296   68.9622  229.2818 H   0  0  0  0  0  0  0  0  0  0  0  0
  141.4651   71.2516  229.1232 H   0  0  0  0  0  0  0  0  0  0  0  0
  141.3488   72.4536  226.9555 H   0  0  0  0  0  0  0  0  0  0  0  0
  1  2  2  0
  2  3  1  0
  3  4  1  0
  4  5  1  0
  5  6  2  0
  5  7  1  0
  7  8  1  0
  8  9  1  0
  9 10  1  0
  9 11  1  0
 11 12  1  0
 12 13  1  0
 13 14  2  0
 14 15  1  0
 15 16  2  0
 16 17  1  0
 16 18  1  0
 18 19  2  0
  2 20  1  0
 20 21  2  0
 21 22  1  0
 22 23  2  0
 23 24  1  0
 24 25  2  0
 25 26  1  0
 26 27  2  0
 27 28  1  0
 28 29  2  0
 12  7  1  0
 19 13  1  0
 29 20  1  0
 28 23  1  0
  3 30  1  0
  4 31  1  0
  4 32  1  0
  8 33  1  0
  8 34  1  0
  9 35  1  6
 10 36  1  0
 11 37  1  0
 11 38  1  0
 12 39  1  1
 14 40  1  0
 15 41  1  0
 18 42  1  0
 19 43  1  0
 21 44  1  0
 22 45  1  0
 24 46  1  0
 25 47  1  0
 26 48  1  0
 27 49  1  0
M  END
>  <smiles>  (14) 
O=C(NCC(=O)N1C[C@H](O)C[C@H]1c1ccc(Cl)cc1)c1ccc2ccccc2n1

>  <score_type>  (14) 
oracle

>  <origin>  (14) 
autodockgpu

>  <m_score__min__energy>  (14) 
-9.0500000000000007

>  <m_primary>  (14) 
energy

>  <rmsd>  (14) 
1.5376291854110118

>  <m_score__min__rmsd>  (14) 
1.5376291854110118

>  <meeko>  (14) 
{"free_energy": -8.08, "intermolecular_energy": -9.87, "internal_energy": -1.64, "cluster_size": 11, "cluster_id": 1, "rank_in_cluster": 8}

>  <energy>  (14) 
-7.83

>  <cluster_rmsd>  (14) 
0.0

>  <cluster>  (14) 
4

$$$$

     RDKit          3D

 49 52  0  0  0  0  0  0  0  0999 V2000
  140.8750   71.5930  221.3350 O   0  0  0  0  0  0  0  0  0  0  0  0
  140.3500   72.1170  222.3760 C   0  0  0  0  0  0  0  0  0  0  0  0
  139.9400   73.4930  222.3550 N   0  0  0  0  0  0  0  0  0  0  0  0
  140.0780   74.3650  221.2500 C   0  0  0  0  0  0  0  0  0  0  0  0
  140.6840   75.6710  221.4180 C   0  0  0  0  0  0  0  0  0  0  0  0
  140.8690   76.0330  222.6430 O   0  0  0  0  0  0  0  0  0  0  0  0
  141.1070   76.6030  220.4330 N   0  0  0  0  0  0  0  0  0  0  0  0
  141.0770   76.4710  218.9690 C   0  0  0  0  0  0  0  0  0  0  0  0
  142.1560   77.5060  218.5360 C   0  0  2  0  0  0  0  0  0  0  0  0
  143.4270   77.0690  218.8700 O   0  0  0  0  0  0  0  0  0  0  0  0
  141.8070   78.6360  219.5180 C   0  0  0  0  0  0  0  0  0  0  0  0
  141.6800   77.8900  220.7990 C   0  0  1  0  0  0  0  0  0  0  0  0
  140.8020   78.6270  221.7470 C   0  0  0  0  0  0  0  0  0  0  0  0
  141.3380   79.1350  222.9090 C   0  0  0  0  0  0  0  0  0  0  0  0
  140.5160   79.8250  223.7980 C   0  0  0  0  0  0  0  0  0  0  0  0
  139.1710   79.9900  223.4950 C   0  0  0  0  0  0  0  0  0  0  0  0
  138.0900   80.8600  224.5940 Cl  0  0  0  0  0  0  0  0  0  0  0  0
  138.6770   79.4620  222.3170 C   0  0  0  0  0  0  0  0  0  0  0  0
  139.4590   78.7730  221.4130 C   0  0  0  0  0  0  0  0  0  0  0  0
  140.1710   71.3000  223.5940 C   0  0  0  0  0  0  0  0  0  0  0  0
  139.5920   70.0700  223.4900 C   0  0  0  0  0  0  0  0  0  0  0  0
  139.4390   69.3270  224.6610 C   0  0  0  0  0  0  0  0  0  0  0  0
  139.8650   69.8320  225.8910 C   0  0  0  0  0  0  0  0  0  0  0  0
  139.7060   69.0810  227.0490 C   0  0  0  0  0  0  0  0  0  0  0  0
  140.1490   69.6330  228.2550 C   0  0  0  0  0  0  0  0  0  0  0  0
  140.7300   70.8830  228.3130 C   0  0  0  0  0  0  0  0  0  0  0  0
  140.8690   71.5950  227.1370 C   0  0  0  0  0  0  0  0  0  0  0  0
  140.4450   71.0900  225.9280 C   0  0  0  0  0  0  0  0  0  0  0  0
  140.5830   71.7850  224.7980 N   0  0  0  0  0  0  0  0  0  0  0  0
  139.5070   73.8230  223.2700 H   0  0  0  0  0  0  0  0  0  0  0  0
  140.6805   73.8315  220.5001 H   0  0  0  0  0  0  0  0  0  0  0  0
  139.0362   74.6056  220.9915 H   0  0  0  0  0  0  0  0  0  0  0  0
  141.3482   75.4530  218.6526 H   0  0  0  0  0  0  0  0  0  0  0  0
  140.0860   76.6473  218.5252 H   0  0  0  0  0  0  0  0  0  0  0  0
  142.1583   77.7340  217.4599 H   0  0  0  0  0  0  0  0  0  0  0  0
  143.7760   77.5270  219.6960 H   0  0  0  0  0  0  0  0  0  0  0  0
  142.6098   79.3864  219.5683 H   0  0  0  0  0  0  0  0  0  0  0  0
  140.9086   79.2075  219.2418 H   0  0  0  0  0  0  0  0  0  0  0  0
  142.6465   77.7688  221.3101 H   0  0  0  0  0  0  0  0  0  0  0  0
  142.4060   78.9974  223.1337 H   0  0  0  0  0  0  0  0  0  0  0  0
  140.9290   80.2352  224.7314 H   0  0  0  0  0  0  0  0  0  0  0  0
  137.6094   79.5976  222.0894 H   0  0  0  0  0  0  0  0  0  0  0  0
  139.0442   78.3622  220.4807 H   0  0  0  0  0  0  0  0  0  0  0  0
  139.2576   69.6777  222.5182 H   0  0  0  0  0  0  0  0  0  0  0  0
  138.9765   68.3300  224.6145 H   0  0  0  0  0  0  0  0  0  0  0  0
  139.2456   68.0825  227.0181 H   0  0  0  0  0  0  0  0  0  0  0  0
  140.0310   69.0546  229.1832 H   0  0  0  0  0  0  0  0  0  0  0  0
  141.0736   71.3018  229.2704 H   0  0  0  0  0  0  0  0  0  0  0  0
  141.3311   72.5928  227.1673 H   0  0  0  0  0  0  0  0  0  0  0  0
  1  2  2  0
  2  3  1  0
  3  4  1  0
  4  5  1  0
  5  6  2  0
  5  7  1  0
  7  8  1  0
  8  9  1  0
  9 10  1  0
  9 11  1  0
 11 12  1  0
 12 13  1  0
 13 14  2  0
 14 15  1  0
 15 16  2  0
 16 17  1  0
 16 18  1  0
 18 19  2  0
  2 20  1  0
 20 21  2  0
 21 22  1  0
 22 23  2  0
 23 24  1  0
 24 25  2  0
 25 26  1  0
 26 27  2  0
 27 28  1  0
 28 29  2  0
 12  7  1  0
 19 13  1  0
 29 20  1  0
 28 23  1  0
  3 30  1  0
  4 31  1  0
  4 32  1  0
  8 33  1  0
  8 34  1  0
  9 35  1  6
 10 36  1  0
 11 37  1  0
 11 38  1  0
 12 39  1  1
 14 40  1  0
 15 41  1  0
 18 42  1  0
 19 43  1  0
 21 44  1  0
 22 45  1  0
 24 46  1  0
 25 47  1  0
 26 48  1  0
 27 49  1  0
M  END
>  <smiles>  (15) 
O=C(NCC(=O)N1C[C@H](O)C[C@H]1c1ccc(Cl)cc1)c1ccc2ccccc2n1

>  <score_type>  (15) 
oracle

>  <origin>  (15) 
autodockgpu

>  <m_score__min__energy>  (15) 
-9.0500000000000007

>  <m_primary>  (15) 
energy

>  <rmsd>  (15) 
1.713580922404288

>  <m_score__min__rmsd>  (15) 
1.713580922404288

>  <meeko>  (15) 
{"free_energy": -8.96, "intermolecular_energy": -10.75, "internal_energy": -1.33, "cluster_size": 11, "cluster_id": 1, "rank_in_cluster": 4}

>  <energy>  (15) 
-7.82

>  <cluster_rmsd>  (15) 
0.04

>  <cluster>  (15) 
4

$$$$

     RDKit          3D

 49 52  0  0  0  0  0  0  0  0999 V2000
  139.8510   71.0250  221.2250 O   0  0  0  0  0  0  0  0  0  0  0  0
  139.6100   71.7130  222.2740 C   0  0  0  0  0  0  0  0  0  0  0  0
  139.1050   73.0510  222.1520 N   0  0  0  0  0  0  0  0  0  0  0  0
  138.8490   73.7140  220.9290 C   0  0  0  0  0  0  0  0  0  0  0  0
  139.7850   73.6070  219.8270 C   0  0  0  0  0  0  0  0  0  0  0  0
  139.2640   73.7410  218.6540 O   0  0  0  0  0  0  0  0  0  0  0  0
  141.1870   73.3830  219.8530 N   0  0  0  0  0  0  0  0  0  0  0  0
  142.0050   72.5580  218.9510 C   0  0  0  0  0  0  0  0  0  0  0  0
  143.2610   72.2820  219.8280 C   0  0  2  0  0  0  0  0  0  0  0  0
  142.9620   71.4170  220.8670 O   0  0  0  0  0  0  0  0  0  0  0  0
  143.4280   73.6770  220.4500 C   0  0  0  0  0  0  0  0  0  0  0  0
  142.0350   73.9830  220.8740 C   0  0  1  0  0  0  0  0  0  0  0  0
  141.8270   75.4540  220.9580 C   0  0  0  0  0  0  0  0  0  0  0  0
  141.0710   75.9720  221.9860 C   0  0  0  0  0  0  0  0  0  0  0  0
  140.8760   77.3500  222.0650 C   0  0  0  0  0  0  0  0  0  0  0  0
  141.4460   78.1750  221.1070 C   0  0  0  0  0  0  0  0  0  0  0  0
  141.2250   79.9310  221.1680 Cl  0  0  0  0  0  0  0  0  0  0  0  0
  142.1960   77.6110  220.0930 C   0  0  0  0  0  0  0  0  0  0  0  0
  142.4120   76.2520  219.9810 C   0  0  0  0  0  0  0  0  0  0  0  0
  139.8550   71.1230  223.6070 C   0  0  0  0  0  0  0  0  0  0  0  0
  139.5690   69.8070  223.8140 C   0  0  0  0  0  0  0  0  0  0  0  0
  139.8130   69.2850  225.0840 C   0  0  0  0  0  0  0  0  0  0  0  0
  140.3300   70.0880  226.1020 C   0  0  0  0  0  0  0  0  0  0  0  0
  140.5680   69.5540  227.3630 C   0  0  0  0  0  0  0  0  0  0  0  0
  141.0860   70.4020  228.3470 C   0  0  0  0  0  0  0  0  0  0  0  0
  141.3600   71.7300  228.0930 C   0  0  0  0  0  0  0  0  0  0  0  0
  141.1090   72.2190  226.8250 C   0  0  0  0  0  0  0  0  0  0  0  0
  140.5980   71.4190  225.8270 C   0  0  0  0  0  0  0  0  0  0  0  0
  140.3590   71.9010  224.6060 N   0  0  0  0  0  0  0  0  0  0  0  0
  138.9300   73.5290  223.0880 H   0  0  0  0  0  0  0  0  0  0  0  0
  137.8836   73.3362  220.5611 H   0  0  0  0  0  0  0  0  0  0  0  0
  138.9102   74.7771  221.2049 H   0  0  0  0  0  0  0  0  0  0  0  0
  141.4893   71.6238  218.6839 H   0  0  0  0  0  0  0  0  0  0  0  0
  142.2300   73.0385  217.9874 H   0  0  0  0  0  0  0  0  0  0  0  0
  144.1115   71.8536  219.2774 H   0  0  0  0  0  0  0  0  0  0  0  0
  141.9680   71.3080  220.9900 H   0  0  0  0  0  0  0  0  0  0  0  0
  144.1136   73.6538  221.3099 H   0  0  0  0  0  0  0  0  0  0  0  0
  143.8626   74.4225  219.7678 H   0  0  0  0  0  0  0  0  0  0  0  0
  141.8048   73.5843  221.8730 H   0  0  0  0  0  0  0  0  0  0  0  0
  140.6251   75.3044  222.7379 H   0  0  0  0  0  0  0  0  0  0  0  0
  140.2752   77.7794  222.8803 H   0  0  0  0  0  0  0  0  0  0  0  0
  142.6422   78.2763  219.3392 H   0  0  0  0  0  0  0  0  0  0  0  0
  143.0130   75.8246  219.1649 H   0  0  0  0  0  0  0  0  0  0  0  0
  139.1604   69.1790  223.0086 H   0  0  0  0  0  0  0  0  0  0  0  0
  139.5951   68.2260  225.2863 H   0  0  0  0  0  0  0  0  0  0  0  0
  140.3554   68.4968  227.5803 H   0  0  0  0  0  0  0  0  0  0  0  0
  141.2804   69.9988  229.3518 H   0  0  0  0  0  0  0  0  0  0  0  0
  141.7676   72.3826  228.8791 H   0  0  0  0  0  0  0  0  0  0  0  0
  141.3231   73.2757  226.6069 H   0  0  0  0  0  0  0  0  0  0  0  0
  1  2  2  0
  2  3  1  0
  3  4  1  0
  4  5  1  0
  5  6  2  0
  5  7  1  0
  7  8  1  0
  8  9  1  0
  9 10  1  0
  9 11  1  0
 11 12  1  0
 12 13  1  0
 13 14  2  0
 14 15  1  0
 15 16  2  0
 16 17  1  0
 16 18  1  0
 18 19  2  0
  2 20  1  0
 20 21  2  0
 21 22  1  0
 22 23  2  0
 23 24  1  0
 24 25  2  0
 25 26  1  0
 26 27  2  0
 27 28  1  0
 28 29  2  0
 12  7  1  0
 19 13  1  0
 29 20  1  0
 28 23  1  0
  3 30  1  0
  4 31  1  0
  4 32  1  0
  8 33  1  0
  8 34  1  0
  9 35  1  6
 10 36  1  0
 11 37  1  0
 11 38  1  0
 12 39  1  1
 14 40  1  0
 15 41  1  0
 18 42  1  0
 19 43  1  0
 21 44  1  0
 22 45  1  0
 24 46  1  0
 25 47  1  0
 26 48  1  0
 27 49  1  0
M  END
>  <smiles>  (16) 
O=C(NCC(=O)N1C[C@H](O)C[C@H]1c1ccc(Cl)cc1)c1ccc2ccccc2n1

>  <score_type>  (16) 
oracle

>  <origin>  (16) 
autodockgpu

>  <m_score__min__energy>  (16) 
-9.0500000000000007

>  <m_primary>  (16) 
energy

>  <rmsd>  (16) 
2.7379952222983905

>  <m_score__min__rmsd>  (16) 
2.7379952222983905

>  <meeko>  (16) 
{"free_energy": -7.4, "intermolecular_energy": -9.19, "internal_energy": -2.65, "cluster_size": 22, "cluster_id": 6, "rank_in_cluster": 4}

>  <energy>  (16) 
-7.82

>  <cluster_rmsd>  (16) 
0.08

>  <cluster>  (16) 
4

$$$$

     RDKit          3D

 49 52  0  0  0  0  0  0  0  0999 V2000
  139.7760   70.9930  221.2160 O   0  0  0  0  0  0  0  0  0  0  0  0
  139.5640   71.6910  222.2660 C   0  0  0  0  0  0  0  0  0  0  0  0
  139.0700   73.0330  222.1450 N   0  0  0  0  0  0  0  0  0  0  0  0
  138.7940   73.6900  220.9230 C   0  0  0  0  0  0  0  0  0  0  0  0
  139.7490   73.6410  219.8330 C   0  0  0  0  0  0  0  0  0  0  0  0
  139.2510   73.8600  218.6630 O   0  0  0  0  0  0  0  0  0  0  0  0
  141.1470   73.3960  219.8690 N   0  0  0  0  0  0  0  0  0  0  0  0
  141.9560   72.5500  218.9790 C   0  0  0  0  0  0  0  0  0  0  0  0
  143.2030   72.2620  219.8650 C   0  0  2  0  0  0  0  0  0  0  0  0
  142.8850   71.4110  220.9100 O   0  0  0  0  0  0  0  0  0  0  0  0
  143.3890   73.6590  220.4760 C   0  0  0  0  0  0  0  0  0  0  0  0
  141.9980   73.9910  220.8890 C   0  0  1  0  0  0  0  0  0  0  0  0
  141.8130   75.4660  220.9590 C   0  0  0  0  0  0  0  0  0  0  0  0
  141.0710   76.0060  221.9860 C   0  0  0  0  0  0  0  0  0  0  0  0
  140.8980   77.3870  222.0510 C   0  0  0  0  0  0  0  0  0  0  0  0
  141.4750   78.1940  221.0820 C   0  0  0  0  0  0  0  0  0  0  0  0
  141.2810   79.9530  221.1260 Cl  0  0  0  0  0  0  0  0  0  0  0  0
  142.2110   77.6080  220.0690 C   0  0  0  0  0  0  0  0  0  0  0  0
  142.4050   76.2450  219.9700 C   0  0  0  0  0  0  0  0  0  0  0  0
  139.8320   71.1070  223.5970 C   0  0  0  0  0  0  0  0  0  0  0  0
  139.5720   69.7860  223.8090 C   0  0  0  0  0  0  0  0  0  0  0  0
  139.8370   69.2710  225.0770 C   0  0  0  0  0  0  0  0  0  0  0  0
  140.3490   70.0850  226.0890 C   0  0  0  0  0  0  0  0  0  0  0  0
  140.6080   69.5580  227.3480 C   0  0  0  0  0  0  0  0  0  0  0  0
  141.1200   70.4160  228.3260 C   0  0  0  0  0  0  0  0  0  0  0  0
  141.3680   71.7480  228.0670 C   0  0  0  0  0  0  0  0  0  0  0  0
  141.0960   72.2310  226.8020 C   0  0  0  0  0  0  0  0  0  0  0  0
  140.5910   71.4200  225.8100 C   0  0  0  0  0  0  0  0  0  0  0  0
  140.3320   71.8950  224.5900 N   0  0  0  0  0  0  0  0  0  0  0  0
  138.9200   73.5190  223.0810 H   0  0  0  0  0  0  0  0  0  0  0  0
  137.8553   73.2633  220.5400 H   0  0  0  0  0  0  0  0  0  0  0  0
  138.7936   74.7529  221.2062 H   0  0  0  0  0  0  0  0  0  0  0  0
  141.4267   71.6218  218.7177 H   0  0  0  0  0  0  0  0  0  0  0  0
  142.1935   73.0180  218.0123 H   0  0  0  0  0  0  0  0  0  0  0  0
  144.0493   71.8155  219.3224 H   0  0  0  0  0  0  0  0  0  0  0  0
  141.8910   71.2740  220.9920 H   0  0  0  0  0  0  0  0  0  0  0  0
  144.0690   73.6321  221.3402 H   0  0  0  0  0  0  0  0  0  0  0  0
  143.8398   74.3916  219.7903 H   0  0  0  0  0  0  0  0  0  0  0  0
  141.7556   73.6047  221.8900 H   0  0  0  0  0  0  0  0  0  0  0  0
  140.6193   75.3533  222.7476 H   0  0  0  0  0  0  0  0  0  0  0  0
  140.3081   77.8338  222.8649 H   0  0  0  0  0  0  0  0  0  0  0  0
  142.6633   78.2586  219.3060 H   0  0  0  0  0  0  0  0  0  0  0  0
  142.9945   75.7998  219.1550 H   0  0  0  0  0  0  0  0  0  0  0  0
  139.1676   69.1492  223.0084 H   0  0  0  0  0  0  0  0  0  0  0  0
  139.6400   68.2086  225.2830 H   0  0  0  0  0  0  0  0  0  0  0  0
  140.4161   68.4976  227.5688 H   0  0  0  0  0  0  0  0  0  0  0  0
  141.3308   70.0179  229.3295 H   0  0  0  0  0  0  0  0  0  0  0  0
  141.7721   72.4087  228.8481 H   0  0  0  0  0  0  0  0  0  0  0  0
  141.2877   73.2914  226.5810 H   0  0  0  0  0  0  0  0  0  0  0  0
  1  2  2  0
  2  3  1  0
  3  4  1  0
  4  5  1  0
  5  6  2  0
  5  7  1  0
  7  8  1  0
  8  9  1  0
  9 10  1  0
  9 11  1  0
 11 12  1  0
 12 13  1  0
 13 14  2  0
 14 15  1  0
 15 16  2  0
 16 17  1  0
 16 18  1  0
 18 19  2  0
  2 20  1  0
 20 21  2  0
 21 22  1  0
 22 23  2  0
 23 24  1  0
 24 25  2  0
 25 26  1  0
 26 27  2  0
 27 28  1  0
 28 29  2  0
 12  7  1  0
 19 13  1  0
 29 20  1  0
 28 23  1  0
  3 30  1  0
  4 31  1  0
  4 32  1  0
  8 33  1  0
  8 34  1  0
  9 35  1  6
 10 36  1  0
 11 37  1  0
 11 38  1  0
 12 39  1  1
 14 40  1  0
 15 41  1  0
 18 42  1  0
 19 43  1  0
 21 44  1  0
 22 45  1  0
 24 46  1  0
 25 47  1  0
 26 48  1  0
 27 49  1  0
M  END
>  <smiles>  (17) 
O=C(NCC(=O)N1C[C@H](O)C[C@H]1c1ccc(Cl)cc1)c1ccc2ccccc2n1

>  <score_type>  (17) 
oracle

>  <origin>  (17) 
autodockgpu

>  <m_score__min__energy>  (17) 
-9.0500000000000007

>  <m_primary>  (17) 
energy

>  <rmsd>  (17) 
2.729096140377985

>  <m_score__min__rmsd>  (17) 
2.729096140377985

>  <meeko>  (17) 
{"free_energy": -7.35, "intermolecular_energy": -9.14, "internal_energy": -2.69, "cluster_size": 22, "cluster_id": 6, "rank_in_cluster": 14}

>  <energy>  (17) 
-7.66

>  <cluster_rmsd>  (17) 
0.34

>  <cluster>  (17) 
4

$$$$

     RDKit          3D

 49 52  0  0  0  0  0  0  0  0999 V2000
  139.9600   71.0920  221.2070 O   0  0  0  0  0  0  0  0  0  0  0  0
  139.6570   71.7510  222.2590 C   0  0  0  0  0  0  0  0  0  0  0  0
  139.1270   73.0800  222.1440 N   0  0  0  0  0  0  0  0  0  0  0  0
  138.9100   73.7650  220.9260 C   0  0  0  0  0  0  0  0  0  0  0  0
  139.8320   73.6020  219.8180 C   0  0  0  0  0  0  0  0  0  0  0  0
  139.2910   73.6430  218.6480 O   0  0  0  0  0  0  0  0  0  0  0  0
  141.2390   73.4100  219.8370 N   0  0  0  0  0  0  0  0  0  0  0  0
  142.0710   72.6110  218.9250 C   0  0  0  0  0  0  0  0  0  0  0  0
  143.3380   72.3570  219.7940 C   0  0  2  0  0  0  0  0  0  0  0  0
  143.0630   71.4770  220.8280 O   0  0  0  0  0  0  0  0  0  0  0  0
  143.4750   73.7500  220.4260 C   0  0  0  0  0  0  0  0  0  0  0  0
  142.0770   74.0220  220.8580 C   0  0  1  0  0  0  0  0  0  0  0  0
  141.8360   75.4860  220.9550 C   0  0  0  0  0  0  0  0  0  0  0  0
  141.0650   75.9780  221.9840 C   0  0  0  0  0  0  0  0  0  0  0  0
  140.8390   77.3510  222.0750 C   0  0  0  0  0  0  0  0  0  0  0  0
  141.3930   78.1970  221.1260 C   0  0  0  0  0  0  0  0  0  0  0  0
  141.1330   79.9460  221.2010 Cl  0  0  0  0  0  0  0  0  0  0  0  0
  142.1590   77.6590  220.1090 C   0  0  0  0  0  0  0  0  0  0  0  0
  142.4060   76.3060  219.9860 C   0  0  0  0  0  0  0  0  0  0  0  0
  139.8570   71.1360  223.5880 C   0  0  0  0  0  0  0  0  0  0  0  0
  139.5260   69.8270  223.7720 C   0  0  0  0  0  0  0  0  0  0  0  0
  139.7280   69.2810  225.0400 C   0  0  0  0  0  0  0  0  0  0  0  0
  140.2510   70.0550  226.0780 C   0  0  0  0  0  0  0  0  0  0  0  0
  140.4470   69.4970  227.3360 C   0  0  0  0  0  0  0  0  0  0  0  0
  140.9730   70.3150  228.3410 C   0  0  0  0  0  0  0  0  0  0  0  0
  141.2940   71.6370  228.1090 C   0  0  0  0  0  0  0  0  0  0  0  0
  141.0830   72.1500  226.8440 C   0  0  0  0  0  0  0  0  0  0  0  0
  140.5670   71.3800  225.8260 C   0  0  0  0  0  0  0  0  0  0  0  0
  140.3670   71.8840  224.6070 N   0  0  0  0  0  0  0  0  0  0  0  0
  138.9010   73.5320  223.0810 H   0  0  0  0  0  0  0  0  0  0  0  0
  137.9199   73.4542  220.5611 H   0  0  0  0  0  0  0  0  0  0  0  0
  139.0433   74.8201  221.2071 H   0  0  0  0  0  0  0  0  0  0  0  0
  141.5754   71.6673  218.6532 H   0  0  0  0  0  0  0  0  0  0  0  0
  142.2801   73.1039  217.9641 H   0  0  0  0  0  0  0  0  0  0  0  0
  144.1958   71.9528  219.2365 H   0  0  0  0  0  0  0  0  0  0  0  0
  142.0720   71.3600  220.9670 H   0  0  0  0  0  0  0  0  0  0  0  0
  144.1643   73.7358  221.2831 H   0  0  0  0  0  0  0  0  0  0  0  0
  143.8894   74.5102  219.7475 H   0  0  0  0  0  0  0  0  0  0  0  0
  141.8600   73.6114  221.8552 H   0  0  0  0  0  0  0  0  0  0  0  0
  140.6310   75.2939  222.7280 H   0  0  0  0  0  0  0  0  0  0  0  0
  140.2266   77.7595  222.8924 H   0  0  0  0  0  0  0  0  0  0  0  0
  142.5923   78.3408  219.3624 H   0  0  0  0  0  0  0  0  0  0  0  0
  143.0189   75.8993  219.1681 H   0  0  0  0  0  0  0  0  0  0  0  0
  139.1143   69.2225  222.9504 H   0  0  0  0  0  0  0  0  0  0  0  0
  139.4720   68.2272  225.2244 H   0  0  0  0  0  0  0  0  0  0  0  0
  140.1961   68.4446  227.5348 H   0  0  0  0  0  0  0  0  0  0  0  0
  141.1353   69.8931  229.3438 H   0  0  0  0  0  0  0  0  0  0  0  0
  141.7074   72.2662  228.9110 H   0  0  0  0  0  0  0  0  0  0  0  0
  141.3340   73.2022  226.6445 H   0  0  0  0  0  0  0  0  0  0  0  0
  1  2  2  0
  2  3  1  0
  3  4  1  0
  4  5  1  0
  5  6  2  0
  5  7  1  0
  7  8  1  0
  8  9  1  0
  9 10  1  0
  9 11  1  0
 11 12  1  0
 12 13  1  0
 13 14  2  0
 14 15  1  0
 15 16  2  0
 16 17  1  0
 16 18  1  0
 18 19  2  0
  2 20  1  0
 20 21  2  0
 21 22  1  0
 22 23  2  0
 23 24  1  0
 24 25  2  0
 25 26  1  0
 26 27  2  0
 27 28  1  0
 28 29  2  0
 12  7  1  0
 19 13  1  0
 29 20  1  0
 28 23  1  0
  3 30  1  0
  4 31  1  0
  4 32  1  0
  8 33  1  0
  8 34  1  0
  9 35  1  6
 10 36  1  0
 11 37  1  0
 11 38  1  0
 12 39  1  1
 14 40  1  0
 15 41  1  0
 18 42  1  0
 19 43  1  0
 21 44  1  0
 22 45  1  0
 24 46  1  0
 25 47  1  0
 26 48  1  0
 27 49  1  0
M  END
>  <smiles>  (18) 
O=C(NCC(=O)N1C[C@H](O)C[C@H]1c1ccc(Cl)cc1)c1ccc2ccccc2n1

>  <score_type>  (18) 
oracle

>  <origin>  (18) 
autodockgpu

>  <m_score__min__energy>  (18) 
-9.0500000000000007

>  <m_primary>  (18) 
energy

>  <rmsd>  (18) 
2.7204135763700013

>  <m_score__min__rmsd>  (18) 
2.7204135763700013

>  <meeko>  (18) 
{"free_energy": -7.44, "intermolecular_energy": -9.23, "internal_energy": -2.58, "cluster_size": 22, "cluster_id": 6, "rank_in_cluster": 2}

>  <energy>  (18) 
-7.76

>  <cluster_rmsd>  (18) 
0.0

>  <cluster>  (18) 
5

$$$$

     RDKit          3D

 49 52  0  0  0  0  0  0  0  0999 V2000
  139.8720   71.0110  221.2120 O   0  0  0  0  0  0  0  0  0  0  0  0
  139.5650   71.6780  222.2580 C   0  0  0  0  0  0  0  0  0  0  0  0
  138.9790   72.9820  222.1280 N   0  0  0  0  0  0  0  0  0  0  0  0
  138.7090   73.6330  220.9010 C   0  0  0  0  0  0  0  0  0  0  0  0
  139.6630   73.5680  219.8110 C   0  0  0  0  0  0  0  0  0  0  0  0
  139.1720   73.8060  218.6420 O   0  0  0  0  0  0  0  0  0  0  0  0
  141.0550   73.2890  219.8460 N   0  0  0  0  0  0  0  0  0  0  0  0
  141.8440   72.4280  218.9520 C   0  0  0  0  0  0  0  0  0  0  0  0
  143.0830   72.1050  219.8360 C   0  0  2  0  0  0  0  0  0  0  0  0
  142.7440   71.2570  220.8770 O   0  0  0  0  0  0  0  0  0  0  0  0
  143.3020   73.4940  220.4550 C   0  0  0  0  0  0  0  0  0  0  0  0
  141.9200   73.8580  220.8690 C   0  0  1  0  0  0  0  0  0  0  0  0
  141.7710   75.3360  220.9470 C   0  0  0  0  0  0  0  0  0  0  0  0
  142.3600   76.1270  219.9860 C   0  0  0  0  0  0  0  0  0  0  0  0
  142.2210   77.5120  220.0590 C   0  0  0  0  0  0  0  0  0  0  0  0
  141.4900   78.0700  221.0990 C   0  0  0  0  0  0  0  0  0  0  0  0
  141.2860   79.8230  221.2310 Cl  0  0  0  0  0  0  0  0  0  0  0  0
  140.9170   77.2370  222.0410 C   0  0  0  0  0  0  0  0  0  0  0  0
  141.0330   75.8620  222.0030 C   0  0  0  0  0  0  0  0  0  0  0  0
  139.8180   71.1000  223.5940 C   0  0  0  0  0  0  0  0  0  0  0  0
  139.5410   69.7830  223.8110 C   0  0  0  0  0  0  0  0  0  0  0  0
  139.7930   69.2720  225.0850 C   0  0  0  0  0  0  0  0  0  0  0  0
  140.3080   70.0860  226.0950 C   0  0  0  0  0  0  0  0  0  0  0  0
  140.5530   69.5630  227.3590 C   0  0  0  0  0  0  0  0  0  0  0  0
  141.0680   70.4220  228.3350 C   0  0  0  0  0  0  0  0  0  0  0  0
  141.3330   71.7490  228.0700 C   0  0  0  0  0  0  0  0  0  0  0  0
  141.0750   72.2270  226.8000 C   0  0  0  0  0  0  0  0  0  0  0  0
  140.5660   71.4170  225.8090 C   0  0  0  0  0  0  0  0  0  0  0  0
  140.3200   71.8880  224.5860 N   0  0  0  0  0  0  0  0  0  0  0  0
  138.7550   73.4450  223.0610 H   0  0  0  0  0  0  0  0  0  0  0  0
  137.7664   73.2122  220.5211 H   0  0  0  0  0  0  0  0  0  0  0  0
  138.7188   74.6978  221.1770 H   0  0  0  0  0  0  0  0  0  0  0  0
  141.2924   71.5143  218.6858 H   0  0  0  0  0  0  0  0  0  0  0  0
  142.0934   72.8954  217.9880 H   0  0  0  0  0  0  0  0  0  0  0  0
  143.9182   71.6409  219.2909 H   0  0  0  0  0  0  0  0  0  0  0  0
  141.7470   71.1260  220.9440 H   0  0  0  0  0  0  0  0  0  0  0  0
  143.9805   73.4458  221.3195 H   0  0  0  0  0  0  0  0  0  0  0  0
  143.7706   74.2190  219.7733 H   0  0  0  0  0  0  0  0  0  0  0  0
  141.6679   73.4728  221.8680 H   0  0  0  0  0  0  0  0  0  0  0  0
  142.9354   75.6697  219.1676 H   0  0  0  0  0  0  0  0  0  0  0  0
  142.6864   78.1572  219.2993 H   0  0  0  0  0  0  0  0  0  0  0  0
  140.3408   77.6914  222.8605 H   0  0  0  0  0  0  0  0  0  0  0  0
  140.5683   75.2184  222.7645 H   0  0  0  0  0  0  0  0  0  0  0  0
  139.1339   69.1466  223.0115 H   0  0  0  0  0  0  0  0  0  0  0  0
  139.5828   68.2131  225.2960 H   0  0  0  0  0  0  0  0  0  0  0  0
  140.3482   68.5061  227.5848 H   0  0  0  0  0  0  0  0  0  0  0  0
  141.2673   70.0280  229.3425 H   0  0  0  0  0  0  0  0  0  0  0  0
  141.7393   72.4099  228.8498 H   0  0  0  0  0  0  0  0  0  0  0  0
  141.2817   73.2835  226.5738 H   0  0  0  0  0  0  0  0  0  0  0  0
  1  2  2  0
  2  3  1  0
  3  4  1  0
  4  5  1  0
  5  6  2  0
  5  7  1  0
  7  8  1  0
  8  9  1  0
  9 10  1  0
  9 11  1  0
 11 12  1  0
 12 13  1  0
 13 14  2  0
 14 15  1  0
 15 16  2  0
 16 17  1  0
 16 18  1  0
 18 19  2  0
  2 20  1  0
 20 21  2  0
 21 22  1  0
 22 23  2  0
 23 24  1  0
 24 25  2  0
 25 26  1  0
 26 27  2  0
 27 28  1  0
 28 29  2  0
 12  7  1  0
 19 13  1  0
 29 20  1  0
 28 23  1  0
  3 30  1  0
  4 31  1  0
  4 32  1  0
  8 33  1  0
  8 34  1  0
  9 35  1  6
 10 36  1  0
 11 37  1  0
 11 38  1  0
 12 39  1  1
 14 40  1  0
 15 41  1  0
 18 42  1  0
 19 43  1  0
 21 44  1  0
 22 45  1  0
 24 46  1  0
 25 47  1  0
 26 48  1  0
 27 49  1  0
M  END
>  <smiles>  (19) 
O=C(NCC(=O)N1C[C@H](O)C[C@H]1c1ccc(Cl)cc1)c1ccc2ccccc2n1

>  <score_type>  (19) 
oracle

>  <origin>  (19) 
autodockgpu

>  <m_score__min__energy>  (19) 
-9.0500000000000007

>  <m_primary>  (19) 
energy

>  <rmsd>  (19) 
2.749581570843636

>  <m_score__min__rmsd>  (19) 
2.749581570843636

>  <meeko>  (19) 
{"free_energy": -7.33, "intermolecular_energy": -9.12, "internal_energy": -2.7, "cluster_size": 22, "cluster_id": 6, "rank_in_cluster": 16}

>  <energy>  (19) 
-7.74

>  <cluster_rmsd>  (19) 
0.14

>  <cluster>  (19) 
5

$$$$

     RDKit          3D

 49 52  0  0  0  0  0  0  0  0999 V2000
  140.5910   76.9460  219.3250 O   0  0  0  0  0  0  0  0  0  0  0  0
  141.8660   76.9830  219.2440 C   0  0  0  0  0  0  0  0  0  0  0  0
  142.5420   78.2470  219.1730 N   0  0  0  0  0  0  0  0  0  0  0  0
  141.9050   79.5100  219.1720 C   0  0  0  0  0  0  0  0  0  0  0  0
  141.1320   79.9420  220.3210 C   0  0  0  0  0  0  0  0  0  0  0  0
  139.9010   80.2350  220.0700 O   0  0  0  0  0  0  0  0  0  0  0  0
  141.5330   80.0820  221.6760 N   0  0  0  0  0  0  0  0  0  0  0  0
  141.8150   81.3130  222.4290 C   0  0  0  0  0  0  0  0  0  0  0  0
  142.7160   80.7790  223.5810 C   0  0  2  0  0  0  0  0  0  0  0  0
  143.9610   80.4040  223.1050 O   0  0  0  0  0  0  0  0  0  0  0  0
  141.9560   79.4810  223.8940 C   0  0  0  0  0  0  0  0  0  0  0  0
  141.7420   78.9230  222.5310 C   0  0  1  0  0  0  0  0  0  0  0  0
  140.5630   78.0160  222.5170 C   0  0  0  0  0  0  0  0  0  0  0  0
  140.7500   76.6680  222.3090 C   0  0  0  0  0  0  0  0  0  0  0  0
  139.6450   75.8180  222.2950 C   0  0  0  0  0  0  0  0  0  0  0  0
  138.3770   76.3450  222.4930 C   0  0  0  0  0  0  0  0  0  0  0  0
  136.9450   75.3040  222.4840 Cl  0  0  0  0  0  0  0  0  0  0  0  0
  138.2380   77.7050  222.6980 C   0  0  0  0  0  0  0  0  0  0  0  0
  139.3060   78.5780  222.7180 C   0  0  0  0  0  0  0  0  0  0  0  0
  142.6330   75.7200  219.2220 C   0  0  0  0  0  0  0  0  0  0  0  0
  142.2270   74.7090  218.4030 C   0  0  0  0  0  0  0  0  0  0  0  0
  142.9750   73.5320  218.4090 C   0  0  0  0  0  0  0  0  0  0  0  0
  144.0980   73.4010  219.2280 C   0  0  0  0  0  0  0  0  0  0  0  0
  144.8340   72.2220  219.2230 C   0  0  0  0  0  0  0  0  0  0  0  0
  145.9500   72.1430  220.0620 C   0  0  0  0  0  0  0  0  0  0  0  0
  146.3250   73.1920  220.8760 C   0  0  0  0  0  0  0  0  0  0  0  0
  145.5650   74.3450  220.8480 C   0  0  0  0  0  0  0  0  0  0  0  0
  144.4580   74.4660  220.0380 C   0  0  0  0  0  0  0  0  0  0  0  0
  143.7300   75.5830  220.0180 N   0  0  0  0  0  0  0  0  0  0  0  0
  143.6030   78.1620  219.1180 H   0  0  0  0  0  0  0  0  0  0  0  0
  142.6940   80.2616  219.0214 H   0  0  0  0  0  0  0  0  0  0  0  0
  141.1436   79.4042  218.3852 H   0  0  0  0  0  0  0  0  0  0  0  0
  142.3497   82.0483  221.8097 H   0  0  0  0  0  0  0  0  0  0  0  0
  140.9142   81.8411  222.7749 H   0  0  0  0  0  0  0  0  0  0  0  0
  142.8779   81.4969  224.3985 H   0  0  0  0  0  0  0  0  0  0  0  0
  143.8900   79.7680  222.3280 H   0  0  0  0  0  0  0  0  0  0  0  0
  142.5592   78.8026  224.5153 H   0  0  0  0  0  0  0  0  0  0  0  0
  141.0287   79.6324  224.4661 H   0  0  0  0  0  0  0  0  0  0  0  0
  142.5947   78.3187  222.1878 H   0  0  0  0  0  0  0  0  0  0  0  0
  141.7620   76.2653  222.1553 H   0  0  0  0  0  0  0  0  0  0  0  0
  139.7774   74.7388  222.1284 H   0  0  0  0  0  0  0  0  0  0  0  0
  137.2273   78.1106  222.8526 H   0  0  0  0  0  0  0  0  0  0  0  0
  139.1715   79.6571  222.8835 H   0  0  0  0  0  0  0  0  0  0  0  0
  141.3410   74.8176  217.7602 H   0  0  0  0  0  0  0  0  0  0  0  0
  142.6762   72.6958  217.7598 H   0  0  0  0  0  0  0  0  0  0  0  0
  144.5476   71.3774  218.5792 H   0  0  0  0  0  0  0  0  0  0  0  0
  146.5457   71.2184  220.0733 H   0  0  0  0  0  0  0  0  0  0  0  0
  147.2059   73.1122  221.5300 H   0  0  0  0  0  0  0  0  0  0  0  0
  145.8521   75.1903  221.4908 H   0  0  0  0  0  0  0  0  0  0  0  0
  1  2  2  0
  2  3  1  0
  3  4  1  0
  4  5  1  0
  5  6  2  0
  5  7  1  0
  7  8  1  0
  8  9  1  0
  9 10  1  0
  9 11  1  0
 11 12  1  0
 12 13  1  0
 13 14  2  0
 14 15  1  0
 15 16  2  0
 16 17  1  0
 16 18  1  0
 18 19  2  0
  2 20  1  0
 20 21  2  0
 21 22  1  0
 22 23  2  0
 23 24  1  0
 24 25  2  0
 25 26  1  0
 26 27  2  0
 27 28  1  0
 28 29  2  0
 12  7  1  0
 19 13  1  0
 29 20  1  0
 28 23  1  0
  3 30  1  0
  4 31  1  0
  4 32  1  0
  8 33  1  0
  8 34  1  0
  9 35  1  1
 10 36  1  0
 11 37  1  0
 11 38  1  0
 12 39  1  6
 14 40  1  0
 15 41  1  0
 18 42  1  0
 19 43  1  0
 21 44  1  0
 22 45  1  0
 24 46  1  0
 25 47  1  0
 26 48  1  0
 27 49  1  0
M  END
>  <smiles>  (20) 
O=C(NCC(=O)N1C[C@H](O)C[C@H]1c1ccc(Cl)cc1)c1ccc2ccccc2n1

>  <score_type>  (20) 
oracle

>  <origin>  (20) 
autodockgpu

>  <m_score__min__energy>  (20) 
-9.0500000000000007

>  <m_primary>  (20) 
energy

>  <rmsd>  (20) 
7.703567360162925

>  <m_score__min__rmsd>  (20) 
7.703567360162925

>  <meeko>  (20) 
{"free_energy": -7.76, "intermolecular_energy": -9.55, "internal_energy": -2.15, "cluster_size": 7, "cluster_id": 5, "rank_in_cluster": 1}

>  <energy>  (20) 
-7.66

>  <cluster_rmsd>  (20) 
0.31

>  <cluster>  (20) 
5

$$$$

     RDKit          3D

 49 52  0  0  0  0  0  0  0  0999 V2000
  140.2810   70.9740  221.6300 O   0  0  0  0  0  0  0  0  0  0  0  0
  139.6140   71.2800  222.6760 C   0  0  0  0  0  0  0  0  0  0  0  0
  138.8120   72.4710  222.6900 N   0  0  0  0  0  0  0  0  0  0  0  0
  138.6940   73.3830  221.6150 C   0  0  0  0  0  0  0  0  0  0  0  0
  139.8050   74.2450  221.2600 C   0  0  0  0  0  0  0  0  0  0  0  0
  140.6990   74.3900  222.1790 O   0  0  0  0  0  0  0  0  0  0  0  0
  140.0520   74.9440  220.0490 N   0  0  0  0  0  0  0  0  0  0  0  0
  139.4350   76.1880  219.5620 C   0  0  0  0  0  0  0  0  0  0  0  0
  139.6860   76.0850  218.0290 C   0  0  2  0  0  0  0  0  0  0  0  0
  138.8990   75.0960  217.4620 O   0  0  0  0  0  0  0  0  0  0  0  0
  141.1220   75.5410  218.0590 C   0  0  0  0  0  0  0  0  0  0  0  0
  141.0090   74.4530  219.0680 C   0  0  1  0  0  0  0  0  0  0  0  0
  142.3330   74.1790  219.6900 C   0  0  0  0  0  0  0  0  0  0  0  0
  142.6180   72.9090  220.1390 C   0  0  0  0  0  0  0  0  0  0  0  0
  143.8580   72.6520  220.7210 C   0  0  0  0  0  0  0  0  0  0  0  0
  144.7830   73.6790  220.8390 C   0  0  0  0  0  0  0  0  0  0  0  0
  146.3690   73.3990  221.5720 Cl  0  0  0  0  0  0  0  0  0  0  0  0
  144.4520   74.9390  220.3750 C   0  0  0  0  0  0  0  0  0  0  0  0
  143.2360   75.2320  219.7930 C   0  0  0  0  0  0  0  0  0  0  0  0
  139.6760   70.4040  223.8650 C   0  0  0  0  0  0  0  0  0  0  0  0
  139.1640   69.1430  223.7880 C   0  0  0  0  0  0  0  0  0  0  0  0
  139.2390   68.3450  224.9300 C   0  0  0  0  0  0  0  0  0  0  0  0
  139.8180   68.8280  226.1050 C   0  0  0  0  0  0  0  0  0  0  0  0
  139.8860   68.0210  227.2340 C   0  0  0  0  0  0  0  0  0  0  0  0
  140.4760   68.5530  228.3850 C   0  0  0  0  0  0  0  0  0  0  0  0
  140.9810   69.8370  228.4180 C   0  0  0  0  0  0  0  0  0  0  0  0
  140.8930   70.6030  227.2720 C   0  0  0  0  0  0  0  0  0  0  0  0
  140.3190   70.1190  226.1170 C   0  0  0  0  0  0  0  0  0  0  0  0
  140.2390   70.8670  225.0160 N   0  0  0  0  0  0  0  0  0  0  0  0
  138.2910   72.6240  223.6060 H   0  0  0  0  0  0  0  0  0  0  0  0
  138.4575   72.7880  220.7205 H   0  0  0  0  0  0  0  0  0  0  0  0
  137.9329   74.0922  221.9725 H   0  0  0  0  0  0  0  0  0  0  0  0
  138.3596   76.2188  219.7912 H   0  0  0  0  0  0  0  0  0  0  0  0
  139.8447   77.0996  220.0215 H   0  0  0  0  0  0  0  0  0  0  0  0
  139.4949   77.0164  217.4760 H   0  0  0  0  0  0  0  0  0  0  0  0
  138.5450   74.4560  218.1540 H   0  0  0  0  0  0  0  0  0  0  0  0
  141.4228   75.1478  217.0767 H   0  0  0  0  0  0  0  0  0  0  0  0
  141.8823   76.2982  218.3008 H   0  0  0  0  0  0  0  0  0  0  0  0
  140.6779   73.5029  218.6234 H   0  0  0  0  0  0  0  0  0  0  0  0
  141.8741   72.1049  220.0393 H   0  0  0  0  0  0  0  0  0  0  0  0
  144.1013   71.6425  221.0840 H   0  0  0  0  0  0  0  0  0  0  0  0
  145.1932   75.7456  220.4747 H   0  0  0  0  0  0  0  0  0  0  0  0
  142.9940   76.2420  219.4306 H   0  0  0  0  0  0  0  0  0  0  0  0
  138.7084   68.7683  222.8595 H   0  0  0  0  0  0  0  0  0  0  0  0
  138.8366   67.3216  224.9042 H   0  0  0  0  0  0  0  0  0  0  0  0
  139.4882   66.9955  227.2229 H   0  0  0  0  0  0  0  0  0  0  0  0
  140.5393   67.9304  229.2896 H   0  0  0  0  0  0  0  0  0  0  0  0
  141.4412   70.2395  229.3324 H   0  0  0  0  0  0  0  0  0  0  0  0
  141.2923   71.6279  227.2819 H   0  0  0  0  0  0  0  0  0  0  0  0
  1  2  2  0
  2  3  1  0
  3  4  1  0
  4  5  1  0
  5  6  2  0
  5  7  1  0
  7  8  1  0
  8  9  1  0
  9 10  1  0
  9 11  1  0
 11 12  1  0
 12 13  1  0
 13 14  2  0
 14 15  1  0
 15 16  2  0
 16 17  1  0
 16 18  1  0
 18 19  2  0
  2 20  1  0
 20 21  2  0
 21 22  1  0
 22 23  2  0
 23 24  1  0
 24 25  2  0
 25 26  1  0
 26 27  2  0
 27 28  1  0
 28 29  2  0
 12  7  1  0
 19 13  1  0
 29 20  1  0
 28 23  1  0
  3 30  1  0
  4 31  1  0
  4 32  1  0
  8 33  1  0
  8 34  1  0
  9 35  1  6
 10 36  1  0
 11 37  1  0
 11 38  1  0
 12 39  1  6
 14 40  1  0
 15 41  1  0
 18 42  1  0
 19 43  1  0
 21 44  1  0
 22 45  1  0
 24 46  1  0
 25 47  1  0
 26 48  1  0
 27 49  1  0
M  END
>  <smiles>  (21) 
O=C(NCC(=O)N1C[C@H](O)C[C@H]1c1ccc(Cl)cc1)c1ccc2ccccc2n1

>  <score_type>  (21) 
oracle

>  <origin>  (21) 
autodockgpu

>  <m_score__min__energy>  (21) 
-9.0500000000000007

>  <m_primary>  (21) 
energy

>  <rmsd>  (21) 
1.5358648709881875

>  <m_score__min__rmsd>  (21) 
1.5358648709881875

>  <meeko>  (21) 
{"free_energy": -7.87, "intermolecular_energy": -9.66, "internal_energy": -1.57, "cluster_size": 1, "cluster_id": 3, "rank_in_cluster": 1}

>  <energy>  (21) 
-7.64

>  <cluster_rmsd>  (21) 
0.35

>  <cluster>  (21) 
5

$$$$

     RDKit          3D

 49 52  0  0  0  0  0  0  0  0999 V2000
  139.4050   70.9730  221.0720 O   0  0  0  0  0  0  0  0  0  0  0  0
  139.1510   71.5880  222.1620 C   0  0  0  0  0  0  0  0  0  0  0  0
  138.5720   72.9010  222.1250 N   0  0  0  0  0  0  0  0  0  0  0  0
  138.2540   73.6150  220.9470 C   0  0  0  0  0  0  0  0  0  0  0  0
  139.2960   73.9820  220.0070 C   0  0  0  0  0  0  0  0  0  0  0  0
  138.9050   74.7100  219.0160 O   0  0  0  0  0  0  0  0  0  0  0  0
  140.6790   73.6620  220.0250 N   0  0  0  0  0  0  0  0  0  0  0  0
  141.4410   72.8200  219.0900 C   0  0  0  0  0  0  0  0  0  0  0  0
  142.6730   72.4230  219.9560 C   0  0  2  0  0  0  0  0  0  0  0  0
  142.3120   71.5390  220.9590 O   0  0  0  0  0  0  0  0  0  0  0  0
  142.9320   73.7770  220.6340 C   0  0  0  0  0  0  0  0  0  0  0  0
  141.5620   74.1610  221.0690 C   0  0  1  0  0  0  0  0  0  0  0  0
  141.4550   75.6380  221.2130 C   0  0  0  0  0  0  0  0  0  0  0  0
  140.8120   76.1650  222.3100 C   0  0  0  0  0  0  0  0  0  0  0  0
  140.7110   77.5480  222.4450 C   0  0  0  0  0  0  0  0  0  0  0  0
  141.2610   78.3700  221.4720 C   0  0  0  0  0  0  0  0  0  0  0  0
  141.1570   80.1330  221.6010 Cl  0  0  0  0  0  0  0  0  0  0  0  0
  141.8960   77.7960  220.3870 C   0  0  0  0  0  0  0  0  0  0  0  0
  142.0160   76.4320  220.2180 C   0  0  0  0  0  0  0  0  0  0  0  0
  139.4580   70.9400  223.4550 C   0  0  0  0  0  0  0  0  0  0  0  0
  139.2200   69.6060  223.6020 C   0  0  0  0  0  0  0  0  0  0  0  0
  139.5220   69.0290  224.8360 C   0  0  0  0  0  0  0  0  0  0  0  0
  140.0460   69.7970  225.8780 C   0  0  0  0  0  0  0  0  0  0  0  0
  140.3400   69.2080  227.1010 C   0  0  0  0  0  0  0  0  0  0  0  0
  140.8630   70.0220  228.1110 C   0  0  0  0  0  0  0  0  0  0  0  0
  141.0870   71.3700  227.9170 C   0  0  0  0  0  0  0  0  0  0  0  0
  140.7800   71.9130  226.6850 C   0  0  0  0  0  0  0  0  0  0  0  0
  140.2630   71.1480  225.6630 C   0  0  0  0  0  0  0  0  0  0  0  0
  139.9690   71.6820  224.4770 N   0  0  0  0  0  0  0  0  0  0  0  0
  138.3930   73.3160  223.0900 H   0  0  0  0  0  0  0  0  0  0  0  0
  137.5299   73.0009  220.3915 H   0  0  0  0  0  0  0  0  0  0  0  0
  137.9119   74.5875  221.3307 H   0  0  0  0  0  0  0  0  0  0  0  0
  140.8632   71.9351  218.7850 H   0  0  0  0  0  0  0  0  0  0  0  0
  141.7012   73.3224  218.1467 H   0  0  0  0  0  0  0  0  0  0  0  0
  143.4942   71.9600  219.3892 H   0  0  0  0  0  0  0  0  0  0  0  0
  141.3270   71.3320  220.9400 H   0  0  0  0  0  0  0  0  0  0  0  0
  143.6112   73.6724  221.4929 H   0  0  0  0  0  0  0  0  0  0  0  0
  143.4186   74.5178  219.9825 H   0  0  0  0  0  0  0  0  0  0  0  0
  141.3014   73.7395  222.0511 H   0  0  0  0  0  0  0  0  0  0  0  0
  140.3817   75.5001  223.0734 H   0  0  0  0  0  0  0  0  0  0  0  0
  140.1996   77.9845  223.3156 H   0  0  0  0  0  0  0  0  0  0  0  0
  142.3263   78.4584  219.6214 H   0  0  0  0  0  0  0  0  0  0  0  0
  142.5263   75.9970  219.3460 H   0  0  0  0  0  0  0  0  0  0  0  0
  138.8052   69.0065  222.7783 H   0  0  0  0  0  0  0  0  0  0  0  0
  139.3449   67.9544  224.9902 H   0  0  0  0  0  0  0  0  0  0  0  0
  140.1669   68.1349  227.2700 H   0  0  0  0  0  0  0  0  0  0  0  0
  141.1025   69.5753  229.0873 H   0  0  0  0  0  0  0  0  0  0  0  0
  141.4992   71.9954  228.7226 H   0  0  0  0  0  0  0  0  0  0  0  0
  140.9531   72.9859  226.5152 H   0  0  0  0  0  0  0  0  0  0  0  0
  1  2  2  0
  2  3  1  0
  3  4  1  0
  4  5  1  0
  5  6  2  0
  5  7  1  0
  7  8  1  0
  8  9  1  0
  9 10  1  0
  9 11  1  0
 11 12  1  0
 12 13  1  0
 13 14  2  0
 14 15  1  0
 15 16  2  0
 16 17  1  0
 16 18  1  0
 18 19  2  0
  2 20  1  0
 20 21  2  0
 21 22  1  0
 22 23  2  0
 23 24  1  0
 24 25  2  0
 25 26  1  0
 26 27  2  0
 27 28  1  0
 28 29  2  0
 12  7  1  0
 19 13  1  0
 29 20  1  0
 28 23  1  0
  3 30  1  0
  4 31  1  0
  4 32  1  0
  8 33  1  0
  8 34  1  0
  9 35  1  6
 10 36  1  0
 11 37  1  0
 11 38  1  0
 12 39  1  1
 14 40  1  0
 15 41  1  0
 18 42  1  0
 19 43  1  0
 21 44  1  0
 22 45  1  0
 24 46  1  0
 25 47  1  0
 26 48  1  0
 27 49  1  0
M  END
>  <smiles>  (22) 
O=C(NCC(=O)N1C[C@H](O)C[C@H]1c1ccc(Cl)cc1)c1ccc2ccccc2n1

>  <score_type>  (22) 
oracle

>  <origin>  (22) 
autodockgpu

>  <m_score__min__energy>  (22) 
-9.0500000000000007

>  <m_primary>  (22) 
energy

>  <rmsd>  (22) 
2.4531424011848353

>  <m_score__min__rmsd>  (22) 
2.4531424011848353

>  <meeko>  (22) 
{"free_energy": -7.17, "intermolecular_energy": -8.96, "internal_energy": -2.73, "cluster_size": 22, "cluster_id": 6, "rank_in_cluster": 21}

>  <energy>  (22) 
-7.62

>  <cluster_rmsd>  (22) 
0.34

>  <cluster>  (22) 
5

$$$$

     RDKit          3D

 49 52  0  0  0  0  0  0  0  0999 V2000
  140.3120   71.3270  221.2140 O   0  0  0  0  0  0  0  0  0  0  0  0
  139.8220   71.8910  222.2510 C   0  0  0  0  0  0  0  0  0  0  0  0
  139.1830   73.1710  222.1350 N   0  0  0  0  0  0  0  0  0  0  0  0
  139.0500   73.9060  220.9340 C   0  0  0  0  0  0  0  0  0  0  0  0
  139.9600   73.6770  219.8290 C   0  0  0  0  0  0  0  0  0  0  0  0
  139.3940   73.5100  218.6820 O   0  0  0  0  0  0  0  0  0  0  0  0
  141.3790   73.6180  219.8270 N   0  0  0  0  0  0  0  0  0  0  0  0
  142.2700   72.9290  218.8810 C   0  0  0  0  0  0  0  0  0  0  0  0
  143.5660   72.7680  219.7290 C   0  0  2  0  0  0  0  0  0  0  0  0
  143.3880   71.8350  220.7380 O   0  0  0  0  0  0  0  0  0  0  0  0
  143.5800   74.1480  220.4040 C   0  0  0  0  0  0  0  0  0  0  0  0
  142.1690   74.2740  220.8580 C   0  0  1  0  0  0  0  0  0  0  0  0
  141.7940   75.7060  221.0040 C   0  0  0  0  0  0  0  0  0  0  0  0
  142.1890   76.6090  220.0430 C   0  0  0  0  0  0  0  0  0  0  0  0
  141.8370   77.9510  220.1790 C   0  0  0  0  0  0  0  0  0  0  0  0
  141.0950   78.3530  221.2800 C   0  0  0  0  0  0  0  0  0  0  0  0
  140.6250   80.0470  221.4940 Cl  0  0  0  0  0  0  0  0  0  0  0  0
  140.7210   77.4110  222.2200 C   0  0  0  0  0  0  0  0  0  0  0  0
  141.0500   76.0750  222.1200 C   0  0  0  0  0  0  0  0  0  0  0  0
  139.9180   71.2180  223.5630 C   0  0  0  0  0  0  0  0  0  0  0  0
  139.4990   69.9260  223.6800 C   0  0  0  0  0  0  0  0  0  0  0  0
  139.6040   69.3230  224.9330 C   0  0  0  0  0  0  0  0  0  0  0  0
  140.1210   70.0240  226.0240 C   0  0  0  0  0  0  0  0  0  0  0  0
  140.2200   69.4100  227.2670 C   0  0  0  0  0  0  0  0  0  0  0  0
  140.7440   70.1570  228.3270 C   0  0  0  0  0  0  0  0  0  0  0  0
  141.1570   71.4630  228.1630 C   0  0  0  0  0  0  0  0  0  0  0  0
  141.0400   72.0340  226.9100 C   0  0  0  0  0  0  0  0  0  0  0  0
  140.5290   71.3350  225.8390 C   0  0  0  0  0  0  0  0  0  0  0  0
  140.4210   71.8950  224.6330 N   0  0  0  0  0  0  0  0  0  0  0  0
  138.8010   73.5440  223.0570 H   0  0  0  0  0  0  0  0  0  0  0  0
  138.0366   73.7093  220.5542 H   0  0  0  0  0  0  0  0  0  0  0  0
  139.2895   74.9339  221.2441 H   0  0  0  0  0  0  0  0  0  0  0  0
  141.8612   71.9520  218.5839 H   0  0  0  0  0  0  0  0  0  0  0  0
  142.4197   73.4687  217.9343 H   0  0  0  0  0  0  0  0  0  0  0  0
  144.4502   72.4629  219.1502 H   0  0  0  0  0  0  0  0  0  0  0  0
  142.4130   71.6480  220.9070 H   0  0  0  0  0  0  0  0  0  0  0  0
  144.2785   74.1722  221.2534 H   0  0  0  0  0  0  0  0  0  0  0  0
  143.9127   74.9643  219.7461 H   0  0  0  0  0  0  0  0  0  0  0  0
  142.0038   73.8142  221.8435 H   0  0  0  0  0  0  0  0  0  0  0  0
  142.7771   76.2747  219.1756 H   0  0  0  0  0  0  0  0  0  0  0  0
  142.1450   78.6849  219.4197 H   0  0  0  0  0  0  0  0  0  0  0  0
  140.1333   77.7423  223.0888 H   0  0  0  0  0  0  0  0  0  0  0  0
  140.7413   75.3424  222.8803 H   0  0  0  0  0  0  0  0  0  0  0  0
  139.0925   69.3787  222.8167 H   0  0  0  0  0  0  0  0  0  0  0  0
  139.2752   68.2814  225.0634 H   0  0  0  0  0  0  0  0  0  0  0  0
  139.8963   68.3688  227.4126 H   0  0  0  0  0  0  0  0  0  0  0  0
  140.8292   69.6900  229.3193 H   0  0  0  0  0  0  0  0  0  0  0  0
  141.5687   72.0350  229.0076 H   0  0  0  0  0  0  0  0  0  0  0  0
  141.3638   73.0751  226.7641 H   0  0  0  0  0  0  0  0  0  0  0  0
  1  2  2  0
  2  3  1  0
  3  4  1  0
  4  5  1  0
  5  6  2  0
  5  7  1  0
  7  8  1  0
  8  9  1  0
  9 10  1  0
  9 11  1  0
 11 12  1  0
 12 13  1  0
 13 14  2  0
 14 15  1  0
 15 16  2  0
 16 17  1  0
 16 18  1  0
 18 19  2  0
  2 20  1  0
 20 21  2  0
 21 22  1  0
 22 23  2  0
 23 24  1  0
 24 25  2  0
 25 26  1  0
 26 27  2  0
 27 28  1  0
 28 29  2  0
 12  7  1  0
 19 13  1  0
 29 20  1  0
 28 23  1  0
  3 30  1  0
  4 31  1  0
  4 32  1  0
  8 33  1  0
  8 34  1  0
  9 35  1  6
 10 36  1  0
 11 37  1  0
 11 38  1  0
 12 39  1  1
 14 40  1  0
 15 41  1  0
 18 42  1  0
 19 43  1  0
 21 44  1  0
 22 45  1  0
 24 46  1  0
 25 47  1  0
 26 48  1  0
 27 49  1  0
M  END
>  <smiles>  (23) 
O=C(NCC(=O)N1C[C@H](O)C[C@H]1c1ccc(Cl)cc1)c1ccc2ccccc2n1

>  <score_type>  (23) 
oracle

>  <origin>  (23) 
autodockgpu

>  <m_score__min__energy>  (23) 
-9.0500000000000007

>  <m_primary>  (23) 
energy

>  <rmsd>  (23) 
2.6411067473975565

>  <m_score__min__rmsd>  (23) 
2.6411067473975565

>  <meeko>  (23) 
{"free_energy": -7.44, "intermolecular_energy": -9.23, "internal_energy": -2.39, "cluster_size": 22, "cluster_id": 6, "rank_in_cluster": 1}

>  <energy>  (23) 
-7.6

>  <cluster_rmsd>  (23) 
0.37

>  <cluster>  (23) 
5

$$$$

     RDKit          3D

 49 52  0  0  0  0  0  0  0  0999 V2000
  139.0720   75.0140  221.7670 O   0  0  0  0  0  0  0  0  0  0  0  0
  140.1930   75.6270  221.8160 C   0  0  0  0  0  0  0  0  0  0  0  0
  141.3860   74.9740  221.3580 N   0  0  0  0  0  0  0  0  0  0  0  0
  141.4460   73.6570  220.8470 C   0  0  0  0  0  0  0  0  0  0  0  0
  142.7090   73.0990  220.4040 C   0  0  0  0  0  0  0  0  0  0  0  0
  143.2800   72.3050  221.2460 O   0  0  0  0  0  0  0  0  0  0  0  0
  143.4020   73.2950  219.1800 N   0  0  0  0  0  0  0  0  0  0  0  0
  143.7340   72.3070  218.1420 C   0  0  0  0  0  0  0  0  0  0  0  0
  144.9270   72.9980  217.4190 C   0  0  2  0  0  0  0  0  0  0  0  0
  146.0560   73.0090  218.2220 O   0  0  0  0  0  0  0  0  0  0  0  0
  144.3900   74.4370  217.3970 C   0  0  0  0  0  0  0  0  0  0  0  0
  143.9170   74.6020  218.7980 C   0  0  1  0  0  0  0  0  0  0  0  0
  142.8600   75.6460  218.8720 C   0  0  0  0  0  0  0  0  0  0  0  0
  143.1130   76.8170  219.5500 C   0  0  0  0  0  0  0  0  0  0  0  0
  142.1230   77.7960  219.6210 C   0  0  0  0  0  0  0  0  0  0  0  0
  140.8990   77.5730  219.0060 C   0  0  0  0  0  0  0  0  0  0  0  0
  139.6130   78.7870  219.0690 Cl  0  0  0  0  0  0  0  0  0  0  0  0
  140.6890   76.3810  218.3370 C   0  0  0  0  0  0  0  0  0  0  0  0
  141.6440   75.3900  218.2460 C   0  0  0  0  0  0  0  0  0  0  0  0
  140.2480   77.0050  222.3460 C   0  0  0  0  0  0  0  0  0  0  0  0
  139.0870   77.6360  222.6820 C   0  0  0  0  0  0  0  0  0  0  0  0
  139.1790   78.9360  223.1790 C   0  0  0  0  0  0  0  0  0  0  0  0
  140.4180   79.5630  223.3230 C   0  0  0  0  0  0  0  0  0  0  0  0
  140.4930   80.8590  223.8190 C   0  0  0  0  0  0  0  0  0  0  0  0
  141.7590   81.4410  223.9430 C   0  0  0  0  0  0  0  0  0  0  0  0
  142.9080   80.7650  223.5900 C   0  0  0  0  0  0  0  0  0  0  0  0
  142.7870   79.4780  223.1010 C   0  0  0  0  0  0  0  0  0  0  0  0
  141.5600   78.8680  222.9620 C   0  0  0  0  0  0  0  0  0  0  0  0
  141.4530   77.6250  222.4890 N   0  0  0  0  0  0  0  0  0  0  0  0
  142.2600   75.5790  221.4340 H   0  0  0  0  0  0  0  0  0  0  0  0
  141.0682   72.9936  221.6389 H   0  0  0  0  0  0  0  0  0  0  0  0
  140.8639   73.7247  219.9161 H   0  0  0  0  0  0  0  0  0  0  0  0
  144.0355   71.3462  218.5847 H   0  0  0  0  0  0  0  0  0  0  0  0
  142.8934   72.0572  217.4779 H   0  0  0  0  0  0  0  0  0  0  0  0
  145.2067   72.5327  216.4623 H   0  0  0  0  0  0  0  0  0  0  0  0
  146.3110   73.9430  218.4980 H   0  0  0  0  0  0  0  0  0  0  0  0
  145.1844   75.1581  217.1541 H   0  0  0  0  0  0  0  0  0  0  0  0
  143.6126   74.6127  216.6389 H   0  0  0  0  0  0  0  0  0  0  0  0
  144.7192   74.9318  219.4745 H   0  0  0  0  0  0  0  0  0  0  0  0
  144.0885   76.9790  220.0319 H   0  0  0  0  0  0  0  0  0  0  0  0
  142.3103   78.7367  220.1596 H   0  0  0  0  0  0  0  0  0  0  0  0
  139.7143   76.2154  217.8547 H   0  0  0  0  0  0  0  0  0  0  0  0
  141.4548   74.4492  217.7083 H   0  0  0  0  0  0  0  0  0  0  0  0
  138.1132   77.1379  222.5654 H   0  0  0  0  0  0  0  0  0  0  0  0
  138.2625   79.4747  223.4614 H   0  0  0  0  0  0  0  0  0  0  0  0
  139.5850   81.4101  224.1052 H   0  0  0  0  0  0  0  0  0  0  0  0
  141.8403   82.4664  224.3329 H   0  0  0  0  0  0  0  0  0  0  0  0
  143.8955   81.2380  223.6949 H   0  0  0  0  0  0  0  0  0  0  0  0
  143.6947   78.9262  222.8152 H   0  0  0  0  0  0  0  0  0  0  0  0
  1  2  2  0
  2  3  1  0
  3  4  1  0
  4  5  1  0
  5  6  2  0
  5  7  1  0
  7  8  1  0
  8  9  1  0
  9 10  1  0
  9 11  1  0
 11 12  1  0
 12 13  1  0
 13 14  2  0
 14 15  1  0
 15 16  2  0
 16 17  1  0
 16 18  1  0
 18 19  2  0
  2 20  1  0
 20 21  2  0
 21 22  1  0
 22 23  2  0
 23 24  1  0
 24 25  2  0
 25 26  1  0
 26 27  2  0
 27 28  1  0
 28 29  2  0
 12  7  1  0
 19 13  1  0
 29 20  1  0
 28 23  1  0
  3 30  1  0
  4 31  1  0
  4 32  1  0
  8 33  1  0
  8 34  1  0
  9 35  1  6
 10 36  1  0
 11 37  1  0
 11 38  1  0
 12 39  1  1
 14 40  1  0
 15 41  1  0
 18 42  1  0
 19 43  1  0
 21 44  1  0
 22 45  1  0
 24 46  1  0
 25 47  1  0
 26 48  1  0
 27 49  1  0
M  END
>  <smiles>  (24) 
O=C(NCC(=O)N1C[C@H](O)C[C@H]1c1ccc(Cl)cc1)c1ccc2ccccc2n1

>  <score_type>  (24) 
oracle

>  <origin>  (24) 
autodockgpu

>  <m_score__min__energy>  (24) 
-9.0500000000000007

>  <m_primary>  (24) 
energy

>  <rmsd>  (24) 
7.5211985233999155

>  <m_score__min__rmsd>  (24) 
7.5211985233999155

>  <meeko>  (24) 
{"free_energy": -7.24, "intermolecular_energy": -9.03, "internal_energy": -2.6, "cluster_size": 3, "cluster_id": 7, "rank_in_cluster": 3}

>  <energy>  (24) 
-7.59

>  <cluster_rmsd>  (24) 
0.37

>  <cluster>  (24) 
5

$$$$

     RDKit          3D

 49 52  0  0  0  0  0  0  0  0999 V2000
  138.7710   74.8900  221.7020 O   0  0  0  0  0  0  0  0  0  0  0  0
  139.9110   75.4200  221.9310 C   0  0  0  0  0  0  0  0  0  0  0  0
  141.1080   74.6500  221.7420 N   0  0  0  0  0  0  0  0  0  0  0  0
  141.1480   73.3010  221.3220 C   0  0  0  0  0  0  0  0  0  0  0  0
  140.4390   72.2780  222.0670 C   0  0  0  0  0  0  0  0  0  0  0  0
  141.1890   71.4950  222.7660 O   0  0  0  0  0  0  0  0  0  0  0  0
  139.0450   72.0220  222.1420 N   0  0  0  0  0  0  0  0  0  0  0  0
  138.0760   71.8710  221.0460 C   0  0  0  0  0  0  0  0  0  0  0  0
  136.7330   72.1870  221.7660 C   0  0  2  0  0  0  0  0  0  0  0  0
  136.6450   73.5320  222.0860 O   0  0  0  0  0  0  0  0  0  0  0  0
  136.9870   71.4370  223.0820 C   0  0  0  0  0  0  0  0  0  0  0  0
  138.3640   71.8870  223.4220 C   0  0  1  0  0  0  0  0  0  0  0  0
  139.0380   70.8880  224.2950 C   0  0  0  0  0  0  0  0  0  0  0  0
  139.9080   71.3210  225.2700 C   0  0  0  0  0  0  0  0  0  0  0  0
  140.5400   70.3860  226.0870 C   0  0  0  0  0  0  0  0  0  0  0  0
  140.2820   69.0350  225.9050 C   0  0  0  0  0  0  0  0  0  0  0  0
  141.0620   67.8120  226.9200 Cl  0  0  0  0  0  0  0  0  0  0  0  0
  139.4020   68.6470  224.9120 C   0  0  0  0  0  0  0  0  0  0  0  0
  138.7570   69.5420  224.0840 C   0  0  0  0  0  0  0  0  0  0  0  0
  139.9860   76.8220  222.3900 C   0  0  0  0  0  0  0  0  0  0  0  0
  138.8330   77.4970  222.6570 C   0  0  0  0  0  0  0  0  0  0  0  0
  138.9420   78.8190  223.0880 C   0  0  0  0  0  0  0  0  0  0  0  0
  140.1920   79.4230  223.2360 C   0  0  0  0  0  0  0  0  0  0  0  0
  140.2860   80.7420  223.6660 C   0  0  0  0  0  0  0  0  0  0  0  0
  141.5610   81.2990  223.7980 C   0  0  0  0  0  0  0  0  0  0  0  0
  142.7030   80.5780  223.5150 C   0  0  0  0  0  0  0  0  0  0  0  0
  142.5640   79.2710  223.0910 C   0  0  0  0  0  0  0  0  0  0  0  0
  141.3270   78.6830  222.9470 C   0  0  0  0  0  0  0  0  0  0  0  0
  141.2020   77.4200  222.5370 N   0  0  0  0  0  0  0  0  0  0  0  0
  142.0020   75.1920  221.9520 H   0  0  0  0  0  0  0  0  0  0  0  0
  140.7496   73.2778  220.2969 H   0  0  0  0  0  0  0  0  0  0  0  0
  142.2034   73.0272  221.4675 H   0  0  0  0  0  0  0  0  0  0  0  0
  138.2739   72.5867  220.2345 H   0  0  0  0  0  0  0  0  0  0  0  0
  138.1010   70.8841  220.5609 H   0  0  0  0  0  0  0  0  0  0  0  0
  135.8360   71.9271  221.1848 H   0  0  0  0  0  0  0  0  0  0  0  0
  137.3710   73.8130  222.7250 H   0  0  0  0  0  0  0  0  0  0  0  0
  136.2653   71.7321  223.8579 H   0  0  0  0  0  0  0  0  0  0  0  0
  136.8799   70.3451  223.0026 H   0  0  0  0  0  0  0  0  0  0  0  0
  138.3691   72.8339  223.9818 H   0  0  0  0  0  0  0  0  0  0  0  0
  140.1025   72.3955  225.4029 H   0  0  0  0  0  0  0  0  0  0  0  0
  141.2381   70.7164  226.8703 H   0  0  0  0  0  0  0  0  0  0  0  0
  139.2068   67.5731  224.7756 H   0  0  0  0  0  0  0  0  0  0  0  0
  138.0596   69.2100  223.3008 H   0  0  0  0  0  0  0  0  0  0  0  0
  137.8509   77.0163  222.5369 H   0  0  0  0  0  0  0  0  0  0  0  0
  138.0314   79.3931  223.3142 H   0  0  0  0  0  0  0  0  0  0  0  0
  139.3844   81.3291  223.8953 H   0  0  0  0  0  0  0  0  0  0  0  0
  141.6568   82.3411  224.1369 H   0  0  0  0  0  0  0  0  0  0  0  0
  143.6987   81.0326  223.6243 H   0  0  0  0  0  0  0  0  0  0  0  0
  143.4656   78.6838  222.8621 H   0  0  0  0  0  0  0  0  0  0  0  0
  1  2  2  0
  2  3  1  0
  3  4  1  0
  4  5  1  0
  5  6  2  0
  5  7  1  0
  7  8  1  0
  8  9  1  0
  9 10  1  0
  9 11  1  0
 11 12  1  0
 12 13  1  0
 13 14  2  0
 14 15  1  0
 15 16  2  0
 16 17  1  0
 16 18  1  0
 18 19  2  0
  2 20  1  0
 20 21  2  0
 21 22  1  0
 22 23  2  0
 23 24  1  0
 24 25  2  0
 25 26  1  0
 26 27  2  0
 27 28  1  0
 28 29  2  0
 12  7  1  0
 19 13  1  0
 29 20  1  0
 28 23  1  0
  3 30  1  0
  4 31  1  0
  4 32  1  0
  8 33  1  0
  8 34  1  0
  9 35  1  6
 10 36  1  0
 11 37  1  0
 11 38  1  0
 12 39  1  1
 14 40  1  0
 15 41  1  0
 18 42  1  0
 19 43  1  0
 21 44  1  0
 22 45  1  0
 24 46  1  0
 25 47  1  0
 26 48  1  0
 27 49  1  0
M  END
>  <smiles>  (25) 
O=C(NCC(=O)N1C[C@H](O)C[C@H]1c1ccc(Cl)cc1)c1ccc2ccccc2n1

>  <score_type>  (25) 
oracle

>  <origin>  (25) 
autodockgpu

>  <m_score__min__energy>  (25) 
-9.0500000000000007

>  <m_primary>  (25) 
energy

>  <rmsd>  (25) 
7.887521235954058

>  <m_score__min__rmsd>  (25) 
7.887521235954058

>  <meeko>  (25) 
{"free_energy": -7.82, "intermolecular_energy": -9.61, "internal_energy": -2.29, "cluster_size": 4, "cluster_id": 4, "rank_in_cluster": 3}

>  <energy>  (25) 
-7.44

>  <cluster_rmsd>  (25) 
0.0

>  <cluster>  (25) 
6

$$$$

     RDKit          3D

 49 52  0  0  0  0  0  0  0  0999 V2000
  140.4570   76.8420  218.7360 O   0  0  0  0  0  0  0  0  0  0  0  0
  141.6850   76.8960  219.0880 C   0  0  0  0  0  0  0  0  0  0  0  0
  142.2980   78.1670  219.3490 N   0  0  0  0  0  0  0  0  0  0  0  0
  141.6520   79.4200  219.2370 C   0  0  0  0  0  0  0  0  0  0  0  0
  141.0910   80.0640  220.4080 C   0  0  0  0  0  0  0  0  0  0  0  0
  140.0200   80.7500  220.1930 O   0  0  0  0  0  0  0  0  0  0  0  0
  141.5450   80.0410  221.7540 N   0  0  0  0  0  0  0  0  0  0  0  0
  141.7970   81.1730  222.6590 C   0  0  0  0  0  0  0  0  0  0  0  0
  142.7760   80.5400  223.6900 C   0  0  2  0  0  0  0  0  0  0  0  0
  144.0160   80.3050  223.1200 O   0  0  0  0  0  0  0  0  0  0  0  0
  142.0990   79.1700  223.8500 C   0  0  0  0  0  0  0  0  0  0  0  0
  141.8530   78.7910  222.4330 C   0  0  1  0  0  0  0  0  0  0  0  0
  140.7220   77.8280  222.3390 C   0  0  0  0  0  0  0  0  0  0  0  0
  139.4300   78.2890  222.4530 C   0  0  0  0  0  0  0  0  0  0  0  0
  138.3710   77.3870  222.3660 C   0  0  0  0  0  0  0  0  0  0  0  0
  138.6380   76.0410  222.1640 C   0  0  0  0  0  0  0  0  0  0  0  0
  137.3240   74.8590  222.0460 Cl  0  0  0  0  0  0  0  0  0  0  0  0
  139.9510   75.6230  222.0550 C   0  0  0  0  0  0  0  0  0  0  0  0
  141.0250   76.4850  222.1370 C   0  0  0  0  0  0  0  0  0  0  0  0
  142.4620   75.6460  219.2230 C   0  0  0  0  0  0  0  0  0  0  0  0
  142.0090   74.5130  218.6160 C   0  0  0  0  0  0  0  0  0  0  0  0
  142.7680   73.3520  218.7660 C   0  0  0  0  0  0  0  0  0  0  0  0
  143.9470   73.3590  219.5130 C   0  0  0  0  0  0  0  0  0  0  0  0
  144.6930   72.1950  219.6540 C   0  0  0  0  0  0  0  0  0  0  0  0
  145.8660   72.2550  220.4130 C   0  0  0  0  0  0  0  0  0  0  0  0
  146.2870   73.4260  221.0100 C   0  0  0  0  0  0  0  0  0  0  0  0
  145.5150   74.5590  220.8440 C   0  0  0  0  0  0  0  0  0  0  0  0
  144.3520   74.5430  220.1060 C   0  0  0  0  0  0  0  0  0  0  0  0
  143.6130   75.6430  219.9510 N   0  0  0  0  0  0  0  0  0  0  0  0
  143.3190   78.0950  219.6450 H   0  0  0  0  0  0  0  0  0  0  0  0
  142.3897   80.1187  218.8157 H   0  0  0  0  0  0  0  0  0  0  0  0
  140.7632   79.1877  218.6319 H   0  0  0  0  0  0  0  0  0  0  0  0
  142.2639   82.0153  222.1274 H   0  0  0  0  0  0  0  0  0  0  0  0
  140.8869   81.5965  223.1088 H   0  0  0  0  0  0  0  0  0  0  0  0
  142.9380   81.1486  224.5918 H   0  0  0  0  0  0  0  0  0  0  0  0
  143.9470   79.7270  222.2980 H   0  0  0  0  0  0  0  0  0  0  0  0
  142.7639   78.4494  224.3487 H   0  0  0  0  0  0  0  0  0  0  0  0
  141.1921   79.1888  224.4722 H   0  0  0  0  0  0  0  0  0  0  0  0
  142.7198   78.2892  221.9781 H   0  0  0  0  0  0  0  0  0  0  0  0
  139.2350   79.3599  222.6114 H   0  0  0  0  0  0  0  0  0  0  0  0
  137.3329   77.7394  222.4567 H   0  0  0  0  0  0  0  0  0  0  0  0
  140.1489   74.5528  221.8954 H   0  0  0  0  0  0  0  0  0  0  0  0
  142.0625   76.1306  222.0477 H   0  0  0  0  0  0  0  0  0  0  0  0
  141.0787   74.5139  218.0291 H   0  0  0  0  0  0  0  0  0  0  0  0
  142.4329   72.4190  218.2894 H   0  0  0  0  0  0  0  0  0  0  0  0
  144.3705   71.2548  219.1828 H   0  0  0  0  0  0  0  0  0  0  0  0
  146.4697   71.3439  220.5376 H   0  0  0  0  0  0  0  0  0  0  0  0
  147.2133   73.4561  221.6026 H   0  0  0  0  0  0  0  0  0  0  0  0
  145.8376   75.4998  221.3139 H   0  0  0  0  0  0  0  0  0  0  0  0
  1  2  2  0
  2  3  1  0
  3  4  1  0
  4  5  1  0
  5  6  2  0
  5  7  1  0
  7  8  1  0
  8  9  1  0
  9 10  1  0
  9 11  1  0
 11 12  1  0
 12 13  1  0
 13 14  2  0
 14 15  1  0
 15 16  2  0
 16 17  1  0
 16 18  1  0
 18 19  2  0
  2 20  1  0
 20 21  2  0
 21 22  1  0
 22 23  2  0
 23 24  1  0
 24 25  2  0
 25 26  1  0
 26 27  2  0
 27 28  1  0
 28 29  2  0
 12  7  1  0
 19 13  1  0
 29 20  1  0
 28 23  1  0
  3 30  1  0
  4 31  1  0
  4 32  1  0
  8 33  1  0
  8 34  1  0
  9 35  1  1
 10 36  1  0
 11 37  1  0
 11 38  1  0
 12 39  1  6
 14 40  1  0
 15 41  1  0
 18 42  1  0
 19 43  1  0
 21 44  1  0
 22 45  1  0
 24 46  1  0
 25 47  1  0
 26 48  1  0
 27 49  1  0
M  END
>  <smiles>  (26) 
O=C(NCC(=O)N1C[C@H](O)C[C@H]1c1ccc(Cl)cc1)c1ccc2ccccc2n1

>  <score_type>  (26) 
oracle

>  <origin>  (26) 
autodockgpu

>  <m_score__min__energy>  (26) 
-9.0500000000000007

>  <m_primary>  (26) 
energy

>  <rmsd>  (26) 
7.545352229147847

>  <m_score__min__rmsd>  (26) 
7.545352229147847

>  <meeko>  (26) 
{"free_energy": -7.59, "intermolecular_energy": -9.38, "internal_energy": -2.42, "cluster_size": 7, "cluster_id": 5, "rank_in_cluster": 7}

>  <energy>  (26) 
-7.44

>  <cluster_rmsd>  (26) 
0.3

>  <cluster>  (26) 
6

$$$$

     RDKit          3D

 49 52  0  0  0  0  0  0  0  0999 V2000
  139.8190   71.0080  221.2050 O   0  0  0  0  0  0  0  0  0  0  0  0
  139.4960   71.6640  222.2530 C   0  0  0  0  0  0  0  0  0  0  0  0
  138.8690   72.9490  222.1280 N   0  0  0  0  0  0  0  0  0  0  0  0
  138.5710   73.5920  220.9030 C   0  0  0  0  0  0  0  0  0  0  0  0
  139.6140   73.8200  219.9220 C   0  0  0  0  0  0  0  0  0  0  0  0
  139.2220   74.3810  218.8290 O   0  0  0  0  0  0  0  0  0  0  0  0
  141.0010   73.5210  219.9940 N   0  0  0  0  0  0  0  0  0  0  0  0
  141.7960   72.6300  219.1360 C   0  0  0  0  0  0  0  0  0  0  0  0
  143.0110   72.3080  220.0550 C   0  0  2  0  0  0  0  0  0  0  0  0
  142.6360   71.4870  221.1050 O   0  0  0  0  0  0  0  0  0  0  0  0
  143.2370   73.7070  220.6480 C   0  0  0  0  0  0  0  0  0  0  0  0
  141.8520   74.0990  221.0240 C   0  0  1  0  0  0  0  0  0  0  0  0
  141.7230   75.5810  221.0680 C   0  0  0  0  0  0  0  0  0  0  0  0
  141.0170   76.1680  222.0940 C   0  0  0  0  0  0  0  0  0  0  0  0
  140.8960   77.5560  222.1350 C   0  0  0  0  0  0  0  0  0  0  0  0
  141.4880   78.3220  221.1410 C   0  0  0  0  0  0  0  0  0  0  0  0
  141.3610   80.0870  221.1530 Cl  0  0  0  0  0  0  0  0  0  0  0  0
  142.1860   77.6890  220.1300 C   0  0  0  0  0  0  0  0  0  0  0  0
  142.3280   76.3180  220.0550 C   0  0  0  0  0  0  0  0  0  0  0  0
  139.7750   71.0930  223.5870 C   0  0  0  0  0  0  0  0  0  0  0  0
  139.5180   69.7730  223.8120 C   0  0  0  0  0  0  0  0  0  0  0  0
  139.7930   69.2690  225.0830 C   0  0  0  0  0  0  0  0  0  0  0  0
  140.3110   70.0930  226.0840 C   0  0  0  0  0  0  0  0  0  0  0  0
  140.5800   69.5760  227.3460 C   0  0  0  0  0  0  0  0  0  0  0  0
  141.0970   70.4440  228.3130 C   0  0  0  0  0  0  0  0  0  0  0  0
  141.3410   71.7740  228.0410 C   0  0  0  0  0  0  0  0  0  0  0  0
  141.0600   72.2450  226.7730 C   0  0  0  0  0  0  0  0  0  0  0  0
  140.5480   71.4250  225.7920 C   0  0  0  0  0  0  0  0  0  0  0  0
  140.2800   71.8900  224.5700 N   0  0  0  0  0  0  0  0  0  0  0  0
  138.6340   73.4030  223.0630 H   0  0  0  0  0  0  0  0  0  0  0  0
  137.7987   72.9852  220.4076 H   0  0  0  0  0  0  0  0  0  0  0  0
  138.2976   74.6103  221.2166 H   0  0  0  0  0  0  0  0  0  0  0  0
  141.2368   71.7189  218.8768 H   0  0  0  0  0  0  0  0  0  0  0  0
  142.0733   73.0728  218.1680 H   0  0  0  0  0  0  0  0  0  0  0  0
  143.8516   71.8203  219.5397 H   0  0  0  0  0  0  0  0  0  0  0  0
  141.6780   71.1880  221.0240 H   0  0  0  0  0  0  0  0  0  0  0  0
  143.8962   73.6685  221.5277 H   0  0  0  0  0  0  0  0  0  0  0  0
  143.7305   74.4102  219.9610 H   0  0  0  0  0  0  0  0  0  0  0  0
  141.5727   73.7384  222.0250 H   0  0  0  0  0  0  0  0  0  0  0  0
  140.5526   75.5472  222.8743 H   0  0  0  0  0  0  0  0  0  0  0  0
  140.3358   78.0401  222.9486 H   0  0  0  0  0  0  0  0  0  0  0  0
  142.6506   78.3072  219.3477 H   0  0  0  0  0  0  0  0  0  0  0  0
  142.8879   75.8355  219.2403 H   0  0  0  0  0  0  0  0  0  0  0  0
  139.1086   69.1290  223.0198 H   0  0  0  0  0  0  0  0  0  0  0  0
  139.5992   68.2081  225.2997 H   0  0  0  0  0  0  0  0  0  0  0  0
  140.3921   68.5170  227.5769 H   0  0  0  0  0  0  0  0  0  0  0  0
  141.3151   70.0552  229.3186 H   0  0  0  0  0  0  0  0  0  0  0  0
  141.7488   72.4424  228.8137 H   0  0  0  0  0  0  0  0  0  0  0  0
  141.2503   73.3032  226.5407 H   0  0  0  0  0  0  0  0  0  0  0  0
  1  2  2  0
  2  3  1  0
  3  4  1  0
  4  5  1  0
  5  6  2  0
  5  7  1  0
  7  8  1  0
  8  9  1  0
  9 10  1  0
  9 11  1  0
 11 12  1  0
 12 13  1  0
 13 14  2  0
 14 15  1  0
 15 16  2  0
 16 17  1  0
 16 18  1  0
 18 19  2  0
  2 20  1  0
 20 21  2  0
 21 22  1  0
 22 23  2  0
 23 24  1  0
 24 25  2  0
 25 26  1  0
 26 27  2  0
 27 28  1  0
 28 29  2  0
 12  7  1  0
 19 13  1  0
 29 20  1  0
 28 23  1  0
  3 30  1  0
  4 31  1  0
  4 32  1  0
  8 33  1  0
  8 34  1  0
  9 35  1  6
 10 36  1  0
 11 37  1  0
 11 38  1  0
 12 39  1  1
 14 40  1  0
 15 41  1  0
 18 42  1  0
 19 43  1  0
 21 44  1  0
 22 45  1  0
 24 46  1  0
 25 47  1  0
 26 48  1  0
 27 49  1  0
M  END
>  <smiles>  (27) 
O=C(NCC(=O)N1C[C@H](O)C[C@H]1c1ccc(Cl)cc1)c1ccc2ccccc2n1

>  <score_type>  (27) 
oracle

>  <origin>  (27) 
autodockgpu

>  <m_score__min__energy>  (27) 
-9.0500000000000007

>  <m_primary>  (27) 
energy

>  <rmsd>  (27) 
2.6682332979739174

>  <m_score__min__rmsd>  (27) 
2.6682332979739174

>  <meeko>  (27) 
{"free_energy": -7.24, "intermolecular_energy": -9.03, "internal_energy": -2.73, "cluster_size": 22, "cluster_id": 6, "rank_in_cluster": 20}

>  <energy>  (27) 
-7.43

>  <cluster_rmsd>  (27) 
0.28

>  <cluster>  (27) 
6

$$$$

     RDKit          3D

 49 52  0  0  0  0  0  0  0  0999 V2000
  139.8670   71.0500  221.2060 O   0  0  0  0  0  0  0  0  0  0  0  0
  139.6110   71.7260  222.2590 C   0  0  0  0  0  0  0  0  0  0  0  0
  139.0990   73.0620  222.1440 N   0  0  0  0  0  0  0  0  0  0  0  0
  138.8540   73.7360  220.9250 C   0  0  0  0  0  0  0  0  0  0  0  0
  139.7720   73.5960  219.8110 C   0  0  0  0  0  0  0  0  0  0  0  0
  139.2310   73.6840  218.6440 O   0  0  0  0  0  0  0  0  0  0  0  0
  141.1770   73.3830  219.8220 N   0  0  0  0  0  0  0  0  0  0  0  0
  141.9910   72.5690  218.9070 C   0  0  0  0  0  0  0  0  0  0  0  0
  143.2580   72.2980  219.7700 C   0  0  2  0  0  0  0  0  0  0  0  0
  142.9760   71.4250  220.8080 O   0  0  0  0  0  0  0  0  0  0  0  0
  143.4210   73.6900  220.3980 C   0  0  0  0  0  0  0  0  0  0  0  0
  142.0300   73.9840  220.8370 C   0  0  1  0  0  0  0  0  0  0  0  0
  141.8110   75.4530  220.9310 C   0  0  0  0  0  0  0  0  0  0  0  0
  142.3660   76.2810  219.9820 C   0  0  0  0  0  0  0  0  0  0  0  0
  142.1620   77.6570  220.0700 C   0  0  0  0  0  0  0  0  0  0  0  0
  141.4030   78.1680  221.1130 C   0  0  0  0  0  0  0  0  0  0  0  0
  141.1170   79.9080  221.2650 Cl  0  0  0  0  0  0  0  0  0  0  0  0
  140.8660   77.2990  222.0440 C   0  0  0  0  0  0  0  0  0  0  0  0
  141.0460   75.9310  221.9900 C   0  0  0  0  0  0  0  0  0  0  0  0
  139.8440   71.1240  223.5880 C   0  0  0  0  0  0  0  0  0  0  0  0
  139.5510   69.8080  223.7830 C   0  0  0  0  0  0  0  0  0  0  0  0
  139.7840   69.2740  225.0510 C   0  0  0  0  0  0  0  0  0  0  0  0
  140.2970   70.0670  226.0780 C   0  0  0  0  0  0  0  0  0  0  0  0
  140.5240   69.5220  227.3360 C   0  0  0  0  0  0  0  0  0  0  0  0
  141.0390   70.3600  228.3310 C   0  0  0  0  0  0  0  0  0  0  0  0
  141.3210   71.6880  228.0890 C   0  0  0  0  0  0  0  0  0  0  0  0
  141.0810   72.1890  226.8240 C   0  0  0  0  0  0  0  0  0  0  0  0
  140.5730   71.3990  225.8160 C   0  0  0  0  0  0  0  0  0  0  0  0
  140.3450   71.8910  224.5970 N   0  0  0  0  0  0  0  0  0  0  0  0
  138.9110   73.5300  223.0830 H   0  0  0  0  0  0  0  0  0  0  0  0
  137.8707   73.3955  220.5683 H   0  0  0  0  0  0  0  0  0  0  0  0
  138.9592   74.7954  221.2017 H   0  0  0  0  0  0  0  0  0  0  0  0
  141.4794   71.6324  218.6403 H   0  0  0  0  0  0  0  0  0  0  0  0
  142.2022   73.0558  217.9435 H   0  0  0  0  0  0  0  0  0  0  0  0
  144.1059   71.8791  219.2082 H   0  0  0  0  0  0  0  0  0  0  0  0
  141.9860   71.2770  220.9140 H   0  0  0  0  0  0  0  0  0  0  0  0
  144.1149   73.6668  221.2512 H   0  0  0  0  0  0  0  0  0  0  0  0
  143.8438   74.4423  219.7159 H   0  0  0  0  0  0  0  0  0  0  0  0
  141.8130   73.5789  221.8364 H   0  0  0  0  0  0  0  0  0  0  0  0
  142.9654   75.8605  219.1611 H   0  0  0  0  0  0  0  0  0  0  0  0
  142.5989   78.3318  219.3192 H   0  0  0  0  0  0  0  0  0  0  0  0
  140.2671   77.7168  222.8666 H   0  0  0  0  0  0  0  0  0  0  0  0
  140.6092   75.2573  222.7419 H   0  0  0  0  0  0  0  0  0  0  0  0
  139.1451   69.1883  222.9698 H   0  0  0  0  0  0  0  0  0  0  0  0
  139.5604   68.2143  225.2433 H   0  0  0  0  0  0  0  0  0  0  0  0
  140.3055   68.4640  227.5432 H   0  0  0  0  0  0  0  0  0  0  0  0
  141.2241   69.9481  229.3341 H   0  0  0  0  0  0  0  0  0  0  0  0
  141.7268   72.3321  228.8830 H   0  0  0  0  0  0  0  0  0  0  0  0
  141.3013   73.2465  226.6162 H   0  0  0  0  0  0  0  0  0  0  0  0
  1  2  2  0
  2  3  1  0
  3  4  1  0
  4  5  1  0
  5  6  2  0
  5  7  1  0
  7  8  1  0
  8  9  1  0
  9 10  1  0
  9 11  1  0
 11 12  1  0
 12 13  1  0
 13 14  2  0
 14 15  1  0
 15 16  2  0
 16 17  1  0
 16 18  1  0
 18 19  2  0
  2 20  1  0
 20 21  2  0
 21 22  1  0
 22 23  2  0
 23 24  1  0
 24 25  2  0
 25 26  1  0
 26 27  2  0
 27 28  1  0
 28 29  2  0
 12  7  1  0
 19 13  1  0
 29 20  1  0
 28 23  1  0
  3 30  1  0
  4 31  1  0
  4 32  1  0
  8 33  1  0
  8 34  1  0
  9 35  1  6
 10 36  1  0
 11 37  1  0
 11 38  1  0
 12 39  1  1
 14 40  1  0
 15 41  1  0
 18 42  1  0
 19 43  1  0
 21 44  1  0
 22 45  1  0
 24 46  1  0
 25 47  1  0
 26 48  1  0
 27 49  1  0
M  END
>  <smiles>  (28) 
O=C(NCC(=O)N1C[C@H](O)C[C@H]1c1ccc(Cl)cc1)c1ccc2ccccc2n1

>  <score_type>  (28) 
oracle

>  <origin>  (28) 
autodockgpu

>  <m_score__min__energy>  (28) 
-9.0500000000000007

>  <m_primary>  (28) 
energy

>  <rmsd>  (28) 
2.7179352613054863

>  <m_score__min__rmsd>  (28) 
2.7179352613054863

>  <meeko>  (28) 
{"free_energy": -7.4, "intermolecular_energy": -9.19, "internal_energy": -2.62, "cluster_size": 22, "cluster_id": 6, "rank_in_cluster": 7}

>  <energy>  (28) 
-7.4

>  <cluster_rmsd>  (28) 
0.37

>  <cluster>  (28) 
6

$$$$

     RDKit          3D

 49 52  0  0  0  0  0  0  0  0999 V2000
  140.5270   76.7860  218.5430 O   0  0  0  0  0  0  0  0  0  0  0  0
  141.7070   76.8460  219.0300 C   0  0  0  0  0  0  0  0  0  0  0  0
  142.2640   78.1150  219.4020 N   0  0  0  0  0  0  0  0  0  0  0  0
  141.6100   79.3620  219.2630 C   0  0  0  0  0  0  0  0  0  0  0  0
  141.0470   80.0270  220.4220 C   0  0  0  0  0  0  0  0  0  0  0  0
  139.9650   80.6940  220.1960 O   0  0  0  0  0  0  0  0  0  0  0  0
  141.5080   80.0450  221.7650 N   0  0  0  0  0  0  0  0  0  0  0  0
  141.8260   81.2030  222.6130 C   0  0  0  0  0  0  0  0  0  0  0  0
  142.7770   80.5690  223.6700 C   0  0  2  0  0  0  0  0  0  0  0  0
  144.0000   80.2420  223.1060 O   0  0  0  0  0  0  0  0  0  0  0  0
  142.0300   79.2460  223.8980 C   0  0  0  0  0  0  0  0  0  0  0  0
  141.7540   78.8140  222.5010 C   0  0  1  0  0  0  0  0  0  0  0  0
  140.5740   77.9090  222.4590 C   0  0  0  0  0  0  0  0  0  0  0  0
  139.3220   78.4190  222.7160 C   0  0  0  0  0  0  0  0  0  0  0  0
  138.2160   77.5710  222.6770 C   0  0  0  0  0  0  0  0  0  0  0  0
  138.3960   76.2280  222.3780 C   0  0  0  0  0  0  0  0  0  0  0  0
  137.0210   75.1150  222.3160 Cl  0  0  0  0  0  0  0  0  0  0  0  0
  139.6730   75.7610  222.1270 C   0  0  0  0  0  0  0  0  0  0  0  0
  140.7910   76.5680  222.1570 C   0  0  0  0  0  0  0  0  0  0  0  0
  142.4880   75.6040  219.2050 C   0  0  0  0  0  0  0  0  0  0  0  0
  142.0330   74.4480  218.6450 C   0  0  0  0  0  0  0  0  0  0  0  0
  142.7970   73.2950  218.8320 C   0  0  0  0  0  0  0  0  0  0  0  0
  143.9820   73.3320  219.5680 C   0  0  0  0  0  0  0  0  0  0  0  0
  144.7320   72.1760  219.7460 C   0  0  0  0  0  0  0  0  0  0  0  0
  145.9120   72.2680  220.4920 C   0  0  0  0  0  0  0  0  0  0  0  0
  146.3340   73.4610  221.0410 C   0  0  0  0  0  0  0  0  0  0  0  0
  145.5580   74.5850  220.8400 C   0  0  0  0  0  0  0  0  0  0  0  0
  144.3890   74.5390  220.1120 C   0  0  0  0  0  0  0  0  0  0  0  0
  143.6460   75.6310  219.9230 N   0  0  0  0  0  0  0  0  0  0  0  0
  143.2480   78.0480  219.8060 H   0  0  0  0  0  0  0  0  0  0  0  0
  142.3428   80.0560  218.8255 H   0  0  0  0  0  0  0  0  0  0  0  0
  140.7222   79.1122  218.6634 H   0  0  0  0  0  0  0  0  0  0  0  0
  142.3336   81.9926  222.0395 H   0  0  0  0  0  0  0  0  0  0  0  0
  140.9427   81.6954  223.0457 H   0  0  0  0  0  0  0  0  0  0  0  0
  142.9765   81.2101  224.5413 H   0  0  0  0  0  0  0  0  0  0  0  0
  143.8930   79.8310  222.1930 H   0  0  0  0  0  0  0  0  0  0  0  0
  142.6596   78.5155  224.4271 H   0  0  0  0  0  0  0  0  0  0  0  0
  141.1299   79.3421  224.5229 H   0  0  0  0  0  0  0  0  0  0  0  0
  142.5895   78.2462  222.0656 H   0  0  0  0  0  0  0  0  0  0  0  0
  139.1949   79.4863  222.9501 H   0  0  0  0  0  0  0  0  0  0  0  0
  137.2089   77.9634  222.8816 H   0  0  0  0  0  0  0  0  0  0  0  0
  139.8035   74.6943  221.8920 H   0  0  0  0  0  0  0  0  0  0  0  0
  141.7976   76.1738  221.9536 H   0  0  0  0  0  0  0  0  0  0  0  0
  141.0976   74.4244  218.0666 H   0  0  0  0  0  0  0  0  0  0  0  0
  142.4604   72.3441  218.3932 H   0  0  0  0  0  0  0  0  0  0  0  0
  144.4079   71.2179  219.3137 H   0  0  0  0  0  0  0  0  0  0  0  0
  146.5200   71.3641  220.6449 H   0  0  0  0  0  0  0  0  0  0  0  0
  147.2651   73.5154  221.6241 H   0  0  0  0  0  0  0  0  0  0  0  0
  145.8816   75.5431  221.2727 H   0  0  0  0  0  0  0  0  0  0  0  0
  1  2  2  0
  2  3  1  0
  3  4  1  0
  4  5  1  0
  5  6  2  0
  5  7  1  0
  7  8  1  0
  8  9  1  0
  9 10  1  0
  9 11  1  0
 11 12  1  0
 12 13  1  0
 13 14  2  0
 14 15  1  0
 15 16  2  0
 16 17  1  0
 16 18  1  0
 18 19  2  0
  2 20  1  0
 20 21  2  0
 21 22  1  0
 22 23  2  0
 23 24  1  0
 24 25  2  0
 25 26  1  0
 26 27  2  0
 27 28  1  0
 28 29  2  0
 12  7  1  0
 19 13  1  0
 29 20  1  0
 28 23  1  0
  3 30  1  0
  4 31  1  0
  4 32  1  0
  8 33  1  0
  8 34  1  0
  9 35  1  1
 10 36  1  0
 11 37  1  0
 11 38  1  0
 12 39  1  6
 14 40  1  0
 15 41  1  0
 18 42  1  0
 19 43  1  0
 21 44  1  0
 22 45  1  0
 24 46  1  0
 25 47  1  0
 26 48  1  0
 27 49  1  0
M  END
>  <smiles>  (29) 
O=C(NCC(=O)N1C[C@H](O)C[C@H]1c1ccc(Cl)cc1)c1ccc2ccccc2n1

>  <score_type>  (29) 
oracle

>  <origin>  (29) 
autodockgpu

>  <m_score__min__energy>  (29) 
-9.0500000000000007

>  <m_primary>  (29) 
energy

>  <rmsd>  (29) 
7.52695927579134

>  <m_score__min__rmsd>  (29) 
7.52695927579134

>  <meeko>  (29) 
{"free_energy": -7.62, "intermolecular_energy": -9.41, "internal_energy": -2.39, "cluster_size": 7, "cluster_id": 5, "rank_in_cluster": 5}

>  <energy>  (29) 
-7.4

>  <cluster_rmsd>  (29) 
0.33

>  <cluster>  (29) 
6

$$$$

     RDKit          3D

 49 52  0  0  0  0  0  0  0  0999 V2000
  140.5440   76.8600  218.5160 O   0  0  0  0  0  0  0  0  0  0  0  0
  141.7190   76.9110  219.0150 C   0  0  0  0  0  0  0  0  0  0  0  0
  142.2780   78.1760  219.4000 N   0  0  0  0  0  0  0  0  0  0  0  0
  141.6300   79.4260  219.2630 C   0  0  0  0  0  0  0  0  0  0  0  0
  141.0870   80.1020  220.4250 C   0  0  0  0  0  0  0  0  0  0  0  0
  140.0180   80.7890  220.2060 O   0  0  0  0  0  0  0  0  0  0  0  0
  141.5580   80.1100  221.7650 N   0  0  0  0  0  0  0  0  0  0  0  0
  141.8550   81.2630  222.6290 C   0  0  0  0  0  0  0  0  0  0  0  0
  142.8280   80.6350  223.6690 C   0  0  2  0  0  0  0  0  0  0  0  0
  144.0530   80.3450  223.0920 O   0  0  0  0  0  0  0  0  0  0  0  0
  142.1130   79.2920  223.8830 C   0  0  0  0  0  0  0  0  0  0  0  0
  141.8370   78.8740  222.4820 C   0  0  1  0  0  0  0  0  0  0  0  0
  140.6780   77.9430  222.4330 C   0  0  0  0  0  0  0  0  0  0  0  0
  140.8870   76.6200  222.1140 C   0  0  0  0  0  0  0  0  0  0  0  0
  139.8010   75.7480  222.0680 C   0  0  0  0  0  0  0  0  0  0  0  0
  138.5290   76.2270  222.3450 C   0  0  0  0  0  0  0  0  0  0  0  0
  137.1210   75.1550  222.3000 Cl  0  0  0  0  0  0  0  0  0  0  0  0
  138.3670   77.5630  222.6610 C   0  0  0  0  0  0  0  0  0  0  0  0
  139.4170   78.4570  222.7160 C   0  0  0  0  0  0  0  0  0  0  0  0
  142.4940   75.6650  219.1900 C   0  0  0  0  0  0  0  0  0  0  0  0
  142.0310   74.5110  218.6310 C   0  0  0  0  0  0  0  0  0  0  0  0
  142.7880   73.3540  218.8170 C   0  0  0  0  0  0  0  0  0  0  0  0
  143.9750   73.3850  219.5510 C   0  0  0  0  0  0  0  0  0  0  0  0
  144.7190   72.2250  219.7290 C   0  0  0  0  0  0  0  0  0  0  0  0
  145.9000   72.3100  220.4730 C   0  0  0  0  0  0  0  0  0  0  0  0
  146.3300   73.5010  221.0210 C   0  0  0  0  0  0  0  0  0  0  0  0
  145.5600   74.6300  220.8200 C   0  0  0  0  0  0  0  0  0  0  0  0
  144.3900   74.5900  220.0940 C   0  0  0  0  0  0  0  0  0  0  0  0
  143.6530   75.6860  219.9050 N   0  0  0  0  0  0  0  0  0  0  0  0
  143.2580   78.1020  219.8130 H   0  0  0  0  0  0  0  0  0  0  0  0
  142.3610   80.1127  218.8113 H   0  0  0  0  0  0  0  0  0  0  0  0
  140.7323   79.1777  218.6778 H   0  0  0  0  0  0  0  0  0  0  0  0
  142.3398   82.0730  222.0643 H   0  0  0  0  0  0  0  0  0  0  0  0
  140.9637   81.7282  223.0752 H   0  0  0  0  0  0  0  0  0  0  0  0
  143.0195   81.2675  224.5484 H   0  0  0  0  0  0  0  0  0  0  0  0
  143.9670   79.6730  222.3470 H   0  0  0  0  0  0  0  0  0  0  0  0
  142.7629   78.5686  224.3972 H   0  0  0  0  0  0  0  0  0  0  0  0
  141.2154   79.3585  224.5154 H   0  0  0  0  0  0  0  0  0  0  0  0
  142.6825   78.3314  222.0339 H   0  0  0  0  0  0  0  0  0  0  0  0
  141.9018   76.2548  221.8975 H   0  0  0  0  0  0  0  0  0  0  0  0
  139.9512   74.6883  221.8140 H   0  0  0  0  0  0  0  0  0  0  0  0
  137.3535   77.9309  222.8789 H   0  0  0  0  0  0  0  0  0  0  0  0
  139.2651   79.5166  222.9694 H   0  0  0  0  0  0  0  0  0  0  0  0
  141.0945   74.4928  218.0542 H   0  0  0  0  0  0  0  0  0  0  0  0
  142.4450   72.4048  218.3795 H   0  0  0  0  0  0  0  0  0  0  0  0
  144.3889   71.2685  219.2976 H   0  0  0  0  0  0  0  0  0  0  0  0
  146.5026   71.4025  220.6255 H   0  0  0  0  0  0  0  0  0  0  0  0
  147.2621   73.5502  221.6030 H   0  0  0  0  0  0  0  0  0  0  0  0
  145.8899   75.5867  221.2512 H   0  0  0  0  0  0  0  0  0  0  0  0
  1  2  2  0
  2  3  1  0
  3  4  1  0
  4  5  1  0
  5  6  2  0
  5  7  1  0
  7  8  1  0
  8  9  1  0
  9 10  1  0
  9 11  1  0
 11 12  1  0
 12 13  1  0
 13 14  2  0
 14 15  1  0
 15 16  2  0
 16 17  1  0
 16 18  1  0
 18 19  2  0
  2 20  1  0
 20 21  2  0
 21 22  1  0
 22 23  2  0
 23 24  1  0
 24 25  2  0
 25 26  1  0
 26 27  2  0
 27 28  1  0
 28 29  2  0
 12  7  1  0
 19 13  1  0
 29 20  1  0
 28 23  1  0
  3 30  1  0
  4 31  1  0
  4 32  1  0
  8 33  1  0
  8 34  1  0
  9 35  1  1
 10 36  1  0
 11 37  1  0
 11 38  1  0
 12 39  1  6
 14 40  1  0
 15 41  1  0
 18 42  1  0
 19 43  1  0
 21 44  1  0
 22 45  1  0
 24 46  1  0
 25 47  1  0
 26 48  1  0
 27 49  1  0
M  END
>  <smiles>  (30) 
O=C(NCC(=O)N1C[C@H](O)C[C@H]1c1ccc(Cl)cc1)c1ccc2ccccc2n1

>  <score_type>  (30) 
oracle

>  <origin>  (30) 
autodockgpu

>  <m_score__min__energy>  (30) 
-9.0500000000000007

>  <m_primary>  (30) 
energy

>  <rmsd>  (30) 
7.570790454359701

>  <m_score__min__rmsd>  (30) 
7.570790454359701

>  <meeko>  (30) 
{"free_energy": -7.64, "intermolecular_energy": -9.43, "internal_energy": -2.38, "cluster_size": 7, "cluster_id": 5, "rank_in_cluster": 4}

>  <energy>  (30) 
-7.4

>  <cluster_rmsd>  (30) 
0.35

>  <cluster>  (30) 
6

$$$$

     RDKit          3D

 49 52  0  0  0  0  0  0  0  0999 V2000
  141.4180   72.1240  221.7120 O   0  0  0  0  0  0  0  0  0  0  0  0
  140.4740   72.4050  222.5260 C   0  0  0  0  0  0  0  0  0  0  0  0
  139.6640   73.5700  222.3080 N   0  0  0  0  0  0  0  0  0  0  0  0
  139.8260   74.4830  221.2410 C   0  0  0  0  0  0  0  0  0  0  0  0
  140.5560   75.7200  221.4370 C   0  0  0  0  0  0  0  0  0  0  0  0
  140.8050   76.0170  222.6680 O   0  0  0  0  0  0  0  0  0  0  0  0
  141.0410   76.6450  220.4740 N   0  0  0  0  0  0  0  0  0  0  0  0
  141.0580   76.5220  219.0090 C   0  0  0  0  0  0  0  0  0  0  0  0
  142.1820   77.5270  218.6210 C   0  0  2  0  0  0  0  0  0  0  0  0
  143.4270   77.0510  218.9960 O   0  0  0  0  0  0  0  0  0  0  0  0
  141.8320   78.6610  219.5970 C   0  0  0  0  0  0  0  0  0  0  0  0
  141.6390   77.9120  220.8680 C   0  0  1  0  0  0  0  0  0  0  0  0
  140.7500   78.6700  221.7900 C   0  0  0  0  0  0  0  0  0  0  0  0
  139.4340   78.8780  221.4410 C   0  0  0  0  0  0  0  0  0  0  0  0
  138.6020   79.5880  222.3040 C   0  0  0  0  0  0  0  0  0  0  0  0
  139.1120   80.0720  223.5000 C   0  0  0  0  0  0  0  0  0  0  0  0
  138.0920   80.9790  224.6270 Cl  0  0  0  0  0  0  0  0  0  0  0  0
  140.4390   79.8390  223.8080 C   0  0  0  0  0  0  0  0  0  0  0  0
  141.2950   79.1420  222.9800 C   0  0  0  0  0  0  0  0  0  0  0  0
  140.2250   71.5260  223.6880 C   0  0  0  0  0  0  0  0  0  0  0  0
  139.5070   70.3800  223.5120 C   0  0  0  0  0  0  0  0  0  0  0  0
  139.2920   69.5750  224.6310 C   0  0  0  0  0  0  0  0  0  0  0  0
  139.7960   69.9370  225.8820 C   0  0  0  0  0  0  0  0  0  0  0  0
  139.5730   69.1250  226.9880 C   0  0  0  0  0  0  0  0  0  0  0  0
  140.0990   69.5340  228.2170 C   0  0  0  0  0  0  0  0  0  0  0  0
  140.8200   70.7030  228.3480 C   0  0  0  0  0  0  0  0  0  0  0  0
  141.0180   71.4790  227.2230 C   0  0  0  0  0  0  0  0  0  0  0  0
  140.5170   71.1150  225.9930 C   0  0  0  0  0  0  0  0  0  0  0  0
  140.7130   71.8710  224.9120 N   0  0  0  0  0  0  0  0  0  0  0  0
  138.9020   73.7040  223.0410 H   0  0  0  0  0  0  0  0  0  0  0  0
  140.3393   73.9382  220.4349 H   0  0  0  0  0  0  0  0  0  0  0  0
  138.7989   74.8285  221.0523 H   0  0  0  0  0  0  0  0  0  0  0  0
  141.3098   75.4981  218.6955 H   0  0  0  0  0  0  0  0  0  0  0  0
  140.0888   76.7300  218.5321 H   0  0  0  0  0  0  0  0  0  0  0  0
  142.2290   77.7606  217.5471 H   0  0  0  0  0  0  0  0  0  0  0  0
  144.0230   77.7870  219.3380 H   0  0  0  0  0  0  0  0  0  0  0  0
  142.6539   79.3874  219.6799 H   0  0  0  0  0  0  0  0  0  0  0  0
  140.9607   79.2600  219.2935 H   0  0  0  0  0  0  0  0  0  0  0  0
  142.5832   77.7592  221.4113 H   0  0  0  0  0  0  0  0  0  0  0  0
  139.0435   78.4872  220.4898 H   0  0  0  0  0  0  0  0  0  0  0  0
  137.5489   79.7635  222.0391 H   0  0  0  0  0  0  0  0  0  0  0  0
  140.8317   80.2279  224.7590 H   0  0  0  0  0  0  0  0  0  0  0  0
  142.3484   78.9693  223.2457 H   0  0  0  0  0  0  0  0  0  0  0  0
  139.1119   70.1006  222.5241 H   0  0  0  0  0  0  0  0  0  0  0  0
  138.7178   68.6426  224.5264 H   0  0  0  0  0  0  0  0  0  0  0  0
  139.0006   68.1899  226.8990 H   0  0  0  0  0  0  0  0  0  0  0  0
  139.9333   68.9060  229.1048 H   0  0  0  0  0  0  0  0  0  0  0  0
  141.2266   71.0089  229.3233 H   0  0  0  0  0  0  0  0  0  0  0  0
  141.5916   72.4134  227.3118 H   0  0  0  0  0  0  0  0  0  0  0  0
  1  2  2  0
  2  3  1  0
  3  4  1  0
  4  5  1  0
  5  6  2  0
  5  7  1  0
  7  8  1  0
  8  9  1  0
  9 10  1  0
  9 11  1  0
 11 12  1  0
 12 13  1  0
 13 14  2  0
 14 15  1  0
 15 16  2  0
 16 17  1  0
 16 18  1  0
 18 19  2  0
  2 20  1  0
 20 21  2  0
 21 22  1  0
 22 23  2  0
 23 24  1  0
 24 25  2  0
 25 26  1  0
 26 27  2  0
 27 28  1  0
 28 29  2  0
 12  7  1  0
 19 13  1  0
 29 20  1  0
 28 23  1  0
  3 30  1  0
  4 31  1  0
  4 32  1  0
  8 33  1  0
  8 34  1  0
  9 35  1  6
 10 36  1  0
 11 37  1  0
 11 38  1  0
 12 39  1  1
 14 40  1  0
 15 41  1  0
 18 42  1  0
 19 43  1  0
 21 44  1  0
 22 45  1  0
 24 46  1  0
 25 47  1  0
 26 48  1  0
 27 49  1  0
M  END
>  <smiles>  (31) 
O=C(NCC(=O)N1C[C@H](O)C[C@H]1c1ccc(Cl)cc1)c1ccc2ccccc2n1

>  <score_type>  (31) 
oracle

>  <origin>  (31) 
autodockgpu

>  <m_score__min__energy>  (31) 
-9.0500000000000007

>  <m_primary>  (31) 
energy

>  <rmsd>  (31) 
1.7753982812614952

>  <m_score__min__rmsd>  (31) 
1.7753982812614952

>  <meeko>  (31) 
{"free_energy": -9.03, "intermolecular_energy": -10.82, "internal_energy": -1.18, "cluster_size": 11, "cluster_id": 1, "rank_in_cluster": 2}

>  <energy>  (31) 
-7.4

>  <cluster_rmsd>  (31) 
0.34

>  <cluster>  (31) 
6

$$$$

     RDKit          3D

 49 52  0  0  0  0  0  0  0  0999 V2000
  139.7650   71.0340  221.2380 O   0  0  0  0  0  0  0  0  0  0  0  0
  139.3640   71.6510  222.2820 C   0  0  0  0  0  0  0  0  0  0  0  0
  138.6380   72.8830  222.1500 N   0  0  0  0  0  0  0  0  0  0  0  0
  138.3230   73.5130  220.9240 C   0  0  0  0  0  0  0  0  0  0  0  0
  139.3790   74.0010  220.0570 C   0  0  0  0  0  0  0  0  0  0  0  0
  138.9890   74.7900  219.1140 O   0  0  0  0  0  0  0  0  0  0  0  0
  140.7750   73.7410  220.1020 N   0  0  0  0  0  0  0  0  0  0  0  0
  141.5830   72.8990  219.2090 C   0  0  0  0  0  0  0  0  0  0  0  0
  142.8200   72.5880  220.1020 C   0  0  2  0  0  0  0  0  0  0  0  0
  142.4840   71.7270  221.1330 O   0  0  0  0  0  0  0  0  0  0  0  0
  143.0130   73.9750  220.7320 C   0  0  0  0  0  0  0  0  0  0  0  0
  141.6220   74.3160  221.1370 C   0  0  1  0  0  0  0  0  0  0  0  0
  141.4510   75.7910  221.2240 C   0  0  0  0  0  0  0  0  0  0  0  0
  141.9770   76.5920  220.2360 C   0  0  0  0  0  0  0  0  0  0  0  0
  141.8160   77.9750  220.3180 C   0  0  0  0  0  0  0  0  0  0  0  0
  141.1290   78.5190  221.3930 C   0  0  0  0  0  0  0  0  0  0  0  0
  140.9000   80.2680  221.5380 Cl  0  0  0  0  0  0  0  0  0  0  0  0
  140.6190   77.6760  222.3620 C   0  0  0  0  0  0  0  0  0  0  0  0
  140.7570   76.3030  222.3160 C   0  0  0  0  0  0  0  0  0  0  0  0
  139.6510   71.0900  223.6190 C   0  0  0  0  0  0  0  0  0  0  0  0
  139.3320   69.7900  223.8760 C   0  0  0  0  0  0  0  0  0  0  0  0
  139.6170   69.2940  225.1490 C   0  0  0  0  0  0  0  0  0  0  0  0
  140.2070   70.1070  226.1180 C   0  0  0  0  0  0  0  0  0  0  0  0
  140.4860   69.6000  227.3820 C   0  0  0  0  0  0  0  0  0  0  0  0
  141.0770   70.4560  228.3160 C   0  0  0  0  0  0  0  0  0  0  0  0
  141.3830   71.7660  228.0120 C   0  0  0  0  0  0  0  0  0  0  0  0
  141.0890   72.2290  226.7430 C   0  0  0  0  0  0  0  0  0  0  0  0
  140.5060   71.4200  225.7930 C   0  0  0  0  0  0  0  0  0  0  0  0
  140.2260   71.8760  224.5710 N   0  0  0  0  0  0  0  0  0  0  0  0
  138.3430   73.3070  223.0820 H   0  0  0  0  0  0  0  0  0  0  0  0
  137.7421   72.7870  220.3361 H   0  0  0  0  0  0  0  0  0  0  0  0
  137.8159   74.4360  221.2419 H   0  0  0  0  0  0  0  0  0  0  0  0
  141.0472   71.9792  218.9317 H   0  0  0  0  0  0  0  0  0  0  0  0
  141.8332   73.3767  218.2502 H   0  0  0  0  0  0  0  0  0  0  0  0
  143.6673   72.1407  219.5616 H   0  0  0  0  0  0  0  0  0  0  0  0
  141.5090   71.4750  221.1090 H   0  0  0  0  0  0  0  0  0  0  0  0
  143.6849   73.9308  221.6018 H   0  0  0  0  0  0  0  0  0  0  0  0
  143.4764   74.7115  220.0591 H   0  0  0  0  0  0  0  0  0  0  0  0
  141.3663   73.9208  222.1312 H   0  0  0  0  0  0  0  0  0  0  0  0
  142.5194   76.1455  219.3895 H   0  0  0  0  0  0  0  0  0  0  0  0
  142.2304   78.6289  219.5365 H   0  0  0  0  0  0  0  0  0  0  0  0
  140.0774   78.1199  223.2103 H   0  0  0  0  0  0  0  0  0  0  0  0
  140.3418   75.6507  223.0984 H   0  0  0  0  0  0  0  0  0  0  0  0
  138.8668   69.1548  223.1079 H   0  0  0  0  0  0  0  0  0  0  0  0
  139.3736   68.2491  225.3917 H   0  0  0  0  0  0  0  0  0  0  0  0
  140.2490   68.5571  227.6394 H   0  0  0  0  0  0  0  0  0  0  0  0
  141.3045   70.0738  229.3221 H   0  0  0  0  0  0  0  0  0  0  0  0
  141.8487   72.4250  228.7595 H   0  0  0  0  0  0  0  0  0  0  0  0
  141.3271   73.2715  226.4851 H   0  0  0  0  0  0  0  0  0  0  0  0
  1  2  2  0
  2  3  1  0
  3  4  1  0
  4  5  1  0
  5  6  2  0
  5  7  1  0
  7  8  1  0
  8  9  1  0
  9 10  1  0
  9 11  1  0
 11 12  1  0
 12 13  1  0
 13 14  2  0
 14 15  1  0
 15 16  2  0
 16 17  1  0
 16 18  1  0
 18 19  2  0
  2 20  1  0
 20 21  2  0
 21 22  1  0
 22 23  2  0
 23 24  1  0
 24 25  2  0
 25 26  1  0
 26 27  2  0
 27 28  1  0
 28 29  2  0
 12  7  1  0
 19 13  1  0
 29 20  1  0
 28 23  1  0
  3 30  1  0
  4 31  1  0
  4 32  1  0
  8 33  1  0
  8 34  1  0
  9 35  1  6
 10 36  1  0
 11 37  1  0
 11 38  1  0
 12 39  1  1
 14 40  1  0
 15 41  1  0
 18 42  1  0
 19 43  1  0
 21 44  1  0
 22 45  1  0
 24 46  1  0
 25 47  1  0
 26 48  1  0
 27 49  1  0
M  END
>  <smiles>  (32) 
O=C(NCC(=O)N1C[C@H](O)C[C@H]1c1ccc(Cl)cc1)c1ccc2ccccc2n1

>  <score_type>  (32) 
oracle

>  <origin>  (32) 
autodockgpu

>  <m_score__min__energy>  (32) 
-9.0500000000000007

>  <m_primary>  (32) 
energy

>  <rmsd>  (32) 
2.515565112004282

>  <m_score__min__rmsd>  (32) 
2.515565112004282

>  <meeko>  (32) 
{"free_energy": -7.29, "intermolecular_energy": -9.08, "internal_energy": -2.68, "cluster_size": 22, "cluster_id": 6, "rank_in_cluster": 19}

>  <energy>  (32) 
-7.4

>  <cluster_rmsd>  (32) 
0.36

>  <cluster>  (32) 
6

$$$$

     RDKit          3D

 49 52  0  0  0  0  0  0  0  0999 V2000
  139.7810   71.0110  221.2200 O   0  0  0  0  0  0  0  0  0  0  0  0
  139.5540   71.7060  222.2690 C   0  0  0  0  0  0  0  0  0  0  0  0
  139.0570   73.0460  222.1450 N   0  0  0  0  0  0  0  0  0  0  0  0
  138.7950   73.7060  220.9210 C   0  0  0  0  0  0  0  0  0  0  0  0
  139.7430   73.6240  219.8260 C   0  0  0  0  0  0  0  0  0  0  0  0
  139.2370   73.7990  218.6530 O   0  0  0  0  0  0  0  0  0  0  0  0
  141.1430   73.3870  219.8620 N   0  0  0  0  0  0  0  0  0  0  0  0
  141.9570   72.5500  218.9680 C   0  0  0  0  0  0  0  0  0  0  0  0
  143.2060   72.2660  219.8530 C   0  0  2  0  0  0  0  0  0  0  0  0
  142.8920   71.4090  220.8950 O   0  0  0  0  0  0  0  0  0  0  0  0
  143.3820   73.6620  220.4700 C   0  0  0  0  0  0  0  0  0  0  0  0
  141.9900   73.9840  220.8840 C   0  0  1  0  0  0  0  0  0  0  0  0
  141.7960   75.4570  220.9600 C   0  0  0  0  0  0  0  0  0  0  0  0
  141.0400   75.9870  221.9810 C   0  0  0  0  0  0  0  0  0  0  0  0
  140.8570   77.3670  222.0530 C   0  0  0  0  0  0  0  0  0  0  0  0
  141.4410   78.1830  221.0940 C   0  0  0  0  0  0  0  0  0  0  0  0
  141.2360   79.9400  221.1450 Cl  0  0  0  0  0  0  0  0  0  0  0  0
  142.1910   77.6060  220.0860 C   0  0  0  0  0  0  0  0  0  0  0  0
  142.3940   76.2450  219.9820 C   0  0  0  0  0  0  0  0  0  0  0  0
  139.8070   71.1200  223.6020 C   0  0  0  0  0  0  0  0  0  0  0  0
  139.5350   69.8010  223.8110 C   0  0  0  0  0  0  0  0  0  0  0  0
  139.7860   69.2830  225.0810 C   0  0  0  0  0  0  0  0  0  0  0  0
  140.2950   70.0930  226.0980 C   0  0  0  0  0  0  0  0  0  0  0  0
  140.5400   69.5630  227.3590 C   0  0  0  0  0  0  0  0  0  0  0  0
  141.0510   70.4180  228.3410 C   0  0  0  0  0  0  0  0  0  0  0  0
  141.3110   71.7480  228.0850 C   0  0  0  0  0  0  0  0  0  0  0  0
  141.0530   72.2330  226.8170 C   0  0  0  0  0  0  0  0  0  0  0  0
  140.5500   71.4260  225.8200 C   0  0  0  0  0  0  0  0  0  0  0  0
  140.3040   71.9040  224.5990 N   0  0  0  0  0  0  0  0  0  0  0  0
  138.8930   73.5300  223.0800 H   0  0  0  0  0  0  0  0  0  0  0  0
  137.8420   73.3061  220.5443 H   0  0  0  0  0  0  0  0  0  0  0  0
  138.8282   74.7696  221.1997 H   0  0  0  0  0  0  0  0  0  0  0  0
  141.4335   71.6197  218.7027 H   0  0  0  0  0  0  0  0  0  0  0  0
  142.1914   73.0235  218.0032 H   0  0  0  0  0  0  0  0  0  0  0  0
  144.0555   71.8271  219.3091 H   0  0  0  0  0  0  0  0  0  0  0  0
  141.8970   71.3000  221.0040 H   0  0  0  0  0  0  0  0  0  0  0  0
  144.0619   73.6360  221.3343 H   0  0  0  0  0  0  0  0  0  0  0  0
  143.8277   74.4001  219.7869 H   0  0  0  0  0  0  0  0  0  0  0  0
  141.7497   73.5930  221.8837 H   0  0  0  0  0  0  0  0  0  0  0  0
  140.5841   75.3271  222.7338 H   0  0  0  0  0  0  0  0  0  0  0  0
  140.2551   77.8054  222.8626 H   0  0  0  0  0  0  0  0  0  0  0  0
  142.6476   78.2630  219.3311 H   0  0  0  0  0  0  0  0  0  0  0  0
  142.9950   75.8077  219.1711 H   0  0  0  0  0  0  0  0  0  0  0  0
  139.1320   69.1679  223.0068 H   0  0  0  0  0  0  0  0  0  0  0  0
  139.5802   68.2217  225.2844 H   0  0  0  0  0  0  0  0  0  0  0  0
  140.3383   68.5041  227.5781 H   0  0  0  0  0  0  0  0  0  0  0  0
  141.2512   70.0182  229.3460 H   0  0  0  0  0  0  0  0  0  0  0  0
  141.7133   72.4056  228.8697 H   0  0  0  0  0  0  0  0  0  0  0  0
  141.2546   73.2919  226.5977 H   0  0  0  0  0  0  0  0  0  0  0  0
  1  2  2  0
  2  3  1  0
  3  4  1  0
  4  5  1  0
  5  6  2  0
  5  7  1  0
  7  8  1  0
  8  9  1  0
  9 10  1  0
  9 11  1  0
 11 12  1  0
 12 13  1  0
 13 14  2  0
 14 15  1  0
 15 16  2  0
 16 17  1  0
 16 18  1  0
 18 19  2  0
  2 20  1  0
 20 21  2  0
 21 22  1  0
 22 23  2  0
 23 24  1  0
 24 25  2  0
 25 26  1  0
 26 27  2  0
 27 28  1  0
 28 29  2  0
 12  7  1  0
 19 13  1  0
 29 20  1  0
 28 23  1  0
  3 30  1  0
  4 31  1  0
  4 32  1  0
  8 33  1  0
  8 34  1  0
  9 35  1  6
 10 36  1  0
 11 37  1  0
 11 38  1  0
 12 39  1  1
 14 40  1  0
 15 41  1  0
 18 42  1  0
 19 43  1  0
 21 44  1  0
 22 45  1  0
 24 46  1  0
 25 47  1  0
 26 48  1  0
 27 49  1  0
M  END
>  <smiles>  (33) 
O=C(NCC(=O)N1C[C@H](O)C[C@H]1c1ccc(Cl)cc1)c1ccc2ccccc2n1

>  <score_type>  (33) 
oracle

>  <origin>  (33) 
autodockgpu

>  <m_score__min__energy>  (33) 
-9.0500000000000007

>  <m_primary>  (33) 
energy

>  <rmsd>  (33) 
2.7260005252574118

>  <m_score__min__rmsd>  (33) 
2.7260005252574118

>  <meeko>  (33) 
{"free_energy": -7.37, "intermolecular_energy": -9.16, "internal_energy": -2.68, "cluster_size": 22, "cluster_id": 6, "rank_in_cluster": 11}

>  <energy>  (33) 
-7.38

>  <cluster_rmsd>  (33) 
0.68

>  <cluster>  (33) 
6

$$$$

     RDKit          3D

 49 52  0  0  0  0  0  0  0  0999 V2000
  139.7900   70.9740  221.2250 O   0  0  0  0  0  0  0  0  0  0  0  0
  139.5660   71.6750  222.2690 C   0  0  0  0  0  0  0  0  0  0  0  0
  139.0630   73.0130  222.1390 N   0  0  0  0  0  0  0  0  0  0  0  0
  138.7920   73.6620  220.9120 C   0  0  0  0  0  0  0  0  0  0  0  0
  139.7530   73.6110  219.8270 C   0  0  0  0  0  0  0  0  0  0  0  0
  139.2610   73.8180  218.6520 O   0  0  0  0  0  0  0  0  0  0  0  0
  141.1520   73.3740  219.8720 N   0  0  0  0  0  0  0  0  0  0  0  0
  141.9690   72.5170  219.0000 C   0  0  0  0  0  0  0  0  0  0  0  0
  143.2140   72.2500  219.8950 C   0  0  2  0  0  0  0  0  0  0  0  0
  142.8960   71.4160  220.9540 O   0  0  0  0  0  0  0  0  0  0  0  0
  143.3900   73.6590  220.4820 C   0  0  0  0  0  0  0  0  0  0  0  0
  141.9970   73.9910  220.8850 C   0  0  1  0  0  0  0  0  0  0  0  0
  141.8040   75.4660  220.9280 C   0  0  0  0  0  0  0  0  0  0  0  0
  142.3690   76.2510  219.9490 C   0  0  0  0  0  0  0  0  0  0  0  0
  142.1890   77.6320  219.9900 C   0  0  0  0  0  0  0  0  0  0  0  0
  141.4420   78.1930  221.0160 C   0  0  0  0  0  0  0  0  0  0  0  0
  141.1870   79.9420  221.1080 Cl  0  0  0  0  0  0  0  0  0  0  0  0
  140.8940   77.3650  221.9780 C   0  0  0  0  0  0  0  0  0  0  0  0
  141.0510   75.9940  221.9720 C   0  0  0  0  0  0  0  0  0  0  0  0
  139.8280   71.1000  223.6050 C   0  0  0  0  0  0  0  0  0  0  0  0
  139.5630   69.7810  223.8250 C   0  0  0  0  0  0  0  0  0  0  0  0
  139.8230   69.2730  225.0980 C   0  0  0  0  0  0  0  0  0  0  0  0
  140.3340   70.0930  226.1060 C   0  0  0  0  0  0  0  0  0  0  0  0
  140.5880   69.5730  227.3690 C   0  0  0  0  0  0  0  0  0  0  0  0
  141.1000   70.4370  228.3430 C   0  0  0  0  0  0  0  0  0  0  0  0
  141.3520   71.7670  228.0760 C   0  0  0  0  0  0  0  0  0  0  0  0
  141.0860   72.2410  226.8060 C   0  0  0  0  0  0  0  0  0  0  0  0
  140.5810   71.4250  225.8180 C   0  0  0  0  0  0  0  0  0  0  0  0
  140.3270   71.8930  224.5950 N   0  0  0  0  0  0  0  0  0  0  0  0
  138.9030   73.5020  223.0710 H   0  0  0  0  0  0  0  0  0  0  0  0
  137.8570   73.2298  220.5261 H   0  0  0  0  0  0  0  0  0  0  0  0
  138.7869   74.7264  221.1897 H   0  0  0  0  0  0  0  0  0  0  0  0
  141.4453   71.5818  218.7525 H   0  0  0  0  0  0  0  0  0  0  0  0
  142.2082   72.9700  218.0266 H   0  0  0  0  0  0  0  0  0  0  0  0
  144.0645   71.7979  219.3637 H   0  0  0  0  0  0  0  0  0  0  0  0
  141.9120   71.2070  220.9840 H   0  0  0  0  0  0  0  0  0  0  0  0
  144.0675   73.6511  221.3485 H   0  0  0  0  0  0  0  0  0  0  0  0
  143.8384   74.3817  219.7844 H   0  0  0  0  0  0  0  0  0  0  0  0
  141.7538   73.6212  221.8920 H   0  0  0  0  0  0  0  0  0  0  0  0
  142.9577   75.7921  219.1410 H   0  0  0  0  0  0  0  0  0  0  0  0
  142.6355   78.2725  219.2152 H   0  0  0  0  0  0  0  0  0  0  0  0
  140.3045   77.8210  222.7871 H   0  0  0  0  0  0  0  0  0  0  0  0
  140.6060   75.3547  222.7487 H   0  0  0  0  0  0  0  0  0  0  0  0
  139.1587   69.1403  223.0275 H   0  0  0  0  0  0  0  0  0  0  0  0
  139.6228   68.2124  225.3105 H   0  0  0  0  0  0  0  0  0  0  0  0
  140.3926   68.5146  227.5962 H   0  0  0  0  0  0  0  0  0  0  0  0
  141.3074   70.0451  229.3497 H   0  0  0  0  0  0  0  0  0  0  0  0
  141.7542   72.4325  228.8541 H   0  0  0  0  0  0  0  0  0  0  0  0
  141.2829   73.2989  226.5776 H   0  0  0  0  0  0  0  0  0  0  0  0
  1  2  2  0
  2  3  1  0
  3  4  1  0
  4  5  1  0
  5  6  2  0
  5  7  1  0
  7  8  1  0
  8  9  1  0
  9 10  1  0
  9 11  1  0
 11 12  1  0
 12 13  1  0
 13 14  2  0
 14 15  1  0
 15 16  2  0
 16 17  1  0
 16 18  1  0
 18 19  2  0
  2 20  1  0
 20 21  2  0
 21 22  1  0
 22 23  2  0
 23 24  1  0
 24 25  2  0
 25 26  1  0
 26 27  2  0
 27 28  1  0
 28 29  2  0
 12  7  1  0
 19 13  1  0
 29 20  1  0
 28 23  1  0
  3 30  1  0
  4 31  1  0
  4 32  1  0
  8 33  1  0
  8 34  1  0
  9 35  1  6
 10 36  1  0
 11 37  1  0
 11 38  1  0
 12 39  1  1
 14 40  1  0
 15 41  1  0
 18 42  1  0
 19 43  1  0
 21 44  1  0
 22 45  1  0
 24 46  1  0
 25 47  1  0
 26 48  1  0
 27 49  1  0
M  END
>  <smiles>  (34) 
O=C(NCC(=O)N1C[C@H](O)C[C@H]1c1ccc(Cl)cc1)c1ccc2ccccc2n1

>  <score_type>  (34) 
oracle

>  <origin>  (34) 
autodockgpu

>  <m_score__min__energy>  (34) 
-9.0500000000000007

>  <m_primary>  (34) 
energy

>  <rmsd>  (34) 
2.7391518337294154

>  <m_score__min__rmsd>  (34) 
2.7391518337294154

>  <meeko>  (34) 
{"free_energy": -7.36, "intermolecular_energy": -9.15, "internal_energy": -2.69, "cluster_size": 22, "cluster_id": 6, "rank_in_cluster": 13}

>  <energy>  (34) 
-7.37

>  <cluster_rmsd>  (34) 
0.4

>  <cluster>  (34) 
6

$$$$

     RDKit          3D

 49 52  0  0  0  0  0  0  0  0999 V2000
  139.0110   74.8020  221.8310 O   0  0  0  0  0  0  0  0  0  0  0  0
  140.1340   75.4000  221.9550 C   0  0  0  0  0  0  0  0  0  0  0  0
  141.3530   74.7020  221.6600 N   0  0  0  0  0  0  0  0  0  0  0  0
  141.4350   73.3540  221.2400 C   0  0  0  0  0  0  0  0  0  0  0  0
  140.6960   72.3210  221.9400 C   0  0  0  0  0  0  0  0  0  0  0  0
  141.4010   71.5900  222.7350 O   0  0  0  0  0  0  0  0  0  0  0  0
  139.3120   72.0050  221.8800 N   0  0  0  0  0  0  0  0  0  0  0  0
  138.4730   71.7670  220.6970 C   0  0  0  0  0  0  0  0  0  0  0  0
  137.0490   72.0520  221.2580 C   0  0  2  0  0  0  0  0  0  0  0  0
  136.8730   73.4030  221.5060 O   0  0  0  0  0  0  0  0  0  0  0  0
  137.1910   71.3680  222.6260 C   0  0  0  0  0  0  0  0  0  0  0  0
  138.5050   71.8920  223.0870 C   0  0  1  0  0  0  0  0  0  0  0  0
  139.1230   70.9620  224.0700 C   0  0  0  0  0  0  0  0  0  0  0  0
  138.9040   69.6080  223.9490 C   0  0  0  0  0  0  0  0  0  0  0  0
  139.4820   68.7360  224.8700 C   0  0  0  0  0  0  0  0  0  0  0  0
  140.2680   69.2470  225.8920 C   0  0  0  0  0  0  0  0  0  0  0  0
  141.0230   68.1770  227.0830 Cl  0  0  0  0  0  0  0  0  0  0  0  0
  140.4600   70.6130  225.9740 C   0  0  0  0  0  0  0  0  0  0  0  0
  139.9050   71.5080  225.0830 C   0  0  0  0  0  0  0  0  0  0  0  0
  140.1660   76.8090  222.4020 C   0  0  0  0  0  0  0  0  0  0  0  0
  138.9920   77.4520  222.6580 C   0  0  0  0  0  0  0  0  0  0  0  0
  139.0610   78.7800  223.0770 C   0  0  0  0  0  0  0  0  0  0  0  0
  140.2920   79.4220  223.2260 C   0  0  0  0  0  0  0  0  0  0  0  0
  140.3450   80.7460  223.6450 C   0  0  0  0  0  0  0  0  0  0  0  0
  141.6040   81.3410  223.7780 C   0  0  0  0  0  0  0  0  0  0  0  0
  142.7680   80.6510  223.5080 C   0  0  0  0  0  0  0  0  0  0  0  0
  142.6680   79.3360  223.0940 C   0  0  0  0  0  0  0  0  0  0  0  0
  141.4490   78.7120  222.9490 C   0  0  0  0  0  0  0  0  0  0  0  0
  141.3630   77.4420  222.5490 N   0  0  0  0  0  0  0  0  0  0  0  0
  142.2270   75.2970  221.7860 H   0  0  0  0  0  0  0  0  0  0  0  0
  141.0983   73.3286  220.1931 H   0  0  0  0  0  0  0  0  0  0  0  0
  142.4834   73.0927  221.4465 H   0  0  0  0  0  0  0  0  0  0  0  0
  138.7275   72.4574  219.8794 H   0  0  0  0  0  0  0  0  0  0  0  0
  138.5890   70.7635  220.2617 H   0  0  0  0  0  0  0  0  0  0  0  0
  136.2303   71.7290  220.5981 H   0  0  0  0  0  0  0  0  0  0  0  0
  137.6960   73.8200  221.9110 H   0  0  0  0  0  0  0  0  0  0  0  0
  136.3797   71.6623  223.3081 H   0  0  0  0  0  0  0  0  0  0  0  0
  137.1361   70.2701  222.5854 H   0  0  0  0  0  0  0  0  0  0  0  0
  138.4121   72.8600  223.6011 H   0  0  0  0  0  0  0  0  0  0  0  0
  138.2784   69.2179  223.1326 H   0  0  0  0  0  0  0  0  0  0  0  0
  139.3161   67.6518  224.7870 H   0  0  0  0  0  0  0  0  0  0  0  0
  141.0856   71.0057  226.7891 H   0  0  0  0  0  0  0  0  0  0  0  0
  140.0713   72.5920  225.1685 H   0  0  0  0  0  0  0  0  0  0  0  0
  138.0249   76.9417  222.5384 H   0  0  0  0  0  0  0  0  0  0  0  0
  138.1329   79.3295  223.2932 H   0  0  0  0  0  0  0  0  0  0  0  0
  139.4257   81.3085  223.8652 H   0  0  0  0  0  0  0  0  0  0  0  0
  141.6679   82.3887  224.1072 H   0  0  0  0  0  0  0  0  0  0  0  0
  143.7497   81.1347  223.6193 H   0  0  0  0  0  0  0  0  0  0  0  0
  143.5870   78.7727  222.8744 H   0  0  0  0  0  0  0  0  0  0  0  0
  1  2  2  0
  2  3  1  0
  3  4  1  0
  4  5  1  0
  5  6  2  0
  5  7  1  0
  7  8  1  0
  8  9  1  0
  9 10  1  0
  9 11  1  0
 11 12  1  0
 12 13  1  0
 13 14  2  0
 14 15  1  0
 15 16  2  0
 16 17  1  0
 16 18  1  0
 18 19  2  0
  2 20  1  0
 20 21  2  0
 21 22  1  0
 22 23  2  0
 23 24  1  0
 24 25  2  0
 25 26  1  0
 26 27  2  0
 27 28  1  0
 28 29  2  0
 12  7  1  0
 19 13  1  0
 29 20  1  0
 28 23  1  0
  3 30  1  0
  4 31  1  0
  4 32  1  0
  8 33  1  0
  8 34  1  0
  9 35  1  6
 10 36  1  0
 11 37  1  0
 11 38  1  0
 12 39  1  1
 14 40  1  0
 15 41  1  0
 18 42  1  0
 19 43  1  0
 21 44  1  0
 22 45  1  0
 24 46  1  0
 25 47  1  0
 26 48  1  0
 27 49  1  0
M  END
>  <smiles>  (35) 
O=C(NCC(=O)N1C[C@H](O)C[C@H]1c1ccc(Cl)cc1)c1ccc2ccccc2n1

>  <score_type>  (35) 
oracle

>  <origin>  (35) 
autodockgpu

>  <m_score__min__energy>  (35) 
-9.0500000000000007

>  <m_primary>  (35) 
energy

>  <rmsd>  (35) 
7.841350238051965

>  <m_score__min__rmsd>  (35) 
7.841350238051965

>  <meeko>  (35) 
{"free_energy": -7.66, "intermolecular_energy": -9.45, "internal_energy": -2.4, "cluster_size": 4, "cluster_id": 4, "rank_in_cluster": 4}

>  <energy>  (35) 
-7.37

>  <cluster_rmsd>  (35) 
0.39

>  <cluster>  (35) 
6

$$$$

     RDKit          3D

 49 52  0  0  0  0  0  0  0  0999 V2000
  140.4550   76.9100  218.7860 O   0  0  0  0  0  0  0  0  0  0  0  0
  141.6800   76.9580  219.1440 C   0  0  0  0  0  0  0  0  0  0  0  0
  142.3020   78.2270  219.3970 N   0  0  0  0  0  0  0  0  0  0  0  0
  141.6640   79.4830  219.2710 C   0  0  0  0  0  0  0  0  0  0  0  0
  141.0710   80.1240  220.4280 C   0  0  0  0  0  0  0  0  0  0  0  0
  139.9660   80.7490  220.1990 O   0  0  0  0  0  0  0  0  0  0  0  0
  141.5260   80.1570  221.7740 N   0  0  0  0  0  0  0  0  0  0  0  0
  141.8250   81.3240  222.6160 C   0  0  0  0  0  0  0  0  0  0  0  0
  142.7790   80.7090  223.6810 C   0  0  2  0  0  0  0  0  0  0  0  0
  144.0080   80.3930  223.1250 O   0  0  0  0  0  0  0  0  0  0  0  0
  142.0470   79.3780  223.9150 C   0  0  0  0  0  0  0  0  0  0  0  0
  141.7830   78.9330  222.5190 C   0  0  1  0  0  0  0  0  0  0  0  0
  140.6140   78.0140  222.4770 C   0  0  0  0  0  0  0  0  0  0  0  0
  140.8150   76.6770  222.2140 C   0  0  0  0  0  0  0  0  0  0  0  0
  139.7200   75.8160  222.1740 C   0  0  0  0  0  0  0  0  0  0  0  0
  138.4470   76.3190  222.4000 C   0  0  0  0  0  0  0  0  0  0  0  0
  137.0280   75.2620  222.3590 Cl  0  0  0  0  0  0  0  0  0  0  0  0
  138.2940   77.6680  222.6590 C   0  0  0  0  0  0  0  0  0  0  0  0
  139.3520   78.5520  222.7070 C   0  0  0  0  0  0  0  0  0  0  0  0
  142.4480   75.7040  219.2930 C   0  0  0  0  0  0  0  0  0  0  0  0
  141.9590   74.5560  218.7450 C   0  0  0  0  0  0  0  0  0  0  0  0
  142.7110   73.3920  218.9060 C   0  0  0  0  0  0  0  0  0  0  0  0
  143.9190   73.4100  219.6060 C   0  0  0  0  0  0  0  0  0  0  0  0
  144.6560   72.2420  219.7580 C   0  0  0  0  0  0  0  0  0  0  0  0
  145.8590   72.3150  220.4680 C   0  0  0  0  0  0  0  0  0  0  0  0
  146.3160   73.5000  221.0060 C   0  0  0  0  0  0  0  0  0  0  0  0
  145.5510   74.6370  220.8300 C   0  0  0  0  0  0  0  0  0  0  0  0
  144.3600   74.6100  220.1390 C   0  0  0  0  0  0  0  0  0  0  0  0
  143.6280   75.7130  219.9750 N   0  0  0  0  0  0  0  0  0  0  0  0
  143.3210   78.1510  219.6990 H   0  0  0  0  0  0  0  0  0  0  0  0
  142.4163   80.1808  218.8746 H   0  0  0  0  0  0  0  0  0  0  0  0
  140.7928   79.2568  218.6386 H   0  0  0  0  0  0  0  0  0  0  0  0
  142.3250   82.1165  222.0399 H   0  0  0  0  0  0  0  0  0  0  0  0
  140.9334   81.8076  223.0416 H   0  0  0  0  0  0  0  0  0  0  0  0
  142.9669   81.3587  224.5485 H   0  0  0  0  0  0  0  0  0  0  0  0
  143.9130   79.7920  222.3230 H   0  0  0  0  0  0  0  0  0  0  0  0
  142.6830   78.6590  224.4521 H   0  0  0  0  0  0  0  0  0  0  0  0
  141.1428   79.4672  224.5351 H   0  0  0  0  0  0  0  0  0  0  0  0
  142.6270   78.3719  222.0915 H   0  0  0  0  0  0  0  0  0  0  0  0
  141.8303   76.2925  222.0372 H   0  0  0  0  0  0  0  0  0  0  0  0
  139.8639   74.7457  221.9648 H   0  0  0  0  0  0  0  0  0  0  0  0
  137.2797   78.0554  222.8354 H   0  0  0  0  0  0  0  0  0  0  0  0
  139.2059   79.6221  222.9154 H   0  0  0  0  0  0  0  0  0  0  0  0
  141.0060   74.5475  218.1957 H   0  0  0  0  0  0  0  0  0  0  0  0
  142.3473   72.4472  218.4757 H   0  0  0  0  0  0  0  0  0  0  0  0
  144.3046   71.2900  219.3334 H   0  0  0  0  0  0  0  0  0  0  0  0
  146.4574   71.4017  220.6010 H   0  0  0  0  0  0  0  0  0  0  0  0
  147.2650   73.5388  221.5608 H   0  0  0  0  0  0  0  0  0  0  0  0
  145.9027   75.5895  221.2532 H   0  0  0  0  0  0  0  0  0  0  0  0
  1  2  2  0
  2  3  1  0
  3  4  1  0
  4  5  1  0
  5  6  2  0
  5  7  1  0
  7  8  1  0
  8  9  1  0
  9 10  1  0
  9 11  1  0
 11 12  1  0
 12 13  1  0
 13 14  2  0
 14 15  1  0
 15 16  2  0
 16 17  1  0
 16 18  1  0
 18 19  2  0
  2 20  1  0
 20 21  2  0
 21 22  1  0
 22 23  2  0
 23 24  1  0
 24 25  2  0
 25 26  1  0
 26 27  2  0
 27 28  1  0
 28 29  2  0
 12  7  1  0
 19 13  1  0
 29 20  1  0
 28 23  1  0
  3 30  1  0
  4 31  1  0
  4 32  1  0
  8 33  1  0
  8 34  1  0
  9 35  1  1
 10 36  1  0
 11 37  1  0
 11 38  1  0
 12 39  1  6
 14 40  1  0
 15 41  1  0
 18 42  1  0
 19 43  1  0
 21 44  1  0
 22 45  1  0
 24 46  1  0
 25 47  1  0
 26 48  1  0
 27 49  1  0
M  END
>  <smiles>  (36) 
O=C(NCC(=O)N1C[C@H](O)C[C@H]1c1ccc(Cl)cc1)c1ccc2ccccc2n1

>  <score_type>  (36) 
oracle

>  <origin>  (36) 
autodockgpu

>  <m_score__min__energy>  (36) 
-9.0500000000000007

>  <m_primary>  (36) 
energy

>  <rmsd>  (36) 
7.572858154116162

>  <m_score__min__rmsd>  (36) 
7.572858154116162

>  <meeko>  (36) 
{"free_energy": -7.66, "intermolecular_energy": -9.45, "internal_energy": -2.38, "cluster_size": 7, "cluster_id": 5, "rank_in_cluster": 3}

>  <energy>  (36) 
-7.37

>  <cluster_rmsd>  (36) 
0.41

>  <cluster>  (36) 
6

$$$$

     RDKit          3D

 49 52  0  0  0  0  0  0  0  0999 V2000
  140.4290   76.8700  218.6420 O   0  0  0  0  0  0  0  0  0  0  0  0
  141.6250   76.9100  219.0880 C   0  0  0  0  0  0  0  0  0  0  0  0
  142.2240   78.1720  219.4180 N   0  0  0  0  0  0  0  0  0  0  0  0
  141.5940   79.4310  219.2790 C   0  0  0  0  0  0  0  0  0  0  0  0
  141.0730   80.1230  220.4420 C   0  0  0  0  0  0  0  0  0  0  0  0
  140.0210   80.8370  220.2250 O   0  0  0  0  0  0  0  0  0  0  0  0
  141.5500   80.1240  221.7800 N   0  0  0  0  0  0  0  0  0  0  0  0
  141.8810   81.2700  222.6380 C   0  0  0  0  0  0  0  0  0  0  0  0
  142.8420   80.6200  223.6760 C   0  0  2  0  0  0  0  0  0  0  0  0
  144.0560   80.2950  223.0950 O   0  0  0  0  0  0  0  0  0  0  0  0
  142.0920   79.2970  223.8970 C   0  0  0  0  0  0  0  0  0  0  0  0
  141.7990   78.8820  222.4990 C   0  0  1  0  0  0  0  0  0  0  0  0
  140.6150   77.9830  222.4580 C   0  0  0  0  0  0  0  0  0  0  0  0
  139.3620   78.5040  222.6850 C   0  0  0  0  0  0  0  0  0  0  0  0
  138.2520   77.6610  222.6480 C   0  0  0  0  0  0  0  0  0  0  0  0
  138.4300   76.3110  222.3820 C   0  0  0  0  0  0  0  0  0  0  0  0
  137.0510   75.2040  222.3240 Cl  0  0  0  0  0  0  0  0  0  0  0  0
  139.7080   75.8320  222.1600 C   0  0  0  0  0  0  0  0  0  0  0  0
  140.8300   76.6340  222.1900 C   0  0  0  0  0  0  0  0  0  0  0  0
  142.3830   75.6530  219.2600 C   0  0  0  0  0  0  0  0  0  0  0  0
  141.8690   74.4930  218.7630 C   0  0  0  0  0  0  0  0  0  0  0  0
  142.6120   73.3260  218.9440 C   0  0  0  0  0  0  0  0  0  0  0  0
  143.8370   73.3540  219.6130 C   0  0  0  0  0  0  0  0  0  0  0  0
  144.5660   72.1830  219.7860 C   0  0  0  0  0  0  0  0  0  0  0  0
  145.7870   72.2660  220.4630 C   0  0  0  0  0  0  0  0  0  0  0  0
  146.2690   73.4630  220.9510 C   0  0  0  0  0  0  0  0  0  0  0  0
  145.5120   74.6020  220.7560 C   0  0  0  0  0  0  0  0  0  0  0  0
  144.3040   74.5650  220.0950 C   0  0  0  0  0  0  0  0  0  0  0  0
  143.5800   75.6710  219.9120 N   0  0  0  0  0  0  0  0  0  0  0  0
  143.2190   78.0890  219.7910 H   0  0  0  0  0  0  0  0  0  0  0  0
  142.3310   80.1033  218.8155 H   0  0  0  0  0  0  0  0  0  0  0  0
  140.6868   79.1929  218.7044 H   0  0  0  0  0  0  0  0  0  0  0  0
  142.3844   82.0651  222.0685 H   0  0  0  0  0  0  0  0  0  0  0  0
  141.0042   81.7598  223.0868 H   0  0  0  0  0  0  0  0  0  0  0  0
  143.0544   81.2503  224.5521 H   0  0  0  0  0  0  0  0  0  0  0  0
  143.9390   79.7050  222.2880 H   0  0  0  0  0  0  0  0  0  0  0  0
  142.7244   78.5581  224.4109 H   0  0  0  0  0  0  0  0  0  0  0  0
  141.1991   79.3896  224.5327 H   0  0  0  0  0  0  0  0  0  0  0  0
  142.6272   78.3151  222.0488 H   0  0  0  0  0  0  0  0  0  0  0  0
  139.2370   79.5767  222.8939 H   0  0  0  0  0  0  0  0  0  0  0  0
  137.2440   78.0628  222.8281 H   0  0  0  0  0  0  0  0  0  0  0  0
  139.8361   74.7600  221.9494 H   0  0  0  0  0  0  0  0  0  0  0  0
  141.8377   76.2303  222.0122 H   0  0  0  0  0  0  0  0  0  0  0  0
  140.9026   74.4772  218.2378 H   0  0  0  0  0  0  0  0  0  0  0  0
  142.2277   72.3717  218.5546 H   0  0  0  0  0  0  0  0  0  0  0  0
  144.1942   71.2214  219.4025 H   0  0  0  0  0  0  0  0  0  0  0  0
  146.3797   71.3511  220.6105 H   0  0  0  0  0  0  0  0  0  0  0  0
  147.2314   73.5093  221.4818 H   0  0  0  0  0  0  0  0  0  0  0  0
  145.8837   75.5640  221.1387 H   0  0  0  0  0  0  0  0  0  0  0  0
  1  2  2  0
  2  3  1  0
  3  4  1  0
  4  5  1  0
  5  6  2  0
  5  7  1  0
  7  8  1  0
  8  9  1  0
  9 10  1  0
  9 11  1  0
 11 12  1  0
 12 13  1  0
 13 14  2  0
 14 15  1  0
 15 16  2  0
 16 17  1  0
 16 18  1  0
 18 19  2  0
  2 20  1  0
 20 21  2  0
 21 22  1  0
 22 23  2  0
 23 24  1  0
 24 25  2  0
 25 26  1  0
 26 27  2  0
 27 28  1  0
 28 29  2  0
 12  7  1  0
 19 13  1  0
 29 20  1  0
 28 23  1  0
  3 30  1  0
  4 31  1  0
  4 32  1  0
  8 33  1  0
  8 34  1  0
  9 35  1  1
 10 36  1  0
 11 37  1  0
 11 38  1  0
 12 39  1  6
 14 40  1  0
 15 41  1  0
 18 42  1  0
 19 43  1  0
 21 44  1  0
 22 45  1  0
 24 46  1  0
 25 47  1  0
 26 48  1  0
 27 49  1  0
M  END
>  <smiles>  (37) 
O=C(NCC(=O)N1C[C@H](O)C[C@H]1c1ccc(Cl)cc1)c1ccc2ccccc2n1

>  <score_type>  (37) 
oracle

>  <origin>  (37) 
autodockgpu

>  <m_score__min__energy>  (37) 
-9.0500000000000007

>  <m_primary>  (37) 
energy

>  <rmsd>  (37) 
7.527724835634392

>  <m_score__min__rmsd>  (37) 
7.527724835634392

>  <meeko>  (37) 
{"free_energy": -7.6, "intermolecular_energy": -9.39, "internal_energy": -2.39, "cluster_size": 7, "cluster_id": 5, "rank_in_cluster": 6}

>  <energy>  (37) 
-7.36

>  <cluster_rmsd>  (37) 
0.4

>  <cluster>  (37) 
6

$$$$

     RDKit          3D

 49 52  0  0  0  0  0  0  0  0999 V2000
  140.0310   71.1330  221.2070 O   0  0  0  0  0  0  0  0  0  0  0  0
  139.6790   71.7670  222.2590 C   0  0  0  0  0  0  0  0  0  0  0  0
  139.0860   73.0690  222.1450 N   0  0  0  0  0  0  0  0  0  0  0  0
  138.8550   73.7530  220.9290 C   0  0  0  0  0  0  0  0  0  0  0  0
  139.7960   73.6370  219.8320 C   0  0  0  0  0  0  0  0  0  0  0  0
  139.2820   73.7630  218.6560 O   0  0  0  0  0  0  0  0  0  0  0  0
  141.1990   73.4130  219.8670 N   0  0  0  0  0  0  0  0  0  0  0  0
  142.0190   72.5750  218.9810 C   0  0  0  0  0  0  0  0  0  0  0  0
  143.2720   72.3110  219.8660 C   0  0  2  0  0  0  0  0  0  0  0  0
  142.9680   71.4620  220.9170 O   0  0  0  0  0  0  0  0  0  0  0  0
  143.4370   73.7150  220.4690 C   0  0  0  0  0  0  0  0  0  0  0  0
  142.0420   74.0280  220.8820 C   0  0  1  0  0  0  0  0  0  0  0  0
  141.8340   75.5000  220.9440 C   0  0  0  0  0  0  0  0  0  0  0  0
  142.3890   76.3020  219.9730 C   0  0  0  0  0  0  0  0  0  0  0  0
  142.1950   77.6810  220.0300 C   0  0  0  0  0  0  0  0  0  0  0  0
  141.4460   78.2220  221.0660 C   0  0  0  0  0  0  0  0  0  0  0  0
  141.1720   79.9670  221.1790 Cl  0  0  0  0  0  0  0  0  0  0  0  0
  140.9080   77.3780  222.0190 C   0  0  0  0  0  0  0  0  0  0  0  0
  141.0790   76.0080  221.9960 C   0  0  0  0  0  0  0  0  0  0  0  0
  139.8880   71.1530  223.5870 C   0  0  0  0  0  0  0  0  0  0  0  0
  139.5520   69.8450  223.7740 C   0  0  0  0  0  0  0  0  0  0  0  0
  139.7630   69.2980  225.0400 C   0  0  0  0  0  0  0  0  0  0  0  0
  140.2980   70.0700  226.0730 C   0  0  0  0  0  0  0  0  0  0  0  0
  140.5020   69.5120  227.3300 C   0  0  0  0  0  0  0  0  0  0  0  0
  141.0400   70.3280  228.3300 C   0  0  0  0  0  0  0  0  0  0  0  0
  141.3650   71.6480  228.0950 C   0  0  0  0  0  0  0  0  0  0  0  0
  141.1450   72.1620  226.8320 C   0  0  0  0  0  0  0  0  0  0  0  0
  140.6170   71.3930  225.8180 C   0  0  0  0  0  0  0  0  0  0  0  0
  140.4090   71.8980  224.6010 N   0  0  0  0  0  0  0  0  0  0  0  0
  138.8220   73.5020  223.0820 H   0  0  0  0  0  0  0  0  0  0  0  0
  137.8834   73.4034  220.5498 H   0  0  0  0  0  0  0  0  0  0  0  0
  138.9401   74.8107  221.2187 H   0  0  0  0  0  0  0  0  0  0  0  0
  141.5036   71.6373  218.7259 H   0  0  0  0  0  0  0  0  0  0  0  0
  142.2477   73.0413  218.0113 H   0  0  0  0  0  0  0  0  0  0  0  0
  144.1241   71.8742  219.3246 H   0  0  0  0  0  0  0  0  0  0  0  0
  141.9750   71.3290  221.0160 H   0  0  0  0  0  0  0  0  0  0  0  0
  144.1185   73.7037  221.3324 H   0  0  0  0  0  0  0  0  0  0  0  0
  143.8753   74.4504  219.7783 H   0  0  0  0  0  0  0  0  0  0  0  0
  141.8069   73.6445  221.8858 H   0  0  0  0  0  0  0  0  0  0  0  0
  142.9808   75.8584  219.1588 H   0  0  0  0  0  0  0  0  0  0  0  0
  142.6316   78.3350  219.2608 H   0  0  0  0  0  0  0  0  0  0  0  0
  140.3155   77.8185  222.8345 H   0  0  0  0  0  0  0  0  0  0  0  0
  140.6427   75.3551  222.7663 H   0  0  0  0  0  0  0  0  0  0  0  0
  139.1298   69.2426  222.9562 H   0  0  0  0  0  0  0  0  0  0  0  0
  139.5046   68.2452  225.2266 H   0  0  0  0  0  0  0  0  0  0  0  0
  140.2480   68.4609  227.5317 H   0  0  0  0  0  0  0  0  0  0  0  0
  141.2087   69.9058  229.3316 H   0  0  0  0  0  0  0  0  0  0  0  0
  141.7886   72.2752  228.8932 H   0  0  0  0  0  0  0  0  0  0  0  0
  141.3981   73.2133  226.6303 H   0  0  0  0  0  0  0  0  0  0  0  0
  1  2  2  0
  2  3  1  0
  3  4  1  0
  4  5  1  0
  5  6  2  0
  5  7  1  0
  7  8  1  0
  8  9  1  0
  9 10  1  0
  9 11  1  0
 11 12  1  0
 12 13  1  0
 13 14  2  0
 14 15  1  0
 15 16  2  0
 16 17  1  0
 16 18  1  0
 18 19  2  0
  2 20  1  0
 20 21  2  0
 21 22  1  0
 22 23  2  0
 23 24  1  0
 24 25  2  0
 25 26  1  0
 26 27  2  0
 27 28  1  0
 28 29  2  0
 12  7  1  0
 19 13  1  0
 29 20  1  0
 28 23  1  0
  3 30  1  0
  4 31  1  0
  4 32  1  0
  8 33  1  0
  8 34  1  0
  9 35  1  6
 10 36  1  0
 11 37  1  0
 11 38  1  0
 12 39  1  1
 14 40  1  0
 15 41  1  0
 18 42  1  0
 19 43  1  0
 21 44  1  0
 22 45  1  0
 24 46  1  0
 25 47  1  0
 26 48  1  0
 27 49  1  0
M  END
>  <smiles>  (38) 
O=C(NCC(=O)N1C[C@H](O)C[C@H]1c1ccc(Cl)cc1)c1ccc2ccccc2n1

>  <score_type>  (38) 
oracle

>  <origin>  (38) 
autodockgpu

>  <m_score__min__energy>  (38) 
-9.0500000000000007

>  <m_primary>  (38) 
energy

>  <rmsd>  (38) 
2.7269706708654184

>  <m_score__min__rmsd>  (38) 
2.7269706708654184

>  <meeko>  (38) 
{"free_energy": -7.4, "intermolecular_energy": -9.19, "internal_energy": -2.61, "cluster_size": 22, "cluster_id": 6, "rank_in_cluster": 5}

>  <energy>  (38) 
-7.35

>  <cluster_rmsd>  (38) 
0.4

>  <cluster>  (38) 
6

$$$$

     RDKit          3D

 49 52  0  0  0  0  0  0  0  0999 V2000
  139.4170   74.5500  222.0610 O   0  0  0  0  0  0  0  0  0  0  0  0
  140.4220   75.3300  221.9390 C   0  0  0  0  0  0  0  0  0  0  0  0
  141.6400   74.8410  221.3580 N   0  0  0  0  0  0  0  0  0  0  0  0
  141.8480   73.5200  220.8990 C   0  0  0  0  0  0  0  0  0  0  0  0
  143.1390   73.1210  220.3730 C   0  0  0  0  0  0  0  0  0  0  0  0
  143.9150   72.5320  221.2200 O   0  0  0  0  0  0  0  0  0  0  0  0
  143.6680   73.2780  219.0640 N   0  0  0  0  0  0  0  0  0  0  0  0
  143.9150   72.2510  218.0420 C   0  0  0  0  0  0  0  0  0  0  0  0
  144.9780   72.9490  217.1440 C   0  0  2  0  0  0  0  0  0  0  0  0
  146.1950   73.0460  217.7990 O   0  0  0  0  0  0  0  0  0  0  0  0
  144.3780   74.3630  217.1200 C   0  0  0  0  0  0  0  0  0  0  0  0
  144.0720   74.5820  218.5590 C   0  0  1  0  0  0  0  0  0  0  0  0
  142.9860   75.5870  218.7150 C   0  0  0  0  0  0  0  0  0  0  0  0
  141.7480   75.3330  218.1700 C   0  0  0  0  0  0  0  0  0  0  0  0
  140.7300   76.2750  218.3150 C   0  0  0  0  0  0  0  0  0  0  0  0
  140.9830   77.4510  219.0060 C   0  0  0  0  0  0  0  0  0  0  0  0
  139.7210   78.6750  219.2160 Cl  0  0  0  0  0  0  0  0  0  0  0  0
  142.2420   77.6640  219.5350 C   0  0  0  0  0  0  0  0  0  0  0  0
  143.2740   76.7560  219.4120 C   0  0  0  0  0  0  0  0  0  0  0  0
  140.3200   76.7300  222.4000 C   0  0  0  0  0  0  0  0  0  0  0  0
  139.0900   77.2560  222.6610 C   0  0  0  0  0  0  0  0  0  0  0  0
  139.0320   78.5810  223.0940 C   0  0  0  0  0  0  0  0  0  0  0  0
  140.1970   79.3350  223.2500 C   0  0  0  0  0  0  0  0  0  0  0  0
  140.1240   80.6540  223.6810 C   0  0  0  0  0  0  0  0  0  0  0  0
  141.3200   81.3650  223.8210 C   0  0  0  0  0  0  0  0  0  0  0  0
  142.5440   80.7920  223.5450 C   0  0  0  0  0  0  0  0  0  0  0  0
  142.5700   79.4780  223.1190 C   0  0  0  0  0  0  0  0  0  0  0  0
  141.4160   78.7420  222.9670 C   0  0  0  0  0  0  0  0  0  0  0  0
  141.4510   77.4730  222.5550 N   0  0  0  0  0  0  0  0  0  0  0  0
  142.4090   75.5770  221.2960 H   0  0  0  0  0  0  0  0  0  0  0  0
  141.6331   72.8535  221.7473 H   0  0  0  0  0  0  0  0  0  0  0  0
  141.1906   73.4561  220.0194 H   0  0  0  0  0  0  0  0  0  0  0  0
  144.3117   71.3276  218.4891 H   0  0  0  0  0  0  0  0  0  0  0  0
  143.0117   71.9336  217.5004 H   0  0  0  0  0  0  0  0  0  0  0  0
  145.1592   72.4452  216.1831 H   0  0  0  0  0  0  0  0  0  0  0  0
  146.3270   73.9540  218.2120 H   0  0  0  0  0  0  0  0  0  0  0  0
  145.1037   75.1008  216.7471 H   0  0  0  0  0  0  0  0  0  0  0  0
  143.5074   74.4687  216.4560 H   0  0  0  0  0  0  0  0  0  0  0  0
  144.9352   74.9778  219.1142 H   0  0  0  0  0  0  0  0  0  0  0  0
  141.5632   74.3955  217.6250 H   0  0  0  0  0  0  0  0  0  0  0  0
  139.7350   76.0872  217.8852 H   0  0  0  0  0  0  0  0  0  0  0  0
  142.4302   78.6011  220.0795 H   0  0  0  0  0  0  0  0  0  0  0  0
  144.2688   76.9460  219.8412 H   0  0  0  0  0  0  0  0  0  0  0  0
  138.1759   76.6573  222.5348 H   0  0  0  0  0  0  0  0  0  0  0  0
  138.0560   79.0376  223.3153 H   0  0  0  0  0  0  0  0  0  0  0  0
  139.1552   81.1244  223.9052 H   0  0  0  0  0  0  0  0  0  0  0  0
  141.2837   82.4106  224.1608 H   0  0  0  0  0  0  0  0  0  0  0  0
  143.4750   81.3662  223.6610 H   0  0  0  0  0  0  0  0  0  0  0  0
  143.5386   79.0070  222.8952 H   0  0  0  0  0  0  0  0  0  0  0  0
  1  2  2  0
  2  3  1  0
  3  4  1  0
  4  5  1  0
  5  6  2  0
  5  7  1  0
  7  8  1  0
  8  9  1  0
  9 10  1  0
  9 11  1  0
 11 12  1  0
 12 13  1  0
 13 14  2  0
 14 15  1  0
 15 16  2  0
 16 17  1  0
 16 18  1  0
 18 19  2  0
  2 20  1  0
 20 21  2  0
 21 22  1  0
 22 23  2  0
 23 24  1  0
 24 25  2  0
 25 26  1  0
 26 27  2  0
 27 28  1  0
 28 29  2  0
 12  7  1  0
 19 13  1  0
 29 20  1  0
 28 23  1  0
  3 30  1  0
  4 31  1  0
  4 32  1  0
  8 33  1  0
  8 34  1  0
  9 35  1  6
 10 36  1  0
 11 37  1  0
 11 38  1  0
 12 39  1  1
 14 40  1  0
 15 41  1  0
 18 42  1  0
 19 43  1  0
 21 44  1  0
 22 45  1  0
 24 46  1  0
 25 47  1  0
 26 48  1  0
 27 49  1  0
M  END
>  <smiles>  (39) 
O=C(NCC(=O)N1C[C@H](O)C[C@H]1c1ccc(Cl)cc1)c1ccc2ccccc2n1

>  <score_type>  (39) 
oracle

>  <origin>  (39) 
autodockgpu

>  <m_score__min__energy>  (39) 
-9.0500000000000007

>  <m_primary>  (39) 
energy

>  <rmsd>  (39) 
7.470815838131654

>  <m_score__min__rmsd>  (39) 
7.470815838131654

>  <meeko>  (39) 
{"free_energy": -7.32, "intermolecular_energy": -9.11, "internal_energy": -2.72, "cluster_size": 3, "cluster_id": 7, "rank_in_cluster": 1}

>  <energy>  (39) 
-7.34

>  <cluster_rmsd>  (39) 
0.43

>  <cluster>  (39) 
6

$$$$

     RDKit          3D

 49 52  0  0  0  0  0  0  0  0999 V2000
  139.6900   70.9500  221.2430 O   0  0  0  0  0  0  0  0  0  0  0  0
  139.5030   71.6660  222.2850 C   0  0  0  0  0  0  0  0  0  0  0  0
  139.0170   73.0100  222.1510 N   0  0  0  0  0  0  0  0  0  0  0  0
  138.7260   73.6500  220.9240 C   0  0  0  0  0  0  0  0  0  0  0  0
  139.6770   73.6080  219.8310 C   0  0  0  0  0  0  0  0  0  0  0  0
  139.1810   73.8520  218.6660 O   0  0  0  0  0  0  0  0  0  0  0  0
  141.0730   73.3440  219.8590 N   0  0  0  0  0  0  0  0  0  0  0  0
  141.8640   72.4790  218.9720 C   0  0  0  0  0  0  0  0  0  0  0  0
  143.1140   72.1830  219.8510 C   0  0  2  0  0  0  0  0  0  0  0  0
  142.7920   71.3470  220.9070 O   0  0  0  0  0  0  0  0  0  0  0  0
  143.3220   73.5840  220.4480 C   0  0  0  0  0  0  0  0  0  0  0  0
  141.9390   73.9380  220.8670 C   0  0  1  0  0  0  0  0  0  0  0  0
  141.7740   75.4160  220.9240 C   0  0  0  0  0  0  0  0  0  0  0  0
  142.3530   76.1990  219.9520 C   0  0  0  0  0  0  0  0  0  0  0  0
  142.1990   77.5830  220.0050 C   0  0  0  0  0  0  0  0  0  0  0  0
  141.4640   78.1480  221.0380 C   0  0  0  0  0  0  0  0  0  0  0  0
  141.2410   79.9010  221.1460 Cl  0  0  0  0  0  0  0  0  0  0  0  0
  140.9010   77.3220  221.9930 C   0  0  0  0  0  0  0  0  0  0  0  0
  141.0320   75.9490  221.9740 C   0  0  0  0  0  0  0  0  0  0  0  0
  139.7900   71.1020  223.6200 C   0  0  0  0  0  0  0  0  0  0  0  0
  139.5470   69.7800  223.8500 C   0  0  0  0  0  0  0  0  0  0  0  0
  139.8290   69.2830  225.1220 C   0  0  0  0  0  0  0  0  0  0  0  0
  140.3410   70.1150  226.1200 C   0  0  0  0  0  0  0  0  0  0  0  0
  140.6170   69.6060  227.3830 C   0  0  0  0  0  0  0  0  0  0  0  0
  141.1280   70.4820  228.3460 C   0  0  0  0  0  0  0  0  0  0  0  0
  141.3580   71.8140  228.0690 C   0  0  0  0  0  0  0  0  0  0  0  0
  141.0690   72.2780  226.8000 C   0  0  0  0  0  0  0  0  0  0  0  0
  140.5640   71.4490  225.8220 C   0  0  0  0  0  0  0  0  0  0  0  0
  140.2890   71.9070  224.6000 N   0  0  0  0  0  0  0  0  0  0  0  0
  138.8880   73.5120  223.0820 H   0  0  0  0  0  0  0  0  0  0  0  0
  137.7936   73.2033  220.5484 H   0  0  0  0  0  0  0  0  0  0  0  0
  138.7089   74.7153  221.1975 H   0  0  0  0  0  0  0  0  0  0  0  0
  141.3206   71.5553  218.7239 H   0  0  0  0  0  0  0  0  0  0  0  0
  142.1004   72.9346  217.9991 H   0  0  0  0  0  0  0  0  0  0  0  0
  143.9503   71.7204  219.3064 H   0  0  0  0  0  0  0  0  0  0  0  0
  141.7960   71.2340  221.0060 H   0  0  0  0  0  0  0  0  0  0  0  0
  144.0074   73.5563  221.3079 H   0  0  0  0  0  0  0  0  0  0  0  0
  143.7774   74.3042  219.7523 H   0  0  0  0  0  0  0  0  0  0  0  0
  141.6984   73.5647  221.8734 H   0  0  0  0  0  0  0  0  0  0  0  0
  142.9327   75.7363  219.1397 H   0  0  0  0  0  0  0  0  0  0  0  0
  142.6559   78.2220  219.2350 H   0  0  0  0  0  0  0  0  0  0  0  0
  140.3209   77.7816  222.8068 H   0  0  0  0  0  0  0  0  0  0  0  0
  140.5757   75.3112  222.7453 H   0  0  0  0  0  0  0  0  0  0  0  0
  139.1431   69.1291  223.0606 H   0  0  0  0  0  0  0  0  0  0  0  0
  139.6456   68.2210  225.3423 H   0  0  0  0  0  0  0  0  0  0  0  0
  140.4390   68.5463  227.6183 H   0  0  0  0  0  0  0  0  0  0  0  0
  141.3528   70.0985  229.3522 H   0  0  0  0  0  0  0  0  0  0  0  0
  141.7610   72.4890  228.8384 H   0  0  0  0  0  0  0  0  0  0  0  0
  141.2468   73.3376  226.5641 H   0  0  0  0  0  0  0  0  0  0  0  0
  1  2  2  0
  2  3  1  0
  3  4  1  0
  4  5  1  0
  5  6  2  0
  5  7  1  0
  7  8  1  0
  8  9  1  0
  9 10  1  0
  9 11  1  0
 11 12  1  0
 12 13  1  0
 13 14  2  0
 14 15  1  0
 15 16  2  0
 16 17  1  0
 16 18  1  0
 18 19  2  0
  2 20  1  0
 20 21  2  0
 21 22  1  0
 22 23  2  0
 23 24  1  0
 24 25  2  0
 25 26  1  0
 26 27  2  0
 27 28  1  0
 28 29  2  0
 12  7  1  0
 19 13  1  0
 29 20  1  0
 28 23  1  0
  3 30  1  0
  4 31  1  0
  4 32  1  0
  8 33  1  0
  8 34  1  0
  9 35  1  6
 10 36  1  0
 11 37  1  0
 11 38  1  0
 12 39  1  1
 14 40  1  0
 15 41  1  0
 18 42  1  0
 19 43  1  0
 21 44  1  0
 22 45  1  0
 24 46  1  0
 25 47  1  0
 26 48  1  0
 27 49  1  0
M  END
>  <smiles>  (40) 
O=C(NCC(=O)N1C[C@H](O)C[C@H]1c1ccc(Cl)cc1)c1ccc2ccccc2n1

>  <score_type>  (40) 
oracle

>  <origin>  (40) 
autodockgpu

>  <m_score__min__energy>  (40) 
-9.0500000000000007

>  <m_primary>  (40) 
energy

>  <rmsd>  (40) 
2.734354190964249

>  <m_score__min__rmsd>  (40) 
2.734354190964249

>  <meeko>  (40) 
{"free_energy": -7.3, "intermolecular_energy": -9.09, "internal_energy": -2.71, "cluster_size": 22, "cluster_id": 6, "rank_in_cluster": 18}

>  <energy>  (40) 
-7.33

>  <cluster_rmsd>  (40) 
0.47

>  <cluster>  (40) 
6

$$$$

     RDKit          3D

 49 52  0  0  0  0  0  0  0  0999 V2000
  139.8300   70.8660  221.2530 O   0  0  0  0  0  0  0  0  0  0  0  0
  139.6030   71.5940  222.2780 C   0  0  0  0  0  0  0  0  0  0  0  0
  138.9950   72.8850  222.1190 N   0  0  0  0  0  0  0  0  0  0  0  0
  138.6190   73.4590  220.8830 C   0  0  0  0  0  0  0  0  0  0  0  0
  139.6060   73.6700  219.8410 C   0  0  0  0  0  0  0  0  0  0  0  0
  139.1500   74.2030  218.7590 O   0  0  0  0  0  0  0  0  0  0  0  0
  140.9960   73.3810  219.8450 N   0  0  0  0  0  0  0  0  0  0  0  0
  141.7590   72.5160  218.9320 C   0  0  0  0  0  0  0  0  0  0  0  0
  143.0160   72.1840  219.7880 C   0  0  2  0  0  0  0  0  0  0  0  0
  142.6940   71.3370  220.8360 O   0  0  0  0  0  0  0  0  0  0  0  0
  143.2580   73.5710  220.4030 C   0  0  0  0  0  0  0  0  0  0  0  0
  141.8880   73.9440  220.8490 C   0  0  1  0  0  0  0  0  0  0  0  0
  141.7500   75.4230  220.9310 C   0  0  0  0  0  0  0  0  0  0  0  0
  141.0400   75.9790  221.9720 C   0  0  0  0  0  0  0  0  0  0  0  0
  140.9110   77.3640  222.0490 C   0  0  0  0  0  0  0  0  0  0  0  0
  141.4990   78.1590  221.0760 C   0  0  0  0  0  0  0  0  0  0  0  0
  141.3610   79.9230  221.1340 Cl  0  0  0  0  0  0  0  0  0  0  0  0
  142.2020   77.5570  220.0490 C   0  0  0  0  0  0  0  0  0  0  0  0
  142.3520   76.1900  219.9390 C   0  0  0  0  0  0  0  0  0  0  0  0
  139.9700   71.0990  223.6210 C   0  0  0  0  0  0  0  0  0  0  0  0
  140.6990   71.9000  224.4490 C   0  0  0  0  0  0  0  0  0  0  0  0
  141.0270   71.3990  225.7090 C   0  0  0  0  0  0  0  0  0  0  0  0
  140.6220   70.1210  226.1000 C   0  0  0  0  0  0  0  0  0  0  0  0
  140.9570   69.6360  227.3580 C   0  0  0  0  0  0  0  0  0  0  0  0
  140.5270   68.3500  227.7000 C   0  0  0  0  0  0  0  0  0  0  0  0
  139.7920   67.5730  226.8290 C   0  0  0  0  0  0  0  0  0  0  0  0
  139.4810   68.0960  225.5890 C   0  0  0  0  0  0  0  0  0  0  0  0
  139.8850   69.3570  225.2110 C   0  0  0  0  0  0  0  0  0  0  0  0
  139.5800   69.8530  224.0110 N   0  0  0  0  0  0  0  0  0  0  0  0
  138.8430   73.4020  223.0390 H   0  0  0  0  0  0  0  0  0  0  0  0
  137.8430   72.8071  220.4553 H   0  0  0  0  0  0  0  0  0  0  0  0
  138.3299   74.4829  221.1623 H   0  0  0  0  0  0  0  0  0  0  0  0
  141.1957   71.6062  218.6773 H   0  0  0  0  0  0  0  0  0  0  0  0
  141.9894   72.9829  217.9630 H   0  0  0  0  0  0  0  0  0  0  0  0
  143.8359   71.7151  219.2242 H   0  0  0  0  0  0  0  0  0  0  0  0
  141.7030   71.1670  220.8900 H   0  0  0  0  0  0  0  0  0  0  0  0
  143.9557   73.5175  221.2517 H   0  0  0  0  0  0  0  0  0  0  0  0
  143.7155   74.2935  219.7112 H   0  0  0  0  0  0  0  0  0  0  0  0
  141.6565   73.5601  221.8535 H   0  0  0  0  0  0  0  0  0  0  0  0
  140.5790   75.3353  222.7357 H   0  0  0  0  0  0  0  0  0  0  0  0
  140.3475   77.8234  222.8745 H   0  0  0  0  0  0  0  0  0  0  0  0
  142.6635   78.1982  219.2835 H   0  0  0  0  0  0  0  0  0  0  0  0
  142.9161   75.7322  219.1130 H   0  0  0  0  0  0  0  0  0  0  0  0
  141.0171   72.9051  224.1349 H   0  0  0  0  0  0  0  0  0  0  0  0
  141.6125   72.0190  226.4039 H   0  0  0  0  0  0  0  0  0  0  0  0
  141.5422   70.2446  228.0631 H   0  0  0  0  0  0  0  0  0  0  0  0
  140.7820   67.9469  228.6912 H   0  0  0  0  0  0  0  0  0  0  0  0
  139.4622   66.5632  227.1144 H   0  0  0  0  0  0  0  0  0  0  0  0
  138.8945   67.4885  224.8841 H   0  0  0  0  0  0  0  0  0  0  0  0
  1  2  2  0
  2  3  1  0
  3  4  1  0
  4  5  1  0
  5  6  2  0
  5  7  1  0
  7  8  1  0
  8  9  1  0
  9 10  1  0
  9 11  1  0
 11 12  1  0
 12 13  1  0
 13 14  2  0
 14 15  1  0
 15 16  2  0
 16 17  1  0
 16 18  1  0
 18 19  2  0
  2 20  1  0
 20 21  2  0
 21 22  1  0
 22 23  2  0
 23 24  1  0
 24 25  2  0
 25 26  1  0
 26 27  2  0
 27 28  1  0
 28 29  2  0
 12  7  1  0
 19 13  1  0
 29 20  1  0
 28 23  1  0
  3 30  1  0
  4 31  1  0
  4 32  1  0
  8 33  1  0
  8 34  1  0
  9 35  1  6
 10 36  1  0
 11 37  1  0
 11 38  1  0
 12 39  1  1
 14 40  1  0
 15 41  1  0
 18 42  1  0
 19 43  1  0
 21 44  1  0
 22 45  1  0
 24 46  1  0
 25 47  1  0
 26 48  1  0
 27 49  1  0
M  END
>  <smiles>  (41) 
O=C(NCC(=O)N1C[C@H](O)C[C@H]1c1ccc(Cl)cc1)c1ccc2ccccc2n1

>  <score_type>  (41) 
oracle

>  <origin>  (41) 
autodockgpu

>  <m_score__min__energy>  (41) 
-9.0500000000000007

>  <m_primary>  (41) 
energy

>  <rmsd>  (41) 
3.4120576499366035

>  <m_score__min__rmsd>  (41) 
3.4120576499366035

>  <meeko>  (41) 
{"free_energy": -7.14, "intermolecular_energy": -8.93, "internal_energy": -2.57, "cluster_size": 22, "cluster_id": 6, "rank_in_cluster": 22}

>  <energy>  (41) 
-7.32

>  <cluster_rmsd>  (41) 
0.43

>  <cluster>  (41) 
6

$$$$

     RDKit          3D

 49 52  0  0  0  0  0  0  0  0999 V2000
  140.6420   71.4460  221.6310 O   0  0  0  0  0  0  0  0  0  0  0  0
  139.8490   71.7310  222.5910 C   0  0  0  0  0  0  0  0  0  0  0  0
  138.7450   72.6220  222.3680 N   0  0  0  0  0  0  0  0  0  0  0  0
  138.4450   73.2510  221.1370 C   0  0  0  0  0  0  0  0  0  0  0  0
  139.3080   74.2930  220.6170 C   0  0  0  0  0  0  0  0  0  0  0  0
  138.7530   75.4520  220.5010 O   0  0  0  0  0  0  0  0  0  0  0  0
  140.6710   74.2240  220.2250 N   0  0  0  0  0  0  0  0  0  0  0  0
  141.2590   73.5570  219.0540 C   0  0  0  0  0  0  0  0  0  0  0  0
  142.7350   73.3610  219.5100 C   0  0  2  0  0  0  0  0  0  0  0  0
  142.8260   72.4010  220.5030 O   0  0  0  0  0  0  0  0  0  0  0  0
  142.9550   74.7210  220.1910 C   0  0  0  0  0  0  0  0  0  0  0  0
  141.7240   74.8430  221.0180 C   0  0  1  0  0  0  0  0  0  0  0  0
  141.4240   76.2730  221.2990 C   0  0  0  0  0  0  0  0  0  0  0  0
  141.8140   77.2360  220.3950 C   0  0  0  0  0  0  0  0  0  0  0  0
  141.5330   78.5750  220.6580 C   0  0  0  0  0  0  0  0  0  0  0  0
  140.8650   78.9160  221.8250 C   0  0  0  0  0  0  0  0  0  0  0  0
  140.4870   80.6040  222.2000 Cl  0  0  0  0  0  0  0  0  0  0  0  0
  140.4930   77.9160  222.7040 C   0  0  0  0  0  0  0  0  0  0  0  0
  140.7530   76.5790  222.4790 C   0  0  0  0  0  0  0  0  0  0  0  0
  140.0780   71.1410  223.9270 C   0  0  0  0  0  0  0  0  0  0  0  0
  140.7370   71.8690  224.8720 C   0  0  0  0  0  0  0  0  0  0  0  0
  140.9350   71.2800  226.1200 C   0  0  0  0  0  0  0  0  0  0  0  0
  140.4730   69.9890  226.3840 C   0  0  0  0  0  0  0  0  0  0  0  0
  140.6770   69.4140  227.6330 C   0  0  0  0  0  0  0  0  0  0  0  0
  140.1950   68.1190  227.8450 C   0  0  0  0  0  0  0  0  0  0  0  0
  139.5330   67.4180  226.8580 C   0  0  0  0  0  0  0  0  0  0  0  0
  139.3520   68.0270  225.6320 C   0  0  0  0  0  0  0  0  0  0  0  0
  139.8110   69.3010  225.3800 C   0  0  0  0  0  0  0  0  0  0  0  0
  139.6310   69.8820  224.1930 N   0  0  0  0  0  0  0  0  0  0  0  0
  138.1440   72.7820  223.2330 H   0  0  0  0  0  0  0  0  0  0  0  0
  138.4145   72.4573  220.3760 H   0  0  0  0  0  0  0  0  0  0  0  0
  137.5095   73.7877  221.3533 H   0  0  0  0  0  0  0  0  0  0  0  0
  140.7696   72.5923  218.8543 H   0  0  0  0  0  0  0  0  0  0  0  0
  141.1527   74.1238  218.1173 H   0  0  0  0  0  0  0  0  0  0  0  0
  143.4221   73.0660  218.7032 H   0  0  0  0  0  0  0  0  0  0  0  0
  141.9290   72.2040  220.9180 H   0  0  0  0  0  0  0  0  0  0  0  0
  143.8599   74.7153  220.8163 H   0  0  0  0  0  0  0  0  0  0  0  0
  143.1073   75.5540  219.4889 H   0  0  0  0  0  0  0  0  0  0  0  0
  141.8288   74.3548  221.9981 H   0  0  0  0  0  0  0  0  0  0  0  0
  142.3426   76.9505  219.4736 H   0  0  0  0  0  0  0  0  0  0  0  0
  141.8385   79.3557  219.9458 H   0  0  0  0  0  0  0  0  0  0  0  0
  139.9648   78.1990  223.6264 H   0  0  0  0  0  0  0  0  0  0  0  0
  140.4470   75.7995  223.1923 H   0  0  0  0  0  0  0  0  0  0  0  0
  141.0998   72.8851  224.6577 H   0  0  0  0  0  0  0  0  0  0  0  0
  141.4620   71.8395  226.9069 H   0  0  0  0  0  0  0  0  0  0  0  0
  141.2016   69.9612  228.4301 H   0  0  0  0  0  0  0  0  0  0  0  0
  140.3478   67.6456  228.8261 H   0  0  0  0  0  0  0  0  0  0  0  0
  139.1591   66.4002  227.0430 H   0  0  0  0  0  0  0  0  0  0  0  0
  138.8271   67.4799  224.8350 H   0  0  0  0  0  0  0  0  0  0  0  0
  1  2  2  0
  2  3  1  0
  3  4  1  0
  4  5  1  0
  5  6  2  0
  5  7  1  0
  7  8  1  0
  8  9  1  0
  9 10  1  0
  9 11  1  0
 11 12  1  0
 12 13  1  0
 13 14  2  0
 14 15  1  0
 15 16  2  0
 16 17  1  0
 16 18  1  0
 18 19  2  0
  2 20  1  0
 20 21  2  0
 21 22  1  0
 22 23  2  0
 23 24  1  0
 24 25  2  0
 25 26  1  0
 26 27  2  0
 27 28  1  0
 28 29  2  0
 12  7  1  0
 19 13  1  0
 29 20  1  0
 28 23  1  0
  3 30  1  0
  4 31  1  0
  4 32  1  0
  8 33  1  0
  8 34  1  0
  9 35  1  6
 10 36  1  0
 11 37  1  0
 11 38  1  0
 12 39  1  1
 14 40  1  0
 15 41  1  0
 18 42  1  0
 19 43  1  0
 21 44  1  0
 22 45  1  0
 24 46  1  0
 25 47  1  0
 26 48  1  0
 27 49  1  0
M  END
>  <smiles>  (42) 
O=C(NCC(=O)N1C[C@H](O)C[C@H]1c1ccc(Cl)cc1)c1ccc2ccccc2n1

>  <score_type>  (42) 
oracle

>  <origin>  (42) 
autodockgpu

>  <m_score__min__energy>  (42) 
-9.0500000000000007

>  <m_primary>  (42) 
energy

>  <rmsd>  (42) 
3.0350240102481556

>  <m_score__min__rmsd>  (42) 
3.0350240102481556

>  <meeko>  (42) 
{"free_energy": -7.36, "intermolecular_energy": -9.15, "internal_energy": -2.31, "cluster_size": 11, "cluster_id": 1, "rank_in_cluster": 11}

>  <energy>  (42) 
-7.3

>  <cluster_rmsd>  (42) 
0.46

>  <cluster>  (42) 
6

$$$$

     RDKit          3D

 49 52  0  0  0  0  0  0  0  0999 V2000
  139.9450   71.2270  221.2760 O   0  0  0  0  0  0  0  0  0  0  0  0
  139.3980   71.7370  222.3130 C   0  0  0  0  0  0  0  0  0  0  0  0
  138.5390   72.8790  222.1790 N   0  0  0  0  0  0  0  0  0  0  0  0
  138.2370   73.5310  220.9610 C   0  0  0  0  0  0  0  0  0  0  0  0
  139.2730   74.2350  220.2300 C   0  0  0  0  0  0  0  0  0  0  0  0
  138.8650   75.2560  219.5540 O   0  0  0  0  0  0  0  0  0  0  0  0
  140.6660   73.9680  220.1570 N   0  0  0  0  0  0  0  0  0  0  0  0
  141.3940   73.1420  219.1830 C   0  0  0  0  0  0  0  0  0  0  0  0
  142.6970   72.8060  219.9670 C   0  0  2  0  0  0  0  0  0  0  0  0
  142.4390   71.9240  221.0030 O   0  0  0  0  0  0  0  0  0  0  0  0
  142.9490   74.1780  220.6090 C   0  0  0  0  0  0  0  0  0  0  0  0
  141.5980   74.5160  221.1320 C   0  0  1  0  0  0  0  0  0  0  0  0
  141.4430   75.9900  221.2650 C   0  0  0  0  0  0  0  0  0  0  0  0
  141.9450   76.8130  220.2830 C   0  0  0  0  0  0  0  0  0  0  0  0
  141.8000   78.1940  220.4070 C   0  0  0  0  0  0  0  0  0  0  0  0
  141.1530   78.7150  221.5180 C   0  0  0  0  0  0  0  0  0  0  0  0
  140.9460   80.4610  221.7180 Cl  0  0  0  0  0  0  0  0  0  0  0  0
  140.6660   77.8500  222.4800 C   0  0  0  0  0  0  0  0  0  0  0  0
  140.7900   76.4780  222.3920 C   0  0  0  0  0  0  0  0  0  0  0  0
  139.6560   71.1440  223.6410 C   0  0  0  0  0  0  0  0  0  0  0  0
  139.2920   69.8510  223.8740 C   0  0  0  0  0  0  0  0  0  0  0  0
  139.5510   69.3250  225.1400 C   0  0  0  0  0  0  0  0  0  0  0  0
  140.1600   70.1010  226.1280 C   0  0  0  0  0  0  0  0  0  0  0  0
  140.4120   69.5640  227.3840 C   0  0  0  0  0  0  0  0  0  0  0  0
  141.0240   70.3840  228.3370 C   0  0  0  0  0  0  0  0  0  0  0  0
  141.3760   71.6880  228.0570 C   0  0  0  0  0  0  0  0  0  0  0  0
  141.1070   72.1820  226.7950 C   0  0  0  0  0  0  0  0  0  0  0  0
  140.5050   71.4090  225.8270 C   0  0  0  0  0  0  0  0  0  0  0  0
  140.2500   71.8940  224.6110 N   0  0  0  0  0  0  0  0  0  0  0  0
  138.1290   73.2150  223.1040 H   0  0  0  0  0  0  0  0  0  0  0  0
  137.8378   72.7630  220.2822 H   0  0  0  0  0  0  0  0  0  0  0  0
  137.5592   74.3393  221.2727 H   0  0  0  0  0  0  0  0  0  0  0  0
  140.8318   72.2310  218.9300 H   0  0  0  0  0  0  0  0  0  0  0  0
  141.5689   73.6392  218.2175 H   0  0  0  0  0  0  0  0  0  0  0  0
  143.4955   72.3669  219.3508 H   0  0  0  0  0  0  0  0  0  0  0  0
  141.5240   71.5110  220.9260 H   0  0  0  0  0  0  0  0  0  0  0  0
  143.6886   74.1117  221.4205 H   0  0  0  0  0  0  0  0  0  0  0  0
  143.3613   74.9270  219.9169 H   0  0  0  0  0  0  0  0  0  0  0  0
  141.4217   74.0996  222.1348 H   0  0  0  0  0  0  0  0  0  0  0  0
  142.4561   76.3851  219.4080 H   0  0  0  0  0  0  0  0  0  0  0  0
  142.1954   78.8650  219.6302 H   0  0  0  0  0  0  0  0  0  0  0  0
  140.1556   78.2750  223.3569 H   0  0  0  0  0  0  0  0  0  0  0  0
  140.3945   75.8081  223.1697 H   0  0  0  0  0  0  0  0  0  0  0  0
  138.8115   69.2444  223.0922 H   0  0  0  0  0  0  0  0  0  0  0  0
  139.2715   68.2847  225.3628 H   0  0  0  0  0  0  0  0  0  0  0  0
  140.1385   68.5254  227.6217 H   0  0  0  0  0  0  0  0  0  0  0  0
  141.2306   69.9778  229.3382 H   0  0  0  0  0  0  0  0  0  0  0  0
  141.8584   72.3182  228.8187 H   0  0  0  0  0  0  0  0  0  0  0  0
  141.3809   73.2204  226.5570 H   0  0  0  0  0  0  0  0  0  0  0  0
  1  2  2  0
  2  3  1  0
  3  4  1  0
  4  5  1  0
  5  6  2  0
  5  7  1  0
  7  8  1  0
  8  9  1  0
  9 10  1  0
  9 11  1  0
 11 12  1  0
 12 13  1  0
 13 14  2  0
 14 15  1  0
 15 16  2  0
 16 17  1  0
 16 18  1  0
 18 19  2  0
  2 20  1  0
 20 21  2  0
 21 22  1  0
 22 23  2  0
 23 24  1  0
 24 25  2  0
 25 26  1  0
 26 27  2  0
 27 28  1  0
 28 29  2  0
 12  7  1  0
 19 13  1  0
 29 20  1  0
 28 23  1  0
  3 30  1  0
  4 31  1  0
  4 32  1  0
  8 33  1  0
  8 34  1  0
  9 35  1  6
 10 36  1  0
 11 37  1  0
 11 38  1  0
 12 39  1  1
 14 40  1  0
 15 41  1  0
 18 42  1  0
 19 43  1  0
 21 44  1  0
 22 45  1  0
 24 46  1  0
 25 47  1  0
 26 48  1  0
 27 49  1  0
M  END
>  <smiles>  (43) 
O=C(NCC(=O)N1C[C@H](O)C[C@H]1c1ccc(Cl)cc1)c1ccc2ccccc2n1

>  <score_type>  (43) 
oracle

>  <origin>  (43) 
autodockgpu

>  <m_score__min__energy>  (43) 
-9.0500000000000007

>  <m_primary>  (43) 
energy

>  <rmsd>  (43) 
2.369479029453367

>  <m_score__min__rmsd>  (43) 
2.369479029453367

>  <meeko>  (43) 
{"free_energy": -7.38, "intermolecular_energy": -9.17, "internal_energy": -2.57, "cluster_size": 22, "cluster_id": 6, "rank_in_cluster": 9}

>  <energy>  (43) 
-7.29

>  <cluster_rmsd>  (43) 
0.58

>  <cluster>  (43) 
6

$$$$

     RDKit          3D

 49 52  0  0  0  0  0  0  0  0999 V2000
  139.0660   74.2090  220.9740 O   0  0  0  0  0  0  0  0  0  0  0  0
  139.9940   73.6560  221.6560 C   0  0  0  0  0  0  0  0  0  0  0  0
  141.3560   74.0780  221.4860 N   0  0  0  0  0  0  0  0  0  0  0  0
  141.7890   75.0820  220.5890 C   0  0  0  0  0  0  0  0  0  0  0  0
  143.0480   74.9420  219.8840 C   0  0  0  0  0  0  0  0  0  0  0  0
  143.3050   75.8790  219.0350 O   0  0  0  0  0  0  0  0  0  0  0  0
  144.0370   73.9290  219.9970 N   0  0  0  0  0  0  0  0  0  0  0  0
  145.2350   73.9040  220.8490 C   0  0  0  0  0  0  0  0  0  0  0  0
  146.1310   72.8720  220.1030 C   0  0  2  0  0  0  0  0  0  0  0  0
  146.6000   73.3930  218.9080 O   0  0  0  0  0  0  0  0  0  0  0  0
  145.0530   71.8400  219.7390 C   0  0  0  0  0  0  0  0  0  0  0  0
  143.9740   72.7120  219.2000 C   0  0  1  0  0  0  0  0  0  0  0  0
  142.6510   72.0450  219.3290 C   0  0  0  0  0  0  0  0  0  0  0  0
  141.6700   72.3030  218.3980 C   0  0  0  0  0  0  0  0  0  0  0  0
  140.4300   71.6790  218.5180 C   0  0  0  0  0  0  0  0  0  0  0  0
  140.2050   70.8070  219.5740 C   0  0  0  0  0  0  0  0  0  0  0  0
  138.6460   69.9910  219.7660 Cl  0  0  0  0  0  0  0  0  0  0  0  0
  141.2190   70.5780  220.4850 C   0  0  0  0  0  0  0  0  0  0  0  0
  142.4590   71.1770  220.3990 C   0  0  0  0  0  0  0  0  0  0  0  0
  139.6560   72.5830  222.6140 C   0  0  0  0  0  0  0  0  0  0  0  0
  138.4210   72.0090  222.5600 C   0  0  0  0  0  0  0  0  0  0  0  0
  138.1370   70.9990  223.4800 C   0  0  0  0  0  0  0  0  0  0  0  0
  139.0880   70.5980  224.4200 C   0  0  0  0  0  0  0  0  0  0  0  0
  138.7910   69.5910  225.3310 C   0  0  0  0  0  0  0  0  0  0  0  0
  139.7790   69.2270  226.2510 C   0  0  0  0  0  0  0  0  0  0  0  0
  141.0160   69.8370  226.2690 C   0  0  0  0  0  0  0  0  0  0  0  0
  141.2690   70.8330  225.3460 C   0  0  0  0  0  0  0  0  0  0  0  0
  140.3250   71.2220  224.4220 C   0  0  0  0  0  0  0  0  0  0  0  0
  140.5780   72.1850  223.5350 N   0  0  0  0  0  0  0  0  0  0  0  0
  142.0450   73.5580  222.1100 H   0  0  0  0  0  0  0  0  0  0  0  0
  141.0066   75.1787  219.8218 H   0  0  0  0  0  0  0  0  0  0  0  0
  141.9678   75.9442  221.2483 H   0  0  0  0  0  0  0  0  0  0  0  0
  145.7151   74.8926  220.8950 H   0  0  0  0  0  0  0  0  0  0  0  0
  145.0316   73.6430  221.8981 H   0  0  0  0  0  0  0  0  0  0  0  0
  147.0034   72.5309  220.6796 H   0  0  0  0  0  0  0  0  0  0  0  0
  146.8810   74.3550  219.0040 H   0  0  0  0  0  0  0  0  0  0  0  0
  145.4150   71.1326  218.9784 H   0  0  0  0  0  0  0  0  0  0  0  0
  144.7376   71.2063  220.5810 H   0  0  0  0  0  0  0  0  0  0  0  0
  144.1045   72.9255  218.1288 H   0  0  0  0  0  0  0  0  0  0  0  0
  141.8636   72.9962  217.5661 H   0  0  0  0  0  0  0  0  0  0  0  0
  139.6363   71.8758  217.7822 H   0  0  0  0  0  0  0  0  0  0  0  0
  141.0284   69.8854  221.3180 H   0  0  0  0  0  0  0  0  0  0  0  0
  143.2517   70.9792  221.1356 H   0  0  0  0  0  0  0  0  0  0  0  0
  137.6752   72.3303  221.8180 H   0  0  0  0  0  0  0  0  0  0  0  0
  137.1506   70.5123  223.4643 H   0  0  0  0  0  0  0  0  0  0  0  0
  137.8088   69.0957  225.3282 H   0  0  0  0  0  0  0  0  0  0  0  0
  139.5639   68.4323  226.9805 H   0  0  0  0  0  0  0  0  0  0  0  0
  141.7817   69.5378  226.9999 H   0  0  0  0  0  0  0  0  0  0  0  0
  142.2509   71.3288  225.3491 H   0  0  0  0  0  0  0  0  0  0  0  0
  1  2  2  0
  2  3  1  0
  3  4  1  0
  4  5  1  0
  5  6  2  0
  5  7  1  0
  7  8  1  0
  8  9  1  0
  9 10  1  0
  9 11  1  0
 11 12  1  0
 12 13  1  0
 13 14  2  0
 14 15  1  0
 15 16  2  0
 16 17  1  0
 16 18  1  0
 18 19  2  0
  2 20  1  0
 20 21  2  0
 21 22  1  0
 22 23  2  0
 23 24  1  0
 24 25  2  0
 25 26  1  0
 26 27  2  0
 27 28  1  0
 28 29  2  0
 12  7  1  0
 19 13  1  0
 29 20  1  0
 28 23  1  0
  3 30  1  0
  4 31  1  0
  4 32  1  0
  8 33  1  0
  8 34  1  0
  9 35  1  1
 10 36  1  0
 11 37  1  0
 11 38  1  0
 12 39  1  6
 14 40  1  0
 15 41  1  0
 18 42  1  0
 19 43  1  0
 21 44  1  0
 22 45  1  0
 24 46  1  0
 25 47  1  0
 26 48  1  0
 27 49  1  0
M  END
>  <smiles>  (44) 
O=C(NCC(=O)N1C[C@H](O)C[C@H]1c1ccc(Cl)cc1)c1ccc2ccccc2n1

>  <score_type>  (44) 
oracle

>  <origin>  (44) 
autodockgpu

>  <m_score__min__energy>  (44) 
-9.0500000000000007

>  <m_primary>  (44) 
energy

>  <rmsd>  (44) 
4.582865681818455

>  <m_score__min__rmsd>  (44) 
4.582865681818455

>  <meeko>  (44) 
{"free_energy": -6.29, "intermolecular_energy": -8.08, "internal_energy": -2.87, "cluster_size": 1, "cluster_id": 8, "rank_in_cluster": 1}

>  <energy>  (44) 
-7.24

>  <cluster_rmsd>  (44) 
0.49

>  <cluster>  (44) 
6

$$$$

     RDKit          3D

 49 52  0  0  0  0  0  0  0  0999 V2000
  139.9690   71.1070  221.1960 O   0  0  0  0  0  0  0  0  0  0  0  0
  139.6200   71.7410  222.2490 C   0  0  0  0  0  0  0  0  0  0  0  0
  139.0070   73.0340  222.1360 N   0  0  0  0  0  0  0  0  0  0  0  0
  138.7540   73.7090  220.9190 C   0  0  0  0  0  0  0  0  0  0  0  0
  139.7090   73.6410  219.8300 C   0  0  0  0  0  0  0  0  0  0  0  0
  139.2140   73.8480  218.6560 O   0  0  0  0  0  0  0  0  0  0  0  0
  141.1060   73.3860  219.8700 N   0  0  0  0  0  0  0  0  0  0  0  0
  141.9110   72.5320  218.9840 C   0  0  0  0  0  0  0  0  0  0  0  0
  143.1550   72.2400  219.8740 C   0  0  2  0  0  0  0  0  0  0  0  0
  142.8290   71.3940  220.9220 O   0  0  0  0  0  0  0  0  0  0  0  0
  143.3470   73.6380  220.4800 C   0  0  0  0  0  0  0  0  0  0  0  0
  141.9580   73.9800  220.8890 C   0  0  1  0  0  0  0  0  0  0  0  0
  141.7820   75.4560  220.9540 C   0  0  0  0  0  0  0  0  0  0  0  0
  141.0530   76.0060  221.9840 C   0  0  0  0  0  0  0  0  0  0  0  0
  140.8870   77.3880  222.0440 C   0  0  0  0  0  0  0  0  0  0  0  0
  141.4610   78.1870  221.0660 C   0  0  0  0  0  0  0  0  0  0  0  0
  141.2780   79.9470  221.1020 Cl  0  0  0  0  0  0  0  0  0  0  0  0
  142.1850   77.5910  220.0500 C   0  0  0  0  0  0  0  0  0  0  0  0
  142.3700   76.2270  219.9560 C   0  0  0  0  0  0  0  0  0  0  0  0
  139.8510   71.1350  223.5770 C   0  0  0  0  0  0  0  0  0  0  0  0
  139.5390   69.8230  223.7730 C   0  0  0  0  0  0  0  0  0  0  0  0
  139.7700   69.2850  225.0390 C   0  0  0  0  0  0  0  0  0  0  0  0
  140.3030   70.0700  226.0640 C   0  0  0  0  0  0  0  0  0  0  0  0
  140.5280   69.5200  227.3200 C   0  0  0  0  0  0  0  0  0  0  0  0
  141.0620   70.3490  228.3120 C   0  0  0  0  0  0  0  0  0  0  0  0
  141.3640   71.6730  228.0690 C   0  0  0  0  0  0  0  0  0  0  0  0
  141.1240   72.1780  226.8060 C   0  0  0  0  0  0  0  0  0  0  0  0
  140.5980   71.3970  225.8000 C   0  0  0  0  0  0  0  0  0  0  0  0
  140.3700   71.8930  224.5830 N   0  0  0  0  0  0  0  0  0  0  0  0
  138.7470   73.4670  223.0740 H   0  0  0  0  0  0  0  0  0  0  0  0
  137.8037   73.3139  220.5306 H   0  0  0  0  0  0  0  0  0  0  0  0
  138.7857   74.7689  221.2115 H   0  0  0  0  0  0  0  0  0  0  0  0
  141.3766   71.6060  218.7252 H   0  0  0  0  0  0  0  0  0  0  0  0
  142.1527   72.9947  218.0157 H   0  0  0  0  0  0  0  0  0  0  0  0
  144.0003   71.7869  219.3353 H   0  0  0  0  0  0  0  0  0  0  0  0
  141.8380   71.2180  220.9660 H   0  0  0  0  0  0  0  0  0  0  0  0
  144.0251   73.6106  221.3457 H   0  0  0  0  0  0  0  0  0  0  0  0
  143.8028   74.3652  219.7920 H   0  0  0  0  0  0  0  0  0  0  0  0
  141.7109   73.5993  221.8910 H   0  0  0  0  0  0  0  0  0  0  0  0
  140.6052   75.3597  222.7533 H   0  0  0  0  0  0  0  0  0  0  0  0
  140.3056   77.8418  222.8601 H   0  0  0  0  0  0  0  0  0  0  0  0
  142.6349   78.2350  219.2800 H   0  0  0  0  0  0  0  0  0  0  0  0
  142.9498   75.7744  219.1380 H   0  0  0  0  0  0  0  0  0  0  0  0
  139.1198   69.2099  222.9615 H   0  0  0  0  0  0  0  0  0  0  0  0
  139.5294   68.2292  225.2326 H   0  0  0  0  0  0  0  0  0  0  0  0
  140.2935   68.4655  227.5277 H   0  0  0  0  0  0  0  0  0  0  0  0
  141.2463   69.9337  229.3138 H   0  0  0  0  0  0  0  0  0  0  0  0
  141.7851   72.3101  228.8607 H   0  0  0  0  0  0  0  0  0  0  0  0
  141.3591   73.2322  226.5976 H   0  0  0  0  0  0  0  0  0  0  0  0
  1  2  2  0
  2  3  1  0
  3  4  1  0
  4  5  1  0
  5  6  2  0
  5  7  1  0
  7  8  1  0
  8  9  1  0
  9 10  1  0
  9 11  1  0
 11 12  1  0
 12 13  1  0
 13 14  2  0
 14 15  1  0
 15 16  2  0
 16 17  1  0
 16 18  1  0
 18 19  2  0
  2 20  1  0
 20 21  2  0
 21 22  1  0
 22 23  2  0
 23 24  1  0
 24 25  2  0
 25 26  1  0
 26 27  2  0
 27 28  1  0
 28 29  2  0
 12  7  1  0
 19 13  1  0
 29 20  1  0
 28 23  1  0
  3 30  1  0
  4 31  1  0
  4 32  1  0
  8 33  1  0
  8 34  1  0
  9 35  1  6
 10 36  1  0
 11 37  1  0
 11 38  1  0
 12 39  1  1
 14 40  1  0
 15 41  1  0
 18 42  1  0
 19 43  1  0
 21 44  1  0
 22 45  1  0
 24 46  1  0
 25 47  1  0
 26 48  1  0
 27 49  1  0
M  END
>  <smiles>  (45) 
O=C(NCC(=O)N1C[C@H](O)C[C@H]1c1ccc(Cl)cc1)c1ccc2ccccc2n1

>  <score_type>  (45) 
oracle

>  <origin>  (45) 
autodockgpu

>  <m_score__min__energy>  (45) 
-9.0500000000000007

>  <m_primary>  (45) 
energy

>  <rmsd>  (45) 
2.717076092697215

>  <m_score__min__rmsd>  (45) 
2.717076092697215

>  <meeko>  (45) 
{"free_energy": -7.37, "intermolecular_energy": -9.16, "internal_energy": -2.65, "cluster_size": 22, "cluster_id": 6, "rank_in_cluster": 10}

>  <energy>  (45) 
-7.17

>  <cluster_rmsd>  (45) 
0.66

>  <cluster>  (45) 
6

$$$$

     RDKit          3D

 49 52  0  0  0  0  0  0  0  0999 V2000
  141.0530   71.9250  221.3570 O   0  0  0  0  0  0  0  0  0  0  0  0
  140.3300   72.3450  222.3230 C   0  0  0  0  0  0  0  0  0  0  0  0
  139.7270   73.6460  222.2530 N   0  0  0  0  0  0  0  0  0  0  0  0
  139.8740   74.5510  221.1770 C   0  0  0  0  0  0  0  0  0  0  0  0
  140.6820   75.7460  221.3280 C   0  0  0  0  0  0  0  0  0  0  0  0
  141.0940   75.9770  222.5280 O   0  0  0  0  0  0  0  0  0  0  0  0
  141.0900   76.6890  220.3470 N   0  0  0  0  0  0  0  0  0  0  0  0
  141.0470   76.5700  218.8820 C   0  0  0  0  0  0  0  0  0  0  0  0
  142.1150   77.6160  218.4490 C   0  0  2  0  0  0  0  0  0  0  0  0
  143.3920   77.1840  218.7670 O   0  0  0  0  0  0  0  0  0  0  0  0
  141.7680   78.7350  219.4440 C   0  0  0  0  0  0  0  0  0  0  0  0
  141.6580   77.9760  220.7190 C   0  0  1  0  0  0  0  0  0  0  0  0
  140.7850   78.6990  221.6820 C   0  0  0  0  0  0  0  0  0  0  0  0
  141.3170   79.1560  222.8670 C   0  0  0  0  0  0  0  0  0  0  0  0
  140.4990   79.8330  223.7700 C   0  0  0  0  0  0  0  0  0  0  0  0
  139.1620   80.0350  223.4590 C   0  0  0  0  0  0  0  0  0  0  0  0
  138.0850   80.8900  224.5740 Cl  0  0  0  0  0  0  0  0  0  0  0  0
  138.6710   79.5580  222.2580 C   0  0  0  0  0  0  0  0  0  0  0  0
  139.4490   78.8840  221.3390 C   0  0  0  0  0  0  0  0  0  0  0  0
  140.1210   71.4850  223.5070 C   0  0  0  0  0  0  0  0  0  0  0  0
  139.4890   70.2870  223.3550 C   0  0  0  0  0  0  0  0  0  0  0  0
  139.3090   69.5020  224.4940 C   0  0  0  0  0  0  0  0  0  0  0  0
  139.7620   69.9360  225.7420 C   0  0  0  0  0  0  0  0  0  0  0  0
  139.5760   69.1430  226.8680 C   0  0  0  0  0  0  0  0  0  0  0  0
  140.0480   69.6230  228.0930 C   0  0  0  0  0  0  0  0  0  0  0  0
  140.6840   70.8440  228.2000 C   0  0  0  0  0  0  0  0  0  0  0  0
  140.8480   71.5990  227.0550 C   0  0  0  0  0  0  0  0  0  0  0  0
  140.3970   71.1640  225.8280 C   0  0  0  0  0  0  0  0  0  0  0  0
  140.5600   71.9000  224.7280 N   0  0  0  0  0  0  0  0  0  0  0  0
  139.1380   73.8900  223.1060 H   0  0  0  0  0  0  0  0  0  0  0  0
  140.3069   73.9808  220.3419 H   0  0  0  0  0  0  0  0  0  0  0  0
  138.8579   74.9527  221.0497 H   0  0  0  0  0  0  0  0  0  0  0  0
  141.3220   75.5568  218.5538 H   0  0  0  0  0  0  0  0  0  0  0  0
  140.0508   76.7435  218.4490 H   0  0  0  0  0  0  0  0  0  0  0  0
  142.1057   77.8540  217.3751 H   0  0  0  0  0  0  0  0  0  0  0  0
  143.7160   77.5790  219.6340 H   0  0  0  0  0  0  0  0  0  0  0  0
  142.5663   79.4901  219.4937 H   0  0  0  0  0  0  0  0  0  0  0  0
  140.8636   79.3035  219.1815 H   0  0  0  0  0  0  0  0  0  0  0  0
  142.6301   77.8557  221.2195 H   0  0  0  0  0  0  0  0  0  0  0  0
  142.3790   78.9881  223.0992 H   0  0  0  0  0  0  0  0  0  0  0  0
  140.9097   80.2038  224.7207 H   0  0  0  0  0  0  0  0  0  0  0  0
  137.6091   79.7237  222.0237 H   0  0  0  0  0  0  0  0  0  0  0  0
  139.0365   78.5138  220.3889 H   0  0  0  0  0  0  0  0  0  0  0  0
  139.1337   69.9512  222.3696 H   0  0  0  0  0  0  0  0  0  0  0  0
  138.8038   68.5286  224.4082 H   0  0  0  0  0  0  0  0  0  0  0  0
  139.0727   68.1674  226.7974 H   0  0  0  0  0  0  0  0  0  0  0  0
  139.9090   69.0113  228.9966 H   0  0  0  0  0  0  0  0  0  0  0  0
  141.0505   71.2060  229.1719 H   0  0  0  0  0  0  0  0  0  0  0  0
  141.3524   72.5740  227.1247 H   0  0  0  0  0  0  0  0  0  0  0  0
  1  2  2  0
  2  3  1  0
  3  4  1  0
  4  5  1  0
  5  6  2  0
  5  7  1  0
  7  8  1  0
  8  9  1  0
  9 10  1  0
  9 11  1  0
 11 12  1  0
 12 13  1  0
 13 14  2  0
 14 15  1  0
 15 16  2  0
 16 17  1  0
 16 18  1  0
 18 19  2  0
  2 20  1  0
 20 21  2  0
 21 22  1  0
 22 23  2  0
 23 24  1  0
 24 25  2  0
 25 26  1  0
 26 27  2  0
 27 28  1  0
 28 29  2  0
 12  7  1  0
 19 13  1  0
 29 20  1  0
 28 23  1  0
  3 30  1  0
  4 31  1  0
  4 32  1  0
  8 33  1  0
  8 34  1  0
  9 35  1  6
 10 36  1  0
 11 37  1  0
 11 38  1  0
 12 39  1  1
 14 40  1  0
 15 41  1  0
 18 42  1  0
 19 43  1  0
 21 44  1  0
 22 45  1  0
 24 46  1  0
 25 47  1  0
 26 48  1  0
 27 49  1  0
M  END
>  <smiles>  (46) 
O=C(NCC(=O)N1C[C@H](O)C[C@H]1c1ccc(Cl)cc1)c1ccc2ccccc2n1

>  <score_type>  (46) 
oracle

>  <origin>  (46) 
autodockgpu

>  <m_score__min__energy>  (46) 
-9.0500000000000007

>  <m_primary>  (46) 
energy

>  <rmsd>  (46) 
1.723723485036432

>  <m_score__min__rmsd>  (46) 
1.723723485036432

>  <meeko>  (46) 
{"free_energy": -8.89, "intermolecular_energy": -10.68, "internal_energy": -1.27, "cluster_size": 11, "cluster_id": 1, "rank_in_cluster": 5}

>  <energy>  (46) 
-7.14

>  <cluster_rmsd>  (46) 
0.85

>  <cluster>  (46) 
6

$$$$

     RDKit          3D

 49 52  0  0  0  0  0  0  0  0999 V2000
  140.5080   76.9830  219.1990 O   0  0  0  0  0  0  0  0  0  0  0  0
  141.7850   77.0240  219.2490 C   0  0  0  0  0  0  0  0  0  0  0  0
  142.4600   78.2900  219.2670 N   0  0  0  0  0  0  0  0  0  0  0  0
  141.8210   79.5510  219.2190 C   0  0  0  0  0  0  0  0  0  0  0  0
  141.1100   80.0580  220.3760 C   0  0  0  0  0  0  0  0  0  0  0  0
  139.9180   80.4900  220.1380 O   0  0  0  0  0  0  0  0  0  0  0  0
  141.5340   80.1420  221.7290 N   0  0  0  0  0  0  0  0  0  0  0  0
  141.8210   81.3400  222.5310 C   0  0  0  0  0  0  0  0  0  0  0  0
  142.7460   80.7620  223.6420 C   0  0  2  0  0  0  0  0  0  0  0  0
  143.9850   80.4170  223.1290 O   0  0  0  0  0  0  0  0  0  0  0  0
  142.0000   79.4460  223.9110 C   0  0  0  0  0  0  0  0  0  0  0  0
  141.7660   78.9480  222.5290 C   0  0  1  0  0  0  0  0  0  0  0  0
  140.5920   78.0340  222.4960 C   0  0  0  0  0  0  0  0  0  0  0  0
  140.7900   76.6870  222.2890 C   0  0  0  0  0  0  0  0  0  0  0  0
  139.6910   75.8310  222.2570 C   0  0  0  0  0  0  0  0  0  0  0  0
  138.4160   76.3510  222.4350 C   0  0  0  0  0  0  0  0  0  0  0  0
  136.9910   75.3010  222.4030 Cl  0  0  0  0  0  0  0  0  0  0  0  0
  138.2660   77.7090  222.6390 C   0  0  0  0  0  0  0  0  0  0  0  0
  139.3290   78.5880  222.6760 C   0  0  0  0  0  0  0  0  0  0  0  0
  142.5550   75.7630  219.2880 C   0  0  0  0  0  0  0  0  0  0  0  0
  142.1030   74.6860  218.5870 C   0  0  0  0  0  0  0  0  0  0  0  0
  142.8550   73.5130  218.6470 C   0  0  0  0  0  0  0  0  0  0  0  0
  144.0280   73.4520  219.4030 C   0  0  0  0  0  0  0  0  0  0  0  0
  144.7670   72.2770  219.4540 C   0  0  0  0  0  0  0  0  0  0  0  0
  145.9340   72.2690  220.2250 C   0  0  0  0  0  0  0  0  0  0  0  0
  146.3540   73.3840  220.9200 C   0  0  0  0  0  0  0  0  0  0  0  0
  145.5890   74.5310  220.8410 C   0  0  0  0  0  0  0  0  0  0  0  0
  144.4330   74.5820  220.0930 C   0  0  0  0  0  0  0  0  0  0  0  0
  143.7000   75.6950  220.0230 N   0  0  0  0  0  0  0  0  0  0  0  0
  143.5210   78.2080  219.3190 H   0  0  0  0  0  0  0  0  0  0  0  0
  142.5992   80.2901  218.9780 H   0  0  0  0  0  0  0  0  0  0  0  0
  141.0184   79.3947  218.4832 H   0  0  0  0  0  0  0  0  0  0  0  0
  142.3396   82.1061  221.9359 H   0  0  0  0  0  0  0  0  0  0  0  0
  140.9230   81.8453  222.9159 H   0  0  0  0  0  0  0  0  0  0  0  0
  142.9179   81.4448  224.4871 H   0  0  0  0  0  0  0  0  0  0  0  0
  143.9040   79.8260  222.3180 H   0  0  0  0  0  0  0  0  0  0  0  0
  142.6184   78.7452  224.4910 H   0  0  0  0  0  0  0  0  0  0  0  0
  141.0822   79.5649  224.5056 H   0  0  0  0  0  0  0  0  0  0  0  0
  142.6168   78.3663  222.1446 H   0  0  0  0  0  0  0  0  0  0  0  0
  141.8066   76.2904  222.1502 H   0  0  0  0  0  0  0  0  0  0  0  0
  139.8323   74.7526  222.0922 H   0  0  0  0  0  0  0  0  0  0  0  0
  137.2507   78.1087  222.7786 H   0  0  0  0  0  0  0  0  0  0  0  0
  139.1856   79.6664  222.8387 H   0  0  0  0  0  0  0  0  0  0  0  0
  141.1777   74.7396  217.9946 H   0  0  0  0  0  0  0  0  0  0  0  0
  142.5201   72.6244  218.0918 H   0  0  0  0  0  0  0  0  0  0  0  0
  144.4443   71.3802  218.9048 H   0  0  0  0  0  0  0  0  0  0  0  0
  146.5333   71.3482  220.2786 H   0  0  0  0  0  0  0  0  0  0  0  0
  147.2746   73.3602  221.5217 H   0  0  0  0  0  0  0  0  0  0  0  0
  145.9112   75.4281  221.3900 H   0  0  0  0  0  0  0  0  0  0  0  0
  1  2  2  0
  2  3  1  0
  3  4  1  0
  4  5  1  0
  5  6  2  0
  5  7  1  0
  7  8  1  0
  8  9  1  0
  9 10  1  0
  9 11  1  0
 11 12  1  0
 12 13  1  0
 13 14  2  0
 14 15  1  0
 15 16  2  0
 16 17  1  0
 16 18  1  0
 18 19  2  0
  2 20  1  0
 20 21  2  0
 21 22  1  0
 22 23  2  0
 23 24  1  0
 24 25  2  0
 25 26  1  0
 26 27  2  0
 27 28  1  0
 28 29  2  0
 12  7  1  0
 19 13  1  0
 29 20  1  0
 28 23  1  0
  3 30  1  0
  4 31  1  0
  4 32  1  0
  8 33  1  0
  8 34  1  0
  9 35  1  1
 10 36  1  0
 11 37  1  0
 11 38  1  0
 12 39  1  6
 14 40  1  0
 15 41  1  0
 18 42  1  0
 19 43  1  0
 21 44  1  0
 22 45  1  0
 24 46  1  0
 25 47  1  0
 26 48  1  0
 27 49  1  0
M  END
>  <smiles>  (47) 
O=C(NCC(=O)N1C[C@H](O)C[C@H]1c1ccc(Cl)cc1)c1ccc2ccccc2n1

>  <score_type>  (47) 
oracle

>  <origin>  (47) 
autodockgpu

>  <m_score__min__energy>  (47) 
-9.0500000000000007

>  <m_primary>  (47) 
energy

>  <rmsd>  (47) 
7.6734079068559335

>  <m_score__min__rmsd>  (47) 
7.6734079068559335

>  <meeko>  (47) 
{"free_energy": -7.74, "intermolecular_energy": -9.53, "internal_energy": -2.26, "cluster_size": 7, "cluster_id": 5, "rank_in_cluster": 2}

>  <energy>  (47) 
-7.32

>  <cluster_rmsd>  (47) 
0.0

>  <cluster>  (47) 
7

$$$$

     RDKit          3D

 49 52  0  0  0  0  0  0  0  0999 V2000
  140.8540   71.7850  221.2940 O   0  0  0  0  0  0  0  0  0  0  0  0
  140.2680   72.2530  222.3280 C   0  0  0  0  0  0  0  0  0  0  0  0
  139.7720   73.6010  222.3220 N   0  0  0  0  0  0  0  0  0  0  0  0
  139.8870   74.5030  221.2380 C   0  0  0  0  0  0  0  0  0  0  0  0
  140.6790   75.7100  221.3700 C   0  0  0  0  0  0  0  0  0  0  0  0
  141.0800   75.9720  222.5680 O   0  0  0  0  0  0  0  0  0  0  0  0
  141.0810   76.6380  220.3730 N   0  0  0  0  0  0  0  0  0  0  0  0
  141.0550   76.4860  218.9110 C   0  0  0  0  0  0  0  0  0  0  0  0
  142.1100   77.5410  218.4650 C   0  0  2  0  0  0  0  0  0  0  0  0
  143.3910   77.1390  218.8060 O   0  0  0  0  0  0  0  0  0  0  0  0
  141.7340   78.6750  219.4310 C   0  0  0  0  0  0  0  0  0  0  0  0
  141.6230   77.9430  220.7220 C   0  0  1  0  0  0  0  0  0  0  0  0
  140.7270   78.6720  221.6600 C   0  0  0  0  0  0  0  0  0  0  0  0
  139.3980   78.8330  221.3370 C   0  0  0  0  0  0  0  0  0  0  0  0
  138.5580   79.5160  222.2150 C   0  0  0  0  0  0  0  0  0  0  0  0
  139.0750   80.0220  223.3990 C   0  0  0  0  0  0  0  0  0  0  0  0
  138.0460   80.8950  224.5440 Cl  0  0  0  0  0  0  0  0  0  0  0  0
  140.4160   79.8360  223.6810 C   0  0  0  0  0  0  0  0  0  0  0  0
  141.2780   79.1670  222.8370 C   0  0  0  0  0  0  0  0  0  0  0  0
  140.1050   71.4010  223.5250 C   0  0  0  0  0  0  0  0  0  0  0  0
  139.5260   70.1740  223.3930 C   0  0  0  0  0  0  0  0  0  0  0  0
  139.3900   69.3980  224.5440 C   0  0  0  0  0  0  0  0  0  0  0  0
  139.8310   69.8680  225.7820 C   0  0  0  0  0  0  0  0  0  0  0  0
  139.6880   69.0830  226.9200 C   0  0  0  0  0  0  0  0  0  0  0  0
  140.1460   69.6010  228.1360 C   0  0  0  0  0  0  0  0  0  0  0  0
  140.7270   70.8500  228.2220 C   0  0  0  0  0  0  0  0  0  0  0  0
  140.8490   71.5960  227.0660 C   0  0  0  0  0  0  0  0  0  0  0  0
  140.4100   71.1240  225.8480 C   0  0  0  0  0  0  0  0  0  0  0  0
  140.5330   71.8520  224.7370 N   0  0  0  0  0  0  0  0  0  0  0  0
  139.2930   73.8840  223.2300 H   0  0  0  0  0  0  0  0  0  0  0  0
  140.3144   73.9350  220.3985 H   0  0  0  0  0  0  0  0  0  0  0  0
  138.8629   74.8884  221.1252 H   0  0  0  0  0  0  0  0  0  0  0  0
  141.3505   75.4706  218.6081 H   0  0  0  0  0  0  0  0  0  0  0  0
  140.0605   76.6327  218.4645 H   0  0  0  0  0  0  0  0  0  0  0  0
  142.1076   77.7543  217.3859 H   0  0  0  0  0  0  0  0  0  0  0  0
  143.7130   77.5860  219.6480 H   0  0  0  0  0  0  0  0  0  0  0  0
  142.5190   79.4444  219.4719 H   0  0  0  0  0  0  0  0  0  0  0  0
  140.8229   79.2218  219.1466 H   0  0  0  0  0  0  0  0  0  0  0  0
  142.5916   77.8513  221.2352 H   0  0  0  0  0  0  0  0  0  0  0  0
  139.0028   78.4262  220.3945 H   0  0  0  0  0  0  0  0  0  0  0  0
  137.4941   79.6527  221.9712 H   0  0  0  0  0  0  0  0  0  0  0  0
  140.8142   80.2408  224.6231 H   0  0  0  0  0  0  0  0  0  0  0  0
  142.3420   79.0325  223.0814 H   0  0  0  0  0  0  0  0  0  0  0  0
  139.1789   69.8094  222.4150 H   0  0  0  0  0  0  0  0  0  0  0  0
  138.9288   68.4018  224.4751 H   0  0  0  0  0  0  0  0  0  0  0  0
  139.2287   68.0849  226.8661 H   0  0  0  0  0  0  0  0  0  0  0  0
  140.0402   68.9963  229.0488 H   0  0  0  0  0  0  0  0  0  0  0  0
  141.0837   71.2412  229.1862 H   0  0  0  0  0  0  0  0  0  0  0  0
  141.3090   72.5938  227.1190 H   0  0  0  0  0  0  0  0  0  0  0  0
  1  2  2  0
  2  3  1  0
  3  4  1  0
  4  5  1  0
  5  6  2  0
  5  7  1  0
  7  8  1  0
  8  9  1  0
  9 10  1  0
  9 11  1  0
 11 12  1  0
 12 13  1  0
 13 14  2  0
 14 15  1  0
 15 16  2  0
 16 17  1  0
 16 18  1  0
 18 19  2  0
  2 20  1  0
 20 21  2  0
 21 22  1  0
 22 23  2  0
 23 24  1  0
 24 25  2  0
 25 26  1  0
 26 27  2  0
 27 28  1  0
 28 29  2  0
 12  7  1  0
 19 13  1  0
 29 20  1  0
 28 23  1  0
  3 30  1  0
  4 31  1  0
  4 32  1  0
  8 33  1  0
  8 34  1  0
  9 35  1  6
 10 36  1  0
 11 37  1  0
 11 38  1  0
 12 39  1  1
 14 40  1  0
 15 41  1  0
 18 42  1  0
 19 43  1  0
 21 44  1  0
 22 45  1  0
 24 46  1  0
 25 47  1  0
 26 48  1  0
 27 49  1  0
M  END
>  <smiles>  (48) 
O=C(NCC(=O)N1C[C@H](O)C[C@H]1c1ccc(Cl)cc1)c1ccc2ccccc2n1

>  <score_type>  (48) 
oracle

>  <origin>  (48) 
autodockgpu

>  <m_score__min__energy>  (48) 
-9.0500000000000007

>  <m_primary>  (48) 
energy

>  <rmsd>  (48) 
1.6771549453770302

>  <m_score__min__rmsd>  (48) 
1.6771549453770302

>  <meeko>  (48) 
{"free_energy": -8.8, "intermolecular_energy": -10.59, "internal_energy": -1.32, "cluster_size": 11, "cluster_id": 1, "rank_in_cluster": 6}

>  <energy>  (48) 
-7.31

>  <cluster_rmsd>  (48) 
0.07

>  <cluster>  (48) 
7

$$$$

     RDKit          3D

 49 52  0  0  0  0  0  0  0  0999 V2000
  139.9810   71.1220  221.2130 O   0  0  0  0  0  0  0  0  0  0  0  0
  139.6510   71.7660  222.2670 C   0  0  0  0  0  0  0  0  0  0  0  0
  139.0970   73.0860  222.1550 N   0  0  0  0  0  0  0  0  0  0  0  0
  138.8850   73.7770  220.9390 C   0  0  0  0  0  0  0  0  0  0  0  0
  139.8110   73.6200  219.8340 C   0  0  0  0  0  0  0  0  0  0  0  0
  139.2750   73.6690  218.6620 O   0  0  0  0  0  0  0  0  0  0  0  0
  141.2180   73.4290  219.8580 N   0  0  0  0  0  0  0  0  0  0  0  0
  142.0530   72.6280  218.9500 C   0  0  0  0  0  0  0  0  0  0  0  0
  143.3170   72.3760  219.8240 C   0  0  2  0  0  0  0  0  0  0  0  0
  143.0390   71.4980  220.8590 O   0  0  0  0  0  0  0  0  0  0  0  0
  143.4520   73.7700  220.4540 C   0  0  0  0  0  0  0  0  0  0  0  0
  142.0530   74.0420  220.8810 C   0  0  1  0  0  0  0  0  0  0  0  0
  141.8110   75.5070  220.9740 C   0  0  0  0  0  0  0  0  0  0  0  0
  141.0510   76.0020  222.0100 C   0  0  0  0  0  0  0  0  0  0  0  0
  140.8240   77.3750  222.0980 C   0  0  0  0  0  0  0  0  0  0  0  0
  141.3680   78.2180  221.1390 C   0  0  0  0  0  0  0  0  0  0  0  0
  141.1060   79.9680  221.2110 Cl  0  0  0  0  0  0  0  0  0  0  0  0
  142.1230   77.6760  220.1170 C   0  0  0  0  0  0  0  0  0  0  0  0
  142.3700   76.3240  219.9960 C   0  0  0  0  0  0  0  0  0  0  0  0
  139.8440   71.1440  223.5930 C   0  0  0  0  0  0  0  0  0  0  0  0
  139.5020   69.8370  223.7710 C   0  0  0  0  0  0  0  0  0  0  0  0
  139.6970   69.2840  225.0360 C   0  0  0  0  0  0  0  0  0  0  0  0
  140.2240   70.0480  226.0790 C   0  0  0  0  0  0  0  0  0  0  0  0
  140.4130   69.4840  227.3340 C   0  0  0  0  0  0  0  0  0  0  0  0
  140.9440   70.2930  228.3440 C   0  0  0  0  0  0  0  0  0  0  0  0
  141.2760   71.6130  228.1190 C   0  0  0  0  0  0  0  0  0  0  0  0
  141.0720   72.1330  226.8560 C   0  0  0  0  0  0  0  0  0  0  0  0
  140.5510   71.3720  225.8330 C   0  0  0  0  0  0  0  0  0  0  0  0
  140.3570   71.8830  224.6160 N   0  0  0  0  0  0  0  0  0  0  0  0
  138.8490   73.5260  223.0920 H   0  0  0  0  0  0  0  0  0  0  0  0
  137.8965   73.4678  220.5686 H   0  0  0  0  0  0  0  0  0  0  0  0
  139.0173   74.8306  221.2259 H   0  0  0  0  0  0  0  0  0  0  0  0
  141.5584   71.6837  218.6785 H   0  0  0  0  0  0  0  0  0  0  0  0
  142.2652   73.1187  217.9887 H   0  0  0  0  0  0  0  0  0  0  0  0
  144.1765   71.9708  219.2698 H   0  0  0  0  0  0  0  0  0  0  0  0
  142.0480   71.3870  221.0000 H   0  0  0  0  0  0  0  0  0  0  0  0
  144.1387   73.7574  221.3132 H   0  0  0  0  0  0  0  0  0  0  0  0
  143.8685   74.5292  219.7757 H   0  0  0  0  0  0  0  0  0  0  0  0
  141.8335   73.6325  221.8780 H   0  0  0  0  0  0  0  0  0  0  0  0
  140.6266   75.3202  222.7617 H   0  0  0  0  0  0  0  0  0  0  0  0
  140.2194   77.7861  222.9199 H   0  0  0  0  0  0  0  0  0  0  0  0
  142.5478   78.3552  219.3632 H   0  0  0  0  0  0  0  0  0  0  0  0
  142.9746   75.9151  219.1730 H   0  0  0  0  0  0  0  0  0  0  0  0
  139.0868   69.2395  222.9460 H   0  0  0  0  0  0  0  0  0  0  0  0
  139.4320   68.2314  225.2147 H   0  0  0  0  0  0  0  0  0  0  0  0
  140.1530   68.4329  227.5279 H   0  0  0  0  0  0  0  0  0  0  0  0
  141.1012   69.8650  229.3451 H   0  0  0  0  0  0  0  0  0  0  0  0
  141.6925   72.2353  228.9248 H   0  0  0  0  0  0  0  0  0  0  0  0
  141.3328   73.1838  226.6617 H   0  0  0  0  0  0  0  0  0  0  0  0
  1  2  2  0
  2  3  1  0
  3  4  1  0
  4  5  1  0
  5  6  2  0
  5  7  1  0
  7  8  1  0
  8  9  1  0
  9 10  1  0
  9 11  1  0
 11 12  1  0
 12 13  1  0
 13 14  2  0
 14 15  1  0
 15 16  2  0
 16 17  1  0
 16 18  1  0
 18 19  2  0
  2 20  1  0
 20 21  2  0
 21 22  1  0
 22 23  2  0
 23 24  1  0
 24 25  2  0
 25 26  1  0
 26 27  2  0
 27 28  1  0
 28 29  2  0
 12  7  1  0
 19 13  1  0
 29 20  1  0
 28 23  1  0
  3 30  1  0
  4 31  1  0
  4 32  1  0
  8 33  1  0
  8 34  1  0
  9 35  1  6
 10 36  1  0
 11 37  1  0
 11 38  1  0
 12 39  1  1
 14 40  1  0
 15 41  1  0
 18 42  1  0
 19 43  1  0
 21 44  1  0
 22 45  1  0
 24 46  1  0
 25 47  1  0
 26 48  1  0
 27 49  1  0
M  END
>  <smiles>  (49) 
O=C(NCC(=O)N1C[C@H](O)C[C@H]1c1ccc(Cl)cc1)c1ccc2ccccc2n1

>  <score_type>  (49) 
oracle

>  <origin>  (49) 
autodockgpu

>  <m_score__min__energy>  (49) 
-9.0500000000000007

>  <m_primary>  (49) 
energy

>  <rmsd>  (49) 
2.7074523128602825

>  <m_score__min__rmsd>  (49) 
2.7074523128602825

>  <meeko>  (49) 
{"free_energy": -7.43, "intermolecular_energy": -9.22, "internal_energy": -2.58, "cluster_size": 22, "cluster_id": 6, "rank_in_cluster": 3}

>  <energy>  (49) 
-7.24

>  <cluster_rmsd>  (49) 
0.34

>  <cluster>  (49) 
7

$$$$

     RDKit          3D

 49 52  0  0  0  0  0  0  0  0999 V2000
  139.3860   74.5390  222.0850 O   0  0  0  0  0  0  0  0  0  0  0  0
  140.3990   75.3080  221.9610 C   0  0  0  0  0  0  0  0  0  0  0  0
  141.6120   74.8050  221.3810 N   0  0  0  0  0  0  0  0  0  0  0  0
  141.8070   73.4800  220.9260 C   0  0  0  0  0  0  0  0  0  0  0  0
  143.0940   73.0660  220.4030 C   0  0  0  0  0  0  0  0  0  0  0  0
  143.8430   72.4300  221.2390 O   0  0  0  0  0  0  0  0  0  0  0  0
  143.6430   73.2530  219.1070 N   0  0  0  0  0  0  0  0  0  0  0  0
  143.8970   72.2510  218.0610 C   0  0  0  0  0  0  0  0  0  0  0  0
  144.9800   72.9620  217.1980 C   0  0  2  0  0  0  0  0  0  0  0  0
  146.1870   73.0320  217.8730 O   0  0  0  0  0  0  0  0  0  0  0  0
  144.3910   74.3810  217.2020 C   0  0  0  0  0  0  0  0  0  0  0  0
  144.0660   74.5660  218.6420 C   0  0  1  0  0  0  0  0  0  0  0  0
  142.9860   75.5760  218.8070 C   0  0  0  0  0  0  0  0  0  0  0  0
  143.2500   76.7430  219.4870 C   0  0  0  0  0  0  0  0  0  0  0  0
  142.2380   77.6890  219.6430 C   0  0  0  0  0  0  0  0  0  0  0  0
  140.9820   77.4380  219.1090 C   0  0  0  0  0  0  0  0  0  0  0  0
  139.6670   78.6110  219.2810 Cl  0  0  0  0  0  0  0  0  0  0  0  0
  140.7630   76.2520  218.4340 C   0  0  0  0  0  0  0  0  0  0  0  0
  141.7380   75.2920  218.2600 C   0  0  0  0  0  0  0  0  0  0  0  0
  140.3110   76.7100  222.4180 C   0  0  0  0  0  0  0  0  0  0  0  0
  139.0860   77.2550  222.6620 C   0  0  0  0  0  0  0  0  0  0  0  0
  139.0420   78.5810  223.0910 C   0  0  0  0  0  0  0  0  0  0  0  0
  140.2150   79.3180  223.2620 C   0  0  0  0  0  0  0  0  0  0  0  0
  140.1560   80.6390  223.6900 C   0  0  0  0  0  0  0  0  0  0  0  0
  141.3600   81.3330  223.8450 C   0  0  0  0  0  0  0  0  0  0  0  0
  142.5800   80.7410  223.5860 C   0  0  0  0  0  0  0  0  0  0  0  0
  142.5920   79.4260  223.1620 C   0  0  0  0  0  0  0  0  0  0  0  0
  141.4290   78.7070  222.9960 C   0  0  0  0  0  0  0  0  0  0  0  0
  141.4520   77.4370  222.5870 N   0  0  0  0  0  0  0  0  0  0  0  0
  142.3880   75.5320  221.3170 H   0  0  0  0  0  0  0  0  0  0  0  0
  141.5841   72.8184  221.7760 H   0  0  0  0  0  0  0  0  0  0  0  0
  141.1502   73.4204  220.0456 H   0  0  0  0  0  0  0  0  0  0  0  0
  144.2784   71.3123  218.4893 H   0  0  0  0  0  0  0  0  0  0  0  0
  142.9993   71.9571  217.4972 H   0  0  0  0  0  0  0  0  0  0  0  0
  145.1727   72.4813  216.2276 H   0  0  0  0  0  0  0  0  0  0  0  0
  146.3510   73.9490  218.2550 H   0  0  0  0  0  0  0  0  0  0  0  0
  145.1275   75.1222  216.8583 H   0  0  0  0  0  0  0  0  0  0  0  0
  143.5306   74.5103  216.5289 H   0  0  0  0  0  0  0  0  0  0  0  0
  144.9241   74.9396  219.2200 H   0  0  0  0  0  0  0  0  0  0  0  0
  144.2510   76.9277  219.9039 H   0  0  0  0  0  0  0  0  0  0  0  0
  142.4334   78.6262  220.1847 H   0  0  0  0  0  0  0  0  0  0  0  0
  139.7631   76.0647  218.0155 H   0  0  0  0  0  0  0  0  0  0  0  0
  141.5404   74.3547  217.7193 H   0  0  0  0  0  0  0  0  0  0  0  0
  138.1647   76.6697  222.5254 H   0  0  0  0  0  0  0  0  0  0  0  0
  138.0699   79.0526  223.2974 H   0  0  0  0  0  0  0  0  0  0  0  0
  139.1913   81.1239  223.9005 H   0  0  0  0  0  0  0  0  0  0  0  0
  141.3344   82.3796  224.1826 H   0  0  0  0  0  0  0  0  0  0  0  0
  143.5179   81.3014  223.7138 H   0  0  0  0  0  0  0  0  0  0  0  0
  143.5562   78.9403  222.9514 H   0  0  0  0  0  0  0  0  0  0  0  0
  1  2  2  0
  2  3  1  0
  3  4  1  0
  4  5  1  0
  5  6  2  0
  5  7  1  0
  7  8  1  0
  8  9  1  0
  9 10  1  0
  9 11  1  0
 11 12  1  0
 12 13  1  0
 13 14  2  0
 14 15  1  0
 15 16  2  0
 16 17  1  0
 16 18  1  0
 18 19  2  0
  2 20  1  0
 20 21  2  0
 21 22  1  0
 22 23  2  0
 23 24  1  0
 24 25  2  0
 25 26  1  0
 26 27  2  0
 27 28  1  0
 28 29  2  0
 12  7  1  0
 19 13  1  0
 29 20  1  0
 28 23  1  0
  3 30  1  0
  4 31  1  0
  4 32  1  0
  8 33  1  0
  8 34  1  0
  9 35  1  6
 10 36  1  0
 11 37  1  0
 11 38  1  0
 12 39  1  1
 14 40  1  0
 15 41  1  0
 18 42  1  0
 19 43  1  0
 21 44  1  0
 22 45  1  0
 24 46  1  0
 25 47  1  0
 26 48  1  0
 27 49  1  0
M  END
>  <smiles>  (50) 
O=C(NCC(=O)N1C[C@H](O)C[C@H]1c1ccc(Cl)cc1)c1ccc2ccccc2n1

>  <score_type>  (50) 
oracle

>  <origin>  (50) 
autodockgpu

>  <m_score__min__energy>  (50) 
-9.0500000000000007

>  <m_primary>  (50) 
energy

>  <rmsd>  (50) 
7.447341380376765

>  <m_score__min__rmsd>  (50) 
7.447341380376765

>  <meeko>  (50) 
{"free_energy": -7.31, "intermolecular_energy": -9.1, "internal_energy": -2.68, "cluster_size": 3, "cluster_id": 7, "rank_in_cluster": 2}

>  <energy>  (50) 
-6.29

>  <cluster_rmsd>  (50) 
0.0

>  <cluster>  (50) 
8

$$$$
