
     RDKit          3D

 38 40  0  0  0  0  0  0  0  0999 V2000
  139.8190   72.6730  220.7690 O   0  0  0  0  0  0  0  0  0  0  0  0
  139.7020   72.9480  221.9770 C   0  0  0  0  0  0  0  0  0  0  0  0
  139.4310   74.2860  222.3480 N   0  0  0  0  0  0  0  0  0  0  0  0
  139.2830   75.3590  221.3880 C   0  0  0  0  0  0  0  0  0  0  0  0
  138.8430   76.6210  222.0320 C   0  0  0  0  0  0  0  0  0  0  0  0
  137.7100   76.7720  222.5120 O   0  0  0  0  0  0  0  0  0  0  0  0
  139.7710   77.6960  222.0930 N   0  0  0  0  0  0  0  0  0  0  0  0
  141.0930   77.6800  222.7150 C   0  0  0  0  0  0  0  0  0  0  0  0
  141.0220   79.0190  223.4620 C   0  0  0  0  0  0  0  0  0  0  0  0
  140.5430   79.9340  222.3540 C   0  0  2  0  0  0  0  0  0  0  0  0
  139.8890   81.0450  222.8480 F   0  0  0  0  0  0  0  0  0  0  0  0
  139.6270   79.0380  221.5620 C   0  0  0  0  0  0  0  0  0  0  0  0
  139.8340   71.9430  223.0360 C   0  0  0  0  0  0  0  0  0  0  0  0
  139.4540   70.6290  222.8180 C   0  0  0  0  0  0  0  0  0  0  0  0
  139.5630   69.6620  223.7890 C   0  0  0  0  0  0  0  0  0  0  0  0
  140.0680   70.0160  225.0220 C   0  0  0  0  0  0  0  0  0  0  0  0
  140.1910   69.0610  226.0250 C   0  0  0  0  0  0  0  0  0  0  0  0
  140.7080   69.4510  227.2650 C   0  0  0  0  0  0  0  0  0  0  0  0
  140.8680   68.2600  228.5340 Cl  0  0  0  0  0  0  0  0  0  0  0  0
  141.0860   70.7790  227.4710 C   0  0  0  0  0  0  0  0  0  0  0  0
  140.9500   71.7030  226.4490 C   0  0  0  0  0  0  0  0  0  0  0  0
  140.4420   71.3370  225.2180 C   0  0  0  0  0  0  0  0  0  0  0  0
  140.3230   72.2610  224.2470 N   0  0  0  0  0  0  0  0  0  0  0  0
  139.3340   74.5140  223.3630 H   0  0  0  0  0  0  0  0  0  0  0  0
  140.2509   75.5304  220.8943 H   0  0  0  0  0  0  0  0  0  0  0  0
  138.5137   75.0615  220.6603 H   0  0  0  0  0  0  0  0  0  0  0  0
  141.2153   76.8300  223.4024 H   0  0  0  0  0  0  0  0  0  0  0  0
  141.9406   77.5684  222.0228 H   0  0  0  0  0  0  0  0  0  0  0  0
  140.3044   78.9809  224.2948 H   0  0  0  0  0  0  0  0  0  0  0  0
  141.9660   79.3290  223.9339 H   0  0  0  0  0  0  0  0  0  0  0  0
  141.3613   80.3553  221.7516 H   0  0  0  0  0  0  0  0  0  0  0  0
  138.5855   79.3754  221.6690 H   0  0  0  0  0  0  0  0  0  0  0  0
  139.8857   79.0637  220.4932 H   0  0  0  0  0  0  0  0  0  0  0  0
  139.0509   70.3494  221.8334 H   0  0  0  0  0  0  0  0  0  0  0  0
  139.2534   68.6261  223.5862 H   0  0  0  0  0  0  0  0  0  0  0  0
  139.8876   68.0188  225.8469 H   0  0  0  0  0  0  0  0  0  0  0  0
  141.4916   71.0910  228.4447 H   0  0  0  0  0  0  0  0  0  0  0  0
  141.2518   72.7468  226.6204 H   0  0  0  0  0  0  0  0  0  0  0  0
  1  2  2  0
  2  3  1  0
  3  4  1  0
  4  5  1  0
  5  6  2  0
  5  7  1  0
  7  8  1  0
  8  9  1  0
  9 10  1  0
 10 11  1  0
 10 12  1  0
  2 13  1  0
 13 14  2  0
 14 15  1  0
 15 16  2  0
 16 17  1  0
 17 18  2  0
 18 19  1  0
 18 20  1  0
 20 21  2  0
 21 22  1  0
 22 23  2  0
 12  7  1  0
 23 13  1  0
 22 16  1  0
  3 24  1  0
  4 25  1  0
  4 26  1  0
  8 27  1  0
  8 28  1  0
  9 29  1  0
  9 30  1  0
 10 31  1  6
 12 32  1  0
 12 33  1  0
 14 34  1  0
 15 35  1  0
 17 36  1  0
 20 37  1  0
 21 38  1  0
M  END
>  <smiles>  (1) 
O=C(NCC(=O)N1CC[C@H](F)C1)c1ccc2cc(Cl)ccc2n1

>  <score_type>  (1) 
oracle

>  <origin>  (1) 
autodockgpu

>  <m_score__min__energy>  (1) 
-6.9199999999999999

>  <m_primary>  (1) 
energy

>  <rmsd>  (1) 
3.259597798195503

>  <m_score__min__rmsd>  (1) 
3.259597798195503

>  <meeko>  (1) 
{"free_energy": -6.67, "intermolecular_energy": -7.86, "internal_energy": -0.92, "cluster_size": 12, "cluster_id": 1, "rank_in_cluster": 11}

>  <energy>  (1) 
-6.92

>  <cluster_rmsd>  (1) 
0.0

>  <cluster>  (1) 
1

$$$$

     RDKit          3D

 38 40  0  0  0  0  0  0  0  0999 V2000
  140.8430   72.6320  220.8040 O   0  0  0  0  0  0  0  0  0  0  0  0
  140.2740   72.8960  221.8790 C   0  0  0  0  0  0  0  0  0  0  0  0
  139.6710   74.1660  222.0350 N   0  0  0  0  0  0  0  0  0  0  0  0
  139.6810   75.1800  221.0030 C   0  0  0  0  0  0  0  0  0  0  0  0
  140.9540   75.9410  220.9860 C   0  0  0  0  0  0  0  0  0  0  0  0
  142.0170   75.4640  220.5640 O   0  0  0  0  0  0  0  0  0  0  0  0
  140.9390   77.2750  221.4770 N   0  0  0  0  0  0  0  0  0  0  0  0
  141.5390   78.4490  220.8500 C   0  0  0  0  0  0  0  0  0  0  0  0
  142.2090   79.0660  222.0850 C   0  0  0  0  0  0  0  0  0  0  0  0
  141.0580   79.0430  223.0690 C   0  0  2  0  0  0  0  0  0  0  0  0
  141.4970   79.0280  224.3780 F   0  0  0  0  0  0  0  0  0  0  0  0
  140.3340   77.7750  222.6960 C   0  0  0  0  0  0  0  0  0  0  0  0
  140.2030   71.9470  222.9940 C   0  0  0  0  0  0  0  0  0  0  0  0
  139.6350   70.6960  222.8240 C   0  0  0  0  0  0  0  0  0  0  0  0
  139.5510   69.7820  223.8480 C   0  0  0  0  0  0  0  0  0  0  0  0
  140.0500   70.1270  225.0850 C   0  0  0  0  0  0  0  0  0  0  0  0
  139.9800   69.2250  226.1420 C   0  0  0  0  0  0  0  0  0  0  0  0
  140.4960   69.6040  227.3860 C   0  0  0  0  0  0  0  0  0  0  0  0
  140.4150   68.4790  228.7210 Cl  0  0  0  0  0  0  0  0  0  0  0  0
  141.0650   70.8690  227.5420 C   0  0  0  0  0  0  0  0  0  0  0  0
  141.1180   71.7420  226.4680 C   0  0  0  0  0  0  0  0  0  0  0  0
  140.6140   71.3850  225.2330 C   0  0  0  0  0  0  0  0  0  0  0  0
  140.6820   72.2580  224.2110 N   0  0  0  0  0  0  0  0  0  0  0  0
  139.1950   74.3860  222.9390 H   0  0  0  0  0  0  0  0  0  0  0  0
  139.5445   74.6938  220.0258 H   0  0  0  0  0  0  0  0  0  0  0  0
  138.8646   75.8869  221.2125 H   0  0  0  0  0  0  0  0  0  0  0  0
  142.2721   78.1743  220.0772 H   0  0  0  0  0  0  0  0  0  0  0  0
  140.8401   79.1072  220.3130 H   0  0  0  0  0  0  0  0  0  0  0  0
  143.0542   78.4553  222.4354 H   0  0  0  0  0  0  0  0  0  0  0  0
  142.6472   80.0610  221.9178 H   0  0  0  0  0  0  0  0  0  0  0  0
  140.4197   79.9372  223.0147 H   0  0  0  0  0  0  0  0  0  0  0  0
  140.4382   77.0317  223.5002 H   0  0  0  0  0  0  0  0  0  0  0  0
  139.2615   77.9687  222.5471 H   0  0  0  0  0  0  0  0  0  0  0  0
  139.2370   70.4236  221.8354 H   0  0  0  0  0  0  0  0  0  0  0  0
  139.0944   68.7950  223.6828 H   0  0  0  0  0  0  0  0  0  0  0  0
  139.5273   68.2323  226.0022 H   0  0  0  0  0  0  0  0  0  0  0  0
  141.4714   71.1726  228.5181 H   0  0  0  0  0  0  0  0  0  0  0  0
  141.5691   72.7364  226.6011 H   0  0  0  0  0  0  0  0  0  0  0  0
  1  2  2  0
  2  3  1  0
  3  4  1  0
  4  5  1  0
  5  6  2  0
  5  7  1  0
  7  8  1  0
  8  9  1  0
  9 10  1  0
 10 11  1  0
 10 12  1  0
  2 13  1  0
 13 14  2  0
 14 15  1  0
 15 16  2  0
 16 17  1  0
 17 18  2  0
 18 19  1  0
 18 20  1  0
 20 21  2  0
 21 22  1  0
 22 23  2  0
 12  7  1  0
 23 13  1  0
 22 16  1  0
  3 24  1  0
  4 25  1  0
  4 26  1  0
  8 27  1  0
  8 28  1  0
  9 29  1  0
  9 30  1  0
 10 31  1  1
 12 32  1  0
 12 33  1  0
 14 34  1  0
 15 35  1  0
 17 36  1  0
 20 37  1  0
 21 38  1  0
M  END
>  <smiles>  (2) 
O=C(NCC(=O)N1CC[C@H](F)C1)c1ccc2cc(Cl)ccc2n1

>  <score_type>  (2) 
oracle

>  <origin>  (2) 
autodockgpu

>  <m_score__min__energy>  (2) 
-6.9199999999999999

>  <m_primary>  (2) 
energy

>  <rmsd>  (2) 
3.0546402592932242

>  <m_score__min__rmsd>  (2) 
3.0546402592932242

>  <meeko>  (2) 
{"free_energy": -6.92, "intermolecular_energy": -8.12, "internal_energy": -0.78, "cluster_size": 12, "cluster_id": 1, "rank_in_cluster": 1}

>  <energy>  (2) 
-6.92

>  <cluster_rmsd>  (2) 
0.13

>  <cluster>  (2) 
1

$$$$

     RDKit          3D

 38 40  0  0  0  0  0  0  0  0999 V2000
  139.9480   72.6650  220.7880 O   0  0  0  0  0  0  0  0  0  0  0  0
  139.7500   72.9300  221.9880 C   0  0  0  0  0  0  0  0  0  0  0  0
  139.4060   74.2560  222.3430 N   0  0  0  0  0  0  0  0  0  0  0  0
  139.2720   75.3260  221.3780 C   0  0  0  0  0  0  0  0  0  0  0  0
  138.7790   76.5770  222.0030 C   0  0  0  0  0  0  0  0  0  0  0  0
  137.6450   76.6850  222.4890 O   0  0  0  0  0  0  0  0  0  0  0  0
  139.6590   77.6940  222.0400 N   0  0  0  0  0  0  0  0  0  0  0  0
  141.1160   77.6670  221.9550 C   0  0  0  0  0  0  0  0  0  0  0  0
  141.4410   78.6460  223.0920 C   0  0  0  0  0  0  0  0  0  0  0  0
  140.5250   79.7990  222.7400 C   0  0  2  0  0  0  0  0  0  0  0  0
  140.2090   80.5650  223.8440 F   0  0  0  0  0  0  0  0  0  0  0  0
  139.3200   79.0980  222.1680 C   0  0  0  0  0  0  0  0  0  0  0  0
  139.8580   71.9280  223.0520 C   0  0  0  0  0  0  0  0  0  0  0  0
  139.4660   70.6180  222.8340 C   0  0  0  0  0  0  0  0  0  0  0  0
  139.5530   69.6530  223.8090 C   0  0  0  0  0  0  0  0  0  0  0  0
  140.0490   70.0040  225.0460 C   0  0  0  0  0  0  0  0  0  0  0  0
  140.1500   69.0520  226.0540 C   0  0  0  0  0  0  0  0  0  0  0  0
  140.6570   69.4400  227.2980 C   0  0  0  0  0  0  0  0  0  0  0  0
  140.7900   68.2520  228.5730 Cl  0  0  0  0  0  0  0  0  0  0  0  0
  141.0490   70.7640  227.5040 C   0  0  0  0  0  0  0  0  0  0  0  0
  140.9340   71.6870  226.4770 C   0  0  0  0  0  0  0  0  0  0  0  0
  140.4360   71.3220  225.2420 C   0  0  0  0  0  0  0  0  0  0  0  0
  140.3380   72.2440  224.2670 N   0  0  0  0  0  0  0  0  0  0  0  0
  139.2410   74.4760  223.3510 H   0  0  0  0  0  0  0  0  0  0  0  0
  140.2546   75.5193  220.9229 H   0  0  0  0  0  0  0  0  0  0  0  0
  138.5386   75.0117  220.6208 H   0  0  0  0  0  0  0  0  0  0  0  0
  141.5218   76.6627  222.1468 H   0  0  0  0  0  0  0  0  0  0  0  0
  141.5375   77.9262  220.9726 H   0  0  0  0  0  0  0  0  0  0  0  0
  141.1963   78.2198  224.0761 H   0  0  0  0  0  0  0  0  0  0  0  0
  142.5044   78.9158  223.1723 H   0  0  0  0  0  0  0  0  0  0  0  0
  140.9783   80.5179  222.0416 H   0  0  0  0  0  0  0  0  0  0  0  0
  138.4594   79.2176  222.8426 H   0  0  0  0  0  0  0  0  0  0  0  0
  139.0488   79.5240  221.1908 H   0  0  0  0  0  0  0  0  0  0  0  0
  139.0711   70.3398  221.8458 H   0  0  0  0  0  0  0  0  0  0  0  0
  139.2329   68.6204  223.6058 H   0  0  0  0  0  0  0  0  0  0  0  0
  139.8368   68.0126  225.8762 H   0  0  0  0  0  0  0  0  0  0  0  0
  141.4488   71.0742  228.4807 H   0  0  0  0  0  0  0  0  0  0  0  0
  141.2447   72.7282  226.6485 H   0  0  0  0  0  0  0  0  0  0  0  0
  1  2  2  0
  2  3  1  0
  3  4  1  0
  4  5  1  0
  5  6  2  0
  5  7  1  0
  7  8  1  0
  8  9  1  0
  9 10  1  0
 10 11  1  0
 10 12  1  0
  2 13  1  0
 13 14  2  0
 14 15  1  0
 15 16  2  0
 16 17  1  0
 17 18  2  0
 18 19  1  0
 18 20  1  0
 20 21  2  0
 21 22  1  0
 22 23  2  0
 12  7  1  0
 23 13  1  0
 22 16  1  0
  3 24  1  0
  4 25  1  0
  4 26  1  0
  8 27  1  0
  8 28  1  0
  9 29  1  0
  9 30  1  0
 10 31  1  6
 12 32  1  0
 12 33  1  0
 14 34  1  0
 15 35  1  0
 17 36  1  0
 20 37  1  0
 21 38  1  0
M  END
>  <smiles>  (3) 
O=C(NCC(=O)N1CC[C@H](F)C1)c1ccc2cc(Cl)ccc2n1

>  <score_type>  (3) 
oracle

>  <origin>  (3) 
autodockgpu

>  <m_score__min__energy>  (3) 
-6.9199999999999999

>  <m_primary>  (3) 
energy

>  <rmsd>  (3) 
3.237146164017958

>  <m_score__min__rmsd>  (3) 
3.237146164017958

>  <meeko>  (3) 
{"free_energy": -6.8, "intermolecular_energy": -7.99, "internal_energy": -0.92, "cluster_size": 12, "cluster_id": 1, "rank_in_cluster": 9}

>  <energy>  (3) 
-6.92

>  <cluster_rmsd>  (3) 
0.04

>  <cluster>  (3) 
1

$$$$

     RDKit          3D

 38 40  0  0  0  0  0  0  0  0999 V2000
  141.4220   71.4970  221.6550 O   0  0  0  0  0  0  0  0  0  0  0  0
  140.8850   72.5510  222.0420 C   0  0  0  0  0  0  0  0  0  0  0  0
  139.9510   72.4890  223.1030 N   0  0  0  0  0  0  0  0  0  0  0  0
  139.5850   71.2550  223.7650 C   0  0  0  0  0  0  0  0  0  0  0  0
  140.2400   71.1220  225.0890 C   0  0  0  0  0  0  0  0  0  0  0  0
  141.0950   71.9190  225.5000 O   0  0  0  0  0  0  0  0  0  0  0  0
  139.8580   70.0280  225.9130 N   0  0  0  0  0  0  0  0  0  0  0  0
  139.8950   69.9720  227.3720 C   0  0  0  0  0  0  0  0  0  0  0  0
  140.5260   68.5830  227.5430 C   0  0  0  0  0  0  0  0  0  0  0  0
  139.6540   67.7620  226.6180 C   0  0  2  0  0  0  0  0  0  0  0  0
  140.3020   66.6310  226.1640 F   0  0  0  0  0  0  0  0  0  0  0  0
  139.3520   68.7310  225.5050 C   0  0  0  0  0  0  0  0  0  0  0  0
  141.1790   73.8570  221.4450 C   0  0  0  0  0  0  0  0  0  0  0  0
  141.9620   73.9570  220.3070 C   0  0  0  0  0  0  0  0  0  0  0  0
  142.2570   75.1660  219.7230 C   0  0  0  0  0  0  0  0  0  0  0  0
  141.7540   76.3160  220.2910 C   0  0  0  0  0  0  0  0  0  0  0  0
  142.0350   77.5540  219.7230 C   0  0  0  0  0  0  0  0  0  0  0  0
  141.5100   78.7040  220.3230 C   0  0  0  0  0  0  0  0  0  0  0  0
  141.8540   80.2660  219.6190 Cl  0  0  0  0  0  0  0  0  0  0  0  0
  140.7220   78.5880  221.4700 C   0  0  0  0  0  0  0  0  0  0  0  0
  140.4630   77.3380  222.0080 C   0  0  0  0  0  0  0  0  0  0  0  0
  140.9720   76.1930  221.4300 C   0  0  0  0  0  0  0  0  0  0  0  0
  140.7010   74.9950  221.9790 N   0  0  0  0  0  0  0  0  0  0  0  0
  139.5020   73.3750  223.4260 H   0  0  0  0  0  0  0  0  0  0  0  0
  138.4941   71.2364  223.9045 H   0  0  0  0  0  0  0  0  0  0  0  0
  139.9186   70.4179  223.1341 H   0  0  0  0  0  0  0  0  0  0  0  0
  140.5244   70.7664  227.7994 H   0  0  0  0  0  0  0  0  0  0  0  0
  138.9280   70.1176  227.8757 H   0  0  0  0  0  0  0  0  0  0  0  0
  141.5782   68.5737  227.2223 H   0  0  0  0  0  0  0  0  0  0  0  0
  140.5575   68.2208  228.5812 H   0  0  0  0  0  0  0  0  0  0  0  0
  138.7497   67.3700  227.1065 H   0  0  0  0  0  0  0  0  0  0  0  0
  139.8493   68.4073  224.5788 H   0  0  0  0  0  0  0  0  0  0  0  0
  138.2700   68.7781  225.3126 H   0  0  0  0  0  0  0  0  0  0  0  0
  142.3616   73.0373  219.8549 H   0  0  0  0  0  0  0  0  0  0  0  0
  142.8827   75.2143  218.8196 H   0  0  0  0  0  0  0  0  0  0  0  0
  142.6580   77.6278  218.8194 H   0  0  0  0  0  0  0  0  0  0  0  0
  140.3072   79.4887  221.9461 H   0  0  0  0  0  0  0  0  0  0  0  0
  139.8409   77.2568  222.9115 H   0  0  0  0  0  0  0  0  0  0  0  0
  1  2  2  0
  2  3  1  0
  3  4  1  0
  4  5  1  0
  5  6  2  0
  5  7  1  0
  7  8  1  0
  8  9  1  0
  9 10  1  0
 10 11  1  0
 10 12  1  0
  2 13  1  0
 13 14  2  0
 14 15  1  0
 15 16  2  0
 16 17  1  0
 17 18  2  0
 18 19  1  0
 18 20  1  0
 20 21  2  0
 21 22  1  0
 22 23  2  0
 12  7  1  0
 23 13  1  0
 22 16  1  0
  3 24  1  0
  4 25  1  0
  4 26  1  0
  8 27  1  0
  8 28  1  0
  9 29  1  0
  9 30  1  0
 10 31  1  1
 12 32  1  0
 12 33  1  0
 14 34  1  0
 15 35  1  0
 17 36  1  0
 20 37  1  0
 21 38  1  0
M  END
>  <smiles>  (4) 
O=C(NCC(=O)N1CC[C@H](F)C1)c1ccc2cc(Cl)ccc2n1

>  <score_type>  (4) 
oracle

>  <origin>  (4) 
autodockgpu

>  <m_score__min__energy>  (4) 
-6.9199999999999999

>  <m_primary>  (4) 
energy

>  <rmsd>  (4) 
8.747103640691101

>  <m_score__min__rmsd>  (4) 
8.747103640691101

>  <meeko>  (4) 
{"free_energy": -6.57, "intermolecular_energy": -7.76, "internal_energy": -1.04, "cluster_size": 2, "cluster_id": 4, "rank_in_cluster": 1}

>  <energy>  (4) 
-6.89

>  <cluster_rmsd>  (4) 
0.23

>  <cluster>  (4) 
1

$$$$

     RDKit          3D

 38 40  0  0  0  0  0  0  0  0999 V2000
  140.9440   71.1420  221.3160 O   0  0  0  0  0  0  0  0  0  0  0  0
  140.3400   72.1000  221.8320 C   0  0  0  0  0  0  0  0  0  0  0  0
  139.2450   71.8320  222.6880 N   0  0  0  0  0  0  0  0  0  0  0  0
  138.7900   70.4940  222.9970 C   0  0  0  0  0  0  0  0  0  0  0  0
  138.6040   70.2950  224.4550 C   0  0  0  0  0  0  0  0  0  0  0  0
  137.5070   70.0210  224.9620 O   0  0  0  0  0  0  0  0  0  0  0  0
  139.7430   70.4250  225.2950 N   0  0  0  0  0  0  0  0  0  0  0  0
  140.1850   69.4920  226.3270 C   0  0  0  0  0  0  0  0  0  0  0  0
  140.4910   70.4970  227.4450 C   0  0  0  0  0  0  0  0  0  0  0  0
  141.3420   71.5010  226.6950 C   0  0  2  0  0  0  0  0  0  0  0  0
  141.3070   72.7500  227.2830 F   0  0  0  0  0  0  0  0  0  0  0  0
  140.7180   71.4980  225.3240 C   0  0  0  0  0  0  0  0  0  0  0  0
  140.7120   73.4970  221.5910 C   0  0  0  0  0  0  0  0  0  0  0  0
  141.7770   73.8140  220.7640 C   0  0  0  0  0  0  0  0  0  0  0  0
  142.1530   75.1130  220.5170 C   0  0  0  0  0  0  0  0  0  0  0  0
  141.4450   76.1330  221.1140 C   0  0  0  0  0  0  0  0  0  0  0  0
  141.8010   77.4570  220.8840 C   0  0  0  0  0  0  0  0  0  0  0  0
  141.0620   78.4700  221.5040 C   0  0  0  0  0  0  0  0  0  0  0  0
  141.4990   80.1390  221.2230 Cl  0  0  0  0  0  0  0  0  0  0  0  0
  139.9920   78.1360  222.3350 C   0  0  0  0  0  0  0  0  0  0  0  0
  139.6650   76.8060  222.5420 C   0  0  0  0  0  0  0  0  0  0  0  0
  140.3830   75.7920  221.9380 C   0  0  0  0  0  0  0  0  0  0  0  0
  140.0380   74.5110  222.1610 N   0  0  0  0  0  0  0  0  0  0  0  0
  138.7400   72.6390  223.1200 H   0  0  0  0  0  0  0  0  0  0  0  0
  137.8302   70.3188  222.4890 H   0  0  0  0  0  0  0  0  0  0  0  0
  139.5571   69.7853  222.6517 H   0  0  0  0  0  0  0  0  0  0  0  0
  139.3908   68.7866  226.6127 H   0  0  0  0  0  0  0  0  0  0  0  0
  141.0184   68.8327  226.0428 H   0  0  0  0  0  0  0  0  0  0  0  0
  139.5728   70.9576  227.8384 H   0  0  0  0  0  0  0  0  0  0  0  0
  140.9744   70.0606  228.3315 H   0  0  0  0  0  0  0  0  0  0  0  0
  142.4117   71.2449  226.6835 H   0  0  0  0  0  0  0  0  0  0  0  0
  140.2227   72.4616  225.1340 H   0  0  0  0  0  0  0  0  0  0  0  0
  141.4837   71.3488  224.5485 H   0  0  0  0  0  0  0  0  0  0  0  0
  142.3413   72.9982  220.2885 H   0  0  0  0  0  0  0  0  0  0  0  0
  143.0033   75.3339  219.8550 H   0  0  0  0  0  0  0  0  0  0  0  0
  142.6479   77.7034  220.2268 H   0  0  0  0  0  0  0  0  0  0  0  0
  139.4083   78.9288  222.8257 H   0  0  0  0  0  0  0  0  0  0  0  0
  138.8193   76.5529  223.1984 H   0  0  0  0  0  0  0  0  0  0  0  0
  1  2  2  0
  2  3  1  0
  3  4  1  0
  4  5  1  0
  5  6  2  0
  5  7  1  0
  7  8  1  0
  8  9  1  0
  9 10  1  0
 10 11  1  0
 10 12  1  0
  2 13  1  0
 13 14  2  0
 14 15  1  0
 15 16  2  0
 16 17  1  0
 17 18  2  0
 18 19  1  0
 18 20  1  0
 20 21  2  0
 21 22  1  0
 22 23  2  0
 12  7  1  0
 23 13  1  0
 22 16  1  0
  3 24  1  0
  4 25  1  0
  4 26  1  0
  8 27  1  0
  8 28  1  0
  9 29  1  0
  9 30  1  0
 10 31  1  6
 12 32  1  0
 12 33  1  0
 14 34  1  0
 15 35  1  0
 17 36  1  0
 20 37  1  0
 21 38  1  0
M  END
>  <smiles>  (5) 
O=C(NCC(=O)N1CC[C@H](F)C1)c1ccc2cc(Cl)ccc2n1

>  <score_type>  (5) 
oracle

>  <origin>  (5) 
autodockgpu

>  <m_score__min__energy>  (5) 
-6.9199999999999999

>  <m_primary>  (5) 
energy

>  <rmsd>  (5) 
8.019818383991

>  <m_score__min__rmsd>  (5) 
8.019818383991

>  <meeko>  (5) 
{"free_energy": -6.51, "intermolecular_energy": -7.7, "internal_energy": -1.16, "cluster_size": 29, "cluster_id": 2, "rank_in_cluster": 28}

>  <energy>  (5) 
-6.88

>  <cluster_rmsd>  (5) 
0.23

>  <cluster>  (5) 
1

$$$$

     RDKit          3D

 38 40  0  0  0  0  0  0  0  0999 V2000
  139.8290   69.7080  222.4410 O   0  0  0  0  0  0  0  0  0  0  0  0
  139.5720   70.8460  222.8730 C   0  0  0  0  0  0  0  0  0  0  0  0
  138.6900   70.9740  223.9720 N   0  0  0  0  0  0  0  0  0  0  0  0
  138.0670   69.8420  224.6230 C   0  0  0  0  0  0  0  0  0  0  0  0
  139.0570   68.9990  225.3360 C   0  0  0  0  0  0  0  0  0  0  0  0
  139.1820   67.7850  225.1260 O   0  0  0  0  0  0  0  0  0  0  0  0
  139.8930   69.6270  226.3000 N   0  0  0  0  0  0  0  0  0  0  0  0
  139.8980   69.3960  227.7420 C   0  0  0  0  0  0  0  0  0  0  0  0
  139.9530   70.8540  228.2180 C   0  0  0  0  0  0  0  0  0  0  0  0
  141.0920   71.3830  227.3730 C   0  0  2  0  0  0  0  0  0  0  0  0
  141.0120   72.7490  227.1930 F   0  0  0  0  0  0  0  0  0  0  0  0
  140.9200   70.6260  226.0820 C   0  0  0  0  0  0  0  0  0  0  0  0
  140.1450   72.0640  222.2910 C   0  0  0  0  0  0  0  0  0  0  0  0
  141.3070   72.0130  221.5410 C   0  0  0  0  0  0  0  0  0  0  0  0
  141.8710   73.1350  220.9830 C   0  0  0  0  0  0  0  0  0  0  0  0
  141.2560   74.3530  221.1780 C   0  0  0  0  0  0  0  0  0  0  0  0
  141.8010   75.5070  220.6260 C   0  0  0  0  0  0  0  0  0  0  0  0
  141.1530   76.7270  220.8420 C   0  0  0  0  0  0  0  0  0  0  0  0
  141.8280   78.1850  220.1530 Cl  0  0  0  0  0  0  0  0  0  0  0  0
  139.9820   76.7640  221.6010 C   0  0  0  0  0  0  0  0  0  0  0  0
  139.4660   75.5950  222.1360 C   0  0  0  0  0  0  0  0  0  0  0  0
  140.0920   74.3810  221.9330 C   0  0  0  0  0  0  0  0  0  0  0  0
  139.5640   73.2650  222.4670 N   0  0  0  0  0  0  0  0  0  0  0  0
  138.4760   71.9310  224.3320 H   0  0  0  0  0  0  0  0  0  0  0  0
  137.3273   70.2119  225.3483 H   0  0  0  0  0  0  0  0  0  0  0  0
  137.5891   69.2244  223.8483 H   0  0  0  0  0  0  0  0  0  0  0  0
  138.9846   68.8855  228.0812 H   0  0  0  0  0  0  0  0  0  0  0  0
  140.7034   68.7459  228.1144 H   0  0  0  0  0  0  0  0  0  0  0  0
  139.0125   71.3845  228.0082 H   0  0  0  0  0  0  0  0  0  0  0  0
  140.0947   70.9750  229.3021 H   0  0  0  0  0  0  0  0  0  0  0  0
  142.0808   71.2357  227.8320 H   0  0  0  0  0  0  0  0  0  0  0  0
  140.6117   71.3138  225.2808 H   0  0  0  0  0  0  0  0  0  0  0  0
  141.8657   70.1520  225.7803 H   0  0  0  0  0  0  0  0  0  0  0  0
  141.7963   71.0401  221.3861 H   0  0  0  0  0  0  0  0  0  0  0  0
  142.7958   73.0625  220.3919 H   0  0  0  0  0  0  0  0  0  0  0  0
  142.7247   75.4610  220.0305 H   0  0  0  0  0  0  0  0  0  0  0  0
  139.4689   77.7215  221.7743 H   0  0  0  0  0  0  0  0  0  0  0  0
  138.5425   75.6345  222.7323 H   0  0  0  0  0  0  0  0  0  0  0  0
  1  2  2  0
  2  3  1  0
  3  4  1  0
  4  5  1  0
  5  6  2  0
  5  7  1  0
  7  8  1  0
  8  9  1  0
  9 10  1  0
 10 11  1  0
 10 12  1  0
  2 13  1  0
 13 14  2  0
 14 15  1  0
 15 16  2  0
 16 17  1  0
 17 18  2  0
 18 19  1  0
 18 20  1  0
 20 21  2  0
 21 22  1  0
 22 23  2  0
 12  7  1  0
 23 13  1  0
 22 16  1  0
  3 24  1  0
  4 25  1  0
  4 26  1  0
  8 27  1  0
  8 28  1  0
  9 29  1  0
  9 30  1  0
 10 31  1  1
 12 32  1  0
 12 33  1  0
 14 34  1  0
 15 35  1  0
 17 36  1  0
 20 37  1  0
 21 38  1  0
M  END
>  <smiles>  (6) 
O=C(NCC(=O)N1CC[C@H](F)C1)c1ccc2cc(Cl)ccc2n1

>  <score_type>  (6) 
oracle

>  <origin>  (6) 
autodockgpu

>  <m_score__min__energy>  (6) 
-6.9199999999999999

>  <m_primary>  (6) 
energy

>  <rmsd>  (6) 
8.013831737754073

>  <m_score__min__rmsd>  (6) 
8.013831737754073

>  <meeko>  (6) 
{"free_energy": -6.67, "intermolecular_energy": -7.86, "internal_energy": -1.2, "cluster_size": 29, "cluster_id": 2, "rank_in_cluster": 15}

>  <energy>  (6) 
-6.88

>  <cluster_rmsd>  (6) 
0.32

>  <cluster>  (6) 
1

$$$$

     RDKit          3D

 38 40  0  0  0  0  0  0  0  0999 V2000
  135.7460   68.8900  224.4830 O   0  0  0  0  0  0  0  0  0  0  0  0
  136.0210   70.0780  224.7270 C   0  0  0  0  0  0  0  0  0  0  0  0
  137.3070   70.5620  224.3880 N   0  0  0  0  0  0  0  0  0  0  0  0
  138.3250   69.7410  223.7690 C   0  0  0  0  0  0  0  0  0  0  0  0
  139.0410   68.9040  224.7630 C   0  0  0  0  0  0  0  0  0  0  0  0
  138.8330   67.6900  224.8940 O   0  0  0  0  0  0  0  0  0  0  0  0
  140.0070   69.5360  225.5930 N   0  0  0  0  0  0  0  0  0  0  0  0
  140.8660   68.8970  226.5850 C   0  0  0  0  0  0  0  0  0  0  0  0
  140.6920   69.8980  227.7350 C   0  0  0  0  0  0  0  0  0  0  0  0
  140.9450   71.2040  227.0120 C   0  0  2  0  0  0  0  0  0  0  0  0
  140.3400   72.2720  227.6440 F   0  0  0  0  0  0  0  0  0  0  0  0
  140.3590   70.9420  225.6490 C   0  0  0  0  0  0  0  0  0  0  0  0
  135.0700   71.0020  225.3510 C   0  0  0  0  0  0  0  0  0  0  0  0
  134.0780   70.5340  226.1960 C   0  0  0  0  0  0  0  0  0  0  0  0
  133.1690   71.3720  226.7980 C   0  0  0  0  0  0  0  0  0  0  0  0
  133.2510   72.7250  226.5490 C   0  0  0  0  0  0  0  0  0  0  0  0
  132.3470   73.5990  227.1430 C   0  0  0  0  0  0  0  0  0  0  0  0
  132.4560   74.9670  226.8710 C   0  0  0  0  0  0  0  0  0  0  0  0
  131.3260   76.0760  227.6110 Cl  0  0  0  0  0  0  0  0  0  0  0  0
  133.4610   75.4250  226.0170 C   0  0  0  0  0  0  0  0  0  0  0  0
  134.3450   74.5260  225.4430 C   0  0  0  0  0  0  0  0  0  0  0  0
  134.2520   73.1720  225.7000 C   0  0  0  0  0  0  0  0  0  0  0  0
  135.1270   72.3260  225.1260 N   0  0  0  0  0  0  0  0  0  0  0  0
  137.5360   71.5610  224.5940 H   0  0  0  0  0  0  0  0  0  0  0  0
  137.8487   69.0830  223.0273 H   0  0  0  0  0  0  0  0  0  0  0  0
  139.0588   70.4086  223.2938 H   0  0  0  0  0  0  0  0  0  0  0  0
  140.5077   67.8926  226.8549 H   0  0  0  0  0  0  0  0  0  0  0  0
  141.9037   68.7182  226.2668 H   0  0  0  0  0  0  0  0  0  0  0  0
  139.6768   69.8583  228.1566 H   0  0  0  0  0  0  0  0  0  0  0  0
  141.3496   69.7197  228.5986 H   0  0  0  0  0  0  0  0  0  0  0  0
  142.0080   71.4851  226.9793 H   0  0  0  0  0  0  0  0  0  0  0  0
  139.4618   71.5607  225.4999 H   0  0  0  0  0  0  0  0  0  0  0  0
  141.0824   71.1938  224.8595 H   0  0  0  0  0  0  0  0  0  0  0  0
  134.0148   69.4536  226.3927 H   0  0  0  0  0  0  0  0  0  0  0  0
  132.3919   70.9704  227.4650 H   0  0  0  0  0  0  0  0  0  0  0  0
  131.5612   73.2219  227.8140 H   0  0  0  0  0  0  0  0  0  0  0  0
  133.5509   76.4996  225.7999 H   0  0  0  0  0  0  0  0  0  0  0  0
  135.1338   74.8964  224.7717 H   0  0  0  0  0  0  0  0  0  0  0  0
  1  2  2  0
  2  3  1  0
  3  4  1  0
  4  5  1  0
  5  6  2  0
  5  7  1  0
  7  8  1  0
  8  9  1  0
  9 10  1  0
 10 11  1  0
 10 12  1  0
  2 13  1  0
 13 14  2  0
 14 15  1  0
 15 16  2  0
 16 17  1  0
 17 18  2  0
 18 19  1  0
 18 20  1  0
 20 21  2  0
 21 22  1  0
 22 23  2  0
 12  7  1  0
 23 13  1  0
 22 16  1  0
  3 24  1  0
  4 25  1  0
  4 26  1  0
  8 27  1  0
  8 28  1  0
  9 29  1  0
  9 30  1  0
 10 31  1  6
 12 32  1  0
 12 33  1  0
 14 34  1  0
 15 35  1  0
 17 36  1  0
 20 37  1  0
 21 38  1  0
M  END
>  <smiles>  (7) 
O=C(NCC(=O)N1CC[C@H](F)C1)c1ccc2cc(Cl)ccc2n1

>  <score_type>  (7) 
oracle

>  <origin>  (7) 
autodockgpu

>  <m_score__min__energy>  (7) 
-6.9199999999999999

>  <m_primary>  (7) 
energy

>  <rmsd>  (7) 
8.123896407884859

>  <m_score__min__rmsd>  (7) 
8.123896407884859

>  <meeko>  (7) 
{"free_energy": -6.46, "intermolecular_energy": -7.65, "internal_energy": -1.03, "cluster_size": 7, "cluster_id": 3, "rank_in_cluster": 6}

>  <energy>  (7) 
-6.81

>  <cluster_rmsd>  (7) 
0.48

>  <cluster>  (7) 
1

$$$$

     RDKit          3D

 38 40  0  0  0  0  0  0  0  0999 V2000
  141.4310   71.7560  221.2580 O   0  0  0  0  0  0  0  0  0  0  0  0
  140.7440   72.6460  221.7910 C   0  0  0  0  0  0  0  0  0  0  0  0
  139.6890   72.2660  222.6540 N   0  0  0  0  0  0  0  0  0  0  0  0
  139.3660   70.8870  222.9500 C   0  0  0  0  0  0  0  0  0  0  0  0
  138.8290   70.7260  224.3240 C   0  0  0  0  0  0  0  0  0  0  0  0
  137.6160   70.7280  224.5760 O   0  0  0  0  0  0  0  0  0  0  0  0
  139.7590   70.5630  225.3870 N   0  0  0  0  0  0  0  0  0  0  0  0
  139.9070   69.3970  226.2530 C   0  0  0  0  0  0  0  0  0  0  0  0
  140.0130   70.1150  227.6060 C   0  0  0  0  0  0  0  0  0  0  0  0
  141.0640   71.1580  227.2890 C   0  0  2  0  0  0  0  0  0  0  0  0
  140.9700   72.2560  228.1190 F   0  0  0  0  0  0  0  0  0  0  0  0
  140.7620   71.5010  225.8530 C   0  0  0  0  0  0  0  0  0  0  0  0
  140.9800   74.0750  221.5640 C   0  0  0  0  0  0  0  0  0  0  0  0
  141.9310   74.5000  220.6520 C   0  0  0  0  0  0  0  0  0  0  0  0
  142.1780   75.8320  220.4150 C   0  0  0  0  0  0  0  0  0  0  0  0
  141.4520   76.7740  221.1110 C   0  0  0  0  0  0  0  0  0  0  0  0
  141.6770   78.1290  220.8940 C   0  0  0  0  0  0  0  0  0  0  0  0
  140.9240   79.0600  221.6150 C   0  0  0  0  0  0  0  0  0  0  0  0
  141.1980   80.7660  221.3510 Cl  0  0  0  0  0  0  0  0  0  0  0  0
  139.9680   78.6170  222.5310 C   0  0  0  0  0  0  0  0  0  0  0  0
  139.7700   77.2600  222.7220 C   0  0  0  0  0  0  0  0  0  0  0  0
  140.5040   76.3250  222.0190 C   0  0  0  0  0  0  0  0  0  0  0  0
  140.2850   75.0150  222.2290 N   0  0  0  0  0  0  0  0  0  0  0  0
  139.1140   73.0150  223.1010 H   0  0  0  0  0  0  0  0  0  0  0  0
  138.6117   70.5362  222.2302 H   0  0  0  0  0  0  0  0  0  0  0  0
  140.2913   70.2969  222.8748 H   0  0  0  0  0  0  0  0  0  0  0  0
  139.0306   68.7339  226.2054 H   0  0  0  0  0  0  0  0  0  0  0  0
  140.7439   68.7272  226.0059 H   0  0  0  0  0  0  0  0  0  0  0  0
  139.0577   70.5772  227.8955 H   0  0  0  0  0  0  0  0  0  0  0  0
  140.2621   69.4586  228.4528 H   0  0  0  0  0  0  0  0  0  0  0  0
  142.0931   70.8002  227.4407 H   0  0  0  0  0  0  0  0  0  0  0  0
  140.3765   72.5290  225.7846 H   0  0  0  0  0  0  0  0  0  0  0  0
  141.6715   71.4360  225.2377 H   0  0  0  0  0  0  0  0  0  0  0  0
  142.5092   73.7461  220.0977 H   0  0  0  0  0  0  0  0  0  0  0  0
  142.9403   76.1395  219.6840 H   0  0  0  0  0  0  0  0  0  0  0  0
  142.4336   78.4620  220.1683 H   0  0  0  0  0  0  0  0  0  0  0  0
  139.3725   79.3456  223.1006 H   0  0  0  0  0  0  0  0  0  0  0  0
  139.0149   76.9208  223.4463 H   0  0  0  0  0  0  0  0  0  0  0  0
  1  2  2  0
  2  3  1  0
  3  4  1  0
  4  5  1  0
  5  6  2  0
  5  7  1  0
  7  8  1  0
  8  9  1  0
  9 10  1  0
 10 11  1  0
 10 12  1  0
  2 13  1  0
 13 14  2  0
 14 15  1  0
 15 16  2  0
 16 17  1  0
 17 18  2  0
 18 19  1  0
 18 20  1  0
 20 21  2  0
 21 22  1  0
 22 23  2  0
 12  7  1  0
 23 13  1  0
 22 16  1  0
  3 24  1  0
  4 25  1  0
  4 26  1  0
  8 27  1  0
  8 28  1  0
  9 29  1  0
  9 30  1  0
 10 31  1  6
 12 32  1  0
 12 33  1  0
 14 34  1  0
 15 35  1  0
 17 36  1  0
 20 37  1  0
 21 38  1  0
M  END
>  <smiles>  (8) 
O=C(NCC(=O)N1CC[C@H](F)C1)c1ccc2cc(Cl)ccc2n1

>  <score_type>  (8) 
oracle

>  <origin>  (8) 
autodockgpu

>  <m_score__min__energy>  (8) 
-6.9199999999999999

>  <m_primary>  (8) 
energy

>  <rmsd>  (8) 
8.350666245641635

>  <m_score__min__rmsd>  (8) 
8.350666245641635

>  <meeko>  (8) 
{"free_energy": -6.6, "intermolecular_energy": -7.79, "internal_energy": -1.08, "cluster_size": 29, "cluster_id": 2, "rank_in_cluster": 20}

>  <energy>  (8) 
-6.81

>  <cluster_rmsd>  (8) 
0.71

>  <cluster>  (8) 
1

$$$$

     RDKit          3D

 38 40  0  0  0  0  0  0  0  0999 V2000
  139.9570   69.9030  222.2740 O   0  0  0  0  0  0  0  0  0  0  0  0
  139.6470   71.0230  222.7200 C   0  0  0  0  0  0  0  0  0  0  0  0
  138.7280   71.0970  223.7940 N   0  0  0  0  0  0  0  0  0  0  0  0
  138.1260   69.9310  224.4030 C   0  0  0  0  0  0  0  0  0  0  0  0
  139.1400   69.0500  225.0340 C   0  0  0  0  0  0  0  0  0  0  0  0
  139.1900   67.8290  224.8310 O   0  0  0  0  0  0  0  0  0  0  0  0
  140.0880   69.6480  225.9080 N   0  0  0  0  0  0  0  0  0  0  0  0
  140.9480   68.9650  226.8720 C   0  0  0  0  0  0  0  0  0  0  0  0
  140.7490   69.8980  228.0740 C   0  0  0  0  0  0  0  0  0  0  0  0
  140.9900   71.2450  227.4280 C   0  0  2  0  0  0  0  0  0  0  0  0
  140.3640   72.2670  228.1140 F   0  0  0  0  0  0  0  0  0  0  0  0
  140.4200   71.0530  226.0470 C   0  0  0  0  0  0  0  0  0  0  0  0
  140.1930   72.2720  222.1810 C   0  0  0  0  0  0  0  0  0  0  0  0
  141.3130   72.2630  221.3670 C   0  0  0  0  0  0  0  0  0  0  0  0
  141.8510   73.4150  220.8460 C   0  0  0  0  0  0  0  0  0  0  0  0
  141.2530   74.6200  221.1440 C   0  0  0  0  0  0  0  0  0  0  0  0
  141.7730   75.8040  220.6320 C   0  0  0  0  0  0  0  0  0  0  0  0
  141.1430   77.0100  220.9540 C   0  0  0  0  0  0  0  0  0  0  0  0
  141.7870   78.5050  220.3150 Cl  0  0  0  0  0  0  0  0  0  0  0  0
  140.0140   77.0040  221.7750 C   0  0  0  0  0  0  0  0  0  0  0  0
  139.5230   75.8070  222.2680 C   0  0  0  0  0  0  0  0  0  0  0  0
  140.1320   74.6060  221.9610 C   0  0  0  0  0  0  0  0  0  0  0  0
  139.6280   73.4610  222.4570 N   0  0  0  0  0  0  0  0  0  0  0  0
  138.4690   72.0380  224.1660 H   0  0  0  0  0  0  0  0  0  0  0  0
  137.4126   70.2603  225.1729 H   0  0  0  0  0  0  0  0  0  0  0  0
  137.6201   69.3568  223.6129 H   0  0  0  0  0  0  0  0  0  0  0  0
  140.6015   67.9423  227.0818 H   0  0  0  0  0  0  0  0  0  0  0  0
  141.9909   68.8180  226.5547 H   0  0  0  0  0  0  0  0  0  0  0  0
  139.7305   69.8210  228.4824 H   0  0  0  0  0  0  0  0  0  0  0  0
  141.4011   69.6808  228.9329 H   0  0  0  0  0  0  0  0  0  0  0  0
  142.0492   71.5416  227.4207 H   0  0  0  0  0  0  0  0  0  0  0  0
  139.5157   71.6672  225.9244 H   0  0  0  0  0  0  0  0  0  0  0  0
  141.1469   71.3587  225.2801 H   0  0  0  0  0  0  0  0  0  0  0  0
  141.7887   71.3001  221.1291 H   0  0  0  0  0  0  0  0  0  0  0  0
  142.7426   73.3759  220.2029 H   0  0  0  0  0  0  0  0  0  0  0  0
  142.6632   75.7919  219.9859 H   0  0  0  0  0  0  0  0  0  0  0  0
  139.5145   77.9502  222.0302 H   0  0  0  0  0  0  0  0  0  0  0  0
  138.6333   75.8126  222.9148 H   0  0  0  0  0  0  0  0  0  0  0  0
  1  2  2  0
  2  3  1  0
  3  4  1  0
  4  5  1  0
  5  6  2  0
  5  7  1  0
  7  8  1  0
  8  9  1  0
  9 10  1  0
 10 11  1  0
 10 12  1  0
  2 13  1  0
 13 14  2  0
 14 15  1  0
 15 16  2  0
 16 17  1  0
 17 18  2  0
 18 19  1  0
 18 20  1  0
 20 21  2  0
 21 22  1  0
 22 23  2  0
 12  7  1  0
 23 13  1  0
 22 16  1  0
  3 24  1  0
  4 25  1  0
  4 26  1  0
  8 27  1  0
  8 28  1  0
  9 29  1  0
  9 30  1  0
 10 31  1  6
 12 32  1  0
 12 33  1  0
 14 34  1  0
 15 35  1  0
 17 36  1  0
 20 37  1  0
 21 38  1  0
M  END
>  <smiles>  (9) 
O=C(NCC(=O)N1CC[C@H](F)C1)c1ccc2cc(Cl)ccc2n1

>  <score_type>  (9) 
oracle

>  <origin>  (9) 
autodockgpu

>  <m_score__min__energy>  (9) 
-6.9199999999999999

>  <m_primary>  (9) 
energy

>  <rmsd>  (9) 
8.039264550922532

>  <m_score__min__rmsd>  (9) 
8.039264550922532

>  <meeko>  (9) 
{"free_energy": -6.7, "intermolecular_energy": -7.9, "internal_energy": -1.09, "cluster_size": 29, "cluster_id": 2, "rank_in_cluster": 9}

>  <energy>  (9) 
-6.8

>  <cluster_rmsd>  (9) 
1.33

>  <cluster>  (9) 
1

$$$$

     RDKit          3D

 38 40  0  0  0  0  0  0  0  0999 V2000
  139.8120   69.7750  222.3840 O   0  0  0  0  0  0  0  0  0  0  0  0
  139.5530   70.9070  222.8320 C   0  0  0  0  0  0  0  0  0  0  0  0
  138.6690   71.0170  223.9310 N   0  0  0  0  0  0  0  0  0  0  0  0
  138.0470   69.8750  224.5650 C   0  0  0  0  0  0  0  0  0  0  0  0
  139.0390   69.0130  225.2530 C   0  0  0  0  0  0  0  0  0  0  0  0
  139.1580   67.8030  225.0160 O   0  0  0  0  0  0  0  0  0  0  0  0
  139.8850   69.6170  226.2230 N   0  0  0  0  0  0  0  0  0  0  0  0
  139.9240   69.3300  227.6540 C   0  0  0  0  0  0  0  0  0  0  0  0
  139.9660   70.7690  228.1860 C   0  0  0  0  0  0  0  0  0  0  0  0
  141.0780   71.3500  227.3390 C   0  0  2  0  0  0  0  0  0  0  0  0
  140.9720   72.7210  227.2140 F   0  0  0  0  0  0  0  0  0  0  0  0
  140.8910   70.6420  226.0220 C   0  0  0  0  0  0  0  0  0  0  0  0
  140.1250   72.1340  222.2700 C   0  0  0  0  0  0  0  0  0  0  0  0
  141.2720   72.0920  221.4960 C   0  0  0  0  0  0  0  0  0  0  0  0
  141.8350   73.2230  220.9550 C   0  0  0  0  0  0  0  0  0  0  0  0
  141.2340   74.4400  221.1910 C   0  0  0  0  0  0  0  0  0  0  0  0
  141.7790   75.6030  220.6570 C   0  0  0  0  0  0  0  0  0  0  0  0
  141.1450   76.8230  220.9160 C   0  0  0  0  0  0  0  0  0  0  0  0
  141.8190   78.2920  220.2500 Cl  0  0  0  0  0  0  0  0  0  0  0  0
  139.9880   76.8510  221.6970 C   0  0  0  0  0  0  0  0  0  0  0  0
  139.4730   75.6730  222.2130 C   0  0  0  0  0  0  0  0  0  0  0  0
  140.0850   74.4590  221.9690 C   0  0  0  0  0  0  0  0  0  0  0  0
  139.5580   73.3340  222.4850 N   0  0  0  0  0  0  0  0  0  0  0  0
  138.4530   71.9680  224.3060 H   0  0  0  0  0  0  0  0  0  0  0  0
  137.3152   70.2338  225.3038 H   0  0  0  0  0  0  0  0  0  0  0  0
  137.5603   69.2749  223.7821 H   0  0  0  0  0  0  0  0  0  0  0  0
  139.0261   68.7915  227.9914 H   0  0  0  0  0  0  0  0  0  0  0  0
  140.7473   68.6793  227.9839 H   0  0  0  0  0  0  0  0  0  0  0  0
  139.0128   71.2914  228.0171 H   0  0  0  0  0  0  0  0  0  0  0  0
  140.1291   70.8497  229.2708 H   0  0  0  0  0  0  0  0  0  0  0  0
  142.0782   71.2011  227.7720 H   0  0  0  0  0  0  0  0  0  0  0  0
  140.5538   71.3554  225.2556 H   0  0  0  0  0  0  0  0  0  0  0  0
  141.8375   70.1974  225.6808 H   0  0  0  0  0  0  0  0  0  0  0  0
  141.7496   71.1192  221.3074 H   0  0  0  0  0  0  0  0  0  0  0  0
  142.7482   73.1578  220.3452 H   0  0  0  0  0  0  0  0  0  0  0  0
  142.6908   75.5643  220.0429 H   0  0  0  0  0  0  0  0  0  0  0  0
  139.4857   77.8078  221.9025 H   0  0  0  0  0  0  0  0  0  0  0  0
  138.5612   75.7050  222.8275 H   0  0  0  0  0  0  0  0  0  0  0  0
  1  2  2  0
  2  3  1  0
  3  4  1  0
  4  5  1  0
  5  6  2  0
  5  7  1  0
  7  8  1  0
  8  9  1  0
  9 10  1  0
 10 11  1  0
 10 12  1  0
  2 13  1  0
 13 14  2  0
 14 15  1  0
 15 16  2  0
 16 17  1  0
 17 18  2  0
 18 19  1  0
 18 20  1  0
 20 21  2  0
 21 22  1  0
 22 23  2  0
 12  7  1  0
 23 13  1  0
 22 16  1  0
  3 24  1  0
  4 25  1  0
  4 26  1  0
  8 27  1  0
  8 28  1  0
  9 29  1  0
  9 30  1  0
 10 31  1  1
 12 32  1  0
 12 33  1  0
 14 34  1  0
 15 35  1  0
 17 36  1  0
 20 37  1  0
 21 38  1  0
M  END
>  <smiles>  (10) 
O=C(NCC(=O)N1CC[C@H](F)C1)c1ccc2cc(Cl)ccc2n1

>  <score_type>  (10) 
oracle

>  <origin>  (10) 
autodockgpu

>  <m_score__min__energy>  (10) 
-6.9199999999999999

>  <m_primary>  (10) 
energy

>  <rmsd>  (10) 
8.007969727937311

>  <m_score__min__rmsd>  (10) 
8.007969727937311

>  <meeko>  (10) 
{"free_energy": -6.7, "intermolecular_energy": -7.89, "internal_energy": -1.2, "cluster_size": 29, "cluster_id": 2, "rank_in_cluster": 10}

>  <energy>  (10) 
-6.78

>  <cluster_rmsd>  (10) 
1.23

>  <cluster>  (10) 
1

$$$$

     RDKit          3D

 38 40  0  0  0  0  0  0  0  0999 V2000
  139.9820   70.1420  222.1720 O   0  0  0  0  0  0  0  0  0  0  0  0
  139.6150   71.2590  222.5790 C   0  0  0  0  0  0  0  0  0  0  0  0
  138.6170   71.3230  223.5800 N   0  0  0  0  0  0  0  0  0  0  0  0
  137.9980   70.1500  224.1580 C   0  0  0  0  0  0  0  0  0  0  0  0
  138.9920   69.2670  224.8160 C   0  0  0  0  0  0  0  0  0  0  0  0
  138.9720   68.0330  224.7050 O   0  0  0  0  0  0  0  0  0  0  0  0
  140.0050   69.8760  225.6050 N   0  0  0  0  0  0  0  0  0  0  0  0
  141.0780   69.2030  226.3300 C   0  0  0  0  0  0  0  0  0  0  0  0
  140.9860   69.9650  227.6590 C   0  0  0  0  0  0  0  0  0  0  0  0
  140.9750   71.3950  227.1630 C   0  0  2  0  0  0  0  0  0  0  0  0
  140.3690   72.2500  228.0610 F   0  0  0  0  0  0  0  0  0  0  0  0
  140.2070   71.2880  225.8710 C   0  0  0  0  0  0  0  0  0  0  0  0
  140.1710   72.5140  222.0650 C   0  0  0  0  0  0  0  0  0  0  0  0
  141.2890   72.5120  221.2480 C   0  0  0  0  0  0  0  0  0  0  0  0
  141.8370   73.6710  220.7500 C   0  0  0  0  0  0  0  0  0  0  0  0
  141.2510   74.8740  221.0770 C   0  0  0  0  0  0  0  0  0  0  0  0
  141.7810   76.0640  220.5900 C   0  0  0  0  0  0  0  0  0  0  0  0
  141.1630   77.2690  220.9400 C   0  0  0  0  0  0  0  0  0  0  0  0
  141.8190   78.7710  220.3330 Cl  0  0  0  0  0  0  0  0  0  0  0  0
  140.0370   77.2560  221.7650 C   0  0  0  0  0  0  0  0  0  0  0  0
  139.5360   76.0520  222.2320 C   0  0  0  0  0  0  0  0  0  0  0  0
  140.1320   74.8520  221.8970 C   0  0  0  0  0  0  0  0  0  0  0  0
  139.6190   73.7020  222.3690 N   0  0  0  0  0  0  0  0  0  0  0  0
  138.3100   72.2620  223.9200 H   0  0  0  0  0  0  0  0  0  0  0  0
  137.2574   70.4706  224.9055 H   0  0  0  0  0  0  0  0  0  0  0  0
  137.5215   69.5811  223.3461 H   0  0  0  0  0  0  0  0  0  0  0  0
  140.8795   68.1285  226.4563 H   0  0  0  0  0  0  0  0  0  0  0  0
  142.0633   69.2224  225.8413 H   0  0  0  0  0  0  0  0  0  0  0  0
  140.0632   69.7182  228.2046 H   0  0  0  0  0  0  0  0  0  0  0  0
  141.7907   69.7358  228.3731 H   0  0  0  0  0  0  0  0  0  0  0  0
  141.9818   71.8187  227.0337 H   0  0  0  0  0  0  0  0  0  0  0  0
  139.2359   71.7957  225.9672 H   0  0  0  0  0  0  0  0  0  0  0  0
  140.7606   71.7641  225.0482 H   0  0  0  0  0  0  0  0  0  0  0  0
  141.7550   71.5500  220.9883 H   0  0  0  0  0  0  0  0  0  0  0  0
  142.7261   73.6379  220.1031 H   0  0  0  0  0  0  0  0  0  0  0  0
  142.6696   76.0577  219.9417 H   0  0  0  0  0  0  0  0  0  0  0  0
  139.5480   78.2010  222.0440 H   0  0  0  0  0  0  0  0  0  0  0  0
  138.6479   76.0516  222.8810 H   0  0  0  0  0  0  0  0  0  0  0  0
  1  2  2  0
  2  3  1  0
  3  4  1  0
  4  5  1  0
  5  6  2  0
  5  7  1  0
  7  8  1  0
  8  9  1  0
  9 10  1  0
 10 11  1  0
 10 12  1  0
  2 13  1  0
 13 14  2  0
 14 15  1  0
 15 16  2  0
 16 17  1  0
 17 18  2  0
 18 19  1  0
 18 20  1  0
 20 21  2  0
 21 22  1  0
 22 23  2  0
 12  7  1  0
 23 13  1  0
 22 16  1  0
  3 24  1  0
  4 25  1  0
  4 26  1  0
  8 27  1  0
  8 28  1  0
  9 29  1  0
  9 30  1  0
 10 31  1  6
 12 32  1  0
 12 33  1  0
 14 34  1  0
 15 35  1  0
 17 36  1  0
 20 37  1  0
 21 38  1  0
M  END
>  <smiles>  (11) 
O=C(NCC(=O)N1CC[C@H](F)C1)c1ccc2cc(Cl)ccc2n1

>  <score_type>  (11) 
oracle

>  <origin>  (11) 
autodockgpu

>  <m_score__min__energy>  (11) 
-6.9199999999999999

>  <m_primary>  (11) 
energy

>  <rmsd>  (11) 
7.931198889379741

>  <m_score__min__rmsd>  (11) 
7.931198889379741

>  <meeko>  (11) 
{"free_energy": -6.59, "intermolecular_energy": -7.79, "internal_energy": -1.11, "cluster_size": 29, "cluster_id": 2, "rank_in_cluster": 21}

>  <energy>  (11) 
-6.67

>  <cluster_rmsd>  (11) 
1.41

>  <cluster>  (11) 
1

$$$$

     RDKit          3D

 38 40  0  0  0  0  0  0  0  0999 V2000
  140.8300   73.7290  220.6340 O   0  0  0  0  0  0  0  0  0  0  0  0
  140.2010   73.7620  221.7060 C   0  0  0  0  0  0  0  0  0  0  0  0
  139.7310   75.0100  222.1810 N   0  0  0  0  0  0  0  0  0  0  0  0
  139.9470   76.2570  221.4780 C   0  0  0  0  0  0  0  0  0  0  0  0
  139.6230   77.4320  222.3230 C   0  0  0  0  0  0  0  0  0  0  0  0
  138.6490   77.4630  223.0870 O   0  0  0  0  0  0  0  0  0  0  0  0
  140.4770   78.5660  222.2420 N   0  0  0  0  0  0  0  0  0  0  0  0
  141.8150   78.6180  221.6570 C   0  0  0  0  0  0  0  0  0  0  0  0
  142.5280   79.4110  222.7610 C   0  0  0  0  0  0  0  0  0  0  0  0
  141.5650   80.5650  222.9450 C   0  0  2  0  0  0  0  0  0  0  0  0
  141.6630   81.1250  224.2030 F   0  0  0  0  0  0  0  0  0  0  0  0
  140.2260   79.9140  222.7130 C   0  0  0  0  0  0  0  0  0  0  0  0
  139.9240   72.5630  222.5030 C   0  0  0  0  0  0  0  0  0  0  0  0
  138.9200   71.6840  222.1340 C   0  0  0  0  0  0  0  0  0  0  0  0
  138.6330   70.5510  222.8590 C   0  0  0  0  0  0  0  0  0  0  0  0
  139.3720   70.2850  223.9910 C   0  0  0  0  0  0  0  0  0  0  0  0
  139.1060   69.1470  224.7460 C   0  0  0  0  0  0  0  0  0  0  0  0
  139.8740   68.9040  225.8890 C   0  0  0  0  0  0  0  0  0  0  0  0
  139.5510   67.4770  226.8450 Cl  0  0  0  0  0  0  0  0  0  0  0  0
  140.8830   69.7990  226.2490 C   0  0  0  0  0  0  0  0  0  0  0  0
  141.1210   70.9220  225.4740 C   0  0  0  0  0  0  0  0  0  0  0  0
  140.3730   71.1790  224.3410 C   0  0  0  0  0  0  0  0  0  0  0  0
  140.6300   72.2790  223.6120 N   0  0  0  0  0  0  0  0  0  0  0  0
  139.2040   75.0360  223.0820 H   0  0  0  0  0  0  0  0  0  0  0  0
  141.0031   76.3166  221.1760 H   0  0  0  0  0  0  0  0  0  0  0  0
  139.2822   76.2738  220.6018 H   0  0  0  0  0  0  0  0  0  0  0  0
  142.2468   77.6150  221.5249 H   0  0  0  0  0  0  0  0  0  0  0  0
  141.8741   79.0528  220.6483 H   0  0  0  0  0  0  0  0  0  0  0  0
  142.6320   78.8192  223.6824 H   0  0  0  0  0  0  0  0  0  0  0  0
  143.5576   79.7105  222.5155 H   0  0  0  0  0  0  0  0  0  0  0  0
  141.7592   81.4079  222.2654 H   0  0  0  0  0  0  0  0  0  0  0  0
  139.6543   79.8841  223.6523 H   0  0  0  0  0  0  0  0  0  0  0  0
  139.6402   80.4814  221.9748 H   0  0  0  0  0  0  0  0  0  0  0  0
  138.3316   71.8992  221.2299 H   0  0  0  0  0  0  0  0  0  0  0  0
  137.8292   69.8706  222.5413 H   0  0  0  0  0  0  0  0  0  0  0  0
  138.3068   68.4517  224.4494 H   0  0  0  0  0  0  0  0  0  0  0  0
  141.4889   69.6124  227.1479 H   0  0  0  0  0  0  0  0  0  0  0  0
  141.9188   71.6210  225.7653 H   0  0  0  0  0  0  0  0  0  0  0  0
  1  2  2  0
  2  3  1  0
  3  4  1  0
  4  5  1  0
  5  6  2  0
  5  7  1  0
  7  8  1  0
  8  9  1  0
  9 10  1  0
 10 11  1  0
 10 12  1  0
  2 13  1  0
 13 14  2  0
 14 15  1  0
 15 16  2  0
 16 17  1  0
 17 18  2  0
 18 19  1  0
 18 20  1  0
 20 21  2  0
 21 22  1  0
 22 23  2  0
 12  7  1  0
 23 13  1  0
 22 16  1  0
  3 24  1  0
  4 25  1  0
  4 26  1  0
  8 27  1  0
  8 28  1  0
  9 29  1  0
  9 30  1  0
 10 31  1  6
 12 32  1  0
 12 33  1  0
 14 34  1  0
 15 35  1  0
 17 36  1  0
 20 37  1  0
 21 38  1  0
M  END
>  <smiles>  (12) 
O=C(NCC(=O)N1CC[C@H](F)C1)c1ccc2cc(Cl)ccc2n1

>  <score_type>  (12) 
oracle

>  <origin>  (12) 
autodockgpu

>  <m_score__min__energy>  (12) 
-6.9199999999999999

>  <m_primary>  (12) 
energy

>  <rmsd>  (12) 
3.9381150369136937

>  <m_score__min__rmsd>  (12) 
3.9381150369136937

>  <meeko>  (12) 
{"free_energy": -6.59, "intermolecular_energy": -7.78, "internal_energy": -0.94, "cluster_size": 12, "cluster_id": 1, "rank_in_cluster": 12}

>  <energy>  (12) 
-6.59

>  <cluster_rmsd>  (12) 
1.49

>  <cluster>  (12) 
1

$$$$

     RDKit          3D

 38 40  0  0  0  0  0  0  0  0999 V2000
  139.9140   69.8150  222.3690 O   0  0  0  0  0  0  0  0  0  0  0  0
  139.6120   70.9420  222.8020 C   0  0  0  0  0  0  0  0  0  0  0  0
  138.6870   71.0360  223.8680 N   0  0  0  0  0  0  0  0  0  0  0  0
  138.0690   69.8810  224.4840 C   0  0  0  0  0  0  0  0  0  0  0  0
  139.0680   69.0030  225.1400 C   0  0  0  0  0  0  0  0  0  0  0  0
  139.1880   67.8000  224.8670 O   0  0  0  0  0  0  0  0  0  0  0  0
  139.9180   69.5790  226.1230 N   0  0  0  0  0  0  0  0  0  0  0  0
  140.0110   69.2070  227.5320 C   0  0  0  0  0  0  0  0  0  0  0  0
  140.0120   70.6110  228.1520 C   0  0  0  0  0  0  0  0  0  0  0  0
  141.0750   71.2880  227.3130 C   0  0  2  0  0  0  0  0  0  0  0  0
  140.9110   72.6580  227.2780 F   0  0  0  0  0  0  0  0  0  0  0  0
  140.8770   70.6550  225.9600 C   0  0  0  0  0  0  0  0  0  0  0  0
  140.1740   72.1800  222.2540 C   0  0  0  0  0  0  0  0  0  0  0  0
  141.3280   72.1570  221.4890 C   0  0  0  0  0  0  0  0  0  0  0  0
  141.8820   73.2990  220.9610 C   0  0  0  0  0  0  0  0  0  0  0  0
  141.2660   74.5080  221.2040 C   0  0  0  0  0  0  0  0  0  0  0  0
  141.8020   75.6810  220.6840 C   0  0  0  0  0  0  0  0  0  0  0  0
  141.1520   76.8920  220.9480 C   0  0  0  0  0  0  0  0  0  0  0  0
  141.8150   78.3730  220.2990 Cl  0  0  0  0  0  0  0  0  0  0  0  0
  139.9900   76.9000  221.7210 C   0  0  0  0  0  0  0  0  0  0  0  0
  139.4840   75.7120  222.2230 C   0  0  0  0  0  0  0  0  0  0  0  0
  140.1110   74.5070  221.9730 C   0  0  0  0  0  0  0  0  0  0  0  0
  139.5930   73.3720  222.4760 N   0  0  0  0  0  0  0  0  0  0  0  0
  138.4340   71.9830  224.2290 H   0  0  0  0  0  0  0  0  0  0  0  0
  137.3470   70.2246  225.2395 H   0  0  0  0  0  0  0  0  0  0  0  0
  137.5705   69.2995  223.6944 H   0  0  0  0  0  0  0  0  0  0  0  0
  139.1456   68.6122  227.8595 H   0  0  0  0  0  0  0  0  0  0  0  0
  140.8690   68.5721  227.7978 H   0  0  0  0  0  0  0  0  0  0  0  0
  139.0345   71.1033  228.0420 H   0  0  0  0  0  0  0  0  0  0  0  0
  140.2036   70.6316  229.2350 H   0  0  0  0  0  0  0  0  0  0  0  0
  142.0930   71.1540  227.7076 H   0  0  0  0  0  0  0  0  0  0  0  0
  140.4898   71.3998  225.2491 H   0  0  0  0  0  0  0  0  0  0  0  0
  141.8298   70.2710  225.5667 H   0  0  0  0  0  0  0  0  0  0  0  0
  141.8185   71.1913  221.2971 H   0  0  0  0  0  0  0  0  0  0  0  0
  142.7994   73.2490  220.3561 H   0  0  0  0  0  0  0  0  0  0  0  0
  142.7190   75.6576  220.0770 H   0  0  0  0  0  0  0  0  0  0  0  0
  139.4760   77.8494  221.9316 H   0  0  0  0  0  0  0  0  0  0  0  0
  138.5674   75.7287  222.8310 H   0  0  0  0  0  0  0  0  0  0  0  0
  1  2  2  0
  2  3  1  0
  3  4  1  0
  4  5  1  0
  5  6  2  0
  5  7  1  0
  7  8  1  0
  8  9  1  0
  9 10  1  0
 10 11  1  0
 10 12  1  0
  2 13  1  0
 13 14  2  0
 14 15  1  0
 15 16  2  0
 16 17  1  0
 17 18  2  0
 18 19  1  0
 18 20  1  0
 20 21  2  0
 21 22  1  0
 22 23  2  0
 12  7  1  0
 23 13  1  0
 22 16  1  0
  3 24  1  0
  4 25  1  0
  4 26  1  0
  8 27  1  0
  8 28  1  0
  9 29  1  0
  9 30  1  0
 10 31  1  1
 12 32  1  0
 12 33  1  0
 14 34  1  0
 15 35  1  0
 17 36  1  0
 20 37  1  0
 21 38  1  0
M  END
>  <smiles>  (13) 
O=C(NCC(=O)N1CC[C@H](F)C1)c1ccc2cc(Cl)ccc2n1

>  <score_type>  (13) 
oracle

>  <origin>  (13) 
autodockgpu

>  <m_score__min__energy>  (13) 
-6.9199999999999999

>  <m_primary>  (13) 
energy

>  <rmsd>  (13) 
8.01678644297877

>  <m_score__min__rmsd>  (13) 
8.01678644297877

>  <meeko>  (13) 
{"free_energy": -6.72, "intermolecular_energy": -7.91, "internal_energy": -1.19, "cluster_size": 29, "cluster_id": 2, "rank_in_cluster": 3}

>  <energy>  (13) 
-6.74

>  <cluster_rmsd>  (13) 
0.0

>  <cluster>  (13) 
2

$$$$

     RDKit          3D

 38 40  0  0  0  0  0  0  0  0999 V2000
  140.1800   72.5430  220.7440 O   0  0  0  0  0  0  0  0  0  0  0  0
  139.9400   72.8610  221.9230 C   0  0  0  0  0  0  0  0  0  0  0  0
  139.6040   74.2050  222.2110 N   0  0  0  0  0  0  0  0  0  0  0  0
  139.5260   75.2360  221.1980 C   0  0  0  0  0  0  0  0  0  0  0  0
  140.6020   76.2450  221.3500 C   0  0  0  0  0  0  0  0  0  0  0  0
  141.6520   76.2130  220.6930 O   0  0  0  0  0  0  0  0  0  0  0  0
  140.4060   77.2900  222.2940 N   0  0  0  0  0  0  0  0  0  0  0  0
  139.1360   77.9000  222.6780 C   0  0  0  0  0  0  0  0  0  0  0  0
  139.5560   79.3760  222.6350 C   0  0  0  0  0  0  0  0  0  0  0  0
  140.8310   79.3290  223.4500 C   0  0  2  0  0  0  0  0  0  0  0  0
  141.6860   80.3660  223.1330 F   0  0  0  0  0  0  0  0  0  0  0  0
  141.4040   77.9850  223.0830 C   0  0  0  0  0  0  0  0  0  0  0  0
  139.9900   71.9020  223.0310 C   0  0  0  0  0  0  0  0  0  0  0  0
  139.5400   70.6030  222.8640 C   0  0  0  0  0  0  0  0  0  0  0  0
  139.5710   69.6790  223.8810 C   0  0  0  0  0  0  0  0  0  0  0  0
  140.0690   70.0610  225.1080 C   0  0  0  0  0  0  0  0  0  0  0  0
  140.1150   69.1490  226.1570 C   0  0  0  0  0  0  0  0  0  0  0  0
  140.6260   69.5670  227.3900 C   0  0  0  0  0  0  0  0  0  0  0  0
  140.6890   68.4310  228.7160 Cl  0  0  0  0  0  0  0  0  0  0  0  0
  141.0760   70.8800  227.5440 C   0  0  0  0  0  0  0  0  0  0  0  0
  141.0160   71.7610  226.4770 C   0  0  0  0  0  0  0  0  0  0  0  0
  140.5150   71.3660  225.2520 C   0  0  0  0  0  0  0  0  0  0  0  0
  140.4700   72.2490  224.2380 N   0  0  0  0  0  0  0  0  0  0  0  0
  139.4030   74.4700  223.2010 H   0  0  0  0  0  0  0  0  0  0  0  0
  139.6155   74.7677  220.2067 H   0  0  0  0  0  0  0  0  0  0  0  0
  138.5597   75.7497  221.3090 H   0  0  0  0  0  0  0  0  0  0  0  0
  138.3365   77.6774  221.9560 H   0  0  0  0  0  0  0  0  0  0  0  0
  138.7156   77.5554  223.6343 H   0  0  0  0  0  0  0  0  0  0  0  0
  139.7453   79.7137  221.6054 H   0  0  0  0  0  0  0  0  0  0  0  0
  138.7979   80.0776  223.0133 H   0  0  0  0  0  0  0  0  0  0  0  0
  140.6629   79.4467  224.5307 H   0  0  0  0  0  0  0  0  0  0  0  0
  142.3241   78.1163  222.4946 H   0  0  0  0  0  0  0  0  0  0  0  0
  141.6552   77.4097  223.9863 H   0  0  0  0  0  0  0  0  0  0  0  0
  139.1440   70.3002  221.8834 H   0  0  0  0  0  0  0  0  0  0  0  0
  139.2054   68.6543  223.7187 H   0  0  0  0  0  0  0  0  0  0  0  0
  139.7562   68.1183  226.0195 H   0  0  0  0  0  0  0  0  0  0  0  0
  141.4778   71.2142  228.5119 H   0  0  0  0  0  0  0  0  0  0  0  0
  141.3735   72.7931  226.6074 H   0  0  0  0  0  0  0  0  0  0  0  0
  1  2  2  0
  2  3  1  0
  3  4  1  0
  4  5  1  0
  5  6  2  0
  5  7  1  0
  7  8  1  0
  8  9  1  0
  9 10  1  0
 10 11  1  0
 10 12  1  0
  2 13  1  0
 13 14  2  0
 14 15  1  0
 15 16  2  0
 16 17  1  0
 17 18  2  0
 18 19  1  0
 18 20  1  0
 20 21  2  0
 21 22  1  0
 22 23  2  0
 12  7  1  0
 23 13  1  0
 22 16  1  0
  3 24  1  0
  4 25  1  0
  4 26  1  0
  8 27  1  0
  8 28  1  0
  9 29  1  0
  9 30  1  0
 10 31  1  1
 12 32  1  0
 12 33  1  0
 14 34  1  0
 15 35  1  0
 17 36  1  0
 20 37  1  0
 21 38  1  0
M  END
>  <smiles>  (14) 
O=C(NCC(=O)N1CC[C@H](F)C1)c1ccc2cc(Cl)ccc2n1

>  <score_type>  (14) 
oracle

>  <origin>  (14) 
autodockgpu

>  <m_score__min__energy>  (14) 
-6.9199999999999999

>  <m_primary>  (14) 
energy

>  <rmsd>  (14) 
3.431090912003547

>  <m_score__min__rmsd>  (14) 
3.431090912003547

>  <meeko>  (14) 
{"free_energy": -6.81, "intermolecular_energy": -8.0, "internal_energy": -0.87, "cluster_size": 12, "cluster_id": 1, "rank_in_cluster": 8}

>  <energy>  (14) 
-6.74

>  <cluster_rmsd>  (14) 
0.06

>  <cluster>  (14) 
2

$$$$

     RDKit          3D

 38 40  0  0  0  0  0  0  0  0999 V2000
  141.1760   71.5330  221.1830 O   0  0  0  0  0  0  0  0  0  0  0  0
  140.5440   72.4450  221.7460 C   0  0  0  0  0  0  0  0  0  0  0  0
  139.4810   72.1010  222.6140 N   0  0  0  0  0  0  0  0  0  0  0  0
  139.0890   70.7340  222.8830 C   0  0  0  0  0  0  0  0  0  0  0  0
  138.6420   70.5520  224.2860 C   0  0  0  0  0  0  0  0  0  0  0  0
  137.4520   70.4100  224.6000 O   0  0  0  0  0  0  0  0  0  0  0  0
  139.6350   70.5410  225.3040 N   0  0  0  0  0  0  0  0  0  0  0  0
  139.8060   69.5400  226.3530 C   0  0  0  0  0  0  0  0  0  0  0  0
  140.0210   70.4780  227.5480 C   0  0  0  0  0  0  0  0  0  0  0  0
  141.0780   71.4070  226.9890 C   0  0  2  0  0  0  0  0  0  0  0  0
  141.0700   72.6370  227.6160 F   0  0  0  0  0  0  0  0  0  0  0  0
  140.6930   71.5050  225.5360 C   0  0  0  0  0  0  0  0  0  0  0  0
  140.8520   73.8650  221.5480 C   0  0  0  0  0  0  0  0  0  0  0  0
  141.8610   74.2570  220.6840 C   0  0  0  0  0  0  0  0  0  0  0  0
  142.1760   75.5790  220.4760 C   0  0  0  0  0  0  0  0  0  0  0  0
  141.4620   76.5440  221.1500 C   0  0  0  0  0  0  0  0  0  0  0  0
  141.7570   77.8900  220.9610 C   0  0  0  0  0  0  0  0  0  0  0  0
  141.0130   78.8470  221.6610 C   0  0  0  0  0  0  0  0  0  0  0  0
  141.3730   80.5410  221.4310 Cl  0  0  0  0  0  0  0  0  0  0  0  0
  139.9990   78.4360  222.5280 C   0  0  0  0  0  0  0  0  0  0  0  0
  139.7320   77.0870  222.6920 C   0  0  0  0  0  0  0  0  0  0  0  0
  140.4560   76.1290  222.0100 C   0  0  0  0  0  0  0  0  0  0  0  0
  140.1700   74.8270  222.1930 N   0  0  0  0  0  0  0  0  0  0  0  0
  138.9520   72.8690  223.0850 H   0  0  0  0  0  0  0  0  0  0  0  0
  138.2637   70.4616  222.2087 H   0  0  0  0  0  0  0  0  0  0  0  0
  139.9652   70.0896  222.7183 H   0  0  0  0  0  0  0  0  0  0  0  0
  138.9097   68.9143  226.4760 H   0  0  0  0  0  0  0  0  0  0  0  0
  140.6055   68.8048  226.1792 H   0  0  0  0  0  0  0  0  0  0  0  0
  139.1004   71.0211  227.8077 H   0  0  0  0  0  0  0  0  0  0  0  0
  140.3065   69.9705  228.4812 H   0  0  0  0  0  0  0  0  0  0  0  0
  142.1042   71.0407  227.1401 H   0  0  0  0  0  0  0  0  0  0  0  0
  140.3339   72.5197  225.3094 H   0  0  0  0  0  0  0  0  0  0  0  0
  141.5580   71.2969  224.8892 H   0  0  0  0  0  0  0  0  0  0  0  0
  142.4297   73.4843  220.1459 H   0  0  0  0  0  0  0  0  0  0  0  0
  142.9834   75.8604  219.7840 H   0  0  0  0  0  0  0  0  0  0  0  0
  142.5598   78.1967  220.2744 H   0  0  0  0  0  0  0  0  0  0  0  0
  139.4119   79.1839  223.0811 H   0  0  0  0  0  0  0  0  0  0  0  0
  138.9302   76.7735  223.3767 H   0  0  0  0  0  0  0  0  0  0  0  0
  1  2  2  0
  2  3  1  0
  3  4  1  0
  4  5  1  0
  5  6  2  0
  5  7  1  0
  7  8  1  0
  8  9  1  0
  9 10  1  0
 10 11  1  0
 10 12  1  0
  2 13  1  0
 13 14  2  0
 14 15  1  0
 15 16  2  0
 16 17  1  0
 17 18  2  0
 18 19  1  0
 18 20  1  0
 20 21  2  0
 21 22  1  0
 22 23  2  0
 12  7  1  0
 23 13  1  0
 22 16  1  0
  3 24  1  0
  4 25  1  0
  4 26  1  0
  8 27  1  0
  8 28  1  0
  9 29  1  0
  9 30  1  0
 10 31  1  6
 12 32  1  0
 12 33  1  0
 14 34  1  0
 15 35  1  0
 17 36  1  0
 20 37  1  0
 21 38  1  0
M  END
>  <smiles>  (15) 
O=C(NCC(=O)N1CC[C@H](F)C1)c1ccc2cc(Cl)ccc2n1

>  <score_type>  (15) 
oracle

>  <origin>  (15) 
autodockgpu

>  <m_score__min__energy>  (15) 
-6.9199999999999999

>  <m_primary>  (15) 
energy

>  <rmsd>  (15) 
8.1765307040511

>  <m_score__min__rmsd>  (15) 
8.1765307040511

>  <meeko>  (15) 
{"free_energy": -6.57, "intermolecular_energy": -7.77, "internal_energy": -1.12, "cluster_size": 29, "cluster_id": 2, "rank_in_cluster": 23}

>  <energy>  (15) 
-6.72

>  <cluster_rmsd>  (15) 
0.09

>  <cluster>  (15) 
2

$$$$

     RDKit          3D

 38 40  0  0  0  0  0  0  0  0999 V2000
  141.4740   71.9380  221.0080 O   0  0  0  0  0  0  0  0  0  0  0  0
  140.8680   72.8370  221.6180 C   0  0  0  0  0  0  0  0  0  0  0  0
  139.9020   72.4710  222.5860 N   0  0  0  0  0  0  0  0  0  0  0  0
  139.5810   71.0970  222.9040 C   0  0  0  0  0  0  0  0  0  0  0  0
  138.7370   70.9920  224.1190 C   0  0  0  0  0  0  0  0  0  0  0  0
  137.6060   71.4940  224.1980 O   0  0  0  0  0  0  0  0  0  0  0  0
  139.2600   70.2820  225.2340 N   0  0  0  0  0  0  0  0  0  0  0  0
  140.3410   70.7070  226.1180 C   0  0  0  0  0  0  0  0  0  0  0  0
  141.1290   69.3920  226.1830 C   0  0  0  0  0  0  0  0  0  0  0  0
  140.0190   68.4140  226.5020 C   0  0  2  0  0  0  0  0  0  0  0  0
  140.3250   67.1310  226.0940 F   0  0  0  0  0  0  0  0  0  0  0  0
  138.8490   68.9880  225.7460 C   0  0  0  0  0  0  0  0  0  0  0  0
  141.1100   74.2630  221.3780 C   0  0  0  0  0  0  0  0  0  0  0  0
  141.9680   74.6760  220.3730 C   0  0  0  0  0  0  0  0  0  0  0  0
  142.2180   76.0050  220.1210 C   0  0  0  0  0  0  0  0  0  0  0  0
  141.5910   76.9550  220.8970 C   0  0  0  0  0  0  0  0  0  0  0  0
  141.8230   78.3070  220.6670 C   0  0  0  0  0  0  0  0  0  0  0  0
  141.1720   79.2480  221.4720 C   0  0  0  0  0  0  0  0  0  0  0  0
  141.4540   80.9500  221.1930 Cl  0  0  0  0  0  0  0  0  0  0  0  0
  140.3090   78.8160  222.4820 C   0  0  0  0  0  0  0  0  0  0  0  0
  140.1010   77.4620  222.6820 C   0  0  0  0  0  0  0  0  0  0  0  0
  140.7360   76.5180  221.8980 C   0  0  0  0  0  0  0  0  0  0  0  0
  140.5110   75.2110  222.1200 N   0  0  0  0  0  0  0  0  0  0  0  0
  139.3940   73.2280  223.0960 H   0  0  0  0  0  0  0  0  0  0  0  0
  139.0395   70.6530  222.0557 H   0  0  0  0  0  0  0  0  0  0  0  0
  140.5232   70.5632  223.0969 H   0  0  0  0  0  0  0  0  0  0  0  0
  140.9352   71.5227  225.6803 H   0  0  0  0  0  0  0  0  0  0  0  0
  140.0249   71.1175  227.0883 H   0  0  0  0  0  0  0  0  0  0  0  0
  141.6096   69.1597  225.2212 H   0  0  0  0  0  0  0  0  0  0  0  0
  141.9583   69.3924  226.9057 H   0  0  0  0  0  0  0  0  0  0  0  0
  139.8281   68.3092  227.5802 H   0  0  0  0  0  0  0  0  0  0  0  0
  138.5759   68.3230  224.9134 H   0  0  0  0  0  0  0  0  0  0  0  0
  137.9724   69.0892  226.4028 H   0  0  0  0  0  0  0  0  0  0  0  0
  142.4670   73.9152  219.7547 H   0  0  0  0  0  0  0  0  0  0  0  0
  142.9052   76.3034  219.3155 H   0  0  0  0  0  0  0  0  0  0  0  0
  142.5055   78.6303  219.8672 H   0  0  0  0  0  0  0  0  0  0  0  0
  139.7949   79.5515  223.1182 H   0  0  0  0  0  0  0  0  0  0  0  0
  139.4183   77.1320  223.4789 H   0  0  0  0  0  0  0  0  0  0  0  0
  1  2  2  0
  2  3  1  0
  3  4  1  0
  4  5  1  0
  5  6  2  0
  5  7  1  0
  7  8  1  0
  8  9  1  0
  9 10  1  0
 10 11  1  0
 10 12  1  0
  2 13  1  0
 13 14  2  0
 14 15  1  0
 15 16  2  0
 16 17  1  0
 17 18  2  0
 18 19  1  0
 18 20  1  0
 20 21  2  0
 21 22  1  0
 22 23  2  0
 12  7  1  0
 23 13  1  0
 22 16  1  0
  3 24  1  0
  4 25  1  0
  4 26  1  0
  8 27  1  0
  8 28  1  0
  9 29  1  0
  9 30  1  0
 10 31  1  1
 12 32  1  0
 12 33  1  0
 14 34  1  0
 15 35  1  0
 17 36  1  0
 20 37  1  0
 21 38  1  0
M  END
>  <smiles>  (16) 
O=C(NCC(=O)N1CC[C@H](F)C1)c1ccc2cc(Cl)ccc2n1

>  <score_type>  (16) 
oracle

>  <origin>  (16) 
autodockgpu

>  <m_score__min__energy>  (16) 
-6.9199999999999999

>  <m_primary>  (16) 
energy

>  <rmsd>  (16) 
8.413164637188187

>  <m_score__min__rmsd>  (16) 
8.413164637188187

>  <meeko>  (16) 
{"free_energy": -6.27, "intermolecular_energy": -7.46, "internal_energy": -1.1, "cluster_size": 2, "cluster_id": 4, "rank_in_cluster": 2}

>  <energy>  (16) 
-6.72

>  <cluster_rmsd>  (16) 
0.08

>  <cluster>  (16) 
2

$$$$

     RDKit          3D

 38 40  0  0  0  0  0  0  0  0999 V2000
  139.9460   69.8630  222.4110 O   0  0  0  0  0  0  0  0  0  0  0  0
  139.6140   70.9940  222.8090 C   0  0  0  0  0  0  0  0  0  0  0  0
  138.6660   71.0960  223.8550 N   0  0  0  0  0  0  0  0  0  0  0  0
  138.0580   69.9450  224.4870 C   0  0  0  0  0  0  0  0  0  0  0  0
  139.0710   69.0520  225.1020 C   0  0  0  0  0  0  0  0  0  0  0  0
  139.1880   67.8570  224.7970 O   0  0  0  0  0  0  0  0  0  0  0  0
  139.9390   69.6060  226.0830 N   0  0  0  0  0  0  0  0  0  0  0  0
  140.1130   69.1510  227.4590 C   0  0  0  0  0  0  0  0  0  0  0  0
  140.0800   70.5120  228.1680 C   0  0  0  0  0  0  0  0  0  0  0  0
  141.0710   71.2900  227.3300 C   0  0  2  0  0  0  0  0  0  0  0  0
  140.8450   72.6500  227.3900 F   0  0  0  0  0  0  0  0  0  0  0  0
  140.8400   70.7340  225.9490 C   0  0  0  0  0  0  0  0  0  0  0  0
  140.1630   72.2300  222.2420 C   0  0  0  0  0  0  0  0  0  0  0  0
  141.2840   72.2000  221.4300 C   0  0  0  0  0  0  0  0  0  0  0  0
  141.8250   73.3390  220.8830 C   0  0  0  0  0  0  0  0  0  0  0  0
  141.2290   74.5510  221.1540 C   0  0  0  0  0  0  0  0  0  0  0  0
  141.7520   75.7220  220.6160 C   0  0  0  0  0  0  0  0  0  0  0  0
  141.1240   76.9370  220.9090 C   0  0  0  0  0  0  0  0  0  0  0  0
  141.7720   78.4150  220.2380 Cl  0  0  0  0  0  0  0  0  0  0  0  0
  139.9950   76.9520  221.7290 C   0  0  0  0  0  0  0  0  0  0  0  0
  139.5000   75.7670  222.2480 C   0  0  0  0  0  0  0  0  0  0  0  0
  140.1070   74.5580  221.9700 C   0  0  0  0  0  0  0  0  0  0  0  0
  139.6010   73.4250  222.4910 N   0  0  0  0  0  0  0  0  0  0  0  0
  138.3890   72.0460  224.1880 H   0  0  0  0  0  0  0  0  0  0  0  0
  137.3679   70.2924  225.2700 H   0  0  0  0  0  0  0  0  0  0  0  0
  137.5245   69.3734  223.7133 H   0  0  0  0  0  0  0  0  0  0  0  0
  139.2908   68.4965  227.7841 H   0  0  0  0  0  0  0  0  0  0  0  0
  141.0096   68.5418  227.6460 H   0  0  0  0  0  0  0  0  0  0  0  0
  139.0774   70.9631  228.1326 H   0  0  0  0  0  0  0  0  0  0  0  0
  140.3206   70.4736  229.2407 H   0  0  0  0  0  0  0  0  0  0  0  0
  142.1108   71.1805  227.6717 H   0  0  0  0  0  0  0  0  0  0  0  0
  140.3878   71.5024  225.3047 H   0  0  0  0  0  0  0  0  0  0  0  0
  141.7901   70.4210  225.4915 H   0  0  0  0  0  0  0  0  0  0  0  0
  141.7581   71.2310  221.2152 H   0  0  0  0  0  0  0  0  0  0  0  0
  142.7167   73.2838  220.2412 H   0  0  0  0  0  0  0  0  0  0  0  0
  142.6432   75.6932  219.9718 H   0  0  0  0  0  0  0  0  0  0  0  0
  139.4981   77.9050  221.9633 H   0  0  0  0  0  0  0  0  0  0  0  0
  138.6087   75.7892  222.8923 H   0  0  0  0  0  0  0  0  0  0  0  0
  1  2  2  0
  2  3  1  0
  3  4  1  0
  4  5  1  0
  5  6  2  0
  5  7  1  0
  7  8  1  0
  8  9  1  0
  9 10  1  0
 10 11  1  0
 10 12  1  0
  2 13  1  0
 13 14  2  0
 14 15  1  0
 15 16  2  0
 16 17  1  0
 17 18  2  0
 18 19  1  0
 18 20  1  0
 20 21  2  0
 21 22  1  0
 22 23  2  0
 12  7  1  0
 23 13  1  0
 22 16  1  0
  3 24  1  0
  4 25  1  0
  4 26  1  0
  8 27  1  0
  8 28  1  0
  9 29  1  0
  9 30  1  0
 10 31  1  1
 12 32  1  0
 12 33  1  0
 14 34  1  0
 15 35  1  0
 17 36  1  0
 20 37  1  0
 21 38  1  0
M  END
>  <smiles>  (17) 
O=C(NCC(=O)N1CC[C@H](F)C1)c1ccc2cc(Cl)ccc2n1

>  <score_type>  (17) 
oracle

>  <origin>  (17) 
autodockgpu

>  <m_score__min__energy>  (17) 
-6.9199999999999999

>  <m_primary>  (17) 
energy

>  <rmsd>  (17) 
8.026847475985937

>  <m_score__min__rmsd>  (17) 
8.026847475985937

>  <meeko>  (17) 
{"free_energy": -6.71, "intermolecular_energy": -7.9, "internal_energy": -1.19, "cluster_size": 29, "cluster_id": 2, "rank_in_cluster": 7}

>  <energy>  (17) 
-6.72

>  <cluster_rmsd>  (17) 
0.06

>  <cluster>  (17) 
2

$$$$

     RDKit          3D

 38 40  0  0  0  0  0  0  0  0999 V2000
  139.9770   70.2170  222.1400 O   0  0  0  0  0  0  0  0  0  0  0  0
  139.5950   71.3330  222.5390 C   0  0  0  0  0  0  0  0  0  0  0  0
  138.5760   71.3930  223.5190 N   0  0  0  0  0  0  0  0  0  0  0  0
  137.9520   70.2170  224.0860 C   0  0  0  0  0  0  0  0  0  0  0  0
  138.9360   69.3420  224.7690 C   0  0  0  0  0  0  0  0  0  0  0  0
  138.8960   68.1050  224.7050 O   0  0  0  0  0  0  0  0  0  0  0  0
  139.9650   69.9640  225.5280 N   0  0  0  0  0  0  0  0  0  0  0  0
  141.0960   69.3080  226.1790 C   0  0  0  0  0  0  0  0  0  0  0  0
  141.0420   70.0250  227.5350 C   0  0  0  0  0  0  0  0  0  0  0  0
  140.9570   71.4690  227.0860 C   0  0  2  0  0  0  0  0  0  0  0  0
  140.3660   72.2730  228.0390 F   0  0  0  0  0  0  0  0  0  0  0  0
  140.1300   71.3730  225.8290 C   0  0  0  0  0  0  0  0  0  0  0  0
  140.1550   72.5910  222.0360 C   0  0  0  0  0  0  0  0  0  0  0  0
  141.2700   72.5920  221.2150 C   0  0  0  0  0  0  0  0  0  0  0  0
  141.8210   73.7530  220.7260 C   0  0  0  0  0  0  0  0  0  0  0  0
  141.2410   74.9560  221.0670 C   0  0  0  0  0  0  0  0  0  0  0  0
  141.7750   76.1480  220.5890 C   0  0  0  0  0  0  0  0  0  0  0  0
  141.1630   77.3520  220.9530 C   0  0  0  0  0  0  0  0  0  0  0  0
  141.8240   78.8570  220.3580 Cl  0  0  0  0  0  0  0  0  0  0  0  0
  140.0400   77.3360  221.7820 C   0  0  0  0  0  0  0  0  0  0  0  0
  139.5350   76.1300  222.2390 C   0  0  0  0  0  0  0  0  0  0  0  0
  140.1250   74.9310  221.8910 C   0  0  0  0  0  0  0  0  0  0  0  0
  139.6090   73.7780  222.3530 N   0  0  0  0  0  0  0  0  0  0  0  0
  138.2570   72.3300  223.8520 H   0  0  0  0  0  0  0  0  0  0  0  0
  137.1923   70.5345  224.8154 H   0  0  0  0  0  0  0  0  0  0  0  0
  137.4985   69.6428  223.2646 H   0  0  0  0  0  0  0  0  0  0  0  0
  140.9417   68.2235  226.2795 H   0  0  0  0  0  0  0  0  0  0  0  0
  142.0550   69.3783  225.6448 H   0  0  0  0  0  0  0  0  0  0  0  0
  140.1560   69.7282  228.1154 H   0  0  0  0  0  0  0  0  0  0  0  0
  141.8878   69.8035  228.2026 H   0  0  0  0  0  0  0  0  0  0  0  0
  141.9407   71.9331  226.9221 H   0  0  0  0  0  0  0  0  0  0  0  0
  139.1476   71.8415  225.9880 H   0  0  0  0  0  0  0  0  0  0  0  0
  140.6253   71.8938  224.9962 H   0  0  0  0  0  0  0  0  0  0  0  0
  141.7310   71.6306  220.9446 H   0  0  0  0  0  0  0  0  0  0  0  0
  142.7074   73.7223  220.0753 H   0  0  0  0  0  0  0  0  0  0  0  0
  142.6613   76.1440  219.9375 H   0  0  0  0  0  0  0  0  0  0  0  0
  139.5565   78.2805  222.0721 H   0  0  0  0  0  0  0  0  0  0  0  0
  138.6486   76.1273  222.8904 H   0  0  0  0  0  0  0  0  0  0  0  0
  1  2  2  0
  2  3  1  0
  3  4  1  0
  4  5  1  0
  5  6  2  0
  5  7  1  0
  7  8  1  0
  8  9  1  0
  9 10  1  0
 10 11  1  0
 10 12  1  0
  2 13  1  0
 13 14  2  0
 14 15  1  0
 15 16  2  0
 16 17  1  0
 17 18  2  0
 18 19  1  0
 18 20  1  0
 20 21  2  0
 21 22  1  0
 22 23  2  0
 12  7  1  0
 23 13  1  0
 22 16  1  0
  3 24  1  0
  4 25  1  0
  4 26  1  0
  8 27  1  0
  8 28  1  0
  9 29  1  0
  9 30  1  0
 10 31  1  6
 12 32  1  0
 12 33  1  0
 14 34  1  0
 15 35  1  0
 17 36  1  0
 20 37  1  0
 21 38  1  0
M  END
>  <smiles>  (18) 
O=C(NCC(=O)N1CC[C@H](F)C1)c1ccc2cc(Cl)ccc2n1

>  <score_type>  (18) 
oracle

>  <origin>  (18) 
autodockgpu

>  <m_score__min__energy>  (18) 
-6.9199999999999999

>  <m_primary>  (18) 
energy

>  <rmsd>  (18) 
7.893902622297636

>  <m_score__min__rmsd>  (18) 
7.893902622297636

>  <meeko>  (18) 
{"free_energy": -6.56, "intermolecular_energy": -7.76, "internal_energy": -1.12, "cluster_size": 29, "cluster_id": 2, "rank_in_cluster": 24}

>  <energy>  (18) 
-6.71

>  <cluster_rmsd>  (18) 
0.1

>  <cluster>  (18) 
2

$$$$

     RDKit          3D

 38 40  0  0  0  0  0  0  0  0999 V2000
  139.9420   69.8460  222.3970 O   0  0  0  0  0  0  0  0  0  0  0  0
  139.6280   70.9790  222.8040 C   0  0  0  0  0  0  0  0  0  0  0  0
  138.6930   71.0880  223.8610 N   0  0  0  0  0  0  0  0  0  0  0  0
  138.0800   69.9420  224.4970 C   0  0  0  0  0  0  0  0  0  0  0  0
  139.0880   69.0470  225.1170 C   0  0  0  0  0  0  0  0  0  0  0  0
  139.1970   67.8490  224.8210 O   0  0  0  0  0  0  0  0  0  0  0  0
  139.9600   69.6030  226.0930 N   0  0  0  0  0  0  0  0  0  0  0  0
  140.1570   69.1370  227.4630 C   0  0  0  0  0  0  0  0  0  0  0  0
  140.1140   70.4910  228.1850 C   0  0  0  0  0  0  0  0  0  0  0  0
  141.0860   71.2900  227.3430 C   0  0  2  0  0  0  0  0  0  0  0  0
  140.8430   72.6460  227.4190 F   0  0  0  0  0  0  0  0  0  0  0  0
  140.8450   70.7440  225.9590 C   0  0  0  0  0  0  0  0  0  0  0  0
  140.1840   72.2100  222.2340 C   0  0  0  0  0  0  0  0  0  0  0  0
  141.3180   72.1740  221.4410 C   0  0  0  0  0  0  0  0  0  0  0  0
  141.8670   73.3090  220.8920 C   0  0  0  0  0  0  0  0  0  0  0  0
  141.2650   74.5230  221.1420 C   0  0  0  0  0  0  0  0  0  0  0  0
  141.7950   75.6890  220.6010 C   0  0  0  0  0  0  0  0  0  0  0  0
  141.1610   76.9060  220.8730 C   0  0  0  0  0  0  0  0  0  0  0  0
  141.8170   78.3790  220.1980 Cl  0  0  0  0  0  0  0  0  0  0  0  0
  140.0180   76.9270  221.6750 C   0  0  0  0  0  0  0  0  0  0  0  0
  139.5170   75.7460  222.1970 C   0  0  0  0  0  0  0  0  0  0  0  0
  140.1300   74.5350  221.9390 C   0  0  0  0  0  0  0  0  0  0  0  0
  139.6170   73.4070  222.4620 N   0  0  0  0  0  0  0  0  0  0  0  0
  138.4310   72.0400  224.2000 H   0  0  0  0  0  0  0  0  0  0  0  0
  137.3904   70.2954  225.2777 H   0  0  0  0  0  0  0  0  0  0  0  0
  137.5456   69.3694  223.7246 H   0  0  0  0  0  0  0  0  0  0  0  0
  139.3478   68.4683  227.7917 H   0  0  0  0  0  0  0  0  0  0  0  0
  141.0639   68.5383  227.6335 H   0  0  0  0  0  0  0  0  0  0  0  0
  139.1052   70.9291  228.1648 H   0  0  0  0  0  0  0  0  0  0  0  0
  140.3669   70.4460  229.2546 H   0  0  0  0  0  0  0  0  0  0  0  0
  142.1312   71.1908  227.6711 H   0  0  0  0  0  0  0  0  0  0  0  0
  140.3751   71.5126  225.3278 H   0  0  0  0  0  0  0  0  0  0  0  0
  141.7933   70.4477  225.4869 H   0  0  0  0  0  0  0  0  0  0  0  0
  141.7967   71.2036  221.2431 H   0  0  0  0  0  0  0  0  0  0  0  0
  142.7692   73.2489  220.2655 H   0  0  0  0  0  0  0  0  0  0  0  0
  142.6960   75.6552  219.9709 H   0  0  0  0  0  0  0  0  0  0  0  0
  139.5157   77.8812  221.8921 H   0  0  0  0  0  0  0  0  0  0  0  0
  138.6160   75.7726  222.8275 H   0  0  0  0  0  0  0  0  0  0  0  0
  1  2  2  0
  2  3  1  0
  3  4  1  0
  4  5  1  0
  5  6  2  0
  5  7  1  0
  7  8  1  0
  8  9  1  0
  9 10  1  0
 10 11  1  0
 10 12  1  0
  2 13  1  0
 13 14  2  0
 14 15  1  0
 15 16  2  0
 16 17  1  0
 17 18  2  0
 18 19  1  0
 18 20  1  0
 20 21  2  0
 21 22  1  0
 22 23  2  0
 12  7  1  0
 23 13  1  0
 22 16  1  0
  3 24  1  0
  4 25  1  0
  4 26  1  0
  8 27  1  0
  8 28  1  0
  9 29  1  0
  9 30  1  0
 10 31  1  1
 12 32  1  0
 12 33  1  0
 14 34  1  0
 15 35  1  0
 17 36  1  0
 20 37  1  0
 21 38  1  0
M  END
>  <smiles>  (19) 
O=C(NCC(=O)N1CC[C@H](F)C1)c1ccc2cc(Cl)ccc2n1

>  <score_type>  (19) 
oracle

>  <origin>  (19) 
autodockgpu

>  <m_score__min__energy>  (19) 
-6.9199999999999999

>  <m_primary>  (19) 
energy

>  <rmsd>  (19) 
8.0346365229906

>  <m_score__min__rmsd>  (19) 
8.0346365229906

>  <meeko>  (19) 
{"free_energy": -6.71, "intermolecular_energy": -7.91, "internal_energy": -1.18, "cluster_size": 29, "cluster_id": 2, "rank_in_cluster": 6}

>  <energy>  (19) 
-6.71

>  <cluster_rmsd>  (19) 
0.09

>  <cluster>  (19) 
2

$$$$

     RDKit          3D

 38 40  0  0  0  0  0  0  0  0999 V2000
  139.9670   69.8330  222.5370 O   0  0  0  0  0  0  0  0  0  0  0  0
  139.6260   70.9770  222.8910 C   0  0  0  0  0  0  0  0  0  0  0  0
  138.6630   71.1120  223.9190 N   0  0  0  0  0  0  0  0  0  0  0  0
  138.0510   69.9830  224.5840 C   0  0  0  0  0  0  0  0  0  0  0  0
  139.0610   69.0810  225.1900 C   0  0  0  0  0  0  0  0  0  0  0  0
  139.1790   67.8900  224.8680 O   0  0  0  0  0  0  0  0  0  0  0  0
  139.9250   69.6210  226.1810 N   0  0  0  0  0  0  0  0  0  0  0  0
  140.1020   69.1410  227.5490 C   0  0  0  0  0  0  0  0  0  0  0  0
  140.0600   70.4880  228.2830 C   0  0  0  0  0  0  0  0  0  0  0  0
  141.0480   71.2880  227.4600 C   0  0  2  0  0  0  0  0  0  0  0  0
  140.8140   72.6450  227.5470 F   0  0  0  0  0  0  0  0  0  0  0  0
  140.8200   70.7570  226.0690 C   0  0  0  0  0  0  0  0  0  0  0  0
  140.1790   72.1930  222.2870 C   0  0  0  0  0  0  0  0  0  0  0  0
  141.2830   72.1310  221.4540 C   0  0  0  0  0  0  0  0  0  0  0  0
  141.8270   73.2520  220.8730 C   0  0  0  0  0  0  0  0  0  0  0  0
  141.2520   74.4770  221.1300 C   0  0  0  0  0  0  0  0  0  0  0  0
  141.7800   75.6300  220.5570 C   0  0  0  0  0  0  0  0  0  0  0  0
  141.1730   76.8590  220.8380 C   0  0  0  0  0  0  0  0  0  0  0  0
  141.8260   78.3140  220.1230 Cl  0  0  0  0  0  0  0  0  0  0  0  0
  140.0610   76.9050  221.6800 C   0  0  0  0  0  0  0  0  0  0  0  0
  139.5620   75.7380  222.2330 C   0  0  0  0  0  0  0  0  0  0  0  0
  140.1480   74.5150  221.9680 C   0  0  0  0  0  0  0  0  0  0  0  0
  139.6370   73.4010  222.5220 N   0  0  0  0  0  0  0  0  0  0  0  0
  138.3790   72.0730  224.2140 H   0  0  0  0  0  0  0  0  0  0  0  0
  137.3861   70.3556  225.3772 H   0  0  0  0  0  0  0  0  0  0  0  0
  137.4900   69.4087  223.8320 H   0  0  0  0  0  0  0  0  0  0  0  0
  139.2841   68.4752  227.8616 H   0  0  0  0  0  0  0  0  0  0  0  0
  141.0025   68.5342  227.7248 H   0  0  0  0  0  0  0  0  0  0  0  0
  139.0547   70.9336  228.2549 H   0  0  0  0  0  0  0  0  0  0  0  0
  140.2997   70.4311  229.3551 H   0  0  0  0  0  0  0  0  0  0  0  0
  142.0887   71.1782  227.7989 H   0  0  0  0  0  0  0  0  0  0  0  0
  140.3635   71.5350  225.4395 H   0  0  0  0  0  0  0  0  0  0  0  0
  141.7719   70.4580  225.6060 H   0  0  0  0  0  0  0  0  0  0  0  0
  141.7405   71.1516  221.2501 H   0  0  0  0  0  0  0  0  0  0  0  0
  142.7050   73.1721  220.2152 H   0  0  0  0  0  0  0  0  0  0  0  0
  142.6576   75.5763  219.8960 H   0  0  0  0  0  0  0  0  0  0  0  0
  139.5808   77.8689  221.9044 H   0  0  0  0  0  0  0  0  0  0  0  0
  138.6843   75.7852  222.8944 H   0  0  0  0  0  0  0  0  0  0  0  0
  1  2  2  0
  2  3  1  0
  3  4  1  0
  4  5  1  0
  5  6  2  0
  5  7  1  0
  7  8  1  0
  8  9  1  0
  9 10  1  0
 10 11  1  0
 10 12  1  0
  2 13  1  0
 13 14  2  0
 14 15  1  0
 15 16  2  0
 16 17  1  0
 17 18  2  0
 18 19  1  0
 18 20  1  0
 20 21  2  0
 21 22  1  0
 22 23  2  0
 12  7  1  0
 23 13  1  0
 22 16  1  0
  3 24  1  0
  4 25  1  0
  4 26  1  0
  8 27  1  0
  8 28  1  0
  9 29  1  0
  9 30  1  0
 10 31  1  1
 12 32  1  0
 12 33  1  0
 14 34  1  0
 15 35  1  0
 17 36  1  0
 20 37  1  0
 21 38  1  0
M  END
>  <smiles>  (20) 
O=C(NCC(=O)N1CC[C@H](F)C1)c1ccc2cc(Cl)ccc2n1

>  <score_type>  (20) 
oracle

>  <origin>  (20) 
autodockgpu

>  <m_score__min__energy>  (20) 
-6.9199999999999999

>  <m_primary>  (20) 
energy

>  <rmsd>  (20) 
8.059829710956329

>  <m_score__min__rmsd>  (20) 
8.059829710956329

>  <meeko>  (20) 
{"free_energy": -6.69, "intermolecular_energy": -7.88, "internal_energy": -1.18, "cluster_size": 29, "cluster_id": 2, "rank_in_cluster": 13}

>  <energy>  (20) 
-6.7

>  <cluster_rmsd>  (20) 
0.26

>  <cluster>  (20) 
2

$$$$

     RDKit          3D

 38 40  0  0  0  0  0  0  0  0999 V2000
  141.3380   71.7200  221.1500 O   0  0  0  0  0  0  0  0  0  0  0  0
  140.6980   72.6210  221.7210 C   0  0  0  0  0  0  0  0  0  0  0  0
  139.6820   72.2570  222.6380 N   0  0  0  0  0  0  0  0  0  0  0  0
  139.3480   70.8830  222.9450 C   0  0  0  0  0  0  0  0  0  0  0  0
  138.8250   70.7360  224.3260 C   0  0  0  0  0  0  0  0  0  0  0  0
  137.6150   70.7520  224.5920 O   0  0  0  0  0  0  0  0  0  0  0  0
  139.7660   70.5690  225.3790 N   0  0  0  0  0  0  0  0  0  0  0  0
  139.9330   69.3930  226.2290 C   0  0  0  0  0  0  0  0  0  0  0  0
  140.0430   70.0950  227.5890 C   0  0  0  0  0  0  0  0  0  0  0  0
  141.0810   71.1520  227.2770 C   0  0  2  0  0  0  0  0  0  0  0  0
  140.9840   72.2390  228.1220 F   0  0  0  0  0  0  0  0  0  0  0  0
  140.7640   71.5100  225.8480 C   0  0  0  0  0  0  0  0  0  0  0  0
  140.9490   74.0460  221.4870 C   0  0  0  0  0  0  0  0  0  0  0  0
  141.8640   74.4570  220.5330 C   0  0  0  0  0  0  0  0  0  0  0  0
  142.1250   75.7840  220.2880 C   0  0  0  0  0  0  0  0  0  0  0  0
  141.4510   76.7370  221.0200 C   0  0  0  0  0  0  0  0  0  0  0  0
  141.6920   78.0880  220.7970 C   0  0  0  0  0  0  0  0  0  0  0  0
  140.9910   79.0310  221.5560 C   0  0  0  0  0  0  0  0  0  0  0  0
  141.2840   80.7330  221.2840 Cl  0  0  0  0  0  0  0  0  0  0  0  0
  140.0720   78.6030  222.5150 C   0  0  0  0  0  0  0  0  0  0  0  0
  139.8560   77.2490  222.7110 C   0  0  0  0  0  0  0  0  0  0  0  0
  140.5390   76.3030  221.9710 C   0  0  0  0  0  0  0  0  0  0  0  0
  140.3050   74.9960  222.1880 N   0  0  0  0  0  0  0  0  0  0  0  0
  139.1460   73.0160  223.1160 H   0  0  0  0  0  0  0  0  0  0  0  0
  138.5820   70.5362  222.2358 H   0  0  0  0  0  0  0  0  0  0  0  0
  140.2658   70.2824  222.8623 H   0  0  0  0  0  0  0  0  0  0  0  0
  139.0629   68.7217  226.1803 H   0  0  0  0  0  0  0  0  0  0  0  0
  140.7742   68.7346  225.9665 H   0  0  0  0  0  0  0  0  0  0  0  0
  139.0856   70.5442  227.8917 H   0  0  0  0  0  0  0  0  0  0  0  0
  140.3055   69.4306  228.4255 H   0  0  0  0  0  0  0  0  0  0  0  0
  142.1146   70.8023  227.4161 H   0  0  0  0  0  0  0  0  0  0  0  0
  140.3688   72.5352  225.7956 H   0  0  0  0  0  0  0  0  0  0  0  0
  141.6688   71.4611  225.2244 H   0  0  0  0  0  0  0  0  0  0  0  0
  142.4014   73.6944  219.9502 H   0  0  0  0  0  0  0  0  0  0  0  0
  142.8576   76.0794  219.5225 H   0  0  0  0  0  0  0  0  0  0  0  0
  142.4203   78.4093  220.0379 H   0  0  0  0  0  0  0  0  0  0  0  0
  139.5193   79.3408  223.1151 H   0  0  0  0  0  0  0  0  0  0  0  0
  139.1286   76.9214  223.4684 H   0  0  0  0  0  0  0  0  0  0  0  0
  1  2  2  0
  2  3  1  0
  3  4  1  0
  4  5  1  0
  5  6  2  0
  5  7  1  0
  7  8  1  0
  8  9  1  0
  9 10  1  0
 10 11  1  0
 10 12  1  0
  2 13  1  0
 13 14  2  0
 14 15  1  0
 15 16  2  0
 16 17  1  0
 17 18  2  0
 18 19  1  0
 18 20  1  0
 20 21  2  0
 21 22  1  0
 22 23  2  0
 12  7  1  0
 23 13  1  0
 22 16  1  0
  3 24  1  0
  4 25  1  0
  4 26  1  0
  8 27  1  0
  8 28  1  0
  9 29  1  0
  9 30  1  0
 10 31  1  6
 12 32  1  0
 12 33  1  0
 14 34  1  0
 15 35  1  0
 17 36  1  0
 20 37  1  0
 21 38  1  0
M  END
>  <smiles>  (21) 
O=C(NCC(=O)N1CC[C@H](F)C1)c1ccc2cc(Cl)ccc2n1

>  <score_type>  (21) 
oracle

>  <origin>  (21) 
autodockgpu

>  <m_score__min__energy>  (21) 
-6.9199999999999999

>  <m_primary>  (21) 
energy

>  <rmsd>  (21) 
8.343819644453564

>  <m_score__min__rmsd>  (21) 
8.343819644453564

>  <meeko>  (21) 
{"free_energy": -6.61, "intermolecular_energy": -7.8, "internal_energy": -1.07, "cluster_size": 29, "cluster_id": 2, "rank_in_cluster": 16}

>  <energy>  (21) 
-6.7

>  <cluster_rmsd>  (21) 
0.36

>  <cluster>  (21) 
2

$$$$

     RDKit          3D

 38 40  0  0  0  0  0  0  0  0999 V2000
  140.1050   72.4660  220.6720 O   0  0  0  0  0  0  0  0  0  0  0  0
  139.9450   72.8190  221.8550 C   0  0  0  0  0  0  0  0  0  0  0  0
  139.7100   74.1880  222.1300 N   0  0  0  0  0  0  0  0  0  0  0  0
  139.6480   75.2030  221.1000 C   0  0  0  0  0  0  0  0  0  0  0  0
  140.9070   75.9820  221.0130 C   0  0  0  0  0  0  0  0  0  0  0  0
  141.9510   75.5210  220.5300 O   0  0  0  0  0  0  0  0  0  0  0  0
  140.9010   77.3140  221.5090 N   0  0  0  0  0  0  0  0  0  0  0  0
  141.5570   78.4760  220.9150 C   0  0  0  0  0  0  0  0  0  0  0  0
  142.1830   79.0720  222.1840 C   0  0  0  0  0  0  0  0  0  0  0  0
  140.9880   79.0730  223.1130 C   0  0  2  0  0  0  0  0  0  0  0  0
  141.3650   79.0430  224.4410 F   0  0  0  0  0  0  0  0  0  0  0  0
  140.2520   77.8250  222.7020 C   0  0  0  0  0  0  0  0  0  0  0  0
  139.9880   71.8790  222.9780 C   0  0  0  0  0  0  0  0  0  0  0  0
  139.5310   70.5800  222.8330 C   0  0  0  0  0  0  0  0  0  0  0  0
  139.5570   69.6730  223.8660 C   0  0  0  0  0  0  0  0  0  0  0  0
  140.0550   70.0730  225.0870 C   0  0  0  0  0  0  0  0  0  0  0  0
  140.0950   69.1790  226.1510 C   0  0  0  0  0  0  0  0  0  0  0  0
  140.6070   69.6160  227.3780 C   0  0  0  0  0  0  0  0  0  0  0  0
  140.6630   68.5010  228.7230 Cl  0  0  0  0  0  0  0  0  0  0  0  0
  141.0640   70.9280  227.5090 C   0  0  0  0  0  0  0  0  0  0  0  0
  141.0100   71.7920  226.4280 C   0  0  0  0  0  0  0  0  0  0  0  0
  140.5080   71.3790  225.2090 C   0  0  0  0  0  0  0  0  0  0  0  0
  140.4700   72.2430  224.1800 N   0  0  0  0  0  0  0  0  0  0  0  0
  139.5760   74.4820  223.1230 H   0  0  0  0  0  0  0  0  0  0  0  0
  139.4641   74.7155  220.1312 H   0  0  0  0  0  0  0  0  0  0  0  0
  138.8347   75.8981  221.3556 H   0  0  0  0  0  0  0  0  0  0  0  0
  142.3186   78.1868  220.1759 H   0  0  0  0  0  0  0  0  0  0  0  0
  140.9000   79.1524  220.3486 H   0  0  0  0  0  0  0  0  0  0  0  0
  142.9960   78.4397  222.5702 H   0  0  0  0  0  0  0  0  0  0  0  0
  142.6518   80.0569  222.0424 H   0  0  0  0  0  0  0  0  0  0  0  0
  140.3747   79.9826  223.0327 H   0  0  0  0  0  0  0  0  0  0  0  0
  140.3010   77.0768  223.5069 H   0  0  0  0  0  0  0  0  0  0  0  0
  139.1924   78.0450  222.5048 H   0  0  0  0  0  0  0  0  0  0  0  0
  139.1334   70.2627  221.8577 H   0  0  0  0  0  0  0  0  0  0  0  0
  139.1872   68.6473  223.7205 H   0  0  0  0  0  0  0  0  0  0  0  0
  139.7312   68.1479  226.0307 H   0  0  0  0  0  0  0  0  0  0  0  0
  141.4673   71.2761  228.4714 H   0  0  0  0  0  0  0  0  0  0  0  0
  141.3728   72.8242  226.5419 H   0  0  0  0  0  0  0  0  0  0  0  0
  1  2  2  0
  2  3  1  0
  3  4  1  0
  4  5  1  0
  5  6  2  0
  5  7  1  0
  7  8  1  0
  8  9  1  0
  9 10  1  0
 10 11  1  0
 10 12  1  0
  2 13  1  0
 13 14  2  0
 14 15  1  0
 15 16  2  0
 16 17  1  0
 17 18  2  0
 18 19  1  0
 18 20  1  0
 20 21  2  0
 21 22  1  0
 22 23  2  0
 12  7  1  0
 23 13  1  0
 22 16  1  0
  3 24  1  0
  4 25  1  0
  4 26  1  0
  8 27  1  0
  8 28  1  0
  9 29  1  0
  9 30  1  0
 10 31  1  1
 12 32  1  0
 12 33  1  0
 14 34  1  0
 15 35  1  0
 17 36  1  0
 20 37  1  0
 21 38  1  0
M  END
>  <smiles>  (22) 
O=C(NCC(=O)N1CC[C@H](F)C1)c1ccc2cc(Cl)ccc2n1

>  <score_type>  (22) 
oracle

>  <origin>  (22) 
autodockgpu

>  <m_score__min__energy>  (22) 
-6.9199999999999999

>  <m_primary>  (22) 
energy

>  <rmsd>  (22) 
3.0470611105397643

>  <m_score__min__rmsd>  (22) 
3.0470611105397643

>  <meeko>  (22) 
{"free_energy": -6.88, "intermolecular_energy": -8.08, "internal_energy": -0.88, "cluster_size": 12, "cluster_id": 1, "rank_in_cluster": 5}

>  <energy>  (22) 
-6.7

>  <cluster_rmsd>  (22) 
0.18

>  <cluster>  (22) 
2

$$$$

     RDKit          3D

 38 40  0  0  0  0  0  0  0  0999 V2000
  139.8730   69.8640  222.1890 O   0  0  0  0  0  0  0  0  0  0  0  0
  139.5980   70.9750  222.6760 C   0  0  0  0  0  0  0  0  0  0  0  0
  138.7030   71.0360  223.7710 N   0  0  0  0  0  0  0  0  0  0  0  0
  138.0870   69.8640  224.3550 C   0  0  0  0  0  0  0  0  0  0  0  0
  139.0840   68.9790  225.0040 C   0  0  0  0  0  0  0  0  0  0  0  0
  139.1770   67.7700  224.7500 O   0  0  0  0  0  0  0  0  0  0  0  0
  139.9670   69.5570  225.9570 N   0  0  0  0  0  0  0  0  0  0  0  0
  140.2360   69.0770  227.3100 C   0  0  0  0  0  0  0  0  0  0  0  0
  140.1590   70.4140  228.0590 C   0  0  0  0  0  0  0  0  0  0  0  0
  141.0600   71.2720  227.1970 C   0  0  2  0  0  0  0  0  0  0  0  0
  140.7590   72.6140  227.3090 F   0  0  0  0  0  0  0  0  0  0  0  0
  140.7920   70.7410  225.8130 C   0  0  0  0  0  0  0  0  0  0  0  0
  140.1620   72.2290  222.1650 C   0  0  0  0  0  0  0  0  0  0  0  0
  141.3270   72.2290  221.4170 C   0  0  0  0  0  0  0  0  0  0  0  0
  141.8820   73.3850  220.9240 C   0  0  0  0  0  0  0  0  0  0  0  0
  141.2560   74.5840  221.1840 C   0  0  0  0  0  0  0  0  0  0  0  0
  141.7930   75.7720  220.6990 C   0  0  0  0  0  0  0  0  0  0  0  0
  141.1330   76.9730  220.9800 C   0  0  0  0  0  0  0  0  0  0  0  0
  141.7980   78.4720  220.3750 Cl  0  0  0  0  0  0  0  0  0  0  0  0
  139.9600   76.9580  221.7360 C   0  0  0  0  0  0  0  0  0  0  0  0
  139.4530   75.7560  222.2030 C   0  0  0  0  0  0  0  0  0  0  0  0
  140.0900   74.5610  221.9350 C   0  0  0  0  0  0  0  0  0  0  0  0
  139.5700   73.4120  222.4050 N   0  0  0  0  0  0  0  0  0  0  0  0
  138.4730   71.9700  224.1780 H   0  0  0  0  0  0  0  0  0  0  0  0
  137.3538   70.1863  225.1090 H   0  0  0  0  0  0  0  0  0  0  0  0
  137.6026   69.2959  223.5472 H   0  0  0  0  0  0  0  0  0  0  0  0
  139.4707   68.3662  227.6552 H   0  0  0  0  0  0  0  0  0  0  0  0
  141.1749   68.5179  227.4356 H   0  0  0  0  0  0  0  0  0  0  0  0
  139.1312   70.8050  228.0853 H   0  0  0  0  0  0  0  0  0  0  0  0
  140.4548   70.3618  229.1172 H   0  0  0  0  0  0  0  0  0  0  0  0
  142.1204   71.2151  227.4838 H   0  0  0  0  0  0  0  0  0  0  0  0
  140.2629   71.4979  225.2154 H   0  0  0  0  0  0  0  0  0  0  0  0
  141.7343   70.4987  225.2999 H   0  0  0  0  0  0  0  0  0  0  0  0
  141.8254   71.2704  221.2103 H   0  0  0  0  0  0  0  0  0  0  0  0
  142.8090   73.3536  220.3327 H   0  0  0  0  0  0  0  0  0  0  0  0
  142.7192   75.7672  220.1057 H   0  0  0  0  0  0  0  0  0  0  0  0
  139.4382   77.8999  221.9610 H   0  0  0  0  0  0  0  0  0  0  0  0
  138.5274   75.7540  222.7973 H   0  0  0  0  0  0  0  0  0  0  0  0
  1  2  2  0
  2  3  1  0
  3  4  1  0
  4  5  1  0
  5  6  2  0
  5  7  1  0
  7  8  1  0
  8  9  1  0
  9 10  1  0
 10 11  1  0
 10 12  1  0
  2 13  1  0
 13 14  2  0
 14 15  1  0
 15 16  2  0
 16 17  1  0
 17 18  2  0
 18 19  1  0
 18 20  1  0
 20 21  2  0
 21 22  1  0
 22 23  2  0
 12  7  1  0
 23 13  1  0
 22 16  1  0
  3 24  1  0
  4 25  1  0
  4 26  1  0
  8 27  1  0
  8 28  1  0
  9 29  1  0
  9 30  1  0
 10 31  1  1
 12 32  1  0
 12 33  1  0
 14 34  1  0
 15 35  1  0
 17 36  1  0
 20 37  1  0
 21 38  1  0
M  END
>  <smiles>  (23) 
O=C(NCC(=O)N1CC[C@H](F)C1)c1ccc2cc(Cl)ccc2n1

>  <score_type>  (23) 
oracle

>  <origin>  (23) 
autodockgpu

>  <m_score__min__energy>  (23) 
-6.9199999999999999

>  <m_primary>  (23) 
energy

>  <rmsd>  (23) 
7.998631702979206

>  <m_score__min__rmsd>  (23) 
7.998631702979206

>  <meeko>  (23) 
{"free_energy": -6.74, "intermolecular_energy": -7.93, "internal_energy": -1.15, "cluster_size": 29, "cluster_id": 2, "rank_in_cluster": 2}

>  <energy>  (23) 
-6.69

>  <cluster_rmsd>  (23) 
0.25

>  <cluster>  (23) 
2

$$$$

     RDKit          3D

 38 40  0  0  0  0  0  0  0  0999 V2000
  140.7820   72.6640  220.8960 O   0  0  0  0  0  0  0  0  0  0  0  0
  140.2080   72.8910  221.9760 C   0  0  0  0  0  0  0  0  0  0  0  0
  139.5760   74.1440  222.1610 N   0  0  0  0  0  0  0  0  0  0  0  0
  139.5620   75.1800  221.1510 C   0  0  0  0  0  0  0  0  0  0  0  0
  140.8460   75.9220  221.1010 C   0  0  0  0  0  0  0  0  0  0  0  0
  141.9000   75.4150  220.6920 O   0  0  0  0  0  0  0  0  0  0  0  0
  140.8520   77.2720  221.5440 N   0  0  0  0  0  0  0  0  0  0  0  0
  141.5090   78.4060  220.8980 C   0  0  0  0  0  0  0  0  0  0  0  0
  142.1510   79.0480  222.1350 C   0  0  0  0  0  0  0  0  0  0  0  0
  140.9660   79.0930  223.0770 C   0  0  2  0  0  0  0  0  0  0  0  0
  141.3580   79.1130  224.4000 F   0  0  0  0  0  0  0  0  0  0  0  0
  140.2190   77.8330  222.7220 C   0  0  0  0  0  0  0  0  0  0  0  0
  140.1590   71.9160  223.0700 C   0  0  0  0  0  0  0  0  0  0  0  0
  139.6080   70.6610  222.8760 C   0  0  0  0  0  0  0  0  0  0  0  0
  139.5440   69.7240  223.8790 C   0  0  0  0  0  0  0  0  0  0  0  0
  140.0480   70.0470  225.1200 C   0  0  0  0  0  0  0  0  0  0  0  0
  139.9990   69.1200  226.1560 C   0  0  0  0  0  0  0  0  0  0  0  0
  140.5190   69.4790  227.4050 C   0  0  0  0  0  0  0  0  0  0  0  0
  140.4640   68.3230  228.7150 Cl  0  0  0  0  0  0  0  0  0  0  0  0
  141.0710   70.7480  227.5860 C   0  0  0  0  0  0  0  0  0  0  0  0
  141.1030   71.6460  226.5320 C   0  0  0  0  0  0  0  0  0  0  0  0
  140.5950   71.3100  225.2920 C   0  0  0  0  0  0  0  0  0  0  0  0
  140.6430   72.2060  224.2900 N   0  0  0  0  0  0  0  0  0  0  0  0
  139.0950   74.3320  223.0690 H   0  0  0  0  0  0  0  0  0  0  0  0
  139.3802   74.7174  220.1697 H   0  0  0  0  0  0  0  0  0  0  0  0
  138.7655   75.8943  221.4066 H   0  0  0  0  0  0  0  0  0  0  0  0
  142.2614   78.0831  220.1635 H   0  0  0  0  0  0  0  0  0  0  0  0
  140.8500   79.0635  220.3120 H   0  0  0  0  0  0  0  0  0  0  0  0
  142.9649   78.4270  222.5373 H   0  0  0  0  0  0  0  0  0  0  0  0
  142.6230   80.0240  221.9490 H   0  0  0  0  0  0  0  0  0  0  0  0
  140.3563   80.0021  222.9689 H   0  0  0  0  0  0  0  0  0  0  0  0
  140.2725   77.1166  223.5550 H   0  0  0  0  0  0  0  0  0  0  0  0
  139.1587   78.0515  222.5268 H   0  0  0  0  0  0  0  0  0  0  0  0
  139.2073   70.4049  221.8841 H   0  0  0  0  0  0  0  0  0  0  0  0
  139.0990   68.7351  223.6947 H   0  0  0  0  0  0  0  0  0  0  0  0
  139.5600   68.1240  225.9968 H   0  0  0  0  0  0  0  0  0  0  0  0
  141.4806   71.0350  228.5657 H   0  0  0  0  0  0  0  0  0  0  0  0
  141.5403   72.6437  226.6848 H   0  0  0  0  0  0  0  0  0  0  0  0
  1  2  2  0
  2  3  1  0
  3  4  1  0
  4  5  1  0
  5  6  2  0
  5  7  1  0
  7  8  1  0
  8  9  1  0
  9 10  1  0
 10 11  1  0
 10 12  1  0
  2 13  1  0
 13 14  2  0
 14 15  1  0
 15 16  2  0
 16 17  1  0
 17 18  2  0
 18 19  1  0
 18 20  1  0
 20 21  2  0
 21 22  1  0
 22 23  2  0
 12  7  1  0
 23 13  1  0
 22 16  1  0
  3 24  1  0
  4 25  1  0
  4 26  1  0
  8 27  1  0
  8 28  1  0
  9 29  1  0
  9 30  1  0
 10 31  1  6
 12 32  1  0
 12 33  1  0
 14 34  1  0
 15 35  1  0
 17 36  1  0
 20 37  1  0
 21 38  1  0
M  END
>  <smiles>  (24) 
O=C(NCC(=O)N1CC[C@H](F)C1)c1ccc2cc(Cl)ccc2n1

>  <score_type>  (24) 
oracle

>  <origin>  (24) 
autodockgpu

>  <m_score__min__energy>  (24) 
-6.9199999999999999

>  <m_primary>  (24) 
energy

>  <rmsd>  (24) 
3.0384003010596543

>  <m_score__min__rmsd>  (24) 
3.0384003010596543

>  <meeko>  (24) 
{"free_energy": -6.92, "intermolecular_energy": -8.11, "internal_energy": -0.77, "cluster_size": 12, "cluster_id": 1, "rank_in_cluster": 2}

>  <energy>  (24) 
-6.69

>  <cluster_rmsd>  (24) 
0.38

>  <cluster>  (24) 
2

$$$$

     RDKit          3D

 38 40  0  0  0  0  0  0  0  0999 V2000
  141.0760   71.5310  221.2990 O   0  0  0  0  0  0  0  0  0  0  0  0
  140.4240   72.4660  221.7970 C   0  0  0  0  0  0  0  0  0  0  0  0
  139.3020   72.1580  222.6040 N   0  0  0  0  0  0  0  0  0  0  0  0
  138.8720   70.8040  222.8800 C   0  0  0  0  0  0  0  0  0  0  0  0
  138.3500   70.6590  224.2600 C   0  0  0  0  0  0  0  0  0  0  0  0
  137.1480   70.7730  224.5400 O   0  0  0  0  0  0  0  0  0  0  0  0
  139.2790   70.3760  225.2970 N   0  0  0  0  0  0  0  0  0  0  0  0
  140.4420   71.1740  225.6780 C   0  0  0  0  0  0  0  0  0  0  0  0
  141.4740   70.0460  225.8130 C   0  0  0  0  0  0  0  0  0  0  0  0
  140.7110   69.0700  226.6830 C   0  0  2  0  0  0  0  0  0  0  0  0
  141.1580   67.7750  226.5230 F   0  0  0  0  0  0  0  0  0  0  0  0
  139.2920   69.2470  226.2070 C   0  0  0  0  0  0  0  0  0  0  0  0
  140.7660   73.8750  221.5860 C   0  0  0  0  0  0  0  0  0  0  0  0
  141.7830   74.2350  220.7170 C   0  0  0  0  0  0  0  0  0  0  0  0
  142.1300   75.5460  220.4960 C   0  0  0  0  0  0  0  0  0  0  0  0
  141.4410   76.5350  221.1630 C   0  0  0  0  0  0  0  0  0  0  0  0
  141.7680   77.8720  220.9610 C   0  0  0  0  0  0  0  0  0  0  0  0
  141.0500   78.8520  221.6540 C   0  0  0  0  0  0  0  0  0  0  0  0
  141.4510   80.5360  221.4080 Cl  0  0  0  0  0  0  0  0  0  0  0  0
  140.0280   78.4750  222.5270 C   0  0  0  0  0  0  0  0  0  0  0  0
  139.7290   77.1340  222.7040 C   0  0  0  0  0  0  0  0  0  0  0  0
  140.4270   76.1520  222.0290 C   0  0  0  0  0  0  0  0  0  0  0  0
  140.1100   74.8600  222.2240 N   0  0  0  0  0  0  0  0  0  0  0  0
  138.7560   72.9450  223.0210 H   0  0  0  0  0  0  0  0  0  0  0  0
  138.0780   70.5314  222.1692 H   0  0  0  0  0  0  0  0  0  0  0  0
  139.7439   70.1418  222.7745 H   0  0  0  0  0  0  0  0  0  0  0  0
  140.7204   71.8963  224.8965 H   0  0  0  0  0  0  0  0  0  0  0  0
  140.3112   71.8045  226.5698 H   0  0  0  0  0  0  0  0  0  0  0  0
  141.7252   69.6074  224.8360 H   0  0  0  0  0  0  0  0  0  0  0  0
  142.4443   70.3617  226.2239 H   0  0  0  0  0  0  0  0  0  0  0  0
  140.8323   69.2591  227.7598 H   0  0  0  0  0  0  0  0  0  0  0  0
  138.9542   68.3394  225.6854 H   0  0  0  0  0  0  0  0  0  0  0  0
  138.6160   69.4243  227.0565 H   0  0  0  0  0  0  0  0  0  0  0  0
  142.3319   73.4437  220.1854 H   0  0  0  0  0  0  0  0  0  0  0  0
  142.9425   75.8010  219.7997 H   0  0  0  0  0  0  0  0  0  0  0  0
  142.5759   78.1531  220.2694 H   0  0  0  0  0  0  0  0  0  0  0  0
  139.4605   79.2423  223.0740 H   0  0  0  0  0  0  0  0  0  0  0  0
  138.9219   76.8465  223.3939 H   0  0  0  0  0  0  0  0  0  0  0  0
  1  2  2  0
  2  3  1  0
  3  4  1  0
  4  5  1  0
  5  6  2  0
  5  7  1  0
  7  8  1  0
  8  9  1  0
  9 10  1  0
 10 11  1  0
 10 12  1  0
  2 13  1  0
 13 14  2  0
 14 15  1  0
 15 16  2  0
 16 17  1  0
 17 18  2  0
 18 19  1  0
 18 20  1  0
 20 21  2  0
 21 22  1  0
 22 23  2  0
 12  7  1  0
 23 13  1  0
 22 16  1  0
  3 24  1  0
  4 25  1  0
  4 26  1  0
  8 27  1  0
  8 28  1  0
  9 29  1  0
  9 30  1  0
 10 31  1  1
 12 32  1  0
 12 33  1  0
 14 34  1  0
 15 35  1  0
 17 36  1  0
 20 37  1  0
 21 38  1  0
M  END
>  <smiles>  (25) 
O=C(NCC(=O)N1CC[C@H](F)C1)c1ccc2cc(Cl)ccc2n1

>  <score_type>  (25) 
oracle

>  <origin>  (25) 
autodockgpu

>  <m_score__min__energy>  (25) 
-6.9199999999999999

>  <m_primary>  (25) 
energy

>  <rmsd>  (25) 
8.109833561771513

>  <m_score__min__rmsd>  (25) 
8.109833561771513

>  <meeko>  (25) 
{"free_energy": -6.16, "intermolecular_energy": -7.35, "internal_energy": -1.13, "cluster_size": 29, "cluster_id": 2, "rank_in_cluster": 29}

>  <energy>  (25) 
-6.69

>  <cluster_rmsd>  (25) 
0.17

>  <cluster>  (25) 
2

$$$$

     RDKit          3D

 38 40  0  0  0  0  0  0  0  0999 V2000
  141.5420   72.0470  220.9080 O   0  0  0  0  0  0  0  0  0  0  0  0
  140.9640   72.9270  221.5720 C   0  0  0  0  0  0  0  0  0  0  0  0
  140.0620   72.5310  222.5880 N   0  0  0  0  0  0  0  0  0  0  0  0
  139.7750   71.1460  222.8960 C   0  0  0  0  0  0  0  0  0  0  0  0
  139.1190   70.9980  224.2180 C   0  0  0  0  0  0  0  0  0  0  0  0
  137.8980   71.1320  224.3810 O   0  0  0  0  0  0  0  0  0  0  0  0
  139.9390   70.6870  225.3370 N   0  0  0  0  0  0  0  0  0  0  0  0
  139.9760   69.4290  226.0770 C   0  0  0  0  0  0  0  0  0  0  0  0
  139.9690   69.9890  227.5050 C   0  0  0  0  0  0  0  0  0  0  0  0
  141.0700   71.0250  227.4060 C   0  0  2  0  0  0  0  0  0  0  0  0
  140.9220   72.0270  228.3430 F   0  0  0  0  0  0  0  0  0  0  0  0
  140.9140   71.5340  225.9970 C   0  0  0  0  0  0  0  0  0  0  0  0
  141.1760   74.3600  221.3460 C   0  0  0  0  0  0  0  0  0  0  0  0
  142.0060   74.8020  220.3300 C   0  0  0  0  0  0  0  0  0  0  0  0
  142.2270   76.1380  220.0920 C   0  0  0  0  0  0  0  0  0  0  0  0
  141.6010   77.0660  220.8940 C   0  0  0  0  0  0  0  0  0  0  0  0
  141.8040   78.4250  220.6790 C   0  0  0  0  0  0  0  0  0  0  0  0
  141.1540   79.3430  221.5100 C   0  0  0  0  0  0  0  0  0  0  0  0
  141.4010   81.0540  221.2500 Cl  0  0  0  0  0  0  0  0  0  0  0  0
  140.3200   78.8830  222.5310 C   0  0  0  0  0  0  0  0  0  0  0  0
  140.1400   77.5220  222.7170 C   0  0  0  0  0  0  0  0  0  0  0  0
  140.7740   76.6010  221.9060 C   0  0  0  0  0  0  0  0  0  0  0  0
  140.5770   75.2870  222.1150 N   0  0  0  0  0  0  0  0  0  0  0  0
  139.5780   73.2710  223.1430 H   0  0  0  0  0  0  0  0  0  0  0  0
  139.1085   70.7400  222.1208 H   0  0  0  0  0  0  0  0  0  0  0  0
  140.7286   70.5986  222.9254 H   0  0  0  0  0  0  0  0  0  0  0  0
  139.0928   68.8054  225.8744 H   0  0  0  0  0  0  0  0  0  0  0  0
  140.8170   68.7627  225.8347 H   0  0  0  0  0  0  0  0  0  0  0  0
  139.0014   70.4485  227.7554 H   0  0  0  0  0  0  0  0  0  0  0  0
  140.1208   69.2353  228.2917 H   0  0  0  0  0  0  0  0  0  0  0  0
  142.0716   70.6187  227.6101 H   0  0  0  0  0  0  0  0  0  0  0  0
  140.5601   72.5754  226.0102 H   0  0  0  0  0  0  0  0  0  0  0  0
  141.8763   71.5071  225.4648 H   0  0  0  0  0  0  0  0  0  0  0  0
  142.5058   74.0589  219.6913 H   0  0  0  0  0  0  0  0  0  0  0  0
  142.8913   76.4595  219.2763 H   0  0  0  0  0  0  0  0  0  0  0  0
  142.4639   78.7715  219.8700 H   0  0  0  0  0  0  0  0  0  0  0  0
  139.8062   79.6008  223.1873 H   0  0  0  0  0  0  0  0  0  0  0  0
  139.4812   77.1689  223.5240 H   0  0  0  0  0  0  0  0  0  0  0  0
  1  2  2  0
  2  3  1  0
  3  4  1  0
  4  5  1  0
  5  6  2  0
  5  7  1  0
  7  8  1  0
  8  9  1  0
  9 10  1  0
 10 11  1  0
 10 12  1  0
  2 13  1  0
 13 14  2  0
 14 15  1  0
 15 16  2  0
 16 17  1  0
 17 18  2  0
 18 19  1  0
 18 20  1  0
 20 21  2  0
 21 22  1  0
 22 23  2  0
 12  7  1  0
 23 13  1  0
 22 16  1  0
  3 24  1  0
  4 25  1  0
  4 26  1  0
  8 27  1  0
  8 28  1  0
  9 29  1  0
  9 30  1  0
 10 31  1  6
 12 32  1  0
 12 33  1  0
 14 34  1  0
 15 35  1  0
 17 36  1  0
 20 37  1  0
 21 38  1  0
M  END
>  <smiles>  (26) 
O=C(NCC(=O)N1CC[C@H](F)C1)c1ccc2cc(Cl)ccc2n1

>  <score_type>  (26) 
oracle

>  <origin>  (26) 
autodockgpu

>  <m_score__min__energy>  (26) 
-6.9199999999999999

>  <m_primary>  (26) 
energy

>  <rmsd>  (26) 
8.4950024588406

>  <m_score__min__rmsd>  (26) 
8.4950024588406

>  <meeko>  (26) 
{"free_energy": -6.6, "intermolecular_energy": -7.8, "internal_energy": -1.05, "cluster_size": 29, "cluster_id": 2, "rank_in_cluster": 19}

>  <energy>  (26) 
-6.68

>  <cluster_rmsd>  (26) 
0.18

>  <cluster>  (26) 
2

$$$$

     RDKit          3D

 38 40  0  0  0  0  0  0  0  0999 V2000
  139.9530   69.9720  222.2570 O   0  0  0  0  0  0  0  0  0  0  0  0
  139.6270   71.0900  222.6950 C   0  0  0  0  0  0  0  0  0  0  0  0
  138.6920   71.1590  223.7550 N   0  0  0  0  0  0  0  0  0  0  0  0
  138.0920   69.9890  224.3600 C   0  0  0  0  0  0  0  0  0  0  0  0
  139.1070   69.1030  224.9790 C   0  0  0  0  0  0  0  0  0  0  0  0
  139.1590   67.8840  224.7620 O   0  0  0  0  0  0  0  0  0  0  0  0
  140.0570   69.6920  225.8580 N   0  0  0  0  0  0  0  0  0  0  0  0
  140.9270   68.9980  226.8040 C   0  0  0  0  0  0  0  0  0  0  0  0
  140.7280   69.9080  228.0240 C   0  0  0  0  0  0  0  0  0  0  0  0
  140.9560   71.2690  227.4000 C   0  0  2  0  0  0  0  0  0  0  0  0
  140.3280   72.2740  228.1070 F   0  0  0  0  0  0  0  0  0  0  0  0
  140.3800   71.0970  226.0190 C   0  0  0  0  0  0  0  0  0  0  0  0
  140.1690   72.3420  222.1600 C   0  0  0  0  0  0  0  0  0  0  0  0
  141.2840   72.3380  221.3390 C   0  0  0  0  0  0  0  0  0  0  0  0
  141.8190   73.4930  220.8200 C   0  0  0  0  0  0  0  0  0  0  0  0
  141.2230   74.6960  221.1300 C   0  0  0  0  0  0  0  0  0  0  0  0
  141.7400   75.8830  220.6220 C   0  0  0  0  0  0  0  0  0  0  0  0
  141.1120   77.0880  220.9550 C   0  0  0  0  0  0  0  0  0  0  0  0
  141.7510   78.5860  220.3220 Cl  0  0  0  0  0  0  0  0  0  0  0  0
  139.9890   77.0770  221.7840 C   0  0  0  0  0  0  0  0  0  0  0  0
  139.5010   75.8760  222.2730 C   0  0  0  0  0  0  0  0  0  0  0  0
  140.1070   74.6770  221.9550 C   0  0  0  0  0  0  0  0  0  0  0  0
  139.6070   73.5290  222.4470 N   0  0  0  0  0  0  0  0  0  0  0  0
  138.4190   72.0990  224.1210 H   0  0  0  0  0  0  0  0  0  0  0  0
  137.3834   70.3140  225.1360 H   0  0  0  0  0  0  0  0  0  0  0  0
  137.5814   69.4207  223.5687 H   0  0  0  0  0  0  0  0  0  0  0  0
  140.5890   67.9692  226.9971 H   0  0  0  0  0  0  0  0  0  0  0  0
  141.9691   68.8641  226.4783 H   0  0  0  0  0  0  0  0  0  0  0  0
  139.7124   69.8163  228.4365 H   0  0  0  0  0  0  0  0  0  0  0  0
  141.3862   69.6803  228.8754 H   0  0  0  0  0  0  0  0  0  0  0  0
  142.0130   71.5734  227.3920 H   0  0  0  0  0  0  0  0  0  0  0  0
  139.4709   71.7069  225.9117 H   0  0  0  0  0  0  0  0  0  0  0  0
  141.1004   71.4211  225.2535 H   0  0  0  0  0  0  0  0  0  0  0  0
  141.7585   71.3765  221.0934 H   0  0  0  0  0  0  0  0  0  0  0  0
  142.7056   73.4575  220.1699 H   0  0  0  0  0  0  0  0  0  0  0  0
  142.6262   75.8745  219.9705 H   0  0  0  0  0  0  0  0  0  0  0  0
  139.4916   78.0216  222.0490 H   0  0  0  0  0  0  0  0  0  0  0  0
  138.6156   75.8779  222.9257 H   0  0  0  0  0  0  0  0  0  0  0  0
  1  2  2  0
  2  3  1  0
  3  4  1  0
  4  5  1  0
  5  6  2  0
  5  7  1  0
  7  8  1  0
  8  9  1  0
  9 10  1  0
 10 11  1  0
 10 12  1  0
  2 13  1  0
 13 14  2  0
 14 15  1  0
 15 16  2  0
 16 17  1  0
 17 18  2  0
 18 19  1  0
 18 20  1  0
 20 21  2  0
 21 22  1  0
 22 23  2  0
 12  7  1  0
 23 13  1  0
 22 16  1  0
  3 24  1  0
  4 25  1  0
  4 26  1  0
  8 27  1  0
  8 28  1  0
  9 29  1  0
  9 30  1  0
 10 31  1  6
 12 32  1  0
 12 33  1  0
 14 34  1  0
 15 35  1  0
 17 36  1  0
 20 37  1  0
 21 38  1  0
M  END
>  <smiles>  (27) 
O=C(NCC(=O)N1CC[C@H](F)C1)c1ccc2cc(Cl)ccc2n1

>  <score_type>  (27) 
oracle

>  <origin>  (27) 
autodockgpu

>  <m_score__min__energy>  (27) 
-6.9199999999999999

>  <m_primary>  (27) 
energy

>  <rmsd>  (27) 
8.029582947733322

>  <m_score__min__rmsd>  (27) 
8.029582947733322

>  <meeko>  (27) 
{"free_energy": -6.69, "intermolecular_energy": -7.88, "internal_energy": -1.09, "cluster_size": 29, "cluster_id": 2, "rank_in_cluster": 12}

>  <energy>  (27) 
-6.67

>  <cluster_rmsd>  (27) 
0.25

>  <cluster>  (27) 
2

$$$$

     RDKit          3D

 38 40  0  0  0  0  0  0  0  0999 V2000
  135.0110   68.5070  224.8650 O   0  0  0  0  0  0  0  0  0  0  0  0
  135.4590   69.6580  225.0110 C   0  0  0  0  0  0  0  0  0  0  0  0
  136.7870   69.9290  224.6030 N   0  0  0  0  0  0  0  0  0  0  0  0
  137.6560   68.9280  224.0210 C   0  0  0  0  0  0  0  0  0  0  0  0
  138.7540   68.5460  224.9410 C   0  0  0  0  0  0  0  0  0  0  0  0
  139.2070   67.3940  225.0060 O   0  0  0  0  0  0  0  0  0  0  0  0
  139.3020   69.5550  225.7790 N   0  0  0  0  0  0  0  0  0  0  0  0
  139.8910   70.8230  225.3580 C   0  0  0  0  0  0  0  0  0  0  0  0
  141.1440   70.8130  226.2440 C   0  0  0  0  0  0  0  0  0  0  0  0
  140.5330   70.4910  227.5910 C   0  0  2  0  0  0  0  0  0  0  0  0
  141.4420   69.9000  228.4440 F   0  0  0  0  0  0  0  0  0  0  0  0
  139.4050   69.5610  227.2260 C   0  0  0  0  0  0  0  0  0  0  0  0
  134.6710   70.7500  225.5890 C   0  0  0  0  0  0  0  0  0  0  0  0
  133.6250   70.4860  226.4580 C   0  0  0  0  0  0  0  0  0  0  0  0
  132.8650   71.4860  227.0180 C   0  0  0  0  0  0  0  0  0  0  0  0
  133.1560   72.7950  226.7010 C   0  0  0  0  0  0  0  0  0  0  0  0
  132.4060   73.8290  227.2510 C   0  0  0  0  0  0  0  0  0  0  0  0
  132.7260   75.1470  226.9100 C   0  0  0  0  0  0  0  0  0  0  0  0
  131.7910   76.4560  227.5950 Cl  0  0  0  0  0  0  0  0  0  0  0  0
  133.7830   75.3980  226.0330 C   0  0  0  0  0  0  0  0  0  0  0  0
  134.5090   74.3440  225.5040 C   0  0  0  0  0  0  0  0  0  0  0  0
  134.2070   73.0360  225.8290 C   0  0  0  0  0  0  0  0  0  0  0  0
  134.9330   72.0360  225.2970 N   0  0  0  0  0  0  0  0  0  0  0  0
  137.1610   70.8960  224.7270 H   0  0  0  0  0  0  0  0  0  0  0  0
  137.0607   68.0331  223.7870 H   0  0  0  0  0  0  0  0  0  0  0  0
  138.1058   69.3542  223.1122 H   0  0  0  0  0  0  0  0  0  0  0  0
  140.1432   70.8251  224.2873 H   0  0  0  0  0  0  0  0  0  0  0  0
  139.2423   71.7047  225.4668 H   0  0  0  0  0  0  0  0  0  0  0  0
  141.8581   70.0385  225.9273 H   0  0  0  0  0  0  0  0  0  0  0  0
  141.7283   71.7446  226.2188 H   0  0  0  0  0  0  0  0  0  0  0  0
  140.1970   71.3825  228.1409 H   0  0  0  0  0  0  0  0  0  0  0  0
  139.6202   68.5463  227.5923 H   0  0  0  0  0  0  0  0  0  0  0  0
  138.4615   69.8953  227.6822 H   0  0  0  0  0  0  0  0  0  0  0  0
  133.3943   69.4401  226.7088 H   0  0  0  0  0  0  0  0  0  0  0  0
  132.0408   71.2456  227.7057 H   0  0  0  0  0  0  0  0  0  0  0  0
  131.5768   73.6142  227.9412 H   0  0  0  0  0  0  0  0  0  0  0  0
  134.0391   76.4329  225.7623 H   0  0  0  0  0  0  0  0  0  0  0  0
  135.3398   74.5519  224.8137 H   0  0  0  0  0  0  0  0  0  0  0  0
  1  2  2  0
  2  3  1  0
  3  4  1  0
  4  5  1  0
  5  6  2  0
  5  7  1  0
  7  8  1  0
  8  9  1  0
  9 10  1  0
 10 11  1  0
 10 12  1  0
  2 13  1  0
 13 14  2  0
 14 15  1  0
 15 16  2  0
 16 17  1  0
 17 18  2  0
 18 19  1  0
 18 20  1  0
 20 21  2  0
 21 22  1  0
 22 23  2  0
 12  7  1  0
 23 13  1  0
 22 16  1  0
  3 24  1  0
  4 25  1  0
  4 26  1  0
  8 27  1  0
  8 28  1  0
  9 29  1  0
  9 30  1  0
 10 31  1  1
 12 32  1  0
 12 33  1  0
 14 34  1  0
 15 35  1  0
 17 36  1  0
 20 37  1  0
 21 38  1  0
M  END
>  <smiles>  (28) 
O=C(NCC(=O)N1CC[C@H](F)C1)c1ccc2cc(Cl)ccc2n1

>  <score_type>  (28) 
oracle

>  <origin>  (28) 
autodockgpu

>  <m_score__min__energy>  (28) 
-6.9199999999999999

>  <m_primary>  (28) 
energy

>  <rmsd>  (28) 
8.155346635564369

>  <m_score__min__rmsd>  (28) 
8.155346635564369

>  <meeko>  (28) 
{"free_energy": -6.61, "intermolecular_energy": -7.8, "internal_energy": -1.07, "cluster_size": 7, "cluster_id": 3, "rank_in_cluster": 3}

>  <energy>  (28) 
-6.61

>  <cluster_rmsd>  (28) 
1.57

>  <cluster>  (28) 
2

$$$$

     RDKit          3D

 38 40  0  0  0  0  0  0  0  0999 V2000
  139.8590   69.8440  222.2440 O   0  0  0  0  0  0  0  0  0  0  0  0
  139.5910   70.9580  222.7300 C   0  0  0  0  0  0  0  0  0  0  0  0
  138.7020   71.0240  223.8290 N   0  0  0  0  0  0  0  0  0  0  0  0
  138.0860   69.8570  224.4210 C   0  0  0  0  0  0  0  0  0  0  0  0
  139.0840   68.9760  225.0760 C   0  0  0  0  0  0  0  0  0  0  0  0
  139.1860   67.7680  224.8190 O   0  0  0  0  0  0  0  0  0  0  0  0
  139.9540   69.5570  226.0390 N   0  0  0  0  0  0  0  0  0  0  0  0
  140.1710   69.1080  227.4110 C   0  0  0  0  0  0  0  0  0  0  0  0
  140.1100   70.4680  228.1210 C   0  0  0  0  0  0  0  0  0  0  0  0
  141.0600   71.2760  227.2620 C   0  0  2  0  0  0  0  0  0  0  0  0
  140.7930   72.6290  227.3270 F   0  0  0  0  0  0  0  0  0  0  0  0
  140.8170   70.7120  225.8860 C   0  0  0  0  0  0  0  0  0  0  0  0
  140.1550   72.2080  222.2110 C   0  0  0  0  0  0  0  0  0  0  0  0
  141.3210   72.2030  221.4650 C   0  0  0  0  0  0  0  0  0  0  0  0
  141.8780   73.3560  220.9650 C   0  0  0  0  0  0  0  0  0  0  0  0
  141.2510   74.5570  221.2160 C   0  0  0  0  0  0  0  0  0  0  0  0
  141.7890   75.7420  220.7240 C   0  0  0  0  0  0  0  0  0  0  0  0
  141.1290   76.9440  220.9970 C   0  0  0  0  0  0  0  0  0  0  0  0
  141.7940   78.4400  220.3830 Cl  0  0  0  0  0  0  0  0  0  0  0  0
  139.9540   76.9340  221.7510 C   0  0  0  0  0  0  0  0  0  0  0  0
  139.4470   75.7360  222.2250 C   0  0  0  0  0  0  0  0  0  0  0  0
  140.0840   74.5390  221.9660 C   0  0  0  0  0  0  0  0  0  0  0  0
  139.5640   73.3930  222.4430 N   0  0  0  0  0  0  0  0  0  0  0  0
  138.4780   71.9610  224.2350 H   0  0  0  0  0  0  0  0  0  0  0  0
  137.3532   70.1847  225.1731 H   0  0  0  0  0  0  0  0  0  0  0  0
  137.6007   69.2835  223.6176 H   0  0  0  0  0  0  0  0  0  0  0  0
  139.3768   68.4281  227.7530 H   0  0  0  0  0  0  0  0  0  0  0  0
  141.0900   68.5273  227.5790 H   0  0  0  0  0  0  0  0  0  0  0  0
  139.0934   70.8878  228.1061 H   0  0  0  0  0  0  0  0  0  0  0  0
  140.3732   70.4379  229.1886 H   0  0  0  0  0  0  0  0  0  0  0  0
  142.1098   71.1989  227.5815 H   0  0  0  0  0  0  0  0  0  0  0  0
  140.3280   71.4657  225.2513 H   0  0  0  0  0  0  0  0  0  0  0  0
  141.7664   70.4279  225.4086 H   0  0  0  0  0  0  0  0  0  0  0  0
  141.8193   71.2429  221.2653 H   0  0  0  0  0  0  0  0  0  0  0  0
  142.8063   73.3205  220.3759 H   0  0  0  0  0  0  0  0  0  0  0  0
  142.7158   75.7334  220.1316 H   0  0  0  0  0  0  0  0  0  0  0  0
  139.4314   77.8772  221.9683 H   0  0  0  0  0  0  0  0  0  0  0  0
  138.5207   75.7380  222.8182 H   0  0  0  0  0  0  0  0  0  0  0  0
  1  2  2  0
  2  3  1  0
  3  4  1  0
  4  5  1  0
  5  6  2  0
  5  7  1  0
  7  8  1  0
  8  9  1  0
  9 10  1  0
 10 11  1  0
 10 12  1  0
  2 13  1  0
 13 14  2  0
 14 15  1  0
 15 16  2  0
 16 17  1  0
 17 18  2  0
 18 19  1  0
 18 20  1  0
 20 21  2  0
 21 22  1  0
 22 23  2  0
 12  7  1  0
 23 13  1  0
 22 16  1  0
  3 24  1  0
  4 25  1  0
  4 26  1  0
  8 27  1  0
  8 28  1  0
  9 29  1  0
  9 30  1  0
 10 31  1  1
 12 32  1  0
 12 33  1  0
 14 34  1  0
 15 35  1  0
 17 36  1  0
 20 37  1  0
 21 38  1  0
M  END
>  <smiles>  (29) 
O=C(NCC(=O)N1CC[C@H](F)C1)c1ccc2cc(Cl)ccc2n1

>  <score_type>  (29) 
oracle

>  <origin>  (29) 
autodockgpu

>  <m_score__min__energy>  (29) 
-6.9199999999999999

>  <m_primary>  (29) 
energy

>  <rmsd>  (29) 
8.012338074911215

>  <m_score__min__rmsd>  (29) 
8.012338074911215

>  <meeko>  (29) 
{"free_energy": -6.74, "intermolecular_energy": -7.93, "internal_energy": -1.16, "cluster_size": 29, "cluster_id": 2, "rank_in_cluster": 1}

>  <energy>  (29) 
-6.61

>  <cluster_rmsd>  (29) 
1.78

>  <cluster>  (29) 
2

$$$$

     RDKit          3D

 38 40  0  0  0  0  0  0  0  0999 V2000
  141.0650   71.2120  221.3340 O   0  0  0  0  0  0  0  0  0  0  0  0
  140.4340   72.1590  221.8390 C   0  0  0  0  0  0  0  0  0  0  0  0
  139.3430   71.8700  222.6930 N   0  0  0  0  0  0  0  0  0  0  0  0
  138.9210   70.5230  223.0110 C   0  0  0  0  0  0  0  0  0  0  0  0
  138.6260   70.3620  224.4560 C   0  0  0  0  0  0  0  0  0  0  0  0
  137.4850   70.1490  224.8900 O   0  0  0  0  0  0  0  0  0  0  0  0
  139.7090   70.4580  225.3710 N   0  0  0  0  0  0  0  0  0  0  0  0
  140.0740   69.4940  226.4050 C   0  0  0  0  0  0  0  0  0  0  0  0
  140.3170   70.4680  227.5660 C   0  0  0  0  0  0  0  0  0  0  0  0
  141.2240   71.4800  226.8990 C   0  0  2  0  0  0  0  0  0  0  0  0
  141.1640   72.7130  227.5150 F   0  0  0  0  0  0  0  0  0  0  0  0
  140.6910   71.5180  225.4910 C   0  0  0  0  0  0  0  0  0  0  0  0
  140.7710   73.5630  221.5870 C   0  0  0  0  0  0  0  0  0  0  0  0
  141.8110   73.9000  220.7370 C   0  0  0  0  0  0  0  0  0  0  0  0
  142.1550   75.2060  220.4800 C   0  0  0  0  0  0  0  0  0  0  0  0
  141.4370   76.2120  221.0890 C   0  0  0  0  0  0  0  0  0  0  0  0
  141.7600   77.5440  220.8490 C   0  0  0  0  0  0  0  0  0  0  0  0
  141.0120   78.5420  221.4830 C   0  0  0  0  0  0  0  0  0  0  0  0
  141.4070   80.2190  221.1890 Cl  0  0  0  0  0  0  0  0  0  0  0  0
  139.9660   78.1870  222.3370 C   0  0  0  0  0  0  0  0  0  0  0  0
  139.6730   76.8510  222.5530 C   0  0  0  0  0  0  0  0  0  0  0  0
  140.4000   75.8510  221.9360 C   0  0  0  0  0  0  0  0  0  0  0  0
  140.0870   74.5640  222.1690 N   0  0  0  0  0  0  0  0  0  0  0  0
  138.8150   72.6670  223.1150 H   0  0  0  0  0  0  0  0  0  0  0  0
  138.0137   70.2892  222.4347 H   0  0  0  0  0  0  0  0  0  0  0  0
  139.7425   69.8386  222.7526 H   0  0  0  0  0  0  0  0  0  0  0  0
  139.2560   68.7909  226.6207 H   0  0  0  0  0  0  0  0  0  0  0  0
  140.9172   68.8321  226.1583 H   0  0  0  0  0  0  0  0  0  0  0  0
  139.3798   70.9292  227.9109 H   0  0  0  0  0  0  0  0  0  0  0  0
  140.7379   70.0042  228.4703 H   0  0  0  0  0  0  0  0  0  0  0  0
  142.2897   71.2122  226.9502 H   0  0  0  0  0  0  0  0  0  0  0  0
  140.2192   72.4919  225.2936 H   0  0  0  0  0  0  0  0  0  0  0  0
  141.5043   71.3785  224.7637 H   0  0  0  0  0  0  0  0  0  0  0  0
  142.3815   73.0950  220.2507 H   0  0  0  0  0  0  0  0  0  0  0  0
  142.9874   75.4433  219.8012 H   0  0  0  0  0  0  0  0  0  0  0  0
  142.5875   77.8073  220.1738 H   0  0  0  0  0  0  0  0  0  0  0  0
  139.3751   78.9680  222.8379 H   0  0  0  0  0  0  0  0  0  0  0  0
  138.8471   76.5811  223.2275 H   0  0  0  0  0  0  0  0  0  0  0  0
  1  2  2  0
  2  3  1  0
  3  4  1  0
  4  5  1  0
  5  6  2  0
  5  7  1  0
  7  8  1  0
  8  9  1  0
  9 10  1  0
 10 11  1  0
 10 12  1  0
  2 13  1  0
 13 14  2  0
 14 15  1  0
 15 16  2  0
 16 17  1  0
 17 18  2  0
 18 19  1  0
 18 20  1  0
 20 21  2  0
 21 22  1  0
 22 23  2  0
 12  7  1  0
 23 13  1  0
 22 16  1  0
  3 24  1  0
  4 25  1  0
  4 26  1  0
  8 27  1  0
  8 28  1  0
  9 29  1  0
  9 30  1  0
 10 31  1  6
 12 32  1  0
 12 33  1  0
 14 34  1  0
 15 35  1  0
 17 36  1  0
 20 37  1  0
 21 38  1  0
M  END
>  <smiles>  (30) 
O=C(NCC(=O)N1CC[C@H](F)C1)c1ccc2cc(Cl)ccc2n1

>  <score_type>  (30) 
oracle

>  <origin>  (30) 
autodockgpu

>  <m_score__min__energy>  (30) 
-6.9199999999999999

>  <m_primary>  (30) 
energy

>  <rmsd>  (30) 
8.094946899060377

>  <m_score__min__rmsd>  (30) 
8.094946899060377

>  <meeko>  (30) 
{"free_energy": -6.54, "intermolecular_energy": -7.74, "internal_energy": -1.14, "cluster_size": 29, "cluster_id": 2, "rank_in_cluster": 25}

>  <energy>  (30) 
-6.61

>  <cluster_rmsd>  (30) 
1.77

>  <cluster>  (30) 
2

$$$$

     RDKit          3D

 38 40  0  0  0  0  0  0  0  0999 V2000
  140.0890   72.4890  220.6750 O   0  0  0  0  0  0  0  0  0  0  0  0
  139.9320   72.8370  221.8590 C   0  0  0  0  0  0  0  0  0  0  0  0
  139.6920   74.2030  222.1400 N   0  0  0  0  0  0  0  0  0  0  0  0
  139.6190   75.2220  221.1160 C   0  0  0  0  0  0  0  0  0  0  0  0
  140.8830   75.9920  221.0100 C   0  0  0  0  0  0  0  0  0  0  0  0
  141.9160   75.5250  220.5110 O   0  0  0  0  0  0  0  0  0  0  0  0
  140.8930   77.3250  221.5060 N   0  0  0  0  0  0  0  0  0  0  0  0
  141.5420   78.4830  220.8980 C   0  0  0  0  0  0  0  0  0  0  0  0
  142.1970   79.0770  222.1530 C   0  0  0  0  0  0  0  0  0  0  0  0
  141.0220   79.0830  223.1080 C   0  0  2  0  0  0  0  0  0  0  0  0
  141.4270   79.0510  224.4270 F   0  0  0  0  0  0  0  0  0  0  0  0
  140.2720   77.8380  222.7120 C   0  0  0  0  0  0  0  0  0  0  0  0
  139.9860   71.8920  222.9790 C   0  0  0  0  0  0  0  0  0  0  0  0
  139.5410   70.5900  222.8290 C   0  0  0  0  0  0  0  0  0  0  0  0
  139.5760   69.6790  223.8580 C   0  0  0  0  0  0  0  0  0  0  0  0
  140.0730   70.0780  225.0790 C   0  0  0  0  0  0  0  0  0  0  0  0
  140.1220   69.1800  226.1400 C   0  0  0  0  0  0  0  0  0  0  0  0
  140.6310   69.6170  227.3680 C   0  0  0  0  0  0  0  0  0  0  0  0
  140.6990   68.4980  228.7090 Cl  0  0  0  0  0  0  0  0  0  0  0  0
  141.0770   70.9330  227.5040 C   0  0  0  0  0  0  0  0  0  0  0  0
  141.0130   71.8000  226.4260 C   0  0  0  0  0  0  0  0  0  0  0  0
  140.5130   71.3880  225.2070 C   0  0  0  0  0  0  0  0  0  0  0  0
  140.4660   72.2560  224.1810 N   0  0  0  0  0  0  0  0  0  0  0  0
  139.5610   74.4930  223.1360 H   0  0  0  0  0  0  0  0  0  0  0  0
  139.4141   74.7400  220.1487 H   0  0  0  0  0  0  0  0  0  0  0  0
  138.8154   75.9220  221.3886 H   0  0  0  0  0  0  0  0  0  0  0  0
  142.2868   78.1896  220.1435 H   0  0  0  0  0  0  0  0  0  0  0  0
  140.8766   79.1622  220.3449 H   0  0  0  0  0  0  0  0  0  0  0  0
  143.0157   78.4418  222.5220 H   0  0  0  0  0  0  0  0  0  0  0  0
  142.6662   80.0602  222.0008 H   0  0  0  0  0  0  0  0  0  0  0  0
  140.4111   79.9953  223.0416 H   0  0  0  0  0  0  0  0  0  0  0  0
  140.3348   77.0893  223.5154 H   0  0  0  0  0  0  0  0  0  0  0  0
  139.2095   78.0627  222.5373 H   0  0  0  0  0  0  0  0  0  0  0  0
  139.1456   70.2732  221.8526 H   0  0  0  0  0  0  0  0  0  0  0  0
  139.2140   68.6510  223.7090 H   0  0  0  0  0  0  0  0  0  0  0  0
  139.7674   68.1461  226.0161 H   0  0  0  0  0  0  0  0  0  0  0  0
  141.4790   71.2810  228.4669 H   0  0  0  0  0  0  0  0  0  0  0  0
  141.3667   72.8350  226.5431 H   0  0  0  0  0  0  0  0  0  0  0  0
  1  2  2  0
  2  3  1  0
  3  4  1  0
  4  5  1  0
  5  6  2  0
  5  7  1  0
  7  8  1  0
  8  9  1  0
  9 10  1  0
 10 11  1  0
 10 12  1  0
  2 13  1  0
 13 14  2  0
 14 15  1  0
 15 16  2  0
 16 17  1  0
 17 18  2  0
 18 19  1  0
 18 20  1  0
 20 21  2  0
 21 22  1  0
 22 23  2  0
 12  7  1  0
 23 13  1  0
 22 16  1  0
  3 24  1  0
  4 25  1  0
  4 26  1  0
  8 27  1  0
  8 28  1  0
  9 29  1  0
  9 30  1  0
 10 31  1  1
 12 32  1  0
 12 33  1  0
 14 34  1  0
 15 35  1  0
 17 36  1  0
 20 37  1  0
 21 38  1  0
M  END
>  <smiles>  (31) 
O=C(NCC(=O)N1CC[C@H](F)C1)c1ccc2cc(Cl)ccc2n1

>  <score_type>  (31) 
oracle

>  <origin>  (31) 
autodockgpu

>  <m_score__min__energy>  (31) 
-6.9199999999999999

>  <m_primary>  (31) 
energy

>  <rmsd>  (31) 
3.05032473745377

>  <m_score__min__rmsd>  (31) 
3.05032473745377

>  <meeko>  (31) 
{"free_energy": -6.89, "intermolecular_energy": -8.08, "internal_energy": -0.89, "cluster_size": 12, "cluster_id": 1, "rank_in_cluster": 4}

>  <energy>  (31) 
-6.6

>  <cluster_rmsd>  (31) 
1.77

>  <cluster>  (31) 
2

$$$$

     RDKit          3D

 38 40  0  0  0  0  0  0  0  0999 V2000
  141.1580   71.4450  221.3060 O   0  0  0  0  0  0  0  0  0  0  0  0
  140.5020   72.3680  221.8210 C   0  0  0  0  0  0  0  0  0  0  0  0
  139.4090   72.0420  222.6590 N   0  0  0  0  0  0  0  0  0  0  0  0
  139.0140   70.6800  222.9500 C   0  0  0  0  0  0  0  0  0  0  0  0
  138.6120   70.5110  224.3680 C   0  0  0  0  0  0  0  0  0  0  0  0
  137.4320   70.3650  224.7200 O   0  0  0  0  0  0  0  0  0  0  0  0
  139.6340   70.5180  225.3550 N   0  0  0  0  0  0  0  0  0  0  0  0
  139.8590   69.5160  226.3940 C   0  0  0  0  0  0  0  0  0  0  0  0
  140.0910   70.4550  227.5860 C   0  0  0  0  0  0  0  0  0  0  0  0
  141.1100   71.4090  226.9990 C   0  0  2  0  0  0  0  0  0  0  0  0
  141.0940   72.6350  227.6320 F   0  0  0  0  0  0  0  0  0  0  0  0
  140.6780   71.5040  225.5590 C   0  0  0  0  0  0  0  0  0  0  0  0
  140.8110   73.7840  221.5970 C   0  0  0  0  0  0  0  0  0  0  0  0
  141.8090   74.1600  220.7140 C   0  0  0  0  0  0  0  0  0  0  0  0
  142.1250   75.4770  220.4810 C   0  0  0  0  0  0  0  0  0  0  0  0
  141.4230   76.4550  221.1500 C   0  0  0  0  0  0  0  0  0  0  0  0
  141.7180   77.7970  220.9360 C   0  0  0  0  0  0  0  0  0  0  0  0
  140.9870   78.7660  221.6310 C   0  0  0  0  0  0  0  0  0  0  0  0
  141.3480   80.4560  221.3700 Cl  0  0  0  0  0  0  0  0  0  0  0  0
  139.9840   78.3720  222.5180 C   0  0  0  0  0  0  0  0  0  0  0  0
  139.7160   77.0270  222.7070 C   0  0  0  0  0  0  0  0  0  0  0  0
  140.4270   76.0560  222.0300 C   0  0  0  0  0  0  0  0  0  0  0  0
  140.1410   74.7580  222.2370 N   0  0  0  0  0  0  0  0  0  0  0  0
  138.8600   72.8190  223.0900 H   0  0  0  0  0  0  0  0  0  0  0  0
  138.1645   70.4107  222.3051 H   0  0  0  0  0  0  0  0  0  0  0  0
  139.8786   70.0268  222.7608 H   0  0  0  0  0  0  0  0  0  0  0  0
  138.9805   68.8707  226.5420 H   0  0  0  0  0  0  0  0  0  0  0  0
  140.6679   68.7984  226.1923 H   0  0  0  0  0  0  0  0  0  0  0  0
  139.1673   70.9771  227.8762 H   0  0  0  0  0  0  0  0  0  0  0  0
  140.4165   69.9504  228.5076 H   0  0  0  0  0  0  0  0  0  0  0  0
  142.1483   71.0653  227.1161 H   0  0  0  0  0  0  0  0  0  0  0  0
  140.2903   72.5116  225.3482 H   0  0  0  0  0  0  0  0  0  0  0  0
  141.5269   71.3169  224.8850 H   0  0  0  0  0  0  0  0  0  0  0  0
  142.3684   73.3774  220.1805 H   0  0  0  0  0  0  0  0  0  0  0  0
  142.9235   75.7450  219.7735 H   0  0  0  0  0  0  0  0  0  0  0  0
  142.5115   78.0910  220.2332 H   0  0  0  0  0  0  0  0  0  0  0  0
  139.4064   79.1303  223.0670 H   0  0  0  0  0  0  0  0  0  0  0  0
  138.9234   76.7268  223.4082 H   0  0  0  0  0  0  0  0  0  0  0  0
  1  2  2  0
  2  3  1  0
  3  4  1  0
  4  5  1  0
  5  6  2  0
  5  7  1  0
  7  8  1  0
  8  9  1  0
  9 10  1  0
 10 11  1  0
 10 12  1  0
  2 13  1  0
 13 14  2  0
 14 15  1  0
 15 16  2  0
 16 17  1  0
 17 18  2  0
 18 19  1  0
 18 20  1  0
 20 21  2  0
 21 22  1  0
 22 23  2  0
 12  7  1  0
 23 13  1  0
 22 16  1  0
  3 24  1  0
  4 25  1  0
  4 26  1  0
  8 27  1  0
  8 28  1  0
  9 29  1  0
  9 30  1  0
 10 31  1  6
 12 32  1  0
 12 33  1  0
 14 34  1  0
 15 35  1  0
 17 36  1  0
 20 37  1  0
 21 38  1  0
M  END
>  <smiles>  (32) 
O=C(NCC(=O)N1CC[C@H](F)C1)c1ccc2cc(Cl)ccc2n1

>  <score_type>  (32) 
oracle

>  <origin>  (32) 
autodockgpu

>  <m_score__min__energy>  (32) 
-6.9199999999999999

>  <m_primary>  (32) 
energy

>  <rmsd>  (32) 
8.159328772294787

>  <m_score__min__rmsd>  (32) 
8.159328772294787

>  <meeko>  (32) 
{"free_energy": -6.54, "intermolecular_energy": -7.73, "internal_energy": -1.12, "cluster_size": 29, "cluster_id": 2, "rank_in_cluster": 26}

>  <energy>  (32) 
-6.6

>  <cluster_rmsd>  (32) 
1.58

>  <cluster>  (32) 
2

$$$$

     RDKit          3D

 38 40  0  0  0  0  0  0  0  0999 V2000
  141.5060   72.0300  220.8610 O   0  0  0  0  0  0  0  0  0  0  0  0
  140.9430   72.9140  221.5320 C   0  0  0  0  0  0  0  0  0  0  0  0
  140.0480   72.5230  222.5570 N   0  0  0  0  0  0  0  0  0  0  0  0
  139.7530   71.1410  222.8670 C   0  0  0  0  0  0  0  0  0  0  0  0
  139.1040   70.9970  224.1930 C   0  0  0  0  0  0  0  0  0  0  0  0
  137.8860   71.1400  224.3650 O   0  0  0  0  0  0  0  0  0  0  0  0
  139.9290   70.6790  225.3060 N   0  0  0  0  0  0  0  0  0  0  0  0
  139.9620   69.4200  226.0450 C   0  0  0  0  0  0  0  0  0  0  0  0
  139.9690   69.9790  227.4740 C   0  0  0  0  0  0  0  0  0  0  0  0
  141.0760   71.0060  227.3680 C   0  0  2  0  0  0  0  0  0  0  0  0
  140.9430   72.0090  228.3070 F   0  0  0  0  0  0  0  0  0  0  0  0
  140.9150   71.5180  225.9600 C   0  0  0  0  0  0  0  0  0  0  0  0
  141.1640   74.3450  221.3060 C   0  0  0  0  0  0  0  0  0  0  0  0
  141.9910   74.7820  220.2850 C   0  0  0  0  0  0  0  0  0  0  0  0
  142.2220   76.1160  220.0470 C   0  0  0  0  0  0  0  0  0  0  0  0
  141.6070   77.0480  220.8530 C   0  0  0  0  0  0  0  0  0  0  0  0
  141.8200   78.4060  220.6380 C   0  0  0  0  0  0  0  0  0  0  0  0
  141.1820   79.3280  221.4740 C   0  0  0  0  0  0  0  0  0  0  0  0
  141.4400   81.0370  221.2130 Cl  0  0  0  0  0  0  0  0  0  0  0  0
  140.3510   78.8730  222.4990 C   0  0  0  0  0  0  0  0  0  0  0  0
  140.1610   77.5140  222.6850 C   0  0  0  0  0  0  0  0  0  0  0  0
  140.7830   76.5890  221.8700 C   0  0  0  0  0  0  0  0  0  0  0  0
  140.5770   75.2760  222.0790 N   0  0  0  0  0  0  0  0  0  0  0  0
  139.5760   73.2670  223.1190 H   0  0  0  0  0  0  0  0  0  0  0  0
  139.0789   70.7398  222.0959 H   0  0  0  0  0  0  0  0  0  0  0  0
  140.7031   70.5871  222.8910 H   0  0  0  0  0  0  0  0  0  0  0  0
  139.0729   68.8030  225.8481 H   0  0  0  0  0  0  0  0  0  0  0  0
  140.7965   68.7478  225.7964 H   0  0  0  0  0  0  0  0  0  0  0  0
  139.0066   70.4454  227.7315 H   0  0  0  0  0  0  0  0  0  0  0  0
  140.1206   69.2236  228.2591 H   0  0  0  0  0  0  0  0  0  0  0  0
  142.0755   70.5911  227.5649 H   0  0  0  0  0  0  0  0  0  0  0  0
  140.5694   72.5622  225.9764 H   0  0  0  0  0  0  0  0  0  0  0  0
  141.8736   71.4845  225.4215 H   0  0  0  0  0  0  0  0  0  0  0  0
  142.4802   74.0356  219.6419 H   0  0  0  0  0  0  0  0  0  0  0  0
  142.8852   76.4329  219.2286 H   0  0  0  0  0  0  0  0  0  0  0  0
  142.4780   78.7481  219.8256 H   0  0  0  0  0  0  0  0  0  0  0  0
  139.8469   79.5941  223.1592 H   0  0  0  0  0  0  0  0  0  0  0  0
  139.5037   77.1656  223.4953 H   0  0  0  0  0  0  0  0  0  0  0  0
  1  2  2  0
  2  3  1  0
  3  4  1  0
  4  5  1  0
  5  6  2  0
  5  7  1  0
  7  8  1  0
  8  9  1  0
  9 10  1  0
 10 11  1  0
 10 12  1  0
  2 13  1  0
 13 14  2  0
 14 15  1  0
 15 16  2  0
 16 17  1  0
 17 18  2  0
 18 19  1  0
 18 20  1  0
 20 21  2  0
 21 22  1  0
 22 23  2  0
 12  7  1  0
 23 13  1  0
 22 16  1  0
  3 24  1  0
  4 25  1  0
  4 26  1  0
  8 27  1  0
  8 28  1  0
  9 29  1  0
  9 30  1  0
 10 31  1  6
 12 32  1  0
 12 33  1  0
 14 34  1  0
 15 35  1  0
 17 36  1  0
 20 37  1  0
 21 38  1  0
M  END
>  <smiles>  (33) 
O=C(NCC(=O)N1CC[C@H](F)C1)c1ccc2cc(Cl)ccc2n1

>  <score_type>  (33) 
oracle

>  <origin>  (33) 
autodockgpu

>  <m_score__min__energy>  (33) 
-6.9199999999999999

>  <m_primary>  (33) 
energy

>  <rmsd>  (33) 
8.487210649102979

>  <m_score__min__rmsd>  (33) 
8.487210649102979

>  <meeko>  (33) 
{"free_energy": -6.61, "intermolecular_energy": -7.8, "internal_energy": -1.05, "cluster_size": 29, "cluster_id": 2, "rank_in_cluster": 18}

>  <energy>  (33) 
-6.59

>  <cluster_rmsd>  (33) 
0.56

>  <cluster>  (33) 
2

$$$$

     RDKit          3D

 38 40  0  0  0  0  0  0  0  0999 V2000
  135.0180   68.5140  224.8120 O   0  0  0  0  0  0  0  0  0  0  0  0
  135.4630   69.6640  224.9780 C   0  0  0  0  0  0  0  0  0  0  0  0
  136.7970   69.9390  224.5910 N   0  0  0  0  0  0  0  0  0  0  0  0
  137.6740   68.9460  224.0100 C   0  0  0  0  0  0  0  0  0  0  0  0
  138.7760   68.5730  224.9290 C   0  0  0  0  0  0  0  0  0  0  0  0
  139.2380   67.4260  224.9950 O   0  0  0  0  0  0  0  0  0  0  0  0
  139.3170   69.5880  225.7660 N   0  0  0  0  0  0  0  0  0  0  0  0
  139.8920   70.8610  225.3420 C   0  0  0  0  0  0  0  0  0  0  0  0
  141.1470   70.8630  226.2260 C   0  0  0  0  0  0  0  0  0  0  0  0
  140.5410   70.5370  227.5750 C   0  0  2  0  0  0  0  0  0  0  0  0
  141.4580   69.9540  228.4260 F   0  0  0  0  0  0  0  0  0  0  0  0
  139.4220   69.5970  227.2120 C   0  0  0  0  0  0  0  0  0  0  0  0
  134.6670   70.7490  225.5580 C   0  0  0  0  0  0  0  0  0  0  0  0
  133.6160   70.4750  226.4170 C   0  0  0  0  0  0  0  0  0  0  0  0
  132.8480   71.4680  226.9780 C   0  0  0  0  0  0  0  0  0  0  0  0
  133.1370   72.7800  226.6740 C   0  0  0  0  0  0  0  0  0  0  0  0
  132.3790   73.8080  227.2250 C   0  0  0  0  0  0  0  0  0  0  0  0
  132.6970   75.1290  226.8960 C   0  0  0  0  0  0  0  0  0  0  0  0
  131.7530   76.4300  227.5840 Cl  0  0  0  0  0  0  0  0  0  0  0  0
  133.7590   75.3910  226.0290 C   0  0  0  0  0  0  0  0  0  0  0  0
  134.4930   74.3430  225.4980 C   0  0  0  0  0  0  0  0  0  0  0  0
  134.1940   73.0310  225.8110 C   0  0  0  0  0  0  0  0  0  0  0  0
  134.9270   72.0380  225.2780 N   0  0  0  0  0  0  0  0  0  0  0  0
  137.1690   70.9050  224.7320 H   0  0  0  0  0  0  0  0  0  0  0  0
  137.0862   68.0460  223.7765 H   0  0  0  0  0  0  0  0  0  0  0  0
  138.1201   69.3764  223.1013 H   0  0  0  0  0  0  0  0  0  0  0  0
  140.1419   70.8644  224.2708 H   0  0  0  0  0  0  0  0  0  0  0  0
  139.2352   71.7367  225.4505 H   0  0  0  0  0  0  0  0  0  0  0  0
  141.8673   70.0945  225.9089 H   0  0  0  0  0  0  0  0  0  0  0  0
  141.7231   71.7997  226.1987 H   0  0  0  0  0  0  0  0  0  0  0  0
  140.1976   71.4252  228.1255 H   0  0  0  0  0  0  0  0  0  0  0  0
  139.6469   68.5848  227.5792 H   0  0  0  0  0  0  0  0  0  0  0  0
  138.4761   69.9236  227.6687 H   0  0  0  0  0  0  0  0  0  0  0  0
  133.3876   69.4265  226.6590 H   0  0  0  0  0  0  0  0  0  0  0  0
  132.0187   71.2194  227.6566 H   0  0  0  0  0  0  0  0  0  0  0  0
  131.5450   73.5857  227.9069 H   0  0  0  0  0  0  0  0  0  0  0  0
  134.0129   76.4289  225.7676 H   0  0  0  0  0  0  0  0  0  0  0  0
  135.3281   74.5591  224.8155 H   0  0  0  0  0  0  0  0  0  0  0  0
  1  2  2  0
  2  3  1  0
  3  4  1  0
  4  5  1  0
  5  6  2  0
  5  7  1  0
  7  8  1  0
  8  9  1  0
  9 10  1  0
 10 11  1  0
 10 12  1  0
  2 13  1  0
 13 14  2  0
 14 15  1  0
 15 16  2  0
 16 17  1  0
 17 18  2  0
 18 19  1  0
 18 20  1  0
 20 21  2  0
 21 22  1  0
 22 23  2  0
 12  7  1  0
 23 13  1  0
 22 16  1  0
  3 24  1  0
  4 25  1  0
  4 26  1  0
  8 27  1  0
  8 28  1  0
  9 29  1  0
  9 30  1  0
 10 31  1  1
 12 32  1  0
 12 33  1  0
 14 34  1  0
 15 35  1  0
 17 36  1  0
 20 37  1  0
 21 38  1  0
M  END
>  <smiles>  (34) 
O=C(NCC(=O)N1CC[C@H](F)C1)c1ccc2cc(Cl)ccc2n1

>  <score_type>  (34) 
oracle

>  <origin>  (34) 
autodockgpu

>  <m_score__min__energy>  (34) 
-6.9199999999999999

>  <m_primary>  (34) 
energy

>  <rmsd>  (34) 
8.137492263753566

>  <m_score__min__rmsd>  (34) 
8.137492263753566

>  <meeko>  (34) 
{"free_energy": -6.61, "intermolecular_energy": -7.8, "internal_energy": -1.06, "cluster_size": 7, "cluster_id": 3, "rank_in_cluster": 2}

>  <energy>  (34) 
-6.58

>  <cluster_rmsd>  (34) 
1.46

>  <cluster>  (34) 
2

$$$$

     RDKit          3D

 38 40  0  0  0  0  0  0  0  0999 V2000
  140.8880   72.7150  220.9150 O   0  0  0  0  0  0  0  0  0  0  0  0
  140.2630   72.9270  221.9700 C   0  0  0  0  0  0  0  0  0  0  0  0
  139.5840   74.1590  222.1230 N   0  0  0  0  0  0  0  0  0  0  0  0
  139.5790   75.1910  221.1090 C   0  0  0  0  0  0  0  0  0  0  0  0
  140.8450   75.9640  221.0990 C   0  0  0  0  0  0  0  0  0  0  0  0
  141.9380   75.4600  220.8050 O   0  0  0  0  0  0  0  0  0  0  0  0
  140.7870   77.3420  221.4440 N   0  0  0  0  0  0  0  0  0  0  0  0
  141.6710   78.4040  220.9710 C   0  0  0  0  0  0  0  0  0  0  0  0
  141.9320   79.1110  222.3080 C   0  0  0  0  0  0  0  0  0  0  0  0
  140.5180   79.2620  222.8280 C   0  0  2  0  0  0  0  0  0  0  0  0
  140.4810   79.3630  224.2040 F   0  0  0  0  0  0  0  0  0  0  0  0
  139.8510   78.0060  222.3310 C   0  0  0  0  0  0  0  0  0  0  0  0
  140.1990   71.9540  223.0650 C   0  0  0  0  0  0  0  0  0  0  0  0
  139.6450   70.7000  222.8680 C   0  0  0  0  0  0  0  0  0  0  0  0
  139.5690   69.7650  223.8720 C   0  0  0  0  0  0  0  0  0  0  0  0
  140.0620   70.0890  225.1170 C   0  0  0  0  0  0  0  0  0  0  0  0
  139.9990   69.1640  226.1550 C   0  0  0  0  0  0  0  0  0  0  0  0
  140.5080   69.5230  227.4070 C   0  0  0  0  0  0  0  0  0  0  0  0
  140.4370   68.3700  228.7180 Cl  0  0  0  0  0  0  0  0  0  0  0  0
  141.0640   70.7900  227.5910 C   0  0  0  0  0  0  0  0  0  0  0  0
  141.1100   71.6860  226.5360 C   0  0  0  0  0  0  0  0  0  0  0  0
  140.6120   71.3500  225.2920 C   0  0  0  0  0  0  0  0  0  0  0  0
  140.6730   72.2440  224.2890 N   0  0  0  0  0  0  0  0  0  0  0  0
  139.0590   74.3340  223.0090 H   0  0  0  0  0  0  0  0  0  0  0  0
  139.4418   74.7209  220.1240 H   0  0  0  0  0  0  0  0  0  0  0  0
  138.7572   75.8864  221.3349 H   0  0  0  0  0  0  0  0  0  0  0  0
  142.5953   78.0047  220.5280 H   0  0  0  0  0  0  0  0  0  0  0  0
  141.2622   79.0392  220.1714 H   0  0  0  0  0  0  0  0  0  0  0  0
  142.5468   78.4936  222.9795 H   0  0  0  0  0  0  0  0  0  0  0  0
  142.4900   80.0552  222.2233 H   0  0  0  0  0  0  0  0  0  0  0  0
  140.0220   80.1810  222.4823 H   0  0  0  0  0  0  0  0  0  0  0  0
  139.6055   77.3495  223.1788 H   0  0  0  0  0  0  0  0  0  0  0  0
  138.9163   78.2447  221.8024 H   0  0  0  0  0  0  0  0  0  0  0  0
  139.2521   70.4436  221.8730 H   0  0  0  0  0  0  0  0  0  0  0  0
  139.1231   68.7769  223.6853 H   0  0  0  0  0  0  0  0  0  0  0  0
  139.5573   68.1696  225.9936 H   0  0  0  0  0  0  0  0  0  0  0  0
  141.4657   71.0768  228.5741 H   0  0  0  0  0  0  0  0  0  0  0  0
  141.5505   72.6819  226.6912 H   0  0  0  0  0  0  0  0  0  0  0  0
  1  2  2  0
  2  3  1  0
  3  4  1  0
  4  5  1  0
  5  6  2  0
  5  7  1  0
  7  8  1  0
  8  9  1  0
  9 10  1  0
 10 11  1  0
 10 12  1  0
  2 13  1  0
 13 14  2  0
 14 15  1  0
 15 16  2  0
 16 17  1  0
 17 18  2  0
 18 19  1  0
 18 20  1  0
 20 21  2  0
 21 22  1  0
 22 23  2  0
 12  7  1  0
 23 13  1  0
 22 16  1  0
  3 24  1  0
  4 25  1  0
  4 26  1  0
  8 27  1  0
  8 28  1  0
  9 29  1  0
  9 30  1  0
 10 31  1  6
 12 32  1  0
 12 33  1  0
 14 34  1  0
 15 35  1  0
 17 36  1  0
 20 37  1  0
 21 38  1  0
M  END
>  <smiles>  (35) 
O=C(NCC(=O)N1CC[C@H](F)C1)c1ccc2cc(Cl)ccc2n1

>  <score_type>  (35) 
oracle

>  <origin>  (35) 
autodockgpu

>  <m_score__min__energy>  (35) 
-6.9199999999999999

>  <m_primary>  (35) 
energy

>  <rmsd>  (35) 
2.9974856884288177

>  <m_score__min__rmsd>  (35) 
2.9974856884288177

>  <meeko>  (35) 
{"free_energy": -6.88, "intermolecular_energy": -8.08, "internal_energy": -0.75, "cluster_size": 12, "cluster_id": 1, "rank_in_cluster": 6}

>  <energy>  (35) 
-6.57

>  <cluster_rmsd>  (35) 
1.46

>  <cluster>  (35) 
2

$$$$

     RDKit          3D

 38 40  0  0  0  0  0  0  0  0999 V2000
  139.9390   69.8540  222.3130 O   0  0  0  0  0  0  0  0  0  0  0  0
  139.6200   70.9780  222.7410 C   0  0  0  0  0  0  0  0  0  0  0  0
  138.6840   71.0620  223.7990 N   0  0  0  0  0  0  0  0  0  0  0  0
  138.0750   69.9010  224.4120 C   0  0  0  0  0  0  0  0  0  0  0  0
  139.0840   69.0140  225.0420 C   0  0  0  0  0  0  0  0  0  0  0  0
  139.1960   67.8130  224.7560 O   0  0  0  0  0  0  0  0  0  0  0  0
  139.9540   69.5800  226.0130 N   0  0  0  0  0  0  0  0  0  0  0  0
  140.1580   69.1210  227.3840 C   0  0  0  0  0  0  0  0  0  0  0  0
  140.1070   70.4760  228.1010 C   0  0  0  0  0  0  0  0  0  0  0  0
  141.0700   71.2800  227.2540 C   0  0  2  0  0  0  0  0  0  0  0  0
  140.8170   72.6350  227.3260 F   0  0  0  0  0  0  0  0  0  0  0  0
  140.8300   70.7280  225.8730 C   0  0  0  0  0  0  0  0  0  0  0  0
  140.1710   72.2220  222.1960 C   0  0  0  0  0  0  0  0  0  0  0  0
  141.3120   72.2070  221.4120 C   0  0  0  0  0  0  0  0  0  0  0  0
  141.8560   73.3550  220.8860 C   0  0  0  0  0  0  0  0  0  0  0  0
  141.2420   74.5600  221.1490 C   0  0  0  0  0  0  0  0  0  0  0  0
  141.7670   75.7390  220.6310 C   0  0  0  0  0  0  0  0  0  0  0  0
  141.1210   76.9460  220.9160 C   0  0  0  0  0  0  0  0  0  0  0  0
  141.7710   78.4350  220.2710 Cl  0  0  0  0  0  0  0  0  0  0  0  0
  139.9710   76.9450  221.7080 C   0  0  0  0  0  0  0  0  0  0  0  0
  139.4750   75.7520  222.2070 C   0  0  0  0  0  0  0  0  0  0  0  0
  140.1000   74.5510  221.9360 C   0  0  0  0  0  0  0  0  0  0  0  0
  139.5910   73.4100  222.4370 N   0  0  0  0  0  0  0  0  0  0  0  0
  138.4170   72.0060  224.1560 H   0  0  0  0  0  0  0  0  0  0  0  0
  137.3660   70.2368  225.1830 H   0  0  0  0  0  0  0  0  0  0  0  0
  137.5630   69.3289  223.6242 H   0  0  0  0  0  0  0  0  0  0  0  0
  139.3547   68.4475  227.7173 H   0  0  0  0  0  0  0  0  0  0  0  0
  141.0699   68.5299  227.5541 H   0  0  0  0  0  0  0  0  0  0  0  0
  139.0948   70.9062  228.0824 H   0  0  0  0  0  0  0  0  0  0  0  0
  140.3637   70.4362  229.1699 H   0  0  0  0  0  0  0  0  0  0  0  0
  142.1167   71.1901  227.5801 H   0  0  0  0  0  0  0  0  0  0  0  0
  140.3525   71.4909  225.2405 H   0  0  0  0  0  0  0  0  0  0  0  0
  141.7794   70.4377  225.3994 H   0  0  0  0  0  0  0  0  0  0  0  0
  141.8000   71.2437  221.2027 H   0  0  0  0  0  0  0  0  0  0  0  0
  142.7642   73.3122  220.2669 H   0  0  0  0  0  0  0  0  0  0  0  0
  142.6738   75.7224  220.0085 H   0  0  0  0  0  0  0  0  0  0  0  0
  139.4590   77.8916  221.9356 H   0  0  0  0  0  0  0  0  0  0  0  0
  138.5682   75.7615  222.8295 H   0  0  0  0  0  0  0  0  0  0  0  0
  1  2  2  0
  2  3  1  0
  3  4  1  0
  4  5  1  0
  5  6  2  0
  5  7  1  0
  7  8  1  0
  8  9  1  0
  9 10  1  0
 10 11  1  0
 10 12  1  0
  2 13  1  0
 13 14  2  0
 14 15  1  0
 15 16  2  0
 16 17  1  0
 17 18  2  0
 18 19  1  0
 18 20  1  0
 20 21  2  0
 21 22  1  0
 22 23  2  0
 12  7  1  0
 23 13  1  0
 22 16  1  0
  3 24  1  0
  4 25  1  0
  4 26  1  0
  8 27  1  0
  8 28  1  0
  9 29  1  0
  9 30  1  0
 10 31  1  1
 12 32  1  0
 12 33  1  0
 14 34  1  0
 15 35  1  0
 17 36  1  0
 20 37  1  0
 21 38  1  0
M  END
>  <smiles>  (36) 
O=C(NCC(=O)N1CC[C@H](F)C1)c1ccc2cc(Cl)ccc2n1

>  <score_type>  (36) 
oracle

>  <origin>  (36) 
autodockgpu

>  <m_score__min__energy>  (36) 
-6.9199999999999999

>  <m_primary>  (36) 
energy

>  <rmsd>  (36) 
8.011711847304113

>  <m_score__min__rmsd>  (36) 
8.011711847304113

>  <meeko>  (36) 
{"free_energy": -6.72, "intermolecular_energy": -7.91, "internal_energy": -1.18, "cluster_size": 29, "cluster_id": 2, "rank_in_cluster": 5}

>  <energy>  (36) 
-6.56

>  <cluster_rmsd>  (36) 
0.63

>  <cluster>  (36) 
2

$$$$

     RDKit          3D

 38 40  0  0  0  0  0  0  0  0999 V2000
  140.7590   72.5830  220.7780 O   0  0  0  0  0  0  0  0  0  0  0  0
  140.2310   72.8690  221.8680 C   0  0  0  0  0  0  0  0  0  0  0  0
  139.6770   74.1600  222.0370 N   0  0  0  0  0  0  0  0  0  0  0  0
  139.6930   75.1700  221.0010 C   0  0  0  0  0  0  0  0  0  0  0  0
  140.9580   75.9440  221.0010 C   0  0  0  0  0  0  0  0  0  0  0  0
  142.0310   75.4790  220.5920 O   0  0  0  0  0  0  0  0  0  0  0  0
  140.9230   77.2770  221.4960 N   0  0  0  0  0  0  0  0  0  0  0  0
  141.5050   78.4610  220.8700 C   0  0  0  0  0  0  0  0  0  0  0  0
  142.1660   79.0860  222.1060 C   0  0  0  0  0  0  0  0  0  0  0  0
  141.0170   79.0420  223.0920 C   0  0  2  0  0  0  0  0  0  0  0  0
  141.4580   79.0310  224.4000 F   0  0  0  0  0  0  0  0  0  0  0  0
  140.3120   77.7650  222.7170 C   0  0  0  0  0  0  0  0  0  0  0  0
  140.1590   71.9260  222.9880 C   0  0  0  0  0  0  0  0  0  0  0  0
  139.5760   70.6800  222.8280 C   0  0  0  0  0  0  0  0  0  0  0  0
  139.4910   69.7720  223.8570 C   0  0  0  0  0  0  0  0  0  0  0  0
  140.0030   70.1160  225.0880 C   0  0  0  0  0  0  0  0  0  0  0  0
  139.9320   69.2200  226.1490 C   0  0  0  0  0  0  0  0  0  0  0  0
  140.4620   69.5990  227.3870 C   0  0  0  0  0  0  0  0  0  0  0  0
  140.3800   68.4820  228.7280 Cl  0  0  0  0  0  0  0  0  0  0  0  0
  141.0460   70.8590  227.5330 C   0  0  0  0  0  0  0  0  0  0  0  0
  141.1000   71.7260  226.4550 C   0  0  0  0  0  0  0  0  0  0  0  0
  140.5820   71.3690  225.2260 C   0  0  0  0  0  0  0  0  0  0  0  0
  140.6510   72.2370  224.1990 N   0  0  0  0  0  0  0  0  0  0  0  0
  139.2350   74.3980  222.9530 H   0  0  0  0  0  0  0  0  0  0  0  0
  139.5771   74.6785  220.0237 H   0  0  0  0  0  0  0  0  0  0  0  0
  138.8662   75.8692  221.1946 H   0  0  0  0  0  0  0  0  0  0  0  0
  142.2419   78.1985  220.0966 H   0  0  0  0  0  0  0  0  0  0  0  0
  140.7963   79.1093  220.3339 H   0  0  0  0  0  0  0  0  0  0  0  0
  143.0215   78.4884  222.4538 H   0  0  0  0  0  0  0  0  0  0  0  0
  142.5872   80.0886  221.9405 H   0  0  0  0  0  0  0  0  0  0  0  0
  140.3647   79.9262  223.0411 H   0  0  0  0  0  0  0  0  0  0  0  0
  140.4282   77.0214  223.5192 H   0  0  0  0  0  0  0  0  0  0  0  0
  139.2365   77.9430  222.5698 H   0  0  0  0  0  0  0  0  0  0  0  0
  139.1669   70.4074  221.8440 H   0  0  0  0  0  0  0  0  0  0  0  0
  139.0227   68.7892  223.6997 H   0  0  0  0  0  0  0  0  0  0  0  0
  139.4677   68.2315  226.0173 H   0  0  0  0  0  0  0  0  0  0  0  0
  141.4631   71.1627  228.5045 H   0  0  0  0  0  0  0  0  0  0  0  0
  141.5634   72.7158  226.5797 H   0  0  0  0  0  0  0  0  0  0  0  0
  1  2  2  0
  2  3  1  0
  3  4  1  0
  4  5  1  0
  5  6  2  0
  5  7  1  0
  7  8  1  0
  8  9  1  0
  9 10  1  0
 10 11  1  0
 10 12  1  0
  2 13  1  0
 13 14  2  0
 14 15  1  0
 15 16  2  0
 16 17  1  0
 17 18  2  0
 18 19  1  0
 18 20  1  0
 20 21  2  0
 21 22  1  0
 22 23  2  0
 12  7  1  0
 23 13  1  0
 22 16  1  0
  3 24  1  0
  4 25  1  0
  4 26  1  0
  8 27  1  0
  8 28  1  0
  9 29  1  0
  9 30  1  0
 10 31  1  1
 12 32  1  0
 12 33  1  0
 14 34  1  0
 15 35  1  0
 17 36  1  0
 20 37  1  0
 21 38  1  0
M  END
>  <smiles>  (37) 
O=C(NCC(=O)N1CC[C@H](F)C1)c1ccc2cc(Cl)ccc2n1

>  <score_type>  (37) 
oracle

>  <origin>  (37) 
autodockgpu

>  <m_score__min__energy>  (37) 
-6.9199999999999999

>  <m_primary>  (37) 
energy

>  <rmsd>  (37) 
3.0525657772189954

>  <m_score__min__rmsd>  (37) 
3.0525657772189954

>  <meeko>  (37) 
{"free_energy": -6.92, "intermolecular_energy": -8.11, "internal_energy": -0.78, "cluster_size": 12, "cluster_id": 1, "rank_in_cluster": 3}

>  <energy>  (37) 
-6.54

>  <cluster_rmsd>  (37) 
1.3

>  <cluster>  (37) 
2

$$$$

     RDKit          3D

 38 40  0  0  0  0  0  0  0  0999 V2000
  141.1600   71.5490  221.1540 O   0  0  0  0  0  0  0  0  0  0  0  0
  140.5430   72.4590  221.7360 C   0  0  0  0  0  0  0  0  0  0  0  0
  139.5040   72.1120  222.6320 N   0  0  0  0  0  0  0  0  0  0  0  0
  139.1200   70.7440  222.9070 C   0  0  0  0  0  0  0  0  0  0  0  0
  138.6640   70.5680  224.3070 C   0  0  0  0  0  0  0  0  0  0  0  0
  137.4710   70.4330  224.6140 O   0  0  0  0  0  0  0  0  0  0  0  0
  139.6490   70.5540  225.3320 N   0  0  0  0  0  0  0  0  0  0  0  0
  139.8130   69.5510  226.3810 C   0  0  0  0  0  0  0  0  0  0  0  0
  140.0210   70.4880  227.5780 C   0  0  0  0  0  0  0  0  0  0  0  0
  141.0830   71.4170  227.0270 C   0  0  2  0  0  0  0  0  0  0  0  0
  141.0730   72.6450  227.6560 F   0  0  0  0  0  0  0  0  0  0  0  0
  140.7070   71.5170  225.5720 C   0  0  0  0  0  0  0  0  0  0  0  0
  140.8440   73.8800  221.5340 C   0  0  0  0  0  0  0  0  0  0  0  0
  141.8450   74.2750  220.6620 C   0  0  0  0  0  0  0  0  0  0  0  0
  142.1540   75.5970  220.4500 C   0  0  0  0  0  0  0  0  0  0  0  0
  141.4420   76.5610  221.1300 C   0  0  0  0  0  0  0  0  0  0  0  0
  141.7310   77.9080  220.9370 C   0  0  0  0  0  0  0  0  0  0  0  0
  140.9890   78.8620  221.6410 C   0  0  0  0  0  0  0  0  0  0  0  0
  141.3420   80.5580  221.4070 Cl  0  0  0  0  0  0  0  0  0  0  0  0
  139.9830   78.4500  222.5170 C   0  0  0  0  0  0  0  0  0  0  0  0
  139.7230   77.1000  222.6850 C   0  0  0  0  0  0  0  0  0  0  0  0
  140.4440   76.1430  221.9980 C   0  0  0  0  0  0  0  0  0  0  0  0
  140.1650   74.8400  222.1840 N   0  0  0  0  0  0  0  0  0  0  0  0
  138.9860   72.8780  223.1190 H   0  0  0  0  0  0  0  0  0  0  0  0
  138.3018   70.4611  222.2284 H   0  0  0  0  0  0  0  0  0  0  0  0
  140.0020   70.1050  222.7531 H   0  0  0  0  0  0  0  0  0  0  0  0
  138.9156   68.9256  226.4977 H   0  0  0  0  0  0  0  0  0  0  0  0
  140.6130   68.8153  226.2114 H   0  0  0  0  0  0  0  0  0  0  0  0
  139.0991   71.0318  227.8319 H   0  0  0  0  0  0  0  0  0  0  0  0
  140.2999   69.9794  228.5126 H   0  0  0  0  0  0  0  0  0  0  0  0
  142.1080   71.0499  227.1836 H   0  0  0  0  0  0  0  0  0  0  0  0
  140.3504   72.5324  225.3444 H   0  0  0  0  0  0  0  0  0  0  0  0
  141.5758   71.3086  224.9303 H   0  0  0  0  0  0  0  0  0  0  0  0
  142.4123   73.5037  220.1204 H   0  0  0  0  0  0  0  0  0  0  0  0
  142.9545   75.8803  219.7508 H   0  0  0  0  0  0  0  0  0  0  0  0
  142.5276   78.2168  220.2442 H   0  0  0  0  0  0  0  0  0  0  0  0
  139.3974   79.1968  223.0732 H   0  0  0  0  0  0  0  0  0  0  0  0
  138.9287   76.7846  223.3775 H   0  0  0  0  0  0  0  0  0  0  0  0
  1  2  2  0
  2  3  1  0
  3  4  1  0
  4  5  1  0
  5  6  2  0
  5  7  1  0
  7  8  1  0
  8  9  1  0
  9 10  1  0
 10 11  1  0
 10 12  1  0
  2 13  1  0
 13 14  2  0
 14 15  1  0
 15 16  2  0
 16 17  1  0
 17 18  2  0
 18 19  1  0
 18 20  1  0
 20 21  2  0
 21 22  1  0
 22 23  2  0
 12  7  1  0
 23 13  1  0
 22 16  1  0
  3 24  1  0
  4 25  1  0
  4 26  1  0
  8 27  1  0
  8 28  1  0
  9 29  1  0
  9 30  1  0
 10 31  1  6
 12 32  1  0
 12 33  1  0
 14 34  1  0
 15 35  1  0
 17 36  1  0
 20 37  1  0
 21 38  1  0
M  END
>  <smiles>  (38) 
O=C(NCC(=O)N1CC[C@H](F)C1)c1ccc2cc(Cl)ccc2n1

>  <score_type>  (38) 
oracle

>  <origin>  (38) 
autodockgpu

>  <m_score__min__energy>  (38) 
-6.9199999999999999

>  <m_primary>  (38) 
energy

>  <rmsd>  (38) 
8.192923486013779

>  <m_score__min__rmsd>  (38) 
8.192923486013779

>  <meeko>  (38) 
{"free_energy": -6.58, "intermolecular_energy": -7.77, "internal_energy": -1.11, "cluster_size": 29, "cluster_id": 2, "rank_in_cluster": 22}

>  <energy>  (38) 
-6.54

>  <cluster_rmsd>  (38) 
1.42

>  <cluster>  (38) 
2

$$$$

     RDKit          3D

 38 40  0  0  0  0  0  0  0  0999 V2000
  141.0140   71.1940  221.3020 O   0  0  0  0  0  0  0  0  0  0  0  0
  140.3960   72.1460  221.8110 C   0  0  0  0  0  0  0  0  0  0  0  0
  139.3040   71.8690  222.6670 N   0  0  0  0  0  0  0  0  0  0  0  0
  138.8670   70.5260  222.9840 C   0  0  0  0  0  0  0  0  0  0  0  0
  138.6000   70.3580  224.4330 C   0  0  0  0  0  0  0  0  0  0  0  0
  137.4730   70.1150  224.8870 O   0  0  0  0  0  0  0  0  0  0  0  0
  139.6970   70.4820  225.3300 N   0  0  0  0  0  0  0  0  0  0  0  0
  140.0410   69.5810  226.4260 C   0  0  0  0  0  0  0  0  0  0  0  0
  140.3280   70.6240  227.5140 C   0  0  0  0  0  0  0  0  0  0  0  0
  141.2600   71.5580  226.7700 C   0  0  2  0  0  0  0  0  0  0  0  0
  141.2460   72.8330  227.2990 F   0  0  0  0  0  0  0  0  0  0  0  0
  140.7130   71.5160  225.3670 C   0  0  0  0  0  0  0  0  0  0  0  0
  140.7480   73.5470  221.5610 C   0  0  0  0  0  0  0  0  0  0  0  0
  141.8090   73.8740  220.7320 C   0  0  0  0  0  0  0  0  0  0  0  0
  142.1670   75.1760  220.4770 C   0  0  0  0  0  0  0  0  0  0  0  0
  141.4440   76.1900  221.0670 C   0  0  0  0  0  0  0  0  0  0  0  0
  141.7810   77.5180  220.8290 C   0  0  0  0  0  0  0  0  0  0  0  0
  141.0280   78.5240  221.4430 C   0  0  0  0  0  0  0  0  0  0  0  0
  141.4410   80.1970  221.1500 Cl  0  0  0  0  0  0  0  0  0  0  0  0
  139.9620   78.1800  222.2750 C   0  0  0  0  0  0  0  0  0  0  0  0
  139.6530   76.8470  222.4900 C   0  0  0  0  0  0  0  0  0  0  0  0
  140.3860   75.8400  221.8930 C   0  0  0  0  0  0  0  0  0  0  0  0
  140.0590   74.5550  222.1240 N   0  0  0  0  0  0  0  0  0  0  0  0
  138.7860   72.6700  223.0930 H   0  0  0  0  0  0  0  0  0  0  0  0
  137.9441   70.3113  222.4253 H   0  0  0  0  0  0  0  0  0  0  0  0
  139.6719   69.8308  222.7032 H   0  0  0  0  0  0  0  0  0  0  0  0
  139.2026   68.9224  226.6970 H   0  0  0  0  0  0  0  0  0  0  0  0
  140.8596   68.8759  226.2192 H   0  0  0  0  0  0  0  0  0  0  0  0
  139.4100   71.1383  227.8345 H   0  0  0  0  0  0  0  0  0  0  0  0
  140.7440   70.2101  228.4444 H   0  0  0  0  0  0  0  0  0  0  0  0
  142.3170   71.2595  226.8309 H   0  0  0  0  0  0  0  0  0  0  0  0
  140.2697   72.4885  225.1067 H   0  0  0  0  0  0  0  0  0  0  0  0
  141.5134   71.3010  224.6437 H   0  0  0  0  0  0  0  0  0  0  0  0
  142.3847   73.0632  220.2617 H   0  0  0  0  0  0  0  0  0  0  0  0
  143.0148   75.4045  219.8144 H   0  0  0  0  0  0  0  0  0  0  0  0
  142.6242   77.7725  220.1700 H   0  0  0  0  0  0  0  0  0  0  0  0
  139.3669   78.9676  222.7603 H   0  0  0  0  0  0  0  0  0  0  0  0
  138.8101   76.5861  223.1469 H   0  0  0  0  0  0  0  0  0  0  0  0
  1  2  2  0
  2  3  1  0
  3  4  1  0
  4  5  1  0
  5  6  2  0
  5  7  1  0
  7  8  1  0
  8  9  1  0
  9 10  1  0
 10 11  1  0
 10 12  1  0
  2 13  1  0
 13 14  2  0
 14 15  1  0
 15 16  2  0
 16 17  1  0
 17 18  2  0
 18 19  1  0
 18 20  1  0
 20 21  2  0
 21 22  1  0
 22 23  2  0
 12  7  1  0
 23 13  1  0
 22 16  1  0
  3 24  1  0
  4 25  1  0
  4 26  1  0
  8 27  1  0
  8 28  1  0
  9 29  1  0
  9 30  1  0
 10 31  1  6
 12 32  1  0
 12 33  1  0
 14 34  1  0
 15 35  1  0
 17 36  1  0
 20 37  1  0
 21 38  1  0
M  END
>  <smiles>  (39) 
O=C(NCC(=O)N1CC[C@H](F)C1)c1ccc2cc(Cl)ccc2n1

>  <score_type>  (39) 
oracle

>  <origin>  (39) 
autodockgpu

>  <m_score__min__energy>  (39) 
-6.9199999999999999

>  <m_primary>  (39) 
energy

>  <rmsd>  (39) 
8.053289805837068

>  <m_score__min__rmsd>  (39) 
8.053289805837068

>  <meeko>  (39) 
{"free_energy": -6.53, "intermolecular_energy": -7.72, "internal_energy": -1.15, "cluster_size": 29, "cluster_id": 2, "rank_in_cluster": 27}

>  <energy>  (39) 
-6.53

>  <cluster_rmsd>  (39) 
1.3

>  <cluster>  (39) 
2

$$$$

     RDKit          3D

 38 40  0  0  0  0  0  0  0  0999 V2000
  139.9450   69.8340  222.5380 O   0  0  0  0  0  0  0  0  0  0  0  0
  139.6110   70.9790  222.8910 C   0  0  0  0  0  0  0  0  0  0  0  0
  138.6510   71.1200  223.9220 N   0  0  0  0  0  0  0  0  0  0  0  0
  138.0340   69.9940  224.5890 C   0  0  0  0  0  0  0  0  0  0  0  0
  139.0410   69.0870  225.1920 C   0  0  0  0  0  0  0  0  0  0  0  0
  139.1520   67.8960  224.8700 O   0  0  0  0  0  0  0  0  0  0  0  0
  139.9110   69.6220  226.1800 N   0  0  0  0  0  0  0  0  0  0  0  0
  140.0670   69.1610  227.5570 C   0  0  0  0  0  0  0  0  0  0  0  0
  140.0530   70.5210  228.2690 C   0  0  0  0  0  0  0  0  0  0  0  0
  141.0660   71.2820  227.4400 C   0  0  2  0  0  0  0  0  0  0  0  0
  140.8650   72.6460  227.5030 F   0  0  0  0  0  0  0  0  0  0  0  0
  140.8350   70.7340  226.0560 C   0  0  0  0  0  0  0  0  0  0  0  0
  140.1700   72.1920  222.2860 C   0  0  0  0  0  0  0  0  0  0  0  0
  141.2720   72.1240  221.4510 C   0  0  0  0  0  0  0  0  0  0  0  0
  141.8210   73.2410  220.8680 C   0  0  0  0  0  0  0  0  0  0  0  0
  141.2530   74.4700  221.1250 C   0  0  0  0  0  0  0  0  0  0  0  0
  141.7850   75.6190  220.5500 C   0  0  0  0  0  0  0  0  0  0  0  0
  141.1850   76.8510  220.8300 C   0  0  0  0  0  0  0  0  0  0  0  0
  141.8440   78.3030  220.1130 Cl  0  0  0  0  0  0  0  0  0  0  0  0
  140.0740   76.9040  221.6740 C   0  0  0  0  0  0  0  0  0  0  0  0
  139.5700   75.7400  222.2300 C   0  0  0  0  0  0  0  0  0  0  0  0
  140.1490   74.5140  221.9640 C   0  0  0  0  0  0  0  0  0  0  0  0
  139.6340   73.4030  222.5210 N   0  0  0  0  0  0  0  0  0  0  0  0
  138.3730   72.0830  224.2170 H   0  0  0  0  0  0  0  0  0  0  0  0
  137.3734   70.3703  225.3840 H   0  0  0  0  0  0  0  0  0  0  0  0
  137.4674   69.4228  223.8389 H   0  0  0  0  0  0  0  0  0  0  0  0
  139.2310   68.5206  227.8747 H   0  0  0  0  0  0  0  0  0  0  0  0
  140.9514   68.5357  227.7491 H   0  0  0  0  0  0  0  0  0  0  0  0
  139.0592   70.9907  228.2262 H   0  0  0  0  0  0  0  0  0  0  0  0
  140.2835   70.4763  229.3436 H   0  0  0  0  0  0  0  0  0  0  0  0
  142.1012   71.1516  227.7882 H   0  0  0  0  0  0  0  0  0  0  0  0
  140.4024   71.5125  225.4104 H   0  0  0  0  0  0  0  0  0  0  0  0
  141.7825   70.4041  225.6050 H   0  0  0  0  0  0  0  0  0  0  0  0
  141.7239   71.1421  221.2471 H   0  0  0  0  0  0  0  0  0  0  0  0
  142.6973   73.1556  220.2086 H   0  0  0  0  0  0  0  0  0  0  0  0
  142.6611   75.5601  219.8875 H   0  0  0  0  0  0  0  0  0  0  0  0
  139.5989   77.8706  221.8974 H   0  0  0  0  0  0  0  0  0  0  0  0
  138.6946   75.7924  222.8941 H   0  0  0  0  0  0  0  0  0  0  0  0
  1  2  2  0
  2  3  1  0
  3  4  1  0
  4  5  1  0
  5  6  2  0
  5  7  1  0
  7  8  1  0
  8  9  1  0
  9 10  1  0
 10 11  1  0
 10 12  1  0
  2 13  1  0
 13 14  2  0
 14 15  1  0
 15 16  2  0
 16 17  1  0
 17 18  2  0
 18 19  1  0
 18 20  1  0
 20 21  2  0
 21 22  1  0
 22 23  2  0
 12  7  1  0
 23 13  1  0
 22 16  1  0
  3 24  1  0
  4 25  1  0
  4 26  1  0
  8 27  1  0
  8 28  1  0
  9 29  1  0
  9 30  1  0
 10 31  1  1
 12 32  1  0
 12 33  1  0
 14 34  1  0
 15 35  1  0
 17 36  1  0
 20 37  1  0
 21 38  1  0
M  END
>  <smiles>  (40) 
O=C(NCC(=O)N1CC[C@H](F)C1)c1ccc2cc(Cl)ccc2n1

>  <score_type>  (40) 
oracle

>  <origin>  (40) 
autodockgpu

>  <m_score__min__energy>  (40) 
-6.9199999999999999

>  <m_primary>  (40) 
energy

>  <rmsd>  (40) 
8.0528550154313

>  <m_score__min__rmsd>  (40) 
8.0528550154313

>  <meeko>  (40) 
{"free_energy": -6.68, "intermolecular_energy": -7.87, "internal_energy": -1.18, "cluster_size": 29, "cluster_id": 2, "rank_in_cluster": 14}

>  <energy>  (40) 
-6.51

>  <cluster_rmsd>  (40) 
1.28

>  <cluster>  (40) 
2

$$$$

     RDKit          3D

 38 40  0  0  0  0  0  0  0  0999 V2000
  135.0160   68.5190  224.8800 O   0  0  0  0  0  0  0  0  0  0  0  0
  135.4560   69.6740  225.0200 C   0  0  0  0  0  0  0  0  0  0  0  0
  136.7800   69.9530  224.6040 N   0  0  0  0  0  0  0  0  0  0  0  0
  137.6530   68.9570  224.0210 C   0  0  0  0  0  0  0  0  0  0  0  0
  138.7530   68.5780  224.9420 C   0  0  0  0  0  0  0  0  0  0  0  0
  139.2060   67.4270  225.0110 O   0  0  0  0  0  0  0  0  0  0  0  0
  139.3020   69.5910  225.7740 N   0  0  0  0  0  0  0  0  0  0  0  0
  139.8870   70.8590  225.3470 C   0  0  0  0  0  0  0  0  0  0  0  0
  141.1430   70.8540  226.2290 C   0  0  0  0  0  0  0  0  0  0  0  0
  140.5370   70.5360  227.5790 C   0  0  2  0  0  0  0  0  0  0  0  0
  141.4510   69.9490  228.4310 F   0  0  0  0  0  0  0  0  0  0  0  0
  139.4100   69.6030  227.2210 C   0  0  0  0  0  0  0  0  0  0  0  0
  134.6620   70.7620  225.5980 C   0  0  0  0  0  0  0  0  0  0  0  0
  133.6250   70.4940  226.4750 C   0  0  0  0  0  0  0  0  0  0  0  0
  132.8610   71.4910  227.0350 C   0  0  0  0  0  0  0  0  0  0  0  0
  133.1380   72.8000  226.7090 C   0  0  0  0  0  0  0  0  0  0  0  0
  132.3830   73.8310  227.2590 C   0  0  0  0  0  0  0  0  0  0  0  0
  132.6900   75.1500  226.9090 C   0  0  0  0  0  0  0  0  0  0  0  0
  131.7490   76.4540  227.5930 Cl  0  0  0  0  0  0  0  0  0  0  0  0
  133.7390   75.4050  226.0230 C   0  0  0  0  0  0  0  0  0  0  0  0
  134.4700   74.3540  225.4950 C   0  0  0  0  0  0  0  0  0  0  0  0
  134.1820   73.0460  225.8290 C   0  0  0  0  0  0  0  0  0  0  0  0
  134.9120   72.0490  225.2970 N   0  0  0  0  0  0  0  0  0  0  0  0
  137.1470   70.9230  224.7230 H   0  0  0  0  0  0  0  0  0  0  0  0
  137.0616   68.0600  223.7853 H   0  0  0  0  0  0  0  0  0  0  0  0
  138.1014   69.3863  223.1129 H   0  0  0  0  0  0  0  0  0  0  0  0
  140.1356   70.8583  224.2755 H   0  0  0  0  0  0  0  0  0  0  0  0
  139.2369   71.7398  225.4551 H   0  0  0  0  0  0  0  0  0  0  0  0
  141.8572   70.0794  225.9128 H   0  0  0  0  0  0  0  0  0  0  0  0
  141.7259   71.7864  226.1985 H   0  0  0  0  0  0  0  0  0  0  0  0
  140.2009   71.4286  228.1271 H   0  0  0  0  0  0  0  0  0  0  0  0
  139.6282   68.5901  227.5905 H   0  0  0  0  0  0  0  0  0  0  0  0
  138.4674   69.9376  227.6788 H   0  0  0  0  0  0  0  0  0  0  0  0
  133.4045   69.4476  226.7328 H   0  0  0  0  0  0  0  0  0  0  0  0
  132.0441   71.2475  227.7302 H   0  0  0  0  0  0  0  0  0  0  0  0
  131.5603   73.6131  227.9559 H   0  0  0  0  0  0  0  0  0  0  0  0
  133.9845   76.4405  225.7446 H   0  0  0  0  0  0  0  0  0  0  0  0
  135.2941   74.5651  224.7976 H   0  0  0  0  0  0  0  0  0  0  0  0
  1  2  2  0
  2  3  1  0
  3  4  1  0
  4  5  1  0
  5  6  2  0
  5  7  1  0
  7  8  1  0
  8  9  1  0
  9 10  1  0
 10 11  1  0
 10 12  1  0
  2 13  1  0
 13 14  2  0
 14 15  1  0
 15 16  2  0
 16 17  1  0
 17 18  2  0
 18 19  1  0
 18 20  1  0
 20 21  2  0
 21 22  1  0
 22 23  2  0
 12  7  1  0
 23 13  1  0
 22 16  1  0
  3 24  1  0
  4 25  1  0
  4 26  1  0
  8 27  1  0
  8 28  1  0
  9 29  1  0
  9 30  1  0
 10 31  1  1
 12 32  1  0
 12 33  1  0
 14 34  1  0
 15 35  1  0
 17 36  1  0
 20 37  1  0
 21 38  1  0
M  END
>  <smiles>  (41) 
O=C(NCC(=O)N1CC[C@H](F)C1)c1ccc2cc(Cl)ccc2n1

>  <score_type>  (41) 
oracle

>  <origin>  (41) 
autodockgpu

>  <m_score__min__energy>  (41) 
-6.9199999999999999

>  <m_primary>  (41) 
energy

>  <rmsd>  (41) 
8.150067656599196

>  <m_score__min__rmsd>  (41) 
8.150067656599196

>  <meeko>  (41) 
{"free_energy": -6.61, "intermolecular_energy": -7.8, "internal_energy": -1.07, "cluster_size": 7, "cluster_id": 3, "rank_in_cluster": 1}

>  <energy>  (41) 
-6.16

>  <cluster_rmsd>  (41) 
1.82

>  <cluster>  (41) 
2

$$$$

     RDKit          3D

 38 40  0  0  0  0  0  0  0  0999 V2000
  135.1310   68.5070  224.9380 O   0  0  0  0  0  0  0  0  0  0  0  0
  135.5330   69.6800  225.0400 C   0  0  0  0  0  0  0  0  0  0  0  0
  136.8340   69.9960  224.5800 N   0  0  0  0  0  0  0  0  0  0  0  0
  137.7250   69.0180  223.9940 C   0  0  0  0  0  0  0  0  0  0  0  0
  138.8020   68.6170  224.9330 C   0  0  0  0  0  0  0  0  0  0  0  0
  139.2440   67.4610  224.9950 O   0  0  0  0  0  0  0  0  0  0  0  0
  139.3410   69.6130  225.7910 N   0  0  0  0  0  0  0  0  0  0  0  0
  139.9020   70.9030  225.3980 C   0  0  0  0  0  0  0  0  0  0  0  0
  141.1640   70.8920  226.2710 C   0  0  0  0  0  0  0  0  0  0  0  0
  140.5730   70.5240  227.6150 C   0  0  2  0  0  0  0  0  0  0  0  0
  141.5030   69.9260  228.4430 F   0  0  0  0  0  0  0  0  0  0  0  0
  139.4590   69.5840  227.2370 C   0  0  0  0  0  0  0  0  0  0  0  0
  134.7180   70.7530  225.6170 C   0  0  0  0  0  0  0  0  0  0  0  0
  133.6620   70.4630  226.4650 C   0  0  0  0  0  0  0  0  0  0  0  0
  132.8770   71.4440  227.0220 C   0  0  0  0  0  0  0  0  0  0  0  0
  133.1520   72.7610  226.7260 C   0  0  0  0  0  0  0  0  0  0  0  0
  132.3770   73.7760  227.2740 C   0  0  0  0  0  0  0  0  0  0  0  0
  132.6820   75.1030  226.9540 C   0  0  0  0  0  0  0  0  0  0  0  0
  131.7150   76.3890  227.6380 Cl  0  0  0  0  0  0  0  0  0  0  0  0
  133.7490   75.3810  226.0980 C   0  0  0  0  0  0  0  0  0  0  0  0
  134.5010   74.3450  225.5700 C   0  0  0  0  0  0  0  0  0  0  0  0
  134.2140   73.0280  225.8750 C   0  0  0  0  0  0  0  0  0  0  0  0
  134.9650   72.0460  225.3440 N   0  0  0  0  0  0  0  0  0  0  0  0
  137.1690   70.9810  224.6660 H   0  0  0  0  0  0  0  0  0  0  0  0
  137.1427   68.1262  223.7192 H   0  0  0  0  0  0  0  0  0  0  0  0
  138.1957   69.4726  223.1098 H   0  0  0  0  0  0  0  0  0  0  0  0
  140.1428   70.9384  224.3253 H   0  0  0  0  0  0  0  0  0  0  0  0
  139.2385   71.7694  225.5365 H   0  0  0  0  0  0  0  0  0  0  0  0
  141.8882   70.1389  225.9269 H   0  0  0  0  0  0  0  0  0  0  0  0
  141.7315   71.8343  226.2646 H   0  0  0  0  0  0  0  0  0  0  0  0
  140.2267   71.3943  228.1918 H   0  0  0  0  0  0  0  0  0  0  0  0
  139.6961   68.5644  227.5748 H   0  0  0  0  0  0  0  0  0  0  0  0
  138.5144   69.8895  227.7107 H   0  0  0  0  0  0  0  0  0  0  0  0
  133.4440   69.4109  226.7009 H   0  0  0  0  0  0  0  0  0  0  0  0
  132.0445   71.1824  227.6918 H   0  0  0  0  0  0  0  0  0  0  0  0
  131.5393   73.5402  227.9469 H   0  0  0  0  0  0  0  0  0  0  0  0
  133.9924   76.4229  225.8429 H   0  0  0  0  0  0  0  0  0  0  0  0
  135.3404   74.5740  224.8970 H   0  0  0  0  0  0  0  0  0  0  0  0
  1  2  2  0
  2  3  1  0
  3  4  1  0
  4  5  1  0
  5  6  2  0
  5  7  1  0
  7  8  1  0
  8  9  1  0
  9 10  1  0
 10 11  1  0
 10 12  1  0
  2 13  1  0
 13 14  2  0
 14 15  1  0
 15 16  2  0
 16 17  1  0
 17 18  2  0
 18 19  1  0
 18 20  1  0
 20 21  2  0
 21 22  1  0
 22 23  2  0
 12  7  1  0
 23 13  1  0
 22 16  1  0
  3 24  1  0
  4 25  1  0
  4 26  1  0
  8 27  1  0
  8 28  1  0
  9 29  1  0
  9 30  1  0
 10 31  1  1
 12 32  1  0
 12 33  1  0
 14 34  1  0
 15 35  1  0
 17 36  1  0
 20 37  1  0
 21 38  1  0
M  END
>  <smiles>  (42) 
O=C(NCC(=O)N1CC[C@H](F)C1)c1ccc2cc(Cl)ccc2n1

>  <score_type>  (42) 
oracle

>  <origin>  (42) 
autodockgpu

>  <m_score__min__energy>  (42) 
-6.9199999999999999

>  <m_primary>  (42) 
energy

>  <rmsd>  (42) 
8.131109437678342

>  <m_score__min__rmsd>  (42) 
8.131109437678342

>  <meeko>  (42) 
{"free_energy": -6.55, "intermolecular_energy": -7.74, "internal_energy": -1.1, "cluster_size": 7, "cluster_id": 3, "rank_in_cluster": 5}

>  <energy>  (42) 
-6.61

>  <cluster_rmsd>  (42) 
0.0

>  <cluster>  (42) 
3

$$$$

     RDKit          3D

 38 40  0  0  0  0  0  0  0  0999 V2000
  141.5580   72.0490  220.9080 O   0  0  0  0  0  0  0  0  0  0  0  0
  140.9730   72.9280  221.5660 C   0  0  0  0  0  0  0  0  0  0  0  0
  140.0650   72.5300  222.5760 N   0  0  0  0  0  0  0  0  0  0  0  0
  139.7800   71.1450  222.8850 C   0  0  0  0  0  0  0  0  0  0  0  0
  139.1220   70.9960  224.2060 C   0  0  0  0  0  0  0  0  0  0  0  0
  137.9020   71.1360  224.3690 O   0  0  0  0  0  0  0  0  0  0  0  0
  139.9400   70.6770  225.3240 N   0  0  0  0  0  0  0  0  0  0  0  0
  139.9740   69.4130  226.0560 C   0  0  0  0  0  0  0  0  0  0  0  0
  139.9670   69.9650  227.4880 C   0  0  0  0  0  0  0  0  0  0  0  0
  141.0690   70.9990  227.3970 C   0  0  2  0  0  0  0  0  0  0  0  0
  140.9220   71.9960  228.3400 F   0  0  0  0  0  0  0  0  0  0  0  0
  140.9160   71.5170  225.9900 C   0  0  0  0  0  0  0  0  0  0  0  0
  141.1820   74.3610  221.3410 C   0  0  0  0  0  0  0  0  0  0  0  0
  142.0060   74.8050  220.3200 C   0  0  0  0  0  0  0  0  0  0  0  0
  142.2250   76.1410  220.0810 C   0  0  0  0  0  0  0  0  0  0  0  0
  141.6020   77.0690  220.8880 C   0  0  0  0  0  0  0  0  0  0  0  0
  141.8030   78.4280  220.6730 C   0  0  0  0  0  0  0  0  0  0  0  0
  141.1560   79.3440  221.5080 C   0  0  0  0  0  0  0  0  0  0  0  0
  141.4000   81.0550  221.2470 Cl  0  0  0  0  0  0  0  0  0  0  0  0
  140.3290   78.8820  222.5340 C   0  0  0  0  0  0  0  0  0  0  0  0
  140.1510   77.5210  222.7200 C   0  0  0  0  0  0  0  0  0  0  0  0
  140.7810   76.6020  221.9050 C   0  0  0  0  0  0  0  0  0  0  0  0
  140.5870   75.2870  222.1130 N   0  0  0  0  0  0  0  0  0  0  0  0
  139.5750   73.2700  223.1270 H   0  0  0  0  0  0  0  0  0  0  0  0
  139.1156   70.7371  222.1090 H   0  0  0  0  0  0  0  0  0  0  0  0
  140.7349   70.5998  222.9169 H   0  0  0  0  0  0  0  0  0  0  0  0
  139.0897   68.7924  225.8488 H   0  0  0  0  0  0  0  0  0  0  0  0
  140.8135   68.7462  225.8100 H   0  0  0  0  0  0  0  0  0  0  0  0
  139.0000   70.4247  227.7402 H   0  0  0  0  0  0  0  0  0  0  0  0
  140.1171   69.2061  228.2701 H   0  0  0  0  0  0  0  0  0  0  0  0
  142.0695   70.5895  227.6003 H   0  0  0  0  0  0  0  0  0  0  0  0
  140.5649   72.5593  226.0089 H   0  0  0  0  0  0  0  0  0  0  0  0
  141.8789   71.4906  225.4589 H   0  0  0  0  0  0  0  0  0  0  0  0
  142.5025   74.0626  219.6779 H   0  0  0  0  0  0  0  0  0  0  0  0
  142.8845   76.4633  219.2617 H   0  0  0  0  0  0  0  0  0  0  0  0
  142.4587   78.7759  219.8612 H   0  0  0  0  0  0  0  0  0  0  0  0
  139.8190   79.5988  223.1944 H   0  0  0  0  0  0  0  0  0  0  0  0
  139.4970   77.1667  223.5304 H   0  0  0  0  0  0  0  0  0  0  0  0
  1  2  2  0
  2  3  1  0
  3  4  1  0
  4  5  1  0
  5  6  2  0
  5  7  1  0
  7  8  1  0
  8  9  1  0
  9 10  1  0
 10 11  1  0
 10 12  1  0
  2 13  1  0
 13 14  2  0
 14 15  1  0
 15 16  2  0
 16 17  1  0
 17 18  2  0
 18 19  1  0
 18 20  1  0
 20 21  2  0
 21 22  1  0
 22 23  2  0
 12  7  1  0
 23 13  1  0
 22 16  1  0
  3 24  1  0
  4 25  1  0
  4 26  1  0
  8 27  1  0
  8 28  1  0
  9 29  1  0
  9 30  1  0
 10 31  1  6
 12 32  1  0
 12 33  1  0
 14 34  1  0
 15 35  1  0
 17 36  1  0
 20 37  1  0
 21 38  1  0
M  END
>  <smiles>  (43) 
O=C(NCC(=O)N1CC[C@H](F)C1)c1ccc2cc(Cl)ccc2n1

>  <score_type>  (43) 
oracle

>  <origin>  (43) 
autodockgpu

>  <m_score__min__energy>  (43) 
-6.9199999999999999

>  <m_primary>  (43) 
energy

>  <rmsd>  (43) 
8.496464197581172

>  <m_score__min__rmsd>  (43) 
8.496464197581172

>  <meeko>  (43) 
{"free_energy": -6.61, "intermolecular_energy": -7.8, "internal_energy": -1.06, "cluster_size": 29, "cluster_id": 2, "rank_in_cluster": 17}

>  <energy>  (43) 
-6.61

>  <cluster_rmsd>  (43) 
0.03

>  <cluster>  (43) 
3

$$$$

     RDKit          3D

 38 40  0  0  0  0  0  0  0  0999 V2000
  139.9230   69.8280  222.3680 O   0  0  0  0  0  0  0  0  0  0  0  0
  139.6230   70.9540  222.8040 C   0  0  0  0  0  0  0  0  0  0  0  0
  138.7090   71.0460  223.8810 N   0  0  0  0  0  0  0  0  0  0  0  0
  138.1030   69.8900  224.5050 C   0  0  0  0  0  0  0  0  0  0  0  0
  139.1190   68.9550  225.0460 C   0  0  0  0  0  0  0  0  0  0  0  0
  139.1900   67.7660  224.7030 O   0  0  0  0  0  0  0  0  0  0  0  0
  140.0480   69.4590  225.9980 N   0  0  0  0  0  0  0  0  0  0  0  0
  140.5860   68.7540  227.1580 C   0  0  0  0  0  0  0  0  0  0  0  0
  140.4380   69.8670  228.2040 C   0  0  0  0  0  0  0  0  0  0  0  0
  141.0680   71.0310  227.4680 C   0  0  2  0  0  0  0  0  0  0  0  0
  140.6020   72.2460  227.9270 F   0  0  0  0  0  0  0  0  0  0  0  0
  140.6680   70.7690  226.0390 C   0  0  0  0  0  0  0  0  0  0  0  0
  140.1740   72.1940  222.2490 C   0  0  0  0  0  0  0  0  0  0  0  0
  141.3160   72.1730  221.4660 C   0  0  0  0  0  0  0  0  0  0  0  0
  141.8600   73.3170  220.9310 C   0  0  0  0  0  0  0  0  0  0  0  0
  141.2450   74.5240  221.1840 C   0  0  0  0  0  0  0  0  0  0  0  0
  141.7710   75.6990  220.6560 C   0  0  0  0  0  0  0  0  0  0  0  0
  141.1240   76.9080  220.9310 C   0  0  0  0  0  0  0  0  0  0  0  0
  141.7740   78.3910  220.2740 Cl  0  0  0  0  0  0  0  0  0  0  0  0
  139.9740   76.9140  221.7220 C   0  0  0  0  0  0  0  0  0  0  0  0
  139.4780   75.7250  222.2310 C   0  0  0  0  0  0  0  0  0  0  0  0
  140.1030   74.5210  221.9700 C   0  0  0  0  0  0  0  0  0  0  0  0
  139.5940   73.3850  222.4800 N   0  0  0  0  0  0  0  0  0  0  0  0
  138.4590   71.9930  224.2450 H   0  0  0  0  0  0  0  0  0  0  0  0
  137.4574   70.2285  225.3288 H   0  0  0  0  0  0  0  0  0  0  0  0
  137.5224   69.3552  223.7389 H   0  0  0  0  0  0  0  0  0  0  0  0
  139.9901   67.8655  227.4138 H   0  0  0  0  0  0  0  0  0  0  0  0
  141.6019   68.3499  227.0372 H   0  0  0  0  0  0  0  0  0  0  0  0
  139.3818   70.0618  228.4416 H   0  0  0  0  0  0  0  0  0  0  0  0
  140.8964   69.6414  229.1782 H   0  0  0  0  0  0  0  0  0  0  0  0
  142.1572   71.0972  227.6066 H   0  0  0  0  0  0  0  0  0  0  0  0
  139.9535   71.5343  225.7018 H   0  0  0  0  0  0  0  0  0  0  0  0
  141.5451   70.8056  225.3762 H   0  0  0  0  0  0  0  0  0  0  0  0
  141.8047   71.2082  221.2651 H   0  0  0  0  0  0  0  0  0  0  0  0
  142.7687   73.2696  220.3129 H   0  0  0  0  0  0  0  0  0  0  0  0
  142.6782   75.6774  220.0343 H   0  0  0  0  0  0  0  0  0  0  0  0
  139.4618   77.8625  221.9411 H   0  0  0  0  0  0  0  0  0  0  0  0
  138.5712   75.7398  222.8535 H   0  0  0  0  0  0  0  0  0  0  0  0
  1  2  2  0
  2  3  1  0
  3  4  1  0
  4  5  1  0
  5  6  2  0
  5  7  1  0
  7  8  1  0
  8  9  1  0
  9 10  1  0
 10 11  1  0
 10 12  1  0
  2 13  1  0
 13 14  2  0
 14 15  1  0
 15 16  2  0
 16 17  1  0
 17 18  2  0
 18 19  1  0
 18 20  1  0
 20 21  2  0
 21 22  1  0
 22 23  2  0
 12  7  1  0
 23 13  1  0
 22 16  1  0
  3 24  1  0
  4 25  1  0
  4 26  1  0
  8 27  1  0
  8 28  1  0
  9 29  1  0
  9 30  1  0
 10 31  1  6
 12 32  1  0
 12 33  1  0
 14 34  1  0
 15 35  1  0
 17 36  1  0
 20 37  1  0
 21 38  1  0
M  END
>  <smiles>  (44) 
O=C(NCC(=O)N1CC[C@H](F)C1)c1ccc2cc(Cl)ccc2n1

>  <score_type>  (44) 
oracle

>  <origin>  (44) 
autodockgpu

>  <m_score__min__energy>  (44) 
-6.9199999999999999

>  <m_primary>  (44) 
energy

>  <rmsd>  (44) 
8.1030049141787

>  <m_score__min__rmsd>  (44) 
8.1030049141787

>  <meeko>  (44) 
{"free_energy": -6.7, "intermolecular_energy": -7.9, "internal_energy": -1.11, "cluster_size": 29, "cluster_id": 2, "rank_in_cluster": 8}

>  <energy>  (44) 
-6.61

>  <cluster_rmsd>  (44) 
0.03

>  <cluster>  (44) 
3

$$$$

     RDKit          3D

 38 40  0  0  0  0  0  0  0  0999 V2000
  140.4300   72.6020  220.7750 O   0  0  0  0  0  0  0  0  0  0  0  0
  139.9880   72.8640  221.9080 C   0  0  0  0  0  0  0  0  0  0  0  0
  139.4240   74.1420  222.1400 N   0  0  0  0  0  0  0  0  0  0  0  0
  139.3360   75.1650  221.1200 C   0  0  0  0  0  0  0  0  0  0  0  0
  138.7520   76.4230  221.6470 C   0  0  0  0  0  0  0  0  0  0  0  0
  137.5440   76.5540  221.8900 O   0  0  0  0  0  0  0  0  0  0  0  0
  139.6290   77.5180  221.8780 N   0  0  0  0  0  0  0  0  0  0  0  0
  141.0860   77.5120  221.7810 C   0  0  0  0  0  0  0  0  0  0  0  0
  141.4160   78.2720  223.0730 C   0  0  0  0  0  0  0  0  0  0  0  0
  140.4950   79.4660  222.9390 C   0  0  2  0  0  0  0  0  0  0  0  0
  140.1840   80.0200  224.1650 F   0  0  0  0  0  0  0  0  0  0  0  0
  139.2880   78.8750  222.2580 C   0  0  0  0  0  0  0  0  0  0  0  0
  140.0250   71.9070  223.0170 C   0  0  0  0  0  0  0  0  0  0  0  0
  139.5680   70.6100  222.8500 C   0  0  0  0  0  0  0  0  0  0  0  0
  139.5880   69.6870  223.8680 C   0  0  0  0  0  0  0  0  0  0  0  0
  140.0800   70.0680  225.0980 C   0  0  0  0  0  0  0  0  0  0  0  0
  140.1140   69.1570  226.1480 C   0  0  0  0  0  0  0  0  0  0  0  0
  140.6190   69.5750  227.3840 C   0  0  0  0  0  0  0  0  0  0  0  0
  140.6670   68.4400  228.7120 Cl  0  0  0  0  0  0  0  0  0  0  0  0
  141.0760   70.8850  227.5390 C   0  0  0  0  0  0  0  0  0  0  0  0
  141.0280   71.7650  226.4700 C   0  0  0  0  0  0  0  0  0  0  0  0
  140.5320   71.3710  225.2430 C   0  0  0  0  0  0  0  0  0  0  0  0
  140.5000   72.2520  224.2270 N   0  0  0  0  0  0  0  0  0  0  0  0
  139.0540   74.3600  223.0920 H   0  0  0  0  0  0  0  0  0  0  0  0
  140.3462   75.3744  220.7383 H   0  0  0  0  0  0  0  0  0  0  0  0
  138.6790   74.7931  220.3200 H   0  0  0  0  0  0  0  0  0  0  0  0
  141.4955   76.4911  221.7870 H   0  0  0  0  0  0  0  0  0  0  0  0
  141.5004   77.9449  220.8586 H   0  0  0  0  0  0  0  0  0  0  0  0
  141.1788   77.6753  223.9661 H   0  0  0  0  0  0  0  0  0  0  0  0
  142.4792   78.5267  223.1941 H   0  0  0  0  0  0  0  0  0  0  0  0
  140.9421   80.3000  222.3781 H   0  0  0  0  0  0  0  0  0  0  0  0
  138.4316   78.8687  222.9484 H   0  0  0  0  0  0  0  0  0  0  0  0
  139.0095   79.4685  221.3747 H   0  0  0  0  0  0  0  0  0  0  0  0
  139.1752   70.3082  221.8678 H   0  0  0  0  0  0  0  0  0  0  0  0
  139.2185   68.6639  223.7044 H   0  0  0  0  0  0  0  0  0  0  0  0
  139.7510   68.1279  226.0095 H   0  0  0  0  0  0  0  0  0  0  0  0
  141.4738   71.2182  228.5089 H   0  0  0  0  0  0  0  0  0  0  0  0
  141.3912   72.7950  226.6009 H   0  0  0  0  0  0  0  0  0  0  0  0
  1  2  2  0
  2  3  1  0
  3  4  1  0
  4  5  1  0
  5  6  2  0
  5  7  1  0
  7  8  1  0
  8  9  1  0
  9 10  1  0
 10 11  1  0
 10 12  1  0
  2 13  1  0
 13 14  2  0
 14 15  1  0
 15 16  2  0
 16 17  1  0
 17 18  2  0
 18 19  1  0
 18 20  1  0
 20 21  2  0
 21 22  1  0
 22 23  2  0
 12  7  1  0
 23 13  1  0
 22 16  1  0
  3 24  1  0
  4 25  1  0
  4 26  1  0
  8 27  1  0
  8 28  1  0
  9 29  1  0
  9 30  1  0
 10 31  1  6
 12 32  1  0
 12 33  1  0
 14 34  1  0
 15 35  1  0
 17 36  1  0
 20 37  1  0
 21 38  1  0
M  END
>  <smiles>  (45) 
O=C(NCC(=O)N1CC[C@H](F)C1)c1ccc2cc(Cl)ccc2n1

>  <score_type>  (45) 
oracle

>  <origin>  (45) 
autodockgpu

>  <m_score__min__energy>  (45) 
-6.9199999999999999

>  <m_primary>  (45) 
energy

>  <rmsd>  (45) 
3.1929370140364415

>  <m_score__min__rmsd>  (45) 
3.1929370140364415

>  <meeko>  (45) 
{"free_energy": -6.78, "intermolecular_energy": -7.97, "internal_energy": -0.84, "cluster_size": 12, "cluster_id": 1, "rank_in_cluster": 10}

>  <energy>  (45) 
-6.58

>  <cluster_rmsd>  (45) 
0.04

>  <cluster>  (45) 
3

$$$$

     RDKit          3D

 38 40  0  0  0  0  0  0  0  0999 V2000
  135.7580   68.9090  224.3120 O   0  0  0  0  0  0  0  0  0  0  0  0
  136.0470   70.0800  224.6190 C   0  0  0  0  0  0  0  0  0  0  0  0
  137.3500   70.5550  224.3380 N   0  0  0  0  0  0  0  0  0  0  0  0
  138.3700   69.7440  223.7090 C   0  0  0  0  0  0  0  0  0  0  0  0
  139.0020   68.8060  224.6680 C   0  0  0  0  0  0  0  0  0  0  0  0
  138.8250   67.5810  224.6270 O   0  0  0  0  0  0  0  0  0  0  0  0
  139.8470   69.3520  225.6730 N   0  0  0  0  0  0  0  0  0  0  0  0
  140.2280   68.7250  226.9360 C   0  0  0  0  0  0  0  0  0  0  0  0
  140.0220   69.9240  227.8710 C   0  0  0  0  0  0  0  0  0  0  0  0
  140.7770   71.0000  227.1200 C   0  0  2  0  0  0  0  0  0  0  0  0
  140.3200   72.2650  227.4310 F   0  0  0  0  0  0  0  0  0  0  0  0
  140.5180   70.6380  225.6810 C   0  0  0  0  0  0  0  0  0  0  0  0
  135.0950   70.9910  225.2610 C   0  0  0  0  0  0  0  0  0  0  0  0
  134.1190   70.5090  226.1170 C   0  0  0  0  0  0  0  0  0  0  0  0
  133.2100   71.3350  226.7350 C   0  0  0  0  0  0  0  0  0  0  0  0
  133.2750   72.6900  226.4920 C   0  0  0  0  0  0  0  0  0  0  0  0
  132.3700   73.5520  227.1020 C   0  0  0  0  0  0  0  0  0  0  0  0
  132.4620   74.9220  226.8350 C   0  0  0  0  0  0  0  0  0  0  0  0
  131.3310   76.0160  227.5960 Cl  0  0  0  0  0  0  0  0  0  0  0  0
  133.4510   75.3940  225.9700 C   0  0  0  0  0  0  0  0  0  0  0  0
  134.3360   74.5070  225.3800 C   0  0  0  0  0  0  0  0  0  0  0  0
  134.2600   73.1510  225.6310 C   0  0  0  0  0  0  0  0  0  0  0  0
  135.1360   72.3170  225.0410 N   0  0  0  0  0  0  0  0  0  0  0  0
  137.5900   71.5380  224.5970 H   0  0  0  0  0  0  0  0  0  0  0  0
  137.9109   69.1641  222.8948 H   0  0  0  0  0  0  0  0  0  0  0  0
  139.1514   70.4168  223.3259 H   0  0  0  0  0  0  0  0  0  0  0  0
  139.5689   67.8829  227.1938 H   0  0  0  0  0  0  0  0  0  0  0  0
  141.2318   68.2756  226.9572 H   0  0  0  0  0  0  0  0  0  0  0  0
  138.9566   70.1761  227.9778 H   0  0  0  0  0  0  0  0  0  0  0  0
  140.3655   69.7617  228.9033 H   0  0  0  0  0  0  0  0  0  0  0  0
  141.8475   71.0371  227.3701 H   0  0  0  0  0  0  0  0  0  0  0  0
  139.8781   71.3992  225.2108 H   0  0  0  0  0  0  0  0  0  0  0  0
  141.4608   70.5885  225.1165 H   0  0  0  0  0  0  0  0  0  0  0  0
  134.0692   69.4271  226.3093 H   0  0  0  0  0  0  0  0  0  0  0  0
  132.4459   70.9224  227.4102 H   0  0  0  0  0  0  0  0  0  0  0  0
  131.5968   73.1639  227.7813 H   0  0  0  0  0  0  0  0  0  0  0  0
  133.5273   76.4705  225.7571 H   0  0  0  0  0  0  0  0  0  0  0  0
  135.1121   74.8887  224.7004 H   0  0  0  0  0  0  0  0  0  0  0  0
  1  2  2  0
  2  3  1  0
  3  4  1  0
  4  5  1  0
  5  6  2  0
  5  7  1  0
  7  8  1  0
  8  9  1  0
  9 10  1  0
 10 11  1  0
 10 12  1  0
  2 13  1  0
 13 14  2  0
 14 15  1  0
 15 16  2  0
 16 17  1  0
 17 18  2  0
 18 19  1  0
 18 20  1  0
 20 21  2  0
 21 22  1  0
 22 23  2  0
 12  7  1  0
 23 13  1  0
 22 16  1  0
  3 24  1  0
  4 25  1  0
  4 26  1  0
  8 27  1  0
  8 28  1  0
  9 29  1  0
  9 30  1  0
 10 31  1  6
 12 32  1  0
 12 33  1  0
 14 34  1  0
 15 35  1  0
 17 36  1  0
 20 37  1  0
 21 38  1  0
M  END
>  <smiles>  (46) 
O=C(NCC(=O)N1CC[C@H](F)C1)c1ccc2cc(Cl)ccc2n1

>  <score_type>  (46) 
oracle

>  <origin>  (46) 
autodockgpu

>  <m_score__min__energy>  (46) 
-6.9199999999999999

>  <m_primary>  (46) 
energy

>  <rmsd>  (46) 
8.188996147753603

>  <m_score__min__rmsd>  (46) 
8.188996147753603

>  <meeko>  (46) 
{"free_energy": -6.42, "intermolecular_energy": -7.61, "internal_energy": -1.06, "cluster_size": 7, "cluster_id": 3, "rank_in_cluster": 7}

>  <energy>  (46) 
-6.55

>  <cluster_rmsd>  (46) 
0.07

>  <cluster>  (46) 
3

$$$$

     RDKit          3D

 38 40  0  0  0  0  0  0  0  0999 V2000
  139.9130   69.8150  222.3620 O   0  0  0  0  0  0  0  0  0  0  0  0
  139.6070   70.9440  222.7870 C   0  0  0  0  0  0  0  0  0  0  0  0
  138.6780   71.0420  223.8500 N   0  0  0  0  0  0  0  0  0  0  0  0
  138.0610   69.8910  224.4710 C   0  0  0  0  0  0  0  0  0  0  0  0
  139.0640   68.9940  225.0950 C   0  0  0  0  0  0  0  0  0  0  0  0
  139.1650   67.7930  224.8060 O   0  0  0  0  0  0  0  0  0  0  0  0
  139.9420   69.5500  226.0650 N   0  0  0  0  0  0  0  0  0  0  0  0
  140.1790   69.0590  227.4200 C   0  0  0  0  0  0  0  0  0  0  0  0
  140.1170   70.3950  228.1730 C   0  0  0  0  0  0  0  0  0  0  0  0
  141.0510   71.2370  227.3290 C   0  0  2  0  0  0  0  0  0  0  0  0
  140.7750   72.5850  227.4410 F   0  0  0  0  0  0  0  0  0  0  0  0
  140.7950   70.7160  225.9390 C   0  0  0  0  0  0  0  0  0  0  0  0
  140.1680   72.1800  222.2340 C   0  0  0  0  0  0  0  0  0  0  0  0
  141.3030   72.1510  221.4410 C   0  0  0  0  0  0  0  0  0  0  0  0
  141.8560   73.2910  220.9070 C   0  0  0  0  0  0  0  0  0  0  0  0
  141.2570   74.5030  221.1710 C   0  0  0  0  0  0  0  0  0  0  0  0
  141.7920   75.6750  220.6460 C   0  0  0  0  0  0  0  0  0  0  0  0
  141.1610   76.8900  220.9320 C   0  0  0  0  0  0  0  0  0  0  0  0
  141.8230   78.3690  220.2770 Cl  0  0  0  0  0  0  0  0  0  0  0  0
  140.0180   76.9040  221.7330 C   0  0  0  0  0  0  0  0  0  0  0  0
  139.5120   75.7190  222.2390 C   0  0  0  0  0  0  0  0  0  0  0  0
  140.1210   74.5090  221.9670 C   0  0  0  0  0  0  0  0  0  0  0  0
  139.6040   73.3760  222.4760 N   0  0  0  0  0  0  0  0  0  0  0  0
  138.4220   71.9910  224.2040 H   0  0  0  0  0  0  0  0  0  0  0  0
  137.3625   70.2375  225.2469 H   0  0  0  0  0  0  0  0  0  0  0  0
  137.5358   69.3229  223.6891 H   0  0  0  0  0  0  0  0  0  0  0  0
  139.3938   68.3627  227.7497 H   0  0  0  0  0  0  0  0  0  0  0  0
  141.1040   68.4800  227.5586 H   0  0  0  0  0  0  0  0  0  0  0  0
  139.0973   70.8075  228.1833 H   0  0  0  0  0  0  0  0  0  0  0  0
  140.3932   70.3331  229.2360 H   0  0  0  0  0  0  0  0  0  0  0  0
  142.1052   71.1573  227.6328 H   0  0  0  0  0  0  0  0  0  0  0  0
  140.2928   71.4861  225.3350 H   0  0  0  0  0  0  0  0  0  0  0  0
  141.7404   70.4545  225.4412 H   0  0  0  0  0  0  0  0  0  0  0  0
  141.7789   71.1818  221.2309 H   0  0  0  0  0  0  0  0  0  0  0  0
  142.7590   73.2362  220.2813 H   0  0  0  0  0  0  0  0  0  0  0  0
  142.6945   75.6466  220.0177 H   0  0  0  0  0  0  0  0  0  0  0  0
  139.5191   77.8571  221.9623 H   0  0  0  0  0  0  0  0  0  0  0  0
  138.6100   75.7411  222.8682 H   0  0  0  0  0  0  0  0  0  0  0  0
  1  2  2  0
  2  3  1  0
  3  4  1  0
  4  5  1  0
  5  6  2  0
  5  7  1  0
  7  8  1  0
  8  9  1  0
  9 10  1  0
 10 11  1  0
 10 12  1  0
  2 13  1  0
 13 14  2  0
 14 15  1  0
 15 16  2  0
 16 17  1  0
 17 18  2  0
 18 19  1  0
 18 20  1  0
 20 21  2  0
 21 22  1  0
 22 23  2  0
 12  7  1  0
 23 13  1  0
 22 16  1  0
  3 24  1  0
  4 25  1  0
  4 26  1  0
  8 27  1  0
  8 28  1  0
  9 29  1  0
  9 30  1  0
 10 31  1  1
 12 32  1  0
 12 33  1  0
 14 34  1  0
 15 35  1  0
 17 36  1  0
 20 37  1  0
 21 38  1  0
M  END
>  <smiles>  (47) 
O=C(NCC(=O)N1CC[C@H](F)C1)c1ccc2cc(Cl)ccc2n1

>  <score_type>  (47) 
oracle

>  <origin>  (47) 
autodockgpu

>  <m_score__min__energy>  (47) 
-6.9199999999999999

>  <m_primary>  (47) 
energy

>  <rmsd>  (47) 
8.030609027679134

>  <m_score__min__rmsd>  (47) 
8.030609027679134

>  <meeko>  (47) 
{"free_energy": -6.72, "intermolecular_energy": -7.91, "internal_energy": -1.17, "cluster_size": 29, "cluster_id": 2, "rank_in_cluster": 4}

>  <energy>  (47) 
-6.46

>  <cluster_rmsd>  (47) 
0.87

>  <cluster>  (47) 
3

$$$$

     RDKit          3D

 38 40  0  0  0  0  0  0  0  0999 V2000
  140.3340   72.5210  220.6920 O   0  0  0  0  0  0  0  0  0  0  0  0
  140.0620   72.8590  221.8570 C   0  0  0  0  0  0  0  0  0  0  0  0
  139.7410   74.2130  222.1150 N   0  0  0  0  0  0  0  0  0  0  0  0
  139.7130   75.2310  221.0860 C   0  0  0  0  0  0  0  0  0  0  0  0
  140.9630   76.0290  221.0630 C   0  0  0  0  0  0  0  0  0  0  0  0
  142.0480   75.5690  220.6800 O   0  0  0  0  0  0  0  0  0  0  0  0
  140.8980   77.3800  221.5010 N   0  0  0  0  0  0  0  0  0  0  0  0
  140.6830   78.5630  220.6720 C   0  0  0  0  0  0  0  0  0  0  0  0
  141.7670   79.4730  221.2660 C   0  0  0  0  0  0  0  0  0  0  0  0
  141.4760   79.3270  222.7450 C   0  0  2  0  0  0  0  0  0  0  0  0
  142.5890   79.5860  223.5190 F   0  0  0  0  0  0  0  0  0  0  0  0
  141.0290   77.8920  222.8510 C   0  0  0  0  0  0  0  0  0  0  0  0
  140.0590   71.9160  222.9790 C   0  0  0  0  0  0  0  0  0  0  0  0
  139.5550   70.6350  222.8270 C   0  0  0  0  0  0  0  0  0  0  0  0
  139.5360   69.7260  223.8570 C   0  0  0  0  0  0  0  0  0  0  0  0
  140.0380   70.1040  225.0830 C   0  0  0  0  0  0  0  0  0  0  0  0
  140.0330   69.2070  226.1460 C   0  0  0  0  0  0  0  0  0  0  0  0
  140.5500   69.6210  227.3780 C   0  0  0  0  0  0  0  0  0  0  0  0
  140.5510   68.5030  228.7210 Cl  0  0  0  0  0  0  0  0  0  0  0  0
  141.0550   70.9150  227.5170 C   0  0  0  0  0  0  0  0  0  0  0  0
  141.0440   71.7820  226.4380 C   0  0  0  0  0  0  0  0  0  0  0  0
  140.5380   71.3910  225.2140 C   0  0  0  0  0  0  0  0  0  0  0  0
  140.5420   72.2590  224.1860 N   0  0  0  0  0  0  0  0  0  0  0  0
  139.5130   74.4950  223.0950 H   0  0  0  0  0  0  0  0  0  0  0  0
  139.5837   74.7445  220.1079 H   0  0  0  0  0  0  0  0  0  0  0  0
  138.8775   75.9126  221.3036 H   0  0  0  0  0  0  0  0  0  0  0  0
  140.8568   78.3565  219.6056 H   0  0  0  0  0  0  0  0  0  0  0  0
  139.6619   78.9718  220.6869 H   0  0  0  0  0  0  0  0  0  0  0  0
  142.7772   79.1176  221.0146 H   0  0  0  0  0  0  0  0  0  0  0  0
  141.7466   80.5089  220.8966 H   0  0  0  0  0  0  0  0  0  0  0  0
  140.7256   80.0415  223.1143 H   0  0  0  0  0  0  0  0  0  0  0  0
  141.7762   77.3050  223.4053 H   0  0  0  0  0  0  0  0  0  0  0  0
  140.0721   77.8211  223.3888 H   0  0  0  0  0  0  0  0  0  0  0  0
  139.1558   70.3348  221.8470 H   0  0  0  0  0  0  0  0  0  0  0  0
  139.1278   68.7158  223.7057 H   0  0  0  0  0  0  0  0  0  0  0  0
  139.6301   68.1912  226.0202 H   0  0  0  0  0  0  0  0  0  0  0  0
  141.4617   71.2457  228.4841 H   0  0  0  0  0  0  0  0  0  0  0  0
  141.4450   72.7993  226.5575 H   0  0  0  0  0  0  0  0  0  0  0  0
  1  2  2  0
  2  3  1  0
  3  4  1  0
  4  5  1  0
  5  6  2  0
  5  7  1  0
  7  8  1  0
  8  9  1  0
  9 10  1  0
 10 11  1  0
 10 12  1  0
  2 13  1  0
 13 14  2  0
 14 15  1  0
 15 16  2  0
 16 17  1  0
 17 18  2  0
 18 19  1  0
 18 20  1  0
 20 21  2  0
 21 22  1  0
 22 23  2  0
 12  7  1  0
 23 13  1  0
 22 16  1  0
  3 24  1  0
  4 25  1  0
  4 26  1  0
  8 27  1  0
  8 28  1  0
  9 29  1  0
  9 30  1  0
 10 31  1  1
 12 32  1  0
 12 33  1  0
 14 34  1  0
 15 35  1  0
 17 36  1  0
 20 37  1  0
 21 38  1  0
M  END
>  <smiles>  (48) 
O=C(NCC(=O)N1CC[C@H](F)C1)c1ccc2cc(Cl)ccc2n1

>  <score_type>  (48) 
oracle

>  <origin>  (48) 
autodockgpu

>  <m_score__min__energy>  (48) 
-6.9199999999999999

>  <m_primary>  (48) 
energy

>  <rmsd>  (48) 
3.049411018374836

>  <m_score__min__rmsd>  (48) 
3.049411018374836

>  <meeko>  (48) 
{"free_energy": -6.81, "intermolecular_energy": -8.01, "internal_energy": -0.84, "cluster_size": 12, "cluster_id": 1, "rank_in_cluster": 7}

>  <energy>  (48) 
-6.42

>  <cluster_rmsd>  (48) 
0.87

>  <cluster>  (48) 
3

$$$$

     RDKit          3D

 38 40  0  0  0  0  0  0  0  0999 V2000
  135.0460   68.5140  224.9410 O   0  0  0  0  0  0  0  0  0  0  0  0
  135.4740   69.6770  225.0480 C   0  0  0  0  0  0  0  0  0  0  0  0
  136.7880   69.9610  224.6030 N   0  0  0  0  0  0  0  0  0  0  0  0
  137.6630   68.9620  224.0280 C   0  0  0  0  0  0  0  0  0  0  0  0
  138.7640   68.5930  224.9500 C   0  0  0  0  0  0  0  0  0  0  0  0
  139.2210   67.4440  225.0260 O   0  0  0  0  0  0  0  0  0  0  0  0
  139.3100   69.6130  225.7770 N   0  0  0  0  0  0  0  0  0  0  0  0
  139.8720   70.8890  225.3430 C   0  0  0  0  0  0  0  0  0  0  0  0
  141.1390   70.9000  226.2100 C   0  0  0  0  0  0  0  0  0  0  0  0
  140.5530   70.5740  227.5670 C   0  0  2  0  0  0  0  0  0  0  0  0
  141.4840   69.9990  228.4080 F   0  0  0  0  0  0  0  0  0  0  0  0
  139.4340   69.6260  227.2220 C   0  0  0  0  0  0  0  0  0  0  0  0
  134.6780   70.7690  225.6150 C   0  0  0  0  0  0  0  0  0  0  0  0
  133.6120   70.5050  226.4590 C   0  0  0  0  0  0  0  0  0  0  0  0
  132.8440   71.5040  227.0070 C   0  0  0  0  0  0  0  0  0  0  0  0
  133.1480   72.8140  226.7050 C   0  0  0  0  0  0  0  0  0  0  0  0
  132.3900   73.8480  227.2440 C   0  0  0  0  0  0  0  0  0  0  0  0
  132.7240   75.1670  226.9190 C   0  0  0  0  0  0  0  0  0  0  0  0
  131.7800   76.4760  227.5900 Cl  0  0  0  0  0  0  0  0  0  0  0  0
  133.8010   75.4190  226.0670 C   0  0  0  0  0  0  0  0  0  0  0  0
  134.5350   74.3640  225.5480 C   0  0  0  0  0  0  0  0  0  0  0  0
  134.2200   73.0560  225.8580 C   0  0  0  0  0  0  0  0  0  0  0  0
  134.9530   72.0550  225.3370 N   0  0  0  0  0  0  0  0  0  0  0  0
  137.1460   70.9380  224.6940 H   0  0  0  0  0  0  0  0  0  0  0  0
  137.0733   68.0617  223.8003 H   0  0  0  0  0  0  0  0  0  0  0  0
  138.1099   69.3851  223.1163 H   0  0  0  0  0  0  0  0  0  0  0  0
  140.1073   70.8920  224.2685 H   0  0  0  0  0  0  0  0  0  0  0  0
  139.2115   71.7610  225.4590 H   0  0  0  0  0  0  0  0  0  0  0  0
  141.8592   70.1347  225.8850 H   0  0  0  0  0  0  0  0  0  0  0  0
  141.7097   71.8397  226.1728 H   0  0  0  0  0  0  0  0  0  0  0  0
  140.2118   71.4622  228.1190 H   0  0  0  0  0  0  0  0  0  0  0  0
  139.6697   68.6161  227.5887 H   0  0  0  0  0  0  0  0  0  0  0  0
  138.4924   69.9478  227.6908 H   0  0  0  0  0  0  0  0  0  0  0  0
  133.3717   69.4587  226.6991 H   0  0  0  0  0  0  0  0  0  0  0  0
  132.0029   71.2629  227.6737 H   0  0  0  0  0  0  0  0  0  0  0  0
  131.5439   73.6327  227.9132 H   0  0  0  0  0  0  0  0  0  0  0  0
  134.0669   76.4544  225.8077 H   0  0  0  0  0  0  0  0  0  0  0  0
  135.3823   74.5723  224.8782 H   0  0  0  0  0  0  0  0  0  0  0  0
  1  2  2  0
  2  3  1  0
  3  4  1  0
  4  5  1  0
  5  6  2  0
  5  7  1  0
  7  8  1  0
  8  9  1  0
  9 10  1  0
 10 11  1  0
 10 12  1  0
  2 13  1  0
 13 14  2  0
 14 15  1  0
 15 16  2  0
 16 17  1  0
 17 18  2  0
 18 19  1  0
 18 20  1  0
 20 21  2  0
 21 22  1  0
 22 23  2  0
 12  7  1  0
 23 13  1  0
 22 16  1  0
  3 24  1  0
  4 25  1  0
  4 26  1  0
  8 27  1  0
  8 28  1  0
  9 29  1  0
  9 30  1  0
 10 31  1  1
 12 32  1  0
 12 33  1  0
 14 34  1  0
 15 35  1  0
 17 36  1  0
 20 37  1  0
 21 38  1  0
M  END
>  <smiles>  (49) 
O=C(NCC(=O)N1CC[C@H](F)C1)c1ccc2cc(Cl)ccc2n1

>  <score_type>  (49) 
oracle

>  <origin>  (49) 
autodockgpu

>  <m_score__min__energy>  (49) 
-6.9199999999999999

>  <m_primary>  (49) 
energy

>  <rmsd>  (49) 
8.132248171199821

>  <m_score__min__rmsd>  (49) 
8.132248171199821

>  <meeko>  (49) 
{"free_energy": -6.58, "intermolecular_energy": -7.77, "internal_energy": -1.09, "cluster_size": 7, "cluster_id": 3, "rank_in_cluster": 4}

>  <energy>  (49) 
-6.57

>  <cluster_rmsd>  (49) 
0.0

>  <cluster>  (49) 
4

$$$$

     RDKit          3D

 38 40  0  0  0  0  0  0  0  0999 V2000
  139.9290   69.8240  222.3480 O   0  0  0  0  0  0  0  0  0  0  0  0
  139.6240   70.9510  222.7800 C   0  0  0  0  0  0  0  0  0  0  0  0
  138.7060   71.0420  223.8530 N   0  0  0  0  0  0  0  0  0  0  0  0
  138.1000   69.8860  224.4770 C   0  0  0  0  0  0  0  0  0  0  0  0
  139.1160   68.9490  225.0140 C   0  0  0  0  0  0  0  0  0  0  0  0
  139.2020   67.7680  224.6500 O   0  0  0  0  0  0  0  0  0  0  0  0
  140.0260   69.4420  225.9890 N   0  0  0  0  0  0  0  0  0  0  0  0
  140.5050   68.7420  227.1780 C   0  0  0  0  0  0  0  0  0  0  0  0
  140.3550   69.8760  228.2010 C   0  0  0  0  0  0  0  0  0  0  0  0
  141.0420   71.0090  227.4680 C   0  0  2  0  0  0  0  0  0  0  0  0
  140.5960   72.2450  227.8920 F   0  0  0  0  0  0  0  0  0  0  0  0
  140.6820   70.7350  226.0310 C   0  0  0  0  0  0  0  0  0  0  0  0
  140.1750   72.1910  222.2250 C   0  0  0  0  0  0  0  0  0  0  0  0
  141.3010   72.1680  221.4190 C   0  0  0  0  0  0  0  0  0  0  0  0
  141.8440   73.3110  220.8830 C   0  0  0  0  0  0  0  0  0  0  0  0
  141.2450   74.5210  221.1590 C   0  0  0  0  0  0  0  0  0  0  0  0
  141.7700   75.6960  220.6320 C   0  0  0  0  0  0  0  0  0  0  0  0
  141.1390   76.9080  220.9310 C   0  0  0  0  0  0  0  0  0  0  0  0
  141.7880   78.3920  220.2740 Cl  0  0  0  0  0  0  0  0  0  0  0  0
  140.0050   76.9160  221.7450 C   0  0  0  0  0  0  0  0  0  0  0  0
  139.5090   75.7270  222.2530 C   0  0  0  0  0  0  0  0  0  0  0  0
  140.1180   74.5210  221.9690 C   0  0  0  0  0  0  0  0  0  0  0  0
  139.6100   73.3840  222.4790 N   0  0  0  0  0  0  0  0  0  0  0  0
  138.4520   71.9890  224.2140 H   0  0  0  0  0  0  0  0  0  0  0  0
  137.4570   70.2243  225.3029 H   0  0  0  0  0  0  0  0  0  0  0  0
  137.5167   69.3531  223.7117 H   0  0  0  0  0  0  0  0  0  0  0  0
  139.8756   67.8752  227.4279 H   0  0  0  0  0  0  0  0  0  0  0  0
  141.5124   68.3077  227.0975 H   0  0  0  0  0  0  0  0  0  0  0  0
  139.2976   70.1046  228.4004 H   0  0  0  0  0  0  0  0  0  0  0  0
  140.7744   69.6538  229.1933 H   0  0  0  0  0  0  0  0  0  0  0  0
  142.1275   71.0463  227.6419 H   0  0  0  0  0  0  0  0  0  0  0  0
  140.0013   71.5146  225.6584 H   0  0  0  0  0  0  0  0  0  0  0  0
  141.5813   70.7359  225.3976 H   0  0  0  0  0  0  0  0  0  0  0  0
  141.7774   71.2010  221.2002 H   0  0  0  0  0  0  0  0  0  0  0  0
  142.7394   73.2610  220.2460 H   0  0  0  0  0  0  0  0  0  0  0  0
  142.6645   75.6727  219.9922 H   0  0  0  0  0  0  0  0  0  0  0  0
  139.5054   77.8667  221.9829 H   0  0  0  0  0  0  0  0  0  0  0  0
  138.6149   75.7437  222.8935 H   0  0  0  0  0  0  0  0  0  0  0  0
  1  2  2  0
  2  3  1  0
  3  4  1  0
  4  5  1  0
  5  6  2  0
  5  7  1  0
  7  8  1  0
  8  9  1  0
  9 10  1  0
 10 11  1  0
 10 12  1  0
  2 13  1  0
 13 14  2  0
 14 15  1  0
 15 16  2  0
 16 17  1  0
 17 18  2  0
 18 19  1  0
 18 20  1  0
 20 21  2  0
 21 22  1  0
 22 23  2  0
 12  7  1  0
 23 13  1  0
 22 16  1  0
  3 24  1  0
  4 25  1  0
  4 26  1  0
  8 27  1  0
  8 28  1  0
  9 29  1  0
  9 30  1  0
 10 31  1  6
 12 32  1  0
 12 33  1  0
 14 34  1  0
 15 35  1  0
 17 36  1  0
 20 37  1  0
 21 38  1  0
M  END
>  <smiles>  (50) 
O=C(NCC(=O)N1CC[C@H](F)C1)c1ccc2cc(Cl)ccc2n1

>  <score_type>  (50) 
oracle

>  <origin>  (50) 
autodockgpu

>  <m_score__min__energy>  (50) 
-6.9199999999999999

>  <m_primary>  (50) 
energy

>  <rmsd>  (50) 
8.103905445437054

>  <m_score__min__rmsd>  (50) 
8.103905445437054

>  <meeko>  (50) 
{"free_energy": -6.69, "intermolecular_energy": -7.88, "internal_energy": -1.13, "cluster_size": 29, "cluster_id": 2, "rank_in_cluster": 11}

>  <energy>  (50) 
-6.27

>  <cluster_rmsd>  (50) 
1.15

>  <cluster>  (50) 
4

$$$$
