
     RDKit          3D

 70 75  0  0  0  0  0  0  0  0999 V2000
  145.2010   74.8670  216.7170 N   0  0  0  0  0  0  0  0  0  0  0  0
  144.9570   73.4980  216.3930 C   0  0  0  0  0  0  0  0  0  0  0  0
  143.9660   73.2460  215.6900 O   0  0  0  0  0  0  0  0  0  0  0  0
  145.9100   72.5010  216.9220 C   0  0  0  0  0  0  0  0  0  0  0  0
  145.5260   71.9830  218.2130 N   0  0  0  0  0  0  0  0  0  0  0  0
  145.6840   73.0400  219.1610 C   0  0  0  0  0  0  0  0  0  0  0  0
  144.3260   73.6350  219.4720 C   0  0  0  0  0  0  0  0  0  0  0  0
  143.6250   72.5480  220.2680 C   0  0  0  0  0  0  0  0  0  0  0  0
  142.4310   73.0190  220.9860 C   0  0  0  0  0  0  0  0  0  0  0  0
  141.9230   74.3080  220.7980 C   0  0  0  0  0  0  0  0  0  0  0  0
  140.8110   74.7630  221.4600 C   0  0  0  0  0  0  0  0  0  0  0  0
  140.2560   76.0570  221.3090 N   0  0  0  0  0  0  0  0  0  0  0  0
  138.8860   76.4030  221.6060 C   0  0  0  0  0  0  0  0  0  0  0  0
  138.7950   77.4170  222.7290 C   0  0  0  0  0  0  0  0  0  0  0  0
  139.9740   78.3150  222.7430 C   0  0  0  0  0  0  0  0  0  0  0  0
  139.9960   79.3260  223.6810 C   0  0  0  0  0  0  0  0  0  0  0  0
  141.0400   80.2270  223.7910 C   0  0  0  0  0  0  0  0  0  0  0  0
  142.0960   80.1010  222.9230 C   0  0  0  0  0  0  0  0  0  0  0  0
  142.0880   79.0910  221.9760 C   0  0  0  0  0  0  0  0  0  0  0  0
  141.0370   78.1970  221.8760 C   0  0  0  0  0  0  0  0  0  0  0  0
  141.1060   77.1330  220.8240 C   0  0  0  0  0  0  0  0  0  0  0  0
  140.2240   73.8840  222.3150 N   0  0  0  0  0  0  0  0  0  0  0  0
  140.6810   72.6380  222.5230 C   0  0  0  0  0  0  0  0  0  0  0  0
  140.0220   71.7650  223.4310 N   0  0  0  0  0  0  0  0  0  0  0  0
  138.8380   71.0340  223.0720 C   0  0  0  0  0  0  0  0  0  0  0  0
  139.0150   69.5380  223.2230 C   0  0  0  0  0  0  0  0  0  0  0  0
  139.4870   69.3180  224.6210 C   0  0  0  0  0  0  0  0  0  0  0  0
  139.2040   68.1240  225.2200 C   0  0  0  0  0  0  0  0  0  0  0  0
  139.5810   67.7930  226.5040 C   0  0  0  0  0  0  0  0  0  0  0  0
  140.2910   68.7550  227.2070 C   0  0  0  0  0  0  0  0  0  0  0  0
  140.5850   69.9730  226.6070 C   0  0  0  0  0  0  0  0  0  0  0  0
  140.1930   70.2670  225.3260 C   0  0  0  0  0  0  0  0  0  0  0  0
  140.5510   71.5950  224.7650 C   0  0  0  0  0  0  0  0  0  0  0  0
  141.7810   72.2230  221.8530 N   0  0  0  0  0  0  0  0  0  0  0  0
  143.3440   71.4320  219.2990 C   0  0  0  0  0  0  0  0  0  0  0  0
  144.3210   71.2740  218.2080 C   0  0  0  0  0  0  0  0  0  0  0  0
  144.6210   75.3550  217.4420 H   0  0  0  0  0  0  0  0  0  0  0  0
  145.9670   75.4140  216.2360 H   0  0  0  0  0  0  0  0  0  0  0  0
  145.9706   71.6630  216.2120 H   0  0  0  0  0  0  0  0  0  0  0  0
  146.8795   73.0059  217.0453 H   0  0  0  0  0  0  0  0  0  0  0  0
  146.1322   72.6430  220.0838 H   0  0  0  0  0  0  0  0  0  0  0  0
  146.3417   73.8166  218.7435 H   0  0  0  0  0  0  0  0  0  0  0  0
  144.4284   74.5531  220.0691 H   0  0  0  0  0  0  0  0  0  0  0  0
  143.7713   73.9227  218.5667 H   0  0  0  0  0  0  0  0  0  0  0  0
  144.2706   72.1944  221.0854 H   0  0  0  0  0  0  0  0  0  0  0  0
  142.4334   74.9815  220.0939 H   0  0  0  0  0  0  0  0  0  0  0  0
  138.4219   76.8277  220.7037 H   0  0  0  0  0  0  0  0  0  0  0  0
  138.3630   75.4895  221.9254 H   0  0  0  0  0  0  0  0  0  0  0  0
  137.8862   78.0215  222.5927 H   0  0  0  0  0  0  0  0  0  0  0  0
  138.7622   76.8734  223.6847 H   0  0  0  0  0  0  0  0  0  0  0  0
  139.1456   79.4200  224.3724 H   0  0  0  0  0  0  0  0  0  0  0  0
  141.0244   81.0213  224.5519 H   0  0  0  0  0  0  0  0  0  0  0  0
  142.9443   80.7990  222.9796 H   0  0  0  0  0  0  0  0  0  0  0  0
  142.9391   78.9970  221.2855 H   0  0  0  0  0  0  0  0  0  0  0  0
  140.7316   77.5164  219.8633 H   0  0  0  0  0  0  0  0  0  0  0  0
  142.1380   76.7938  220.6513 H   0  0  0  0  0  0  0  0  0  0  0  0
  138.0117   71.3592  223.7212 H   0  0  0  0  0  0  0  0  0  0  0  0
  138.6243   71.2411  222.0130 H   0  0  0  0  0  0  0  0  0  0  0  0
  138.0581   69.0214  223.0571 H   0  0  0  0  0  0  0  0  0  0  0  0
  139.7318   69.1413  222.4890 H   0  0  0  0  0  0  0  0  0  0  0  0
  138.6391   67.3786  224.6410 H   0  0  0  0  0  0  0  0  0  0  0  0
  139.3319   66.8177  226.9475 H   0  0  0  0  0  0  0  0  0  0  0  0
  140.6205   68.5540  228.2371 H   0  0  0  0  0  0  0  0  0  0  0  0
  141.1499   70.7252  227.1772 H   0  0  0  0  0  0  0  0  0  0  0  0
  140.1398   72.3808  225.4157 H   0  0  0  0  0  0  0  0  0  0  0  0
  141.6476   71.6643  224.7135 H   0  0  0  0  0  0  0  0  0  0  0  0
  143.3157   70.4902  219.8667 H   0  0  0  0  0  0  0  0  0  0  0  0
  142.3906   71.6883  218.8138 H   0  0  0  0  0  0  0  0  0  0  0  0
  144.5860   70.2068  218.1774 H   0  0  0  0  0  0  0  0  0  0  0  0
  143.7913   71.7028  217.3445 H   0  0  0  0  0  0  0  0  0  0  0  0
  1  2  1  0
  2  3  2  0
  2  4  1  0
  4  5  1  0
  5  6  1  0
  6  7  1  0
  7  8  1  0
  8  9  1  0
  9 10  2  0
 10 11  1  0
 11 12  1  0
 12 13  1  0
 13 14  1  0
 14 15  1  0
 15 16  2  0
 16 17  1  0
 17 18  2  0
 18 19  1  0
 19 20  2  0
 20 21  1  0
 11 22  2  0
 22 23  1  0
 23 24  1  0
 24 25  1  0
 25 26  1  0
 26 27  1  0
 27 28  2  0
 28 29  1  0
 29 30  2  0
 30 31  1  0
 31 32  2  0
 32 33  1  0
 23 34  2  0
  8 35  1  0
 35 36  1  0
 36  5  1  0
 34  9  1  0
 21 12  1  0
 33 24  1  0
 20 15  1  0
 32 27  1  0
  1 37  1  0
  1 38  1  0
  4 39  1  0
  4 40  1  0
  6 41  1  0
  6 42  1  0
  7 43  1  0
  7 44  1  0
  8 45  1  0
 10 46  1  0
 13 47  1  0
 13 48  1  0
 14 49  1  0
 14 50  1  0
 16 51  1  0
 17 52  1  0
 18 53  1  0
 19 54  1  0
 21 55  1  0
 21 56  1  0
 25 57  1  0
 25 58  1  0
 26 59  1  0
 26 60  1  0
 28 61  1  0
 29 62  1  0
 30 63  1  0
 31 64  1  0
 33 65  1  0
 33 66  1  0
 35 67  1  0
 35 68  1  0
 36 69  1  0
 36 70  1  0
M  END
>  <smiles>  (1) 
NC(=O)CN1CCC(c2cc(N3CCc4ccccc4C3)nc(N3CCc4ccccc4C3)n2)CC1

>  <score_type>  (1) 
oracle

>  <origin>  (1) 
autodockgpu

>  <m_score__min__energy>  (1) 
-11.01

>  <m_primary>  (1) 
energy

>  <rmsd>  (1) 
4.1833511188065025

>  <m_score__min__rmsd>  (1) 
4.1833511188065025

>  <meeko>  (1) 
{"free_energy": -10.38, "intermolecular_energy": -11.87, "internal_energy": -1.38, "cluster_size": 12, "cluster_id": 2, "rank_in_cluster": 4}

>  <energy>  (1) 
-11.01

>  <cluster_rmsd>  (1) 
0.0

>  <cluster>  (1) 
1

$$$$

     RDKit          3D

 70 75  0  0  0  0  0  0  0  0999 V2000
  142.9420   79.1550  222.3680 N   0  0  0  0  0  0  0  0  0  0  0  0
  141.7450   79.1520  223.1470 C   0  0  0  0  0  0  0  0  0  0  0  0
  141.8220   78.7220  224.3080 O   0  0  0  0  0  0  0  0  0  0  0  0
  140.5190   79.6610  222.5000 C   0  0  0  0  0  0  0  0  0  0  0  0
  139.7550   78.6280  221.8430 N   0  0  0  0  0  0  0  0  0  0  0  0
  140.5600   78.1140  220.7800 C   0  0  0  0  0  0  0  0  0  0  0  0
  141.1690   76.7950  221.2110 C   0  0  0  0  0  0  0  0  0  0  0  0
  139.9850   75.8430  221.2520 C   0  0  0  0  0  0  0  0  0  0  0  0
  140.3710   74.4250  221.2980 C   0  0  0  0  0  0  0  0  0  0  0  0
  141.1400   73.8400  220.2880 C   0  0  0  0  0  0  0  0  0  0  0  0
  141.5070   72.5190  220.3160 C   0  0  0  0  0  0  0  0  0  0  0  0
  142.2820   71.8760  219.3200 N   0  0  0  0  0  0  0  0  0  0  0  0
  143.3210   72.5160  218.5480 C   0  0  0  0  0  0  0  0  0  0  0  0
  144.6780   71.8930  218.8080 C   0  0  0  0  0  0  0  0  0  0  0  0
  144.5570   70.4520  219.1360 C   0  0  0  0  0  0  0  0  0  0  0  0
  145.7220   69.7440  219.3400 C   0  0  0  0  0  0  0  0  0  0  0  0
  145.7380   68.3960  219.6510 C   0  0  0  0  0  0  0  0  0  0  0  0
  144.5350   67.7430  219.7570 C   0  0  0  0  0  0  0  0  0  0  0  0
  143.3570   68.4410  219.5530 C   0  0  0  0  0  0  0  0  0  0  0  0
  143.3540   69.7890  219.2430 C   0  0  0  0  0  0  0  0  0  0  0  0
  142.0360   70.4700  219.0390 C   0  0  0  0  0  0  0  0  0  0  0  0
  141.0800   71.8030  221.3910 N   0  0  0  0  0  0  0  0  0  0  0  0
  140.3410   72.3280  222.3810 C   0  0  0  0  0  0  0  0  0  0  0  0
  139.9250   71.5270  223.4800 N   0  0  0  0  0  0  0  0  0  0  0  0
  138.8130   70.6230  223.3930 C   0  0  0  0  0  0  0  0  0  0  0  0
  139.2030   69.1950  223.7090 C   0  0  0  0  0  0  0  0  0  0  0  0
  139.8750   69.2350  225.0400 C   0  0  0  0  0  0  0  0  0  0  0  0
  139.8320   68.1170  225.8230 C   0  0  0  0  0  0  0  0  0  0  0  0
  140.4100   68.0210  227.0700 C   0  0  0  0  0  0  0  0  0  0  0  0
  141.0710   69.1500  227.5330 C   0  0  0  0  0  0  0  0  0  0  0  0
  141.1220   70.2930  226.7450 C   0  0  0  0  0  0  0  0  0  0  0  0
  140.5340   70.3510  225.5070 C   0  0  0  0  0  0  0  0  0  0  0  0
  140.6390   71.6150  224.7340 C   0  0  0  0  0  0  0  0  0  0  0  0
  139.9960   73.6360  222.3210 N   0  0  0  0  0  0  0  0  0  0  0  0
  139.1380   76.2770  222.4170 C   0  0  0  0  0  0  0  0  0  0  0  0
  139.1560   77.7180  222.7190 C   0  0  0  0  0  0  0  0  0  0  0  0
  143.3190   78.2640  221.9640 H   0  0  0  0  0  0  0  0  0  0  0  0
  143.4700   80.0530  222.1840 H   0  0  0  0  0  0  0  0  0  0  0  0
  139.8863   80.1293  223.2683 H   0  0  0  0  0  0  0  0  0  0  0  0
  140.8299   80.3802  221.7280 H   0  0  0  0  0  0  0  0  0  0  0  0
  139.9356   77.9572  219.8880 H   0  0  0  0  0  0  0  0  0  0  0  0
  141.3598   78.8306  220.5415 H   0  0  0  0  0  0  0  0  0  0  0  0
  141.9203   76.4543  220.4834 H   0  0  0  0  0  0  0  0  0  0  0  0
  141.6920   76.8640  222.1762 H   0  0  0  0  0  0  0  0  0  0  0  0
  139.4099   75.9025  220.3162 H   0  0  0  0  0  0  0  0  0  0  0  0
  141.4625   74.4618  219.4399 H   0  0  0  0  0  0  0  0  0  0  0  0
  143.0825   72.4173  217.4787 H   0  0  0  0  0  0  0  0  0  0  0  0
  143.3669   73.5739  218.8460 H   0  0  0  0  0  0  0  0  0  0  0  0
  145.3013   72.0043  217.9085 H   0  0  0  0  0  0  0  0  0  0  0  0
  145.1363   72.4064  219.6661 H   0  0  0  0  0  0  0  0  0  0  0  0
  146.6816   70.2744  219.2516 H   0  0  0  0  0  0  0  0  0  0  0  0
  146.6871   67.8629  219.8088 H   0  0  0  0  0  0  0  0  0  0  0  0
  144.5073   66.6711  220.0027 H   0  0  0  0  0  0  0  0  0  0  0  0
  142.3979   67.9095  219.6397 H   0  0  0  0  0  0  0  0  0  0  0  0
  141.6910   70.3389  218.0027 H   0  0  0  0  0  0  0  0  0  0  0  0
  141.2539   70.0527  219.6903 H   0  0  0  0  0  0  0  0  0  0  0  0
  138.0402   70.9442  224.1069 H   0  0  0  0  0  0  0  0  0  0  0  0
  138.4415   70.6476  222.3579 H   0  0  0  0  0  0  0  0  0  0  0  0
  138.3090   68.5556  223.7517 H   0  0  0  0  0  0  0  0  0  0  0  0
  139.8661   68.7790  222.9362 H   0  0  0  0  0  0  0  0  0  0  0  0
  139.3015   67.2359  225.4328 H   0  0  0  0  0  0  0  0  0  0  0  0
  140.3507   67.0988  227.6667 H   0  0  0  0  0  0  0  0  0  0  0  0
  141.5534   69.1399  228.5215 H   0  0  0  0  0  0  0  0  0  0  0  0
  141.6505   71.1794  227.1258 H   0  0  0  0  0  0  0  0  0  0  0  0
  140.2146   72.4358  225.3307 H   0  0  0  0  0  0  0  0  0  0  0  0
  141.7011   71.8001  224.5155 H   0  0  0  0  0  0  0  0  0  0  0  0
  138.0978   75.9895  222.2040 H   0  0  0  0  0  0  0  0  0  0  0  0
  139.5667   75.7807  223.3001 H   0  0  0  0  0  0  0  0  0  0  0  0
  138.1061   78.0291  222.8240 H   0  0  0  0  0  0  0  0  0  0  0  0
  139.8043   77.7721  223.6060 H   0  0  0  0  0  0  0  0  0  0  0  0
  1  2  1  0
  2  3  2  0
  2  4  1  0
  4  5  1  0
  5  6  1  0
  6  7  1  0
  7  8  1  0
  8  9  1  0
  9 10  2  0
 10 11  1  0
 11 12  1  0
 12 13  1  0
 13 14  1  0
 14 15  1  0
 15 16  2  0
 16 17  1  0
 17 18  2  0
 18 19  1  0
 19 20  2  0
 20 21  1  0
 11 22  2  0
 22 23  1  0
 23 24  1  0
 24 25  1  0
 25 26  1  0
 26 27  1  0
 27 28  2  0
 28 29  1  0
 29 30  2  0
 30 31  1  0
 31 32  2  0
 32 33  1  0
 23 34  2  0
  8 35  1  0
 35 36  1  0
 36  5  1  0
 34  9  1  0
 21 12  1  0
 33 24  1  0
 20 15  1  0
 32 27  1  0
  1 37  1  0
  1 38  1  0
  4 39  1  0
  4 40  1  0
  6 41  1  0
  6 42  1  0
  7 43  1  0
  7 44  1  0
  8 45  1  0
 10 46  1  0
 13 47  1  0
 13 48  1  0
 14 49  1  0
 14 50  1  0
 16 51  1  0
 17 52  1  0
 18 53  1  0
 19 54  1  0
 21 55  1  0
 21 56  1  0
 25 57  1  0
 25 58  1  0
 26 59  1  0
 26 60  1  0
 28 61  1  0
 29 62  1  0
 30 63  1  0
 31 64  1  0
 33 65  1  0
 33 66  1  0
 35 67  1  0
 35 68  1  0
 36 69  1  0
 36 70  1  0
M  END
>  <smiles>  (2) 
NC(=O)CN1CCC(c2cc(N3CCc4ccccc4C3)nc(N3CCc4ccccc4C3)n2)CC1

>  <score_type>  (2) 
oracle

>  <origin>  (2) 
autodockgpu

>  <m_score__min__energy>  (2) 
-11.01

>  <m_primary>  (2) 
energy

>  <rmsd>  (2) 
10.131971505626613

>  <m_score__min__rmsd>  (2) 
10.131971505626613

>  <meeko>  (2) 
{"free_energy": -10.14, "intermolecular_energy": -11.63, "internal_energy": -1.4, "cluster_size": 12, "cluster_id": 3, "rank_in_cluster": 4}

>  <energy>  (2) 
-10.94

>  <cluster_rmsd>  (2) 
0.53

>  <cluster>  (2) 
1

$$$$

     RDKit          3D

 70 75  0  0  0  0  0  0  0  0999 V2000
  144.6490   75.1180  216.7390 N   0  0  0  0  0  0  0  0  0  0  0  0
  145.2490   73.9340  216.2110 C   0  0  0  0  0  0  0  0  0  0  0  0
  144.9220   73.5940  215.0630 O   0  0  0  0  0  0  0  0  0  0  0  0
  146.2060   73.2200  217.0790 C   0  0  0  0  0  0  0  0  0  0  0  0
  145.5620   72.4070  218.0820 N   0  0  0  0  0  0  0  0  0  0  0  0
  145.7920   73.0290  219.3470 C   0  0  0  0  0  0  0  0  0  0  0  0
  144.5440   73.7800  219.7660 C   0  0  0  0  0  0  0  0  0  0  0  0
  143.5480   72.6790  220.0890 C   0  0  0  0  0  0  0  0  0  0  0  0
  142.3820   73.1450  220.8540 C   0  0  0  0  0  0  0  0  0  0  0  0
  141.8790   74.4420  220.7080 C   0  0  0  0  0  0  0  0  0  0  0  0
  140.7920   74.8920  221.4150 C   0  0  0  0  0  0  0  0  0  0  0  0
  140.2440   76.1930  221.3070 N   0  0  0  0  0  0  0  0  0  0  0  0
  138.8860   76.5430  221.6530 C   0  0  0  0  0  0  0  0  0  0  0  0
  138.8370   77.5340  222.7990 C   0  0  0  0  0  0  0  0  0  0  0  0
  140.0240   78.4230  222.7960 C   0  0  0  0  0  0  0  0  0  0  0  0
  140.0820   79.4140  223.7520 C   0  0  0  0  0  0  0  0  0  0  0  0
  141.1360   80.3040  223.8490 C   0  0  0  0  0  0  0  0  0  0  0  0
  142.1650   80.1880  222.9480 C   0  0  0  0  0  0  0  0  0  0  0  0
  142.1200   79.1990  221.9810 C   0  0  0  0  0  0  0  0  0  0  0  0
  141.0600   78.3140  221.8940 C   0  0  0  0  0  0  0  0  0  0  0  0
  141.0880   77.2720  220.8190 C   0  0  0  0  0  0  0  0  0  0  0  0
  140.2260   74.0000  222.2710 N   0  0  0  0  0  0  0  0  0  0  0  0
  140.6790   72.7480  222.4390 C   0  0  0  0  0  0  0  0  0  0  0  0
  140.0420   71.8610  223.3510 N   0  0  0  0  0  0  0  0  0  0  0  0
  138.8610   71.1210  223.0040 C   0  0  0  0  0  0  0  0  0  0  0  0
  139.0560   69.6260  223.1420 C   0  0  0  0  0  0  0  0  0  0  0  0
  139.5500   69.4010  224.5320 C   0  0  0  0  0  0  0  0  0  0  0  0
  139.2880   68.2000  225.1270 C   0  0  0  0  0  0  0  0  0  0  0  0
  139.6870   67.8650  226.4030 C   0  0  0  0  0  0  0  0  0  0  0  0
  140.3980   68.8300  227.1020 C   0  0  0  0  0  0  0  0  0  0  0  0
  140.6700   70.0550  226.5070 C   0  0  0  0  0  0  0  0  0  0  0  0
  140.2570   70.3540  225.2330 C   0  0  0  0  0  0  0  0  0  0  0  0
  140.5930   71.6880  224.6760 C   0  0  0  0  0  0  0  0  0  0  0  0
  141.7530   72.3370  221.7260 N   0  0  0  0  0  0  0  0  0  0  0  0
  143.1900   72.0380  218.7750 C   0  0  0  0  0  0  0  0  0  0  0  0
  144.2550   72.0310  217.7580 C   0  0  0  0  0  0  0  0  0  0  0  0
  143.6560   75.1090  217.0740 H   0  0  0  0  0  0  0  0  0  0  0  0
  145.1930   76.0230  216.8030 H   0  0  0  0  0  0  0  0  0  0  0  0
  146.8316   72.5698  216.4499 H   0  0  0  0  0  0  0  0  0  0  0  0
  146.8018   73.9801  217.6055 H   0  0  0  0  0  0  0  0  0  0  0  0
  146.0285   72.2604  220.0975 H   0  0  0  0  0  0  0  0  0  0  0  0
  146.6361   73.7297  219.2668 H   0  0  0  0  0  0  0  0  0  0  0  0
  144.7403   74.4026  220.6514 H   0  0  0  0  0  0  0  0  0  0  0  0
  144.1802   74.4670  218.9878 H   0  0  0  0  0  0  0  0  0  0  0  0
  143.9986   71.9398  220.7676 H   0  0  0  0  0  0  0  0  0  0  0  0
  142.3722   75.1257  220.0014 H   0  0  0  0  0  0  0  0  0  0  0  0
  138.3981   76.9899  220.7742 H   0  0  0  0  0  0  0  0  0  0  0  0
  138.3658   75.6269  221.9694 H   0  0  0  0  0  0  0  0  0  0  0  0
  137.9295   78.1482  222.7026 H   0  0  0  0  0  0  0  0  0  0  0  0
  138.8284   76.9708  223.7439 H   0  0  0  0  0  0  0  0  0  0  0  0
  139.2530   79.5009  224.4698 H   0  0  0  0  0  0  0  0  0  0  0  0
  141.1494   81.0826  224.6259 H   0  0  0  0  0  0  0  0  0  0  0  0
  143.0208   80.8775  222.9943 H   0  0  0  0  0  0  0  0  0  0  0  0
  142.9487   79.1143  221.2627 H   0  0  0  0  0  0  0  0  0  0  0  0
  140.6881   77.6784  219.8783 H   0  0  0  0  0  0  0  0  0  0  0  0
  142.1114   76.9283  220.6082 H   0  0  0  0  0  0  0  0  0  0  0  0
  138.0408   71.4331  223.6673 H   0  0  0  0  0  0  0  0  0  0  0  0
  138.6295   71.3334  221.9498 H   0  0  0  0  0  0  0  0  0  0  0  0
  138.1024   69.1004  222.9857 H   0  0  0  0  0  0  0  0  0  0  0  0
  139.7667   69.2423  222.3953 H   0  0  0  0  0  0  0  0  0  0  0  0
  138.7226   67.4525  224.5513 H   0  0  0  0  0  0  0  0  0  0  0  0
  139.4541   66.8845  226.8439 H   0  0  0  0  0  0  0  0  0  0  0  0
  140.7455   68.6251  228.1254 H   0  0  0  0  0  0  0  0  0  0  0  0
  141.2343   70.8094  227.0749 H   0  0  0  0  0  0  0  0  0  0  0  0
  140.1839   72.4655  225.3379 H   0  0  0  0  0  0  0  0  0  0  0  0
  141.6879   71.7689  224.6085 H   0  0  0  0  0  0  0  0  0  0  0  0
  142.9058   70.9942  218.9742 H   0  0  0  0  0  0  0  0  0  0  0  0
  142.3773   72.6485  218.3546 H   0  0  0  0  0  0  0  0  0  0  0  0
  144.3120   71.0026  217.3718 H   0  0  0  0  0  0  0  0  0  0  0  0
  143.9375   72.8279  217.0695 H   0  0  0  0  0  0  0  0  0  0  0  0
  1  2  1  0
  2  3  2  0
  2  4  1  0
  4  5  1  0
  5  6  1  0
  6  7  1  0
  7  8  1  0
  8  9  1  0
  9 10  2  0
 10 11  1  0
 11 12  1  0
 12 13  1  0
 13 14  1  0
 14 15  1  0
 15 16  2  0
 16 17  1  0
 17 18  2  0
 18 19  1  0
 19 20  2  0
 20 21  1  0
 11 22  2  0
 22 23  1  0
 23 24  1  0
 24 25  1  0
 25 26  1  0
 26 27  1  0
 27 28  2  0
 28 29  1  0
 29 30  2  0
 30 31  1  0
 31 32  2  0
 32 33  1  0
 23 34  2  0
  8 35  1  0
 35 36  1  0
 36  5  1  0
 34  9  1  0
 21 12  1  0
 33 24  1  0
 20 15  1  0
 32 27  1  0
  1 37  1  0
  1 38  1  0
  4 39  1  0
  4 40  1  0
  6 41  1  0
  6 42  1  0
  7 43  1  0
  7 44  1  0
  8 45  1  0
 10 46  1  0
 13 47  1  0
 13 48  1  0
 14 49  1  0
 14 50  1  0
 16 51  1  0
 17 52  1  0
 18 53  1  0
 19 54  1  0
 21 55  1  0
 21 56  1  0
 25 57  1  0
 25 58  1  0
 26 59  1  0
 26 60  1  0
 28 61  1  0
 29 62  1  0
 30 63  1  0
 31 64  1  0
 33 65  1  0
 33 66  1  0
 35 67  1  0
 35 68  1  0
 36 69  1  0
 36 70  1  0
M  END
>  <smiles>  (3) 
NC(=O)CN1CCC(c2cc(N3CCc4ccccc4C3)nc(N3CCc4ccccc4C3)n2)CC1

>  <score_type>  (3) 
oracle

>  <origin>  (3) 
autodockgpu

>  <m_score__min__energy>  (3) 
-11.01

>  <m_primary>  (3) 
energy

>  <rmsd>  (3) 
4.144630315791297

>  <m_score__min__rmsd>  (3) 
4.144630315791297

>  <meeko>  (3) 
{"free_energy": -10.32, "intermolecular_energy": -11.81, "internal_energy": -1.45, "cluster_size": 12, "cluster_id": 2, "rank_in_cluster": 9}

>  <energy>  (3) 
-10.8

>  <cluster_rmsd>  (3) 
1.07

>  <cluster>  (3) 
1

$$$$

     RDKit          3D

 70 75  0  0  0  0  0  0  0  0999 V2000
  145.2080   73.0870  215.1590 N   0  0  0  0  0  0  0  0  0  0  0  0
  146.1130   72.3670  215.9970 C   0  0  0  0  0  0  0  0  0  0  0  0
  147.3100   72.6930  215.9550 O   0  0  0  0  0  0  0  0  0  0  0  0
  145.5440   71.2960  216.8390 C   0  0  0  0  0  0  0  0  0  0  0  0
  145.5330   71.6260  218.2430 N   0  0  0  0  0  0  0  0  0  0  0  0
  145.2850   73.0290  218.3490 C   0  0  0  0  0  0  0  0  0  0  0  0
  143.8340   73.2510  218.7230 C   0  0  0  0  0  0  0  0  0  0  0  0
  143.7490   72.7670  220.1600 C   0  0  0  0  0  0  0  0  0  0  0  0
  142.5320   73.2050  220.8590 C   0  0  0  0  0  0  0  0  0  0  0  0
  142.0250   74.5000  220.7090 C   0  0  0  0  0  0  0  0  0  0  0  0
  140.8910   74.9240  221.3540 C   0  0  0  0  0  0  0  0  0  0  0  0
  140.3360   76.2220  221.2380 N   0  0  0  0  0  0  0  0  0  0  0  0
  138.9650   76.5590  221.5460 C   0  0  0  0  0  0  0  0  0  0  0  0
  138.8750   77.5420  222.6960 C   0  0  0  0  0  0  0  0  0  0  0  0
  140.0540   78.4400  222.7330 C   0  0  0  0  0  0  0  0  0  0  0  0
  140.0760   79.4250  223.6980 C   0  0  0  0  0  0  0  0  0  0  0  0
  141.1200   80.3230  223.8310 C   0  0  0  0  0  0  0  0  0  0  0  0
  142.1760   80.2200  222.9600 C   0  0  0  0  0  0  0  0  0  0  0  0
  142.1670   79.2370  221.9860 C   0  0  0  0  0  0  0  0  0  0  0  0
  141.1170   78.3450  221.8620 C   0  0  0  0  0  0  0  0  0  0  0  0
  141.1850   77.3100  220.7820 C   0  0  0  0  0  0  0  0  0  0  0  0
  140.2820   74.0090  222.1550 N   0  0  0  0  0  0  0  0  0  0  0  0
  140.7380   72.7580  222.3250 C   0  0  0  0  0  0  0  0  0  0  0  0
  140.0550   71.8460  223.1770 N   0  0  0  0  0  0  0  0  0  0  0  0
  138.8920   71.1200  222.7490 C   0  0  0  0  0  0  0  0  0  0  0  0
  139.0770   69.6210  222.8510 C   0  0  0  0  0  0  0  0  0  0  0  0
  139.5000   69.3530  224.2560 C   0  0  0  0  0  0  0  0  0  0  0  0
  139.2070   68.1350  224.8010 C   0  0  0  0  0  0  0  0  0  0  0  0
  139.5420   67.7600  226.0850 C   0  0  0  0  0  0  0  0  0  0  0  0
  140.2180   68.7010  226.8470 C   0  0  0  0  0  0  0  0  0  0  0  0
  140.5210   69.9430  226.3040 C   0  0  0  0  0  0  0  0  0  0  0  0
  140.1730   70.2810  225.0210 C   0  0  0  0  0  0  0  0  0  0  0  0
  140.5380   71.6310  224.5220 C   0  0  0  0  0  0  0  0  0  0  0  0
  141.8590   72.3730  221.6730 N   0  0  0  0  0  0  0  0  0  0  0  0
  143.9110   71.2720  220.1110 C   0  0  0  0  0  0  0  0  0  0  0  0
  144.7660   70.7580  219.0270 C   0  0  0  0  0  0  0  0  0  0  0  0
  145.1740   72.9050  214.1270 H   0  0  0  0  0  0  0  0  0  0  0  0
  144.5560   73.8160  215.5620 H   0  0  0  0  0  0  0  0  0  0  0  0
  144.5096   71.1084  216.5153 H   0  0  0  0  0  0  0  0  0  0  0  0
  146.1815   70.4081  216.7157 H   0  0  0  0  0  0  0  0  0  0  0  0
  145.9350   73.4600  219.1247 H   0  0  0  0  0  0  0  0  0  0  0  0
  145.4972   73.5158  217.3857 H   0  0  0  0  0  0  0  0  0  0  0  0
  143.5704   74.3166  218.6527 H   0  0  0  0  0  0  0  0  0  0  0  0
  143.1381   72.7219  218.0553 H   0  0  0  0  0  0  0  0  0  0  0  0
  144.5477   73.2204  220.7654 H   0  0  0  0  0  0  0  0  0  0  0  0
  142.5547   75.2037  220.0501 H   0  0  0  0  0  0  0  0  0  0  0  0
  138.4995   77.0077  220.6561 H   0  0  0  0  0  0  0  0  0  0  0  0
  138.4428   75.6369  221.8410 H   0  0  0  0  0  0  0  0  0  0  0  0
  137.9658   78.1496  222.5772 H   0  0  0  0  0  0  0  0  0  0  0  0
  138.8436   76.9727  223.6367 H   0  0  0  0  0  0  0  0  0  0  0  0
  139.2262   79.5000  224.3924 H   0  0  0  0  0  0  0  0  0  0  0  0
  141.1043   81.0972  224.6122 H   0  0  0  0  0  0  0  0  0  0  0  0
  143.0250   80.9153  223.0359 H   0  0  0  0  0  0  0  0  0  0  0  0
  143.0173   79.1630  221.2920 H   0  0  0  0  0  0  0  0  0  0  0  0
  140.8099   77.7191  219.8323 H   0  0  0  0  0  0  0  0  0  0  0  0
  142.2169   76.9755  220.5995 H   0  0  0  0  0  0  0  0  0  0  0  0
  138.0400   71.4144  223.3794 H   0  0  0  0  0  0  0  0  0  0  0  0
  138.7146   71.3646  221.6913 H   0  0  0  0  0  0  0  0  0  0  0  0
  138.1315   69.1035  222.6313 H   0  0  0  0  0  0  0  0  0  0  0  0
  139.8234   69.2574  222.1295 H   0  0  0  0  0  0  0  0  0  0  0  0
  138.6695   67.4070  224.1756 H   0  0  0  0  0  0  0  0  0  0  0  0
  139.2866   66.7671  226.4837 H   0  0  0  0  0  0  0  0  0  0  0  0
  140.5138   68.4642  227.8797 H   0  0  0  0  0  0  0  0  0  0  0  0
  141.0567   70.6785  226.9221 H   0  0  0  0  0  0  0  0  0  0  0  0
  140.0967   72.3890  225.1859 H   0  0  0  0  0  0  0  0  0  0  0  0
  141.6351   71.7108  224.5121 H   0  0  0  0  0  0  0  0  0  0  0  0
  144.3463   70.9475  221.0677 H   0  0  0  0  0  0  0  0  0  0  0  0
  142.9064   70.8674  219.9184 H   0  0  0  0  0  0  0  0  0  0  0  0
  145.4696   70.0515  219.4916 H   0  0  0  0  0  0  0  0  0  0  0  0
  144.0339   70.3637  218.3069 H   0  0  0  0  0  0  0  0  0  0  0  0
  1  2  1  0
  2  3  2  0
  2  4  1  0
  4  5  1  0
  5  6  1  0
  6  7  1  0
  7  8  1  0
  8  9  1  0
  9 10  2  0
 10 11  1  0
 11 12  1  0
 12 13  1  0
 13 14  1  0
 14 15  1  0
 15 16  2  0
 16 17  1  0
 17 18  2  0
 18 19  1  0
 19 20  2  0
 20 21  1  0
 11 22  2  0
 22 23  1  0
 23 24  1  0
 24 25  1  0
 25 26  1  0
 26 27  1  0
 27 28  2  0
 28 29  1  0
 29 30  2  0
 30 31  1  0
 31 32  2  0
 32 33  1  0
 23 34  2  0
  8 35  1  0
 35 36  1  0
 36  5  1  0
 34  9  1  0
 21 12  1  0
 33 24  1  0
 20 15  1  0
 32 27  1  0
  1 37  1  0
  1 38  1  0
  4 39  1  0
  4 40  1  0
  6 41  1  0
  6 42  1  0
  7 43  1  0
  7 44  1  0
  8 45  1  0
 10 46  1  0
 13 47  1  0
 13 48  1  0
 14 49  1  0
 14 50  1  0
 16 51  1  0
 17 52  1  0
 18 53  1  0
 19 54  1  0
 21 55  1  0
 21 56  1  0
 25 57  1  0
 25 58  1  0
 26 59  1  0
 26 60  1  0
 28 61  1  0
 29 62  1  0
 30 63  1  0
 31 64  1  0
 33 65  1  0
 33 66  1  0
 35 67  1  0
 35 68  1  0
 36 69  1  0
 36 70  1  0
M  END
>  <smiles>  (4) 
NC(=O)CN1CCC(c2cc(N3CCc4ccccc4C3)nc(N3CCc4ccccc4C3)n2)CC1

>  <score_type>  (4) 
oracle

>  <origin>  (4) 
autodockgpu

>  <m_score__min__energy>  (4) 
-11.01

>  <m_primary>  (4) 
energy

>  <rmsd>  (4) 
4.050253404125945

>  <m_score__min__rmsd>  (4) 
4.050253404125945

>  <meeko>  (4) 
{"free_energy": -9.9, "intermolecular_energy": -11.39, "internal_energy": -1.36, "cluster_size": 26, "cluster_id": 1, "rank_in_cluster": 25}

>  <energy>  (4) 
-10.51

>  <cluster_rmsd>  (4) 
1.06

>  <cluster>  (4) 
1

$$$$

     RDKit          3D

 70 75  0  0  0  0  0  0  0  0999 V2000
  143.6260   68.7010  218.6470 N   0  0  0  0  0  0  0  0  0  0  0  0
  144.9640   69.0180  219.0300 C   0  0  0  0  0  0  0  0  0  0  0  0
  145.3920   68.5120  220.0790 O   0  0  0  0  0  0  0  0  0  0  0  0
  145.7220   69.9230  218.1420 C   0  0  0  0  0  0  0  0  0  0  0  0
  145.4570   71.3180  218.3960 N   0  0  0  0  0  0  0  0  0  0  0  0
  144.2150   71.6380  217.7660 C   0  0  0  0  0  0  0  0  0  0  0  0
  143.1220   71.6800  218.8150 C   0  0  0  0  0  0  0  0  0  0  0  0
  143.4400   72.9250  219.6240 C   0  0  0  0  0  0  0  0  0  0  0  0
  142.3290   73.3760  220.4740 C   0  0  0  0  0  0  0  0  0  0  0  0
  141.8330   74.6820  220.4030 C   0  0  0  0  0  0  0  0  0  0  0  0
  140.7970   75.1180  221.1890 C   0  0  0  0  0  0  0  0  0  0  0  0
  140.2580   76.4270  221.1590 N   0  0  0  0  0  0  0  0  0  0  0  0
  138.9170   76.7730  221.5690 C   0  0  0  0  0  0  0  0  0  0  0  0
  138.9190   77.7120  222.7580 C   0  0  0  0  0  0  0  0  0  0  0  0
  140.1140   78.5910  222.7510 C   0  0  0  0  0  0  0  0  0  0  0  0
  140.2160   79.5380  223.7480 C   0  0  0  0  0  0  0  0  0  0  0  0
  141.2820   80.4130  223.8460 C   0  0  0  0  0  0  0  0  0  0  0  0
  142.2770   80.3290  222.9030 C   0  0  0  0  0  0  0  0  0  0  0  0
  142.1870   79.3840  221.8960 C   0  0  0  0  0  0  0  0  0  0  0  0
  141.1150   78.5130  221.8080 C   0  0  0  0  0  0  0  0  0  0  0  0
  141.0950   77.5190  220.6880 C   0  0  0  0  0  0  0  0  0  0  0  0
  140.2740   74.2030  222.0480 N   0  0  0  0  0  0  0  0  0  0  0  0
  140.7210   72.9410  222.1460 C   0  0  0  0  0  0  0  0  0  0  0  0
  140.1310   72.0300  223.0650 N   0  0  0  0  0  0  0  0  0  0  0  0
  138.9850   71.2330  222.7270 C   0  0  0  0  0  0  0  0  0  0  0  0
  139.2500   69.7500  222.8720 C   0  0  0  0  0  0  0  0  0  0  0  0
  139.7600   69.5560  224.2600 C   0  0  0  0  0  0  0  0  0  0  0  0
  139.5580   68.3460  224.8630 C   0  0  0  0  0  0  0  0  0  0  0  0
  139.9780   68.0370  226.1380 C   0  0  0  0  0  0  0  0  0  0  0  0
  140.6450   69.0370  226.8290 C   0  0  0  0  0  0  0  0  0  0  0  0
  140.8570   70.2710  226.2270 C   0  0  0  0  0  0  0  0  0  0  0  0
  140.4250   70.5440  224.9540 C   0  0  0  0  0  0  0  0  0  0  0  0
  140.6950   71.8900  224.3890 C   0  0  0  0  0  0  0  0  0  0  0  0
  141.7450   72.5450  221.3550 N   0  0  0  0  0  0  0  0  0  0  0  0
  144.7000   72.6190  220.3900 C   0  0  0  0  0  0  0  0  0  0  0  0
  145.6410   71.7000  219.7280 C   0  0  0  0  0  0  0  0  0  0  0  0
  142.8110   69.1420  219.1380 H   0  0  0  0  0  0  0  0  0  0  0  0
  143.4300   68.0170  217.8650 H   0  0  0  0  0  0  0  0  0  0  0  0
  146.7964   69.7384  218.2887 H   0  0  0  0  0  0  0  0  0  0  0  0
  145.4048   69.7115  217.1102 H   0  0  0  0  0  0  0  0  0  0  0  0
  144.2929   72.6197  217.2760 H   0  0  0  0  0  0  0  0  0  0  0  0
  143.9750   70.8742  217.0117 H   0  0  0  0  0  0  0  0  0  0  0  0
  142.1310   71.7615  218.3446 H   0  0  0  0  0  0  0  0  0  0  0  0
  143.0908   70.7698  219.4318 H   0  0  0  0  0  0  0  0  0  0  0  0
  143.5947   73.7864  218.9576 H   0  0  0  0  0  0  0  0  0  0  0  0
  142.2904   75.3848  219.6910 H   0  0  0  0  0  0  0  0  0  0  0  0
  138.4026   77.2627  220.7290 H   0  0  0  0  0  0  0  0  0  0  0  0
  138.3992   75.8482  221.8634 H   0  0  0  0  0  0  0  0  0  0  0  0
  138.0146   78.3371  222.7220 H   0  0  0  0  0  0  0  0  0  0  0  0
  138.9391   77.1074  223.6768 H   0  0  0  0  0  0  0  0  0  0  0  0
  139.4141   79.6001  224.4984 H   0  0  0  0  0  0  0  0  0  0  0  0
  141.3318   81.1554  224.6562 H   0  0  0  0  0  0  0  0  0  0  0  0
  143.1405   81.0090  222.9479 H   0  0  0  0  0  0  0  0  0  0  0  0
  142.9889   79.3235  221.1455 H   0  0  0  0  0  0  0  0  0  0  0  0
  140.6662   77.9694  219.7807 H   0  0  0  0  0  0  0  0  0  0  0  0
  142.1068   77.1764  220.4256 H   0  0  0  0  0  0  0  0  0  0  0  0
  138.1537   71.5099  223.3920 H   0  0  0  0  0  0  0  0  0  0  0  0
  138.7401   71.4282  221.6725 H   0  0  0  0  0  0  0  0  0  0  0  0
  138.3213   69.1797  222.7231 H   0  0  0  0  0  0  0  0  0  0  0  0
  139.9745   69.3957  222.1239 H   0  0  0  0  0  0  0  0  0  0  0  0
  139.0261   67.5695  224.2938 H   0  0  0  0  0  0  0  0  0  0  0  0
  139.7939   67.0487  226.5845 H   0  0  0  0  0  0  0  0  0  0  0  0
  141.0056   68.8537  227.8519 H   0  0  0  0  0  0  0  0  0  0  0  0
  141.3879   71.0537  226.7888 H   0  0  0  0  0  0  0  0  0  0  0  0
  140.2519   72.6504  225.0489 H   0  0  0  0  0  0  0  0  0  0  0  0
  141.7846   72.0225  224.3166 H   0  0  0  0  0  0  0  0  0  0  0  0
  145.2251   73.5686  220.5705 H   0  0  0  0  0  0  0  0  0  0  0  0
  144.3764   72.1074  221.3085 H   0  0  0  0  0  0  0  0  0  0  0  0
  146.6322   72.1738  219.7835 H   0  0  0  0  0  0  0  0  0  0  0  0
  145.4838   70.7580  220.2739 H   0  0  0  0  0  0  0  0  0  0  0  0
  1  2  1  0
  2  3  2  0
  2  4  1  0
  4  5  1  0
  5  6  1  0
  6  7  1  0
  7  8  1  0
  8  9  1  0
  9 10  2  0
 10 11  1  0
 11 12  1  0
 12 13  1  0
 13 14  1  0
 14 15  1  0
 15 16  2  0
 16 17  1  0
 17 18  2  0
 18 19  1  0
 19 20  2  0
 20 21  1  0
 11 22  2  0
 22 23  1  0
 23 24  1  0
 24 25  1  0
 25 26  1  0
 26 27  1  0
 27 28  2  0
 28 29  1  0
 29 30  2  0
 30 31  1  0
 31 32  2  0
 32 33  1  0
 23 34  2  0
  8 35  1  0
 35 36  1  0
 36  5  1  0
 34  9  1  0
 21 12  1  0
 33 24  1  0
 20 15  1  0
 32 27  1  0
  1 37  1  0
  1 38  1  0
  4 39  1  0
  4 40  1  0
  6 41  1  0
  6 42  1  0
  7 43  1  0
  7 44  1  0
  8 45  1  0
 10 46  1  0
 13 47  1  0
 13 48  1  0
 14 49  1  0
 14 50  1  0
 16 51  1  0
 17 52  1  0
 18 53  1  0
 19 54  1  0
 21 55  1  0
 21 56  1  0
 25 57  1  0
 25 58  1  0
 26 59  1  0
 26 60  1  0
 28 61  1  0
 29 62  1  0
 30 63  1  0
 31 64  1  0
 33 65  1  0
 33 66  1  0
 35 67  1  0
 35 68  1  0
 36 69  1  0
 36 70  1  0
M  END
>  <smiles>  (5) 
NC(=O)CN1CCC(c2cc(N3CCc4ccccc4C3)nc(N3CCc4ccccc4C3)n2)CC1

>  <score_type>  (5) 
oracle

>  <origin>  (5) 
autodockgpu

>  <m_score__min__energy>  (5) 
-11.01

>  <m_primary>  (5) 
energy

>  <rmsd>  (5) 
3.873788955476392

>  <m_score__min__rmsd>  (5) 
3.873788955476392

>  <meeko>  (5) 
{"free_energy": -10.38, "intermolecular_energy": -11.87, "internal_energy": -1.4, "cluster_size": 26, "cluster_id": 1, "rank_in_cluster": 9}

>  <energy>  (5) 
-10.48

>  <cluster_rmsd>  (5) 
1.2

>  <cluster>  (5) 
1

$$$$

     RDKit          3D

 70 75  0  0  0  0  0  0  0  0999 V2000
  146.0880   74.5080  216.0280 N   0  0  0  0  0  0  0  0  0  0  0  0
  146.6000   73.1850  216.1880 C   0  0  0  0  0  0  0  0  0  0  0  0
  147.8040   73.0060  215.9460 O   0  0  0  0  0  0  0  0  0  0  0  0
  145.6490   72.1440  216.6290 C   0  0  0  0  0  0  0  0  0  0  0  0
  145.5290   72.0590  218.0640 N   0  0  0  0  0  0  0  0  0  0  0  0
  145.4860   73.3950  218.5680 C   0  0  0  0  0  0  0  0  0  0  0  0
  144.0520   73.7560  218.8970 C   0  0  0  0  0  0  0  0  0  0  0  0
  143.7320   72.9080  220.1160 C   0  0  0  0  0  0  0  0  0  0  0  0
  142.5240   73.3390  220.8340 C   0  0  0  0  0  0  0  0  0  0  0  0
  142.0140   74.6340  220.7020 C   0  0  0  0  0  0  0  0  0  0  0  0
  140.8890   75.0520  221.3650 C   0  0  0  0  0  0  0  0  0  0  0  0
  140.3310   76.3500  221.2690 N   0  0  0  0  0  0  0  0  0  0  0  0
  138.9720   76.6880  221.6210 C   0  0  0  0  0  0  0  0  0  0  0  0
  138.9210   77.6710  222.7740 C   0  0  0  0  0  0  0  0  0  0  0  0
  140.1010   78.5680  222.7730 C   0  0  0  0  0  0  0  0  0  0  0  0
  140.1560   79.5520  223.7370 C   0  0  0  0  0  0  0  0  0  0  0  0
  141.2050   80.4490  223.8370 C   0  0  0  0  0  0  0  0  0  0  0  0
  142.2310   80.3460  222.9320 C   0  0  0  0  0  0  0  0  0  0  0  0
  142.1900   79.3630  221.9580 C   0  0  0  0  0  0  0  0  0  0  0  0
  141.1350   78.4720  221.8680 C   0  0  0  0  0  0  0  0  0  0  0  0
  141.1670   77.4380  220.7850 C   0  0  0  0  0  0  0  0  0  0  0  0
  140.2900   74.1290  222.1650 N   0  0  0  0  0  0  0  0  0  0  0  0
  140.7480   72.8760  222.3190 C   0  0  0  0  0  0  0  0  0  0  0  0
  140.0770   71.9570  223.1700 N   0  0  0  0  0  0  0  0  0  0  0  0
  138.9130   71.2290  222.7480 C   0  0  0  0  0  0  0  0  0  0  0  0
  139.1040   69.7300  222.8400 C   0  0  0  0  0  0  0  0  0  0  0  0
  139.5420   69.4540  224.2390 C   0  0  0  0  0  0  0  0  0  0  0  0
  139.2580   68.2320  224.7790 C   0  0  0  0  0  0  0  0  0  0  0  0
  139.6060   67.8500  226.0570 C   0  0  0  0  0  0  0  0  0  0  0  0
  140.2850   68.7890  226.8190 C   0  0  0  0  0  0  0  0  0  0  0  0
  140.5790   70.0360  226.2810 C   0  0  0  0  0  0  0  0  0  0  0  0
  140.2180   70.3810  225.0030 C   0  0  0  0  0  0  0  0  0  0  0  0
  140.5730   71.7350  224.5100 C   0  0  0  0  0  0  0  0  0  0  0  0
  141.8620   72.4980  221.6490 N   0  0  0  0  0  0  0  0  0  0  0  0
  143.6710   71.4840  219.6320 C   0  0  0  0  0  0  0  0  0  0  0  0
  144.5560   71.1550  218.5020 C   0  0  0  0  0  0  0  0  0  0  0  0
  145.9070   74.8980  215.0710 H   0  0  0  0  0  0  0  0  0  0  0  0
  145.8830   75.1190  216.8670 H   0  0  0  0  0  0  0  0  0  0  0  0
  144.6590   72.3731  216.2078 H   0  0  0  0  0  0  0  0  0  0  0  0
  146.0336   71.1765  216.2740 H   0  0  0  0  0  0  0  0  0  0  0  0
  146.1012   73.4655  219.4771 H   0  0  0  0  0  0  0  0  0  0  0  0
  145.8778   74.0893  217.8101 H   0  0  0  0  0  0  0  0  0  0  0  0
  143.9619   74.8271  219.1308 H   0  0  0  0  0  0  0  0  0  0  0  0
  143.3647   73.5698  218.0586 H   0  0  0  0  0  0  0  0  0  0  0  0
  144.5153   73.0216  220.8799 H   0  0  0  0  0  0  0  0  0  0  0  0
  142.5344   75.3436  220.0420 H   0  0  0  0  0  0  0  0  0  0  0  0
  138.4783   77.1375  220.7468 H   0  0  0  0  0  0  0  0  0  0  0  0
  138.4583   75.7664  221.9322 H   0  0  0  0  0  0  0  0  0  0  0  0
  138.0089   78.2795  222.6854 H   0  0  0  0  0  0  0  0  0  0  0  0
  138.9204   77.1011  223.7148 H   0  0  0  0  0  0  0  0  0  0  0  0
  139.3293   79.6275  224.4587 H   0  0  0  0  0  0  0  0  0  0  0  0
  141.2159   81.2221  224.6194 H   0  0  0  0  0  0  0  0  0  0  0  0
  143.0821   81.0412  222.9801 H   0  0  0  0  0  0  0  0  0  0  0  0
  143.0174   79.2883  221.2370 H   0  0  0  0  0  0  0  0  0  0  0  0
  140.7616   77.8483  219.8483 H   0  0  0  0  0  0  0  0  0  0  0  0
  142.1919   77.1027  220.5680 H   0  0  0  0  0  0  0  0  0  0  0  0
  138.0655   71.5169  223.3874 H   0  0  0  0  0  0  0  0  0  0  0  0
  138.7258   71.4788  221.6932 H   0  0  0  0  0  0  0  0  0  0  0  0
  138.1580   69.2108  222.6266 H   0  0  0  0  0  0  0  0  0  0  0  0
  139.8449   69.3736  222.1092 H   0  0  0  0  0  0  0  0  0  0  0  0
  138.7169   67.5062  224.1541 H   0  0  0  0  0  0  0  0  0  0  0  0
  139.3583   66.8535  226.4514 H   0  0  0  0  0  0  0  0  0  0  0  0
  140.5904   68.5470  227.8477 H   0  0  0  0  0  0  0  0  0  0  0  0
  141.1179   70.7694  226.8989 H   0  0  0  0  0  0  0  0  0  0  0  0
  140.1346   72.4868  225.1827 H   0  0  0  0  0  0  0  0  0  0  0  0
  141.6696   71.8193  224.4909 H   0  0  0  0  0  0  0  0  0  0  0  0
  143.9402   70.8291  220.4738 H   0  0  0  0  0  0  0  0  0  0  0  0
  142.6455   71.3367  219.2623 H   0  0  0  0  0  0  0  0  0  0  0  0
  145.0876   70.2327  218.7790 H   0  0  0  0  0  0  0  0  0  0  0  0
  143.8595   71.1172  217.6514 H   0  0  0  0  0  0  0  0  0  0  0  0
  1  2  1  0
  2  3  2  0
  2  4  1  0
  4  5  1  0
  5  6  1  0
  6  7  1  0
  7  8  1  0
  8  9  1  0
  9 10  2  0
 10 11  1  0
 11 12  1  0
 12 13  1  0
 13 14  1  0
 14 15  1  0
 15 16  2  0
 16 17  1  0
 17 18  2  0
 18 19  1  0
 19 20  2  0
 20 21  1  0
 11 22  2  0
 22 23  1  0
 23 24  1  0
 24 25  1  0
 25 26  1  0
 26 27  1  0
 27 28  2  0
 28 29  1  0
 29 30  2  0
 30 31  1  0
 31 32  2  0
 32 33  1  0
 23 34  2  0
  8 35  1  0
 35 36  1  0
 36  5  1  0
 34  9  1  0
 21 12  1  0
 33 24  1  0
 20 15  1  0
 32 27  1  0
  1 37  1  0
  1 38  1  0
  4 39  1  0
  4 40  1  0
  6 41  1  0
  6 42  1  0
  7 43  1  0
  7 44  1  0
  8 45  1  0
 10 46  1  0
 13 47  1  0
 13 48  1  0
 14 49  1  0
 14 50  1  0
 16 51  1  0
 17 52  1  0
 18 53  1  0
 19 54  1  0
 21 55  1  0
 21 56  1  0
 25 57  1  0
 25 58  1  0
 26 59  1  0
 26 60  1  0
 28 61  1  0
 29 62  1  0
 30 63  1  0
 31 64  1  0
 33 65  1  0
 33 66  1  0
 35 67  1  0
 35 68  1  0
 36 69  1  0
 36 70  1  0
M  END
>  <smiles>  (6) 
NC(=O)CN1CCC(c2cc(N3CCc4ccccc4C3)nc(N3CCc4ccccc4C3)n2)CC1

>  <score_type>  (6) 
oracle

>  <origin>  (6) 
autodockgpu

>  <m_score__min__energy>  (6) 
-11.01

>  <m_primary>  (6) 
energy

>  <rmsd>  (6) 
3.9989210756835414

>  <m_score__min__rmsd>  (6) 
3.9989210756835414

>  <meeko>  (6) 
{"free_energy": -10.5, "intermolecular_energy": -12.0, "internal_energy": -1.25, "cluster_size": 12, "cluster_id": 2, "rank_in_cluster": 2}

>  <energy>  (6) 
-10.44

>  <cluster_rmsd>  (6) 
1.51

>  <cluster>  (6) 
1

$$$$

     RDKit          3D

 70 75  0  0  0  0  0  0  0  0999 V2000
  143.1930   79.2600  222.5220 N   0  0  0  0  0  0  0  0  0  0  0  0
  141.9250   79.5250  223.1230 C   0  0  0  0  0  0  0  0  0  0  0  0
  141.8080   79.2840  224.3350 O   0  0  0  0  0  0  0  0  0  0  0  0
  140.8650   80.0640  222.2480 C   0  0  0  0  0  0  0  0  0  0  0  0
  139.9810   79.0440  221.7370 N   0  0  0  0  0  0  0  0  0  0  0  0
  140.5960   78.4910  220.5720 C   0  0  0  0  0  0  0  0  0  0  0  0
  141.2300   77.1610  220.9280 C   0  0  0  0  0  0  0  0  0  0  0  0
  140.0430   76.2450  221.1710 C   0  0  0  0  0  0  0  0  0  0  0  0
  140.3940   74.8170  221.1840 C   0  0  0  0  0  0  0  0  0  0  0  0
  141.1390   74.2340  220.1540 C   0  0  0  0  0  0  0  0  0  0  0  0
  141.4740   72.9040  220.1510 C   0  0  0  0  0  0  0  0  0  0  0  0
  142.2240   72.2640  219.1350 N   0  0  0  0  0  0  0  0  0  0  0  0
  143.2120   72.9170  218.3080 C   0  0  0  0  0  0  0  0  0  0  0  0
  144.5950   72.3350  218.5220 C   0  0  0  0  0  0  0  0  0  0  0  0
  144.5280   70.8980  218.8790 C   0  0  0  0  0  0  0  0  0  0  0  0
  145.7190   70.2250  219.0460 C   0  0  0  0  0  0  0  0  0  0  0  0
  145.7840   68.8840  219.3790 C   0  0  0  0  0  0  0  0  0  0  0  0
  144.6050   68.2020  219.5470 C   0  0  0  0  0  0  0  0  0  0  0  0
  143.4010   68.8640  219.3810 C   0  0  0  0  0  0  0  0  0  0  0  0
  143.3490   70.2060  219.0480 C   0  0  0  0  0  0  0  0  0  0  0  0
  142.0050   70.8470  218.8880 C   0  0  0  0  0  0  0  0  0  0  0  0
  141.0380   72.1770  221.2150 N   0  0  0  0  0  0  0  0  0  0  0  0
  140.3220   72.6990  222.2230 C   0  0  0  0  0  0  0  0  0  0  0  0
  139.8960   71.8850  223.3080 N   0  0  0  0  0  0  0  0  0  0  0  0
  138.6900   71.1060  223.2580 C   0  0  0  0  0  0  0  0  0  0  0  0
  138.9460   69.6300  223.4740 C   0  0  0  0  0  0  0  0  0  0  0  0
  139.7040   69.5270  224.7550 C   0  0  0  0  0  0  0  0  0  0  0  0
  139.5930   68.3770  225.4840 C   0  0  0  0  0  0  0  0  0  0  0  0
  140.2390   68.1530  226.6800 C   0  0  0  0  0  0  0  0  0  0  0  0
  141.0460   69.1790  227.1490 C   0  0  0  0  0  0  0  0  0  0  0  0
  141.1670   70.3540  226.4160 C   0  0  0  0  0  0  0  0  0  0  0  0
  140.5080   70.5410  225.2270 C   0  0  0  0  0  0  0  0  0  0  0  0
  140.6960   71.8280  224.5110 C   0  0  0  0  0  0  0  0  0  0  0  0
  140.0090   74.0150  222.1930 N   0  0  0  0  0  0  0  0  0  0  0  0
  139.3990   76.7190  222.4460 C   0  0  0  0  0  0  0  0  0  0  0  0
  139.5020   78.1640  222.7130 C   0  0  0  0  0  0  0  0  0  0  0  0
  143.4880   78.2760  222.3080 H   0  0  0  0  0  0  0  0  0  0  0  0
  143.8580   80.0460  222.2810 H   0  0  0  0  0  0  0  0  0  0  0  0
  140.2693   80.7873  222.8242 H   0  0  0  0  0  0  0  0  0  0  0  0
  141.3590   80.5333  221.3844 H   0  0  0  0  0  0  0  0  0  0  0  0
  139.8360   78.3393  219.7914 H   0  0  0  0  0  0  0  0  0  0  0  0
  141.3674   79.1804  220.1983 H   0  0  0  0  0  0  0  0  0  0  0  0
  141.8491   76.7880  220.0988 H   0  0  0  0  0  0  0  0  0  0  0  0
  141.8991   77.2290  221.7985 H   0  0  0  0  0  0  0  0  0  0  0  0
  139.3313   76.3087  220.3347 H   0  0  0  0  0  0  0  0  0  0  0  0
  141.4684   74.8653  219.3155 H   0  0  0  0  0  0  0  0  0  0  0  0
  142.9320   72.7916  217.2517 H   0  0  0  0  0  0  0  0  0  0  0  0
  143.2413   73.9813  218.5842 H   0  0  0  0  0  0  0  0  0  0  0  0
  145.1776   72.4468  217.5957 H   0  0  0  0  0  0  0  0  0  0  0  0
  145.0734   72.8758  219.3518 H   0  0  0  0  0  0  0  0  0  0  0  0
  146.6595   70.7787  218.9084 H   0  0  0  0  0  0  0  0  0  0  0  0
  146.7529   68.3788  219.5055 H   0  0  0  0  0  0  0  0  0  0  0  0
  144.6169   67.1345  219.8123 H   0  0  0  0  0  0  0  0  0  0  0  0
  142.4611   68.3090  219.5173 H   0  0  0  0  0  0  0  0  0  0  0  0
  141.6211   70.6882  217.8695 H   0  0  0  0  0  0  0  0  0  0  0  0
  141.2622   70.4203  219.5781 H   0  0  0  0  0  0  0  0  0  0  0  0
  138.0057   71.4640  224.0413 H   0  0  0  0  0  0  0  0  0  0  0  0
  138.2543   71.2272  222.2553 H   0  0  0  0  0  0  0  0  0  0  0  0
  137.9940   69.0839  223.5483 H   0  0  0  0  0  0  0  0  0  0  0  0
  139.5089   69.1920  222.6365 H   0  0  0  0  0  0  0  0  0  0  0  0
  138.9464   67.5787  225.0908 H   0  0  0  0  0  0  0  0  0  0  0  0
  140.1210   67.2100  227.2339 H   0  0  0  0  0  0  0  0  0  0  0  0
  141.5889   69.0632  228.0986 H   0  0  0  0  0  0  0  0  0  0  0  0
  141.8108   71.1586  226.8010 H   0  0  0  0  0  0  0  0  0  0  0  0
  140.4017   72.6535  225.1758 H   0  0  0  0  0  0  0  0  0  0  0  0
  141.7551   71.9140  224.2265 H   0  0  0  0  0  0  0  0  0  0  0  0
  138.3312   76.4582  222.4029 H   0  0  0  0  0  0  0  0  0  0  0  0
  139.9459   76.2230  223.2614 H   0  0  0  0  0  0  0  0  0  0  0  0
  138.4899   78.5069  222.9738 H   0  0  0  0  0  0  0  0  0  0  0  0
  140.2825   78.2123  223.4867 H   0  0  0  0  0  0  0  0  0  0  0  0
  1  2  1  0
  2  3  2  0
  2  4  1  0
  4  5  1  0
  5  6  1  0
  6  7  1  0
  7  8  1  0
  8  9  1  0
  9 10  2  0
 10 11  1  0
 11 12  1  0
 12 13  1  0
 13 14  1  0
 14 15  1  0
 15 16  2  0
 16 17  1  0
 17 18  2  0
 18 19  1  0
 19 20  2  0
 20 21  1  0
 11 22  2  0
 22 23  1  0
 23 24  1  0
 24 25  1  0
 25 26  1  0
 26 27  1  0
 27 28  2  0
 28 29  1  0
 29 30  2  0
 30 31  1  0
 31 32  2  0
 32 33  1  0
 23 34  2  0
  8 35  1  0
 35 36  1  0
 36  5  1  0
 34  9  1  0
 21 12  1  0
 33 24  1  0
 20 15  1  0
 32 27  1  0
  1 37  1  0
  1 38  1  0
  4 39  1  0
  4 40  1  0
  6 41  1  0
  6 42  1  0
  7 43  1  0
  7 44  1  0
  8 45  1  0
 10 46  1  0
 13 47  1  0
 13 48  1  0
 14 49  1  0
 14 50  1  0
 16 51  1  0
 17 52  1  0
 18 53  1  0
 19 54  1  0
 21 55  1  0
 21 56  1  0
 25 57  1  0
 25 58  1  0
 26 59  1  0
 26 60  1  0
 28 61  1  0
 29 62  1  0
 30 63  1  0
 31 64  1  0
 33 65  1  0
 33 66  1  0
 35 67  1  0
 35 68  1  0
 36 69  1  0
 36 70  1  0
M  END
>  <smiles>  (7) 
NC(=O)CN1CCC(c2cc(N3CCc4ccccc4C3)nc(N3CCc4ccccc4C3)n2)CC1

>  <score_type>  (7) 
oracle

>  <origin>  (7) 
autodockgpu

>  <m_score__min__energy>  (7) 
-11.01

>  <m_primary>  (7) 
energy

>  <rmsd>  (7) 
9.860848509376106

>  <m_score__min__rmsd>  (7) 
9.860848509376106

>  <meeko>  (7) 
{"free_energy": -9.63, "intermolecular_energy": -11.12, "internal_energy": -1.48, "cluster_size": 12, "cluster_id": 3, "rank_in_cluster": 11}

>  <energy>  (7) 
-10.44

>  <cluster_rmsd>  (7) 
1.01

>  <cluster>  (7) 
1

$$$$

     RDKit          3D

 70 75  0  0  0  0  0  0  0  0999 V2000
  144.5870   74.9610  216.8250 N   0  0  0  0  0  0  0  0  0  0  0  0
  144.9930   73.7040  216.2820 C   0  0  0  0  0  0  0  0  0  0  0  0
  144.4380   73.3290  215.2370 O   0  0  0  0  0  0  0  0  0  0  0  0
  146.0400   72.9610  217.0120 C   0  0  0  0  0  0  0  0  0  0  0  0
  145.5310   72.2490  218.1600 N   0  0  0  0  0  0  0  0  0  0  0  0
  145.7320   73.0830  219.3020 C   0  0  0  0  0  0  0  0  0  0  0  0
  144.4210   73.7490  219.6690 C   0  0  0  0  0  0  0  0  0  0  0  0
  143.5720   72.6100  220.2070 C   0  0  0  0  0  0  0  0  0  0  0  0
  142.3880   73.0590  220.9540 C   0  0  0  0  0  0  0  0  0  0  0  0
  141.8450   74.3350  220.7720 C   0  0  0  0  0  0  0  0  0  0  0  0
  140.7410   74.7690  221.4610 C   0  0  0  0  0  0  0  0  0  0  0  0
  140.1530   76.0490  221.3160 N   0  0  0  0  0  0  0  0  0  0  0  0
  138.7780   76.3610  221.6300 C   0  0  0  0  0  0  0  0  0  0  0  0
  138.6760   77.3720  222.7540 C   0  0  0  0  0  0  0  0  0  0  0  0
  139.8320   78.3000  222.7540 C   0  0  0  0  0  0  0  0  0  0  0  0
  139.8400   79.3110  223.6910 C   0  0  0  0  0  0  0  0  0  0  0  0
  140.8630   80.2370  223.7890 C   0  0  0  0  0  0  0  0  0  0  0  0
  141.9120   80.1370  222.9090 C   0  0  0  0  0  0  0  0  0  0  0  0
  141.9170   79.1280  221.9610 C   0  0  0  0  0  0  0  0  0  0  0  0
  140.8880   78.2070  221.8740 C   0  0  0  0  0  0  0  0  0  0  0  0
  140.9710   77.1450  220.8210 C   0  0  0  0  0  0  0  0  0  0  0  0
  140.1990   73.8830  222.3380 N   0  0  0  0  0  0  0  0  0  0  0  0
  140.6890   72.6500  222.5410 C   0  0  0  0  0  0  0  0  0  0  0  0
  140.0760   71.7680  223.4730 N   0  0  0  0  0  0  0  0  0  0  0  0
  138.8720   71.0470  223.1690 C   0  0  0  0  0  0  0  0  0  0  0  0
  139.0490   69.5480  223.2930 C   0  0  0  0  0  0  0  0  0  0  0  0
  139.5940   69.3090  224.6610 C   0  0  0  0  0  0  0  0  0  0  0  0
  139.3380   68.1090  225.2610 C   0  0  0  0  0  0  0  0  0  0  0  0
  139.7810   67.7620  226.5190 C   0  0  0  0  0  0  0  0  0  0  0  0
  140.5330   68.7120  227.1940 C   0  0  0  0  0  0  0  0  0  0  0  0
  140.8000   69.9360  226.5940 C   0  0  0  0  0  0  0  0  0  0  0  0
  140.3420   70.2480  225.3390 C   0  0  0  0  0  0  0  0  0  0  0  0
  140.6750   71.5800  224.7750 C   0  0  0  0  0  0  0  0  0  0  0  0
  141.7800   72.2540  221.8440 N   0  0  0  0  0  0  0  0  0  0  0  0
  143.2450   71.7350  219.0260 C   0  0  0  0  0  0  0  0  0  0  0  0
  144.2660   71.6860  217.9660 C   0  0  0  0  0  0  0  0  0  0  0  0
  143.6740   75.0540  217.3320 H   0  0  0  0  0  0  0  0  0  0  0  0
  145.1970   75.8200  216.7280 H   0  0  0  0  0  0  0  0  0  0  0  0
  146.4984   72.2350  216.3244 H   0  0  0  0  0  0  0  0  0  0  0  0
  146.7702   73.6973  217.3791 H   0  0  0  0  0  0  0  0  0  0  0  0
  146.0835   72.4721  220.1465 H   0  0  0  0  0  0  0  0  0  0  0  0
  146.4850   73.8509  219.0711 H   0  0  0  0  0  0  0  0  0  0  0  0
  144.5753   74.5197  220.4386 H   0  0  0  0  0  0  0  0  0  0  0  0
  143.9521   74.2622  218.8165 H   0  0  0  0  0  0  0  0  0  0  0  0
  144.1294   72.0400  220.9649 H   0  0  0  0  0  0  0  0  0  0  0  0
  142.3205   75.0153  220.0501 H   0  0  0  0  0  0  0  0  0  0  0  0
  138.2924   76.7741  220.7336 H   0  0  0  0  0  0  0  0  0  0  0  0
  138.2816   75.4348  221.9554 H   0  0  0  0  0  0  0  0  0  0  0  0
  137.7505   77.9533  222.6295 H   0  0  0  0  0  0  0  0  0  0  0  0
  138.6695   76.8274  223.7097 H   0  0  0  0  0  0  0  0  0  0  0  0
  138.9954   79.3847  224.3919 H   0  0  0  0  0  0  0  0  0  0  0  0
  140.8367   81.0307  224.5502 H   0  0  0  0  0  0  0  0  0  0  0  0
  142.7442   80.8548  222.9569 H   0  0  0  0  0  0  0  0  0  0  0  0
  142.7608   79.0566  221.2589 H   0  0  0  0  0  0  0  0  0  0  0  0
  140.5764   77.5189  219.8647 H   0  0  0  0  0  0  0  0  0  0  0  0
  142.0089   76.8311  220.6361 H   0  0  0  0  0  0  0  0  0  0  0  0
  138.0828   71.3681  223.8648 H   0  0  0  0  0  0  0  0  0  0  0  0
  138.6038   71.2676  222.1252 H   0  0  0  0  0  0  0  0  0  0  0  0
  138.0819   69.0379  223.1726 H   0  0  0  0  0  0  0  0  0  0  0  0
  139.7235   69.1568  222.5171 H   0  0  0  0  0  0  0  0  0  0  0  0
  138.7399   67.3724  224.7045 H   0  0  0  0  0  0  0  0  0  0  0  0
  139.5503   66.7830  226.9644 H   0  0  0  0  0  0  0  0  0  0  0  0
  140.9170   68.4967  228.2020 H   0  0  0  0  0  0  0  0  0  0  0  0
  141.3977   70.6788  227.1426 H   0  0  0  0  0  0  0  0  0  0  0  0
  140.3028   72.3598  225.4558 H   0  0  0  0  0  0  0  0  0  0  0  0
  141.7676   71.6453  224.6653 H   0  0  0  0  0  0  0  0  0  0  0  0
  143.0927   70.7105  219.3963 H   0  0  0  0  0  0  0  0  0  0  0  0
  142.3518   72.1788  218.5620 H   0  0  0  0  0  0  0  0  0  0  0  0
  144.4285   70.6225  217.7368 H   0  0  0  0  0  0  0  0  0  0  0  0
  143.8333   72.3256  217.1826 H   0  0  0  0  0  0  0  0  0  0  0  0
  1  2  1  0
  2  3  2  0
  2  4  1  0
  4  5  1  0
  5  6  1  0
  6  7  1  0
  7  8  1  0
  8  9  1  0
  9 10  2  0
 10 11  1  0
 11 12  1  0
 12 13  1  0
 13 14  1  0
 14 15  1  0
 15 16  2  0
 16 17  1  0
 17 18  2  0
 18 19  1  0
 19 20  2  0
 20 21  1  0
 11 22  2  0
 22 23  1  0
 23 24  1  0
 24 25  1  0
 25 26  1  0
 26 27  1  0
 27 28  2  0
 28 29  1  0
 29 30  2  0
 30 31  1  0
 31 32  2  0
 32 33  1  0
 23 34  2  0
  8 35  1  0
 35 36  1  0
 36  5  1  0
 34  9  1  0
 21 12  1  0
 33 24  1  0
 20 15  1  0
 32 27  1  0
  1 37  1  0
  1 38  1  0
  4 39  1  0
  4 40  1  0
  6 41  1  0
  6 42  1  0
  7 43  1  0
  7 44  1  0
  8 45  1  0
 10 46  1  0
 13 47  1  0
 13 48  1  0
 14 49  1  0
 14 50  1  0
 16 51  1  0
 17 52  1  0
 18 53  1  0
 19 54  1  0
 21 55  1  0
 21 56  1  0
 25 57  1  0
 25 58  1  0
 26 59  1  0
 26 60  1  0
 28 61  1  0
 29 62  1  0
 30 63  1  0
 31 64  1  0
 33 65  1  0
 33 66  1  0
 35 67  1  0
 35 68  1  0
 36 69  1  0
 36 70  1  0
M  END
>  <smiles>  (8) 
NC(=O)CN1CCC(c2cc(N3CCc4ccccc4C3)nc(N3CCc4ccccc4C3)n2)CC1

>  <score_type>  (8) 
oracle

>  <origin>  (8) 
autodockgpu

>  <m_score__min__energy>  (8) 
-11.01

>  <m_primary>  (8) 
energy

>  <rmsd>  (8) 
4.1470941887944415

>  <m_score__min__rmsd>  (8) 
4.1470941887944415

>  <meeko>  (8) 
{"free_energy": -10.29, "intermolecular_energy": -11.78, "internal_energy": -1.44, "cluster_size": 12, "cluster_id": 2, "rank_in_cluster": 11}

>  <energy>  (8) 
-10.42

>  <cluster_rmsd>  (8) 
1.12

>  <cluster>  (8) 
1

$$$$

     RDKit          3D

 70 75  0  0  0  0  0  0  0  0999 V2000
  145.9410   67.9630  218.0890 N   0  0  0  0  0  0  0  0  0  0  0  0
  145.9850   68.6420  219.3440 C   0  0  0  0  0  0  0  0  0  0  0  0
  145.5850   68.0220  220.3420 O   0  0  0  0  0  0  0  0  0  0  0  0
  146.5040   70.0250  219.3440 C   0  0  0  0  0  0  0  0  0  0  0  0
  145.5370   70.9910  218.8820 N   0  0  0  0  0  0  0  0  0  0  0  0
  144.2560   70.3590  218.9070 C   0  0  0  0  0  0  0  0  0  0  0  0
  143.4970   70.8210  220.1350 C   0  0  0  0  0  0  0  0  0  0  0  0
  143.1690   72.2730  219.8350 C   0  0  0  0  0  0  0  0  0  0  0  0
  142.1340   72.8370  220.7140 C   0  0  0  0  0  0  0  0  0  0  0  0
  141.6800   74.1520  220.5640 C   0  0  0  0  0  0  0  0  0  0  0  0
  140.7160   74.6930  221.3770 C   0  0  0  0  0  0  0  0  0  0  0  0
  140.2220   76.0160  221.2700 N   0  0  0  0  0  0  0  0  0  0  0  0
  138.8750   76.4180  221.6010 C   0  0  0  0  0  0  0  0  0  0  0  0
  138.8510   77.4040  222.7520 C   0  0  0  0  0  0  0  0  0  0  0  0
  140.0720   78.2440  222.7690 C   0  0  0  0  0  0  0  0  0  0  0  0
  140.1580   79.2270  223.7320 C   0  0  0  0  0  0  0  0  0  0  0  0
  141.2460   80.0730  223.8480 C   0  0  0  0  0  0  0  0  0  0  0  0
  142.2810   79.9210  222.9590 C   0  0  0  0  0  0  0  0  0  0  0  0
  142.2090   78.9390  221.9850 C   0  0  0  0  0  0  0  0  0  0  0  0
  141.1150   78.0990  221.8790 C   0  0  0  0  0  0  0  0  0  0  0  0
  141.1150   77.0620  220.7990 C   0  0  0  0  0  0  0  0  0  0  0  0
  140.2220   73.8740  222.3440 N   0  0  0  0  0  0  0  0  0  0  0  0
  140.6310   72.6080  222.5190 C   0  0  0  0  0  0  0  0  0  0  0  0
  140.0750   71.8010  223.5500 N   0  0  0  0  0  0  0  0  0  0  0  0
  138.9200   70.9730  223.3380 C   0  0  0  0  0  0  0  0  0  0  0  0
  139.1940   69.5140  223.6310 C   0  0  0  0  0  0  0  0  0  0  0  0
  139.7510   69.4690  225.0140 C   0  0  0  0  0  0  0  0  0  0  0  0
  139.5720   68.3310  225.7490 C   0  0  0  0  0  0  0  0  0  0  0  0
  140.0360   68.1590  227.0360 C   0  0  0  0  0  0  0  0  0  0  0  0
  140.7240   69.2270  227.5930 C   0  0  0  0  0  0  0  0  0  0  0  0
  140.9120   70.3890  226.8550 C   0  0  0  0  0  0  0  0  0  0  0  0
  140.4360   70.5240  225.5760 C   0  0  0  0  0  0  0  0  0  0  0  0
  140.6830   71.8020  224.8610 C   0  0  0  0  0  0  0  0  0  0  0  0
  141.5840   72.1060  221.7000 N   0  0  0  0  0  0  0  0  0  0  0  0
  144.4750   73.0190  219.8850 C   0  0  0  0  0  0  0  0  0  0  0  0
  145.6630   72.2520  219.4740 C   0  0  0  0  0  0  0  0  0  0  0  0
  145.0310   67.8310  217.5850 H   0  0  0  0  0  0  0  0  0  0  0  0
  146.8210   67.5810  217.6440 H   0  0  0  0  0  0  0  0  0  0  0  0
  146.7994   70.2883  220.3703 H   0  0  0  0  0  0  0  0  0  0  0  0
  147.3568   70.0559  218.6499 H   0  0  0  0  0  0  0  0  0  0  0  0
  143.6932   70.6320  218.0022 H   0  0  0  0  0  0  0  0  0  0  0  0
  144.3830   69.2668  218.9398 H   0  0  0  0  0  0  0  0  0  0  0  0
  142.5780   70.2322  220.2719 H   0  0  0  0  0  0  0  0  0  0  0  0
  144.0754   70.6991  221.0627 H   0  0  0  0  0  0  0  0  0  0  0  0
  142.7121   72.3655  218.8386 H   0  0  0  0  0  0  0  0  0  0  0  0
  142.1112   74.7742  219.7659 H   0  0  0  0  0  0  0  0  0  0  0  0
  138.4165   76.8887  220.7188 H   0  0  0  0  0  0  0  0  0  0  0  0
  138.3147   75.5217  221.9056 H   0  0  0  0  0  0  0  0  0  0  0  0
  137.9702   78.0547  222.6478 H   0  0  0  0  0  0  0  0  0  0  0  0
  138.8075   76.8367  223.6934 H   0  0  0  0  0  0  0  0  0  0  0  0
  139.3240   79.3436  224.4397 H   0  0  0  0  0  0  0  0  0  0  0  0
  141.2810   80.8456  224.6303 H   0  0  0  0  0  0  0  0  0  0  0  0
  143.1629   80.5757  223.0199 H   0  0  0  0  0  0  0  0  0  0  0  0
  143.0433   78.8240  221.2774 H   0  0  0  0  0  0  0  0  0  0  0  0
  140.7443   77.4888  219.8553 H   0  0  0  0  0  0  0  0  0  0  0  0
  142.1264   76.6781  220.5997 H   0  0  0  0  0  0  0  0  0  0  0  0
  138.1109   71.3198  223.9977 H   0  0  0  0  0  0  0  0  0  0  0  0
  138.6389   71.0549  222.2777 H   0  0  0  0  0  0  0  0  0  0  0  0
  138.2625   68.9316  223.5752 H   0  0  0  0  0  0  0  0  0  0  0  0
  139.8938   69.0813  222.9009 H   0  0  0  0  0  0  0  0  0  0  0  0
  139.0227   67.4990  225.2842 H   0  0  0  0  0  0  0  0  0  0  0  0
  139.8694   67.2244  227.5916 H   0  0  0  0  0  0  0  0  0  0  0  0
  141.1198   69.1541  228.6167 H   0  0  0  0  0  0  0  0  0  0  0  0
  141.4598   71.2269  227.3108 H   0  0  0  0  0  0  0  0  0  0  0  0
  140.2603   72.6289  225.4505 H   0  0  0  0  0  0  0  0  0  0  0  0
  141.7692   71.9244  224.7378 H   0  0  0  0  0  0  0  0  0  0  0  0
  144.3908   73.8931  219.2225 H   0  0  0  0  0  0  0  0  0  0  0  0
  144.6342   73.2757  220.9427 H   0  0  0  0  0  0  0  0  0  0  0  0
  146.2086   72.8816  218.7557 H   0  0  0  0  0  0  0  0  0  0  0  0
  146.1461   72.0210  220.4349 H   0  0  0  0  0  0  0  0  0  0  0  0
  1  2  1  0
  2  3  2  0
  2  4  1  0
  4  5  1  0
  5  6  1  0
  6  7  1  0
  7  8  1  0
  8  9  1  0
  9 10  2  0
 10 11  1  0
 11 12  1  0
 12 13  1  0
 13 14  1  0
 14 15  1  0
 15 16  2  0
 16 17  1  0
 17 18  2  0
 18 19  1  0
 19 20  2  0
 20 21  1  0
 11 22  2  0
 22 23  1  0
 23 24  1  0
 24 25  1  0
 25 26  1  0
 26 27  1  0
 27 28  2  0
 28 29  1  0
 29 30  2  0
 30 31  1  0
 31 32  2  0
 32 33  1  0
 23 34  2  0
  8 35  1  0
 35 36  1  0
 36  5  1  0
 34  9  1  0
 21 12  1  0
 33 24  1  0
 20 15  1  0
 32 27  1  0
  1 37  1  0
  1 38  1  0
  4 39  1  0
  4 40  1  0
  6 41  1  0
  6 42  1  0
  7 43  1  0
  7 44  1  0
  8 45  1  0
 10 46  1  0
 13 47  1  0
 13 48  1  0
 14 49  1  0
 14 50  1  0
 16 51  1  0
 17 52  1  0
 18 53  1  0
 19 54  1  0
 21 55  1  0
 21 56  1  0
 25 57  1  0
 25 58  1  0
 26 59  1  0
 26 60  1  0
 28 61  1  0
 29 62  1  0
 30 63  1  0
 31 64  1  0
 33 65  1  0
 33 66  1  0
 35 67  1  0
 35 68  1  0
 36 69  1  0
 36 70  1  0
M  END
>  <smiles>  (9) 
NC(=O)CN1CCC(c2cc(N3CCc4ccccc4C3)nc(N3CCc4ccccc4C3)n2)CC1

>  <score_type>  (9) 
oracle

>  <origin>  (9) 
autodockgpu

>  <m_score__min__energy>  (9) 
-11.01

>  <m_primary>  (9) 
energy

>  <rmsd>  (9) 
4.28449102887062

>  <m_score__min__rmsd>  (9) 
4.28449102887062

>  <meeko>  (9) 
{"free_energy": -10.94, "intermolecular_energy": -12.44, "internal_energy": -1.38, "cluster_size": 26, "cluster_id": 1, "rank_in_cluster": 2}

>  <energy>  (9) 
-10.38

>  <cluster_rmsd>  (9) 
0.95

>  <cluster>  (9) 
1

$$$$

     RDKit          3D

 70 75  0  0  0  0  0  0  0  0999 V2000
  143.8140   69.3000  219.2280 N   0  0  0  0  0  0  0  0  0  0  0  0
  145.2320   69.3930  219.0780 C   0  0  0  0  0  0  0  0  0  0  0  0
  145.9280   68.6080  219.7410 O   0  0  0  0  0  0  0  0  0  0  0  0
  145.7440   70.4170  218.1450 C   0  0  0  0  0  0  0  0  0  0  0  0
  145.5610   71.7650  218.6290 N   0  0  0  0  0  0  0  0  0  0  0  0
  144.4400   72.3180  217.9380 C   0  0  0  0  0  0  0  0  0  0  0  0
  143.2280   72.2830  218.8470 C   0  0  0  0  0  0  0  0  0  0  0  0
  143.5380   73.3240  219.9080 C   0  0  0  0  0  0  0  0  0  0  0  0
  142.3660   73.7270  220.6990 C   0  0  0  0  0  0  0  0  0  0  0  0
  141.8520   75.0260  220.6390 C   0  0  0  0  0  0  0  0  0  0  0  0
  140.7600   75.4180  221.3710 C   0  0  0  0  0  0  0  0  0  0  0  0
  140.1990   76.7180  221.3490 N   0  0  0  0  0  0  0  0  0  0  0  0
  138.8900   77.0570  221.8570 C   0  0  0  0  0  0  0  0  0  0  0  0
  138.9740   78.0290  223.0170 C   0  0  0  0  0  0  0  0  0  0  0  0
  140.1490   78.9230  222.8890 C   0  0  0  0  0  0  0  0  0  0  0  0
  140.3170   79.8990  223.8490 C   0  0  0  0  0  0  0  0  0  0  0  0
  141.3740   80.7920  223.8360 C   0  0  0  0  0  0  0  0  0  0  0  0
  142.2900   80.6950  222.8190 C   0  0  0  0  0  0  0  0  0  0  0  0
  142.1340   79.7210  221.8480 C   0  0  0  0  0  0  0  0  0  0  0  0
  141.0730   78.8330  221.8710 C   0  0  0  0  0  0  0  0  0  0  0  0
  140.9780   77.8080  220.7830 C   0  0  0  0  0  0  0  0  0  0  0  0
  140.2000   74.4660  222.1640 N   0  0  0  0  0  0  0  0  0  0  0  0
  140.6630   73.2090  222.2480 C   0  0  0  0  0  0  0  0  0  0  0  0
  140.0320   72.2570  223.0960 N   0  0  0  0  0  0  0  0  0  0  0  0
  138.7710   71.6540  222.7690 C   0  0  0  0  0  0  0  0  0  0  0  0
  138.8530   70.1440  222.7010 C   0  0  0  0  0  0  0  0  0  0  0  0
  139.4380   69.7040  224.0010 C   0  0  0  0  0  0  0  0  0  0  0  0
  139.1280   68.4570  224.4630 C   0  0  0  0  0  0  0  0  0  0  0  0
  139.6010   67.9290  225.6450 C   0  0  0  0  0  0  0  0  0  0  0  0
  140.4430   68.7410  226.3910 C   0  0  0  0  0  0  0  0  0  0  0  0
  140.7660   70.0110  225.9310 C   0  0  0  0  0  0  0  0  0  0  0  0
  140.2760   70.5030  224.7480 C   0  0  0  0  0  0  0  0  0  0  0  0
  140.6740   71.8730  224.3340 C   0  0  0  0  0  0  0  0  0  0  0  0
  141.7430   72.8570  221.5120 N   0  0  0  0  0  0  0  0  0  0  0  0
  144.6600   72.7590  220.7370 C   0  0  0  0  0  0  0  0  0  0  0  0
  145.6010   71.8800  220.0220 C   0  0  0  0  0  0  0  0  0  0  0  0
  143.3420   69.6770  220.0850 H   0  0  0  0  0  0  0  0  0  0  0  0
  143.2150   68.8510  218.4820 H   0  0  0  0  0  0  0  0  0  0  0  0
  146.8191   70.2434  217.9900 H   0  0  0  0  0  0  0  0  0  0  0  0
  145.1732   70.3236  217.2094 H   0  0  0  0  0  0  0  0  0  0  0  0
  144.6584   73.3585  217.6558 H   0  0  0  0  0  0  0  0  0  0  0  0
  144.2385   71.7302  217.0303 H   0  0  0  0  0  0  0  0  0  0  0  0
  142.3154   72.5483  218.2931 H   0  0  0  0  0  0  0  0  0  0  0  0
  143.0449   71.2851  219.2721 H   0  0  0  0  0  0  0  0  0  0  0  0
  143.8456   74.2702  219.4390 H   0  0  0  0  0  0  0  0  0  0  0  0
  142.3408   75.7599  219.9813 H   0  0  0  0  0  0  0  0  0  0  0  0
  138.3018   77.5162  221.0488 H   0  0  0  0  0  0  0  0  0  0  0  0
  138.4118   76.1340  222.2166 H   0  0  0  0  0  0  0  0  0  0  0  0
  138.0598   78.6403  223.0387 H   0  0  0  0  0  0  0  0  0  0  0  0
  139.0787   77.4505  223.9467 H   0  0  0  0  0  0  0  0  0  0  0  0
  139.5782   79.9707  224.6608 H   0  0  0  0  0  0  0  0  0  0  0  0
  141.4770   81.5579  224.6188 H   0  0  0  0  0  0  0  0  0  0  0  0
  143.1436   81.3875  222.7756 H   0  0  0  0  0  0  0  0  0  0  0  0
  142.8732   79.6510  221.0364 H   0  0  0  0  0  0  0  0  0  0  0  0
  140.4702   78.2274  219.9019 H   0  0  0  0  0  0  0  0  0  0  0  0
  141.9706   77.4719  220.4486 H   0  0  0  0  0  0  0  0  0  0  0  0
  138.0359   71.9335  223.5381 H   0  0  0  0  0  0  0  0  0  0  0  0
  138.4730   72.0185  221.7748 H   0  0  0  0  0  0  0  0  0  0  0  0
  137.8499   69.7125  222.5679 H   0  0  0  0  0  0  0  0  0  0  0  0
  139.4667   69.8121  221.8506 H   0  0  0  0  0  0  0  0  0  0  0  0
  138.4578   67.8339  223.8527 H   0  0  0  0  0  0  0  0  0  0  0  0
  139.3256   66.9178  225.9791 H   0  0  0  0  0  0  0  0  0  0  0  0
  140.8540   68.3795  227.3452 H   0  0  0  0  0  0  0  0  0  0  0  0
  141.4356   70.6419  226.5340 H   0  0  0  0  0  0  0  0  0  0  0  0
  140.3850   72.5834  225.1225 H   0  0  0  0  0  0  0  0  0  0  0  0
  141.7628   71.8852  224.1780 H   0  0  0  0  0  0  0  0  0  0  0  0
  145.2326   73.6022  221.1506 H   0  0  0  0  0  0  0  0  0  0  0  0
  144.1812   72.1285  221.5006 H   0  0  0  0  0  0  0  0  0  0  0  0
  146.6120   72.2295  220.2782 H   0  0  0  0  0  0  0  0  0  0  0  0
  145.2978   70.8770  220.3568 H   0  0  0  0  0  0  0  0  0  0  0  0
  1  2  1  0
  2  3  2  0
  2  4  1  0
  4  5  1  0
  5  6  1  0
  6  7  1  0
  7  8  1  0
  8  9  1  0
  9 10  2  0
 10 11  1  0
 11 12  1  0
 12 13  1  0
 13 14  1  0
 14 15  1  0
 15 16  2  0
 16 17  1  0
 17 18  2  0
 18 19  1  0
 19 20  2  0
 20 21  1  0
 11 22  2  0
 22 23  1  0
 23 24  1  0
 24 25  1  0
 25 26  1  0
 26 27  1  0
 27 28  2  0
 28 29  1  0
 29 30  2  0
 30 31  1  0
 31 32  2  0
 32 33  1  0
 23 34  2  0
  8 35  1  0
 35 36  1  0
 36  5  1  0
 34  9  1  0
 21 12  1  0
 33 24  1  0
 20 15  1  0
 32 27  1  0
  1 37  1  0
  1 38  1  0
  4 39  1  0
  4 40  1  0
  6 41  1  0
  6 42  1  0
  7 43  1  0
  7 44  1  0
  8 45  1  0
 10 46  1  0
 13 47  1  0
 13 48  1  0
 14 49  1  0
 14 50  1  0
 16 51  1  0
 17 52  1  0
 18 53  1  0
 19 54  1  0
 21 55  1  0
 21 56  1  0
 25 57  1  0
 25 58  1  0
 26 59  1  0
 26 60  1  0
 28 61  1  0
 29 62  1  0
 30 63  1  0
 31 64  1  0
 33 65  1  0
 33 66  1  0
 35 67  1  0
 35 68  1  0
 36 69  1  0
 36 70  1  0
M  END
>  <smiles>  (10) 
NC(=O)CN1CCC(c2cc(N3CCc4ccccc4C3)nc(N3CCc4ccccc4C3)n2)CC1

>  <score_type>  (10) 
oracle

>  <origin>  (10) 
autodockgpu

>  <m_score__min__energy>  (10) 
-11.01

>  <m_primary>  (10) 
energy

>  <rmsd>  (10) 
3.716313368269353

>  <m_score__min__rmsd>  (10) 
3.716313368269353

>  <meeko>  (10) 
{"free_energy": -10.33, "intermolecular_energy": -11.82, "internal_energy": -1.44, "cluster_size": 26, "cluster_id": 1, "rank_in_cluster": 11}

>  <energy>  (10) 
-10.38

>  <cluster_rmsd>  (10) 
1.09

>  <cluster>  (10) 
1

$$$$

     RDKit          3D

 70 75  0  0  0  0  0  0  0  0999 V2000
  143.8820   69.1540  219.4330 N   0  0  0  0  0  0  0  0  0  0  0  0
  145.3010   69.2520  219.3030 C   0  0  0  0  0  0  0  0  0  0  0  0
  145.9910   68.5260  220.0350 O   0  0  0  0  0  0  0  0  0  0  0  0
  145.8210   70.2100  218.3070 C   0  0  0  0  0  0  0  0  0  0  0  0
  145.5840   71.5860  218.6680 N   0  0  0  0  0  0  0  0  0  0  0  0
  144.4060   72.0110  217.9800 C   0  0  0  0  0  0  0  0  0  0  0  0
  143.2370   72.0020  218.9450 C   0  0  0  0  0  0  0  0  0  0  0  0
  143.5330   73.1570  219.8860 C   0  0  0  0  0  0  0  0  0  0  0  0
  142.3740   73.5740  220.6890 C   0  0  0  0  0  0  0  0  0  0  0  0
  141.8670   74.8760  220.6260 C   0  0  0  0  0  0  0  0  0  0  0  0
  140.7870   75.2810  221.3690 C   0  0  0  0  0  0  0  0  0  0  0  0
  140.2350   76.5850  221.3440 N   0  0  0  0  0  0  0  0  0  0  0  0
  138.9280   76.9330  221.8510 C   0  0  0  0  0  0  0  0  0  0  0  0
  139.0180   77.9080  223.0080 C   0  0  0  0  0  0  0  0  0  0  0  0
  140.1990   78.7940  222.8780 C   0  0  0  0  0  0  0  0  0  0  0  0
  140.3730   79.7720  223.8340 C   0  0  0  0  0  0  0  0  0  0  0  0
  141.4350   80.6580  223.8190 C   0  0  0  0  0  0  0  0  0  0  0  0
  142.3510   80.5520  222.8020 C   0  0  0  0  0  0  0  0  0  0  0  0
  142.1890   79.5760  221.8340 C   0  0  0  0  0  0  0  0  0  0  0  0
  141.1220   78.6950  221.8600 C   0  0  0  0  0  0  0  0  0  0  0  0
  141.0210   77.6680  220.7750 C   0  0  0  0  0  0  0  0  0  0  0  0
  140.2320   74.3390  222.1770 N   0  0  0  0  0  0  0  0  0  0  0  0
  140.6890   73.0800  222.2660 C   0  0  0  0  0  0  0  0  0  0  0  0
  140.0640   72.1400  223.1310 N   0  0  0  0  0  0  0  0  0  0  0  0
  138.8550   71.4530  222.7730 C   0  0  0  0  0  0  0  0  0  0  0  0
  139.0180   69.9480  222.7900 C   0  0  0  0  0  0  0  0  0  0  0  0
  139.5550   69.6070  224.1390 C   0  0  0  0  0  0  0  0  0  0  0  0
  139.2860   68.3700  224.6520 C   0  0  0  0  0  0  0  0  0  0  0  0
  139.7210   67.9290  225.8830 C   0  0  0  0  0  0  0  0  0  0  0  0
  140.4790   68.8230  226.6260 C   0  0  0  0  0  0  0  0  0  0  0  0
  140.7590   70.0840  226.1160 C   0  0  0  0  0  0  0  0  0  0  0  0
  140.3090   70.4880  224.8850 C   0  0  0  0  0  0  0  0  0  0  0  0
  140.6560   71.8540  224.4180 C   0  0  0  0  0  0  0  0  0  0  0  0
  141.7560   72.7140  221.5190 N   0  0  0  0  0  0  0  0  0  0  0  0
  144.7180   72.7330  220.7120 C   0  0  0  0  0  0  0  0  0  0  0  0
  145.6760   71.8390  220.0400 C   0  0  0  0  0  0  0  0  0  0  0  0
  143.3890   69.5890  220.2500 H   0  0  0  0  0  0  0  0  0  0  0  0
  143.3020   68.6440  218.7100 H   0  0  0  0  0  0  0  0  0  0  0  0
  146.9056   70.0563  218.2064 H   0  0  0  0  0  0  0  0  0  0  0  0
  145.2891   70.0224  217.3626 H   0  0  0  0  0  0  0  0  0  0  0  0
  144.5541   73.0290  217.5904 H   0  0  0  0  0  0  0  0  0  0  0  0
  144.1999   71.3287  217.1421 H   0  0  0  0  0  0  0  0  0  0  0  0
  142.2883   72.1641  218.4124 H   0  0  0  0  0  0  0  0  0  0  0  0
  143.1282   71.0423  219.4715 H   0  0  0  0  0  0  0  0  0  0  0  0
  143.7683   74.0675  219.3154 H   0  0  0  0  0  0  0  0  0  0  0  0
  142.3518   75.6017  219.9564 H   0  0  0  0  0  0  0  0  0  0  0  0
  138.3423   77.3932  221.0415 H   0  0  0  0  0  0  0  0  0  0  0  0
  138.4444   76.0139  222.2134 H   0  0  0  0  0  0  0  0  0  0  0  0
  138.1078   78.5254  223.0273 H   0  0  0  0  0  0  0  0  0  0  0  0
  139.1186   77.3315  223.9394 H   0  0  0  0  0  0  0  0  0  0  0  0
  139.6341   79.8513  224.6450 H   0  0  0  0  0  0  0  0  0  0  0  0
  141.5425   81.4255  224.5996 H   0  0  0  0  0  0  0  0  0  0  0  0
  143.2090   81.2389  222.7566 H   0  0  0  0  0  0  0  0  0  0  0  0
  142.9278   79.4986  221.0227 H   0  0  0  0  0  0  0  0  0  0  0  0
  140.5162   78.0881  219.8926 H   0  0  0  0  0  0  0  0  0  0  0  0
  142.0115   77.3247  220.4416 H   0  0  0  0  0  0  0  0  0  0  0  0
  138.0663   71.7307  223.4877 H   0  0  0  0  0  0  0  0  0  0  0  0
  138.5927   71.7497  221.7468 H   0  0  0  0  0  0  0  0  0  0  0  0
  138.0469   69.4567  222.6300 H   0  0  0  0  0  0  0  0  0  0  0  0
  139.6921   69.6071  221.9904 H   0  0  0  0  0  0  0  0  0  0  0  0
  138.6828   67.6808  224.0427 H   0  0  0  0  0  0  0  0  0  0  0  0
  139.4804   66.9227  226.2565 H   0  0  0  0  0  0  0  0  0  0  0  0
  140.8575   68.5333  227.6174 H   0  0  0  0  0  0  0  0  0  0  0  0
  141.3606   70.7807  226.7183 H   0  0  0  0  0  0  0  0  0  0  0  0
  140.2882   72.5867  225.1514 H   0  0  0  0  0  0  0  0  0  0  0  0
  141.7495   71.9167  224.3165 H   0  0  0  0  0  0  0  0  0  0  0  0
  145.2593   73.6405  221.0177 H   0  0  0  0  0  0  0  0  0  0  0  0
  144.3069   72.1553  221.5530 H   0  0  0  0  0  0  0  0  0  0  0  0
  146.6755   72.2645  220.2133 H   0  0  0  0  0  0  0  0  0  0  0  0
  145.4443   70.8591  220.4829 H   0  0  0  0  0  0  0  0  0  0  0  0
  1  2  1  0
  2  3  2  0
  2  4  1  0
  4  5  1  0
  5  6  1  0
  6  7  1  0
  7  8  1  0
  8  9  1  0
  9 10  2  0
 10 11  1  0
 11 12  1  0
 12 13  1  0
 13 14  1  0
 14 15  1  0
 15 16  2  0
 16 17  1  0
 17 18  2  0
 18 19  1  0
 19 20  2  0
 20 21  1  0
 11 22  2  0
 22 23  1  0
 23 24  1  0
 24 25  1  0
 25 26  1  0
 26 27  1  0
 27 28  2  0
 28 29  1  0
 29 30  2  0
 30 31  1  0
 31 32  2  0
 32 33  1  0
 23 34  2  0
  8 35  1  0
 35 36  1  0
 36  5  1  0
 34  9  1  0
 21 12  1  0
 33 24  1  0
 20 15  1  0
 32 27  1  0
  1 37  1  0
  1 38  1  0
  4 39  1  0
  4 40  1  0
  6 41  1  0
  6 42  1  0
  7 43  1  0
  7 44  1  0
  8 45  1  0
 10 46  1  0
 13 47  1  0
 13 48  1  0
 14 49  1  0
 14 50  1  0
 16 51  1  0
 17 52  1  0
 18 53  1  0
 19 54  1  0
 21 55  1  0
 21 56  1  0
 25 57  1  0
 25 58  1  0
 26 59  1  0
 26 60  1  0
 28 61  1  0
 29 62  1  0
 30 63  1  0
 31 64  1  0
 33 65  1  0
 33 66  1  0
 35 67  1  0
 35 68  1  0
 36 69  1  0
 36 70  1  0
M  END
>  <smiles>  (11) 
NC(=O)CN1CCC(c2cc(N3CCc4ccccc4C3)nc(N3CCc4ccccc4C3)n2)CC1

>  <score_type>  (11) 
oracle

>  <origin>  (11) 
autodockgpu

>  <m_score__min__energy>  (11) 
-11.01

>  <m_primary>  (11) 
energy

>  <rmsd>  (11) 
3.811396052738474

>  <m_score__min__rmsd>  (11) 
3.811396052738474

>  <meeko>  (11) 
{"free_energy": -10.51, "intermolecular_energy": -12.0, "internal_energy": -1.42, "cluster_size": 26, "cluster_id": 1, "rank_in_cluster": 4}

>  <energy>  (11) 
-10.33

>  <cluster_rmsd>  (11) 
1.09

>  <cluster>  (11) 
1

$$$$

     RDKit          3D

 70 75  0  0  0  0  0  0  0  0999 V2000
  142.9240   79.0630  222.7480 N   0  0  0  0  0  0  0  0  0  0  0  0
  141.7400   79.8610  222.7930 C   0  0  0  0  0  0  0  0  0  0  0  0
  141.4740   80.4260  223.8660 O   0  0  0  0  0  0  0  0  0  0  0  0
  140.9360   79.9430  221.5570 C   0  0  0  0  0  0  0  0  0  0  0  0
  140.0130   78.8440  221.4090 N   0  0  0  0  0  0  0  0  0  0  0  0
  140.3660   78.1490  220.2130 C   0  0  0  0  0  0  0  0  0  0  0  0
  141.1360   76.8950  220.5750 C   0  0  0  0  0  0  0  0  0  0  0  0
  140.0890   75.9960  221.2110 C   0  0  0  0  0  0  0  0  0  0  0  0
  140.5090   74.5910  221.3240 C   0  0  0  0  0  0  0  0  0  0  0  0
  141.3560   73.9990  220.3810 C   0  0  0  0  0  0  0  0  0  0  0  0
  141.7560   72.6910  220.4720 C   0  0  0  0  0  0  0  0  0  0  0  0
  142.6090   72.0420  219.5470 N   0  0  0  0  0  0  0  0  0  0  0  0
  143.9970   72.3800  219.3340 C   0  0  0  0  0  0  0  0  0  0  0  0
  144.9150   71.2300  219.6970 C   0  0  0  0  0  0  0  0  0  0  0  0
  144.2610   69.9210  219.4630 C   0  0  0  0  0  0  0  0  0  0  0  0
  145.0040   68.7840  219.6980 C   0  0  0  0  0  0  0  0  0  0  0  0
  144.5040   67.5070  219.5150 C   0  0  0  0  0  0  0  0  0  0  0  0
  143.2090   67.3770  219.0800 C   0  0  0  0  0  0  0  0  0  0  0  0
  142.4500   68.5090  218.8390 C   0  0  0  0  0  0  0  0  0  0  0  0
  142.9620   69.7810  219.0250 C   0  0  0  0  0  0  0  0  0  0  0  0
  142.0750   70.9540  218.7430 C   0  0  0  0  0  0  0  0  0  0  0  0
  141.2800   71.9940  221.5390 N   0  0  0  0  0  0  0  0  0  0  0  0
  140.4660   72.5250  222.4650 C   0  0  0  0  0  0  0  0  0  0  0  0
  140.0030   71.7440  223.5590 N   0  0  0  0  0  0  0  0  0  0  0  0
  138.8710   70.8680  223.4520 C   0  0  0  0  0  0  0  0  0  0  0  0
  139.2170   69.4330  223.7870 C   0  0  0  0  0  0  0  0  0  0  0  0
  139.8560   69.4670  225.1340 C   0  0  0  0  0  0  0  0  0  0  0  0
  139.7650   68.3560  225.9240 C   0  0  0  0  0  0  0  0  0  0  0  0
  140.3110   68.2560  227.1860 C   0  0  0  0  0  0  0  0  0  0  0  0
  140.9890   69.3710  227.6560 C   0  0  0  0  0  0  0  0  0  0  0  0
  141.0880   70.5060  226.8620 C   0  0  0  0  0  0  0  0  0  0  0  0
  140.5320   70.5690  225.6090 C   0  0  0  0  0  0  0  0  0  0  0  0
  140.6880   71.8240  224.8300 C   0  0  0  0  0  0  0  0  0  0  0  0
  140.0910   73.8200  222.3440 N   0  0  0  0  0  0  0  0  0  0  0  0
  139.7370   76.6280  222.5300 C   0  0  0  0  0  0  0  0  0  0  0  0
  139.8230   78.0980  222.5760 C   0  0  0  0  0  0  0  0  0  0  0  0
  142.9480   78.1170  223.1990 H   0  0  0  0  0  0  0  0  0  0  0  0
  143.7960   79.4100  222.2600 H   0  0  0  0  0  0  0  0  0  0  0  0
  140.3630   80.8818  221.5736 H   0  0  0  0  0  0  0  0  0  0  0  0
  141.6341   79.9020  220.7079 H   0  0  0  0  0  0  0  0  0  0  0  0
  139.4533   77.8747  219.6637 H   0  0  0  0  0  0  0  0  0  0  0  0
  140.9902   78.7964  219.5796 H   0  0  0  0  0  0  0  0  0  0  0  0
  141.5628   76.4245  219.6769 H   0  0  0  0  0  0  0  0  0  0  0  0
  141.9858   77.0965  221.2437 H   0  0  0  0  0  0  0  0  0  0  0  0
  139.1991   75.9281  220.5680 H   0  0  0  0  0  0  0  0  0  0  0  0
  141.7140   74.6051  219.5358 H   0  0  0  0  0  0  0  0  0  0  0  0
  144.1439   72.6326  218.2735 H   0  0  0  0  0  0  0  0  0  0  0  0
  144.2453   73.2347  219.9803 H   0  0  0  0  0  0  0  0  0  0  0  0
  145.8248   71.2905  219.0817 H   0  0  0  0  0  0  0  0  0  0  0  0
  145.1608   71.3077  220.7664 H   0  0  0  0  0  0  0  0  0  0  0  0
  146.0411   68.8970  220.0467 H   0  0  0  0  0  0  0  0  0  0  0  0
  145.1264   66.6218  219.7124 H   0  0  0  0  0  0  0  0  0  0  0  0
  142.7762   66.3779  218.9236 H   0  0  0  0  0  0  0  0  0  0  0  0
  141.4129   68.3945  218.4906 H   0  0  0  0  0  0  0  0  0  0  0  0
  142.1071   71.2130  217.6744 H   0  0  0  0  0  0  0  0  0  0  0  0
  141.0239   70.7412  218.9878 H   0  0  0  0  0  0  0  0  0  0  0  0
  138.0901   71.2140  224.1451 H   0  0  0  0  0  0  0  0  0  0  0  0
  138.5247   70.8942  222.4083 H   0  0  0  0  0  0  0  0  0  0  0  0
  138.3065   68.8162  223.8115 H   0  0  0  0  0  0  0  0  0  0  0  0
  139.8883   68.9945  223.0340 H   0  0  0  0  0  0  0  0  0  0  0  0
  139.2213   67.4857  225.5278 H   0  0  0  0  0  0  0  0  0  0  0  0
  140.2141   67.3406  227.7882 H   0  0  0  0  0  0  0  0  0  0  0  0
  141.4474   69.3563  228.6558 H   0  0  0  0  0  0  0  0  0  0  0  0
  141.6290   71.3819  227.2495 H   0  0  0  0  0  0  0  0  0  0  0  0
  140.2698   72.6598  225.4101 H   0  0  0  0  0  0  0  0  0  0  0  0
  141.7595   71.9809  224.6368 H   0  0  0  0  0  0  0  0  0  0  0  0
  138.7041   76.3418  222.7772 H   0  0  0  0  0  0  0  0  0  0  0  0
  140.4850   76.2608  223.2481 H   0  0  0  0  0  0  0  0  0  0  0  0
  138.8833   78.4526  223.0246 H   0  0  0  0  0  0  0  0  0  0  0  0
  140.7590   78.2689  223.1281 H   0  0  0  0  0  0  0  0  0  0  0  0
  1  2  1  0
  2  3  2  0
  2  4  1  0
  4  5  1  0
  5  6  1  0
  6  7  1  0
  7  8  1  0
  8  9  1  0
  9 10  2  0
 10 11  1  0
 11 12  1  0
 12 13  1  0
 13 14  1  0
 14 15  1  0
 15 16  2  0
 16 17  1  0
 17 18  2  0
 18 19  1  0
 19 20  2  0
 20 21  1  0
 11 22  2  0
 22 23  1  0
 23 24  1  0
 24 25  1  0
 25 26  1  0
 26 27  1  0
 27 28  2  0
 28 29  1  0
 29 30  2  0
 30 31  1  0
 31 32  2  0
 32 33  1  0
 23 34  2  0
  8 35  1  0
 35 36  1  0
 36  5  1  0
 34  9  1  0
 21 12  1  0
 33 24  1  0
 20 15  1  0
 32 27  1  0
  1 37  1  0
  1 38  1  0
  4 39  1  0
  4 40  1  0
  6 41  1  0
  6 42  1  0
  7 43  1  0
  7 44  1  0
  8 45  1  0
 10 46  1  0
 13 47  1  0
 13 48  1  0
 14 49  1  0
 14 50  1  0
 16 51  1  0
 17 52  1  0
 18 53  1  0
 19 54  1  0
 21 55  1  0
 21 56  1  0
 25 57  1  0
 25 58  1  0
 26 59  1  0
 26 60  1  0
 28 61  1  0
 29 62  1  0
 30 63  1  0
 31 64  1  0
 33 65  1  0
 33 66  1  0
 35 67  1  0
 35 68  1  0
 36 69  1  0
 36 70  1  0
M  END
>  <smiles>  (12) 
NC(=O)CN1CCC(c2cc(N3CCc4ccccc4C3)nc(N3CCc4ccccc4C3)n2)CC1

>  <score_type>  (12) 
oracle

>  <origin>  (12) 
autodockgpu

>  <m_score__min__energy>  (12) 
-11.01

>  <m_primary>  (12) 
energy

>  <rmsd>  (12) 
10.148262456494622

>  <m_score__min__rmsd>  (12) 
10.148262456494622

>  <meeko>  (12) 
{"free_energy": -9.83, "intermolecular_energy": -11.32, "internal_energy": -1.49, "cluster_size": 12, "cluster_id": 3, "rank_in_cluster": 9}

>  <energy>  (12) 
-10.31

>  <cluster_rmsd>  (12) 
1.21

>  <cluster>  (12) 
1

$$$$

     RDKit          3D

 70 75  0  0  0  0  0  0  0  0999 V2000
  146.6500   69.1680  216.7590 N   0  0  0  0  0  0  0  0  0  0  0  0
  146.6180   70.5270  216.3210 C   0  0  0  0  0  0  0  0  0  0  0  0
  147.5460   70.9130  215.5930 O   0  0  0  0  0  0  0  0  0  0  0  0
  145.4820   71.3540  216.7750 C   0  0  0  0  0  0  0  0  0  0  0  0
  145.4430   71.5250  218.2070 N   0  0  0  0  0  0  0  0  0  0  0  0
  145.3040   72.9230  218.4660 C   0  0  0  0  0  0  0  0  0  0  0  0
  143.8620   73.2220  218.8200 C   0  0  0  0  0  0  0  0  0  0  0  0
  143.6840   72.5900  220.1900 C   0  0  0  0  0  0  0  0  0  0  0  0
  142.4790   73.0470  220.8980 C   0  0  0  0  0  0  0  0  0  0  0  0
  141.9790   74.3430  220.7350 C   0  0  0  0  0  0  0  0  0  0  0  0
  140.8570   74.7840  221.3890 C   0  0  0  0  0  0  0  0  0  0  0  0
  140.3090   76.0840  221.2610 N   0  0  0  0  0  0  0  0  0  0  0  0
  138.9470   76.4370  221.5880 C   0  0  0  0  0  0  0  0  0  0  0  0
  138.8860   77.4400  222.7230 C   0  0  0  0  0  0  0  0  0  0  0  0
  140.0710   78.3300  222.7240 C   0  0  0  0  0  0  0  0  0  0  0  0
  140.1190   79.3310  223.6700 C   0  0  0  0  0  0  0  0  0  0  0  0
  141.1720   80.2220  223.7700 C   0  0  0  0  0  0  0  0  0  0  0  0
  142.2100   80.0970  222.8820 C   0  0  0  0  0  0  0  0  0  0  0  0
  142.1770   79.0980  221.9240 C   0  0  0  0  0  0  0  0  0  0  0  0
  141.1180   78.2120  221.8350 C   0  0  0  0  0  0  0  0  0  0  0  0
  141.1590   77.1580  220.7710 C   0  0  0  0  0  0  0  0  0  0  0  0
  140.2530   73.8860  222.2120 N   0  0  0  0  0  0  0  0  0  0  0  0
  140.7020   72.6340  222.3950 C   0  0  0  0  0  0  0  0  0  0  0  0
  140.0240   71.7400  223.2690 N   0  0  0  0  0  0  0  0  0  0  0  0
  138.8890   70.9670  222.8480 C   0  0  0  0  0  0  0  0  0  0  0  0
  139.1090   69.4790  223.0150 C   0  0  0  0  0  0  0  0  0  0  0  0
  139.5090   69.2790  224.4380 C   0  0  0  0  0  0  0  0  0  0  0  0
  139.2350   68.0770  225.0270 C   0  0  0  0  0  0  0  0  0  0  0  0
  139.5520   67.7630  226.3310 C   0  0  0  0  0  0  0  0  0  0  0  0
  140.1880   68.7510  227.0670 C   0  0  0  0  0  0  0  0  0  0  0  0
  140.4720   69.9770  226.4800 C   0  0  0  0  0  0  0  0  0  0  0  0
  140.1420   70.2550  225.1770 C   0  0  0  0  0  0  0  0  0  0  0  0
  140.4840   71.5920  224.6310 C   0  0  0  0  0  0  0  0  0  0  0  0
  141.8110   72.2310  221.7330 N   0  0  0  0  0  0  0  0  0  0  0  0
  143.7280   71.1010  219.9740 C   0  0  0  0  0  0  0  0  0  0  0  0
  144.5800   70.6420  218.8640 C   0  0  0  0  0  0  0  0  0  0  0  0
  147.3100   68.8660  217.5170 H   0  0  0  0  0  0  0  0  0  0  0  0
  146.0130   68.4420  216.3300 H   0  0  0  0  0  0  0  0  0  0  0  0
  145.5616   72.3458  216.3060 H   0  0  0  0  0  0  0  0  0  0  0  0
  144.5589   70.8326  216.4817 H   0  0  0  0  0  0  0  0  0  0  0  0
  145.9558   73.2085  219.3049 H   0  0  0  0  0  0  0  0  0  0  0  0
  145.5917   73.4953  217.5718 H   0  0  0  0  0  0  0  0  0  0  0  0
  143.6865   74.3070  218.8637 H   0  0  0  0  0  0  0  0  0  0  0  0
  143.1524   72.8301  218.0764 H   0  0  0  0  0  0  0  0  0  0  0  0
  144.4920   72.9050  220.8667 H   0  0  0  0  0  0  0  0  0  0  0  0
  142.5043   75.0331  220.0583 H   0  0  0  0  0  0  0  0  0  0  0  0
  138.4687   76.8745  220.6993 H   0  0  0  0  0  0  0  0  0  0  0  0
  138.4230   75.5242  221.9078 H   0  0  0  0  0  0  0  0  0  0  0  0
  137.9790   78.0522  222.6110 H   0  0  0  0  0  0  0  0  0  0  0  0
  138.8689   76.8861  223.6732 H   0  0  0  0  0  0  0  0  0  0  0  0
  139.2820   79.4256  224.3775 H   0  0  0  0  0  0  0  0  0  0  0  0
  141.1770   81.0082  224.5394 H   0  0  0  0  0  0  0  0  0  0  0  0
  143.0649   80.7875  222.9308 H   0  0  0  0  0  0  0  0  0  0  0  0
  143.0137   79.0064  221.2158 H   0  0  0  0  0  0  0  0  0  0  0  0
  140.7703   77.5541  219.8212 H   0  0  0  0  0  0  0  0  0  0  0  0
  142.1848   76.8123  220.5758 H   0  0  0  0  0  0  0  0  0  0  0  0
  138.0168   71.2645  223.4486 H   0  0  0  0  0  0  0  0  0  0  0  0
  138.7282   71.1637  221.7778 H   0  0  0  0  0  0  0  0  0  0  0  0
  138.1815   68.9289  222.7979 H   0  0  0  0  0  0  0  0  0  0  0  0
  139.8792   69.1058  222.3240 H   0  0  0  0  0  0  0  0  0  0  0  0
  138.7289   67.3107  224.4215 H   0  0  0  0  0  0  0  0  0  0  0  0
  139.3131   66.7808  226.7648 H   0  0  0  0  0  0  0  0  0  0  0  0
  140.4672   68.5640  228.1144 H   0  0  0  0  0  0  0  0  0  0  0  0
  140.9773   70.7497  227.0780 H   0  0  0  0  0  0  0  0  0  0  0  0
  140.0105   72.3648  225.2544 H   0  0  0  0  0  0  0  0  0  0  0  0
  141.5787   71.6993  224.6397 H   0  0  0  0  0  0  0  0  0  0  0  0
  144.0988   70.6360  220.8994 H   0  0  0  0  0  0  0  0  0  0  0  0
  142.7025   70.8062  219.7068 H   0  0  0  0  0  0  0  0  0  0  0  0
  145.2069   69.8319  219.2649 H   0  0  0  0  0  0  0  0  0  0  0  0
  143.8469   70.3931  218.0826 H   0  0  0  0  0  0  0  0  0  0  0  0
  1  2  1  0
  2  3  2  0
  2  4  1  0
  4  5  1  0
  5  6  1  0
  6  7  1  0
  7  8  1  0
  8  9  1  0
  9 10  2  0
 10 11  1  0
 11 12  1  0
 12 13  1  0
 13 14  1  0
 14 15  1  0
 15 16  2  0
 16 17  1  0
 17 18  2  0
 18 19  1  0
 19 20  2  0
 20 21  1  0
 11 22  2  0
 22 23  1  0
 23 24  1  0
 24 25  1  0
 25 26  1  0
 26 27  1  0
 27 28  2  0
 28 29  1  0
 29 30  2  0
 30 31  1  0
 31 32  2  0
 32 33  1  0
 23 34  2  0
  8 35  1  0
 35 36  1  0
 36  5  1  0
 34  9  1  0
 21 12  1  0
 33 24  1  0
 20 15  1  0
 32 27  1  0
  1 37  1  0
  1 38  1  0
  4 39  1  0
  4 40  1  0
  6 41  1  0
  6 42  1  0
  7 43  1  0
  7 44  1  0
  8 45  1  0
 10 46  1  0
 13 47  1  0
 13 48  1  0
 14 49  1  0
 14 50  1  0
 16 51  1  0
 17 52  1  0
 18 53  1  0
 19 54  1  0
 21 55  1  0
 21 56  1  0
 25 57  1  0
 25 58  1  0
 26 59  1  0
 26 60  1  0
 28 61  1  0
 29 62  1  0
 30 63  1  0
 31 64  1  0
 33 65  1  0
 33 66  1  0
 35 67  1  0
 35 68  1  0
 36 69  1  0
 36 70  1  0
M  END
>  <smiles>  (13) 
NC(=O)CN1CCC(c2cc(N3CCc4ccccc4C3)nc(N3CCc4ccccc4C3)n2)CC1

>  <score_type>  (13) 
oracle

>  <origin>  (13) 
autodockgpu

>  <m_score__min__energy>  (13) 
-11.01

>  <m_primary>  (13) 
energy

>  <rmsd>  (13) 
4.117851977496177

>  <m_score__min__rmsd>  (13) 
4.117851977496177

>  <meeko>  (13) 
{"free_energy": -10.28, "intermolecular_energy": -11.77, "internal_energy": -1.37, "cluster_size": 26, "cluster_id": 1, "rank_in_cluster": 14}

>  <energy>  (13) 
-10.29

>  <cluster_rmsd>  (13) 
1.11

>  <cluster>  (13) 
1

$$$$

     RDKit          3D

 70 75  0  0  0  0  0  0  0  0999 V2000
  147.0750   69.6340  216.9310 N   0  0  0  0  0  0  0  0  0  0  0  0
  146.0150   70.3470  216.2920 C   0  0  0  0  0  0  0  0  0  0  0  0
  145.4780   69.8090  215.3100 O   0  0  0  0  0  0  0  0  0  0  0  0
  145.6510   71.6620  216.8570 C   0  0  0  0  0  0  0  0  0  0  0  0
  145.5330   71.6460  218.2950 N   0  0  0  0  0  0  0  0  0  0  0  0
  145.4910   73.0060  218.7330 C   0  0  0  0  0  0  0  0  0  0  0  0
  144.0570   73.3820  219.0470 C   0  0  0  0  0  0  0  0  0  0  0  0
  143.7400   72.5930  220.3070 C   0  0  0  0  0  0  0  0  0  0  0  0
  142.5330   73.0580  221.0050 C   0  0  0  0  0  0  0  0  0  0  0  0
  142.0210   74.3450  220.8090 C   0  0  0  0  0  0  0  0  0  0  0  0
  140.8960   74.7930  221.4540 C   0  0  0  0  0  0  0  0  0  0  0  0
  140.3360   76.0840  221.2930 N   0  0  0  0  0  0  0  0  0  0  0  0
  138.9670   76.4290  221.5950 C   0  0  0  0  0  0  0  0  0  0  0  0
  138.8790   77.4530  222.7090 C   0  0  0  0  0  0  0  0  0  0  0  0
  140.0550   78.3550  222.7070 C   0  0  0  0  0  0  0  0  0  0  0  0
  140.0800   79.3760  223.6350 C   0  0  0  0  0  0  0  0  0  0  0  0
  141.1220   80.2800  223.7300 C   0  0  0  0  0  0  0  0  0  0  0  0
  142.1730   80.1490  222.8580 C   0  0  0  0  0  0  0  0  0  0  0  0
  142.1630   79.1300  221.9200 C   0  0  0  0  0  0  0  0  0  0  0  0
  141.1140   78.2310  221.8350 C   0  0  0  0  0  0  0  0  0  0  0  0
  141.1800   77.1580  220.7930 C   0  0  0  0  0  0  0  0  0  0  0  0
  140.3010   73.9110  222.3010 N   0  0  0  0  0  0  0  0  0  0  0  0
  140.7620   72.6690  222.5160 C   0  0  0  0  0  0  0  0  0  0  0  0
  140.0940   71.7920  223.4140 N   0  0  0  0  0  0  0  0  0  0  0  0
  138.9420   71.0260  223.0260 C   0  0  0  0  0  0  0  0  0  0  0  0
  139.1510   69.5370  223.2070 C   0  0  0  0  0  0  0  0  0  0  0  0
  139.5800   69.3500  224.6230 C   0  0  0  0  0  0  0  0  0  0  0  0
  139.3060   68.1580  225.2320 C   0  0  0  0  0  0  0  0  0  0  0  0
  139.6470   67.8560  226.5330 C   0  0  0  0  0  0  0  0  0  0  0  0
  140.3080   68.8460  227.2440 C   0  0  0  0  0  0  0  0  0  0  0  0
  140.5920   70.0620  226.6360 C   0  0  0  0  0  0  0  0  0  0  0  0
  140.2380   70.3280  225.3370 C   0  0  0  0  0  0  0  0  0  0  0  0
  140.5810   71.6550  224.7690 C   0  0  0  0  0  0  0  0  0  0  0  0
  141.8740   72.2590  221.8630 N   0  0  0  0  0  0  0  0  0  0  0  0
  143.6790   71.1480  219.8930 C   0  0  0  0  0  0  0  0  0  0  0  0
  144.5620   70.7650  218.7780 C   0  0  0  0  0  0  0  0  0  0  0  0
  148.0270   69.5880  216.4940 H   0  0  0  0  0  0  0  0  0  0  0  0
  146.9220   69.1420  217.8540 H   0  0  0  0  0  0  0  0  0  0  0  0
  146.4265   72.3902  216.5772 H   0  0  0  0  0  0  0  0  0  0  0  0
  144.6659   71.9333  216.4496 H   0  0  0  0  0  0  0  0  0  0  0  0
  146.1082   73.1213  219.6362 H   0  0  0  0  0  0  0  0  0  0  0  0
  145.8813   73.6624  217.9413 H   0  0  0  0  0  0  0  0  0  0  0  0
  143.9667   74.4631  219.2290 H   0  0  0  0  0  0  0  0  0  0  0  0
  143.3681   73.1555  218.2199 H   0  0  0  0  0  0  0  0  0  0  0  0
  144.5248   72.7433  221.0630 H   0  0  0  0  0  0  0  0  0  0  0  0
  142.5386   75.0217  220.1132 H   0  0  0  0  0  0  0  0  0  0  0  0
  138.4964   76.8440  220.6915 H   0  0  0  0  0  0  0  0  0  0  0  0
  138.4489   75.5170  221.9262 H   0  0  0  0  0  0  0  0  0  0  0  0
  137.9672   78.0530  222.5726 H   0  0  0  0  0  0  0  0  0  0  0  0
  138.8537   76.9185  223.6701 H   0  0  0  0  0  0  0  0  0  0  0  0
  139.2333   79.4751  224.3301 H   0  0  0  0  0  0  0  0  0  0  0  0
  141.1086   81.0814  224.4833 H   0  0  0  0  0  0  0  0  0  0  0  0
  143.0196   80.8499  222.9036 H   0  0  0  0  0  0  0  0  0  0  0  0
  143.0101   79.0327  221.2250 H   0  0  0  0  0  0  0  0  0  0  0  0
  140.7989   77.5313  219.8310 H   0  0  0  0  0  0  0  0  0  0  0  0
  142.2120   76.8202  220.6174 H   0  0  0  0  0  0  0  0  0  0  0  0
  138.0856   71.3398  223.6409 H   0  0  0  0  0  0  0  0  0  0  0  0
  138.7603   71.2117  221.9571 H   0  0  0  0  0  0  0  0  0  0  0  0
  138.2135   68.9938  223.0170 H   0  0  0  0  0  0  0  0  0  0  0  0
  139.9023   69.1478  222.5042 H   0  0  0  0  0  0  0  0  0  0  0  0
  138.7794   67.3900  224.6464 H   0  0  0  0  0  0  0  0  0  0  0  0
  139.4075   66.8814  226.9832 H   0  0  0  0  0  0  0  0  0  0  0  0
  140.6069   68.6687  228.2877 H   0  0  0  0  0  0  0  0  0  0  0  0
  141.1174   70.8365  227.2140 H   0  0  0  0  0  0  0  0  0  0  0  0
  140.1276   72.4392  225.3931 H   0  0  0  0  0  0  0  0  0  0  0  0
  141.6766   71.7520  224.7541 H   0  0  0  0  0  0  0  0  0  0  0  0
  143.9505   70.5349  220.7650 H   0  0  0  0  0  0  0  0  0  0  0  0
  142.6528   70.9824  219.5332 H   0  0  0  0  0  0  0  0  0  0  0  0
  145.0945   69.8572  219.0981 H   0  0  0  0  0  0  0  0  0  0  0  0
  143.8636   70.6863  217.9318 H   0  0  0  0  0  0  0  0  0  0  0  0
  1  2  1  0
  2  3  2  0
  2  4  1  0
  4  5  1  0
  5  6  1  0
  6  7  1  0
  7  8  1  0
  8  9  1  0
  9 10  2  0
 10 11  1  0
 11 12  1  0
 12 13  1  0
 13 14  1  0
 14 15  1  0
 15 16  2  0
 16 17  1  0
 17 18  2  0
 18 19  1  0
 19 20  2  0
 20 21  1  0
 11 22  2  0
 22 23  1  0
 23 24  1  0
 24 25  1  0
 25 26  1  0
 26 27  1  0
 27 28  2  0
 28 29  1  0
 29 30  2  0
 30 31  1  0
 31 32  2  0
 32 33  1  0
 23 34  2  0
  8 35  1  0
 35 36  1  0
 36  5  1  0
 34  9  1  0
 21 12  1  0
 33 24  1  0
 20 15  1  0
 32 27  1  0
  1 37  1  0
  1 38  1  0
  4 39  1  0
  4 40  1  0
  6 41  1  0
  6 42  1  0
  7 43  1  0
  7 44  1  0
  8 45  1  0
 10 46  1  0
 13 47  1  0
 13 48  1  0
 14 49  1  0
 14 50  1  0
 16 51  1  0
 17 52  1  0
 18 53  1  0
 19 54  1  0
 21 55  1  0
 21 56  1  0
 25 57  1  0
 25 58  1  0
 26 59  1  0
 26 60  1  0
 28 61  1  0
 29 62  1  0
 30 63  1  0
 31 64  1  0
 33 65  1  0
 33 66  1  0
 35 67  1  0
 35 68  1  0
 36 69  1  0
 36 70  1  0
M  END
>  <smiles>  (14) 
NC(=O)CN1CCC(c2cc(N3CCc4ccccc4C3)nc(N3CCc4ccccc4C3)n2)CC1

>  <score_type>  (14) 
oracle

>  <origin>  (14) 
autodockgpu

>  <m_score__min__energy>  (14) 
-11.01

>  <m_primary>  (14) 
energy

>  <rmsd>  (14) 
4.145905848461366

>  <m_score__min__rmsd>  (14) 
4.145905848461366

>  <meeko>  (14) 
{"free_energy": -10.29, "intermolecular_energy": -11.78, "internal_energy": -1.45, "cluster_size": 26, "cluster_id": 1, "rank_in_cluster": 13}

>  <energy>  (14) 
-10.28

>  <cluster_rmsd>  (14) 
1.16

>  <cluster>  (14) 
1

$$$$

     RDKit          3D

 70 75  0  0  0  0  0  0  0  0999 V2000
  143.3330   79.3910  222.7290 N   0  0  0  0  0  0  0  0  0  0  0  0
  142.1430   80.1280  222.4420 C   0  0  0  0  0  0  0  0  0  0  0  0
  141.8120   81.0120  223.2480 O   0  0  0  0  0  0  0  0  0  0  0  0
  141.4110   79.7710  221.2100 C   0  0  0  0  0  0  0  0  0  0  0  0
  140.4150   78.7490  221.4200 N   0  0  0  0  0  0  0  0  0  0  0  0
  140.2960   78.0130  220.2010 C   0  0  0  0  0  0  0  0  0  0  0  0
  141.0490   76.7050  220.3340 C   0  0  0  0  0  0  0  0  0  0  0  0
  140.2140   75.9010  221.3160 C   0  0  0  0  0  0  0  0  0  0  0  0
  140.5440   74.4690  221.3370 C   0  0  0  0  0  0  0  0  0  0  0  0
  141.2990   73.8740  220.3210 C   0  0  0  0  0  0  0  0  0  0  0  0
  141.6150   72.5400  220.3250 C   0  0  0  0  0  0  0  0  0  0  0  0
  142.3740   71.8880  219.3220 N   0  0  0  0  0  0  0  0  0  0  0  0
  143.4040   72.5200  218.5310 C   0  0  0  0  0  0  0  0  0  0  0  0
  144.7620   71.8940  218.7770 C   0  0  0  0  0  0  0  0  0  0  0  0
  144.6420   70.4560  219.1150 C   0  0  0  0  0  0  0  0  0  0  0  0
  145.8070   69.7450  219.3080 C   0  0  0  0  0  0  0  0  0  0  0  0
  145.8230   68.3990  219.6280 C   0  0  0  0  0  0  0  0  0  0  0  0
  144.6200   67.7510  219.7550 C   0  0  0  0  0  0  0  0  0  0  0  0
  143.4410   68.4510  219.5630 C   0  0  0  0  0  0  0  0  0  0  0  0
  143.4380   69.7970  219.2440 C   0  0  0  0  0  0  0  0  0  0  0  0
  142.1200   70.4810  219.0540 C   0  0  0  0  0  0  0  0  0  0  0  0
  141.1500   71.8200  221.3810 N   0  0  0  0  0  0  0  0  0  0  0  0
  140.4230   72.3530  222.3750 C   0  0  0  0  0  0  0  0  0  0  0  0
  139.9660   71.5460  223.4540 N   0  0  0  0  0  0  0  0  0  0  0  0
  138.8310   70.6750  223.3340 C   0  0  0  0  0  0  0  0  0  0  0  0
  139.1760   69.2320  223.6320 C   0  0  0  0  0  0  0  0  0  0  0  0
  139.8260   69.2320  224.9750 C   0  0  0  0  0  0  0  0  0  0  0  0
  139.7380   68.1020  225.7380 C   0  0  0  0  0  0  0  0  0  0  0  0
  140.2930   67.9710  226.9930 C   0  0  0  0  0  0  0  0  0  0  0  0
  140.9770   69.0720  227.4850 C   0  0  0  0  0  0  0  0  0  0  0  0
  141.0730   70.2260  226.7180 C   0  0  0  0  0  0  0  0  0  0  0  0
  140.5080   70.3210  225.4710 C   0  0  0  0  0  0  0  0  0  0  0  0
  140.6610   71.5940  224.7210 C   0  0  0  0  0  0  0  0  0  0  0  0
  140.1300   73.6730  222.3390 N   0  0  0  0  0  0  0  0  0  0  0  0
  140.3710   76.5760  222.6520 C   0  0  0  0  0  0  0  0  0  0  0  0
  140.5730   78.0340  222.6110 C   0  0  0  0  0  0  0  0  0  0  0  0
  143.3360   78.6510  223.4720 H   0  0  0  0  0  0  0  0  0  0  0  0
  144.2290   79.5770  222.2000 H   0  0  0  0  0  0  0  0  0  0  0  0
  140.9118   80.6727  220.8256 H   0  0  0  0  0  0  0  0  0  0  0  0
  142.1459   79.3712  220.4959 H   0  0  0  0  0  0  0  0  0  0  0  0
  139.2347   77.8076  219.9972 H   0  0  0  0  0  0  0  0  0  0  0  0
  140.7179   78.6000  219.3719 H   0  0  0  0  0  0  0  0  0  0  0  0
  141.1149   76.1910  219.3637 H   0  0  0  0  0  0  0  0  0  0  0  0
  142.0858   76.8450  220.6739 H   0  0  0  0  0  0  0  0  0  0  0  0
  139.1578   75.8970  221.0087 H   0  0  0  0  0  0  0  0  0  0  0  0
  141.6522   74.4995  219.4880 H   0  0  0  0  0  0  0  0  0  0  0  0
  143.1505   72.4148  217.4658 H   0  0  0  0  0  0  0  0  0  0  0  0
  143.4572   73.5799  218.8204 H   0  0  0  0  0  0  0  0  0  0  0  0
  145.3738   71.9982  217.8688 H   0  0  0  0  0  0  0  0  0  0  0  0
  145.2325   72.4109  219.6264 H   0  0  0  0  0  0  0  0  0  0  0  0
  146.7672   70.2714  219.2029 H   0  0  0  0  0  0  0  0  0  0  0  0
  146.7725   67.8638  219.7763 H   0  0  0  0  0  0  0  0  0  0  0  0
  144.5926   66.6809  220.0081 H   0  0  0  0  0  0  0  0  0  0  0  0
  142.4816   67.9230  219.6668 H   0  0  0  0  0  0  0  0  0  0  0  0
  141.7602   70.3442  218.0236 H   0  0  0  0  0  0  0  0  0  0  0  0
  141.3460   70.0706  219.7192 H   0  0  0  0  0  0  0  0  0  0  0  0
  138.0557   71.0059  224.0407 H   0  0  0  0  0  0  0  0  0  0  0  0
  138.4774   70.7269  222.2937 H   0  0  0  0  0  0  0  0  0  0  0  0
  138.2642   68.6169  223.6490 H   0  0  0  0  0  0  0  0  0  0  0  0
  139.8404   68.8102  222.8635 H   0  0  0  0  0  0  0  0  0  0  0  0
  139.1897   67.2426  225.3248 H   0  0  0  0  0  0  0  0  0  0  0  0
  140.1981   67.0416  227.5737 H   0  0  0  0  0  0  0  0  0  0  0  0
  141.4427   69.0317  228.4807 H   0  0  0  0  0  0  0  0  0  0  0  0
  141.6190   71.0909  227.1228 H   0  0  0  0  0  0  0  0  0  0  0  0
  140.2493   72.4166  225.3242 H   0  0  0  0  0  0  0  0  0  0  0  0
  141.7313   71.7531  224.5232 H   0  0  0  0  0  0  0  0  0  0  0  0
  139.4629   76.3770  223.2399 H   0  0  0  0  0  0  0  0  0  0  0  0
  141.2883   76.1585  223.0929 H   0  0  0  0  0  0  0  0  0  0  0  0
  139.8656   78.4683  223.3328 H   0  0  0  0  0  0  0  0  0  0  0  0
  141.6495   78.1352  222.8132 H   0  0  0  0  0  0  0  0  0  0  0  0
  1  2  1  0
  2  3  2  0
  2  4  1  0
  4  5  1  0
  5  6  1  0
  6  7  1  0
  7  8  1  0
  8  9  1  0
  9 10  2  0
 10 11  1  0
 11 12  1  0
 12 13  1  0
 13 14  1  0
 14 15  1  0
 15 16  2  0
 16 17  1  0
 17 18  2  0
 18 19  1  0
 19 20  2  0
 20 21  1  0
 11 22  2  0
 22 23  1  0
 23 24  1  0
 24 25  1  0
 25 26  1  0
 26 27  1  0
 27 28  2  0
 28 29  1  0
 29 30  2  0
 30 31  1  0
 31 32  2  0
 32 33  1  0
 23 34  2  0
  8 35  1  0
 35 36  1  0
 36  5  1  0
 34  9  1  0
 21 12  1  0
 33 24  1  0
 20 15  1  0
 32 27  1  0
  1 37  1  0
  1 38  1  0
  4 39  1  0
  4 40  1  0
  6 41  1  0
  6 42  1  0
  7 43  1  0
  7 44  1  0
  8 45  1  0
 10 46  1  0
 13 47  1  0
 13 48  1  0
 14 49  1  0
 14 50  1  0
 16 51  1  0
 17 52  1  0
 18 53  1  0
 19 54  1  0
 21 55  1  0
 21 56  1  0
 25 57  1  0
 25 58  1  0
 26 59  1  0
 26 60  1  0
 28 61  1  0
 29 62  1  0
 30 63  1  0
 31 64  1  0
 33 65  1  0
 33 66  1  0
 35 67  1  0
 35 68  1  0
 36 69  1  0
 36 70  1  0
M  END
>  <smiles>  (15) 
NC(=O)CN1CCC(c2cc(N3CCc4ccccc4C3)nc(N3CCc4ccccc4C3)n2)CC1

>  <score_type>  (15) 
oracle

>  <origin>  (15) 
autodockgpu

>  <m_score__min__energy>  (15) 
-11.01

>  <m_primary>  (15) 
energy

>  <rmsd>  (15) 
10.115061759816951

>  <m_score__min__rmsd>  (15) 
10.115061759816951

>  <meeko>  (15) 
{"free_energy": -9.93, "intermolecular_energy": -11.42, "internal_energy": -1.42, "cluster_size": 12, "cluster_id": 3, "rank_in_cluster": 6}

>  <energy>  (15) 
-10.26

>  <cluster_rmsd>  (15) 
1.35

>  <cluster>  (15) 
1

$$$$

     RDKit          3D

 70 75  0  0  0  0  0  0  0  0999 V2000
  145.3110   74.7950  216.7180 N   0  0  0  0  0  0  0  0  0  0  0  0
  144.9950   73.4320  216.4300 C   0  0  0  0  0  0  0  0  0  0  0  0
  143.9680   73.2130  215.7680 O   0  0  0  0  0  0  0  0  0  0  0  0
  145.9190   72.4030  216.9460 C   0  0  0  0  0  0  0  0  0  0  0  0
  145.5520   71.9170  218.2540 N   0  0  0  0  0  0  0  0  0  0  0  0
  145.7050   73.0020  219.1700 C   0  0  0  0  0  0  0  0  0  0  0  0
  144.3430   73.5910  219.4760 C   0  0  0  0  0  0  0  0  0  0  0  0
  143.6600   72.5190  220.3080 C   0  0  0  0  0  0  0  0  0  0  0  0
  142.4670   72.9970  221.0210 C   0  0  0  0  0  0  0  0  0  0  0  0
  141.9650   74.2890  220.8300 C   0  0  0  0  0  0  0  0  0  0  0  0
  140.8540   74.7500  221.4880 C   0  0  0  0  0  0  0  0  0  0  0  0
  140.3050   76.0460  221.3330 N   0  0  0  0  0  0  0  0  0  0  0  0
  138.9360   76.3990  221.6290 C   0  0  0  0  0  0  0  0  0  0  0  0
  138.8500   77.4160  222.7490 C   0  0  0  0  0  0  0  0  0  0  0  0
  140.0330   78.3090  222.7610 C   0  0  0  0  0  0  0  0  0  0  0  0
  140.0600   79.3230  223.6960 C   0  0  0  0  0  0  0  0  0  0  0  0
  141.1080   80.2180  223.8040 C   0  0  0  0  0  0  0  0  0  0  0  0
  142.1640   80.0850  222.9380 C   0  0  0  0  0  0  0  0  0  0  0  0
  142.1520   79.0730  221.9930 C   0  0  0  0  0  0  0  0  0  0  0  0
  141.0970   78.1830  221.8950 C   0  0  0  0  0  0  0  0  0  0  0  0
  141.1610   77.1160  220.8460 C   0  0  0  0  0  0  0  0  0  0  0  0
  140.2610   73.8740  222.3440 N   0  0  0  0  0  0  0  0  0  0  0  0
  140.7110   72.6280  222.5540 C   0  0  0  0  0  0  0  0  0  0  0  0
  140.0460   71.7590  223.4620 N   0  0  0  0  0  0  0  0  0  0  0  0
  138.8520   71.0440  223.1060 C   0  0  0  0  0  0  0  0  0  0  0  0
  139.0110   69.5450  223.2510 C   0  0  0  0  0  0  0  0  0  0  0  0
  139.4860   69.3140  224.6460 C   0  0  0  0  0  0  0  0  0  0  0  0
  139.1920   68.1210  225.2430 C   0  0  0  0  0  0  0  0  0  0  0  0
  139.5710   67.7810  226.5240 C   0  0  0  0  0  0  0  0  0  0  0  0
  140.2960   68.7320  227.2260 C   0  0  0  0  0  0  0  0  0  0  0  0
  140.6020   69.9490  226.6300 C   0  0  0  0  0  0  0  0  0  0  0  0
  140.2080   70.2520  225.3520 C   0  0  0  0  0  0  0  0  0  0  0  0
  140.5800   71.5780  224.7940 C   0  0  0  0  0  0  0  0  0  0  0  0
  141.8110   72.2060  221.8880 N   0  0  0  0  0  0  0  0  0  0  0  0
  143.3850   71.3730  219.3720 C   0  0  0  0  0  0  0  0  0  0  0  0
  144.3550   71.1950  218.2780 C   0  0  0  0  0  0  0  0  0  0  0  0
  144.7810   75.3220  217.4530 H   0  0  0  0  0  0  0  0  0  0  0  0
  146.0830   75.2970  216.1980 H   0  0  0  0  0  0  0  0  0  0  0  0
  145.9241   71.5545  216.2460 H   0  0  0  0  0  0  0  0  0  0  0  0
  146.9114   72.8689  217.0359 H   0  0  0  0  0  0  0  0  0  0  0  0
  146.1652   72.6365  220.0998 H   0  0  0  0  0  0  0  0  0  0  0  0
  146.3500   73.7738  218.7246 H   0  0  0  0  0  0  0  0  0  0  0  0
  144.4403   74.5264  220.0465 H   0  0  0  0  0  0  0  0  0  0  0  0
  143.7779   73.8474  218.5678 H   0  0  0  0  0  0  0  0  0  0  0  0
  144.3147   72.1952  221.1305 H   0  0  0  0  0  0  0  0  0  0  0  0
  142.4804   74.9592  220.1264 H   0  0  0  0  0  0  0  0  0  0  0  0
  138.4738   76.8235  220.7256 H   0  0  0  0  0  0  0  0  0  0  0  0
  138.4086   75.4888  221.9506 H   0  0  0  0  0  0  0  0  0  0  0  0
  137.9439   78.0243  222.6112 H   0  0  0  0  0  0  0  0  0  0  0  0
  138.8152   76.8748  223.7060 H   0  0  0  0  0  0  0  0  0  0  0  0
  139.2096   79.4239  224.3864 H   0  0  0  0  0  0  0  0  0  0  0  0
  141.0957   81.0143  224.5628 H   0  0  0  0  0  0  0  0  0  0  0  0
  143.0158   80.7788  222.9942 H   0  0  0  0  0  0  0  0  0  0  0  0
  143.0027   78.9741  221.3027 H   0  0  0  0  0  0  0  0  0  0  0  0
  140.7894   77.4989  219.8840 H   0  0  0  0  0  0  0  0  0  0  0  0
  142.1913   76.7708  220.6750 H   0  0  0  0  0  0  0  0  0  0  0  0
  138.0327   71.3771  223.7600 H   0  0  0  0  0  0  0  0  0  0  0  0
  138.6364   71.2574  222.0487 H   0  0  0  0  0  0  0  0  0  0  0  0
  138.0471   69.0410  223.0872 H   0  0  0  0  0  0  0  0  0  0  0  0
  139.7198   69.1421  222.5126 H   0  0  0  0  0  0  0  0  0  0  0  0
  138.6157   67.3842  224.6642 H   0  0  0  0  0  0  0  0  0  0  0  0
  139.3122   66.8074  226.9657 H   0  0  0  0  0  0  0  0  0  0  0  0
  140.6284   68.5230  228.2535 H   0  0  0  0  0  0  0  0  0  0  0  0
  141.1780   70.6923  227.2007 H   0  0  0  0  0  0  0  0  0  0  0  0
  140.1817   72.3665  225.4494 H   0  0  0  0  0  0  0  0  0  0  0  0
  141.6771   71.6343  224.7376 H   0  0  0  0  0  0  0  0  0  0  0  0
  143.3718   70.4472  219.9659 H   0  0  0  0  0  0  0  0  0  0  0  0
  142.4254   71.6056  218.8870 H   0  0  0  0  0  0  0  0  0  0  0  0
  144.6315   70.1303  218.2750 H   0  0  0  0  0  0  0  0  0  0  0  0
  143.8140   71.5934  217.4070 H   0  0  0  0  0  0  0  0  0  0  0  0
  1  2  1  0
  2  3  2  0
  2  4  1  0
  4  5  1  0
  5  6  1  0
  6  7  1  0
  7  8  1  0
  8  9  1  0
  9 10  2  0
 10 11  1  0
 11 12  1  0
 12 13  1  0
 13 14  1  0
 14 15  1  0
 15 16  2  0
 16 17  1  0
 17 18  2  0
 18 19  1  0
 19 20  2  0
 20 21  1  0
 11 22  2  0
 22 23  1  0
 23 24  1  0
 24 25  1  0
 25 26  1  0
 26 27  1  0
 27 28  2  0
 28 29  1  0
 29 30  2  0
 30 31  1  0
 31 32  2  0
 32 33  1  0
 23 34  2  0
  8 35  1  0
 35 36  1  0
 36  5  1  0
 34  9  1  0
 21 12  1  0
 33 24  1  0
 20 15  1  0
 32 27  1  0
  1 37  1  0
  1 38  1  0
  4 39  1  0
  4 40  1  0
  6 41  1  0
  6 42  1  0
  7 43  1  0
  7 44  1  0
  8 45  1  0
 10 46  1  0
 13 47  1  0
 13 48  1  0
 14 49  1  0
 14 50  1  0
 16 51  1  0
 17 52  1  0
 18 53  1  0
 19 54  1  0
 21 55  1  0
 21 56  1  0
 25 57  1  0
 25 58  1  0
 26 59  1  0
 26 60  1  0
 28 61  1  0
 29 62  1  0
 30 63  1  0
 31 64  1  0
 33 65  1  0
 33 66  1  0
 35 67  1  0
 35 68  1  0
 36 69  1  0
 36 70  1  0
M  END
>  <smiles>  (16) 
NC(=O)CN1CCC(c2cc(N3CCc4ccccc4C3)nc(N3CCc4ccccc4C3)n2)CC1

>  <score_type>  (16) 
oracle

>  <origin>  (16) 
autodockgpu

>  <m_score__min__energy>  (16) 
-11.01

>  <m_primary>  (16) 
energy

>  <rmsd>  (16) 
4.21877318725159

>  <m_score__min__rmsd>  (16) 
4.21877318725159

>  <meeko>  (16) 
{"free_energy": -10.36, "intermolecular_energy": -11.86, "internal_energy": -1.36, "cluster_size": 12, "cluster_id": 2, "rank_in_cluster": 7}

>  <energy>  (16) 
-10.23

>  <cluster_rmsd>  (16) 
1.13

>  <cluster>  (16) 
1

$$$$

     RDKit          3D

 70 75  0  0  0  0  0  0  0  0999 V2000
  142.9070   79.1580  222.3420 N   0  0  0  0  0  0  0  0  0  0  0  0
  141.7170   79.1090  223.1290 C   0  0  0  0  0  0  0  0  0  0  0  0
  141.8190   78.6840  224.2910 O   0  0  0  0  0  0  0  0  0  0  0  0
  140.4670   79.5700  222.4900 C   0  0  0  0  0  0  0  0  0  0  0  0
  139.7580   78.5140  221.8080 N   0  0  0  0  0  0  0  0  0  0  0  0
  140.6320   77.9930  220.8050 C   0  0  0  0  0  0  0  0  0  0  0  0
  141.2320   76.6910  221.2960 C   0  0  0  0  0  0  0  0  0  0  0  0
  140.0610   75.7230  221.2850 C   0  0  0  0  0  0  0  0  0  0  0  0
  140.4630   74.3120  221.3810 C   0  0  0  0  0  0  0  0  0  0  0  0
  141.2810   73.7130  220.4180 C   0  0  0  0  0  0  0  0  0  0  0  0
  141.6640   72.3980  220.4930 C   0  0  0  0  0  0  0  0  0  0  0  0
  142.4880   71.7430  219.5460 N   0  0  0  0  0  0  0  0  0  0  0  0
  143.8260   72.1590  219.1950 C   0  0  0  0  0  0  0  0  0  0  0  0
  144.8530   71.1050  219.5590 C   0  0  0  0  0  0  0  0  0  0  0  0
  144.2820   69.7400  219.4700 C   0  0  0  0  0  0  0  0  0  0  0  0
  145.1240   68.6780  219.7200 C   0  0  0  0  0  0  0  0  0  0  0  0
  144.7080   67.3600  219.6670 C   0  0  0  0  0  0  0  0  0  0  0  0
  143.3960   67.1090  219.3520 C   0  0  0  0  0  0  0  0  0  0  0  0
  142.5380   68.1650  219.0980 C   0  0  0  0  0  0  0  0  0  0  0  0
  142.9670   69.4800  219.1530 C   0  0  0  0  0  0  0  0  0  0  0  0
  141.9750   70.5650  218.8660 C   0  0  0  0  0  0  0  0  0  0  0  0
  141.2000   71.7020  221.5650 N   0  0  0  0  0  0  0  0  0  0  0  0
  140.4140   72.2400  222.5110 C   0  0  0  0  0  0  0  0  0  0  0  0
  139.9620   71.4590  223.6100 N   0  0  0  0  0  0  0  0  0  0  0  0
  138.8390   70.5690  223.5100 C   0  0  0  0  0  0  0  0  0  0  0  0
  139.2030   69.1400  223.8520 C   0  0  0  0  0  0  0  0  0  0  0  0
  139.8450   69.1880  225.1970 C   0  0  0  0  0  0  0  0  0  0  0  0
  139.7680   68.0800  225.9930 C   0  0  0  0  0  0  0  0  0  0  0  0
  140.3180   67.9930  227.2540 C   0  0  0  0  0  0  0  0  0  0  0  0
  140.9840   69.1170  227.7170 C   0  0  0  0  0  0  0  0  0  0  0  0
  141.0690   70.2500  226.9170 C   0  0  0  0  0  0  0  0  0  0  0  0
  140.5100   70.3000  225.6650 C   0  0  0  0  0  0  0  0  0  0  0  0
  140.6490   71.5520  224.8790 C   0  0  0  0  0  0  0  0  0  0  0  0
  140.0550   73.5410  222.4050 N   0  0  0  0  0  0  0  0  0  0  0  0
  139.1400   76.1640  222.3900 C   0  0  0  0  0  0  0  0  0  0  0  0
  139.1200   77.6110  222.6640 C   0  0  0  0  0  0  0  0  0  0  0  0
  143.3150   78.2820  221.9360 H   0  0  0  0  0  0  0  0  0  0  0  0
  143.3980   80.0750  222.1530 H   0  0  0  0  0  0  0  0  0  0  0  0
  139.8100   79.9881  223.2669 H   0  0  0  0  0  0  0  0  0  0  0  0
  140.7418   80.3217  221.7354 H   0  0  0  0  0  0  0  0  0  0  0  0
  140.0644   77.8112  219.8804 H   0  0  0  0  0  0  0  0  0  0  0  0
  141.4348   78.7169  220.6014 H   0  0  0  0  0  0  0  0  0  0  0  0
  142.0297   76.3482  220.6206 H   0  0  0  0  0  0  0  0  0  0  0  0
  141.6958   76.7851  222.2890 H   0  0  0  0  0  0  0  0  0  0  0  0
  139.5421   75.7584  220.3157 H   0  0  0  0  0  0  0  0  0  0  0  0
  141.6303   74.3188  219.5689 H   0  0  0  0  0  0  0  0  0  0  0  0
  143.8702   72.3408  218.1110 H   0  0  0  0  0  0  0  0  0  0  0  0
  144.0596   73.0750  219.7575 H   0  0  0  0  0  0  0  0  0  0  0  0
  145.7054   71.1821  218.8680 H   0  0  0  0  0  0  0  0  0  0  0  0
  145.1746   71.2788  220.5965 H   0  0  0  0  0  0  0  0  0  0  0  0
  146.1737   68.8879  219.9730 H   0  0  0  0  0  0  0  0  0  0  0  0
  145.4084   66.5368  219.8714 H   0  0  0  0  0  0  0  0  0  0  0  0
  143.0281   66.0736  219.3016 H   0  0  0  0  0  0  0  0  0  0  0  0
  141.4883   67.9539  218.8460 H   0  0  0  0  0  0  0  0  0  0  0  0
  141.9038   70.7455  217.7832 H   0  0  0  0  0  0  0  0  0  0  0  0
  140.9650   70.2993  219.2113 H   0  0  0  0  0  0  0  0  0  0  0  0
  138.0556   70.9095  224.2030 H   0  0  0  0  0  0  0  0  0  0  0  0
  138.4896   70.5857  222.4671 H   0  0  0  0  0  0  0  0  0  0  0  0
  138.2999   68.5127  223.8821 H   0  0  0  0  0  0  0  0  0  0  0  0
  139.8778   68.7059  223.0996 H   0  0  0  0  0  0  0  0  0  0  0  0
  139.2331   67.2016  225.6027 H   0  0  0  0  0  0  0  0  0  0  0  0
  140.2328   67.0796  227.8609 H   0  0  0  0  0  0  0  0  0  0  0  0
  141.4444   69.1121  228.7160 H   0  0  0  0  0  0  0  0  0  0  0  0
  141.6007   71.1339  227.2992 H   0  0  0  0  0  0  0  0  0  0  0  0
  140.2227   72.3858  225.4562 H   0  0  0  0  0  0  0  0  0  0  0  0
  141.7182   71.7192  224.6817 H   0  0  0  0  0  0  0  0  0  0  0  0
  138.1185   75.8564  222.1218 H   0  0  0  0  0  0  0  0  0  0  0  0
  139.5218   75.6901  223.3063 H   0  0  0  0  0  0  0  0  0  0  0  0
  138.0615   77.9081  222.6997 H   0  0  0  0  0  0  0  0  0  0  0  0
  139.7134   77.6912  223.5868 H   0  0  0  0  0  0  0  0  0  0  0  0
  1  2  1  0
  2  3  2  0
  2  4  1  0
  4  5  1  0
  5  6  1  0
  6  7  1  0
  7  8  1  0
  8  9  1  0
  9 10  2  0
 10 11  1  0
 11 12  1  0
 12 13  1  0
 13 14  1  0
 14 15  1  0
 15 16  2  0
 16 17  1  0
 17 18  2  0
 18 19  1  0
 19 20  2  0
 20 21  1  0
 11 22  2  0
 22 23  1  0
 23 24  1  0
 24 25  1  0
 25 26  1  0
 26 27  1  0
 27 28  2  0
 28 29  1  0
 29 30  2  0
 30 31  1  0
 31 32  2  0
 32 33  1  0
 23 34  2  0
  8 35  1  0
 35 36  1  0
 36  5  1  0
 34  9  1  0
 21 12  1  0
 33 24  1  0
 20 15  1  0
 32 27  1  0
  1 37  1  0
  1 38  1  0
  4 39  1  0
  4 40  1  0
  6 41  1  0
  6 42  1  0
  7 43  1  0
  7 44  1  0
  8 45  1  0
 10 46  1  0
 13 47  1  0
 13 48  1  0
 14 49  1  0
 14 50  1  0
 16 51  1  0
 17 52  1  0
 18 53  1  0
 19 54  1  0
 21 55  1  0
 21 56  1  0
 25 57  1  0
 25 58  1  0
 26 59  1  0
 26 60  1  0
 28 61  1  0
 29 62  1  0
 30 63  1  0
 31 64  1  0
 33 65  1  0
 33 66  1  0
 35 67  1  0
 35 68  1  0
 36 69  1  0
 36 70  1  0
M  END
>  <smiles>  (17) 
NC(=O)CN1CCC(c2cc(N3CCc4ccccc4C3)nc(N3CCc4ccccc4C3)n2)CC1

>  <score_type>  (17) 
oracle

>  <origin>  (17) 
autodockgpu

>  <m_score__min__energy>  (17) 
-11.01

>  <m_primary>  (17) 
energy

>  <rmsd>  (17) 
10.357702610602399

>  <m_score__min__rmsd>  (17) 
10.357702610602399

>  <meeko>  (17) 
{"free_energy": -10.17, "intermolecular_energy": -11.67, "internal_energy": -1.37, "cluster_size": 12, "cluster_id": 3, "rank_in_cluster": 2}

>  <energy>  (17) 
-10.2

>  <cluster_rmsd>  (17) 
1.18

>  <cluster>  (17) 
1

$$$$

     RDKit          3D

 70 75  0  0  0  0  0  0  0  0999 V2000
  143.8390   68.6010  219.2230 N   0  0  0  0  0  0  0  0  0  0  0  0
  145.2150   68.9780  219.1510 C   0  0  0  0  0  0  0  0  0  0  0  0
  145.9800   68.5100  220.0090 O   0  0  0  0  0  0  0  0  0  0  0  0
  145.6060   69.8930  218.0600 C   0  0  0  0  0  0  0  0  0  0  0  0
  145.4000   71.2830  218.3870 N   0  0  0  0  0  0  0  0  0  0  0  0
  144.1920   71.6980  217.7470 C   0  0  0  0  0  0  0  0  0  0  0  0
  143.0750   71.7340  218.7700 C   0  0  0  0  0  0  0  0  0  0  0  0
  143.4290   72.9150  219.6560 C   0  0  0  0  0  0  0  0  0  0  0  0
  142.3170   73.3710  220.5030 C   0  0  0  0  0  0  0  0  0  0  0  0
  141.8250   74.6780  220.4280 C   0  0  0  0  0  0  0  0  0  0  0  0
  140.7890   75.1190  221.2120 C   0  0  0  0  0  0  0  0  0  0  0  0
  140.2540   76.4300  221.1780 N   0  0  0  0  0  0  0  0  0  0  0  0
  138.9170   76.7820  221.5960 C   0  0  0  0  0  0  0  0  0  0  0  0
  138.9310   77.7280  222.7790 C   0  0  0  0  0  0  0  0  0  0  0  0
  140.1280   78.6030  222.7580 C   0  0  0  0  0  0  0  0  0  0  0  0
  140.2410   79.5560  223.7480 C   0  0  0  0  0  0  0  0  0  0  0  0
  141.3100   80.4290  223.8330 C   0  0  0  0  0  0  0  0  0  0  0  0
  142.2970   80.3350  222.8840 C   0  0  0  0  0  0  0  0  0  0  0  0
  142.1970   79.3850  221.8830 C   0  0  0  0  0  0  0  0  0  0  0  0
  141.1220   78.5170  221.8080 C   0  0  0  0  0  0  0  0  0  0  0  0
  141.0910   77.5170  220.6940 C   0  0  0  0  0  0  0  0  0  0  0  0
  140.2620   74.2070  222.0730 N   0  0  0  0  0  0  0  0  0  0  0  0
  140.7060   72.9450  222.1740 C   0  0  0  0  0  0  0  0  0  0  0  0
  140.1120   72.0370  223.0940 N   0  0  0  0  0  0  0  0  0  0  0  0
  138.9490   71.2610  222.7650 C   0  0  0  0  0  0  0  0  0  0  0  0
  139.1920   69.7730  222.8970 C   0  0  0  0  0  0  0  0  0  0  0  0
  139.7150   69.5620  224.2780 C   0  0  0  0  0  0  0  0  0  0  0  0
  139.5000   68.3520  224.8750 C   0  0  0  0  0  0  0  0  0  0  0  0
  139.9300   68.0280  226.1440 C   0  0  0  0  0  0  0  0  0  0  0  0
  140.6220   69.0130  226.8330 C   0  0  0  0  0  0  0  0  0  0  0  0
  140.8460   70.2470  226.2360 C   0  0  0  0  0  0  0  0  0  0  0  0
  140.4030   70.5340  224.9700 C   0  0  0  0  0  0  0  0  0  0  0  0
  140.6890   71.8800  224.4100 C   0  0  0  0  0  0  0  0  0  0  0  0
  141.7300   72.5430  221.3850 N   0  0  0  0  0  0  0  0  0  0  0  0
  144.6510   72.5070  220.4330 C   0  0  0  0  0  0  0  0  0  0  0  0
  145.5660   71.5810  219.7430 C   0  0  0  0  0  0  0  0  0  0  0  0
  143.2080   69.0200  219.9490 H   0  0  0  0  0  0  0  0  0  0  0  0
  143.4310   67.8960  218.5500 H   0  0  0  0  0  0  0  0  0  0  0  0
  146.6727   69.7394  217.8395 H   0  0  0  0  0  0  0  0  0  0  0  0
  144.9692   69.6617  217.1934 H   0  0  0  0  0  0  0  0  0  0  0  0
  144.3293   72.7008  217.3163 H   0  0  0  0  0  0  0  0  0  0  0  0
  143.9363   70.9905  216.9444 H   0  0  0  0  0  0  0  0  0  0  0  0
  142.1017   71.8892  218.2814 H   0  0  0  0  0  0  0  0  0  0  0  0
  142.9850   70.7933  219.3330 H   0  0  0  0  0  0  0  0  0  0  0  0
  143.6421   73.8037  219.0439 H   0  0  0  0  0  0  0  0  0  0  0  0
  142.2852   75.3776  219.7147 H   0  0  0  0  0  0  0  0  0  0  0  0
  138.3975   77.2680  220.7570 H   0  0  0  0  0  0  0  0  0  0  0  0
  138.3988   75.8605  221.8998 H   0  0  0  0  0  0  0  0  0  0  0  0
  138.0283   78.3557  222.7460 H   0  0  0  0  0  0  0  0  0  0  0  0
  138.9564   77.1288  223.7011 H   0  0  0  0  0  0  0  0  0  0  0  0
  139.4451   79.6249  224.5041 H   0  0  0  0  0  0  0  0  0  0  0  0
  141.3676   81.1769  224.6376 H   0  0  0  0  0  0  0  0  0  0  0  0
  143.1635   81.0117  222.9190 H   0  0  0  0  0  0  0  0  0  0  0  0
  142.9931   79.3180  221.1269 H   0  0  0  0  0  0  0  0  0  0  0  0
  140.6568   77.9634  219.7873 H   0  0  0  0  0  0  0  0  0  0  0  0
  142.0998   77.1700  220.4258 H   0  0  0  0  0  0  0  0  0  0  0  0
  138.1305   71.5467  223.4421 H   0  0  0  0  0  0  0  0  0  0  0  0
  138.6941   71.4674  221.7150 H   0  0  0  0  0  0  0  0  0  0  0  0
  138.2527   69.2184  222.7553 H   0  0  0  0  0  0  0  0  0  0  0  0
  139.9018   69.4121  222.1381 H   0  0  0  0  0  0  0  0  0  0  0  0
  138.9489   67.5880  224.3071 H   0  0  0  0  0  0  0  0  0  0  0  0
  139.7346   67.0402  226.5869 H   0  0  0  0  0  0  0  0  0  0  0  0
  140.9926   68.8173  227.8500 H   0  0  0  0  0  0  0  0  0  0  0  0
  141.3957   71.0180  226.7958 H   0  0  0  0  0  0  0  0  0  0  0  0
  140.2662   72.6435  225.0796 H   0  0  0  0  0  0  0  0  0  0  0  0
  141.7797   71.9955  224.3259 H   0  0  0  0  0  0  0  0  0  0  0  0
  145.2150   73.4187  220.6795 H   0  0  0  0  0  0  0  0  0  0  0  0
  144.2791   71.9616  221.3129 H   0  0  0  0  0  0  0  0  0  0  0  0
  146.5765   72.0023  219.8494 H   0  0  0  0  0  0  0  0  0  0  0  0
  145.3504   70.6189  220.2307 H   0  0  0  0  0  0  0  0  0  0  0  0
  1  2  1  0
  2  3  2  0
  2  4  1  0
  4  5  1  0
  5  6  1  0
  6  7  1  0
  7  8  1  0
  8  9  1  0
  9 10  2  0
 10 11  1  0
 11 12  1  0
 12 13  1  0
 13 14  1  0
 14 15  1  0
 15 16  2  0
 16 17  1  0
 17 18  2  0
 18 19  1  0
 19 20  2  0
 20 21  1  0
 11 22  2  0
 22 23  1  0
 23 24  1  0
 24 25  1  0
 25 26  1  0
 26 27  1  0
 27 28  2  0
 28 29  1  0
 29 30  2  0
 30 31  1  0
 31 32  2  0
 32 33  1  0
 23 34  2  0
  8 35  1  0
 35 36  1  0
 36  5  1  0
 34  9  1  0
 21 12  1  0
 33 24  1  0
 20 15  1  0
 32 27  1  0
  1 37  1  0
  1 38  1  0
  4 39  1  0
  4 40  1  0
  6 41  1  0
  6 42  1  0
  7 43  1  0
  7 44  1  0
  8 45  1  0
 10 46  1  0
 13 47  1  0
 13 48  1  0
 14 49  1  0
 14 50  1  0
 16 51  1  0
 17 52  1  0
 18 53  1  0
 19 54  1  0
 21 55  1  0
 21 56  1  0
 25 57  1  0
 25 58  1  0
 26 59  1  0
 26 60  1  0
 28 61  1  0
 29 62  1  0
 30 63  1  0
 31 64  1  0
 33 65  1  0
 33 66  1  0
 35 67  1  0
 35 68  1  0
 36 69  1  0
 36 70  1  0
M  END
>  <smiles>  (18) 
NC(=O)CN1CCC(c2cc(N3CCc4ccccc4C3)nc(N3CCc4ccccc4C3)n2)CC1

>  <score_type>  (18) 
oracle

>  <origin>  (18) 
autodockgpu

>  <m_score__min__energy>  (18) 
-11.01

>  <m_primary>  (18) 
energy

>  <rmsd>  (18) 
3.8643396440365083

>  <m_score__min__rmsd>  (18) 
3.8643396440365083

>  <meeko>  (18) 
{"free_energy": -10.44, "intermolecular_energy": -11.93, "internal_energy": -1.45, "cluster_size": 26, "cluster_id": 1, "rank_in_cluster": 7}

>  <energy>  (18) 
-10.19

>  <cluster_rmsd>  (18) 
1.13

>  <cluster>  (18) 
1

$$$$

     RDKit          3D

 70 75  0  0  0  0  0  0  0  0999 V2000
  145.3360   74.9870  216.3720 N   0  0  0  0  0  0  0  0  0  0  0  0
  144.9660   73.6080  216.3320 C   0  0  0  0  0  0  0  0  0  0  0  0
  143.8580   73.3280  215.8490 O   0  0  0  0  0  0  0  0  0  0  0  0
  145.9390   72.6350  216.8690 C   0  0  0  0  0  0  0  0  0  0  0  0
  145.5290   72.0620  218.1280 N   0  0  0  0  0  0  0  0  0  0  0  0
  145.7130   73.0610  219.1320 C   0  0  0  0  0  0  0  0  0  0  0  0
  144.3730   73.6840  219.4670 C   0  0  0  0  0  0  0  0  0  0  0  0
  143.6310   72.5800  220.1990 C   0  0  0  0  0  0  0  0  0  0  0  0
  142.4470   73.0510  220.9330 C   0  0  0  0  0  0  0  0  0  0  0  0
  141.9370   74.3410  220.7520 C   0  0  0  0  0  0  0  0  0  0  0  0
  140.8340   74.7960  221.4300 C   0  0  0  0  0  0  0  0  0  0  0  0
  140.2780   76.0900  221.2860 N   0  0  0  0  0  0  0  0  0  0  0  0
  138.9100   76.4350  221.5970 C   0  0  0  0  0  0  0  0  0  0  0  0
  138.8290   77.4460  222.7220 C   0  0  0  0  0  0  0  0  0  0  0  0
  140.0080   78.3460  222.7270 C   0  0  0  0  0  0  0  0  0  0  0  0
  140.0380   79.3550  223.6660 C   0  0  0  0  0  0  0  0  0  0  0  0
  141.0820   80.2550  223.7680 C   0  0  0  0  0  0  0  0  0  0  0  0
  142.1310   80.1310  222.8910 C   0  0  0  0  0  0  0  0  0  0  0  0
  142.1140   79.1240  221.9420 C   0  0  0  0  0  0  0  0  0  0  0  0
  141.0630   78.2290  221.8500 C   0  0  0  0  0  0  0  0  0  0  0  0
  141.1230   77.1670  220.7950 C   0  0  0  0  0  0  0  0  0  0  0  0
  140.2600   73.9170  222.2940 N   0  0  0  0  0  0  0  0  0  0  0  0
  140.7190   72.6720  222.4950 C   0  0  0  0  0  0  0  0  0  0  0  0
  140.0730   71.7990  223.4130 N   0  0  0  0  0  0  0  0  0  0  0  0
  138.8730   71.0850  223.0790 C   0  0  0  0  0  0  0  0  0  0  0  0
  139.0360   69.5860  223.2140 C   0  0  0  0  0  0  0  0  0  0  0  0
  139.5400   69.3490  224.5980 C   0  0  0  0  0  0  0  0  0  0  0  0
  139.2580   68.1530  225.1960 C   0  0  0  0  0  0  0  0  0  0  0  0
  139.6630   67.8080  226.4670 C   0  0  0  0  0  0  0  0  0  0  0  0
  140.4020   68.7570  227.1590 C   0  0  0  0  0  0  0  0  0  0  0  0
  140.6950   69.9760  226.5610 C   0  0  0  0  0  0  0  0  0  0  0  0
  140.2750   70.2850  225.2920 C   0  0  0  0  0  0  0  0  0  0  0  0
  140.6340   71.6130  224.7330 C   0  0  0  0  0  0  0  0  0  0  0  0
  141.8090   72.2560  221.8100 N   0  0  0  0  0  0  0  0  0  0  0  0
  143.3210   71.5260  219.1690 C   0  0  0  0  0  0  0  0  0  0  0  0
  144.3010   71.3940  218.0780 C   0  0  0  0  0  0  0  0  0  0  0  0
  144.9140   75.6320  217.0840 H   0  0  0  0  0  0  0  0  0  0  0  0
  146.0380   75.3830  215.6880 H   0  0  0  0  0  0  0  0  0  0  0  0
  146.0617   71.8224  216.1378 H   0  0  0  0  0  0  0  0  0  0  0  0
  146.8807   73.1755  217.0453 H   0  0  0  0  0  0  0  0  0  0  0  0
  146.1407   72.6007  220.0349 H   0  0  0  0  0  0  0  0  0  0  0  0
  146.3984   73.8368  218.7600 H   0  0  0  0  0  0  0  0  0  0  0  0
  144.5013   74.5648  220.1133 H   0  0  0  0  0  0  0  0  0  0  0  0
  143.8349   74.0386  218.5756 H   0  0  0  0  0  0  0  0  0  0  0  0
  144.2585   72.1625  221.0002 H   0  0  0  0  0  0  0  0  0  0  0  0
  142.4378   75.0145  220.0410 H   0  0  0  0  0  0  0  0  0  0  0  0
  138.4371   76.8612  220.7000 H   0  0  0  0  0  0  0  0  0  0  0  0
  138.3907   75.5206  221.9197 H   0  0  0  0  0  0  0  0  0  0  0  0
  137.9183   78.0499  222.5955 H   0  0  0  0  0  0  0  0  0  0  0  0
  138.8061   76.9003  223.6768 H   0  0  0  0  0  0  0  0  0  0  0  0
  139.1937   79.4479  224.3649 H   0  0  0  0  0  0  0  0  0  0  0  0
  141.0727   81.0481  224.5302 H   0  0  0  0  0  0  0  0  0  0  0  0
  142.9802   80.8282  222.9424 H   0  0  0  0  0  0  0  0  0  0  0  0
  142.9581   79.0328  221.2426 H   0  0  0  0  0  0  0  0  0  0  0  0
  140.7396   77.5520  219.8385 H   0  0  0  0  0  0  0  0  0  0  0  0
  142.1535   76.8287  220.6119 H   0  0  0  0  0  0  0  0  0  0  0  0
  138.0673   71.4146  223.7514 H   0  0  0  0  0  0  0  0  0  0  0  0
  138.6352   71.3028  222.0273 H   0  0  0  0  0  0  0  0  0  0  0  0
  138.0693   69.0819  223.0680 H   0  0  0  0  0  0  0  0  0  0  0  0
  139.7297   69.1870  222.4593 H   0  0  0  0  0  0  0  0  0  0  0  0
  138.6699   67.4186  224.6261 H   0  0  0  0  0  0  0  0  0  0  0  0
  139.4138   66.8323  226.9096 H   0  0  0  0  0  0  0  0  0  0  0  0
  140.7550   68.5444  228.1789 H   0  0  0  0  0  0  0  0  0  0  0  0
  141.2825   70.7172  227.1228 H   0  0  0  0  0  0  0  0  0  0  0  0
  140.2481   72.3982  225.3998 H   0  0  0  0  0  0  0  0  0  0  0  0
  141.7297   71.6710  224.6548 H   0  0  0  0  0  0  0  0  0  0  0  0
  143.2570   70.5568  219.6854 H   0  0  0  0  0  0  0  0  0  0  0  0
  142.3805   71.8392  218.6921 H   0  0  0  0  0  0  0  0  0  0  0  0
  144.5315   70.3218  217.9926 H   0  0  0  0  0  0  0  0  0  0  0  0
  143.7925   71.8852  217.2353 H   0  0  0  0  0  0  0  0  0  0  0  0
  1  2  1  0
  2  3  2  0
  2  4  1  0
  4  5  1  0
  5  6  1  0
  6  7  1  0
  7  8  1  0
  8  9  1  0
  9 10  2  0
 10 11  1  0
 11 12  1  0
 12 13  1  0
 13 14  1  0
 14 15  1  0
 15 16  2  0
 16 17  1  0
 17 18  2  0
 18 19  1  0
 19 20  2  0
 20 21  1  0
 11 22  2  0
 22 23  1  0
 23 24  1  0
 24 25  1  0
 25 26  1  0
 26 27  1  0
 27 28  2  0
 28 29  1  0
 29 30  2  0
 30 31  1  0
 31 32  2  0
 32 33  1  0
 23 34  2  0
  8 35  1  0
 35 36  1  0
 36  5  1  0
 34  9  1  0
 21 12  1  0
 33 24  1  0
 20 15  1  0
 32 27  1  0
  1 37  1  0
  1 38  1  0
  4 39  1  0
  4 40  1  0
  6 41  1  0
  6 42  1  0
  7 43  1  0
  7 44  1  0
  8 45  1  0
 10 46  1  0
 13 47  1  0
 13 48  1  0
 14 49  1  0
 14 50  1  0
 16 51  1  0
 17 52  1  0
 18 53  1  0
 19 54  1  0
 21 55  1  0
 21 56  1  0
 25 57  1  0
 25 58  1  0
 26 59  1  0
 26 60  1  0
 28 61  1  0
 29 62  1  0
 30 63  1  0
 31 64  1  0
 33 65  1  0
 33 66  1  0
 35 67  1  0
 35 68  1  0
 36 69  1  0
 36 70  1  0
M  END
>  <smiles>  (19) 
NC(=O)CN1CCC(c2cc(N3CCc4ccccc4C3)nc(N3CCc4ccccc4C3)n2)CC1

>  <score_type>  (19) 
oracle

>  <origin>  (19) 
autodockgpu

>  <m_score__min__energy>  (19) 
-11.01

>  <m_primary>  (19) 
energy

>  <rmsd>  (19) 
4.165292342976592

>  <m_score__min__rmsd>  (19) 
4.165292342976592

>  <meeko>  (19) 
{"free_energy": -10.34, "intermolecular_energy": -11.83, "internal_energy": -1.41, "cluster_size": 12, "cluster_id": 2, "rank_in_cluster": 8}

>  <energy>  (19) 
-10.13

>  <cluster_rmsd>  (19) 
0.98

>  <cluster>  (19) 
1

$$$$

     RDKit          3D

 70 75  0  0  0  0  0  0  0  0999 V2000
  145.3760   73.4030  215.3830 N   0  0  0  0  0  0  0  0  0  0  0  0
  146.2420   72.4700  216.0300 C   0  0  0  0  0  0  0  0  0  0  0  0
  147.4640   72.6450  215.9060 O   0  0  0  0  0  0  0  0  0  0  0  0
  145.6050   71.3760  216.7920 C   0  0  0  0  0  0  0  0  0  0  0  0
  145.5720   71.6220  218.2130 N   0  0  0  0  0  0  0  0  0  0  0  0
  145.3730   73.0240  218.3990 C   0  0  0  0  0  0  0  0  0  0  0  0
  143.9220   73.2780  218.7540 C   0  0  0  0  0  0  0  0  0  0  0  0
  143.7850   72.7120  220.1570 C   0  0  0  0  0  0  0  0  0  0  0  0
  142.5680   73.1530  220.8540 C   0  0  0  0  0  0  0  0  0  0  0  0
  142.0610   74.4470  220.6990 C   0  0  0  0  0  0  0  0  0  0  0  0
  140.9270   74.8740  221.3430 C   0  0  0  0  0  0  0  0  0  0  0  0
  140.3720   76.1710  221.2220 N   0  0  0  0  0  0  0  0  0  0  0  0
  139.0040   76.5110  221.5360 C   0  0  0  0  0  0  0  0  0  0  0  0
  138.9210   77.5010  222.6800 C   0  0  0  0  0  0  0  0  0  0  0  0
  140.1000   78.3990  222.7060 C   0  0  0  0  0  0  0  0  0  0  0  0
  140.1290   79.3900  223.6640 C   0  0  0  0  0  0  0  0  0  0  0  0
  141.1740   80.2870  223.7870 C   0  0  0  0  0  0  0  0  0  0  0  0
  142.2250   80.1790  222.9100 C   0  0  0  0  0  0  0  0  0  0  0  0
  142.2100   79.1900  221.9420 C   0  0  0  0  0  0  0  0  0  0  0  0
  141.1580   78.2980  221.8290 C   0  0  0  0  0  0  0  0  0  0  0  0
  141.2200   77.2560  220.7550 C   0  0  0  0  0  0  0  0  0  0  0  0
  140.3180   73.9620  222.1470 N   0  0  0  0  0  0  0  0  0  0  0  0
  140.7740   72.7110  222.3220 C   0  0  0  0  0  0  0  0  0  0  0  0
  140.0900   71.8020  223.1770 N   0  0  0  0  0  0  0  0  0  0  0  0
  138.9490   71.0490  222.7400 C   0  0  0  0  0  0  0  0  0  0  0  0
  139.1580   69.5550  222.8730 C   0  0  0  0  0  0  0  0  0  0  0  0
  139.5590   69.3190  224.2900 C   0  0  0  0  0  0  0  0  0  0  0  0
  139.2770   68.1060  224.8520 C   0  0  0  0  0  0  0  0  0  0  0  0
  139.5930   67.7600  226.1480 C   0  0  0  0  0  0  0  0  0  0  0  0
  140.2390   68.7260  226.9060 C   0  0  0  0  0  0  0  0  0  0  0  0
  140.5310   69.9640  226.3460 C   0  0  0  0  0  0  0  0  0  0  0  0
  140.2010   70.2730  225.0510 C   0  0  0  0  0  0  0  0  0  0  0  0
  140.5520   71.6200  224.5350 C   0  0  0  0  0  0  0  0  0  0  0  0
  141.8950   72.3230  221.6710 N   0  0  0  0  0  0  0  0  0  0  0  0
  143.8940   71.2170  220.0190 C   0  0  0  0  0  0  0  0  0  0  0  0
  144.7550   70.7380  218.9260 C   0  0  0  0  0  0  0  0  0  0  0  0
  145.2300   73.3650  214.3450 H   0  0  0  0  0  0  0  0  0  0  0  0
  144.8680   74.1480  215.9350 H   0  0  0  0  0  0  0  0  0  0  0  0
  144.5722   71.2546  216.4335 H   0  0  0  0  0  0  0  0  0  0  0  0
  146.2061   70.4692  216.6295 H   0  0  0  0  0  0  0  0  0  0  0  0
  146.0194   73.3825  219.2137 H   0  0  0  0  0  0  0  0  0  0  0  0
  145.6261   73.5596  217.4721 H   0  0  0  0  0  0  0  0  0  0  0  0
  143.6991   74.3551  218.7430 H   0  0  0  0  0  0  0  0  0  0  0  0
  143.2235   72.8168  218.0403 H   0  0  0  0  0  0  0  0  0  0  0  0
  144.5843   73.0972  220.8072 H   0  0  0  0  0  0  0  0  0  0  0  0
  142.5904   75.1480  220.0369 H   0  0  0  0  0  0  0  0  0  0  0  0
  138.5336   76.9544  220.6460 H   0  0  0  0  0  0  0  0  0  0  0  0
  138.4832   75.5911  221.8402 H   0  0  0  0  0  0  0  0  0  0  0  0
  138.0114   78.1082  222.5623 H   0  0  0  0  0  0  0  0  0  0  0  0
  138.8950   76.9371  223.6241 H   0  0  0  0  0  0  0  0  0  0  0  0
  139.2826   79.4707  224.3620 H   0  0  0  0  0  0  0  0  0  0  0  0
  141.1637   81.0647  224.5649 H   0  0  0  0  0  0  0  0  0  0  0  0
  143.0744   80.8748  222.9765 H   0  0  0  0  0  0  0  0  0  0  0  0
  143.0566   79.1109  221.2441 H   0  0  0  0  0  0  0  0  0  0  0  0
  140.8406   77.6595  219.8046 H   0  0  0  0  0  0  0  0  0  0  0  0
  142.2508   76.9196  220.5697 H   0  0  0  0  0  0  0  0  0  0  0  0
  138.0798   71.3397  223.3483 H   0  0  0  0  0  0  0  0  0  0  0  0
  138.7881   71.2717  221.6749 H   0  0  0  0  0  0  0  0  0  0  0  0
  138.2259   69.0172  222.6452 H   0  0  0  0  0  0  0  0  0  0  0  0
  139.9243   69.1921  222.1723 H   0  0  0  0  0  0  0  0  0  0  0  0
  138.7647   67.3573  224.2299 H   0  0  0  0  0  0  0  0  0  0  0  0
  139.3461   66.7703  226.5597 H   0  0  0  0  0  0  0  0  0  0  0  0
  140.5194   68.5125  227.9480 H   0  0  0  0  0  0  0  0  0  0  0  0
  141.0427   70.7195  226.9604 H   0  0  0  0  0  0  0  0  0  0  0  0
  140.0854   72.3818  225.1768 H   0  0  0  0  0  0  0  0  0  0  0  0
  141.6475   71.7194  224.5441 H   0  0  0  0  0  0  0  0  0  0  0  0
  144.2936   70.8187  220.9633 H   0  0  0  0  0  0  0  0  0  0  0  0
  142.8804   70.8634  219.7790 H   0  0  0  0  0  0  0  0  0  0  0  0
  145.4211   69.9789  219.3621 H   0  0  0  0  0  0  0  0  0  0  0  0
  144.0266   70.4158  218.1673 H   0  0  0  0  0  0  0  0  0  0  0  0
  1  2  1  0
  2  3  2  0
  2  4  1  0
  4  5  1  0
  5  6  1  0
  6  7  1  0
  7  8  1  0
  8  9  1  0
  9 10  2  0
 10 11  1  0
 11 12  1  0
 12 13  1  0
 13 14  1  0
 14 15  1  0
 15 16  2  0
 16 17  1  0
 17 18  2  0
 18 19  1  0
 19 20  2  0
 20 21  1  0
 11 22  2  0
 22 23  1  0
 23 24  1  0
 24 25  1  0
 25 26  1  0
 26 27  1  0
 27 28  2  0
 28 29  1  0
 29 30  2  0
 30 31  1  0
 31 32  2  0
 32 33  1  0
 23 34  2  0
  8 35  1  0
 35 36  1  0
 36  5  1  0
 34  9  1  0
 21 12  1  0
 33 24  1  0
 20 15  1  0
 32 27  1  0
  1 37  1  0
  1 38  1  0
  4 39  1  0
  4 40  1  0
  6 41  1  0
  6 42  1  0
  7 43  1  0
  7 44  1  0
  8 45  1  0
 10 46  1  0
 13 47  1  0
 13 48  1  0
 14 49  1  0
 14 50  1  0
 16 51  1  0
 17 52  1  0
 18 53  1  0
 19 54  1  0
 21 55  1  0
 21 56  1  0
 25 57  1  0
 25 58  1  0
 26 59  1  0
 26 60  1  0
 28 61  1  0
 29 62  1  0
 30 63  1  0
 31 64  1  0
 33 65  1  0
 33 66  1  0
 35 67  1  0
 35 68  1  0
 36 69  1  0
 36 70  1  0
M  END
>  <smiles>  (20) 
NC(=O)CN1CCC(c2cc(N3CCc4ccccc4C3)nc(N3CCc4ccccc4C3)n2)CC1

>  <score_type>  (20) 
oracle

>  <origin>  (20) 
autodockgpu

>  <m_score__min__energy>  (20) 
-11.01

>  <m_primary>  (20) 
energy

>  <rmsd>  (20) 
4.0924970317278975

>  <m_score__min__rmsd>  (20) 
4.0924970317278975

>  <meeko>  (20) 
{"free_energy": -9.93, "intermolecular_energy": -11.42, "internal_energy": -1.34, "cluster_size": 26, "cluster_id": 1, "rank_in_cluster": 23}

>  <energy>  (20) 
-10.1

>  <cluster_rmsd>  (20) 
1.28

>  <cluster>  (20) 
1

$$$$

     RDKit          3D

 70 75  0  0  0  0  0  0  0  0999 V2000
  142.6210   79.7670  222.6910 N   0  0  0  0  0  0  0  0  0  0  0  0
  141.5890   79.0720  223.3930 C   0  0  0  0  0  0  0  0  0  0  0  0
  141.9400   78.2600  224.2630 O   0  0  0  0  0  0  0  0  0  0  0  0
  140.1940   79.3820  223.0190 C   0  0  0  0  0  0  0  0  0  0  0  0
  139.6280   78.4230  222.1020 N   0  0  0  0  0  0  0  0  0  0  0  0
  140.6820   77.9750  221.2480 C   0  0  0  0  0  0  0  0  0  0  0  0
  141.1540   76.6120  221.7130 C   0  0  0  0  0  0  0  0  0  0  0  0
  140.0000   75.6880  221.3640 C   0  0  0  0  0  0  0  0  0  0  0  0
  140.3570   74.2630  221.3920 C   0  0  0  0  0  0  0  0  0  0  0  0
  141.0960   73.6700  220.3640 C   0  0  0  0  0  0  0  0  0  0  0  0
  141.4370   72.3410  220.3750 C   0  0  0  0  0  0  0  0  0  0  0  0
  142.1810   71.6910  219.3610 N   0  0  0  0  0  0  0  0  0  0  0  0
  143.1160   72.3500  218.4790 C   0  0  0  0  0  0  0  0  0  0  0  0
  144.5270   71.8320  218.6710 C   0  0  0  0  0  0  0  0  0  0  0  0
  144.5300   70.4090  219.0850 C   0  0  0  0  0  0  0  0  0  0  0  0
  145.7530   69.7910  219.2410 C   0  0  0  0  0  0  0  0  0  0  0  0
  145.8830   68.4680  219.6230 C   0  0  0  0  0  0  0  0  0  0  0  0
  144.7380   67.7470  219.8550 C   0  0  0  0  0  0  0  0  0  0  0  0
  143.5030   68.3530  219.7010 C   0  0  0  0  0  0  0  0  0  0  0  0
  143.3860   69.6780  219.3180 C   0  0  0  0  0  0  0  0  0  0  0  0
  142.0130   70.2590  219.1770 C   0  0  0  0  0  0  0  0  0  0  0  0
  141.0120   71.6260  221.4510 N   0  0  0  0  0  0  0  0  0  0  0  0
  140.3020   72.1570  222.4580 C   0  0  0  0  0  0  0  0  0  0  0  0
  139.8880   71.3560  223.5580 N   0  0  0  0  0  0  0  0  0  0  0  0
  138.8020   70.4210  223.4600 C   0  0  0  0  0  0  0  0  0  0  0  0
  139.2240   69.0070  223.7960 C   0  0  0  0  0  0  0  0  0  0  0  0
  139.8710   69.0780  225.1380 C   0  0  0  0  0  0  0  0  0  0  0  0
  139.8440   67.9660  225.9310 C   0  0  0  0  0  0  0  0  0  0  0  0
  140.4030   67.8970  227.1890 C   0  0  0  0  0  0  0  0  0  0  0  0
  141.0260   69.0470  227.6520 C   0  0  0  0  0  0  0  0  0  0  0  0
  141.0600   70.1840  226.8550 C   0  0  0  0  0  0  0  0  0  0  0  0
  140.4930   70.2150  225.6060 C   0  0  0  0  0  0  0  0  0  0  0  0
  140.5770   71.4740  224.8230 C   0  0  0  0  0  0  0  0  0  0  0  0
  139.9830   73.4720  222.4140 N   0  0  0  0  0  0  0  0  0  0  0  0
  138.8760   76.0480  222.2990 C   0  0  0  0  0  0  0  0  0  0  0  0
  138.8180   77.4600  222.7120 C   0  0  0  0  0  0  0  0  0  0  0  0
  143.1810   79.2830  221.9480 H   0  0  0  0  0  0  0  0  0  0  0  0
  142.8390   80.7790  222.9050 H   0  0  0  0  0  0  0  0  0  0  0  0
  139.5815   79.3966  223.9326 H   0  0  0  0  0  0  0  0  0  0  0  0
  140.1994   80.3579  222.5114 H   0  0  0  0  0  0  0  0  0  0  0  0
  140.3129   77.9037  220.2142 H   0  0  0  0  0  0  0  0  0  0  0  0
  141.5180   78.6889  221.2866 H   0  0  0  0  0  0  0  0  0  0  0  0
  142.0696   76.3126  221.1820 H   0  0  0  0  0  0  0  0  0  0  0  0
  141.4049   76.5922  222.7838 H   0  0  0  0  0  0  0  0  0  0  0  0
  139.6920   75.8352  220.3183 H   0  0  0  0  0  0  0  0  0  0  0  0
  141.4159   74.2919  219.5149 H   0  0  0  0  0  0  0  0  0  0  0  0
  142.8096   72.1725  217.4376 H   0  0  0  0  0  0  0  0  0  0  0  0
  143.1100   73.4247  218.7136 H   0  0  0  0  0  0  0  0  0  0  0  0
  145.0761   71.9299  217.7229 H   0  0  0  0  0  0  0  0  0  0  0  0
  145.0077   72.4238  219.4639 H   0  0  0  0  0  0  0  0  0  0  0  0
  146.6654   70.3761  219.0533 H   0  0  0  0  0  0  0  0  0  0  0  0
  146.8751   68.0069  219.7376 H   0  0  0  0  0  0  0  0  0  0  0  0
  144.8017   66.6926  220.1618 H   0  0  0  0  0  0  0  0  0  0  0  0
  142.5913   67.7666  219.8878 H   0  0  0  0  0  0  0  0  0  0  0  0
  141.6046   70.0443  218.1785 H   0  0  0  0  0  0  0  0  0  0  0  0
  141.3102   69.8316  219.9074 H   0  0  0  0  0  0  0  0  0  0  0  0
  138.0083   70.7276  224.1572 H   0  0  0  0  0  0  0  0  0  0  0  0
  138.4487   70.4263  222.4183 H   0  0  0  0  0  0  0  0  0  0  0  0
  138.3467   68.3442  223.8294 H   0  0  0  0  0  0  0  0  0  0  0  0
  139.9111   68.6013  223.0388 H   0  0  0  0  0  0  0  0  0  0  0  0
  139.3438   67.0676  225.5403 H   0  0  0  0  0  0  0  0  0  0  0  0
  140.3576   66.9792  227.7936 H   0  0  0  0  0  0  0  0  0  0  0  0
  141.4921   69.0582  228.6483 H   0  0  0  0  0  0  0  0  0  0  0  0
  141.5570   71.0879  227.2371 H   0  0  0  0  0  0  0  0  0  0  0  0
  140.1201   72.2882  225.4046 H   0  0  0  0  0  0  0  0  0  0  0  0
  141.6374   71.6856  224.6209 H   0  0  0  0  0  0  0  0  0  0  0  0
  137.9278   75.8029  221.7981 H   0  0  0  0  0  0  0  0  0  0  0  0
  139.0552   75.4730  223.2194 H   0  0  0  0  0  0  0  0  0  0  0  0
  137.7781   77.7867  222.5637 H   0  0  0  0  0  0  0  0  0  0  0  0
  139.2118   77.4280  223.7386 H   0  0  0  0  0  0  0  0  0  0  0  0
  1  2  1  0
  2  3  2  0
  2  4  1  0
  4  5  1  0
  5  6  1  0
  6  7  1  0
  7  8  1  0
  8  9  1  0
  9 10  2  0
 10 11  1  0
 11 12  1  0
 12 13  1  0
 13 14  1  0
 14 15  1  0
 15 16  2  0
 16 17  1  0
 17 18  2  0
 18 19  1  0
 19 20  2  0
 20 21  1  0
 11 22  2  0
 22 23  1  0
 23 24  1  0
 24 25  1  0
 25 26  1  0
 26 27  1  0
 27 28  2  0
 28 29  1  0
 29 30  2  0
 30 31  1  0
 31 32  2  0
 32 33  1  0
 23 34  2  0
  8 35  1  0
 35 36  1  0
 36  5  1  0
 34  9  1  0
 21 12  1  0
 33 24  1  0
 20 15  1  0
 32 27  1  0
  1 37  1  0
  1 38  1  0
  4 39  1  0
  4 40  1  0
  6 41  1  0
  6 42  1  0
  7 43  1  0
  7 44  1  0
  8 45  1  0
 10 46  1  0
 13 47  1  0
 13 48  1  0
 14 49  1  0
 14 50  1  0
 16 51  1  0
 17 52  1  0
 18 53  1  0
 19 54  1  0
 21 55  1  0
 21 56  1  0
 25 57  1  0
 25 58  1  0
 26 59  1  0
 26 60  1  0
 28 61  1  0
 29 62  1  0
 30 63  1  0
 31 64  1  0
 33 65  1  0
 33 66  1  0
 35 67  1  0
 35 68  1  0
 36 69  1  0
 36 70  1  0
M  END
>  <smiles>  (21) 
NC(=O)CN1CCC(c2cc(N3CCc4ccccc4C3)nc(N3CCc4ccccc4C3)n2)CC1

>  <score_type>  (21) 
oracle

>  <origin>  (21) 
autodockgpu

>  <m_score__min__energy>  (21) 
-11.01

>  <m_primary>  (21) 
energy

>  <rmsd>  (21) 
10.20483111919089

>  <m_score__min__rmsd>  (21) 
10.20483111919089

>  <meeko>  (21) 
{"free_energy": -9.95, "intermolecular_energy": -11.45, "internal_energy": -1.33, "cluster_size": 12, "cluster_id": 3, "rank_in_cluster": 5}

>  <energy>  (21) 
-10.05

>  <cluster_rmsd>  (21) 
1.31

>  <cluster>  (21) 
1

$$$$

     RDKit          3D

 70 75  0  0  0  0  0  0  0  0999 V2000
  144.4650   75.0880  216.8180 N   0  0  0  0  0  0  0  0  0  0  0  0
  145.3050   74.1050  216.2100 C   0  0  0  0  0  0  0  0  0  0  0  0
  145.1800   73.9260  214.9890 O   0  0  0  0  0  0  0  0  0  0  0  0
  146.2480   73.3880  217.0910 C   0  0  0  0  0  0  0  0  0  0  0  0
  145.5890   72.5440  218.0590 N   0  0  0  0  0  0  0  0  0  0  0  0
  145.8040   73.1240  219.3460 C   0  0  0  0  0  0  0  0  0  0  0  0
  144.5520   73.8640  219.7730 C   0  0  0  0  0  0  0  0  0  0  0  0
  143.5490   72.7560  220.0470 C   0  0  0  0  0  0  0  0  0  0  0  0
  142.3740   73.2000  220.8110 C   0  0  0  0  0  0  0  0  0  0  0  0
  141.8530   74.4910  220.6730 C   0  0  0  0  0  0  0  0  0  0  0  0
  140.7590   74.9200  221.3790 C   0  0  0  0  0  0  0  0  0  0  0  0
  140.1920   76.2140  221.2790 N   0  0  0  0  0  0  0  0  0  0  0  0
  138.8310   76.5440  221.6340 C   0  0  0  0  0  0  0  0  0  0  0  0
  138.7760   77.5300  222.7840 C   0  0  0  0  0  0  0  0  0  0  0  0
  139.9500   78.4350  222.7770 C   0  0  0  0  0  0  0  0  0  0  0  0
  140.0000   79.4240  223.7370 C   0  0  0  0  0  0  0  0  0  0  0  0
  141.0430   80.3270  223.8320 C   0  0  0  0  0  0  0  0  0  0  0  0
  142.0680   80.2280  222.9240 C   0  0  0  0  0  0  0  0  0  0  0  0
  142.0310   79.2420  221.9540 C   0  0  0  0  0  0  0  0  0  0  0  0
  140.9820   78.3440  221.8690 C   0  0  0  0  0  0  0  0  0  0  0  0
  141.0190   77.3060  220.7900 C   0  0  0  0  0  0  0  0  0  0  0  0
  140.2030   74.0140  222.2280 N   0  0  0  0  0  0  0  0  0  0  0  0
  140.6720   72.7670  222.3880 C   0  0  0  0  0  0  0  0  0  0  0  0
  140.0450   71.8650  223.2910 N   0  0  0  0  0  0  0  0  0  0  0  0
  138.8320   71.1700  222.9640 C   0  0  0  0  0  0  0  0  0  0  0  0
  138.9880   69.6660  223.0410 C   0  0  0  0  0  0  0  0  0  0  0  0
  139.5280   69.3770  224.4010 C   0  0  0  0  0  0  0  0  0  0  0  0
  139.2540   68.1620  224.9630 C   0  0  0  0  0  0  0  0  0  0  0  0
  139.6920   67.7690  226.2090 C   0  0  0  0  0  0  0  0  0  0  0  0
  140.4560   68.6870  226.9140 C   0  0  0  0  0  0  0  0  0  0  0  0
  140.7410   69.9260  226.3530 C   0  0  0  0  0  0  0  0  0  0  0  0
  140.2880   70.2830  225.1080 C   0  0  0  0  0  0  0  0  0  0  0  0
  140.6410   71.6280  224.5870 C   0  0  0  0  0  0  0  0  0  0  0  0
  141.7550   72.3760  221.6750 N   0  0  0  0  0  0  0  0  0  0  0  0
  143.2070   72.1590  218.7080 C   0  0  0  0  0  0  0  0  0  0  0  0
  144.2850   72.1820  217.7050 C   0  0  0  0  0  0  0  0  0  0  0  0
  143.4520   74.8870  216.9980 H   0  0  0  0  0  0  0  0  0  0  0  0
  144.8470   76.0330  217.0990 H   0  0  0  0  0  0  0  0  0  0  0  0
  146.9018   72.7607  216.4672 H   0  0  0  0  0  0  0  0  0  0  0  0
  146.8157   74.1465  217.6500 H   0  0  0  0  0  0  0  0  0  0  0  0
  146.0294   72.3310  220.0742 H   0  0  0  0  0  0  0  0  0  0  0  0
  146.6505   73.8249  219.2994 H   0  0  0  0  0  0  0  0  0  0  0  0
  144.7381   74.4569  220.6807 H   0  0  0  0  0  0  0  0  0  0  0  0
  144.2000   74.5767  219.0126 H   0  0  0  0  0  0  0  0  0  0  0  0
  143.9887   71.9941  220.7074 H   0  0  0  0  0  0  0  0  0  0  0  0
  142.3386   75.1868  219.9729 H   0  0  0  0  0  0  0  0  0  0  0  0
  138.3319   76.9874  220.7598 H   0  0  0  0  0  0  0  0  0  0  0  0
  138.3247   75.6198  221.9496 H   0  0  0  0  0  0  0  0  0  0  0  0
  137.8595   78.1319  222.6958 H   0  0  0  0  0  0  0  0  0  0  0  0
  138.7814   76.9631  223.7267 H   0  0  0  0  0  0  0  0  0  0  0  0
  139.1735   79.4978  224.4591 H   0  0  0  0  0  0  0  0  0  0  0  0
  141.0512   81.1021  224.6124 H   0  0  0  0  0  0  0  0  0  0  0  0
  142.9145   80.9291  222.9674 H   0  0  0  0  0  0  0  0  0  0  0  0
  142.8573   79.1702  221.2315 H   0  0  0  0  0  0  0  0  0  0  0  0
  140.6089   77.7099  219.8526 H   0  0  0  0  0  0  0  0  0  0  0  0
  142.0459   76.9770  220.5726 H   0  0  0  0  0  0  0  0  0  0  0  0
  138.0466   71.4799  223.6690 H   0  0  0  0  0  0  0  0  0  0  0  0
  138.5683   71.4265  221.9273 H   0  0  0  0  0  0  0  0  0  0  0  0
  138.0141   69.1733  222.9040 H   0  0  0  0  0  0  0  0  0  0  0  0
  139.6578   69.2899  222.2536 H   0  0  0  0  0  0  0  0  0  0  0  0
  138.6449   67.4524  224.3838 H   0  0  0  0  0  0  0  0  0  0  0  0
  139.4485   66.7793  226.6227 H   0  0  0  0  0  0  0  0  0  0  0  0
  140.8356   68.4349  227.9152 H   0  0  0  0  0  0  0  0  0  0  0  0
  141.3486   70.6428  226.9248 H   0  0  0  0  0  0  0  0  0  0  0  0
  140.2796   72.3911  225.2921 H   0  0  0  0  0  0  0  0  0  0  0  0
  141.7345   71.6818  224.4802 H   0  0  0  0  0  0  0  0  0  0  0  0
  142.9178   71.1100  218.8695 H   0  0  0  0  0  0  0  0  0  0  0  0
  142.4015   72.7853  218.2971 H   0  0  0  0  0  0  0  0  0  0  0  0
  144.3448   71.1666  217.2863 H   0  0  0  0  0  0  0  0  0  0  0  0
  143.9784   73.0013  217.0381 H   0  0  0  0  0  0  0  0  0  0  0  0
  1  2  1  0
  2  3  2  0
  2  4  1  0
  4  5  1  0
  5  6  1  0
  6  7  1  0
  7  8  1  0
  8  9  1  0
  9 10  2  0
 10 11  1  0
 11 12  1  0
 12 13  1  0
 13 14  1  0
 14 15  1  0
 15 16  2  0
 16 17  1  0
 17 18  2  0
 18 19  1  0
 19 20  2  0
 20 21  1  0
 11 22  2  0
 22 23  1  0
 23 24  1  0
 24 25  1  0
 25 26  1  0
 26 27  1  0
 27 28  2  0
 28 29  1  0
 29 30  2  0
 30 31  1  0
 31 32  2  0
 32 33  1  0
 23 34  2  0
  8 35  1  0
 35 36  1  0
 36  5  1  0
 34  9  1  0
 21 12  1  0
 33 24  1  0
 20 15  1  0
 32 27  1  0
  1 37  1  0
  1 38  1  0
  4 39  1  0
  4 40  1  0
  6 41  1  0
  6 42  1  0
  7 43  1  0
  7 44  1  0
  8 45  1  0
 10 46  1  0
 13 47  1  0
 13 48  1  0
 14 49  1  0
 14 50  1  0
 16 51  1  0
 17 52  1  0
 18 53  1  0
 19 54  1  0
 21 55  1  0
 21 56  1  0
 25 57  1  0
 25 58  1  0
 26 59  1  0
 26 60  1  0
 28 61  1  0
 29 62  1  0
 30 63  1  0
 31 64  1  0
 33 65  1  0
 33 66  1  0
 35 67  1  0
 35 68  1  0
 36 69  1  0
 36 70  1  0
M  END
>  <smiles>  (22) 
NC(=O)CN1CCC(c2cc(N3CCc4ccccc4C3)nc(N3CCc4ccccc4C3)n2)CC1

>  <score_type>  (22) 
oracle

>  <origin>  (22) 
autodockgpu

>  <m_score__min__energy>  (22) 
-11.01

>  <m_primary>  (22) 
energy

>  <rmsd>  (22) 
4.100920308689929

>  <m_score__min__rmsd>  (22) 
4.100920308689929

>  <meeko>  (22) 
{"free_energy": -10.41, "intermolecular_energy": -11.9, "internal_energy": -1.43, "cluster_size": 12, "cluster_id": 2, "rank_in_cluster": 3}

>  <energy>  (22) 
-10.01

>  <cluster_rmsd>  (22) 
1.11

>  <cluster>  (22) 
1

$$$$

     RDKit          3D

 70 75  0  0  0  0  0  0  0  0999 V2000
  145.1580   75.0280  216.7260 N   0  0  0  0  0  0  0  0  0  0  0  0
  144.9950   73.6640  216.3380 C   0  0  0  0  0  0  0  0  0  0  0  0
  144.0610   73.4000  215.5640 O   0  0  0  0  0  0  0  0  0  0  0  0
  145.9540   72.6870  216.8920 C   0  0  0  0  0  0  0  0  0  0  0  0
  145.4670   72.0290  218.0810 N   0  0  0  0  0  0  0  0  0  0  0  0
  145.7080   72.9080  219.1820 C   0  0  0  0  0  0  0  0  0  0  0  0
  144.4140   73.6040  219.5540 C   0  0  0  0  0  0  0  0  0  0  0  0
  143.5670   72.4990  220.1610 C   0  0  0  0  0  0  0  0  0  0  0  0
  142.4080   72.9930  220.9190 C   0  0  0  0  0  0  0  0  0  0  0  0
  141.9130   74.2890  220.7410 C   0  0  0  0  0  0  0  0  0  0  0  0
  140.8340   74.7650  221.4410 C   0  0  0  0  0  0  0  0  0  0  0  0
  140.2930   76.0670  221.3010 N   0  0  0  0  0  0  0  0  0  0  0  0
  138.9290   76.4270  221.6100 C   0  0  0  0  0  0  0  0  0  0  0  0
  138.8590   77.4350  222.7390 C   0  0  0  0  0  0  0  0  0  0  0  0
  140.0480   78.3200  222.7510 C   0  0  0  0  0  0  0  0  0  0  0  0
  140.0890   79.3250  223.6940 C   0  0  0  0  0  0  0  0  0  0  0  0
  141.1450   80.2120  223.8020 C   0  0  0  0  0  0  0  0  0  0  0  0
  142.1940   80.0780  222.9270 C   0  0  0  0  0  0  0  0  0  0  0  0
  142.1670   79.0750  221.9740 C   0  0  0  0  0  0  0  0  0  0  0  0
  141.1050   78.1930  221.8750 C   0  0  0  0  0  0  0  0  0  0  0  0
  141.1530   77.1350  220.8170 C   0  0  0  0  0  0  0  0  0  0  0  0
  140.2660   73.9010  222.3240 N   0  0  0  0  0  0  0  0  0  0  0  0
  140.7110   72.6500  222.5220 C   0  0  0  0  0  0  0  0  0  0  0  0
  140.0720   71.7920  223.4610 N   0  0  0  0  0  0  0  0  0  0  0  0
  138.8370   71.1200  223.1700 C   0  0  0  0  0  0  0  0  0  0  0  0
  138.9570   69.6150  223.2910 C   0  0  0  0  0  0  0  0  0  0  0  0
  139.5060   69.3540  224.6530 C   0  0  0  0  0  0  0  0  0  0  0  0
  139.2090   68.1650  225.2560 C   0  0  0  0  0  0  0  0  0  0  0  0
  139.6520   67.7990  226.5090 C   0  0  0  0  0  0  0  0  0  0  0  0
  140.4480   68.7180  227.1750 C   0  0  0  0  0  0  0  0  0  0  0  0
  140.7570   69.9310  226.5730 C   0  0  0  0  0  0  0  0  0  0  0  0
  140.2980   70.2610  225.3230 C   0  0  0  0  0  0  0  0  0  0  0  0
  140.6780   71.5800  224.7560 C   0  0  0  0  0  0  0  0  0  0  0  0
  141.7780   72.2130  221.8150 N   0  0  0  0  0  0  0  0  0  0  0  0
  143.1990   71.5800  219.0270 C   0  0  0  0  0  0  0  0  0  0  0  0
  144.1910   71.4750  217.9440 C   0  0  0  0  0  0  0  0  0  0  0  0
  144.5130   75.4640  217.4290 H   0  0  0  0  0  0  0  0  0  0  0  0
  145.9290   75.6240  216.3150 H   0  0  0  0  0  0  0  0  0  0  0  0
  146.1571   71.9230  216.1271 H   0  0  0  0  0  0  0  0  0  0  0  0
  146.8625   73.2406  217.1716 H   0  0  0  0  0  0  0  0  0  0  0  0
  146.0751   72.3288  220.0421 H   0  0  0  0  0  0  0  0  0  0  0  0
  146.4633   73.6563  218.9001 H   0  0  0  0  0  0  0  0  0  0  0  0
  144.5965   74.4044  220.2862 H   0  0  0  0  0  0  0  0  0  0  0  0
  143.9287   74.0863  218.6927 H   0  0  0  0  0  0  0  0  0  0  0  0
  144.1381   71.9544  220.9273 H   0  0  0  0  0  0  0  0  0  0  0  0
  142.4068   74.9501  220.0136 H   0  0  0  0  0  0  0  0  0  0  0  0
  138.4631   76.8624  220.7137 H   0  0  0  0  0  0  0  0  0  0  0  0
  138.3973   75.5179  221.9277 H   0  0  0  0  0  0  0  0  0  0  0  0
  137.9562   78.0508  222.6130 H   0  0  0  0  0  0  0  0  0  0  0  0
  138.8280   76.8853  223.6913 H   0  0  0  0  0  0  0  0  0  0  0  0
  139.2444   79.4260  224.3915 H   0  0  0  0  0  0  0  0  0  0  0  0
  141.1441   81.0022  224.5673 H   0  0  0  0  0  0  0  0  0  0  0  0
  143.0517   80.7644  222.9830 H   0  0  0  0  0  0  0  0  0  0  0  0
  143.0120   78.9761  221.2767 H   0  0  0  0  0  0  0  0  0  0  0  0
  140.7770   77.5289  219.8612 H   0  0  0  0  0  0  0  0  0  0  0  0
  142.1795   76.7837  220.6355 H   0  0  0  0  0  0  0  0  0  0  0  0
  138.0690   71.4711  223.8749 H   0  0  0  0  0  0  0  0  0  0  0  0
  138.5653   71.3526  222.1298 H   0  0  0  0  0  0  0  0  0  0  0  0
  137.9697   69.1428  223.1800 H   0  0  0  0  0  0  0  0  0  0  0  0
  139.6078   69.1987  222.5079 H   0  0  0  0  0  0  0  0  0  0  0  0
  138.5754   67.4535  224.7062 H   0  0  0  0  0  0  0  0  0  0  0  0
  139.3880   66.8295  226.9565 H   0  0  0  0  0  0  0  0  0  0  0  0
  140.8343   68.4869  228.1787 H   0  0  0  0  0  0  0  0  0  0  0  0
  141.3894   70.6493  227.1153 H   0  0  0  0  0  0  0  0  0  0  0  0
  140.3448   72.3734  225.4412 H   0  0  0  0  0  0  0  0  0  0  0  0
  141.7710   71.6025  224.6345 H   0  0  0  0  0  0  0  0  0  0  0  0
  143.0453   70.5736  219.4436 H   0  0  0  0  0  0  0  0  0  0  0  0
  142.2986   72.0146  218.5684 H   0  0  0  0  0  0  0  0  0  0  0  0
  144.3349   70.4010  217.7546 H   0  0  0  0  0  0  0  0  0  0  0  0
  143.7451   72.0881  217.1469 H   0  0  0  0  0  0  0  0  0  0  0  0
  1  2  1  0
  2  3  2  0
  2  4  1  0
  4  5  1  0
  5  6  1  0
  6  7  1  0
  7  8  1  0
  8  9  1  0
  9 10  2  0
 10 11  1  0
 11 12  1  0
 12 13  1  0
 13 14  1  0
 14 15  1  0
 15 16  2  0
 16 17  1  0
 17 18  2  0
 18 19  1  0
 19 20  2  0
 20 21  1  0
 11 22  2  0
 22 23  1  0
 23 24  1  0
 24 25  1  0
 25 26  1  0
 26 27  1  0
 27 28  2  0
 28 29  1  0
 29 30  2  0
 30 31  1  0
 31 32  2  0
 32 33  1  0
 23 34  2  0
  8 35  1  0
 35 36  1  0
 36  5  1  0
 34  9  1  0
 21 12  1  0
 33 24  1  0
 20 15  1  0
 32 27  1  0
  1 37  1  0
  1 38  1  0
  4 39  1  0
  4 40  1  0
  6 41  1  0
  6 42  1  0
  7 43  1  0
  7 44  1  0
  8 45  1  0
 10 46  1  0
 13 47  1  0
 13 48  1  0
 14 49  1  0
 14 50  1  0
 16 51  1  0
 17 52  1  0
 18 53  1  0
 19 54  1  0
 21 55  1  0
 21 56  1  0
 25 57  1  0
 25 58  1  0
 26 59  1  0
 26 60  1  0
 28 61  1  0
 29 62  1  0
 30 63  1  0
 31 64  1  0
 33 65  1  0
 33 66  1  0
 35 67  1  0
 35 68  1  0
 36 69  1  0
 36 70  1  0
M  END
>  <smiles>  (23) 
NC(=O)CN1CCC(c2cc(N3CCc4ccccc4C3)nc(N3CCc4ccccc4C3)n2)CC1

>  <score_type>  (23) 
oracle

>  <origin>  (23) 
autodockgpu

>  <m_score__min__energy>  (23) 
-11.01

>  <m_primary>  (23) 
energy

>  <rmsd>  (23) 
4.202985458368543

>  <m_score__min__rmsd>  (23) 
4.202985458368543

>  <meeko>  (23) 
{"free_energy": -10.3, "intermolecular_energy": -11.79, "internal_energy": -1.43, "cluster_size": 12, "cluster_id": 2, "rank_in_cluster": 10}

>  <energy>  (23) 
-9.93

>  <cluster_rmsd>  (23) 
1.96

>  <cluster>  (23) 
1

$$$$

     RDKit          3D

 70 75  0  0  0  0  0  0  0  0999 V2000
  143.8320   69.3100  219.2570 N   0  0  0  0  0  0  0  0  0  0  0  0
  145.2500   69.3870  219.1040 C   0  0  0  0  0  0  0  0  0  0  0  0
  145.9390   68.5930  219.7630 O   0  0  0  0  0  0  0  0  0  0  0  0
  145.7720   70.4070  218.1720 C   0  0  0  0  0  0  0  0  0  0  0  0
  145.5780   71.7570  218.6440 N   0  0  0  0  0  0  0  0  0  0  0  0
  144.4520   72.2940  217.9470 C   0  0  0  0  0  0  0  0  0  0  0  0
  143.2400   72.2570  218.8560 C   0  0  0  0  0  0  0  0  0  0  0  0
  143.5410   73.3100  219.9090 C   0  0  0  0  0  0  0  0  0  0  0  0
  142.3660   73.7090  220.6960 C   0  0  0  0  0  0  0  0  0  0  0  0
  141.8520   75.0090  220.6410 C   0  0  0  0  0  0  0  0  0  0  0  0
  140.7560   75.3970  221.3690 C   0  0  0  0  0  0  0  0  0  0  0  0
  140.1970   76.6990  221.3510 N   0  0  0  0  0  0  0  0  0  0  0  0
  138.8960   77.0400  221.8770 C   0  0  0  0  0  0  0  0  0  0  0  0
  138.9970   78.0160  223.0320 C   0  0  0  0  0  0  0  0  0  0  0  0
  140.1720   78.9090  222.8850 C   0  0  0  0  0  0  0  0  0  0  0  0
  140.3540   79.8870  223.8380 C   0  0  0  0  0  0  0  0  0  0  0  0
  141.4110   80.7790  223.8070 C   0  0  0  0  0  0  0  0  0  0  0  0
  142.3130   80.6770  222.7770 C   0  0  0  0  0  0  0  0  0  0  0  0
  142.1420   79.7010  221.8120 C   0  0  0  0  0  0  0  0  0  0  0  0
  141.0800   78.8140  221.8530 C   0  0  0  0  0  0  0  0  0  0  0  0
  140.9680   77.7860  220.7700 C   0  0  0  0  0  0  0  0  0  0  0  0
  140.1920   74.4410  222.1540 N   0  0  0  0  0  0  0  0  0  0  0  0
  140.6550   73.1840  222.2340 C   0  0  0  0  0  0  0  0  0  0  0  0
  140.0190   72.2280  223.0750 N   0  0  0  0  0  0  0  0  0  0  0  0
  138.7920   71.5780  222.7070 C   0  0  0  0  0  0  0  0  0  0  0  0
  138.9250   70.0710  222.6730 C   0  0  0  0  0  0  0  0  0  0  0  0
  139.4690   69.6750  224.0050 C   0  0  0  0  0  0  0  0  0  0  0  0
  139.1790   68.4270  224.4790 C   0  0  0  0  0  0  0  0  0  0  0  0
  139.6190   67.9370  225.6900 C   0  0  0  0  0  0  0  0  0  0  0  0
  140.4020   68.7900  226.4540 C   0  0  0  0  0  0  0  0  0  0  0  0
  140.7020   70.0610  225.9820 C   0  0  0  0  0  0  0  0  0  0  0  0
  140.2480   70.5150  224.7700 C   0  0  0  0  0  0  0  0  0  0  0  0
  140.6190   71.8880  224.3450 C   0  0  0  0  0  0  0  0  0  0  0  0
  141.7380   72.8350  221.5020 N   0  0  0  0  0  0  0  0  0  0  0  0
  144.6670   72.7610  220.7430 C   0  0  0  0  0  0  0  0  0  0  0  0
  145.6170   71.8850  220.0360 C   0  0  0  0  0  0  0  0  0  0  0  0
  143.3670   69.6910  220.1160 H   0  0  0  0  0  0  0  0  0  0  0  0
  143.2270   68.8690  218.5110 H   0  0  0  0  0  0  0  0  0  0  0  0
  146.8498   70.2360  218.0336 H   0  0  0  0  0  0  0  0  0  0  0  0
  145.2146   70.3058  217.2291 H   0  0  0  0  0  0  0  0  0  0  0  0
  144.6615   73.3337  217.6551 H   0  0  0  0  0  0  0  0  0  0  0  0
  144.2560   71.6960  217.0448 H   0  0  0  0  0  0  0  0  0  0  0  0
  142.3255   72.5102  218.2995 H   0  0  0  0  0  0  0  0  0  0  0  0
  143.0650   71.2613  219.2895 H   0  0  0  0  0  0  0  0  0  0  0  0
  143.8409   74.2549  219.4323 H   0  0  0  0  0  0  0  0  0  0  0  0
  142.3445   75.7467  219.9905 H   0  0  0  0  0  0  0  0  0  0  0  0
  138.2960   77.4964  221.0760 H   0  0  0  0  0  0  0  0  0  0  0  0
  138.4232   76.1183  222.2470 H   0  0  0  0  0  0  0  0  0  0  0  0
  138.0838   78.6285  223.0639 H   0  0  0  0  0  0  0  0  0  0  0  0
  139.1138   77.4406  223.9622 H   0  0  0  0  0  0  0  0  0  0  0  0
  139.6268   79.9620  224.6599 H   0  0  0  0  0  0  0  0  0  0  0  0
  141.5255   81.5479  224.5853 H   0  0  0  0  0  0  0  0  0  0  0  0
  143.1671   81.3678  222.7195 H   0  0  0  0  0  0  0  0  0  0  0  0
  142.8693   79.6277  220.9900 H   0  0  0  0  0  0  0  0  0  0  0  0
  140.4474   78.2030  219.8953 H   0  0  0  0  0  0  0  0  0  0  0  0
  141.9552   77.4481  220.4217 H   0  0  0  0  0  0  0  0  0  0  0  0
  138.0162   71.8477  223.4387 H   0  0  0  0  0  0  0  0  0  0  0  0
  138.5252   71.9140  221.6941 H   0  0  0  0  0  0  0  0  0  0  0  0
  137.9427   69.6044  222.5074 H   0  0  0  0  0  0  0  0  0  0  0  0
  139.5841   69.7434  221.8555 H   0  0  0  0  0  0  0  0  0  0  0  0
  138.5545   67.7713  223.8545 H   0  0  0  0  0  0  0  0  0  0  0  0
  139.3629   66.9235  226.0323 H   0  0  0  0  0  0  0  0  0  0  0  0
  140.7843   68.4604  227.4313 H   0  0  0  0  0  0  0  0  0  0  0  0
  141.3239   70.7252  226.6001 H   0  0  0  0  0  0  0  0  0  0  0  0
  140.2746   72.6034  225.1063 H   0  0  0  0  0  0  0  0  0  0  0  0
  141.7125   71.9319  224.2337 H   0  0  0  0  0  0  0  0  0  0  0  0
  145.2316   73.6123  221.1510 H   0  0  0  0  0  0  0  0  0  0  0  0
  144.1926   72.1316  221.5103 H   0  0  0  0  0  0  0  0  0  0  0  0
  146.6244   72.2471  220.2889 H   0  0  0  0  0  0  0  0  0  0  0  0
  145.3242   70.8821  220.3800 H   0  0  0  0  0  0  0  0  0  0  0  0
  1  2  1  0
  2  3  2  0
  2  4  1  0
  4  5  1  0
  5  6  1  0
  6  7  1  0
  7  8  1  0
  8  9  1  0
  9 10  2  0
 10 11  1  0
 11 12  1  0
 12 13  1  0
 13 14  1  0
 14 15  1  0
 15 16  2  0
 16 17  1  0
 17 18  2  0
 18 19  1  0
 19 20  2  0
 20 21  1  0
 11 22  2  0
 22 23  1  0
 23 24  1  0
 24 25  1  0
 25 26  1  0
 26 27  1  0
 27 28  2  0
 28 29  1  0
 29 30  2  0
 30 31  1  0
 31 32  2  0
 32 33  1  0
 23 34  2  0
  8 35  1  0
 35 36  1  0
 36  5  1  0
 34  9  1  0
 21 12  1  0
 33 24  1  0
 20 15  1  0
 32 27  1  0
  1 37  1  0
  1 38  1  0
  4 39  1  0
  4 40  1  0
  6 41  1  0
  6 42  1  0
  7 43  1  0
  7 44  1  0
  8 45  1  0
 10 46  1  0
 13 47  1  0
 13 48  1  0
 14 49  1  0
 14 50  1  0
 16 51  1  0
 17 52  1  0
 18 53  1  0
 19 54  1  0
 21 55  1  0
 21 56  1  0
 25 57  1  0
 25 58  1  0
 26 59  1  0
 26 60  1  0
 28 61  1  0
 29 62  1  0
 30 63  1  0
 31 64  1  0
 33 65  1  0
 33 66  1  0
 35 67  1  0
 35 68  1  0
 36 69  1  0
 36 70  1  0
M  END
>  <smiles>  (24) 
NC(=O)CN1CCC(c2cc(N3CCc4ccccc4C3)nc(N3CCc4ccccc4C3)n2)CC1

>  <score_type>  (24) 
oracle

>  <origin>  (24) 
autodockgpu

>  <m_score__min__energy>  (24) 
-11.01

>  <m_primary>  (24) 
energy

>  <rmsd>  (24) 
3.7267816457232406

>  <m_score__min__rmsd>  (24) 
3.7267816457232406

>  <meeko>  (24) 
{"free_energy": -10.38, "intermolecular_energy": -11.87, "internal_energy": -1.44, "cluster_size": 26, "cluster_id": 1, "rank_in_cluster": 10}

>  <energy>  (24) 
-9.92

>  <cluster_rmsd>  (24) 
1.33

>  <cluster>  (24) 
1

$$$$

     RDKit          3D

 70 75  0  0  0  0  0  0  0  0999 V2000
  146.6840   69.4090  216.6260 N   0  0  0  0  0  0  0  0  0  0  0  0
  146.6560   70.7820  216.2360 C   0  0  0  0  0  0  0  0  0  0  0  0
  147.5580   71.1800  215.4830 O   0  0  0  0  0  0  0  0  0  0  0  0
  145.5520   71.6090  216.7660 C   0  0  0  0  0  0  0  0  0  0  0  0
  145.4350   71.5440  218.2020 N   0  0  0  0  0  0  0  0  0  0  0  0
  145.4390   72.8860  218.6920 C   0  0  0  0  0  0  0  0  0  0  0  0
  144.0190   73.2990  219.0220 C   0  0  0  0  0  0  0  0  0  0  0  0
  143.6770   72.4750  220.2520 C   0  0  0  0  0  0  0  0  0  0  0  0
  142.4870   72.9540  220.9700 C   0  0  0  0  0  0  0  0  0  0  0  0
  141.9890   74.2480  220.7850 C   0  0  0  0  0  0  0  0  0  0  0  0
  140.8800   74.7100  221.4470 C   0  0  0  0  0  0  0  0  0  0  0  0
  140.3360   76.0090  221.2980 N   0  0  0  0  0  0  0  0  0  0  0  0
  138.9690   76.3660  221.5980 C   0  0  0  0  0  0  0  0  0  0  0  0
  138.8870   77.3780  222.7220 C   0  0  0  0  0  0  0  0  0  0  0  0
  140.0740   78.2670  222.7370 C   0  0  0  0  0  0  0  0  0  0  0  0
  140.1050   79.2770  223.6750 C   0  0  0  0  0  0  0  0  0  0  0  0
  141.1560   80.1680  223.7860 C   0  0  0  0  0  0  0  0  0  0  0  0
  142.2110   80.0350  222.9170 C   0  0  0  0  0  0  0  0  0  0  0  0
  142.1930   79.0270  221.9680 C   0  0  0  0  0  0  0  0  0  0  0  0
  141.1350   78.1410  221.8680 C   0  0  0  0  0  0  0  0  0  0  0  0
  141.1940   77.0780  220.8140 C   0  0  0  0  0  0  0  0  0  0  0  0
  140.2860   73.8340  222.3010 N   0  0  0  0  0  0  0  0  0  0  0  0
  140.7330   72.5850  222.5050 C   0  0  0  0  0  0  0  0  0  0  0  0
  140.0660   71.7140  223.4120 N   0  0  0  0  0  0  0  0  0  0  0  0
  138.8910   70.9760  223.0430 C   0  0  0  0  0  0  0  0  0  0  0  0
  139.0720   69.4820  223.2070 C   0  0  0  0  0  0  0  0  0  0  0  0
  139.5280   69.2730  224.6120 C   0  0  0  0  0  0  0  0  0  0  0  0
  139.2430   68.0820  225.2170 C   0  0  0  0  0  0  0  0  0  0  0  0
  139.6060   67.7620  226.5070 C   0  0  0  0  0  0  0  0  0  0  0  0
  140.3040   68.7320  227.2110 C   0  0  0  0  0  0  0  0  0  0  0  0
  140.5990   69.9470  226.6070 C   0  0  0  0  0  0  0  0  0  0  0  0
  140.2220   70.2310  225.3190 C   0  0  0  0  0  0  0  0  0  0  0  0
  140.5810   71.5560  224.7540 C   0  0  0  0  0  0  0  0  0  0  0  0
  141.8300   72.1610  221.8350 N   0  0  0  0  0  0  0  0  0  0  0  0
  143.5650   71.0490  219.7840 C   0  0  0  0  0  0  0  0  0  0  0  0
  144.4340   70.6780  218.6540 C   0  0  0  0  0  0  0  0  0  0  0  0
  147.3700   69.0720  217.3450 H   0  0  0  0  0  0  0  0  0  0  0  0
  146.0180   68.7070  216.2000 H   0  0  0  0  0  0  0  0  0  0  0  0
  145.7282   72.6554  216.4762 H   0  0  0  0  0  0  0  0  0  0  0  0
  144.6158   71.2163  216.3427 H   0  0  0  0  0  0  0  0  0  0  0  0
  146.0596   72.9451  219.5983 H   0  0  0  0  0  0  0  0  0  0  0  0
  145.8513   73.5586  217.9254 H   0  0  0  0  0  0  0  0  0  0  0  0
  143.9657   74.3750  219.2442 H   0  0  0  0  0  0  0  0  0  0  0  0
  143.3220   73.1275  218.1884 H   0  0  0  0  0  0  0  0  0  0  0  0
  144.4678   72.5703  221.0106 H   0  0  0  0  0  0  0  0  0  0  0  0
  142.5054   74.9194  220.0832 H   0  0  0  0  0  0  0  0  0  0  0  0
  138.5071   76.7960  220.6970 H   0  0  0  0  0  0  0  0  0  0  0  0
  138.4396   75.4561  221.9171 H   0  0  0  0  0  0  0  0  0  0  0  0
  137.9830   77.9901  222.5873 H   0  0  0  0  0  0  0  0  0  0  0  0
  138.8504   76.8329  223.6768 H   0  0  0  0  0  0  0  0  0  0  0  0
  139.2552   79.3783  224.3661 H   0  0  0  0  0  0  0  0  0  0  0  0
  141.1475   80.9608  224.5485 H   0  0  0  0  0  0  0  0  0  0  0  0
  143.0655   80.7253  222.9746 H   0  0  0  0  0  0  0  0  0  0  0  0
  143.0419   78.9280  221.2755 H   0  0  0  0  0  0  0  0  0  0  0  0
  140.8218   77.4660  219.8543 H   0  0  0  0  0  0  0  0  0  0  0  0
  142.2230   76.7305  220.6396 H   0  0  0  0  0  0  0  0  0  0  0  0
  138.0548   71.3023  223.6789 H   0  0  0  0  0  0  0  0  0  0  0  0
  138.6907   71.1746  221.9798 H   0  0  0  0  0  0  0  0  0  0  0  0
  138.1192   68.9605  223.0332 H   0  0  0  0  0  0  0  0  0  0  0  0
  139.7994   69.0833  222.4846 H   0  0  0  0  0  0  0  0  0  0  0  0
  138.6880   67.3300  224.6370 H   0  0  0  0  0  0  0  0  0  0  0  0
  139.3556   66.7890  226.9548 H   0  0  0  0  0  0  0  0  0  0  0  0
  140.6233   68.5392  228.2458 H   0  0  0  0  0  0  0  0  0  0  0  0
  141.1526   70.7058  227.1795 H   0  0  0  0  0  0  0  0  0  0  0  0
  140.1590   72.3445  225.3945 H   0  0  0  0  0  0  0  0  0  0  0  0
  141.6778   71.6303  224.7151 H   0  0  0  0  0  0  0  0  0  0  0  0
  143.8150   70.3943  220.6319 H   0  0  0  0  0  0  0  0  0  0  0  0
  142.5335   70.9328  219.4200 H   0  0  0  0  0  0  0  0  0  0  0  0
  144.9356   69.7415  218.9392 H   0  0  0  0  0  0  0  0  0  0  0  0
  143.7330   70.6543  217.8066 H   0  0  0  0  0  0  0  0  0  0  0  0
  1  2  1  0
  2  3  2  0
  2  4  1  0
  4  5  1  0
  5  6  1  0
  6  7  1  0
  7  8  1  0
  8  9  1  0
  9 10  2  0
 10 11  1  0
 11 12  1  0
 12 13  1  0
 13 14  1  0
 14 15  1  0
 15 16  2  0
 16 17  1  0
 17 18  2  0
 18 19  1  0
 19 20  2  0
 20 21  1  0
 11 22  2  0
 22 23  1  0
 23 24  1  0
 24 25  1  0
 25 26  1  0
 26 27  1  0
 27 28  2  0
 28 29  1  0
 29 30  2  0
 30 31  1  0
 31 32  2  0
 32 33  1  0
 23 34  2  0
  8 35  1  0
 35 36  1  0
 36  5  1  0
 34  9  1  0
 21 12  1  0
 33 24  1  0
 20 15  1  0
 32 27  1  0
  1 37  1  0
  1 38  1  0
  4 39  1  0
  4 40  1  0
  6 41  1  0
  6 42  1  0
  7 43  1  0
  7 44  1  0
  8 45  1  0
 10 46  1  0
 13 47  1  0
 13 48  1  0
 14 49  1  0
 14 50  1  0
 16 51  1  0
 17 52  1  0
 18 53  1  0
 19 54  1  0
 21 55  1  0
 21 56  1  0
 25 57  1  0
 25 58  1  0
 26 59  1  0
 26 60  1  0
 28 61  1  0
 29 62  1  0
 30 63  1  0
 31 64  1  0
 33 65  1  0
 33 66  1  0
 35 67  1  0
 35 68  1  0
 36 69  1  0
 36 70  1  0
M  END
>  <smiles>  (25) 
NC(=O)CN1CCC(c2cc(N3CCc4ccccc4C3)nc(N3CCc4ccccc4C3)n2)CC1

>  <score_type>  (25) 
oracle

>  <origin>  (25) 
autodockgpu

>  <m_score__min__energy>  (25) 
-11.01

>  <m_primary>  (25) 
energy

>  <rmsd>  (25) 
4.194471843108097

>  <m_score__min__rmsd>  (25) 
4.194471843108097

>  <meeko>  (25) 
{"free_energy": -10.31, "intermolecular_energy": -11.8, "internal_energy": -1.38, "cluster_size": 26, "cluster_id": 1, "rank_in_cluster": 12}

>  <energy>  (25) 
-9.9

>  <cluster_rmsd>  (25) 
1.91

>  <cluster>  (25) 
1

$$$$

     RDKit          3D

 70 75  0  0  0  0  0  0  0  0999 V2000
  145.5220   74.8300  216.3460 N   0  0  0  0  0  0  0  0  0  0  0  0
  145.0240   73.4940  216.4350 C   0  0  0  0  0  0  0  0  0  0  0  0
  143.8530   73.2970  216.0740 O   0  0  0  0  0  0  0  0  0  0  0  0
  145.9480   72.4640  216.9510 C   0  0  0  0  0  0  0  0  0  0  0  0
  145.5700   71.9640  218.2500 N   0  0  0  0  0  0  0  0  0  0  0  0
  145.7150   73.0400  219.1790 C   0  0  0  0  0  0  0  0  0  0  0  0
  144.3500   73.6250  219.4790 C   0  0  0  0  0  0  0  0  0  0  0  0
  143.6610   72.5430  220.2950 C   0  0  0  0  0  0  0  0  0  0  0  0
  142.4620   73.0130  221.0030 C   0  0  0  0  0  0  0  0  0  0  0  0
  141.9520   74.3010  220.8100 C   0  0  0  0  0  0  0  0  0  0  0  0
  140.8350   74.7550  221.4640 C   0  0  0  0  0  0  0  0  0  0  0  0
  140.2780   76.0480  221.3070 N   0  0  0  0  0  0  0  0  0  0  0  0
  138.9090   76.3950  221.6100 C   0  0  0  0  0  0  0  0  0  0  0  0
  138.8250   77.4160  222.7260 C   0  0  0  0  0  0  0  0  0  0  0  0
  140.0030   78.3150  222.7270 C   0  0  0  0  0  0  0  0  0  0  0  0
  140.0300   79.3330  223.6580 C   0  0  0  0  0  0  0  0  0  0  0  0
  141.0750   80.2340  223.7560 C   0  0  0  0  0  0  0  0  0  0  0  0
  142.1260   80.1030  222.8830 C   0  0  0  0  0  0  0  0  0  0  0  0
  142.1130   79.0870  221.9430 C   0  0  0  0  0  0  0  0  0  0  0  0
  141.0620   78.1910  221.8540 C   0  0  0  0  0  0  0  0  0  0  0  0
  141.1250   77.1200  220.8100 C   0  0  0  0  0  0  0  0  0  0  0  0
  140.2440   73.8750  222.3160 N   0  0  0  0  0  0  0  0  0  0  0  0
  140.7010   72.6310  222.5280 C   0  0  0  0  0  0  0  0  0  0  0  0
  140.0380   71.7570  223.4330 N   0  0  0  0  0  0  0  0  0  0  0  0
  138.8510   71.0350  223.0710 C   0  0  0  0  0  0  0  0  0  0  0  0
  139.0190   69.5370  223.2160 C   0  0  0  0  0  0  0  0  0  0  0  0
  139.4900   69.3090  224.6130 C   0  0  0  0  0  0  0  0  0  0  0  0
  139.2010   68.1140  225.2080 C   0  0  0  0  0  0  0  0  0  0  0  0
  139.5760   67.7760  226.4910 C   0  0  0  0  0  0  0  0  0  0  0  0
  140.2920   68.7310  227.1970 C   0  0  0  0  0  0  0  0  0  0  0  0
  140.5920   69.9500  226.6020 C   0  0  0  0  0  0  0  0  0  0  0  0
  140.2020   70.2520  225.3220 C   0  0  0  0  0  0  0  0  0  0  0  0
  140.5670   71.5800  224.7670 C   0  0  0  0  0  0  0  0  0  0  0  0
  141.8070   72.2170  221.8660 N   0  0  0  0  0  0  0  0  0  0  0  0
  143.3940   71.4070  219.3450 C   0  0  0  0  0  0  0  0  0  0  0  0
  144.3740   71.2410  218.2570 C   0  0  0  0  0  0  0  0  0  0  0  0
  145.2330   75.5550  217.0460 H   0  0  0  0  0  0  0  0  0  0  0  0
  146.1900   75.1120  215.5760 H   0  0  0  0  0  0  0  0  0  0  0  0
  145.9644   71.6222  216.2431 H   0  0  0  0  0  0  0  0  0  0  0  0
  146.9372   72.9337  217.0556 H   0  0  0  0  0  0  0  0  0  0  0  0
  146.1673   72.6650  220.1090 H   0  0  0  0  0  0  0  0  0  0  0  0
  146.3637   73.8165  218.7475 H   0  0  0  0  0  0  0  0  0  0  0  0
  144.4415   74.5548  220.0596 H   0  0  0  0  0  0  0  0  0  0  0  0
  143.7923   73.8903  218.5687 H   0  0  0  0  0  0  0  0  0  0  0  0
  144.3095   72.2109  221.1191 H   0  0  0  0  0  0  0  0  0  0  0  0
  142.4654   74.9745  220.1080 H   0  0  0  0  0  0  0  0  0  0  0  0
  138.4389   76.8133  220.7077 H   0  0  0  0  0  0  0  0  0  0  0  0
  138.3883   75.4835  221.9385 H   0  0  0  0  0  0  0  0  0  0  0  0
  137.9149   78.0190  222.5915 H   0  0  0  0  0  0  0  0  0  0  0  0
  138.7993   76.8785  223.6854 H   0  0  0  0  0  0  0  0  0  0  0  0
  139.1832   79.4325  224.3530 H   0  0  0  0  0  0  0  0  0  0  0  0
  141.0640   81.0328  224.5121 H   0  0  0  0  0  0  0  0  0  0  0  0
  142.9742   80.8018  222.9301 H   0  0  0  0  0  0  0  0  0  0  0  0
  142.9604   78.9892  221.2484 H   0  0  0  0  0  0  0  0  0  0  0  0
  140.7454   77.4965  219.8487 H   0  0  0  0  0  0  0  0  0  0  0  0
  142.1561   76.7794  220.6342 H   0  0  0  0  0  0  0  0  0  0  0  0
  138.0264   71.3625  223.7212 H   0  0  0  0  0  0  0  0  0  0  0  0
  138.6391   71.2476  222.0127 H   0  0  0  0  0  0  0  0  0  0  0  0
  138.0590   69.0268  223.0483 H   0  0  0  0  0  0  0  0  0  0  0  0
  139.7331   69.1387  222.4802 H   0  0  0  0  0  0  0  0  0  0  0  0
  138.6325   67.3736  224.6261 H   0  0  0  0  0  0  0  0  0  0  0  0
  139.3208   66.8007  226.9312 H   0  0  0  0  0  0  0  0  0  0  0  0
  140.6217   68.5238  228.2258 H   0  0  0  0  0  0  0  0  0  0  0  0
  141.1604   70.6969  227.1756 H   0  0  0  0  0  0  0  0  0  0  0  0
  140.1599   72.3654  225.4207 H   0  0  0  0  0  0  0  0  0  0  0  0
  141.6639   71.6447  224.7162 H   0  0  0  0  0  0  0  0  0  0  0  0
  143.3760   70.4750  219.9290 H   0  0  0  0  0  0  0  0  0  0  0  0
  142.4383   71.6441  218.8546 H   0  0  0  0  0  0  0  0  0  0  0  0
  144.6517   70.1767  218.2457 H   0  0  0  0  0  0  0  0  0  0  0  0
  143.8399   71.6478  217.3857 H   0  0  0  0  0  0  0  0  0  0  0  0
  1  2  1  0
  2  3  2  0
  2  4  1  0
  4  5  1  0
  5  6  1  0
  6  7  1  0
  7  8  1  0
  8  9  1  0
  9 10  2  0
 10 11  1  0
 11 12  1  0
 12 13  1  0
 13 14  1  0
 14 15  1  0
 15 16  2  0
 16 17  1  0
 17 18  2  0
 18 19  1  0
 19 20  2  0
 20 21  1  0
 11 22  2  0
 22 23  1  0
 23 24  1  0
 24 25  1  0
 25 26  1  0
 26 27  1  0
 27 28  2  0
 28 29  1  0
 29 30  2  0
 30 31  1  0
 31 32  2  0
 32 33  1  0
 23 34  2  0
  8 35  1  0
 35 36  1  0
 36  5  1  0
 34  9  1  0
 21 12  1  0
 33 24  1  0
 20 15  1  0
 32 27  1  0
  1 37  1  0
  1 38  1  0
  4 39  1  0
  4 40  1  0
  6 41  1  0
  6 42  1  0
  7 43  1  0
  7 44  1  0
  8 45  1  0
 10 46  1  0
 13 47  1  0
 13 48  1  0
 14 49  1  0
 14 50  1  0
 16 51  1  0
 17 52  1  0
 18 53  1  0
 19 54  1  0
 21 55  1  0
 21 56  1  0
 25 57  1  0
 25 58  1  0
 26 59  1  0
 26 60  1  0
 28 61  1  0
 29 62  1  0
 30 63  1  0
 31 64  1  0
 33 65  1  0
 33 66  1  0
 35 67  1  0
 35 68  1  0
 36 69  1  0
 36 70  1  0
M  END
>  <smiles>  (26) 
NC(=O)CN1CCC(c2cc(N3CCc4ccccc4C3)nc(N3CCc4ccccc4C3)n2)CC1

>  <score_type>  (26) 
oracle

>  <origin>  (26) 
autodockgpu

>  <m_score__min__energy>  (26) 
-11.01

>  <m_primary>  (26) 
energy

>  <rmsd>  (26) 
4.196586913151214

>  <m_score__min__rmsd>  (26) 
4.196586913151214

>  <meeko>  (26) 
{"free_energy": -10.37, "intermolecular_energy": -11.86, "internal_energy": -1.4, "cluster_size": 12, "cluster_id": 2, "rank_in_cluster": 6}

>  <energy>  (26) 
-9.78

>  <cluster_rmsd>  (26) 
1.91

>  <cluster>  (26) 
1

$$$$

     RDKit          3D

 70 75  0  0  0  0  0  0  0  0999 V2000
  147.3280   74.1170  216.7440 N   0  0  0  0  0  0  0  0  0  0  0  0
  145.9940   73.6200  216.6330 C   0  0  0  0  0  0  0  0  0  0  0  0
  145.0990   74.4410  216.3770 O   0  0  0  0  0  0  0  0  0  0  0  0
  145.7970   72.1700  216.8320 C   0  0  0  0  0  0  0  0  0  0  0  0
  145.5260   71.8200  218.2050 N   0  0  0  0  0  0  0  0  0  0  0  0
  145.6340   73.0150  218.9800 C   0  0  0  0  0  0  0  0  0  0  0  0
  144.2440   73.5360  219.2860 C   0  0  0  0  0  0  0  0  0  0  0  0
  143.6840   72.5250  220.2720 C   0  0  0  0  0  0  0  0  0  0  0  0
  142.4900   72.9980  220.9860 C   0  0  0  0  0  0  0  0  0  0  0  0
  141.9820   74.2870  220.7970 C   0  0  0  0  0  0  0  0  0  0  0  0
  140.8700   74.7430  221.4560 C   0  0  0  0  0  0  0  0  0  0  0  0
  140.3160   76.0380  221.3020 N   0  0  0  0  0  0  0  0  0  0  0  0
  138.9460   76.3850  221.5990 C   0  0  0  0  0  0  0  0  0  0  0  0
  138.8550   77.4010  222.7200 C   0  0  0  0  0  0  0  0  0  0  0  0
  140.0350   78.2990  222.7330 C   0  0  0  0  0  0  0  0  0  0  0  0
  140.0580   79.3110  223.6680 C   0  0  0  0  0  0  0  0  0  0  0  0
  141.1030   80.2110  223.7770 C   0  0  0  0  0  0  0  0  0  0  0  0
  142.1590   80.0820  222.9100 C   0  0  0  0  0  0  0  0  0  0  0  0
  142.1500   79.0720  221.9640 C   0  0  0  0  0  0  0  0  0  0  0  0
  141.0990   78.1770  221.8660 C   0  0  0  0  0  0  0  0  0  0  0  0
  141.1670   77.1120  220.8160 C   0  0  0  0  0  0  0  0  0  0  0  0
  140.2810   73.8650  222.3110 N   0  0  0  0  0  0  0  0  0  0  0  0
  140.7360   72.6200  222.5200 C   0  0  0  0  0  0  0  0  0  0  0  0
  140.0750   71.7470  223.4280 N   0  0  0  0  0  0  0  0  0  0  0  0
  138.9030   71.0030  223.0620 C   0  0  0  0  0  0  0  0  0  0  0  0
  139.0910   69.5100  223.2270 C   0  0  0  0  0  0  0  0  0  0  0  0
  139.5490   69.3060  224.6320 C   0  0  0  0  0  0  0  0  0  0  0  0
  139.2700   68.1140  225.2380 C   0  0  0  0  0  0  0  0  0  0  0  0
  139.6360   67.7970  226.5290 C   0  0  0  0  0  0  0  0  0  0  0  0
  140.3300   68.7710  227.2320 C   0  0  0  0  0  0  0  0  0  0  0  0
  140.6190   69.9870  226.6260 C   0  0  0  0  0  0  0  0  0  0  0  0
  140.2390   70.2670  225.3380 C   0  0  0  0  0  0  0  0  0  0  0  0
  140.5910   71.5930  224.7700 C   0  0  0  0  0  0  0  0  0  0  0  0
  141.8370   72.2030  221.8530 N   0  0  0  0  0  0  0  0  0  0  0  0
  143.4590   71.2580  219.4920 C   0  0  0  0  0  0  0  0  0  0  0  0
  144.3910   71.0210  218.3770 C   0  0  0  0  0  0  0  0  0  0  0  0
  147.6320   74.6440  217.5980 H   0  0  0  0  0  0  0  0  0  0  0  0
  148.0330   73.9640  215.9710 H   0  0  0  0  0  0  0  0  0  0  0  0
  144.9481   71.8436  216.2132 H   0  0  0  0  0  0  0  0  0  0  0  0
  146.7328   71.6687  216.5438 H   0  0  0  0  0  0  0  0  0  0  0  0
  146.1610   72.7974  219.9207 H   0  0  0  0  0  0  0  0  0  0  0  0
  146.1974   73.7726  218.4156 H   0  0  0  0  0  0  0  0  0  0  0  0
  144.2922   74.5379  219.7376 H   0  0  0  0  0  0  0  0  0  0  0  0
  143.6217   73.6394  218.3849 H   0  0  0  0  0  0  0  0  0  0  0  0
  144.3972   72.3503  221.0910 H   0  0  0  0  0  0  0  0  0  0  0  0
  142.4938   74.9600  220.0933 H   0  0  0  0  0  0  0  0  0  0  0  0
  138.4817   76.8081  220.6960 H   0  0  0  0  0  0  0  0  0  0  0  0
  138.4232   75.4721  221.9205 H   0  0  0  0  0  0  0  0  0  0  0  0
  137.9465   78.0057  222.5822 H   0  0  0  0  0  0  0  0  0  0  0  0
  138.8216   76.8591  223.6767 H   0  0  0  0  0  0  0  0  0  0  0  0
  139.2073   79.4075  224.3587 H   0  0  0  0  0  0  0  0  0  0  0  0
  141.0879   81.0067  224.5363 H   0  0  0  0  0  0  0  0  0  0  0  0
  143.0087   80.7783  222.9668 H   0  0  0  0  0  0  0  0  0  0  0  0
  143.0000   78.9782  221.2722 H   0  0  0  0  0  0  0  0  0  0  0  0
  140.7933   77.4945  219.8547 H   0  0  0  0  0  0  0  0  0  0  0  0
  142.1987   76.7714  220.6441 H   0  0  0  0  0  0  0  0  0  0  0  0
  138.0665   71.3260  223.6991 H   0  0  0  0  0  0  0  0  0  0  0  0
  138.7000   71.1995  221.9989 H   0  0  0  0  0  0  0  0  0  0  0  0
  138.1406   68.9837  223.0546 H   0  0  0  0  0  0  0  0  0  0  0  0
  139.8192   69.1133  222.5043 H   0  0  0  0  0  0  0  0  0  0  0  0
  138.7181   67.3588  224.6591 H   0  0  0  0  0  0  0  0  0  0  0  0
  139.3906   66.8232  226.9779 H   0  0  0  0  0  0  0  0  0  0  0  0
  140.6507   68.5808  228.2669 H   0  0  0  0  0  0  0  0  0  0  0  0
  141.1698   70.7492  227.1967 H   0  0  0  0  0  0  0  0  0  0  0  0
  140.1654   72.3804  225.4094 H   0  0  0  0  0  0  0  0  0  0  0  0
  141.6874   71.6720  224.7300 H   0  0  0  0  0  0  0  0  0  0  0  0
  143.5445   70.4119  220.1897 H   0  0  0  0  0  0  0  0  0  0  0  0
  142.4638   71.3600  219.0346 H   0  0  0  0  0  0  0  0  0  0  0  0
  144.7499   69.9867  218.4837 H   0  0  0  0  0  0  0  0  0  0  0  0
  143.7826   71.2718  217.4955 H   0  0  0  0  0  0  0  0  0  0  0  0
  1  2  1  0
  2  3  2  0
  2  4  1  0
  4  5  1  0
  5  6  1  0
  6  7  1  0
  7  8  1  0
  8  9  1  0
  9 10  2  0
 10 11  1  0
 11 12  1  0
 12 13  1  0
 13 14  1  0
 14 15  1  0
 15 16  2  0
 16 17  1  0
 17 18  2  0
 18 19  1  0
 19 20  2  0
 20 21  1  0
 11 22  2  0
 22 23  1  0
 23 24  1  0
 24 25  1  0
 25 26  1  0
 26 27  1  0
 27 28  2  0
 28 29  1  0
 29 30  2  0
 30 31  1  0
 31 32  2  0
 32 33  1  0
 23 34  2  0
  8 35  1  0
 35 36  1  0
 36  5  1  0
 34  9  1  0
 21 12  1  0
 33 24  1  0
 20 15  1  0
 32 27  1  0
  1 37  1  0
  1 38  1  0
  4 39  1  0
  4 40  1  0
  6 41  1  0
  6 42  1  0
  7 43  1  0
  7 44  1  0
  8 45  1  0
 10 46  1  0
 13 47  1  0
 13 48  1  0
 14 49  1  0
 14 50  1  0
 16 51  1  0
 17 52  1  0
 18 53  1  0
 19 54  1  0
 21 55  1  0
 21 56  1  0
 25 57  1  0
 25 58  1  0
 26 59  1  0
 26 60  1  0
 28 61  1  0
 29 62  1  0
 30 63  1  0
 31 64  1  0
 33 65  1  0
 33 66  1  0
 35 67  1  0
 35 68  1  0
 36 69  1  0
 36 70  1  0
M  END
>  <smiles>  (27) 
NC(=O)CN1CCC(c2cc(N3CCc4ccccc4C3)nc(N3CCc4ccccc4C3)n2)CC1

>  <score_type>  (27) 
oracle

>  <origin>  (27) 
autodockgpu

>  <m_score__min__energy>  (27) 
-11.01

>  <m_primary>  (27) 
energy

>  <rmsd>  (27) 
4.196521527078387

>  <m_score__min__rmsd>  (27) 
4.196521527078387

>  <meeko>  (27) 
{"free_energy": -10.23, "intermolecular_energy": -11.72, "internal_energy": -1.34, "cluster_size": 12, "cluster_id": 2, "rank_in_cluster": 12}

>  <energy>  (27) 
-10.58

>  <cluster_rmsd>  (27) 
0.0

>  <cluster>  (27) 
2

$$$$

     RDKit          3D

 70 75  0  0  0  0  0  0  0  0999 V2000
  147.0630   69.4290  216.0940 N   0  0  0  0  0  0  0  0  0  0  0  0
  146.5710   70.7700  216.1040 C   0  0  0  0  0  0  0  0  0  0  0  0
  147.2890   71.6440  215.5950 O   0  0  0  0  0  0  0  0  0  0  0  0
  145.2480   70.9970  216.7200 C   0  0  0  0  0  0  0  0  0  0  0  0
  145.3310   71.4570  218.0850 N   0  0  0  0  0  0  0  0  0  0  0  0
  145.0310   72.8540  218.0820 C   0  0  0  0  0  0  0  0  0  0  0  0
  143.6050   73.0570  218.5510 C   0  0  0  0  0  0  0  0  0  0  0  0
  143.6530   72.7080  220.0280 C   0  0  0  0  0  0  0  0  0  0  0  0
  142.4760   73.1650  220.7810 C   0  0  0  0  0  0  0  0  0  0  0  0
  141.9740   74.4630  220.6430 C   0  0  0  0  0  0  0  0  0  0  0  0
  140.8780   74.9050  221.3380 C   0  0  0  0  0  0  0  0  0  0  0  0
  140.3300   76.2070  221.2380 N   0  0  0  0  0  0  0  0  0  0  0  0
  138.9710   76.5550  221.5780 C   0  0  0  0  0  0  0  0  0  0  0  0
  138.9160   77.5370  222.7310 C   0  0  0  0  0  0  0  0  0  0  0  0
  140.1030   78.4260  222.7420 C   0  0  0  0  0  0  0  0  0  0  0  0
  140.1560   79.4090  223.7070 C   0  0  0  0  0  0  0  0  0  0  0  0
  141.2110   80.2970  223.8180 C   0  0  0  0  0  0  0  0  0  0  0  0
  142.2440   80.1880  222.9210 C   0  0  0  0  0  0  0  0  0  0  0  0
  142.2040   79.2060  221.9460 C   0  0  0  0  0  0  0  0  0  0  0  0
  141.1440   78.3230  221.8460 C   0  0  0  0  0  0  0  0  0  0  0  0
  141.1780   77.2900  220.7630 C   0  0  0  0  0  0  0  0  0  0  0  0
  140.2990   74.0030  222.1760 N   0  0  0  0  0  0  0  0  0  0  0  0
  140.7490   72.7490  222.3350 C   0  0  0  0  0  0  0  0  0  0  0  0
  140.0980   71.8520  223.2270 N   0  0  0  0  0  0  0  0  0  0  0  0
  138.8850   71.1670  222.8780 C   0  0  0  0  0  0  0  0  0  0  0  0
  139.0280   69.6620  222.9570 C   0  0  0  0  0  0  0  0  0  0  0  0
  139.5410   69.3680  224.3260 C   0  0  0  0  0  0  0  0  0  0  0  0
  139.2470   68.1550  224.8820 C   0  0  0  0  0  0  0  0  0  0  0  0
  139.6590   67.7580  226.1360 C   0  0  0  0  0  0  0  0  0  0  0  0
  140.4180   68.6700  226.8550 C   0  0  0  0  0  0  0  0  0  0  0  0
  140.7230   69.9060  226.3000 C   0  0  0  0  0  0  0  0  0  0  0  0
  140.2960   70.2670  225.0470 C   0  0  0  0  0  0  0  0  0  0  0  0
  140.6690   71.6090  224.5330 C   0  0  0  0  0  0  0  0  0  0  0  0
  141.8340   72.3460  221.6340 N   0  0  0  0  0  0  0  0  0  0  0  0
  143.8760   71.2210  220.1020 C   0  0  0  0  0  0  0  0  0  0  0  0
  144.6660   70.6400  219.0040 C   0  0  0  0  0  0  0  0  0  0  0  0
  147.8170   69.1320  216.7600 H   0  0  0  0  0  0  0  0  0  0  0  0
  146.6780   68.7120  215.4180 H   0  0  0  0  0  0  0  0  0  0  0  0
  144.7111   71.7527  216.1279 H   0  0  0  0  0  0  0  0  0  0  0  0
  144.7209   70.0315  216.7306 H   0  0  0  0  0  0  0  0  0  0  0  0
  145.7198   73.3799  218.7595 H   0  0  0  0  0  0  0  0  0  0  0  0
  145.1465   73.2551  217.0643 H   0  0  0  0  0  0  0  0  0  0  0  0
  143.2901   74.1009  218.4056 H   0  0  0  0  0  0  0  0  0  0  0  0
  142.8834   72.4421  217.9931 H   0  0  0  0  0  0  0  0  0  0  0  0
  144.4755   73.2455  220.5226 H   0  0  0  0  0  0  0  0  0  0  0  0
  142.4771   75.1548  219.9514 H   0  0  0  0  0  0  0  0  0  0  0  0
  138.4888   77.0090  220.6997 H   0  0  0  0  0  0  0  0  0  0  0  0
  138.4480   75.6369  221.8840 H   0  0  0  0  0  0  0  0  0  0  0  0
  138.0092   78.1521  222.6343 H   0  0  0  0  0  0  0  0  0  0  0  0
  138.9023   76.9663  223.6713 H   0  0  0  0  0  0  0  0  0  0  0  0
  139.3226   79.4909  224.4203 H   0  0  0  0  0  0  0  0  0  0  0  0
  141.2216   81.0681  224.6024 H   0  0  0  0  0  0  0  0  0  0  0  0
  143.0994   80.8774  222.9765 H   0  0  0  0  0  0  0  0  0  0  0  0
  143.0370   79.1258  221.2321 H   0  0  0  0  0  0  0  0  0  0  0  0
  140.7838   77.7040  219.8232 H   0  0  0  0  0  0  0  0  0  0  0  0
  142.2025   76.9475  220.5552 H   0  0  0  0  0  0  0  0  0  0  0  0
  138.0897   71.4829  223.5692 H   0  0  0  0  0  0  0  0  0  0  0  0
  138.6414   71.4262  221.8371 H   0  0  0  0  0  0  0  0  0  0  0  0
  138.0529   69.1770  222.8021 H   0  0  0  0  0  0  0  0  0  0  0  0
  139.7091   69.2812  222.1817 H   0  0  0  0  0  0  0  0  0  0  0  0
  138.6431   67.4505  224.2913 H   0  0  0  0  0  0  0  0  0  0  0  0
  139.3997   66.7703  226.5450 H   0  0  0  0  0  0  0  0  0  0  0  0
  140.7775   68.4146  227.8627 H   0  0  0  0  0  0  0  0  0  0  0  0
  141.3257   70.6178  226.8831 H   0  0  0  0  0  0  0  0  0  0  0  0
  140.3016   72.3747  225.2322 H   0  0  0  0  0  0  0  0  0  0  0  0
  141.7646   71.6535  224.4452 H   0  0  0  0  0  0  0  0  0  0  0  0
  144.3976   71.0037  221.0458 H   0  0  0  0  0  0  0  0  0  0  0  0
  142.8783   70.7635  220.0292 H   0  0  0  0  0  0  0  0  0  0  0  0
  145.4338   70.0066  219.4722 H   0  0  0  0  0  0  0  0  0  0  0  0
  143.8981   70.1539  218.3843 H   0  0  0  0  0  0  0  0  0  0  0  0
  1  2  1  0
  2  3  2  0
  2  4  1  0
  4  5  1  0
  5  6  1  0
  6  7  1  0
  7  8  1  0
  8  9  1  0
  9 10  2  0
 10 11  1  0
 11 12  1  0
 12 13  1  0
 13 14  1  0
 14 15  1  0
 15 16  2  0
 16 17  1  0
 17 18  2  0
 18 19  1  0
 19 20  2  0
 20 21  1  0
 11 22  2  0
 22 23  1  0
 23 24  1  0
 24 25  1  0
 25 26  1  0
 26 27  1  0
 27 28  2  0
 28 29  1  0
 29 30  2  0
 30 31  1  0
 31 32  2  0
 32 33  1  0
 23 34  2  0
  8 35  1  0
 35 36  1  0
 36  5  1  0
 34  9  1  0
 21 12  1  0
 33 24  1  0
 20 15  1  0
 32 27  1  0
  1 37  1  0
  1 38  1  0
  4 39  1  0
  4 40  1  0
  6 41  1  0
  6 42  1  0
  7 43  1  0
  7 44  1  0
  8 45  1  0
 10 46  1  0
 13 47  1  0
 13 48  1  0
 14 49  1  0
 14 50  1  0
 16 51  1  0
 17 52  1  0
 18 53  1  0
 19 54  1  0
 21 55  1  0
 21 56  1  0
 25 57  1  0
 25 58  1  0
 26 59  1  0
 26 60  1  0
 28 61  1  0
 29 62  1  0
 30 63  1  0
 31 64  1  0
 33 65  1  0
 33 66  1  0
 35 67  1  0
 35 68  1  0
 36 69  1  0
 36 70  1  0
M  END
>  <smiles>  (28) 
NC(=O)CN1CCC(c2cc(N3CCc4ccccc4C3)nc(N3CCc4ccccc4C3)n2)CC1

>  <score_type>  (28) 
oracle

>  <origin>  (28) 
autodockgpu

>  <m_score__min__energy>  (28) 
-11.01

>  <m_primary>  (28) 
energy

>  <rmsd>  (28) 
4.016940675220498

>  <m_score__min__rmsd>  (28) 
4.016940675220498

>  <meeko>  (28) 
{"free_energy": -10.1, "intermolecular_energy": -11.59, "internal_energy": -1.34, "cluster_size": 26, "cluster_id": 1, "rank_in_cluster": 20}

>  <energy>  (28) 
-10.5

>  <cluster_rmsd>  (28) 
0.29

>  <cluster>  (28) 
2

$$$$

     RDKit          3D

 70 75  0  0  0  0  0  0  0  0999 V2000
  142.9560   79.0580  222.7160 N   0  0  0  0  0  0  0  0  0  0  0  0
  141.7980   79.8920  222.7940 C   0  0  0  0  0  0  0  0  0  0  0  0
  141.5780   80.4610  223.8750 O   0  0  0  0  0  0  0  0  0  0  0  0
  140.9650   80.0020  221.5800 C   0  0  0  0  0  0  0  0  0  0  0  0
  140.0420   78.9040  221.4260 N   0  0  0  0  0  0  0  0  0  0  0  0
  140.3980   78.2120  220.2280 C   0  0  0  0  0  0  0  0  0  0  0  0
  141.1660   76.9570  220.5880 C   0  0  0  0  0  0  0  0  0  0  0  0
  140.1180   76.0560  221.2190 C   0  0  0  0  0  0  0  0  0  0  0  0
  140.5370   74.6510  221.3280 C   0  0  0  0  0  0  0  0  0  0  0  0
  141.3920   74.0640  220.3900 C   0  0  0  0  0  0  0  0  0  0  0  0
  141.7920   72.7550  220.4780 C   0  0  0  0  0  0  0  0  0  0  0  0
  142.6540   72.1120  219.5560 N   0  0  0  0  0  0  0  0  0  0  0  0
  144.0430   72.4500  219.3570 C   0  0  0  0  0  0  0  0  0  0  0  0
  144.9580   71.2980  219.7220 C   0  0  0  0  0  0  0  0  0  0  0  0
  144.3060   69.9900  219.4760 C   0  0  0  0  0  0  0  0  0  0  0  0
  145.0470   68.8520  219.7110 C   0  0  0  0  0  0  0  0  0  0  0  0
  144.5480   67.5760  219.5170 C   0  0  0  0  0  0  0  0  0  0  0  0
  143.2570   67.4490  219.0700 C   0  0  0  0  0  0  0  0  0  0  0  0
  142.5000   68.5830  218.8280 C   0  0  0  0  0  0  0  0  0  0  0  0
  143.0110   69.8530  219.0260 C   0  0  0  0  0  0  0  0  0  0  0  0
  142.1260   71.0280  218.7420 C   0  0  0  0  0  0  0  0  0  0  0  0
  141.3070   72.0530  221.5370 N   0  0  0  0  0  0  0  0  0  0  0  0
  140.4860   72.5790  222.4580 C   0  0  0  0  0  0  0  0  0  0  0  0
  140.0130   71.7920  223.5450 N   0  0  0  0  0  0  0  0  0  0  0  0
  138.8750   70.9250  223.4270 C   0  0  0  0  0  0  0  0  0  0  0  0
  139.2090   69.4850  223.7510 C   0  0  0  0  0  0  0  0  0  0  0  0
  139.8450   69.5030  225.1000 C   0  0  0  0  0  0  0  0  0  0  0  0
  139.7430   68.3870  225.8810 C   0  0  0  0  0  0  0  0  0  0  0  0
  140.2840   68.2720  227.1440 C   0  0  0  0  0  0  0  0  0  0  0  0
  140.9690   69.3780  227.6250 C   0  0  0  0  0  0  0  0  0  0  0  0
  141.0790   70.5190  226.8410 C   0  0  0  0  0  0  0  0  0  0  0  0
  140.5270   70.5970  225.5870 C   0  0  0  0  0  0  0  0  0  0  0  0
  140.6950   71.8570  224.8180 C   0  0  0  0  0  0  0  0  0  0  0  0
  140.1110   73.8750  222.3410 N   0  0  0  0  0  0  0  0  0  0  0  0
  139.7630   76.6840  222.5390 C   0  0  0  0  0  0  0  0  0  0  0  0
  139.8490   78.1530  222.5900 C   0  0  0  0  0  0  0  0  0  0  0  0
  142.9630   78.1100  223.1640 H   0  0  0  0  0  0  0  0  0  0  0  0
  143.8250   79.3790  222.2060 H   0  0  0  0  0  0  0  0  0  0  0  0
  140.3898   80.9381  221.6337 H   0  0  0  0  0  0  0  0  0  0  0  0
  141.6431   79.9846  220.7141 H   0  0  0  0  0  0  0  0  0  0  0  0
  139.4866   77.9399  219.6755 H   0  0  0  0  0  0  0  0  0  0  0  0
  141.0243   78.8610  219.5982 H   0  0  0  0  0  0  0  0  0  0  0  0
  141.5947   76.4891  219.6895 H   0  0  0  0  0  0  0  0  0  0  0  0
  142.0140   77.1565  221.2596 H   0  0  0  0  0  0  0  0  0  0  0  0
  139.2294   75.9900  220.5739 H   0  0  0  0  0  0  0  0  0  0  0  0
  141.7571   74.6744  219.5509 H   0  0  0  0  0  0  0  0  0  0  0  0
  144.1991   72.7079  218.2991 H   0  0  0  0  0  0  0  0  0  0  0  0
  144.2859   73.3011  220.0102 H   0  0  0  0  0  0  0  0  0  0  0  0
  145.8730   71.3615  219.1147 H   0  0  0  0  0  0  0  0  0  0  0  0
  145.1947   71.3704  220.7938 H   0  0  0  0  0  0  0  0  0  0  0  0
  146.0813   68.9630  220.0688 H   0  0  0  0  0  0  0  0  0  0  0  0
  145.1682   66.6894  219.7153 H   0  0  0  0  0  0  0  0  0  0  0  0
  142.8253   66.4509  218.9046 H   0  0  0  0  0  0  0  0  0  0  0  0
  141.4662   68.4710  218.4692 H   0  0  0  0  0  0  0  0  0  0  0  0
  142.1670   71.2922  217.6750 H   0  0  0  0  0  0  0  0  0  0  0  0
  141.0728   70.8143  218.9768 H   0  0  0  0  0  0  0  0  0  0  0  0
  138.0943   71.2709  224.1204 H   0  0  0  0  0  0  0  0  0  0  0  0
  138.5326   70.9623  222.3823 H   0  0  0  0  0  0  0  0  0  0  0  0
  138.2937   68.8751  223.7683 H   0  0  0  0  0  0  0  0  0  0  0  0
  139.8788   69.0475  222.9960 H   0  0  0  0  0  0  0  0  0  0  0  0
  139.1937   67.5242  225.4761 H   0  0  0  0  0  0  0  0  0  0  0  0
  140.1780   67.3524  227.7383 H   0  0  0  0  0  0  0  0  0  0  0  0
  141.4244   69.3514  228.6259 H   0  0  0  0  0  0  0  0  0  0  0  0
  141.6256   71.3873  227.2375 H   0  0  0  0  0  0  0  0  0  0  0  0
  140.2817   72.6916  225.4034 H   0  0  0  0  0  0  0  0  0  0  0  0
  141.7682   72.0071  224.6289 H   0  0  0  0  0  0  0  0  0  0  0  0
  138.7294   76.3971  222.7828 H   0  0  0  0  0  0  0  0  0  0  0  0
  140.5094   76.3145  223.2576 H   0  0  0  0  0  0  0  0  0  0  0  0
  138.9082   78.5060  223.0376 H   0  0  0  0  0  0  0  0  0  0  0  0
  140.7840   78.3215  223.1445 H   0  0  0  0  0  0  0  0  0  0  0  0
  1  2  1  0
  2  3  2  0
  2  4  1  0
  4  5  1  0
  5  6  1  0
  6  7  1  0
  7  8  1  0
  8  9  1  0
  9 10  2  0
 10 11  1  0
 11 12  1  0
 12 13  1  0
 13 14  1  0
 14 15  1  0
 15 16  2  0
 16 17  1  0
 17 18  2  0
 18 19  1  0
 19 20  2  0
 20 21  1  0
 11 22  2  0
 22 23  1  0
 23 24  1  0
 24 25  1  0
 25 26  1  0
 26 27  1  0
 27 28  2  0
 28 29  1  0
 29 30  2  0
 30 31  1  0
 31 32  2  0
 32 33  1  0
 23 34  2  0
  8 35  1  0
 35 36  1  0
 36  5  1  0
 34  9  1  0
 21 12  1  0
 33 24  1  0
 20 15  1  0
 32 27  1  0
  1 37  1  0
  1 38  1  0
  4 39  1  0
  4 40  1  0
  6 41  1  0
  6 42  1  0
  7 43  1  0
  7 44  1  0
  8 45  1  0
 10 46  1  0
 13 47  1  0
 13 48  1  0
 14 49  1  0
 14 50  1  0
 16 51  1  0
 17 52  1  0
 18 53  1  0
 19 54  1  0
 21 55  1  0
 21 56  1  0
 25 57  1  0
 25 58  1  0
 26 59  1  0
 26 60  1  0
 28 61  1  0
 29 62  1  0
 30 63  1  0
 31 64  1  0
 33 65  1  0
 33 66  1  0
 35 67  1  0
 35 68  1  0
 36 69  1  0
 36 70  1  0
M  END
>  <smiles>  (29) 
NC(=O)CN1CCC(c2cc(N3CCc4ccccc4C3)nc(N3CCc4ccccc4C3)n2)CC1

>  <score_type>  (29) 
oracle

>  <origin>  (29) 
autodockgpu

>  <m_score__min__energy>  (29) 
-11.01

>  <m_primary>  (29) 
energy

>  <rmsd>  (29) 
10.11048176946583

>  <m_score__min__rmsd>  (29) 
10.11048176946583

>  <meeko>  (29) 
{"free_energy": -9.82, "intermolecular_energy": -11.31, "internal_energy": -1.5, "cluster_size": 12, "cluster_id": 3, "rank_in_cluster": 10}

>  <energy>  (29) 
-10.41

>  <cluster_rmsd>  (29) 
0.77

>  <cluster>  (29) 
2

$$$$

     RDKit          3D

 70 75  0  0  0  0  0  0  0  0999 V2000
  147.2590   69.5650  216.0120 N   0  0  0  0  0  0  0  0  0  0  0  0
  146.6080   70.8310  216.1250 C   0  0  0  0  0  0  0  0  0  0  0  0
  147.1830   71.8140  215.6330 O   0  0  0  0  0  0  0  0  0  0  0  0
  145.3040   70.8570  216.8190 C   0  0  0  0  0  0  0  0  0  0  0  0
  145.3860   71.3960  218.1550 N   0  0  0  0  0  0  0  0  0  0  0  0
  145.0340   72.7780  218.0800 C   0  0  0  0  0  0  0  0  0  0  0  0
  143.6060   72.9540  218.5570 C   0  0  0  0  0  0  0  0  0  0  0  0
  143.6850   72.6890  220.0500 C   0  0  0  0  0  0  0  0  0  0  0  0
  142.5000   73.1430  220.7930 C   0  0  0  0  0  0  0  0  0  0  0  0
  141.9960   74.4400  220.6500 C   0  0  0  0  0  0  0  0  0  0  0  0
  140.8920   74.8790  221.3350 C   0  0  0  0  0  0  0  0  0  0  0  0
  140.3420   76.1800  221.2290 N   0  0  0  0  0  0  0  0  0  0  0  0
  138.9790   76.5250  221.5610 C   0  0  0  0  0  0  0  0  0  0  0  0
  138.9150   77.5080  222.7120 C   0  0  0  0  0  0  0  0  0  0  0  0
  140.0990   78.4000  222.7280 C   0  0  0  0  0  0  0  0  0  0  0  0
  140.1440   79.3850  223.6920 C   0  0  0  0  0  0  0  0  0  0  0  0
  141.1960   80.2770  223.8070 C   0  0  0  0  0  0  0  0  0  0  0  0
  142.2350   80.1690  222.9170 C   0  0  0  0  0  0  0  0  0  0  0  0
  142.2030   79.1850  221.9430 C   0  0  0  0  0  0  0  0  0  0  0  0
  141.1460   78.2990  221.8380 C   0  0  0  0  0  0  0  0  0  0  0  0
  141.1900   77.2630  220.7570 C   0  0  0  0  0  0  0  0  0  0  0  0
  140.3090   73.9760  222.1690 N   0  0  0  0  0  0  0  0  0  0  0  0
  140.7620   72.7230  222.3330 C   0  0  0  0  0  0  0  0  0  0  0  0
  140.1070   71.8250  223.2200 N   0  0  0  0  0  0  0  0  0  0  0  0
  138.9180   71.1100  222.8490 C   0  0  0  0  0  0  0  0  0  0  0  0
  139.0900   69.6090  222.9530 C   0  0  0  0  0  0  0  0  0  0  0  0
  139.5720   69.3450  224.3400 C   0  0  0  0  0  0  0  0  0  0  0  0
  139.2900   68.1340  224.9060 C   0  0  0  0  0  0  0  0  0  0  0  0
  139.6760   67.7640  226.1760 C   0  0  0  0  0  0  0  0  0  0  0  0
  140.3960   68.7020  226.9010 C   0  0  0  0  0  0  0  0  0  0  0  0
  140.6890   69.9360  226.3370 C   0  0  0  0  0  0  0  0  0  0  0  0
  140.2880   70.2710  225.0680 C   0  0  0  0  0  0  0  0  0  0  0  0
  140.6470   71.6130  224.5440 C   0  0  0  0  0  0  0  0  0  0  0  0
  141.8540   72.3240  221.6410 N   0  0  0  0  0  0  0  0  0  0  0  0
  143.9650   71.2180  220.2030 C   0  0  0  0  0  0  0  0  0  0  0  0
  144.7640   70.6060  219.1270 C   0  0  0  0  0  0  0  0  0  0  0  0
  148.0810   69.3310  216.6200 H   0  0  0  0  0  0  0  0  0  0  0  0
  146.9280   68.8410  215.3150 H   0  0  0  0  0  0  0  0  0  0  0  0
  144.6079   71.4757  216.2337 H   0  0  0  0  0  0  0  0  0  0  0  0
  144.9567   69.8168  216.9050 H   0  0  0  0  0  0  0  0  0  0  0  0
  145.7104   73.3653  218.7184 H   0  0  0  0  0  0  0  0  0  0  0  0
  145.1225   73.1265  217.0404 H   0  0  0  0  0  0  0  0  0  0  0  0
  143.2503   73.9759  218.3591 H   0  0  0  0  0  0  0  0  0  0  0  0
  142.9013   72.2833  218.0436 H   0  0  0  0  0  0  0  0  0  0  0  0
  144.4928   73.2829  220.5025 H   0  0  0  0  0  0  0  0  0  0  0  0
  142.5037   75.1331  219.9631 H   0  0  0  0  0  0  0  0  0  0  0  0
  138.5006   76.9765  220.6794 H   0  0  0  0  0  0  0  0  0  0  0  0
  138.4567   75.6059  221.8652 H   0  0  0  0  0  0  0  0  0  0  0  0
  138.0069   78.1203  222.6096 H   0  0  0  0  0  0  0  0  0  0  0  0
  138.8978   76.9386  223.6530 H   0  0  0  0  0  0  0  0  0  0  0  0
  139.3068   79.4654  224.4009 H   0  0  0  0  0  0  0  0  0  0  0  0
  141.1992   81.0503  224.5893 H   0  0  0  0  0  0  0  0  0  0  0  0
  143.0886   80.8602  222.9769 H   0  0  0  0  0  0  0  0  0  0  0  0
  143.0404   79.1059  221.2341 H   0  0  0  0  0  0  0  0  0  0  0  0
  140.8011   77.6737  219.8136 H   0  0  0  0  0  0  0  0  0  0  0  0
  142.2166   76.9226  220.5566 H   0  0  0  0  0  0  0  0  0  0  0  0
  138.0983   71.4185  223.5145 H   0  0  0  0  0  0  0  0  0  0  0  0
  138.6968   71.3499  221.7985 H   0  0  0  0  0  0  0  0  0  0  0  0
  138.1298   69.1014  222.7791 H   0  0  0  0  0  0  0  0  0  0  0  0
  139.7993   69.2319  222.2015 H   0  0  0  0  0  0  0  0  0  0  0  0
  138.7181   67.4078  224.3097 H   0  0  0  0  0  0  0  0  0  0  0  0
  139.4264   66.7771  226.5927 H   0  0  0  0  0  0  0  0  0  0  0  0
  140.7343   68.4684  227.9213 H   0  0  0  0  0  0  0  0  0  0  0  0
  141.2606   70.6685  226.9258 H   0  0  0  0  0  0  0  0  0  0  0  0
  140.2450   72.3808  225.2214 H   0  0  0  0  0  0  0  0  0  0  0  0
  141.7434   71.6792  224.4849 H   0  0  0  0  0  0  0  0  0  0  0  0
  144.5056   71.0733  221.1500 H   0  0  0  0  0  0  0  0  0  0  0  0
  142.9846   70.7204  220.1696 H   0  0  0  0  0  0  0  0  0  0  0  0
  145.5612   70.0290  219.6185 H   0  0  0  0  0  0  0  0  0  0  0  0
  144.0084   70.0569  218.5461 H   0  0  0  0  0  0  0  0  0  0  0  0
  1  2  1  0
  2  3  2  0
  2  4  1  0
  4  5  1  0
  5  6  1  0
  6  7  1  0
  7  8  1  0
  8  9  1  0
  9 10  2  0
 10 11  1  0
 11 12  1  0
 12 13  1  0
 13 14  1  0
 14 15  1  0
 15 16  2  0
 16 17  1  0
 17 18  2  0
 18 19  1  0
 19 20  2  0
 20 21  1  0
 11 22  2  0
 22 23  1  0
 23 24  1  0
 24 25  1  0
 25 26  1  0
 26 27  1  0
 27 28  2  0
 28 29  1  0
 29 30  2  0
 30 31  1  0
 31 32  2  0
 32 33  1  0
 23 34  2  0
  8 35  1  0
 35 36  1  0
 36  5  1  0
 34  9  1  0
 21 12  1  0
 33 24  1  0
 20 15  1  0
 32 27  1  0
  1 37  1  0
  1 38  1  0
  4 39  1  0
  4 40  1  0
  6 41  1  0
  6 42  1  0
  7 43  1  0
  7 44  1  0
  8 45  1  0
 10 46  1  0
 13 47  1  0
 13 48  1  0
 14 49  1  0
 14 50  1  0
 16 51  1  0
 17 52  1  0
 18 53  1  0
 19 54  1  0
 21 55  1  0
 21 56  1  0
 25 57  1  0
 25 58  1  0
 26 59  1  0
 26 60  1  0
 28 61  1  0
 29 62  1  0
 30 63  1  0
 31 64  1  0
 33 65  1  0
 33 66  1  0
 35 67  1  0
 35 68  1  0
 36 69  1  0
 36 70  1  0
M  END
>  <smiles>  (30) 
NC(=O)CN1CCC(c2cc(N3CCc4ccccc4C3)nc(N3CCc4ccccc4C3)n2)CC1

>  <score_type>  (30) 
oracle

>  <origin>  (30) 
autodockgpu

>  <m_score__min__energy>  (30) 
-11.01

>  <m_primary>  (30) 
energy

>  <rmsd>  (30) 
4.039318638845811

>  <m_score__min__rmsd>  (30) 
4.039318638845811

>  <meeko>  (30) 
{"free_energy": -10.05, "intermolecular_energy": -11.55, "internal_energy": -1.35, "cluster_size": 26, "cluster_id": 1, "rank_in_cluster": 21}

>  <energy>  (30) 
-10.38

>  <cluster_rmsd>  (30) 
0.73

>  <cluster>  (30) 
2

$$$$

     RDKit          3D

 70 75  0  0  0  0  0  0  0  0999 V2000
  143.2930   79.3770  222.7080 N   0  0  0  0  0  0  0  0  0  0  0  0
  142.0030   79.9890  222.7290 C   0  0  0  0  0  0  0  0  0  0  0  0
  141.6320   80.5000  223.7960 O   0  0  0  0  0  0  0  0  0  0  0  0
  141.2240   79.9590  221.4740 C   0  0  0  0  0  0  0  0  0  0  0  0
  140.2370   78.9080  221.4460 N   0  0  0  0  0  0  0  0  0  0  0  0
  140.3900   78.2110  220.2090 C   0  0  0  0  0  0  0  0  0  0  0  0
  141.1390   76.9170  220.4560 C   0  0  0  0  0  0  0  0  0  0  0  0
  140.1450   76.0620  221.2230 C   0  0  0  0  0  0  0  0  0  0  0  0
  140.5070   74.6370  221.2700 C   0  0  0  0  0  0  0  0  0  0  0  0
  141.2720   74.0400  220.2640 C   0  0  0  0  0  0  0  0  0  0  0  0
  141.6170   72.7130  220.2930 C   0  0  0  0  0  0  0  0  0  0  0  0
  142.3870   72.0580  219.3010 N   0  0  0  0  0  0  0  0  0  0  0  0
  143.4550   72.6760  218.5500 C   0  0  0  0  0  0  0  0  0  0  0  0
  144.7890   72.0110  218.8230 C   0  0  0  0  0  0  0  0  0  0  0  0
  144.6220   70.5700  219.1320 C   0  0  0  0  0  0  0  0  0  0  0  0
  145.7620   69.8260  219.3450 C   0  0  0  0  0  0  0  0  0  0  0  0
  145.7340   68.4750  219.6410 C   0  0  0  0  0  0  0  0  0  0  0  0
  144.5110   67.8570  219.7230 C   0  0  0  0  0  0  0  0  0  0  0  0
  143.3570   68.5910  219.5100 C   0  0  0  0  0  0  0  0  0  0  0  0
  143.3980   69.9420  219.2150 C   0  0  0  0  0  0  0  0  0  0  0  0
  142.1040   70.6640  219.0000 C   0  0  0  0  0  0  0  0  0  0  0  0
  141.1700   72.0040  221.3640 N   0  0  0  0  0  0  0  0  0  0  0  0
  140.4350   72.5400  222.3500 C   0  0  0  0  0  0  0  0  0  0  0  0
  139.9980   71.7450  223.4460 N   0  0  0  0  0  0  0  0  0  0  0  0
  138.8900   70.8370  223.3420 C   0  0  0  0  0  0  0  0  0  0  0  0
  139.2780   69.4120  223.6740 C   0  0  0  0  0  0  0  0  0  0  0  0
  139.9230   69.4620  225.0180 C   0  0  0  0  0  0  0  0  0  0  0  0
  139.8660   68.3480  225.8070 C   0  0  0  0  0  0  0  0  0  0  0  0
  140.4200   68.2620  227.0670 C   0  0  0  0  0  0  0  0  0  0  0  0
  141.0690   69.3950  227.5350 C   0  0  0  0  0  0  0  0  0  0  0  0
  141.1330   70.5330  226.7420 C   0  0  0  0  0  0  0  0  0  0  0  0
  140.5700   70.5830  225.4920 C   0  0  0  0  0  0  0  0  0  0  0  0
  140.6870   71.8420  224.7130 C   0  0  0  0  0  0  0  0  0  0  0  0
  140.1130   73.8530  222.2890 N   0  0  0  0  0  0  0  0  0  0  0  0
  140.0070   76.6940  222.5820 C   0  0  0  0  0  0  0  0  0  0  0  0
  140.1700   78.1570  222.6240 C   0  0  0  0  0  0  0  0  0  0  0  0
  143.4480   78.4410  223.1560 H   0  0  0  0  0  0  0  0  0  0  0  0
  144.1150   79.8530  222.2430 H   0  0  0  0  0  0  0  0  0  0  0  0
  140.7104   80.9248  221.3575 H   0  0  0  0  0  0  0  0  0  0  0  0
  141.9310   79.7670  220.6535 H   0  0  0  0  0  0  0  0  0  0  0  0
  139.3988   77.9878  219.7874 H   0  0  0  0  0  0  0  0  0  0  0  0
  140.9540   78.8352  219.5002 H   0  0  0  0  0  0  0  0  0  0  0  0
  141.4165   76.4376  219.5056 H   0  0  0  0  0  0  0  0  0  0  0  0
  142.0804   77.0691  221.0042 H   0  0  0  0  0  0  0  0  0  0  0  0
  139.1738   76.0451  220.7067 H   0  0  0  0  0  0  0  0  0  0  0  0
  141.6096   74.6570  219.4182 H   0  0  0  0  0  0  0  0  0  0  0  0
  143.2293   72.5950  217.4765 H   0  0  0  0  0  0  0  0  0  0  0  0
  143.5270   73.7292  218.8590 H   0  0  0  0  0  0  0  0  0  0  0  0
  145.4291   72.1147  217.9344 H   0  0  0  0  0  0  0  0  0  0  0  0
  145.2483   72.5010  219.6942 H   0  0  0  0  0  0  0  0  0  0  0  0
  146.7380   70.3288  219.2766 H   0  0  0  0  0  0  0  0  0  0  0  0
  146.6647   67.9123  219.8059 H   0  0  0  0  0  0  0  0  0  0  0  0
  144.4484   66.7840  219.9568 H   0  0  0  0  0  0  0  0  0  0  0  0
  142.3816   68.0869  219.5770 H   0  0  0  0  0  0  0  0  0  0  0  0
  141.7708   70.5551  217.9574 H   0  0  0  0  0  0  0  0  0  0  0  0
  141.3004   70.2626  219.6349 H   0  0  0  0  0  0  0  0  0  0  0  0
  138.1022   71.1599  224.0385 H   0  0  0  0  0  0  0  0  0  0  0  0
  138.5389   70.8546  222.2997 H   0  0  0  0  0  0  0  0  0  0  0  0
  138.3853   68.7699  223.7025 H   0  0  0  0  0  0  0  0  0  0  0  0
  139.9577   68.9936  222.9171 H   0  0  0  0  0  0  0  0  0  0  0  0
  139.3450   67.4634  225.4121 H   0  0  0  0  0  0  0  0  0  0  0  0
  140.3509   67.3438  227.6688 H   0  0  0  0  0  0  0  0  0  0  0  0
  141.5322   69.3920  228.5327 H   0  0  0  0  0  0  0  0  0  0  0  0
  141.6516   71.4228  227.1284 H   0  0  0  0  0  0  0  0  0  0  0  0
  140.2492   72.6655  225.2962 H   0  0  0  0  0  0  0  0  0  0  0  0
  141.7528   72.0277  224.5138 H   0  0  0  0  0  0  0  0  0  0  0  0
  139.0046   76.4542  222.9663 H   0  0  0  0  0  0  0  0  0  0  0  0
  140.8269   76.2828  223.1892 H   0  0  0  0  0  0  0  0  0  0  0  0
  139.3179   78.5504  223.1977 H   0  0  0  0  0  0  0  0  0  0  0  0
  141.1793   78.2762  223.0448 H   0  0  0  0  0  0  0  0  0  0  0  0
  1  2  1  0
  2  3  2  0
  2  4  1  0
  4  5  1  0
  5  6  1  0
  6  7  1  0
  7  8  1  0
  8  9  1  0
  9 10  2  0
 10 11  1  0
 11 12  1  0
 12 13  1  0
 13 14  1  0
 14 15  1  0
 15 16  2  0
 16 17  1  0
 17 18  2  0
 18 19  1  0
 19 20  2  0
 20 21  1  0
 11 22  2  0
 22 23  1  0
 23 24  1  0
 24 25  1  0
 25 26  1  0
 26 27  1  0
 27 28  2  0
 28 29  1  0
 29 30  2  0
 30 31  1  0
 31 32  2  0
 32 33  1  0
 23 34  2  0
  8 35  1  0
 35 36  1  0
 36  5  1  0
 34  9  1  0
 21 12  1  0
 33 24  1  0
 20 15  1  0
 32 27  1  0
  1 37  1  0
  1 38  1  0
  4 39  1  0
  4 40  1  0
  6 41  1  0
  6 42  1  0
  7 43  1  0
  7 44  1  0
  8 45  1  0
 10 46  1  0
 13 47  1  0
 13 48  1  0
 14 49  1  0
 14 50  1  0
 16 51  1  0
 17 52  1  0
 18 53  1  0
 19 54  1  0
 21 55  1  0
 21 56  1  0
 25 57  1  0
 25 58  1  0
 26 59  1  0
 26 60  1  0
 28 61  1  0
 29 62  1  0
 30 63  1  0
 31 64  1  0
 33 65  1  0
 33 66  1  0
 35 67  1  0
 35 68  1  0
 36 69  1  0
 36 70  1  0
M  END
>  <smiles>  (31) 
NC(=O)CN1CCC(c2cc(N3CCc4ccccc4C3)nc(N3CCc4ccccc4C3)n2)CC1

>  <score_type>  (31) 
oracle

>  <origin>  (31) 
autodockgpu

>  <m_score__min__energy>  (31) 
-11.01

>  <m_primary>  (31) 
energy

>  <rmsd>  (31) 
10.025387284730495

>  <m_score__min__rmsd>  (31) 
10.025387284730495

>  <meeko>  (31) 
{"free_energy": -9.89, "intermolecular_energy": -11.38, "internal_energy": -1.45, "cluster_size": 12, "cluster_id": 3, "rank_in_cluster": 8}

>  <energy>  (31) 
-10.38

>  <cluster_rmsd>  (31) 
0.78

>  <cluster>  (31) 
2

$$$$

     RDKit          3D

 70 75  0  0  0  0  0  0  0  0999 V2000
  144.1290   72.5810  215.2550 N   0  0  0  0  0  0  0  0  0  0  0  0
  144.8650   73.2720  216.2650 C   0  0  0  0  0  0  0  0  0  0  0  0
  144.5410   74.4450  216.5040 O   0  0  0  0  0  0  0  0  0  0  0  0
  145.9480   72.5260  216.9370 C   0  0  0  0  0  0  0  0  0  0  0  0
  145.5600   72.0000  218.2230 N   0  0  0  0  0  0  0  0  0  0  0  0
  145.7150   73.0520  219.1780 C   0  0  0  0  0  0  0  0  0  0  0  0
  144.3570   73.6470  219.4880 C   0  0  0  0  0  0  0  0  0  0  0  0
  143.6510   72.5550  220.2750 C   0  0  0  0  0  0  0  0  0  0  0  0
  142.4560   73.0230  220.9910 C   0  0  0  0  0  0  0  0  0  0  0  0
  141.9400   74.3090  220.7980 C   0  0  0  0  0  0  0  0  0  0  0  0
  140.8260   74.7610  221.4580 C   0  0  0  0  0  0  0  0  0  0  0  0
  140.2640   76.0510  221.3010 N   0  0  0  0  0  0  0  0  0  0  0  0
  138.8920   76.3910  221.5990 C   0  0  0  0  0  0  0  0  0  0  0  0
  138.7980   77.4100  222.7170 C   0  0  0  0  0  0  0  0  0  0  0  0
  139.9720   78.3160  222.7230 C   0  0  0  0  0  0  0  0  0  0  0  0
  139.9910   79.3320  223.6550 C   0  0  0  0  0  0  0  0  0  0  0  0
  141.0300   80.2380  223.7580 C   0  0  0  0  0  0  0  0  0  0  0  0
  142.0850   80.1130  222.8900 C   0  0  0  0  0  0  0  0  0  0  0  0
  142.0810   79.0990  221.9480 C   0  0  0  0  0  0  0  0  0  0  0  0
  141.0350   78.1980  221.8540 C   0  0  0  0  0  0  0  0  0  0  0  0
  141.1080   77.1280  220.8080 C   0  0  0  0  0  0  0  0  0  0  0  0
  140.2450   73.8820  222.3180 N   0  0  0  0  0  0  0  0  0  0  0  0
  140.7090   72.6410  222.5310 C   0  0  0  0  0  0  0  0  0  0  0  0
  140.0550   71.7680  223.4440 N   0  0  0  0  0  0  0  0  0  0  0  0
  138.8600   71.0510  223.0990 C   0  0  0  0  0  0  0  0  0  0  0  0
  139.0250   69.5520  223.2390 C   0  0  0  0  0  0  0  0  0  0  0  0
  139.5150   69.3190  224.6280 C   0  0  0  0  0  0  0  0  0  0  0  0
  139.2300   68.1240  225.2260 C   0  0  0  0  0  0  0  0  0  0  0  0
  139.6230   67.7830  226.5020 C   0  0  0  0  0  0  0  0  0  0  0  0
  140.3540   68.7340  227.1990 C   0  0  0  0  0  0  0  0  0  0  0  0
  140.6500   69.9530  226.6020 C   0  0  0  0  0  0  0  0  0  0  0  0
  140.2410   70.2580  225.3280 C   0  0  0  0  0  0  0  0  0  0  0  0
  140.6030   71.5860  224.7700 C   0  0  0  0  0  0  0  0  0  0  0  0
  141.8110   72.2280  221.8630 N   0  0  0  0  0  0  0  0  0  0  0  0
  143.3730   71.4450  219.2980 C   0  0  0  0  0  0  0  0  0  0  0  0
  144.3540   71.2930  218.2090 C   0  0  0  0  0  0  0  0  0  0  0  0
  144.2950   72.7840  214.2400 H   0  0  0  0  0  0  0  0  0  0  0  0
  143.4050   71.8530  215.5090 H   0  0  0  0  0  0  0  0  0  0  0  0
  146.2478   71.6871  216.2917 H   0  0  0  0  0  0  0  0  0  0  0  0
  146.7750   73.2310  217.1072 H   0  0  0  0  0  0  0  0  0  0  0  0
  146.1595   72.6493  220.1001 H   0  0  0  0  0  0  0  0  0  0  0  0
  146.3745   73.8304  218.7667 H   0  0  0  0  0  0  0  0  0  0  0  0
  144.4586   74.5611  220.0915 H   0  0  0  0  0  0  0  0  0  0  0  0
  143.8060   73.9415  218.5827 H   0  0  0  0  0  0  0  0  0  0  0  0
  144.2926   72.1951  221.0928 H   0  0  0  0  0  0  0  0  0  0  0  0
  142.4465   74.9824  220.0909 H   0  0  0  0  0  0  0  0  0  0  0  0
  138.4237   76.8086  220.6955 H   0  0  0  0  0  0  0  0  0  0  0  0
  138.3745   75.4763  221.9238 H   0  0  0  0  0  0  0  0  0  0  0  0
  137.8850   78.0081  222.5804 H   0  0  0  0  0  0  0  0  0  0  0  0
  138.7716   76.8710  223.6755 H   0  0  0  0  0  0  0  0  0  0  0  0
  139.1415   79.4258  224.3475 H   0  0  0  0  0  0  0  0  0  0  0  0
  141.0114   81.0364  224.5144 H   0  0  0  0  0  0  0  0  0  0  0  0
  142.9300   80.8153  222.9425 H   0  0  0  0  0  0  0  0  0  0  0  0
  142.9312   79.0070  221.2562 H   0  0  0  0  0  0  0  0  0  0  0  0
  140.7304   77.5037  219.8456 H   0  0  0  0  0  0  0  0  0  0  0  0
  142.1414   76.7930  220.6356 H   0  0  0  0  0  0  0  0  0  0  0  0
  138.0466   71.3803  223.7623 H   0  0  0  0  0  0  0  0  0  0  0  0
  138.6325   71.2662  222.0445 H   0  0  0  0  0  0  0  0  0  0  0  0
  138.0609   69.0455  223.0841 H   0  0  0  0  0  0  0  0  0  0  0  0
  139.7274   69.1531  222.4923 H   0  0  0  0  0  0  0  0  0  0  0  0
  138.6495   67.3868  224.6520 H   0  0  0  0  0  0  0  0  0  0  0  0
  139.3704   66.8081  226.9446 H   0  0  0  0  0  0  0  0  0  0  0  0
  140.6985   68.5233  228.2222 H   0  0  0  0  0  0  0  0  0  0  0  0
  141.2301   70.6967  227.1680 H   0  0  0  0  0  0  0  0  0  0  0  0
  140.2087   72.3717  225.4312 H   0  0  0  0  0  0  0  0  0  0  0  0
  141.6993   71.6464  224.7030 H   0  0  0  0  0  0  0  0  0  0  0  0
  143.3423   70.4998  219.8598 H   0  0  0  0  0  0  0  0  0  0  0  0
  142.4216   71.7049  218.8110 H   0  0  0  0  0  0  0  0  0  0  0  0
  144.6175   70.2257  218.1720 H   0  0  0  0  0  0  0  0  0  0  0  0
  143.8280   71.7286  217.3467 H   0  0  0  0  0  0  0  0  0  0  0  0
  1  2  1  0
  2  3  2  0
  2  4  1  0
  4  5  1  0
  5  6  1  0
  6  7  1  0
  7  8  1  0
  8  9  1  0
  9 10  2  0
 10 11  1  0
 11 12  1  0
 12 13  1  0
 13 14  1  0
 14 15  1  0
 15 16  2  0
 16 17  1  0
 17 18  2  0
 18 19  1  0
 19 20  2  0
 20 21  1  0
 11 22  2  0
 22 23  1  0
 23 24  1  0
 24 25  1  0
 25 26  1  0
 26 27  1  0
 27 28  2  0
 28 29  1  0
 29 30  2  0
 30 31  1  0
 31 32  2  0
 32 33  1  0
 23 34  2  0
  8 35  1  0
 35 36  1  0
 36  5  1  0
 34  9  1  0
 21 12  1  0
 33 24  1  0
 20 15  1  0
 32 27  1  0
  1 37  1  0
  1 38  1  0
  4 39  1  0
  4 40  1  0
  6 41  1  0
  6 42  1  0
  7 43  1  0
  7 44  1  0
  8 45  1  0
 10 46  1  0
 13 47  1  0
 13 48  1  0
 14 49  1  0
 14 50  1  0
 16 51  1  0
 17 52  1  0
 18 53  1  0
 19 54  1  0
 21 55  1  0
 21 56  1  0
 25 57  1  0
 25 58  1  0
 26 59  1  0
 26 60  1  0
 28 61  1  0
 29 62  1  0
 30 63  1  0
 31 64  1  0
 33 65  1  0
 33 66  1  0
 35 67  1  0
 35 68  1  0
 36 69  1  0
 36 70  1  0
M  END
>  <smiles>  (32) 
NC(=O)CN1CCC(c2cc(N3CCc4ccccc4C3)nc(N3CCc4ccccc4C3)n2)CC1

>  <score_type>  (32) 
oracle

>  <origin>  (32) 
autodockgpu

>  <m_score__min__energy>  (32) 
-11.01

>  <m_primary>  (32) 
energy

>  <rmsd>  (32) 
4.184490375635356

>  <m_score__min__rmsd>  (32) 
4.184490375635356

>  <meeko>  (32) 
{"free_energy": -9.78, "intermolecular_energy": -11.27, "internal_energy": -1.46, "cluster_size": 26, "cluster_id": 1, "rank_in_cluster": 26}

>  <energy>  (32) 
-10.37

>  <cluster_rmsd>  (32) 
0.71

>  <cluster>  (32) 
2

$$$$

     RDKit          3D

 70 75  0  0  0  0  0  0  0  0999 V2000
  146.7620   69.9720  216.3340 N   0  0  0  0  0  0  0  0  0  0  0  0
  146.6990   71.3650  216.0250 C   0  0  0  0  0  0  0  0  0  0  0  0
  147.5480   71.8130  215.2390 O   0  0  0  0  0  0  0  0  0  0  0  0
  145.6260   72.1490  216.6700 C   0  0  0  0  0  0  0  0  0  0  0  0
  145.3330   71.7100  218.0130 N   0  0  0  0  0  0  0  0  0  0  0  0
  145.5440   72.8240  218.8810 C   0  0  0  0  0  0  0  0  0  0  0  0
  144.2050   73.4320  219.2450 C   0  0  0  0  0  0  0  0  0  0  0  0
  143.5670   72.3920  220.1510 C   0  0  0  0  0  0  0  0  0  0  0  0
  142.4200   72.9020  220.9160 C   0  0  0  0  0  0  0  0  0  0  0  0
  141.9350   74.2010  220.7360 C   0  0  0  0  0  0  0  0  0  0  0  0
  140.8660   74.6910  221.4410 C   0  0  0  0  0  0  0  0  0  0  0  0
  140.3370   75.9970  221.2990 N   0  0  0  0  0  0  0  0  0  0  0  0
  138.9720   76.3660  221.5920 C   0  0  0  0  0  0  0  0  0  0  0  0
  138.8930   77.3710  222.7240 C   0  0  0  0  0  0  0  0  0  0  0  0
  140.0890   78.2470  222.7540 C   0  0  0  0  0  0  0  0  0  0  0  0
  140.1240   79.2480  223.7010 C   0  0  0  0  0  0  0  0  0  0  0  0
  141.1850   80.1270  223.8260 C   0  0  0  0  0  0  0  0  0  0  0  0
  142.2440   79.9890  222.9640 C   0  0  0  0  0  0  0  0  0  0  0  0
  142.2220   78.9890  222.0070 C   0  0  0  0  0  0  0  0  0  0  0  0
  141.1560   78.1160  221.8910 C   0  0  0  0  0  0  0  0  0  0  0  0
  141.2110   77.0610  220.8300 C   0  0  0  0  0  0  0  0  0  0  0  0
  140.2980   73.8370  222.3340 N   0  0  0  0  0  0  0  0  0  0  0  0
  140.7330   72.5830  222.5360 C   0  0  0  0  0  0  0  0  0  0  0  0
  140.0940   71.7370  223.4840 N   0  0  0  0  0  0  0  0  0  0  0  0
  138.8620   71.0570  223.1990 C   0  0  0  0  0  0  0  0  0  0  0  0
  138.9850   69.5540  223.3420 C   0  0  0  0  0  0  0  0  0  0  0  0
  139.5320   69.3140  224.7090 C   0  0  0  0  0  0  0  0  0  0  0  0
  139.2370   68.1320  225.3270 C   0  0  0  0  0  0  0  0  0  0  0  0
  139.6780   67.7850  226.5860 C   0  0  0  0  0  0  0  0  0  0  0  0
  140.4690   68.7160  227.2420 C   0  0  0  0  0  0  0  0  0  0  0  0
  140.7760   69.9210  226.6240 C   0  0  0  0  0  0  0  0  0  0  0  0
  140.3190   70.2320  225.3680 C   0  0  0  0  0  0  0  0  0  0  0  0
  140.6970   71.5440  224.7840 C   0  0  0  0  0  0  0  0  0  0  0  0
  141.7900   72.1320  221.8220 N   0  0  0  0  0  0  0  0  0  0  0  0
  143.2320   71.2170  219.2720 C   0  0  0  0  0  0  0  0  0  0  0  0
  144.1360   70.9970  218.1310 C   0  0  0  0  0  0  0  0  0  0  0  0
  147.4950   69.6030  216.9870 H   0  0  0  0  0  0  0  0  0  0  0  0
  146.0750   69.2880  215.9130 H   0  0  0  0  0  0  0  0  0  0  0  0
  145.9366   73.2036  216.7064 H   0  0  0  0  0  0  0  0  0  0  0  0
  144.7130   72.0087  216.0727 H   0  0  0  0  0  0  0  0  0  0  0  0
  146.0556   72.4869  219.7946 H   0  0  0  0  0  0  0  0  0  0  0  0
  146.1657   73.5760  218.3730 H   0  0  0  0  0  0  0  0  0  0  0  0
  144.3395   74.3853  219.7771 H   0  0  0  0  0  0  0  0  0  0  0  0
  143.5892   73.6621  218.3630 H   0  0  0  0  0  0  0  0  0  0  0  0
  144.2676   72.0908  220.9438 H   0  0  0  0  0  0  0  0  0  0  0  0
  142.4293   74.8539  220.0016 H   0  0  0  0  0  0  0  0  0  0  0  0
  138.5210   76.8077  220.6912 H   0  0  0  0  0  0  0  0  0  0  0  0
  138.4306   75.4594  221.9002 H   0  0  0  0  0  0  0  0  0  0  0  0
  137.9965   77.9938  222.5878 H   0  0  0  0  0  0  0  0  0  0  0  0
  138.8441   76.8191  223.6743 H   0  0  0  0  0  0  0  0  0  0  0  0
  139.2709   79.3525  224.3875 H   0  0  0  0  0  0  0  0  0  0  0  0
  141.1800   80.9141  224.5944 H   0  0  0  0  0  0  0  0  0  0  0  0
  143.1056   80.6693  223.0332 H   0  0  0  0  0  0  0  0  0  0  0  0
  143.0753   78.8861  221.3205 H   0  0  0  0  0  0  0  0  0  0  0  0
  140.8505   77.4606  219.8706 H   0  0  0  0  0  0  0  0  0  0  0  0
  142.2374   76.7033  220.6610 H   0  0  0  0  0  0  0  0  0  0  0  0
  138.0909   71.4162  223.8964 H   0  0  0  0  0  0  0  0  0  0  0  0
  138.5935   71.2735  222.1545 H   0  0  0  0  0  0  0  0  0  0  0  0
  137.9990   69.0781  223.2360 H   0  0  0  0  0  0  0  0  0  0  0  0
  139.6382   69.1278  222.5663 H   0  0  0  0  0  0  0  0  0  0  0  0
  138.6072   67.4110  224.7852 H   0  0  0  0  0  0  0  0  0  0  0  0
  139.4163   66.8207  227.0459 H   0  0  0  0  0  0  0  0  0  0  0  0
  140.8526   68.5004  228.2502 H   0  0  0  0  0  0  0  0  0  0  0  0
  141.4049   70.6487  227.1577 H   0  0  0  0  0  0  0  0  0  0  0  0
  140.3598   72.3458  225.4574 H   0  0  0  0  0  0  0  0  0  0  0  0
  141.7903   71.5676  224.6651 H   0  0  0  0  0  0  0  0  0  0  0  0
  143.2490   70.3116  219.8965 H   0  0  0  0  0  0  0  0  0  0  0  0
  142.2466   71.4389  218.8363 H   0  0  0  0  0  0  0  0  0  0  0  0
  144.4072   69.9311  218.1478 H   0  0  0  0  0  0  0  0  0  0  0  0
  143.5471   71.3702  217.2802 H   0  0  0  0  0  0  0  0  0  0  0  0
  1  2  1  0
  2  3  2  0
  2  4  1  0
  4  5  1  0
  5  6  1  0
  6  7  1  0
  7  8  1  0
  8  9  1  0
  9 10  2  0
 10 11  1  0
 11 12  1  0
 12 13  1  0
 13 14  1  0
 14 15  1  0
 15 16  2  0
 16 17  1  0
 17 18  2  0
 18 19  1  0
 19 20  2  0
 20 21  1  0
 11 22  2  0
 22 23  1  0
 23 24  1  0
 24 25  1  0
 25 26  1  0
 26 27  1  0
 27 28  2  0
 28 29  1  0
 29 30  2  0
 30 31  1  0
 31 32  2  0
 32 33  1  0
 23 34  2  0
  8 35  1  0
 35 36  1  0
 36  5  1  0
 34  9  1  0
 21 12  1  0
 33 24  1  0
 20 15  1  0
 32 27  1  0
  1 37  1  0
  1 38  1  0
  4 39  1  0
  4 40  1  0
  6 41  1  0
  6 42  1  0
  7 43  1  0
  7 44  1  0
  8 45  1  0
 10 46  1  0
 13 47  1  0
 13 48  1  0
 14 49  1  0
 14 50  1  0
 16 51  1  0
 17 52  1  0
 18 53  1  0
 19 54  1  0
 21 55  1  0
 21 56  1  0
 25 57  1  0
 25 58  1  0
 26 59  1  0
 26 60  1  0
 28 61  1  0
 29 62  1  0
 30 63  1  0
 31 64  1  0
 33 65  1  0
 33 66  1  0
 35 67  1  0
 35 68  1  0
 36 69  1  0
 36 70  1  0
M  END
>  <smiles>  (33) 
NC(=O)CN1CCC(c2cc(N3CCc4ccccc4C3)nc(N3CCc4ccccc4C3)n2)CC1

>  <score_type>  (33) 
oracle

>  <origin>  (33) 
autodockgpu

>  <m_score__min__energy>  (33) 
-11.01

>  <m_primary>  (33) 
energy

>  <rmsd>  (33) 
4.2276052715207175

>  <m_score__min__rmsd>  (33) 
4.2276052715207175

>  <meeko>  (33) 
{"free_energy": -10.26, "intermolecular_energy": -11.75, "internal_energy": -1.4, "cluster_size": 26, "cluster_id": 1, "rank_in_cluster": 15}

>  <energy>  (33) 
-10.36

>  <cluster_rmsd>  (33) 
0.72

>  <cluster>  (33) 
2

$$$$

     RDKit          3D

 70 75  0  0  0  0  0  0  0  0999 V2000
  146.7060   69.2220  216.8750 N   0  0  0  0  0  0  0  0  0  0  0  0
  145.5100   69.9860  216.7130 C   0  0  0  0  0  0  0  0  0  0  0  0
  144.4770   69.3700  216.4070 O   0  0  0  0  0  0  0  0  0  0  0  0
  145.6090   71.4440  216.9250 C   0  0  0  0  0  0  0  0  0  0  0  0
  145.5800   71.8170  218.3190 N   0  0  0  0  0  0  0  0  0  0  0  0
  145.2930   73.2150  218.3810 C   0  0  0  0  0  0  0  0  0  0  0  0
  143.8340   73.4080  218.7400 C   0  0  0  0  0  0  0  0  0  0  0  0
  143.7540   72.9650  220.1910 C   0  0  0  0  0  0  0  0  0  0  0  0
  142.5210   73.3900  220.8690 C   0  0  0  0  0  0  0  0  0  0  0  0
  142.0170   74.6870  220.7320 C   0  0  0  0  0  0  0  0  0  0  0  0
  140.8680   75.0990  221.3590 C   0  0  0  0  0  0  0  0  0  0  0  0
  140.3160   76.3990  221.2550 N   0  0  0  0  0  0  0  0  0  0  0  0
  138.9590   76.7450  221.6080 C   0  0  0  0  0  0  0  0  0  0  0  0
  138.9120   77.7340  222.7550 C   0  0  0  0  0  0  0  0  0  0  0  0
  140.0960   78.6260  222.7480 C   0  0  0  0  0  0  0  0  0  0  0  0
  140.1560   79.6160  223.7060 C   0  0  0  0  0  0  0  0  0  0  0  0
  141.2090   80.5090  223.7990 C   0  0  0  0  0  0  0  0  0  0  0  0
  142.2330   80.3970  222.8930 C   0  0  0  0  0  0  0  0  0  0  0  0
  142.1870   79.4090  221.9240 C   0  0  0  0  0  0  0  0  0  0  0  0
  141.1280   78.5220  221.8410 C   0  0  0  0  0  0  0  0  0  0  0  0
  141.1550   77.4810  220.7650 C   0  0  0  0  0  0  0  0  0  0  0  0
  140.2410   74.1690  222.1270 N   0  0  0  0  0  0  0  0  0  0  0  0
  140.6920   72.9150  222.2840 C   0  0  0  0  0  0  0  0  0  0  0  0
  139.9900   71.9870  223.1010 N   0  0  0  0  0  0  0  0  0  0  0  0
  138.9010   71.1940  222.6020 C   0  0  0  0  0  0  0  0  0  0  0  0
  139.1500   69.7090  222.7540 C   0  0  0  0  0  0  0  0  0  0  0  0
  139.4740   69.4910  224.1940 C   0  0  0  0  0  0  0  0  0  0  0  0
  139.1990   68.2710  224.7430 C   0  0  0  0  0  0  0  0  0  0  0  0
  139.4490   67.9390  226.0580 C   0  0  0  0  0  0  0  0  0  0  0  0
  140.0170   68.9280  226.8470 C   0  0  0  0  0  0  0  0  0  0  0  0
  140.3010   70.1730  226.3000 C   0  0  0  0  0  0  0  0  0  0  0  0
  140.0390   70.4670  224.9860 C   0  0  0  0  0  0  0  0  0  0  0  0
  140.3760   71.8240  224.4850 C   0  0  0  0  0  0  0  0  0  0  0  0
  141.8290   72.5420  221.6510 N   0  0  0  0  0  0  0  0  0  0  0  0
  143.9570   71.4740  220.1870 C   0  0  0  0  0  0  0  0  0  0  0  0
  144.8330   70.9520  219.1240 C   0  0  0  0  0  0  0  0  0  0  0  0
  147.2250   68.8590  216.0390 H   0  0  0  0  0  0  0  0  0  0  0  0
  147.0900   69.0080  217.8360 H   0  0  0  0  0  0  0  0  0  0  0  0
  146.5542   71.7979  216.4875 H   0  0  0  0  0  0  0  0  0  0  0  0
  144.7340   71.9054  216.4439 H   0  0  0  0  0  0  0  0  0  0  0  0
  145.9260   73.6870  219.1469 H   0  0  0  0  0  0  0  0  0  0  0  0
  145.4979   73.6782  217.4046 H   0  0  0  0  0  0  0  0  0  0  0  0
  143.5415   74.4633  218.6362 H   0  0  0  0  0  0  0  0  0  0  0  0
  143.1569   72.8403  218.0848 H   0  0  0  0  0  0  0  0  0  0  0  0
  144.5362   73.4576  220.7873 H   0  0  0  0  0  0  0  0  0  0  0  0
  142.5612   75.4030  220.0987 H   0  0  0  0  0  0  0  0  0  0  0  0
  138.4658   77.1916  220.7320 H   0  0  0  0  0  0  0  0  0  0  0  0
  138.4432   75.8270  221.9260 H   0  0  0  0  0  0  0  0  0  0  0  0
  138.0024   78.3457  222.6633 H   0  0  0  0  0  0  0  0  0  0  0  0
  138.9089   77.1697  223.6992 H   0  0  0  0  0  0  0  0  0  0  0  0
  139.3304   79.6996  224.4281 H   0  0  0  0  0  0  0  0  0  0  0  0
  141.2245   81.2864  224.5771 H   0  0  0  0  0  0  0  0  0  0  0  0
  143.0869   81.0891  222.9362 H   0  0  0  0  0  0  0  0  0  0  0  0
  143.0129   79.3271  221.2021 H   0  0  0  0  0  0  0  0  0  0  0  0
  140.7505   77.8871  219.8261 H   0  0  0  0  0  0  0  0  0  0  0  0
  142.1787   77.1404  220.5502 H   0  0  0  0  0  0  0  0  0  0  0  0
  137.9888   71.4577  223.1574 H   0  0  0  0  0  0  0  0  0  0  0  0
  138.7958   71.4077  221.5281 H   0  0  0  0  0  0  0  0  0  0  0  0
  138.2510   69.1402  222.4743 H   0  0  0  0  0  0  0  0  0  0  0  0
  139.9676   69.3689  222.1014 H   0  0  0  0  0  0  0  0  0  0  0  0
  138.7494   67.5043  224.0949 H   0  0  0  0  0  0  0  0  0  0  0  0
  139.2106   66.9430  226.4595 H   0  0  0  0  0  0  0  0  0  0  0  0
  140.2424   68.7269  227.9047 H   0  0  0  0  0  0  0  0  0  0  0  0
  140.7497   70.9468  226.9402 H   0  0  0  0  0  0  0  0  0  0  0  0
  139.8474   72.5718  225.0943 H   0  0  0  0  0  0  0  0  0  0  0  0
  141.4652   71.9593  224.5586 H   0  0  0  0  0  0  0  0  0  0  0  0
  144.3944   71.1898  221.1555 H   0  0  0  0  0  0  0  0  0  0  0  0
  142.9651   71.0366  220.0002 H   0  0  0  0  0  0  0  0  0  0  0  0
  145.5531   70.2799  219.6136 H   0  0  0  0  0  0  0  0  0  0  0  0
  144.1170   70.5157  218.4120 H   0  0  0  0  0  0  0  0  0  0  0  0
  1  2  1  0
  2  3  2  0
  2  4  1  0
  4  5  1  0
  5  6  1  0
  6  7  1  0
  7  8  1  0
  8  9  1  0
  9 10  2  0
 10 11  1  0
 11 12  1  0
 12 13  1  0
 13 14  1  0
 14 15  1  0
 15 16  2  0
 16 17  1  0
 17 18  2  0
 18 19  1  0
 19 20  2  0
 20 21  1  0
 11 22  2  0
 22 23  1  0
 23 24  1  0
 24 25  1  0
 25 26  1  0
 26 27  1  0
 27 28  2  0
 28 29  1  0
 29 30  2  0
 30 31  1  0
 31 32  2  0
 32 33  1  0
 23 34  2  0
  8 35  1  0
 35 36  1  0
 36  5  1  0
 34  9  1  0
 21 12  1  0
 33 24  1  0
 20 15  1  0
 32 27  1  0
  1 37  1  0
  1 38  1  0
  4 39  1  0
  4 40  1  0
  6 41  1  0
  6 42  1  0
  7 43  1  0
  7 44  1  0
  8 45  1  0
 10 46  1  0
 13 47  1  0
 13 48  1  0
 14 49  1  0
 14 50  1  0
 16 51  1  0
 17 52  1  0
 18 53  1  0
 19 54  1  0
 21 55  1  0
 21 56  1  0
 25 57  1  0
 25 58  1  0
 26 59  1  0
 26 60  1  0
 28 61  1  0
 29 62  1  0
 30 63  1  0
 31 64  1  0
 33 65  1  0
 33 66  1  0
 35 67  1  0
 35 68  1  0
 36 69  1  0
 36 70  1  0
M  END
>  <smiles>  (34) 
NC(=O)CN1CCC(c2cc(N3CCc4ccccc4C3)nc(N3CCc4ccccc4C3)n2)CC1

>  <score_type>  (34) 
oracle

>  <origin>  (34) 
autodockgpu

>  <m_score__min__energy>  (34) 
-11.01

>  <m_primary>  (34) 
energy

>  <rmsd>  (34) 
3.95684569855712

>  <m_score__min__rmsd>  (34) 
3.95684569855712

>  <meeko>  (34) 
{"free_energy": -10.13, "intermolecular_energy": -11.62, "internal_energy": -1.42, "cluster_size": 26, "cluster_id": 1, "rank_in_cluster": 19}

>  <energy>  (34) 
-10.34

>  <cluster_rmsd>  (34) 
0.73

>  <cluster>  (34) 
2

$$$$

     RDKit          3D

 70 75  0  0  0  0  0  0  0  0999 V2000
  146.6660   69.1070  217.0300 N   0  0  0  0  0  0  0  0  0  0  0  0
  146.6330   70.4090  216.4450 C   0  0  0  0  0  0  0  0  0  0  0  0
  147.5470   70.7040  215.6590 O   0  0  0  0  0  0  0  0  0  0  0  0
  145.5120   71.2910  216.8280 C   0  0  0  0  0  0  0  0  0  0  0  0
  145.5050   71.6180  218.2330 N   0  0  0  0  0  0  0  0  0  0  0  0
  145.2650   73.0230  218.3430 C   0  0  0  0  0  0  0  0  0  0  0  0
  143.8160   73.2520  218.7190 C   0  0  0  0  0  0  0  0  0  0  0  0
  143.7300   72.7650  220.1550 C   0  0  0  0  0  0  0  0  0  0  0  0
  142.5160   73.2090  220.8560 C   0  0  0  0  0  0  0  0  0  0  0  0
  142.0170   74.5070  220.7110 C   0  0  0  0  0  0  0  0  0  0  0  0
  140.8870   74.9360  221.3590 C   0  0  0  0  0  0  0  0  0  0  0  0
  140.3400   76.2380  221.2490 N   0  0  0  0  0  0  0  0  0  0  0  0
  138.9750   76.5850  221.5680 C   0  0  0  0  0  0  0  0  0  0  0  0
  138.9010   77.5670  222.7190 C   0  0  0  0  0  0  0  0  0  0  0  0
  140.0870   78.4570  222.7480 C   0  0  0  0  0  0  0  0  0  0  0  0
  140.1240   79.4410  223.7140 C   0  0  0  0  0  0  0  0  0  0  0  0
  141.1750   80.3300  223.8400 C   0  0  0  0  0  0  0  0  0  0  0  0
  142.2230   80.2210  222.9600 C   0  0  0  0  0  0  0  0  0  0  0  0
  142.2000   79.2390  221.9850 C   0  0  0  0  0  0  0  0  0  0  0  0
  141.1420   78.3550  221.8690 C   0  0  0  0  0  0  0  0  0  0  0  0
  141.1940   77.3210  220.7870 C   0  0  0  0  0  0  0  0  0  0  0  0
  140.2720   74.0220  222.1560 N   0  0  0  0  0  0  0  0  0  0  0  0
  140.7190   72.7670  222.3210 C   0  0  0  0  0  0  0  0  0  0  0  0
  140.0300   71.8560  223.1690 N   0  0  0  0  0  0  0  0  0  0  0  0
  138.8840   71.1130  222.7270 C   0  0  0  0  0  0  0  0  0  0  0  0
  139.0830   69.6170  222.8490 C   0  0  0  0  0  0  0  0  0  0  0  0
  139.4840   69.3680  224.2640 C   0  0  0  0  0  0  0  0  0  0  0  0
  139.1940   68.1530  224.8160 C   0  0  0  0  0  0  0  0  0  0  0  0
  139.5080   67.7950  226.1100 C   0  0  0  0  0  0  0  0  0  0  0  0
  140.1600   68.7510  226.8740 C   0  0  0  0  0  0  0  0  0  0  0  0
  140.4600   69.9910  226.3240 C   0  0  0  0  0  0  0  0  0  0  0  0
  140.1310   70.3120  225.0310 C   0  0  0  0  0  0  0  0  0  0  0  0
  140.4910   71.6610  224.5260 C   0  0  0  0  0  0  0  0  0  0  0  0
  141.8380   72.3770  221.6670 N   0  0  0  0  0  0  0  0  0  0  0  0
  143.8830   71.2690  220.1010 C   0  0  0  0  0  0  0  0  0  0  0  0
  144.7340   70.7530  219.0160 C   0  0  0  0  0  0  0  0  0  0  0  0
  147.3390   68.8850  217.8020 H   0  0  0  0  0  0  0  0  0  0  0  0
  146.0140   68.3430  216.6970 H   0  0  0  0  0  0  0  0  0  0  0  0
  145.5882   72.2247  216.2514 H   0  0  0  0  0  0  0  0  0  0  0  0
  144.5793   70.7492  216.6122 H   0  0  0  0  0  0  0  0  0  0  0  0
  145.9183   73.4483  219.1191 H   0  0  0  0  0  0  0  0  0  0  0  0
  145.4790   73.5112  217.3808 H   0  0  0  0  0  0  0  0  0  0  0  0
  143.5581   74.3192  218.6515 H   0  0  0  0  0  0  0  0  0  0  0  0
  143.1165   72.7284  218.0508 H   0  0  0  0  0  0  0  0  0  0  0  0
  144.5318   73.2115  220.7614 H   0  0  0  0  0  0  0  0  0  0  0  0
  142.5500   75.2095  220.0534 H   0  0  0  0  0  0  0  0  0  0  0  0
  138.5060   77.0381  220.6821 H   0  0  0  0  0  0  0  0  0  0  0  0
  138.4484   75.6665  221.8664 H   0  0  0  0  0  0  0  0  0  0  0  0
  137.9953   78.1812  222.6078 H   0  0  0  0  0  0  0  0  0  0  0  0
  138.8729   76.9968  223.6593 H   0  0  0  0  0  0  0  0  0  0  0  0
  139.2800   79.5218  224.4149 H   0  0  0  0  0  0  0  0  0  0  0  0
  141.1717   81.1026  224.6229 H   0  0  0  0  0  0  0  0  0  0  0  0
  143.0770   80.9109  223.0295 H   0  0  0  0  0  0  0  0  0  0  0  0
  143.0443   79.1593  221.2845 H   0  0  0  0  0  0  0  0  0  0  0  0
  140.8144   77.7341  219.8408 H   0  0  0  0  0  0  0  0  0  0  0  0
  142.2219   76.9793  220.5957 H   0  0  0  0  0  0  0  0  0  0  0  0
  138.0169   71.4049  223.3377 H   0  0  0  0  0  0  0  0  0  0  0  0
  138.7246   71.3442  221.6635 H   0  0  0  0  0  0  0  0  0  0  0  0
  138.1470   69.0871  222.6184 H   0  0  0  0  0  0  0  0  0  0  0  0
  139.8461   69.2540  222.1448 H   0  0  0  0  0  0  0  0  0  0  0  0
  138.6768   67.4126  224.1881 H   0  0  0  0  0  0  0  0  0  0  0  0
  139.2548   66.8040  226.5146 H   0  0  0  0  0  0  0  0  0  0  0  0
  140.4394   68.5279  227.9143 H   0  0  0  0  0  0  0  0  0  0  0  0
  140.9770   70.7383  226.9439 H   0  0  0  0  0  0  0  0  0  0  0  0
  140.0292   72.4208  225.1737 H   0  0  0  0  0  0  0  0  0  0  0  0
  141.5870   71.7538  224.5364 H   0  0  0  0  0  0  0  0  0  0  0  0
  144.3165   70.9389  221.0566 H   0  0  0  0  0  0  0  0  0  0  0  0
  142.8759   70.8714  219.9070 H   0  0  0  0  0  0  0  0  0  0  0  0
  145.4341   70.0419  219.4787 H   0  0  0  0  0  0  0  0  0  0  0  0
  143.9991   70.3643  218.2957 H   0  0  0  0  0  0  0  0  0  0  0  0
  1  2  1  0
  2  3  2  0
  2  4  1  0
  4  5  1  0
  5  6  1  0
  6  7  1  0
  7  8  1  0
  8  9  1  0
  9 10  2  0
 10 11  1  0
 11 12  1  0
 12 13  1  0
 13 14  1  0
 14 15  1  0
 15 16  2  0
 16 17  1  0
 17 18  2  0
 18 19  1  0
 19 20  2  0
 20 21  1  0
 11 22  2  0
 22 23  1  0
 23 24  1  0
 24 25  1  0
 25 26  1  0
 26 27  1  0
 27 28  2  0
 28 29  1  0
 29 30  2  0
 30 31  1  0
 31 32  2  0
 32 33  1  0
 23 34  2  0
  8 35  1  0
 35 36  1  0
 36  5  1  0
 34  9  1  0
 21 12  1  0
 33 24  1  0
 20 15  1  0
 32 27  1  0
  1 37  1  0
  1 38  1  0
  4 39  1  0
  4 40  1  0
  6 41  1  0
  6 42  1  0
  7 43  1  0
  7 44  1  0
  8 45  1  0
 10 46  1  0
 13 47  1  0
 13 48  1  0
 14 49  1  0
 14 50  1  0
 16 51  1  0
 17 52  1  0
 18 53  1  0
 19 54  1  0
 21 55  1  0
 21 56  1  0
 25 57  1  0
 25 58  1  0
 26 59  1  0
 26 60  1  0
 28 61  1  0
 29 62  1  0
 30 63  1  0
 31 64  1  0
 33 65  1  0
 33 66  1  0
 35 67  1  0
 35 68  1  0
 36 69  1  0
 36 70  1  0
M  END
>  <smiles>  (35) 
NC(=O)CN1CCC(c2cc(N3CCc4ccccc4C3)nc(N3CCc4ccccc4C3)n2)CC1

>  <score_type>  (35) 
oracle

>  <origin>  (35) 
autodockgpu

>  <m_score__min__energy>  (35) 
-11.01

>  <m_primary>  (35) 
energy

>  <rmsd>  (35) 
4.048217869413603

>  <m_score__min__rmsd>  (35) 
4.048217869413603

>  <meeko>  (35) 
{"free_energy": -10.23, "intermolecular_energy": -11.72, "internal_energy": -1.36, "cluster_size": 26, "cluster_id": 1, "rank_in_cluster": 16}

>  <energy>  (35) 
-10.32

>  <cluster_rmsd>  (35) 
0.75

>  <cluster>  (35) 
2

$$$$

     RDKit          3D

 70 75  0  0  0  0  0  0  0  0999 V2000
  142.9400   79.1870  222.3480 N   0  0  0  0  0  0  0  0  0  0  0  0
  141.7280   79.1730  223.1040 C   0  0  0  0  0  0  0  0  0  0  0  0
  141.7930   78.7710  224.2760 O   0  0  0  0  0  0  0  0  0  0  0  0
  140.5040   79.6390  222.4220 C   0  0  0  0  0  0  0  0  0  0  0  0
  139.7600   78.5690  221.8020 N   0  0  0  0  0  0  0  0  0  0  0  0
  140.5720   78.0380  220.7530 C   0  0  0  0  0  0  0  0  0  0  0  0
  141.2100   76.7470  221.2240 C   0  0  0  0  0  0  0  0  0  0  0  0
  140.0480   75.7720  221.3000 C   0  0  0  0  0  0  0  0  0  0  0  0
  140.4640   74.3650  221.3910 C   0  0  0  0  0  0  0  0  0  0  0  0
  141.3000   73.7830  220.4330 C   0  0  0  0  0  0  0  0  0  0  0  0
  141.6970   72.4720  220.5030 C   0  0  0  0  0  0  0  0  0  0  0  0
  142.5400   71.8330  219.5610 N   0  0  0  0  0  0  0  0  0  0  0  0
  143.8960   72.2340  219.2680 C   0  0  0  0  0  0  0  0  0  0  0  0
  144.8910   71.1500  219.6290 C   0  0  0  0  0  0  0  0  0  0  0  0
  144.2990   69.7990  219.4760 C   0  0  0  0  0  0  0  0  0  0  0  0
  145.1130   68.7130  219.7160 C   0  0  0  0  0  0  0  0  0  0  0  0
  144.6750   67.4060  219.6060 C   0  0  0  0  0  0  0  0  0  0  0  0
  143.3700   67.1910  219.2400 C   0  0  0  0  0  0  0  0  0  0  0  0
  142.5400   68.2710  218.9950 C   0  0  0  0  0  0  0  0  0  0  0  0
  142.9900   69.5740  219.1080 C   0  0  0  0  0  0  0  0  0  0  0  0
  142.0280   70.6870  218.8260 C   0  0  0  0  0  0  0  0  0  0  0  0
  141.2280   71.7620  221.5650 N   0  0  0  0  0  0  0  0  0  0  0  0
  140.4240   72.2840  222.5050 C   0  0  0  0  0  0  0  0  0  0  0  0
  139.9680   71.4900  223.5930 N   0  0  0  0  0  0  0  0  0  0  0  0
  138.8380   70.6110  223.4810 C   0  0  0  0  0  0  0  0  0  0  0  0
  139.1900   69.1740  223.8000 C   0  0  0  0  0  0  0  0  0  0  0  0
  139.8350   69.1960  225.1450 C   0  0  0  0  0  0  0  0  0  0  0  0
  139.7500   68.0770  225.9230 C   0  0  0  0  0  0  0  0  0  0  0  0
  140.3010   67.9650  227.1820 C   0  0  0  0  0  0  0  0  0  0  0  0
  140.9780   69.0770  227.6610 C   0  0  0  0  0  0  0  0  0  0  0  0
  141.0700   70.2210  226.8780 C   0  0  0  0  0  0  0  0  0  0  0  0
  140.5090   70.2960  225.6290 C   0  0  0  0  0  0  0  0  0  0  0  0
  140.6580   71.5590  224.8620 C   0  0  0  0  0  0  0  0  0  0  0  0
  140.0530   73.5820  222.4040 N   0  0  0  0  0  0  0  0  0  0  0  0
  139.1950   76.2250  222.4540 C   0  0  0  0  0  0  0  0  0  0  0  0
  139.1830   77.6750  222.7090 C   0  0  0  0  0  0  0  0  0  0  0  0
  143.3450   78.2950  221.9720 H   0  0  0  0  0  0  0  0  0  0  0  0
  143.4510   80.0920  222.1540 H   0  0  0  0  0  0  0  0  0  0  0  0
  139.8569   80.1324  223.1621 H   0  0  0  0  0  0  0  0  0  0  0  0
  140.8154   80.3282  221.6232 H   0  0  0  0  0  0  0  0  0  0  0  0
  139.9481   77.8393  219.8691 H   0  0  0  0  0  0  0  0  0  0  0  0
  141.3556   78.7632  220.4882 H   0  0  0  0  0  0  0  0  0  0  0  0
  141.9664   76.3992  220.5050 H   0  0  0  0  0  0  0  0  0  0  0  0
  141.7339   76.8585  222.1848 H   0  0  0  0  0  0  0  0  0  0  0  0
  139.4698   75.7890  220.3644 H   0  0  0  0  0  0  0  0  0  0  0  0
  141.6521   74.3991  219.5925 H   0  0  0  0  0  0  0  0  0  0  0  0
  143.9793   72.4507  218.1928 H   0  0  0  0  0  0  0  0  0  0  0  0
  144.1274   73.1259  219.8688 H   0  0  0  0  0  0  0  0  0  0  0  0
  145.7667   71.2338  218.9687 H   0  0  0  0  0  0  0  0  0  0  0  0
  145.1814   71.2834  220.6816 H   0  0  0  0  0  0  0  0  0  0  0  0
  146.1579   68.8941  220.0082 H   0  0  0  0  0  0  0  0  0  0  0  0
  145.3529   66.5631  219.8061 H   0  0  0  0  0  0  0  0  0  0  0  0
  142.9855   66.1651  219.1418 H   0  0  0  0  0  0  0  0  0  0  0  0
  141.4953   68.0884  218.7028 H   0  0  0  0  0  0  0  0  0  0  0  0
  141.9953   70.9040  217.7481 H   0  0  0  0  0  0  0  0  0  0  0  0
  141.0028   70.4296  219.1304 H   0  0  0  0  0  0  0  0  0  0  0  0
  138.0584   70.9472  224.1804 H   0  0  0  0  0  0  0  0  0  0  0  0
  138.4877   70.6467  222.4389 H   0  0  0  0  0  0  0  0  0  0  0  0
  138.2816   68.5541  223.8221 H   0  0  0  0  0  0  0  0  0  0  0  0
  139.8596   68.7455  223.0397 H   0  0  0  0  0  0  0  0  0  0  0  0
  139.2072   67.2095  225.5195 H   0  0  0  0  0  0  0  0  0  0  0  0
  140.2087   67.0431  227.7749 H   0  0  0  0  0  0  0  0  0  0  0  0
  141.4410   69.0531  228.6585 H   0  0  0  0  0  0  0  0  0  0  0  0
  141.6100   71.0943  227.2725 H   0  0  0  0  0  0  0  0  0  0  0  0
  140.2398   72.3877  225.4522 H   0  0  0  0  0  0  0  0  0  0  0  0
  141.7282   71.7208  224.6659 H   0  0  0  0  0  0  0  0  0  0  0  0
  138.1606   75.9085  222.2543 H   0  0  0  0  0  0  0  0  0  0  0  0
  139.6367   75.7666  223.3511 H   0  0  0  0  0  0  0  0  0  0  0  0
  138.1270   77.9668  222.8074 H   0  0  0  0  0  0  0  0  0  0  0  0
  139.8326   77.7716  223.5914 H   0  0  0  0  0  0  0  0  0  0  0  0
  1  2  1  0
  2  3  2  0
  2  4  1  0
  4  5  1  0
  5  6  1  0
  6  7  1  0
  7  8  1  0
  8  9  1  0
  9 10  2  0
 10 11  1  0
 11 12  1  0
 12 13  1  0
 13 14  1  0
 14 15  1  0
 15 16  2  0
 16 17  1  0
 17 18  2  0
 18 19  1  0
 19 20  2  0
 20 21  1  0
 11 22  2  0
 22 23  1  0
 23 24  1  0
 24 25  1  0
 25 26  1  0
 26 27  1  0
 27 28  2  0
 28 29  1  0
 29 30  2  0
 30 31  1  0
 31 32  2  0
 32 33  1  0
 23 34  2  0
  8 35  1  0
 35 36  1  0
 36  5  1  0
 34  9  1  0
 21 12  1  0
 33 24  1  0
 20 15  1  0
 32 27  1  0
  1 37  1  0
  1 38  1  0
  4 39  1  0
  4 40  1  0
  6 41  1  0
  6 42  1  0
  7 43  1  0
  7 44  1  0
  8 45  1  0
 10 46  1  0
 13 47  1  0
 13 48  1  0
 14 49  1  0
 14 50  1  0
 16 51  1  0
 17 52  1  0
 18 53  1  0
 19 54  1  0
 21 55  1  0
 21 56  1  0
 25 57  1  0
 25 58  1  0
 26 59  1  0
 26 60  1  0
 28 61  1  0
 29 62  1  0
 30 63  1  0
 31 64  1  0
 33 65  1  0
 33 66  1  0
 35 67  1  0
 35 68  1  0
 36 69  1  0
 36 70  1  0
M  END
>  <smiles>  (36) 
NC(=O)CN1CCC(c2cc(N3CCc4ccccc4C3)nc(N3CCc4ccccc4C3)n2)CC1

>  <score_type>  (36) 
oracle

>  <origin>  (36) 
autodockgpu

>  <m_score__min__energy>  (36) 
-11.01

>  <m_primary>  (36) 
energy

>  <rmsd>  (36) 
10.304566552769085

>  <m_score__min__rmsd>  (36) 
10.304566552769085

>  <meeko>  (36) 
{"free_energy": -10.15, "intermolecular_energy": -11.65, "internal_energy": -1.42, "cluster_size": 12, "cluster_id": 3, "rank_in_cluster": 3}

>  <energy>  (36) 
-10.3

>  <cluster_rmsd>  (36) 
0.75

>  <cluster>  (36) 
2

$$$$

     RDKit          3D

 70 75  0  0  0  0  0  0  0  0999 V2000
  145.6360   74.5030  216.2490 N   0  0  0  0  0  0  0  0  0  0  0  0
  146.4150   73.3160  216.4010 C   0  0  0  0  0  0  0  0  0  0  0  0
  147.6450   73.4210  216.2760 O   0  0  0  0  0  0  0  0  0  0  0  0
  145.6860   72.0660  216.6950 C   0  0  0  0  0  0  0  0  0  0  0  0
  145.4930   71.8430  218.1080 N   0  0  0  0  0  0  0  0  0  0  0  0
  145.5340   73.1180  218.7510 C   0  0  0  0  0  0  0  0  0  0  0  0
  144.1200   73.5640  219.0620 C   0  0  0  0  0  0  0  0  0  0  0  0
  143.6770   72.6230  220.1700 C   0  0  0  0  0  0  0  0  0  0  0  0
  142.4750   73.0790  220.8840 C   0  0  0  0  0  0  0  0  0  0  0  0
  141.9730   74.3740  220.7260 C   0  0  0  0  0  0  0  0  0  0  0  0
  140.8540   74.8140  221.3850 C   0  0  0  0  0  0  0  0  0  0  0  0
  140.3050   76.1140  221.2620 N   0  0  0  0  0  0  0  0  0  0  0  0
  138.9410   76.4630  221.5850 C   0  0  0  0  0  0  0  0  0  0  0  0
  138.8720   77.4590  222.7250 C   0  0  0  0  0  0  0  0  0  0  0  0
  140.0570   78.3510  222.7370 C   0  0  0  0  0  0  0  0  0  0  0  0
  140.0990   79.3460  223.6900 C   0  0  0  0  0  0  0  0  0  0  0  0
  141.1500   80.2380  223.8000 C   0  0  0  0  0  0  0  0  0  0  0  0
  142.1930   80.1200  222.9160 C   0  0  0  0  0  0  0  0  0  0  0  0
  142.1650   79.1260  221.9530 C   0  0  0  0  0  0  0  0  0  0  0  0
  141.1080   78.2390  221.8530 C   0  0  0  0  0  0  0  0  0  0  0  0
  141.1550   77.1920  220.7830 C   0  0  0  0  0  0  0  0  0  0  0  0
  140.2530   73.9140  222.2080 N   0  0  0  0  0  0  0  0  0  0  0  0
  140.7030   72.6620  222.3860 C   0  0  0  0  0  0  0  0  0  0  0  0
  140.0290   71.7650  223.2610 N   0  0  0  0  0  0  0  0  0  0  0  0
  138.8660   71.0270  222.8570 C   0  0  0  0  0  0  0  0  0  0  0  0
  139.0570   69.5310  222.9890 C   0  0  0  0  0  0  0  0  0  0  0  0
  139.4910   69.2930  224.3960 C   0  0  0  0  0  0  0  0  0  0  0  0
  139.2060   68.0860  224.9680 C   0  0  0  0  0  0  0  0  0  0  0  0
  139.5500   67.7390  226.2570 C   0  0  0  0  0  0  0  0  0  0  0  0
  140.2290   68.6970  226.9950 C   0  0  0  0  0  0  0  0  0  0  0  0
  140.5240   69.9290  226.4240 C   0  0  0  0  0  0  0  0  0  0  0  0
  140.1650   70.2390  225.1360 C   0  0  0  0  0  0  0  0  0  0  0  0
  140.5230   71.5800  224.6070 C   0  0  0  0  0  0  0  0  0  0  0  0
  141.8110   72.2610  221.7200 N   0  0  0  0  0  0  0  0  0  0  0  0
  143.5240   71.2680  219.5340 C   0  0  0  0  0  0  0  0  0  0  0  0
  144.4310   70.9840  218.4090 C   0  0  0  0  0  0  0  0  0  0  0  0
  145.4590   74.9070  215.2970 H   0  0  0  0  0  0  0  0  0  0  0  0
  145.2250   74.9970  217.0880 H   0  0  0  0  0  0  0  0  0  0  0  0
  144.6998   72.1133  216.2100 H   0  0  0  0  0  0  0  0  0  0  0  0
  146.2938   71.2334  216.3112 H   0  0  0  0  0  0  0  0  0  0  0  0
  146.1094   73.0407  219.6853 H   0  0  0  0  0  0  0  0  0  0  0  0
  146.0157   73.8514  218.0877 H   0  0  0  0  0  0  0  0  0  0  0  0
  144.1056   74.6086  219.4063 H   0  0  0  0  0  0  0  0  0  0  0  0
  143.4596   73.5261  218.1831 H   0  0  0  0  0  0  0  0  0  0  0  0
  144.4308   72.5885  220.9703 H   0  0  0  0  0  0  0  0  0  0  0  0
  142.4949   75.0655  220.0481 H   0  0  0  0  0  0  0  0  0  0  0  0
  138.4661   76.9047  220.6965 H   0  0  0  0  0  0  0  0  0  0  0  0
  138.4177   75.5473  221.8976 H   0  0  0  0  0  0  0  0  0  0  0  0
  137.9648   78.0706  222.6114 H   0  0  0  0  0  0  0  0  0  0  0  0
  138.8499   76.9000  223.6721 H   0  0  0  0  0  0  0  0  0  0  0  0
  139.2589   79.4345  224.3946 H   0  0  0  0  0  0  0  0  0  0  0  0
  141.1500   81.0197  224.5739 H   0  0  0  0  0  0  0  0  0  0  0  0
  143.0466   80.8115  222.9723 H   0  0  0  0  0  0  0  0  0  0  0  0
  143.0054   79.0391  221.2486 H   0  0  0  0  0  0  0  0  0  0  0  0
  140.7698   77.5935  219.8341 H   0  0  0  0  0  0  0  0  0  0  0  0
  142.1822   76.8490  220.5904 H   0  0  0  0  0  0  0  0  0  0  0  0
  138.0176   71.3318  223.4874 H   0  0  0  0  0  0  0  0  0  0  0  0
  138.6799   71.2490  221.7958 H   0  0  0  0  0  0  0  0  0  0  0  0
  138.1118   69.0060  222.7869 H   0  0  0  0  0  0  0  0  0  0  0  0
  139.7998   69.1553  222.2699 H   0  0  0  0  0  0  0  0  0  0  0  0
  138.6674   67.3432  224.3613 H   0  0  0  0  0  0  0  0  0  0  0  0
  139.2992   66.7542  226.6780 H   0  0  0  0  0  0  0  0  0  0  0  0
  140.5333   68.4821  228.0300 H   0  0  0  0  0  0  0  0  0  0  0  0
  141.0618   70.6789  227.0226 H   0  0  0  0  0  0  0  0  0  0  0  0
  140.0845   72.3504  225.2582 H   0  0  0  0  0  0  0  0  0  0  0  0
  141.6197   71.6632  224.5878 H   0  0  0  0  0  0  0  0  0  0  0  0
  143.7002   70.5086  220.3101 H   0  0  0  0  0  0  0  0  0  0  0  0
  142.5082   71.2479  219.1124 H   0  0  0  0  0  0  0  0  0  0  0  0
  144.8732   69.9960  218.6049 H   0  0  0  0  0  0  0  0  0  0  0  0
  143.7741   71.0938  217.5336 H   0  0  0  0  0  0  0  0  0  0  0  0
  1  2  1  0
  2  3  2  0
  2  4  1  0
  4  5  1  0
  5  6  1  0
  6  7  1  0
  7  8  1  0
  8  9  1  0
  9 10  2  0
 10 11  1  0
 11 12  1  0
 12 13  1  0
 13 14  1  0
 14 15  1  0
 15 16  2  0
 16 17  1  0
 17 18  2  0
 18 19  1  0
 19 20  2  0
 20 21  1  0
 11 22  2  0
 22 23  1  0
 23 24  1  0
 24 25  1  0
 25 26  1  0
 26 27  1  0
 27 28  2  0
 28 29  1  0
 29 30  2  0
 30 31  1  0
 31 32  2  0
 32 33  1  0
 23 34  2  0
  8 35  1  0
 35 36  1  0
 36  5  1  0
 34  9  1  0
 21 12  1  0
 33 24  1  0
 20 15  1  0
 32 27  1  0
  1 37  1  0
  1 38  1  0
  4 39  1  0
  4 40  1  0
  6 41  1  0
  6 42  1  0
  7 43  1  0
  7 44  1  0
  8 45  1  0
 10 46  1  0
 13 47  1  0
 13 48  1  0
 14 49  1  0
 14 50  1  0
 16 51  1  0
 17 52  1  0
 18 53  1  0
 19 54  1  0
 21 55  1  0
 21 56  1  0
 25 57  1  0
 25 58  1  0
 26 59  1  0
 26 60  1  0
 28 61  1  0
 29 62  1  0
 30 63  1  0
 31 64  1  0
 33 65  1  0
 33 66  1  0
 35 67  1  0
 35 68  1  0
 36 69  1  0
 36 70  1  0
M  END
>  <smiles>  (37) 
NC(=O)CN1CCC(c2cc(N3CCc4ccccc4C3)nc(N3CCc4ccccc4C3)n2)CC1

>  <score_type>  (37) 
oracle

>  <origin>  (37) 
autodockgpu

>  <m_score__min__energy>  (37) 
-11.01

>  <m_primary>  (37) 
energy

>  <rmsd>  (37) 
4.1297582876038135

>  <m_score__min__rmsd>  (37) 
4.1297582876038135

>  <meeko>  (37) 
{"free_energy": -10.58, "intermolecular_energy": -12.07, "internal_energy": -1.27, "cluster_size": 12, "cluster_id": 2, "rank_in_cluster": 1}

>  <energy>  (37) 
-10.29

>  <cluster_rmsd>  (37) 
0.78

>  <cluster>  (37) 
2

$$$$

     RDKit          3D

 70 75  0  0  0  0  0  0  0  0999 V2000
  146.6960   69.4870  217.1560 N   0  0  0  0  0  0  0  0  0  0  0  0
  146.0630   70.4200  216.2800 C   0  0  0  0  0  0  0  0  0  0  0  0
  145.9290   70.0860  215.0920 O   0  0  0  0  0  0  0  0  0  0  0  0
  145.6250   71.7030  216.8660 C   0  0  0  0  0  0  0  0  0  0  0  0
  145.4920   71.6520  218.3020 N   0  0  0  0  0  0  0  0  0  0  0  0
  145.4640   73.0000  218.7750 C   0  0  0  0  0  0  0  0  0  0  0  0
  144.0330   73.3890  219.0840 C   0  0  0  0  0  0  0  0  0  0  0  0
  143.6910   72.5730  220.3190 C   0  0  0  0  0  0  0  0  0  0  0  0
  142.4840   73.0380  221.0170 C   0  0  0  0  0  0  0  0  0  0  0  0
  141.9720   74.3250  220.8230 C   0  0  0  0  0  0  0  0  0  0  0  0
  140.8480   74.7730  221.4670 C   0  0  0  0  0  0  0  0  0  0  0  0
  140.2890   76.0650  221.3080 N   0  0  0  0  0  0  0  0  0  0  0  0
  138.9160   76.4070  221.5980 C   0  0  0  0  0  0  0  0  0  0  0  0
  138.8180   77.4260  222.7170 C   0  0  0  0  0  0  0  0  0  0  0  0
  139.9930   78.3280  222.7320 C   0  0  0  0  0  0  0  0  0  0  0  0
  140.0080   79.3430  223.6650 C   0  0  0  0  0  0  0  0  0  0  0  0
  141.0490   80.2470  223.7760 C   0  0  0  0  0  0  0  0  0  0  0  0
  142.1090   80.1210  222.9130 C   0  0  0  0  0  0  0  0  0  0  0  0
  142.1080   79.1080  221.9700 C   0  0  0  0  0  0  0  0  0  0  0  0
  141.0610   78.2090  221.8690 C   0  0  0  0  0  0  0  0  0  0  0  0
  141.1380   77.1410  220.8220 C   0  0  0  0  0  0  0  0  0  0  0  0
  140.2510   73.8900  222.3120 N   0  0  0  0  0  0  0  0  0  0  0  0
  140.7100   72.6470  222.5250 C   0  0  0  0  0  0  0  0  0  0  0  0
  140.0410   71.7690  223.4220 N   0  0  0  0  0  0  0  0  0  0  0  0
  138.8830   71.0130  223.0340 C   0  0  0  0  0  0  0  0  0  0  0  0
  139.0820   69.5220  223.2050 C   0  0  0  0  0  0  0  0  0  0  0  0
  139.5160   69.3230  224.6180 C   0  0  0  0  0  0  0  0  0  0  0  0
  139.2370   68.1290  225.2200 C   0  0  0  0  0  0  0  0  0  0  0  0
  139.5820   67.8170  226.5180 C   0  0  0  0  0  0  0  0  0  0  0  0
  140.2530   68.7990  227.2320 C   0  0  0  0  0  0  0  0  0  0  0  0
  140.5420   70.0170  226.6300 C   0  0  0  0  0  0  0  0  0  0  0  0
  140.1840   70.2920  225.3350 C   0  0  0  0  0  0  0  0  0  0  0  0
  140.5330   71.6210  224.7730 C   0  0  0  0  0  0  0  0  0  0  0  0
  141.8230   72.2370  221.8730 N   0  0  0  0  0  0  0  0  0  0  0  0
  143.6130   71.1400  219.8670 C   0  0  0  0  0  0  0  0  0  0  0  0
  144.5020   70.7730  218.7520 C   0  0  0  0  0  0  0  0  0  0  0  0
  147.7350   69.3450  217.1260 H   0  0  0  0  0  0  0  0  0  0  0  0
  146.1320   68.9220  217.8490 H   0  0  0  0  0  0  0  0  0  0  0  0
  146.3648   72.4758  216.6099 H   0  0  0  0  0  0  0  0  0  0  0  0
  144.6318   71.9312  216.4520 H   0  0  0  0  0  0  0  0  0  0  0  0
  146.0731   73.0827  219.6873 H   0  0  0  0  0  0  0  0  0  0  0  0
  145.8715   73.6709  218.0044 H   0  0  0  0  0  0  0  0  0  0  0  0
  143.9568   74.4662  219.2932 H   0  0  0  0  0  0  0  0  0  0  0  0
  143.3497   73.1942  218.2443 H   0  0  0  0  0  0  0  0  0  0  0  0
  144.4699   72.6919  221.0865 H   0  0  0  0  0  0  0  0  0  0  0  0
  142.4902   75.0024  220.1283 H   0  0  0  0  0  0  0  0  0  0  0  0
  138.4537   76.8262  220.6922 H   0  0  0  0  0  0  0  0  0  0  0  0
  138.3946   75.4931  221.9188 H   0  0  0  0  0  0  0  0  0  0  0  0
  137.9076   78.0268  222.5750 H   0  0  0  0  0  0  0  0  0  0  0  0
  138.7843   76.8859  223.6747 H   0  0  0  0  0  0  0  0  0  0  0  0
  139.1540   79.4381  224.3517 H   0  0  0  0  0  0  0  0  0  0  0  0
  141.0280   81.0439  224.5340 H   0  0  0  0  0  0  0  0  0  0  0  0
  142.9550   80.8217  222.9706 H   0  0  0  0  0  0  0  0  0  0  0  0
  142.9619   79.0151  221.2828 H   0  0  0  0  0  0  0  0  0  0  0  0
  140.7669   77.5191  219.8580 H   0  0  0  0  0  0  0  0  0  0  0  0
  142.1718   76.8041  220.6552 H   0  0  0  0  0  0  0  0  0  0  0  0
  138.0311   71.3289  223.6540 H   0  0  0  0  0  0  0  0  0  0  0  0
  138.6990   71.2061  221.9668 H   0  0  0  0  0  0  0  0  0  0  0  0
  138.1398   68.9868  223.0159 H   0  0  0  0  0  0  0  0  0  0  0  0
  139.8275   69.1318  222.4965 H   0  0  0  0  0  0  0  0  0  0  0  0
  138.7031   67.3680  224.6319 H   0  0  0  0  0  0  0  0  0  0  0  0
  139.3381   66.8413  226.9636 H   0  0  0  0  0  0  0  0  0  0  0  0
  140.5557   68.6135  228.2731 H   0  0  0  0  0  0  0  0  0  0  0  0
  141.0747   70.7850  227.2101 H   0  0  0  0  0  0  0  0  0  0  0  0
  140.0875   72.4043  225.4038 H   0  0  0  0  0  0  0  0  0  0  0  0
  141.6291   71.7112  224.7536 H   0  0  0  0  0  0  0  0  0  0  0  0
  143.8660   70.5006  220.7255 H   0  0  0  0  0  0  0  0  0  0  0  0
  142.5884   70.9990  219.4925 H   0  0  0  0  0  0  0  0  0  0  0  0
  145.0174   69.8492  219.0537 H   0  0  0  0  0  0  0  0  0  0  0  0
  143.8117   70.7271  217.8968 H   0  0  0  0  0  0  0  0  0  0  0  0
  1  2  1  0
  2  3  2  0
  2  4  1  0
  4  5  1  0
  5  6  1  0
  6  7  1  0
  7  8  1  0
  8  9  1  0
  9 10  2  0
 10 11  1  0
 11 12  1  0
 12 13  1  0
 13 14  1  0
 14 15  1  0
 15 16  2  0
 16 17  1  0
 17 18  2  0
 18 19  1  0
 19 20  2  0
 20 21  1  0
 11 22  2  0
 22 23  1  0
 23 24  1  0
 24 25  1  0
 25 26  1  0
 26 27  1  0
 27 28  2  0
 28 29  1  0
 29 30  2  0
 30 31  1  0
 31 32  2  0
 32 33  1  0
 23 34  2  0
  8 35  1  0
 35 36  1  0
 36  5  1  0
 34  9  1  0
 21 12  1  0
 33 24  1  0
 20 15  1  0
 32 27  1  0
  1 37  1  0
  1 38  1  0
  4 39  1  0
  4 40  1  0
  6 41  1  0
  6 42  1  0
  7 43  1  0
  7 44  1  0
  8 45  1  0
 10 46  1  0
 13 47  1  0
 13 48  1  0
 14 49  1  0
 14 50  1  0
 16 51  1  0
 17 52  1  0
 18 53  1  0
 19 54  1  0
 21 55  1  0
 21 56  1  0
 25 57  1  0
 25 58  1  0
 26 59  1  0
 26 60  1  0
 28 61  1  0
 29 62  1  0
 30 63  1  0
 31 64  1  0
 33 65  1  0
 33 66  1  0
 35 67  1  0
 35 68  1  0
 36 69  1  0
 36 70  1  0
M  END
>  <smiles>  (38) 
NC(=O)CN1CCC(c2cc(N3CCc4ccccc4C3)nc(N3CCc4ccccc4C3)n2)CC1

>  <score_type>  (38) 
oracle

>  <origin>  (38) 
autodockgpu

>  <m_score__min__energy>  (38) 
-11.01

>  <m_primary>  (38) 
energy

>  <rmsd>  (38) 
4.147136805725126

>  <m_score__min__rmsd>  (38) 
4.147136805725126

>  <meeko>  (38) 
{"free_energy": -10.19, "intermolecular_energy": -11.69, "internal_energy": -1.43, "cluster_size": 26, "cluster_id": 1, "rank_in_cluster": 18}

>  <energy>  (38) 
-10.23

>  <cluster_rmsd>  (38) 
0.83

>  <cluster>  (38) 
2

$$$$

     RDKit          3D

 70 75  0  0  0  0  0  0  0  0999 V2000
  146.7010   69.5850  217.0720 N   0  0  0  0  0  0  0  0  0  0  0  0
  146.2610   70.6220  216.1950 C   0  0  0  0  0  0  0  0  0  0  0  0
  146.4550   70.4620  214.9800 O   0  0  0  0  0  0  0  0  0  0  0  0
  145.6120   71.7960  216.8130 C   0  0  0  0  0  0  0  0  0  0  0  0
  145.4610   71.6710  218.2430 N   0  0  0  0  0  0  0  0  0  0  0  0
  145.4810   72.9900  218.7910 C   0  0  0  0  0  0  0  0  0  0  0  0
  144.0630   73.4190  219.1070 C   0  0  0  0  0  0  0  0  0  0  0  0
  143.6740   72.5490  220.2910 C   0  0  0  0  0  0  0  0  0  0  0  0
  142.4780   73.0220  221.0020 C   0  0  0  0  0  0  0  0  0  0  0  0
  141.9700   74.3110  220.8100 C   0  0  0  0  0  0  0  0  0  0  0  0
  140.8560   74.7680  221.4660 C   0  0  0  0  0  0  0  0  0  0  0  0
  140.3010   76.0620  221.3090 N   0  0  0  0  0  0  0  0  0  0  0  0
  138.9320   76.4100  221.6080 C   0  0  0  0  0  0  0  0  0  0  0  0
  138.8440   77.4290  222.7250 C   0  0  0  0  0  0  0  0  0  0  0  0
  140.0230   78.3270  222.7320 C   0  0  0  0  0  0  0  0  0  0  0  0
  140.0480   79.3430  223.6640 C   0  0  0  0  0  0  0  0  0  0  0  0
  141.0930   80.2430  223.7680 C   0  0  0  0  0  0  0  0  0  0  0  0
  142.1470   80.1120  222.8990 C   0  0  0  0  0  0  0  0  0  0  0  0
  142.1370   79.0980  221.9570 C   0  0  0  0  0  0  0  0  0  0  0  0
  141.0850   78.2030  221.8630 C   0  0  0  0  0  0  0  0  0  0  0  0
  141.1510   77.1340  220.8170 C   0  0  0  0  0  0  0  0  0  0  0  0
  140.2660   73.8910  222.3220 N   0  0  0  0  0  0  0  0  0  0  0  0
  140.7220   72.6460  222.5340 C   0  0  0  0  0  0  0  0  0  0  0  0
  140.0590   71.7750  223.4420 N   0  0  0  0  0  0  0  0  0  0  0  0
  138.8820   71.0380  223.0780 C   0  0  0  0  0  0  0  0  0  0  0  0
  139.0630   69.5430  223.2390 C   0  0  0  0  0  0  0  0  0  0  0  0
  139.5250   69.3330  224.6410 C   0  0  0  0  0  0  0  0  0  0  0  0
  139.2420   68.1410  225.2460 C   0  0  0  0  0  0  0  0  0  0  0  0
  139.6110   67.8180  226.5340 C   0  0  0  0  0  0  0  0  0  0  0  0
  140.3130   68.7870  227.2360 C   0  0  0  0  0  0  0  0  0  0  0  0
  140.6060   70.0030  226.6330 C   0  0  0  0  0  0  0  0  0  0  0  0
  140.2230   70.2890  225.3470 C   0  0  0  0  0  0  0  0  0  0  0  0
  140.5800   71.6150  224.7810 C   0  0  0  0  0  0  0  0  0  0  0  0
  141.8240   72.2290  221.8690 N   0  0  0  0  0  0  0  0  0  0  0  0
  143.5440   71.1480  219.7580 C   0  0  0  0  0  0  0  0  0  0  0  0
  144.4320   70.8080  218.6330 C   0  0  0  0  0  0  0  0  0  0  0  0
  147.7190   69.4710  217.2960 H   0  0  0  0  0  0  0  0  0  0  0  0
  146.0130   68.9130  217.5110 H   0  0  0  0  0  0  0  0  0  0  0  0
  146.2233   72.6858  216.6018 H   0  0  0  0  0  0  0  0  0  0  0  0
  144.6032   71.8782  216.3822 H   0  0  0  0  0  0  0  0  0  0  0  0
  146.0815   72.9965  219.7126 H   0  0  0  0  0  0  0  0  0  0  0  0
  145.9245   73.6859  218.0637 H   0  0  0  0  0  0  0  0  0  0  0  0
  144.0272   74.4850  219.3760 H   0  0  0  0  0  0  0  0  0  0  0  0
  143.3826   73.2998  218.2509 H   0  0  0  0  0  0  0  0  0  0  0  0
  144.4481   72.5933  221.0713 H   0  0  0  0  0  0  0  0  0  0  0  0
  142.4833   74.9831  220.1066 H   0  0  0  0  0  0  0  0  0  0  0  0
  138.4656   76.8301  220.7047 H   0  0  0  0  0  0  0  0  0  0  0  0
  138.4098   75.4983  221.9338 H   0  0  0  0  0  0  0  0  0  0  0  0
  137.9349   78.0329  222.5877 H   0  0  0  0  0  0  0  0  0  0  0  0
  138.8136   76.8902  223.6835 H   0  0  0  0  0  0  0  0  0  0  0  0
  139.1986   79.4421  224.3559 H   0  0  0  0  0  0  0  0  0  0  0  0
  141.0797   81.0407  224.5253 H   0  0  0  0  0  0  0  0  0  0  0  0
  142.9959   80.8097  222.9509 H   0  0  0  0  0  0  0  0  0  0  0  0
  142.9867   79.0008  221.2653 H   0  0  0  0  0  0  0  0  0  0  0  0
  140.7754   77.5127  219.8550 H   0  0  0  0  0  0  0  0  0  0  0  0
  142.1824   76.7928  220.6442 H   0  0  0  0  0  0  0  0  0  0  0  0
  138.0492   71.3638  223.7185 H   0  0  0  0  0  0  0  0  0  0  0  0
  138.6765   71.2381  222.0161 H   0  0  0  0  0  0  0  0  0  0  0  0
  138.1092   69.0221  223.0689 H   0  0  0  0  0  0  0  0  0  0  0  0
  139.7866   69.1445  222.5126 H   0  0  0  0  0  0  0  0  0  0  0  0
  138.6834   67.3905  224.6675 H   0  0  0  0  0  0  0  0  0  0  0  0
  139.3623   66.8443  226.9813 H   0  0  0  0  0  0  0  0  0  0  0  0
  140.6371   68.5923  228.2690 H   0  0  0  0  0  0  0  0  0  0  0  0
  141.1625   70.7606  227.2042 H   0  0  0  0  0  0  0  0  0  0  0  0
  140.1615   72.4031  225.4243 H   0  0  0  0  0  0  0  0  0  0  0  0
  141.6767   71.6884  224.7367 H   0  0  0  0  0  0  0  0  0  0  0  0
  143.7601   70.4516  220.5816 H   0  0  0  0  0  0  0  0  0  0  0  0
  142.5194   71.0702  219.3655 H   0  0  0  0  0  0  0  0  0  0  0  0
  144.9073   69.8493  218.8880 H   0  0  0  0  0  0  0  0  0  0  0  0
  143.7512   70.8364  217.7694 H   0  0  0  0  0  0  0  0  0  0  0  0
  1  2  1  0
  2  3  2  0
  2  4  1  0
  4  5  1  0
  5  6  1  0
  6  7  1  0
  7  8  1  0
  8  9  1  0
  9 10  2  0
 10 11  1  0
 11 12  1  0
 12 13  1  0
 13 14  1  0
 14 15  1  0
 15 16  2  0
 16 17  1  0
 17 18  2  0
 18 19  1  0
 19 20  2  0
 20 21  1  0
 11 22  2  0
 22 23  1  0
 23 24  1  0
 24 25  1  0
 25 26  1  0
 26 27  1  0
 27 28  2  0
 28 29  1  0
 29 30  2  0
 30 31  1  0
 31 32  2  0
 32 33  1  0
 23 34  2  0
  8 35  1  0
 35 36  1  0
 36  5  1  0
 34  9  1  0
 21 12  1  0
 33 24  1  0
 20 15  1  0
 32 27  1  0
  1 37  1  0
  1 38  1  0
  4 39  1  0
  4 40  1  0
  6 41  1  0
  6 42  1  0
  7 43  1  0
  7 44  1  0
  8 45  1  0
 10 46  1  0
 13 47  1  0
 13 48  1  0
 14 49  1  0
 14 50  1  0
 16 51  1  0
 17 52  1  0
 18 53  1  0
 19 54  1  0
 21 55  1  0
 21 56  1  0
 25 57  1  0
 25 58  1  0
 26 59  1  0
 26 60  1  0
 28 61  1  0
 29 62  1  0
 30 63  1  0
 31 64  1  0
 33 65  1  0
 33 66  1  0
 35 67  1  0
 35 68  1  0
 36 69  1  0
 36 70  1  0
M  END
>  <smiles>  (39) 
NC(=O)CN1CCC(c2cc(N3CCc4ccccc4C3)nc(N3CCc4ccccc4C3)n2)CC1

>  <score_type>  (39) 
oracle

>  <origin>  (39) 
autodockgpu

>  <m_score__min__energy>  (39) 
-11.01

>  <m_primary>  (39) 
energy

>  <rmsd>  (39) 
4.1540481225518615

>  <m_score__min__rmsd>  (39) 
4.1540481225518615

>  <meeko>  (39) 
{"free_energy": -10.2, "intermolecular_energy": -11.69, "internal_energy": -1.42, "cluster_size": 26, "cluster_id": 1, "rank_in_cluster": 17}

>  <energy>  (39) 
-10.18

>  <cluster_rmsd>  (39) 
0.0

>  <cluster>  (39) 
3

$$$$

     RDKit          3D

 70 75  0  0  0  0  0  0  0  0999 V2000
  142.9230   79.1420  222.3570 N   0  0  0  0  0  0  0  0  0  0  0  0
  141.7320   79.0960  223.1430 C   0  0  0  0  0  0  0  0  0  0  0  0
  141.8300   78.6680  224.3030 O   0  0  0  0  0  0  0  0  0  0  0  0
  140.4860   79.5650  222.5030 C   0  0  0  0  0  0  0  0  0  0  0  0
  139.7690   78.5130  221.8230 N   0  0  0  0  0  0  0  0  0  0  0  0
  140.6340   77.9950  220.8100 C   0  0  0  0  0  0  0  0  0  0  0  0
  141.2350   76.6900  221.2910 C   0  0  0  0  0  0  0  0  0  0  0  0
  140.0630   75.7240  221.2840 C   0  0  0  0  0  0  0  0  0  0  0  0
  140.4630   74.3120  221.3710 C   0  0  0  0  0  0  0  0  0  0  0  0
  141.2800   73.7190  220.4030 C   0  0  0  0  0  0  0  0  0  0  0  0
  141.6620   72.4030  220.4700 C   0  0  0  0  0  0  0  0  0  0  0  0
  142.4850   71.7530  219.5170 N   0  0  0  0  0  0  0  0  0  0  0  0
  143.8210   72.1720  219.1650 C   0  0  0  0  0  0  0  0  0  0  0  0
  144.8510   71.1180  219.5220 C   0  0  0  0  0  0  0  0  0  0  0  0
  144.2810   69.7530  219.4290 C   0  0  0  0  0  0  0  0  0  0  0  0
  145.1260   68.6900  219.6710 C   0  0  0  0  0  0  0  0  0  0  0  0
  144.7110   67.3720  219.6140 C   0  0  0  0  0  0  0  0  0  0  0  0
  143.3980   67.1210  219.3010 C   0  0  0  0  0  0  0  0  0  0  0  0
  142.5380   68.1770  219.0540 C   0  0  0  0  0  0  0  0  0  0  0  0
  142.9650   69.4920  219.1140 C   0  0  0  0  0  0  0  0  0  0  0  0
  141.9720   70.5760  218.8340 C   0  0  0  0  0  0  0  0  0  0  0  0
  141.1980   71.7000  221.5380 N   0  0  0  0  0  0  0  0  0  0  0  0
  140.4130   72.2330  222.4870 C   0  0  0  0  0  0  0  0  0  0  0  0
  139.9610   71.4450  223.5820 N   0  0  0  0  0  0  0  0  0  0  0  0
  138.8360   70.5580  223.4770 C   0  0  0  0  0  0  0  0  0  0  0  0
  139.1970   69.1260  223.8080 C   0  0  0  0  0  0  0  0  0  0  0  0
  139.8420   69.1630  225.1530 C   0  0  0  0  0  0  0  0  0  0  0  0
  139.7640   68.0500  225.9410 C   0  0  0  0  0  0  0  0  0  0  0  0
  140.3150   67.9520  227.2000 C   0  0  0  0  0  0  0  0  0  0  0  0
  140.9850   69.0720  227.6700 C   0  0  0  0  0  0  0  0  0  0  0  0
  141.0710   70.2100  226.8780 C   0  0  0  0  0  0  0  0  0  0  0  0
  140.5100   70.2710  225.6280 C   0  0  0  0  0  0  0  0  0  0  0  0
  140.6510   71.5280  224.8500 C   0  0  0  0  0  0  0  0  0  0  0  0
  140.0560   73.5340  222.3900 N   0  0  0  0  0  0  0  0  0  0  0  0
  139.1510   76.1620  222.3980 C   0  0  0  0  0  0  0  0  0  0  0  0
  139.1370   77.6070  222.6800 C   0  0  0  0  0  0  0  0  0  0  0  0
  143.3280   78.2640  221.9490 H   0  0  0  0  0  0  0  0  0  0  0  0
  143.4190   80.0570  222.1710 H   0  0  0  0  0  0  0  0  0  0  0  0
  139.8321   79.9897  223.2789 H   0  0  0  0  0  0  0  0  0  0  0  0
  140.7666   80.3130  221.7469 H   0  0  0  0  0  0  0  0  0  0  0  0
  140.0586   77.8183  219.8893 H   0  0  0  0  0  0  0  0  0  0  0  0
  141.4364   78.7183  220.6025 H   0  0  0  0  0  0  0  0  0  0  0  0
  142.0274   76.3490  220.6086 H   0  0  0  0  0  0  0  0  0  0  0  0
  141.7056   76.7790  222.2812 H   0  0  0  0  0  0  0  0  0  0  0  0
  139.5374   75.7641  220.3185 H   0  0  0  0  0  0  0  0  0  0  0  0
  141.6289   74.3299  219.5574 H   0  0  0  0  0  0  0  0  0  0  0  0
  143.8624   72.3586  218.0817 H   0  0  0  0  0  0  0  0  0  0  0  0
  144.0545   73.0857  219.7313 H   0  0  0  0  0  0  0  0  0  0  0  0
  145.7013   71.1990  218.8289 H   0  0  0  0  0  0  0  0  0  0  0  0
  145.1759   71.2881  220.5591 H   0  0  0  0  0  0  0  0  0  0  0  0
  146.1766   68.8999  219.9204 H   0  0  0  0  0  0  0  0  0  0  0  0
  145.4126   66.5486  219.8137 H   0  0  0  0  0  0  0  0  0  0  0  0
  143.0312   66.0854  219.2468 H   0  0  0  0  0  0  0  0  0  0  0  0
  141.4880   67.9655  218.8035 H   0  0  0  0  0  0  0  0  0  0  0  0
  141.8977   70.7603  217.7521 H   0  0  0  0  0  0  0  0  0  0  0  0
  140.9634   70.3076  219.1814 H   0  0  0  0  0  0  0  0  0  0  0  0
  138.0542   70.8952  224.1735 H   0  0  0  0  0  0  0  0  0  0  0  0
  138.4855   70.5830  222.4346 H   0  0  0  0  0  0  0  0  0  0  0  0
  138.2925   68.5007  223.8353 H   0  0  0  0  0  0  0  0  0  0  0  0
  139.8693   68.6955  223.0513 H   0  0  0  0  0  0  0  0  0  0  0  0
  139.2267   67.1757  225.5449 H   0  0  0  0  0  0  0  0  0  0  0  0
  140.2282   67.0345  227.8005 H   0  0  0  0  0  0  0  0  0  0  0  0
  141.4474   69.0590  228.6680 H   0  0  0  0  0  0  0  0  0  0  0  0
  141.6058   71.0897  227.2655 H   0  0  0  0  0  0  0  0  0  0  0  0
  140.2283   72.3592  225.4335 H   0  0  0  0  0  0  0  0  0  0  0  0
  141.7202   71.6937  224.6516 H   0  0  0  0  0  0  0  0  0  0  0  0
  138.1267   75.8588  222.1354 H   0  0  0  0  0  0  0  0  0  0  0  0
  139.5381   75.6822  223.3090 H   0  0  0  0  0  0  0  0  0  0  0  0
  138.0796   77.9064  222.7273 H   0  0  0  0  0  0  0  0  0  0  0  0
  139.7392   77.6808  223.5976 H   0  0  0  0  0  0  0  0  0  0  0  0
  1  2  1  0
  2  3  2  0
  2  4  1  0
  4  5  1  0
  5  6  1  0
  6  7  1  0
  7  8  1  0
  8  9  1  0
  9 10  2  0
 10 11  1  0
 11 12  1  0
 12 13  1  0
 13 14  1  0
 14 15  1  0
 15 16  2  0
 16 17  1  0
 17 18  2  0
 18 19  1  0
 19 20  2  0
 20 21  1  0
 11 22  2  0
 22 23  1  0
 23 24  1  0
 24 25  1  0
 25 26  1  0
 26 27  1  0
 27 28  2  0
 28 29  1  0
 29 30  2  0
 30 31  1  0
 31 32  2  0
 32 33  1  0
 23 34  2  0
  8 35  1  0
 35 36  1  0
 36  5  1  0
 34  9  1  0
 21 12  1  0
 33 24  1  0
 20 15  1  0
 32 27  1  0
  1 37  1  0
  1 38  1  0
  4 39  1  0
  4 40  1  0
  6 41  1  0
  6 42  1  0
  7 43  1  0
  7 44  1  0
  8 45  1  0
 10 46  1  0
 13 47  1  0
 13 48  1  0
 14 49  1  0
 14 50  1  0
 16 51  1  0
 17 52  1  0
 18 53  1  0
 19 54  1  0
 21 55  1  0
 21 56  1  0
 25 57  1  0
 25 58  1  0
 26 59  1  0
 26 60  1  0
 28 61  1  0
 29 62  1  0
 30 63  1  0
 31 64  1  0
 33 65  1  0
 33 66  1  0
 35 67  1  0
 35 68  1  0
 36 69  1  0
 36 70  1  0
M  END
>  <smiles>  (40) 
NC(=O)CN1CCC(c2cc(N3CCc4ccccc4C3)nc(N3CCc4ccccc4C3)n2)CC1

>  <score_type>  (40) 
oracle

>  <origin>  (40) 
autodockgpu

>  <m_score__min__energy>  (40) 
-11.01

>  <m_primary>  (40) 
energy

>  <rmsd>  (40) 
10.35382814698599

>  <m_score__min__rmsd>  (40) 
10.35382814698599

>  <meeko>  (40) 
{"free_energy": -10.18, "intermolecular_energy": -11.67, "internal_energy": -1.38, "cluster_size": 12, "cluster_id": 3, "rank_in_cluster": 1}

>  <energy>  (40) 
-10.17

>  <cluster_rmsd>  (40) 
0.04

>  <cluster>  (40) 
3

$$$$

     RDKit          3D

 70 75  0  0  0  0  0  0  0  0999 V2000
  143.5210   68.2280  219.7120 N   0  0  0  0  0  0  0  0  0  0  0  0
  144.9070   68.5340  219.5520 C   0  0  0  0  0  0  0  0  0  0  0  0
  145.6830   68.1400  220.4360 O   0  0  0  0  0  0  0  0  0  0  0  0
  145.2930   69.2950  218.3460 C   0  0  0  0  0  0  0  0  0  0  0  0
  145.0350   70.7100  218.4630 N   0  0  0  0  0  0  0  0  0  0  0  0
  143.7320   70.9510  217.9300 C   0  0  0  0  0  0  0  0  0  0  0  0
  142.7490   71.1110  219.0720 C   0  0  0  0  0  0  0  0  0  0  0  0
  143.1280   72.4430  219.6950 C   0  0  0  0  0  0  0  0  0  0  0  0
  142.1010   72.9870  220.5960 C   0  0  0  0  0  0  0  0  0  0  0  0
  141.6420   74.3030  220.4770 C   0  0  0  0  0  0  0  0  0  0  0  0
  140.6850   74.8240  221.3090 C   0  0  0  0  0  0  0  0  0  0  0  0
  140.1860   76.1480  221.2340 N   0  0  0  0  0  0  0  0  0  0  0  0
  138.8470   76.5430  221.6040 C   0  0  0  0  0  0  0  0  0  0  0  0
  138.8500   77.5120  222.7690 C   0  0  0  0  0  0  0  0  0  0  0  0
  140.0700   78.3540  222.7690 C   0  0  0  0  0  0  0  0  0  0  0  0
  140.1780   79.3230  223.7440 C   0  0  0  0  0  0  0  0  0  0  0  0
  141.2670   80.1690  223.8460 C   0  0  0  0  0  0  0  0  0  0  0  0
  142.2800   80.0310  222.9300 C   0  0  0  0  0  0  0  0  0  0  0  0
  142.1850   79.0640  221.9440 C   0  0  0  0  0  0  0  0  0  0  0  0
  141.0900   78.2230  221.8520 C   0  0  0  0  0  0  0  0  0  0  0  0
  141.0660   77.2030  220.7570 C   0  0  0  0  0  0  0  0  0  0  0  0
  140.2020   73.9850  222.2640 N   0  0  0  0  0  0  0  0  0  0  0  0
  140.6160   72.7170  222.4100 C   0  0  0  0  0  0  0  0  0  0  0  0
  140.0710   71.8870  223.4290 N   0  0  0  0  0  0  0  0  0  0  0  0
  138.9280   71.0480  223.2060 C   0  0  0  0  0  0  0  0  0  0  0  0
  139.2210   69.5880  223.4780 C   0  0  0  0  0  0  0  0  0  0  0  0
  139.7800   69.5300  224.8600 C   0  0  0  0  0  0  0  0  0  0  0  0
  139.6170   68.3800  225.5790 C   0  0  0  0  0  0  0  0  0  0  0  0
  140.0840   68.1950  226.8620 C   0  0  0  0  0  0  0  0  0  0  0  0
  140.7580   69.2640  227.4340 C   0  0  0  0  0  0  0  0  0  0  0  0
  140.9300   70.4390  226.7130 C   0  0  0  0  0  0  0  0  0  0  0  0
  140.4510   70.5870  225.4360 C   0  0  0  0  0  0  0  0  0  0  0  0
  140.6810   71.8780  224.7400 C   0  0  0  0  0  0  0  0  0  0  0  0
  141.5620   72.2340  221.5720 N   0  0  0  0  0  0  0  0  0  0  0  0
  144.4620   72.2320  220.3600 C   0  0  0  0  0  0  0  0  0  0  0  0
  145.3460   71.2440  219.7170 C   0  0  0  0  0  0  0  0  0  0  0  0
  142.9330   68.7580  220.4000 H   0  0  0  0  0  0  0  0  0  0  0  0
  143.0620   67.4650  219.1420 H   0  0  0  0  0  0  0  0  0  0  0  0
  146.3688   69.1487  218.1691 H   0  0  0  0  0  0  0  0  0  0  0  0
  144.6835   68.9183  217.5114 H   0  0  0  0  0  0  0  0  0  0  0  0
  143.7460   71.8696  217.3250 H   0  0  0  0  0  0  0  0  0  0  0  0
  143.4289   70.1040  217.2970 H   0  0  0  0  0  0  0  0  0  0  0  0
  141.7148   71.1338  218.6981 H   0  0  0  0  0  0  0  0  0  0  0  0
  142.7930   70.2787  219.7899 H   0  0  0  0  0  0  0  0  0  0  0  0
  143.2023   73.2210  218.9209 H   0  0  0  0  0  0  0  0  0  0  0  0
  142.0639   74.9426  219.6878 H   0  0  0  0  0  0  0  0  0  0  0  0
  138.3662   77.0255  220.7403 H   0  0  0  0  0  0  0  0  0  0  0  0
  138.2957   75.6414  221.9094 H   0  0  0  0  0  0  0  0  0  0  0  0
  137.9661   78.1626  222.6956 H   0  0  0  0  0  0  0  0  0  0  0  0
  138.8305   76.9308  223.7027 H   0  0  0  0  0  0  0  0  0  0  0  0
  139.3612   79.4277  224.4734 H   0  0  0  0  0  0  0  0  0  0  0  0
  141.3200   80.9304  224.6381 H   0  0  0  0  0  0  0  0  0  0  0  0
  143.1627   80.6855  222.9792 H   0  0  0  0  0  0  0  0  0  0  0  0
  143.0017   78.9614  221.2142 H   0  0  0  0  0  0  0  0  0  0  0  0
  140.6720   77.6432  219.8291 H   0  0  0  0  0  0  0  0  0  0  0  0
  142.0729   76.8244  220.5273 H   0  0  0  0  0  0  0  0  0  0  0  0
  138.1150   71.3748  223.8709 H   0  0  0  0  0  0  0  0  0  0  0  0
  138.6453   71.1414  222.1470 H   0  0  0  0  0  0  0  0  0  0  0  0
  138.2969   68.9947  223.4145 H   0  0  0  0  0  0  0  0  0  0  0  0
  139.9257   69.1750  222.7412 H   0  0  0  0  0  0  0  0  0  0  0  0
  139.0780   67.5477  225.1028 H   0  0  0  0  0  0  0  0  0  0  0  0
  139.9306   67.2501  227.4038 H   0  0  0  0  0  0  0  0  0  0  0  0
  141.1555   69.1815  228.4564 H   0  0  0  0  0  0  0  0  0  0  0  0
  141.4672   71.2772  227.1808 H   0  0  0  0  0  0  0  0  0  0  0  0
  140.2483   72.6909  225.3416 H   0  0  0  0  0  0  0  0  0  0  0  0
  141.7653   72.0170  224.6181 H   0  0  0  0  0  0  0  0  0  0  0  0
  144.9887   73.1976  220.3754 H   0  0  0  0  0  0  0  0  0  0  0  0
  144.2392   71.8302  221.3594 H   0  0  0  0  0  0  0  0  0  0  0  0
  146.3311   71.7233  219.6176 H   0  0  0  0  0  0  0  0  0  0  0  0
  145.2579   70.3714  220.3809 H   0  0  0  0  0  0  0  0  0  0  0  0
  1  2  1  0
  2  3  2  0
  2  4  1  0
  4  5  1  0
  5  6  1  0
  6  7  1  0
  7  8  1  0
  8  9  1  0
  9 10  2  0
 10 11  1  0
 11 12  1  0
 12 13  1  0
 13 14  1  0
 14 15  1  0
 15 16  2  0
 16 17  1  0
 17 18  2  0
 18 19  1  0
 19 20  2  0
 20 21  1  0
 11 22  2  0
 22 23  1  0
 23 24  1  0
 24 25  1  0
 25 26  1  0
 26 27  1  0
 27 28  2  0
 28 29  1  0
 29 30  2  0
 30 31  1  0
 31 32  2  0
 32 33  1  0
 23 34  2  0
  8 35  1  0
 35 36  1  0
 36  5  1  0
 34  9  1  0
 21 12  1  0
 33 24  1  0
 20 15  1  0
 32 27  1  0
  1 37  1  0
  1 38  1  0
  4 39  1  0
  4 40  1  0
  6 41  1  0
  6 42  1  0
  7 43  1  0
  7 44  1  0
  8 45  1  0
 10 46  1  0
 13 47  1  0
 13 48  1  0
 14 49  1  0
 14 50  1  0
 16 51  1  0
 17 52  1  0
 18 53  1  0
 19 54  1  0
 21 55  1  0
 21 56  1  0
 25 57  1  0
 25 58  1  0
 26 59  1  0
 26 60  1  0
 28 61  1  0
 29 62  1  0
 30 63  1  0
 31 64  1  0
 33 65  1  0
 33 66  1  0
 35 67  1  0
 35 68  1  0
 36 69  1  0
 36 70  1  0
M  END
>  <smiles>  (41) 
NC(=O)CN1CCC(c2cc(N3CCc4ccccc4C3)nc(N3CCc4ccccc4C3)n2)CC1

>  <score_type>  (41) 
oracle

>  <origin>  (41) 
autodockgpu

>  <m_score__min__energy>  (41) 
-11.01

>  <m_primary>  (41) 
energy

>  <rmsd>  (41) 
4.034526223694725

>  <m_score__min__rmsd>  (41) 
4.034526223694725

>  <meeko>  (41) 
{"free_energy": -10.48, "intermolecular_energy": -11.97, "internal_energy": -1.44, "cluster_size": 26, "cluster_id": 1, "rank_in_cluster": 5}

>  <energy>  (41) 
-10.15

>  <cluster_rmsd>  (41) 
0.08

>  <cluster>  (41) 
3

$$$$

     RDKit          3D

 70 75  0  0  0  0  0  0  0  0999 V2000
  146.2000   68.8020  217.5560 N   0  0  0  0  0  0  0  0  0  0  0  0
  146.1680   69.0710  218.9580 C   0  0  0  0  0  0  0  0  0  0  0  0
  145.7230   68.1800  219.6990 O   0  0  0  0  0  0  0  0  0  0  0  0
  146.6680   70.3870  219.4020 C   0  0  0  0  0  0  0  0  0  0  0  0
  145.8180   71.4810  218.9990 N   0  0  0  0  0  0  0  0  0  0  0  0
  144.5160   70.9430  218.7590 C   0  0  0  0  0  0  0  0  0  0  0  0
  143.6250   71.2490  219.9450 C   0  0  0  0  0  0  0  0  0  0  0  0
  143.4080   72.7500  219.8610 C   0  0  0  0  0  0  0  0  0  0  0  0
  142.2950   73.2320  220.6920 C   0  0  0  0  0  0  0  0  0  0  0  0
  141.8040   74.5370  220.5760 C   0  0  0  0  0  0  0  0  0  0  0  0
  140.7670   75.0020  221.3430 C   0  0  0  0  0  0  0  0  0  0  0  0
  140.2320   76.3120  221.2680 N   0  0  0  0  0  0  0  0  0  0  0  0
  138.8880   76.6730  221.6510 C   0  0  0  0  0  0  0  0  0  0  0  0
  138.8800   77.6470  222.8120 C   0  0  0  0  0  0  0  0  0  0  0  0
  140.0770   78.5220  222.7930 C   0  0  0  0  0  0  0  0  0  0  0  0
  140.1710   79.4980  223.7630 C   0  0  0  0  0  0  0  0  0  0  0  0
  141.2390   80.3730  223.8470 C   0  0  0  0  0  0  0  0  0  0  0  0
  142.2440   80.2570  222.9200 C   0  0  0  0  0  0  0  0  0  0  0  0
  142.1630   79.2830  221.9390 C   0  0  0  0  0  0  0  0  0  0  0  0
  141.0890   78.4130  221.8650 C   0  0  0  0  0  0  0  0  0  0  0  0
  141.0790   77.3870  220.7750 C   0  0  0  0  0  0  0  0  0  0  0  0
  140.2370   74.1180  222.2300 N   0  0  0  0  0  0  0  0  0  0  0  0
  140.6800   72.8580  222.3710 C   0  0  0  0  0  0  0  0  0  0  0  0
  140.0820   71.9800  223.3170 N   0  0  0  0  0  0  0  0  0  0  0  0
  138.8990   71.2230  223.0210 C   0  0  0  0  0  0  0  0  0  0  0  0
  139.1130   69.7320  223.1760 C   0  0  0  0  0  0  0  0  0  0  0  0
  139.6550   69.5340  224.5520 C   0  0  0  0  0  0  0  0  0  0  0  0
  139.4250   68.3400  225.1740 C   0  0  0  0  0  0  0  0  0  0  0  0
  139.8700   68.0290  226.4410 C   0  0  0  0  0  0  0  0  0  0  0  0
  140.5930   69.0120  227.1010 C   0  0  0  0  0  0  0  0  0  0  0  0
  140.8330   70.2300  226.4780 C   0  0  0  0  0  0  0  0  0  0  0  0
  140.3750   70.5040  225.2140 C   0  0  0  0  0  0  0  0  0  0  0  0
  140.6790   71.8340  224.6260 C   0  0  0  0  0  0  0  0  0  0  0  0
  141.7050   72.4320  221.5970 N   0  0  0  0  0  0  0  0  0  0  0  0
  144.7310   73.3850  220.1980 C   0  0  0  0  0  0  0  0  0  0  0  0
  145.9250   72.6150  219.8100 C   0  0  0  0  0  0  0  0  0  0  0  0
  145.3200   68.8310  216.9860 H   0  0  0  0  0  0  0  0  0  0  0  0
  147.1080   68.5680  217.0660 H   0  0  0  0  0  0  0  0  0  0  0  0
  146.7367   70.3831  220.4998 H   0  0  0  0  0  0  0  0  0  0  0  0
  147.6486   70.5420  218.9284 H   0  0  0  0  0  0  0  0  0  0  0  0
  144.0911   71.3983  217.8523 H   0  0  0  0  0  0  0  0  0  0  0  0
  144.5857   69.8540  218.6200 H   0  0  0  0  0  0  0  0  0  0  0  0
  142.6692   70.7103  219.8658 H   0  0  0  0  0  0  0  0  0  0  0  0
  144.0700   70.9375  220.9015 H   0  0  0  0  0  0  0  0  0  0  0  0
  143.0905   73.0364  218.8475 H   0  0  0  0  0  0  0  0  0  0  0  0
  142.2666   75.2143  219.8431 H   0  0  0  0  0  0  0  0  0  0  0  0
  138.3850   77.1390  220.7909 H   0  0  0  0  0  0  0  0  0  0  0  0
  138.3633   75.7589  221.9659 H   0  0  0  0  0  0  0  0  0  0  0  0
  137.9780   78.2732  222.7475 H   0  0  0  0  0  0  0  0  0  0  0  0
  138.8884   77.0695  223.7482 H   0  0  0  0  0  0  0  0  0  0  0  0
  139.3611   79.5843  224.5023 H   0  0  0  0  0  0  0  0  0  0  0  0
  141.2814   81.1399  224.6344 H   0  0  0  0  0  0  0  0  0  0  0  0
  143.1099   80.9345  222.9559 H   0  0  0  0  0  0  0  0  0  0  0  0
  142.9730   79.1985  221.1995 H   0  0  0  0  0  0  0  0  0  0  0  0
  140.6629   77.8119  219.8496 H   0  0  0  0  0  0  0  0  0  0  0  0
  142.0926   77.0335  220.5350 H   0  0  0  0  0  0  0  0  0  0  0  0
  138.0978   71.5378  223.7058 H   0  0  0  0  0  0  0  0  0  0  0  0
  138.6317   71.4158  221.9715 H   0  0  0  0  0  0  0  0  0  0  0  0
  138.1599   69.1952  223.0599 H   0  0  0  0  0  0  0  0  0  0  0  0
  139.8022   69.3428  222.4121 H   0  0  0  0  0  0  0  0  0  0  0  0
  138.8480   67.5782  224.6293 H   0  0  0  0  0  0  0  0  0  0  0  0
  139.6628   67.0531  226.9042 H   0  0  0  0  0  0  0  0  0  0  0  0
  140.9755   68.8272  228.1157 H   0  0  0  0  0  0  0  0  0  0  0  0
  141.4081   70.9989  227.0147 H   0  0  0  0  0  0  0  0  0  0  0  0
  140.2838   72.6175  225.2892 H   0  0  0  0  0  0  0  0  0  0  0  0
  141.7702   71.9256  224.5215 H   0  0  0  0  0  0  0  0  0  0  0  0
  144.7774   74.3597  219.6902 H   0  0  0  0  0  0  0  0  0  0  0  0
  144.7608   73.4526  221.2955 H   0  0  0  0  0  0  0  0  0  0  0  0
  146.5908   73.3145  219.2834 H   0  0  0  0  0  0  0  0  0  0  0  0
  146.2648   72.1959  220.7686 H   0  0  0  0  0  0  0  0  0  0  0  0
  1  2  1  0
  2  3  2  0
  2  4  1  0
  4  5  1  0
  5  6  1  0
  6  7  1  0
  7  8  1  0
  8  9  1  0
  9 10  2  0
 10 11  1  0
 11 12  1  0
 12 13  1  0
 13 14  1  0
 14 15  1  0
 15 16  2  0
 16 17  1  0
 17 18  2  0
 18 19  1  0
 19 20  2  0
 20 21  1  0
 11 22  2  0
 22 23  1  0
 23 24  1  0
 24 25  1  0
 25 26  1  0
 26 27  1  0
 27 28  2  0
 28 29  1  0
 29 30  2  0
 30 31  1  0
 31 32  2  0
 32 33  1  0
 23 34  2  0
  8 35  1  0
 35 36  1  0
 36  5  1  0
 34  9  1  0
 21 12  1  0
 33 24  1  0
 20 15  1  0
 32 27  1  0
  1 37  1  0
  1 38  1  0
  4 39  1  0
  4 40  1  0
  6 41  1  0
  6 42  1  0
  7 43  1  0
  7 44  1  0
  8 45  1  0
 10 46  1  0
 13 47  1  0
 13 48  1  0
 14 49  1  0
 14 50  1  0
 16 51  1  0
 17 52  1  0
 18 53  1  0
 19 54  1  0
 21 55  1  0
 21 56  1  0
 25 57  1  0
 25 58  1  0
 26 59  1  0
 26 60  1  0
 28 61  1  0
 29 62  1  0
 30 63  1  0
 31 64  1  0
 33 65  1  0
 33 66  1  0
 35 67  1  0
 35 68  1  0
 36 69  1  0
 36 70  1  0
M  END
>  <smiles>  (42) 
NC(=O)CN1CCC(c2cc(N3CCc4ccccc4C3)nc(N3CCc4ccccc4C3)n2)CC1

>  <score_type>  (42) 
oracle

>  <origin>  (42) 
autodockgpu

>  <m_score__min__energy>  (42) 
-11.01

>  <m_primary>  (42) 
energy

>  <rmsd>  (42) 
4.085295920520299

>  <m_score__min__rmsd>  (42) 
4.085295920520299

>  <meeko>  (42) 
{"free_energy": -11.01, "intermolecular_energy": -12.5, "internal_energy": -1.38, "cluster_size": 26, "cluster_id": 1, "rank_in_cluster": 1}

>  <energy>  (42) 
-10.14

>  <cluster_rmsd>  (42) 
0.41

>  <cluster>  (42) 
3

$$$$

     RDKit          3D

 70 75  0  0  0  0  0  0  0  0999 V2000
  147.0750   69.6140  217.0770 N   0  0  0  0  0  0  0  0  0  0  0  0
  145.9020   69.7670  216.2770 C   0  0  0  0  0  0  0  0  0  0  0  0
  145.7820   69.0220  215.2920 O   0  0  0  0  0  0  0  0  0  0  0  0
  144.9330   70.8010  216.6950 C   0  0  0  0  0  0  0  0  0  0  0  0
  145.0490   71.1540  218.0890 N   0  0  0  0  0  0  0  0  0  0  0  0
  144.8850   72.5700  218.1850 C   0  0  0  0  0  0  0  0  0  0  0  0
  143.4810   72.8770  218.6640 C   0  0  0  0  0  0  0  0  0  0  0  0
  143.4830   72.4220  220.1130 C   0  0  0  0  0  0  0  0  0  0  0  0
  142.3490   72.9380  220.8940 C   0  0  0  0  0  0  0  0  0  0  0  0
  141.8630   74.2370  220.7140 C   0  0  0  0  0  0  0  0  0  0  0  0
  140.8070   74.7330  221.4350 C   0  0  0  0  0  0  0  0  0  0  0  0
  140.2770   76.0390  221.2940 N   0  0  0  0  0  0  0  0  0  0  0  0
  138.9140   76.4090  221.5970 C   0  0  0  0  0  0  0  0  0  0  0  0
  138.8450   77.4160  222.7270 C   0  0  0  0  0  0  0  0  0  0  0  0
  140.0420   78.2920  222.7440 C   0  0  0  0  0  0  0  0  0  0  0  0
  140.0850   79.2960  223.6880 C   0  0  0  0  0  0  0  0  0  0  0  0
  141.1470   80.1750  223.8020 C   0  0  0  0  0  0  0  0  0  0  0  0
  142.1990   80.0340  222.9320 C   0  0  0  0  0  0  0  0  0  0  0  0
  142.1690   79.0320  221.9780 C   0  0  0  0  0  0  0  0  0  0  0  0
  141.1010   78.1580  221.8730 C   0  0  0  0  0  0  0  0  0  0  0  0
  141.1470   77.1010  220.8140 C   0  0  0  0  0  0  0  0  0  0  0  0
  140.2530   73.8840  222.3420 N   0  0  0  0  0  0  0  0  0  0  0  0
  140.6890   72.6310  222.5440 C   0  0  0  0  0  0  0  0  0  0  0  0
  140.0660   71.7920  223.5080 N   0  0  0  0  0  0  0  0  0  0  0  0
  138.8320   71.1050  223.2450 C   0  0  0  0  0  0  0  0  0  0  0  0
  138.9620   69.6050  223.3990 C   0  0  0  0  0  0  0  0  0  0  0  0
  139.5270   69.3770  224.7610 C   0  0  0  0  0  0  0  0  0  0  0  0
  139.2440   68.2000  225.3930 C   0  0  0  0  0  0  0  0  0  0  0  0
  139.7020   67.8660  226.6500 C   0  0  0  0  0  0  0  0  0  0  0  0
  140.4990   68.8050  227.2870 C   0  0  0  0  0  0  0  0  0  0  0  0
  140.7940   70.0060  226.6540 C   0  0  0  0  0  0  0  0  0  0  0  0
  140.3200   70.3040  225.4020 C   0  0  0  0  0  0  0  0  0  0  0  0
  140.6860   71.6120  224.8020 C   0  0  0  0  0  0  0  0  0  0  0  0
  141.7340   72.1750  221.8150 N   0  0  0  0  0  0  0  0  0  0  0  0
  143.5610   70.9200  220.0820 C   0  0  0  0  0  0  0  0  0  0  0  0
  144.3000   70.3430  218.9470 C   0  0  0  0  0  0  0  0  0  0  0  0
  147.9990   69.9810  216.7450 H   0  0  0  0  0  0  0  0  0  0  0  0
  147.0350   69.1290  218.0160 H   0  0  0  0  0  0  0  0  0  0  0  0
  145.1016   71.7040  216.0899 H   0  0  0  0  0  0  0  0  0  0  0  0
  143.9253   70.3867  216.5441 H   0  0  0  0  0  0  0  0  0  0  0  0
  145.6150   72.9774  218.8999 H   0  0  0  0  0  0  0  0  0  0  0  0
  145.0478   73.0288  217.1986 H   0  0  0  0  0  0  0  0  0  0  0  0
  143.2695   73.9541  218.5921 H   0  0  0  0  0  0  0  0  0  0  0  0
  142.7081   72.3760  218.0626 H   0  0  0  0  0  0  0  0  0  0  0  0
  144.3494   72.8403  220.6463 H   0  0  0  0  0  0  0  0  0  0  0  0
  142.3453   74.8845  219.9669 H   0  0  0  0  0  0  0  0  0  0  0  0
  138.4559   76.8490  220.6989 H   0  0  0  0  0  0  0  0  0  0  0  0
  138.3744   75.5034  221.9112 H   0  0  0  0  0  0  0  0  0  0  0  0
  137.9475   78.0386  222.5975 H   0  0  0  0  0  0  0  0  0  0  0  0
  138.8042   76.8664  223.6790 H   0  0  0  0  0  0  0  0  0  0  0  0
  139.2375   79.4027  224.3810 H   0  0  0  0  0  0  0  0  0  0  0  0
  141.1483   80.9644  224.5680 H   0  0  0  0  0  0  0  0  0  0  0  0
  143.0616   80.7139  222.9927 H   0  0  0  0  0  0  0  0  0  0  0  0
  143.0166   78.9274  221.2847 H   0  0  0  0  0  0  0  0  0  0  0  0
  140.7782   77.4982  219.8568 H   0  0  0  0  0  0  0  0  0  0  0  0
  142.1718   76.7429  220.6362 H   0  0  0  0  0  0  0  0  0  0  0  0
  138.0689   71.4675  223.9494 H   0  0  0  0  0  0  0  0  0  0  0  0
  138.5490   71.3116  222.2023 H   0  0  0  0  0  0  0  0  0  0  0  0
  137.9763   69.1250  223.3092 H   0  0  0  0  0  0  0  0  0  0  0  0
  139.6073   69.1751  222.6188 H   0  0  0  0  0  0  0  0  0  0  0  0
  138.6102   67.4718  224.8657 H   0  0  0  0  0  0  0  0  0  0  0  0
  139.4485   66.9055  227.1224 H   0  0  0  0  0  0  0  0  0  0  0  0
  140.8969   68.5994  228.2917 H   0  0  0  0  0  0  0  0  0  0  0  0
  141.4273   70.7406  227.1730 H   0  0  0  0  0  0  0  0  0  0  0  0
  140.3546   72.4184  225.4727 H   0  0  0  0  0  0  0  0  0  0  0  0
  141.7776   71.6380  224.6690 H   0  0  0  0  0  0  0  0  0  0  0  0
  144.0515   70.5877  221.0088 H   0  0  0  0  0  0  0  0  0  0  0  0
  142.5244   70.5678  219.9753 H   0  0  0  0  0  0  0  0  0  0  0  0
  144.9987   69.6065  219.3706 H   0  0  0  0  0  0  0  0  0  0  0  0
  143.4939   69.9785  218.2933 H   0  0  0  0  0  0  0  0  0  0  0  0
  1  2  1  0
  2  3  2  0
  2  4  1  0
  4  5  1  0
  5  6  1  0
  6  7  1  0
  7  8  1  0
  8  9  1  0
  9 10  2  0
 10 11  1  0
 11 12  1  0
 12 13  1  0
 13 14  1  0
 14 15  1  0
 15 16  2  0
 16 17  1  0
 17 18  2  0
 18 19  1  0
 19 20  2  0
 20 21  1  0
 11 22  2  0
 22 23  1  0
 23 24  1  0
 24 25  1  0
 25 26  1  0
 26 27  1  0
 27 28  2  0
 28 29  1  0
 29 30  2  0
 30 31  1  0
 31 32  2  0
 32 33  1  0
 23 34  2  0
  8 35  1  0
 35 36  1  0
 36  5  1  0
 34  9  1  0
 21 12  1  0
 33 24  1  0
 20 15  1  0
 32 27  1  0
  1 37  1  0
  1 38  1  0
  4 39  1  0
  4 40  1  0
  6 41  1  0
  6 42  1  0
  7 43  1  0
  7 44  1  0
  8 45  1  0
 10 46  1  0
 13 47  1  0
 13 48  1  0
 14 49  1  0
 14 50  1  0
 16 51  1  0
 17 52  1  0
 18 53  1  0
 19 54  1  0
 21 55  1  0
 21 56  1  0
 25 57  1  0
 25 58  1  0
 26 59  1  0
 26 60  1  0
 28 61  1  0
 29 62  1  0
 30 63  1  0
 31 64  1  0
 33 65  1  0
 33 66  1  0
 35 67  1  0
 35 68  1  0
 36 69  1  0
 36 70  1  0
M  END
>  <smiles>  (43) 
NC(=O)CN1CCC(c2cc(N3CCc4ccccc4C3)nc(N3CCc4ccccc4C3)n2)CC1

>  <score_type>  (43) 
oracle

>  <origin>  (43) 
autodockgpu

>  <m_score__min__energy>  (43) 
-11.01

>  <m_primary>  (43) 
energy

>  <rmsd>  (43) 
4.092866380918924

>  <m_score__min__rmsd>  (43) 
4.092866380918924

>  <meeko>  (43) 
{"free_energy": -10.01, "intermolecular_energy": -11.5, "internal_energy": -1.47, "cluster_size": 26, "cluster_id": 1, "rank_in_cluster": 22}

>  <energy>  (43) 
-9.95

>  <cluster_rmsd>  (43) 
0.55

>  <cluster>  (43) 
3

$$$$

     RDKit          3D

 70 75  0  0  0  0  0  0  0  0999 V2000
  140.9920   80.8910  223.5160 N   0  0  0  0  0  0  0  0  0  0  0  0
  141.5770   79.6040  223.3150 C   0  0  0  0  0  0  0  0  0  0  0  0
  141.8590   78.9420  224.3260 O   0  0  0  0  0  0  0  0  0  0  0  0
  141.7950   79.1740  221.9190 C   0  0  0  0  0  0  0  0  0  0  0  0
  140.8030   78.2350  221.4550 N   0  0  0  0  0  0  0  0  0  0  0  0
  141.3720   77.5230  220.3550 C   0  0  0  0  0  0  0  0  0  0  0  0
  141.8240   76.1560  220.8290 C   0  0  0  0  0  0  0  0  0  0  0  0
  140.5260   75.4150  221.0970 C   0  0  0  0  0  0  0  0  0  0  0  0
  140.6940   73.9600  221.2270 C   0  0  0  0  0  0  0  0  0  0  0  0
  141.3000   73.1980  220.2230 C   0  0  0  0  0  0  0  0  0  0  0  0
  141.4640   71.8410  220.3280 C   0  0  0  0  0  0  0  0  0  0  0  0
  142.0680   71.0230  219.3430 N   0  0  0  0  0  0  0  0  0  0  0  0
  142.6110   71.5060  218.0950 C   0  0  0  0  0  0  0  0  0  0  0  0
  144.1040   71.2630  218.0020 C   0  0  0  0  0  0  0  0  0  0  0  0
  144.5010   70.0430  218.7440 C   0  0  0  0  0  0  0  0  0  0  0  0
  145.8270   69.6690  218.6960 C   0  0  0  0  0  0  0  0  0  0  0  0
  146.3160   68.5510  219.3470 C   0  0  0  0  0  0  0  0  0  0  0  0
  145.4340   67.7850  220.0690 C   0  0  0  0  0  0  0  0  0  0  0  0
  144.1000   68.1470  220.1250 C   0  0  0  0  0  0  0  0  0  0  0  0
  143.6220   69.2690  219.4690 C   0  0  0  0  0  0  0  0  0  0  0  0
  142.1640   69.5920  219.5810 C   0  0  0  0  0  0  0  0  0  0  0  0
  141.0000   71.2710  221.4730 N   0  0  0  0  0  0  0  0  0  0  0  0
  140.4130   71.9670  222.4590 C   0  0  0  0  0  0  0  0  0  0  0  0
  139.9500   71.3120  223.6340 N   0  0  0  0  0  0  0  0  0  0  0  0
  138.8200   70.4260  223.6230 C   0  0  0  0  0  0  0  0  0  0  0  0
  139.1690   69.0390  224.1190 C   0  0  0  0  0  0  0  0  0  0  0  0
  139.8060   69.2260  225.4540 C   0  0  0  0  0  0  0  0  0  0  0  0
  139.7160   68.2110  226.3640 C   0  0  0  0  0  0  0  0  0  0  0  0
  140.2590   68.2550  227.6300 C   0  0  0  0  0  0  0  0  0  0  0  0
  140.9340   69.4170  227.9730 C   0  0  0  0  0  0  0  0  0  0  0  0
  141.0310   70.4570  227.0570 C   0  0  0  0  0  0  0  0  0  0  0  0
  140.4780   70.3770  225.8040 C   0  0  0  0  0  0  0  0  0  0  0  0
  140.6320   71.5360  224.8880 C   0  0  0  0  0  0  0  0  0  0  0  0
  140.2680   73.3050  222.3220 N   0  0  0  0  0  0  0  0  0  0  0  0
  139.9160   76.0620  222.3110 C   0  0  0  0  0  0  0  0  0  0  0  0
  140.1930   77.4990  222.4750 C   0  0  0  0  0  0  0  0  0  0  0  0
  141.5790   81.7020  223.8270 H   0  0  0  0  0  0  0  0  0  0  0  0
  139.9590   81.0510  223.3560 H   0  0  0  0  0  0  0  0  0  0  0  0
  141.7668   80.0621  221.2706 H   0  0  0  0  0  0  0  0  0  0  0  0
  142.7703   78.6669  221.8804 H   0  0  0  0  0  0  0  0  0  0  0  0
  140.6186   77.4073  219.5619 H   0  0  0  0  0  0  0  0  0  0  0  0
  142.2330   78.0809  219.9582 H   0  0  0  0  0  0  0  0  0  0  0  0
  142.4120   75.6467  220.0512 H   0  0  0  0  0  0  0  0  0  0  0  0
  142.4738   76.2076  221.7150 H   0  0  0  0  0  0  0  0  0  0  0  0
  139.8492   75.5009  220.2341 H   0  0  0  0  0  0  0  0  0  0  0  0
  141.6583   73.7062  219.3156 H   0  0  0  0  0  0  0  0  0  0  0  0
  142.1126   70.9852  217.2641 H   0  0  0  0  0  0  0  0  0  0  0  0
  142.4361   72.5907  218.0419 H   0  0  0  0  0  0  0  0  0  0  0  0
  144.3821   71.1449  216.9443 H   0  0  0  0  0  0  0  0  0  0  0  0
  144.6231   72.1239  218.4485 H   0  0  0  0  0  0  0  0  0  0  0  0
  146.5269   70.2869  218.1144 H   0  0  0  0  0  0  0  0  0  0  0  0
  147.3812   68.2830  219.2881 H   0  0  0  0  0  0  0  0  0  0  0  0
  145.7864   66.8884  220.6000 H   0  0  0  0  0  0  0  0  0  0  0  0
  143.4008   67.5275  220.7057 H   0  0  0  0  0  0  0  0  0  0  0  0
  141.5874   69.0366  218.8267 H   0  0  0  0  0  0  0  0  0  0  0  0
  141.7565   69.3117  220.5635 H   0  0  0  0  0  0  0  0  0  0  0  0
  138.0358   70.8456  224.2703 H   0  0  0  0  0  0  0  0  0  0  0  0
  138.4768   70.3333  222.5820 H   0  0  0  0  0  0  0  0  0  0  0  0
  138.2599   68.4268  224.2121 H   0  0  0  0  0  0  0  0  0  0  0  0
  139.8427   68.5201  223.4212 H   0  0  0  0  0  0  0  0  0  0  0  0
  139.1754   67.3001  226.0672 H   0  0  0  0  0  0  0  0  0  0  0  0
  140.1621   67.4131  228.3313 H   0  0  0  0  0  0  0  0  0  0  0  0
  141.3917   69.5150  228.9685 H   0  0  0  0  0  0  0  0  0  0  0  0
  141.5678   71.3729  227.3453 H   0  0  0  0  0  0  0  0  0  0  0  0
  140.2109   72.4309  225.3694 H   0  0  0  0  0  0  0  0  0  0  0  0
  141.7035   71.6721  224.6795 H   0  0  0  0  0  0  0  0  0  0  0  0
  138.8253   75.9326  222.2510 H   0  0  0  0  0  0  0  0  0  0  0  0
  140.3765   75.5666  223.1785 H   0  0  0  0  0  0  0  0  0  0  0  0
  139.2257   77.9833  222.6748 H   0  0  0  0  0  0  0  0  0  0  0  0
  140.9535   77.5099  223.2697 H   0  0  0  0  0  0  0  0  0  0  0  0
  1  2  1  0
  2  3  2  0
  2  4  1  0
  4  5  1  0
  5  6  1  0
  6  7  1  0
  7  8  1  0
  8  9  1  0
  9 10  2  0
 10 11  1  0
 11 12  1  0
 12 13  1  0
 13 14  1  0
 14 15  1  0
 15 16  2  0
 16 17  1  0
 17 18  2  0
 18 19  1  0
 19 20  2  0
 20 21  1  0
 11 22  2  0
 22 23  1  0
 23 24  1  0
 24 25  1  0
 25 26  1  0
 26 27  1  0
 27 28  2  0
 28 29  1  0
 29 30  2  0
 30 31  1  0
 31 32  2  0
 32 33  1  0
 23 34  2  0
  8 35  1  0
 35 36  1  0
 36  5  1  0
 34  9  1  0
 21 12  1  0
 33 24  1  0
 20 15  1  0
 32 27  1  0
  1 37  1  0
  1 38  1  0
  4 39  1  0
  4 40  1  0
  6 41  1  0
  6 42  1  0
  7 43  1  0
  7 44  1  0
  8 45  1  0
 10 46  1  0
 13 47  1  0
 13 48  1  0
 14 49  1  0
 14 50  1  0
 16 51  1  0
 17 52  1  0
 18 53  1  0
 19 54  1  0
 21 55  1  0
 21 56  1  0
 25 57  1  0
 25 58  1  0
 26 59  1  0
 26 60  1  0
 28 61  1  0
 29 62  1  0
 30 63  1  0
 31 64  1  0
 33 65  1  0
 33 66  1  0
 35 67  1  0
 35 68  1  0
 36 69  1  0
 36 70  1  0
M  END
>  <smiles>  (44) 
NC(=O)CN1CCC(c2cc(N3CCc4ccccc4C3)nc(N3CCc4ccccc4C3)n2)CC1

>  <score_type>  (44) 
oracle

>  <origin>  (44) 
autodockgpu

>  <m_score__min__energy>  (44) 
-11.01

>  <m_primary>  (44) 
energy

>  <rmsd>  (44) 
10.408744189367543

>  <m_score__min__rmsd>  (44) 
10.408744189367543

>  <meeko>  (44) 
{"free_energy": -9.46, "intermolecular_energy": -10.95, "internal_energy": -1.39, "cluster_size": 12, "cluster_id": 3, "rank_in_cluster": 12}

>  <energy>  (44) 
-9.93

>  <cluster_rmsd>  (44) 
0.86

>  <cluster>  (44) 
3

$$$$

     RDKit          3D

 70 75  0  0  0  0  0  0  0  0999 V2000
  144.4230   75.0850  216.8860 N   0  0  0  0  0  0  0  0  0  0  0  0
  145.2130   74.0790  216.2510 C   0  0  0  0  0  0  0  0  0  0  0  0
  145.0110   73.8740  215.0440 O   0  0  0  0  0  0  0  0  0  0  0  0
  146.2030   73.3730  217.0890 C   0  0  0  0  0  0  0  0  0  0  0  0
  145.5980   72.5610  218.1160 N   0  0  0  0  0  0  0  0  0  0  0  0
  145.7860   73.2380  219.3600 C   0  0  0  0  0  0  0  0  0  0  0  0
  144.4970   73.9330  219.7480 C   0  0  0  0  0  0  0  0  0  0  0  0
  143.5590   72.7930  220.1040 C   0  0  0  0  0  0  0  0  0  0  0  0
  142.3650   73.2210  220.8470 C   0  0  0  0  0  0  0  0  0  0  0  0
  141.8380   74.5090  220.7110 C   0  0  0  0  0  0  0  0  0  0  0  0
  140.7250   74.9240  221.3970 C   0  0  0  0  0  0  0  0  0  0  0  0
  140.1520   76.2150  221.2980 N   0  0  0  0  0  0  0  0  0  0  0  0
  138.7940   76.5410  221.6650 C   0  0  0  0  0  0  0  0  0  0  0  0
  138.7450   77.5310  222.8110 C   0  0  0  0  0  0  0  0  0  0  0  0
  139.9150   78.4420  222.7880 C   0  0  0  0  0  0  0  0  0  0  0  0
  139.9710   79.4340  223.7440 C   0  0  0  0  0  0  0  0  0  0  0  0
  141.0110   80.3430  223.8230 C   0  0  0  0  0  0  0  0  0  0  0  0
  142.0270   80.2450  222.9060 C   0  0  0  0  0  0  0  0  0  0  0  0
  141.9840   79.2540  221.9400 C   0  0  0  0  0  0  0  0  0  0  0  0
  140.9390   78.3510  221.8700 C   0  0  0  0  0  0  0  0  0  0  0  0
  140.9690   77.3090  220.7960 C   0  0  0  0  0  0  0  0  0  0  0  0
  140.1580   74.0060  222.2250 N   0  0  0  0  0  0  0  0  0  0  0  0
  140.6330   72.7600  222.3830 C   0  0  0  0  0  0  0  0  0  0  0  0
  139.9930   71.8450  223.2630 N   0  0  0  0  0  0  0  0  0  0  0  0
  138.8160   71.1130  222.8870 C   0  0  0  0  0  0  0  0  0  0  0  0
  139.0130   69.6150  222.9820 C   0  0  0  0  0  0  0  0  0  0  0  0
  139.5000   69.3490  224.3660 C   0  0  0  0  0  0  0  0  0  0  0  0
  139.2380   68.1300  224.9240 C   0  0  0  0  0  0  0  0  0  0  0  0
  139.6300   67.7580  226.1920 C   0  0  0  0  0  0  0  0  0  0  0  0
  140.3350   68.7020  226.9230 C   0  0  0  0  0  0  0  0  0  0  0  0
  140.6070   69.9460  226.3670 C   0  0  0  0  0  0  0  0  0  0  0  0
  140.2010   70.2820  225.1010 C   0  0  0  0  0  0  0  0  0  0  0  0
  140.5370   71.6340  224.5860 C   0  0  0  0  0  0  0  0  0  0  0  0
  141.7330   72.3850  221.6890 N   0  0  0  0  0  0  0  0  0  0  0  0
  143.2450   72.0880  218.8120 C   0  0  0  0  0  0  0  0  0  0  0  0
  144.3150   72.1040  217.8000 C   0  0  0  0  0  0  0  0  0  0  0  0
  143.4210   74.9000  217.1330 H   0  0  0  0  0  0  0  0  0  0  0  0
  144.8300   76.0320  217.1200 H   0  0  0  0  0  0  0  0  0  0  0  0
  146.8103   72.7235  216.4414 H   0  0  0  0  0  0  0  0  0  0  0  0
  146.8123   74.1382  217.5921 H   0  0  0  0  0  0  0  0  0  0  0  0
  146.0599   72.5098  220.1376 H   0  0  0  0  0  0  0  0  0  0  0  0
  146.5908   73.9810  219.2587 H   0  0  0  0  0  0  0  0  0  0  0  0
  144.6542   74.5947  220.6125 H   0  0  0  0  0  0  0  0  0  0  0  0
  144.1016   74.5720  218.9447 H   0  0  0  0  0  0  0  0  0  0  0  0
  144.0440   72.1034  220.8106 H   0  0  0  0  0  0  0  0  0  0  0  0
  142.3341   75.2152  220.0290 H   0  0  0  0  0  0  0  0  0  0  0  0
  138.2847   76.9788  220.7938 H   0  0  0  0  0  0  0  0  0  0  0  0
  138.2953   75.6159  221.9897 H   0  0  0  0  0  0  0  0  0  0  0  0
  137.8247   78.1279  222.7294 H   0  0  0  0  0  0  0  0  0  0  0  0
  138.7622   76.9684  223.7561 H   0  0  0  0  0  0  0  0  0  0  0  0
  139.1530   79.5058  224.4759 H   0  0  0  0  0  0  0  0  0  0  0  0
  141.0230   81.1224  224.5991 H   0  0  0  0  0  0  0  0  0  0  0  0
  142.8709   80.9498  222.9381 H   0  0  0  0  0  0  0  0  0  0  0  0
  142.8028   79.1831  221.2089 H   0  0  0  0  0  0  0  0  0  0  0  0
  140.5473   77.7071  219.8613 H   0  0  0  0  0  0  0  0  0  0  0  0
  141.9951   76.9835  220.5696 H   0  0  0  0  0  0  0  0  0  0  0  0
  137.9910   71.4038  223.5540 H   0  0  0  0  0  0  0  0  0  0  0  0
  138.5909   71.3558  221.8380 H   0  0  0  0  0  0  0  0  0  0  0  0
  138.0611   69.0928  222.8053 H   0  0  0  0  0  0  0  0  0  0  0  0
  139.7286   69.2551  222.2280 H   0  0  0  0  0  0  0  0  0  0  0  0
  138.6783   67.3983  224.3229 H   0  0  0  0  0  0  0  0  0  0  0  0
  139.3959   66.7646  226.6024 H   0  0  0  0  0  0  0  0  0  0  0  0
  140.6783   68.4665  227.9412 H   0  0  0  0  0  0  0  0  0  0  0  0
  141.1655   70.6844  226.9610 H   0  0  0  0  0  0  0  0  0  0  0  0
  140.1219   72.3903  225.2684 H   0  0  0  0  0  0  0  0  0  0  0  0
  141.6321   71.7199  224.5277 H   0  0  0  0  0  0  0  0  0  0  0  0
  143.0172   71.0377  219.0466 H   0  0  0  0  0  0  0  0  0  0  0  0
  142.4027   72.6380  218.3670 H   0  0  0  0  0  0  0  0  0  0  0  0
  144.4296   71.0676  217.4496 H   0  0  0  0  0  0  0  0  0  0  0  0
  143.9590   72.8587  217.0833 H   0  0  0  0  0  0  0  0  0  0  0  0
  1  2  1  0
  2  3  2  0
  2  4  1  0
  4  5  1  0
  5  6  1  0
  6  7  1  0
  7  8  1  0
  8  9  1  0
  9 10  2  0
 10 11  1  0
 11 12  1  0
 12 13  1  0
 13 14  1  0
 14 15  1  0
 15 16  2  0
 16 17  1  0
 17 18  2  0
 18 19  1  0
 19 20  2  0
 20 21  1  0
 11 22  2  0
 22 23  1  0
 23 24  1  0
 24 25  1  0
 25 26  1  0
 26 27  1  0
 27 28  2  0
 28 29  1  0
 29 30  2  0
 30 31  1  0
 31 32  2  0
 32 33  1  0
 23 34  2  0
  8 35  1  0
 35 36  1  0
 36  5  1  0
 34  9  1  0
 21 12  1  0
 33 24  1  0
 20 15  1  0
 32 27  1  0
  1 37  1  0
  1 38  1  0
  4 39  1  0
  4 40  1  0
  6 41  1  0
  6 42  1  0
  7 43  1  0
  7 44  1  0
  8 45  1  0
 10 46  1  0
 13 47  1  0
 13 48  1  0
 14 49  1  0
 14 50  1  0
 16 51  1  0
 17 52  1  0
 18 53  1  0
 19 54  1  0
 21 55  1  0
 21 56  1  0
 25 57  1  0
 25 58  1  0
 26 59  1  0
 26 60  1  0
 28 61  1  0
 29 62  1  0
 30 63  1  0
 31 64  1  0
 33 65  1  0
 33 66  1  0
 35 67  1  0
 35 68  1  0
 36 69  1  0
 36 70  1  0
M  END
>  <smiles>  (45) 
NC(=O)CN1CCC(c2cc(N3CCc4ccccc4C3)nc(N3CCc4ccccc4C3)n2)CC1

>  <score_type>  (45) 
oracle

>  <origin>  (45) 
autodockgpu

>  <m_score__min__energy>  (45) 
-11.01

>  <m_primary>  (45) 
energy

>  <rmsd>  (45) 
4.081745931852875

>  <m_score__min__rmsd>  (45) 
4.081745931852875

>  <meeko>  (45) 
{"free_energy": -10.38, "intermolecular_energy": -11.87, "internal_energy": -1.43, "cluster_size": 12, "cluster_id": 2, "rank_in_cluster": 5}

>  <energy>  (45) 
-9.93

>  <cluster_rmsd>  (45) 
0.32

>  <cluster>  (45) 
3

$$$$

     RDKit          3D

 70 75  0  0  0  0  0  0  0  0999 V2000
  145.7150   67.6790  219.9710 N   0  0  0  0  0  0  0  0  0  0  0  0
  145.9800   68.6240  218.9320 C   0  0  0  0  0  0  0  0  0  0  0  0
  145.8130   68.2460  217.7620 O   0  0  0  0  0  0  0  0  0  0  0  0
  146.4290   69.9690  219.3450 C   0  0  0  0  0  0  0  0  0  0  0  0
  145.5380   71.0190  218.9160 N   0  0  0  0  0  0  0  0  0  0  0  0
  144.2280   70.4570  218.8260 C   0  0  0  0  0  0  0  0  0  0  0  0
  143.4280   70.8620  220.0470 C   0  0  0  0  0  0  0  0  0  0  0  0
  143.1890   72.3490  219.8500 C   0  0  0  0  0  0  0  0  0  0  0  0
  142.1380   72.8970  220.7200 C   0  0  0  0  0  0  0  0  0  0  0  0
  141.6690   74.2060  220.5690 C   0  0  0  0  0  0  0  0  0  0  0  0
  140.6900   74.7330  221.3720 C   0  0  0  0  0  0  0  0  0  0  0  0
  140.1810   76.0500  221.2640 N   0  0  0  0  0  0  0  0  0  0  0  0
  138.8300   76.4380  221.5990 C   0  0  0  0  0  0  0  0  0  0  0  0
  138.8000   77.4260  222.7480 C   0  0  0  0  0  0  0  0  0  0  0  0
  140.0120   78.2800  222.7590 C   0  0  0  0  0  0  0  0  0  0  0  0
  140.0910   79.2660  223.7190 C   0  0  0  0  0  0  0  0  0  0  0  0
  141.1690   80.1240  223.8290 C   0  0  0  0  0  0  0  0  0  0  0  0
  142.2020   79.9810  222.9370 C   0  0  0  0  0  0  0  0  0  0  0  0
  142.1370   78.9970  221.9650 C   0  0  0  0  0  0  0  0  0  0  0  0
  141.0520   78.1440  221.8660 C   0  0  0  0  0  0  0  0  0  0  0  0
  141.0600   77.1050  220.7880 C   0  0  0  0  0  0  0  0  0  0  0  0
  140.1950   73.9050  222.3310 N   0  0  0  0  0  0  0  0  0  0  0  0
  140.6180   72.6430  222.5080 C   0  0  0  0  0  0  0  0  0  0  0  0
  140.0600   71.8260  223.5290 N   0  0  0  0  0  0  0  0  0  0  0  0
  138.9220   70.9810  223.3000 C   0  0  0  0  0  0  0  0  0  0  0  0
  139.2140   69.5250  223.5950 C   0  0  0  0  0  0  0  0  0  0  0  0
  139.7530   69.4870  224.9860 C   0  0  0  0  0  0  0  0  0  0  0  0
  139.5820   68.3450  225.7170 C   0  0  0  0  0  0  0  0  0  0  0  0
  140.0310   68.1780  227.0090 C   0  0  0  0  0  0  0  0  0  0  0  0
  140.6940   69.2560  227.5770 C   0  0  0  0  0  0  0  0  0  0  0  0
  140.8740   70.4220  226.8440 C   0  0  0  0  0  0  0  0  0  0  0  0
  140.4140   70.5520  225.5580 C   0  0  0  0  0  0  0  0  0  0  0  0
  140.6510   71.8350  224.8490 C   0  0  0  0  0  0  0  0  0  0  0  0
  141.5860   72.1560  221.6970 N   0  0  0  0  0  0  0  0  0  0  0  0
  144.5260   73.0160  220.0250 C   0  0  0  0  0  0  0  0  0  0  0  0
  145.6950   72.2210  219.6140 C   0  0  0  0  0  0  0  0  0  0  0  0
  146.3920   66.9040  220.1730 H   0  0  0  0  0  0  0  0  0  0  0  0
  144.8350   67.7420  220.5530 H   0  0  0  0  0  0  0  0  0  0  0  0
  146.4967   69.9939  220.4426 H   0  0  0  0  0  0  0  0  0  0  0  0
  147.4036   70.1504  218.8683 H   0  0  0  0  0  0  0  0  0  0  0  0
  143.7293   70.8295  217.9191 H   0  0  0  0  0  0  0  0  0  0  0  0
  144.2986   69.3604  218.7771 H   0  0  0  0  0  0  0  0  0  0  0  0
  142.4748   70.3146  220.0897 H   0  0  0  0  0  0  0  0  0  0  0  0
  143.9489   70.6371  220.9894 H   0  0  0  0  0  0  0  0  0  0  0  0
  142.7909   72.5447  218.8434 H   0  0  0  0  0  0  0  0  0  0  0  0
  142.1011   74.8358  219.7774 H   0  0  0  0  0  0  0  0  0  0  0  0
  138.3632   76.9018  220.7175 H   0  0  0  0  0  0  0  0  0  0  0  0
  138.2803   75.5364  221.9071 H   0  0  0  0  0  0  0  0  0  0  0  0
  137.9117   78.0667  222.6460 H   0  0  0  0  0  0  0  0  0  0  0  0
  138.7669   76.8599  223.6906 H   0  0  0  0  0  0  0  0  0  0  0  0
  139.2585   79.3749  224.4297 H   0  0  0  0  0  0  0  0  0  0  0  0
  141.1981   80.8991  224.6090 H   0  0  0  0  0  0  0  0  0  0  0  0
  143.0773   80.6448  222.9939 H   0  0  0  0  0  0  0  0  0  0  0  0
  142.9691   78.8907  221.2534 H   0  0  0  0  0  0  0  0  0  0  0  0
  140.6811   77.5257  219.8449 H   0  0  0  0  0  0  0  0  0  0  0  0
  142.0750   76.7324  220.5858 H   0  0  0  0  0  0  0  0  0  0  0  0
  138.0985   71.3144  223.9487 H   0  0  0  0  0  0  0  0  0  0  0  0
  138.6550   71.0600  222.2358 H   0  0  0  0  0  0  0  0  0  0  0  0
  138.2922   68.9287  223.5259 H   0  0  0  0  0  0  0  0  0  0  0  0
  139.9299   69.1036  222.8739 H   0  0  0  0  0  0  0  0  0  0  0  0
  139.0520   67.5053  225.2437 H   0  0  0  0  0  0  0  0  0  0  0  0
  139.8721   67.2397  227.5607 H   0  0  0  0  0  0  0  0  0  0  0  0
  141.0765   69.1875  228.6061 H   0  0  0  0  0  0  0  0  0  0  0  0
  141.4018   71.2676  227.3091 H   0  0  0  0  0  0  0  0  0  0  0  0
  140.2076   72.6543  225.4340 H   0  0  0  0  0  0  0  0  0  0  0  0
  141.7367   71.9752  224.7410 H   0  0  0  0  0  0  0  0  0  0  0  0
  144.5218   73.9423  219.4317 H   0  0  0  0  0  0  0  0  0  0  0  0
  144.6401   73.1795  221.1068 H   0  0  0  0  0  0  0  0  0  0  0  0
  146.3099   72.8745  218.9777 H   0  0  0  0  0  0  0  0  0  0  0  0
  146.1135   71.8900  220.5759 H   0  0  0  0  0  0  0  0  0  0  0  0
  1  2  1  0
  2  3  2  0
  2  4  1  0
  4  5  1  0
  5  6  1  0
  6  7  1  0
  7  8  1  0
  8  9  1  0
  9 10  2  0
 10 11  1  0
 11 12  1  0
 12 13  1  0
 13 14  1  0
 14 15  1  0
 15 16  2  0
 16 17  1  0
 17 18  2  0
 18 19  1  0
 19 20  2  0
 20 21  1  0
 11 22  2  0
 22 23  1  0
 23 24  1  0
 24 25  1  0
 25 26  1  0
 26 27  1  0
 27 28  2  0
 28 29  1  0
 29 30  2  0
 30 31  1  0
 31 32  2  0
 32 33  1  0
 23 34  2  0
  8 35  1  0
 35 36  1  0
 36  5  1  0
 34  9  1  0
 21 12  1  0
 33 24  1  0
 20 15  1  0
 32 27  1  0
  1 37  1  0
  1 38  1  0
  4 39  1  0
  4 40  1  0
  6 41  1  0
  6 42  1  0
  7 43  1  0
  7 44  1  0
  8 45  1  0
 10 46  1  0
 13 47  1  0
 13 48  1  0
 14 49  1  0
 14 50  1  0
 16 51  1  0
 17 52  1  0
 18 53  1  0
 19 54  1  0
 21 55  1  0
 21 56  1  0
 25 57  1  0
 25 58  1  0
 26 59  1  0
 26 60  1  0
 28 61  1  0
 29 62  1  0
 30 63  1  0
 31 64  1  0
 33 65  1  0
 33 66  1  0
 35 67  1  0
 35 68  1  0
 36 69  1  0
 36 70  1  0
M  END
>  <smiles>  (46) 
NC(=O)CN1CCC(c2cc(N3CCc4ccccc4C3)nc(N3CCc4ccccc4C3)n2)CC1

>  <score_type>  (46) 
oracle

>  <origin>  (46) 
autodockgpu

>  <m_score__min__energy>  (46) 
-11.01

>  <m_primary>  (46) 
energy

>  <rmsd>  (46) 
4.227057192806369

>  <m_score__min__rmsd>  (46) 
4.227057192806369

>  <meeko>  (46) 
{"free_energy": -10.8, "intermolecular_energy": -12.3, "internal_energy": -1.34, "cluster_size": 26, "cluster_id": 1, "rank_in_cluster": 3}

>  <energy>  (46) 
-9.89

>  <cluster_rmsd>  (46) 
0.76

>  <cluster>  (46) 
3

$$$$

     RDKit          3D

 70 75  0  0  0  0  0  0  0  0999 V2000
  146.4540   69.5580  218.2290 N   0  0  0  0  0  0  0  0  0  0  0  0
  145.4650   68.8020  218.9290 C   0  0  0  0  0  0  0  0  0  0  0  0
  145.7290   68.4570  220.0920 O   0  0  0  0  0  0  0  0  0  0  0  0
  144.2140   68.4980  218.2060 C   0  0  0  0  0  0  0  0  0  0  0  0
  143.4150   69.6700  217.9400 N   0  0  0  0  0  0  0  0  0  0  0  0
  142.0590   69.3390  218.2450 C   0  0  0  0  0  0  0  0  0  0  0  0
  141.6970   69.9230  219.5950 C   0  0  0  0  0  0  0  0  0  0  0  0
  141.6490   71.4210  219.3440 C   0  0  0  0  0  0  0  0  0  0  0  0
  140.9750   72.1760  220.4100 C   0  0  0  0  0  0  0  0  0  0  0  0
  140.6560   73.5300  220.2630 C   0  0  0  0  0  0  0  0  0  0  0  0
  140.0280   74.2480  221.2480 C   0  0  0  0  0  0  0  0  0  0  0  0
  139.6840   75.6190  221.1510 N   0  0  0  0  0  0  0  0  0  0  0  0
  138.4440   76.1890  221.6220 C   0  0  0  0  0  0  0  0  0  0  0  0
  138.6760   77.1960  222.7310 C   0  0  0  0  0  0  0  0  0  0  0  0
  139.9810   77.8820  222.5750 C   0  0  0  0  0  0  0  0  0  0  0  0
  140.2980   78.8680  223.4850 C   0  0  0  0  0  0  0  0  0  0  0  0
  141.4840   79.5780  223.4420 C   0  0  0  0  0  0  0  0  0  0  0  0
  142.3790   79.2810  222.4450 C   0  0  0  0  0  0  0  0  0  0  0  0
  142.0740   78.2940  221.5230 C   0  0  0  0  0  0  0  0  0  0  0  0
  140.8840   77.5910  221.5760 C   0  0  0  0  0  0  0  0  0  0  0  0
  140.6320   76.5380  220.5410 C   0  0  0  0  0  0  0  0  0  0  0  0
  139.7290   73.5660  222.3860 N   0  0  0  0  0  0  0  0  0  0  0  0
  140.0180   72.2680  222.5660 C   0  0  0  0  0  0  0  0  0  0  0  0
  139.6780   71.6100  223.7800 N   0  0  0  0  0  0  0  0  0  0  0  0
  138.3970   70.9960  223.9890 C   0  0  0  0  0  0  0  0  0  0  0  0
  138.5090   69.5220  224.3150 C   0  0  0  0  0  0  0  0  0  0  0  0
  139.4440   69.4250  225.4720 C   0  0  0  0  0  0  0  0  0  0  0  0
  139.3170   68.3640  226.3230 C   0  0  0  0  0  0  0  0  0  0  0  0
  140.1150   68.1570  227.4270 C   0  0  0  0  0  0  0  0  0  0  0  0
  141.1020   69.1030  227.6630 C   0  0  0  0  0  0  0  0  0  0  0  0
  141.2410   70.1860  226.8050 C   0  0  0  0  0  0  0  0  0  0  0  0
  140.4270   70.3600  225.7140 C   0  0  0  0  0  0  0  0  0  0  0  0
  140.6480   71.5480  224.8510 C   0  0  0  0  0  0  0  0  0  0  0  0
  140.6380   71.5890  221.5730 N   0  0  0  0  0  0  0  0  0  0  0  0
  143.0700   71.8530  219.1050 C   0  0  0  0  0  0  0  0  0  0  0  0
  143.9430   70.8520  218.4690 C   0  0  0  0  0  0  0  0  0  0  0  0
  147.3120   69.0910  217.8470 H   0  0  0  0  0  0  0  0  0  0  0  0
  146.3420   70.6000  218.0820 H   0  0  0  0  0  0  0  0  0  0  0  0
  144.4702   68.0239  217.2470 H   0  0  0  0  0  0  0  0  0  0  0  0
  143.6175   67.8330  218.8478 H   0  0  0  0  0  0  0  0  0  0  0  0
  141.3956   69.7565  217.4733 H   0  0  0  0  0  0  0  0  0  0  0  0
  141.9417   68.2456  218.2711 H   0  0  0  0  0  0  0  0  0  0  0  0
  140.7184   69.5512  219.9326 H   0  0  0  0  0  0  0  0  0  0  0  0
  142.4139   69.6475  220.3825 H   0  0  0  0  0  0  0  0  0  0  0  0
  141.0267   71.6433  218.4646 H   0  0  0  0  0  0  0  0  0  0  0  0
  140.9185   74.0373  219.3229 H   0  0  0  0  0  0  0  0  0  0  0  0
  137.9414   76.6922  220.7828 H   0  0  0  0  0  0  0  0  0  0  0  0
  137.8223   75.3747  222.0224 H   0  0  0  0  0  0  0  0  0  0  0  0
  137.8721   77.9465  222.7068 H   0  0  0  0  0  0  0  0  0  0  0  0
  138.6800   76.6588  223.6909 H   0  0  0  0  0  0  0  0  0  0  0  0
  139.5752   79.1004  224.2809 H   0  0  0  0  0  0  0  0  0  0  0  0
  141.7036   80.3583  224.1855 H   0  0  0  0  0  0  0  0  0  0  0  0
  143.3333   79.8240  222.3787 H   0  0  0  0  0  0  0  0  0  0  0  0
  142.7974   78.0628  220.7272 H   0  0  0  0  0  0  0  0  0  0  0  0
  140.2040   76.9859  219.6320 H   0  0  0  0  0  0  0  0  0  0  0  0
  141.5596   76.0296  220.2391 H   0  0  0  0  0  0  0  0  0  0  0  0
  137.8935   71.5051  224.8240 H   0  0  0  0  0  0  0  0  0  0  0  0
  137.8240   71.0899  223.0547 H   0  0  0  0  0  0  0  0  0  0  0  0
  137.5236   69.1147  224.5852 H   0  0  0  0  0  0  0  0  0  0  0  0
  138.8755   68.9461  223.4524 H   0  0  0  0  0  0  0  0  0  0  0  0
  138.5271   67.6277  226.1135 H   0  0  0  0  0  0  0  0  0  0  0  0
  139.9768   67.2875  228.0865 H   0  0  0  0  0  0  0  0  0  0  0  0
  141.7731   68.9954  228.5279 H   0  0  0  0  0  0  0  0  0  0  0  0
  142.0282   70.9275  227.0062 H   0  0  0  0  0  0  0  0  0  0  0  0
  140.5623   72.4570  225.4645 H   0  0  0  0  0  0  0  0  0  0  0  0
  141.6509   71.4707  224.4057 H   0  0  0  0  0  0  0  0  0  0  0  0
  143.0487   72.7426  218.4583 H   0  0  0  0  0  0  0  0  0  0  0  0
  143.4995   72.0360  220.1010 H   0  0  0  0  0  0  0  0  0  0  0  0
  144.4551   71.3641  217.6411 H   0  0  0  0  0  0  0  0  0  0  0  0
  144.5512   70.4904  219.3112 H   0  0  0  0  0  0  0  0  0  0  0  0
  1  2  1  0
  2  3  2  0
  2  4  1  0
  4  5  1  0
  5  6  1  0
  6  7  1  0
  7  8  1  0
  8  9  1  0
  9 10  2  0
 10 11  1  0
 11 12  1  0
 12 13  1  0
 13 14  1  0
 14 15  1  0
 15 16  2  0
 16 17  1  0
 17 18  2  0
 18 19  1  0
 19 20  2  0
 20 21  1  0
 11 22  2  0
 22 23  1  0
 23 24  1  0
 24 25  1  0
 25 26  1  0
 26 27  1  0
 27 28  2  0
 28 29  1  0
 29 30  2  0
 30 31  1  0
 31 32  2  0
 32 33  1  0
 23 34  2  0
  8 35  1  0
 35 36  1  0
 36  5  1  0
 34  9  1  0
 21 12  1  0
 33 24  1  0
 20 15  1  0
 32 27  1  0
  1 37  1  0
  1 38  1  0
  4 39  1  0
  4 40  1  0
  6 41  1  0
  6 42  1  0
  7 43  1  0
  7 44  1  0
  8 45  1  0
 10 46  1  0
 13 47  1  0
 13 48  1  0
 14 49  1  0
 14 50  1  0
 16 51  1  0
 17 52  1  0
 18 53  1  0
 19 54  1  0
 21 55  1  0
 21 56  1  0
 25 57  1  0
 25 58  1  0
 26 59  1  0
 26 60  1  0
 28 61  1  0
 29 62  1  0
 30 63  1  0
 31 64  1  0
 33 65  1  0
 33 66  1  0
 35 67  1  0
 35 68  1  0
 36 69  1  0
 36 70  1  0
M  END
>  <smiles>  (47) 
NC(=O)CN1CCC(c2cc(N3CCc4ccccc4C3)nc(N3CCc4ccccc4C3)n2)CC1

>  <score_type>  (47) 
oracle

>  <origin>  (47) 
autodockgpu

>  <m_score__min__energy>  (47) 
-11.01

>  <m_primary>  (47) 
energy

>  <rmsd>  (47) 
4.350627562363888

>  <m_score__min__rmsd>  (47) 
4.350627562363888

>  <meeko>  (47) 
{"free_energy": -9.92, "intermolecular_energy": -11.41, "internal_energy": -1.34, "cluster_size": 26, "cluster_id": 1, "rank_in_cluster": 24}

>  <energy>  (47) 
-9.83

>  <cluster_rmsd>  (47) 
0.58

>  <cluster>  (47) 
3

$$$$

     RDKit          3D

 70 75  0  0  0  0  0  0  0  0999 V2000
  142.5830   78.9980  222.0610 N   0  0  0  0  0  0  0  0  0  0  0  0
  141.3850   79.2800  222.7870 C   0  0  0  0  0  0  0  0  0  0  0  0
  141.4360   79.1990  224.0240 O   0  0  0  0  0  0  0  0  0  0  0  0
  140.1910   79.6440  221.9990 C   0  0  0  0  0  0  0  0  0  0  0  0
  139.3920   78.5030  221.6230 N   0  0  0  0  0  0  0  0  0  0  0  0
  140.0030   77.9150  220.4730 C   0  0  0  0  0  0  0  0  0  0  0  0
  140.7850   76.6890  220.8980 C   0  0  0  0  0  0  0  0  0  0  0  0
  139.7120   75.6850  221.2800 C   0  0  0  0  0  0  0  0  0  0  0  0
  140.2060   74.3050  221.3880 C   0  0  0  0  0  0  0  0  0  0  0  0
  141.0730   73.7590  220.4350 C   0  0  0  0  0  0  0  0  0  0  0  0
  141.5430   72.4740  220.5210 C   0  0  0  0  0  0  0  0  0  0  0  0
  142.4190   71.8720  219.5850 N   0  0  0  0  0  0  0  0  0  0  0  0
  143.7880   72.2760  219.3640 C   0  0  0  0  0  0  0  0  0  0  0  0
  144.7630   71.1700  219.7140 C   0  0  0  0  0  0  0  0  0  0  0  0
  144.1700   69.8320  219.4780 C   0  0  0  0  0  0  0  0  0  0  0  0
  144.9690   68.7300  219.7010 C   0  0  0  0  0  0  0  0  0  0  0  0
  144.5280   67.4320  219.5150 C   0  0  0  0  0  0  0  0  0  0  0  0
  143.2380   67.2430  219.0890 C   0  0  0  0  0  0  0  0  0  0  0  0
  142.4240   68.3390  218.8600 C   0  0  0  0  0  0  0  0  0  0  0  0
  142.8760   69.6330  219.0490 C   0  0  0  0  0  0  0  0  0  0  0  0
  141.9320   70.7630  218.7800 C   0  0  0  0  0  0  0  0  0  0  0  0
  141.1170   71.7520  221.5920 N   0  0  0  0  0  0  0  0  0  0  0  0
  140.2860   72.2400  222.5280 C   0  0  0  0  0  0  0  0  0  0  0  0
  139.8770   71.4350  223.6270 N   0  0  0  0  0  0  0  0  0  0  0  0
  138.7780   70.5160  223.5380 C   0  0  0  0  0  0  0  0  0  0  0  0
  139.1860   69.0930  223.8560 C   0  0  0  0  0  0  0  0  0  0  0  0
  139.8530   69.1450  225.1890 C   0  0  0  0  0  0  0  0  0  0  0  0
  139.8220   68.0270  225.9740 C   0  0  0  0  0  0  0  0  0  0  0  0
  140.3980   67.9410  227.2240 C   0  0  0  0  0  0  0  0  0  0  0  0
  141.0420   69.0790  227.6860 C   0  0  0  0  0  0  0  0  0  0  0  0
  141.0800   70.2220  226.8970 C   0  0  0  0  0  0  0  0  0  0  0  0
  140.4960   70.2700  225.6570 C   0  0  0  0  0  0  0  0  0  0  0  0
  140.5860   71.5340  224.8830 C   0  0  0  0  0  0  0  0  0  0  0  0
  139.8420   73.5130  222.4120 N   0  0  0  0  0  0  0  0  0  0  0  0
  139.0850   76.2020  222.5470 C   0  0  0  0  0  0  0  0  0  0  0  0
  139.0530   77.6670  222.6910 C   0  0  0  0  0  0  0  0  0  0  0  0
  142.9110   78.0100  221.9370 H   0  0  0  0  0  0  0  0  0  0  0  0
  143.1590   79.7760  221.6370 H   0  0  0  0  0  0  0  0  0  0  0  0
  139.5692   80.3243  222.5995 H   0  0  0  0  0  0  0  0  0  0  0  0
  140.5424   80.1186  221.0710 H   0  0  0  0  0  0  0  0  0  0  0  0
  139.2255   77.6239  219.7514 H   0  0  0  0  0  0  0  0  0  0  0  0
  140.6813   78.6417  220.0020 H   0  0  0  0  0  0  0  0  0  0  0  0
  141.3986   76.3091  220.0678 H   0  0  0  0  0  0  0  0  0  0  0  0
  141.4840   76.8965  221.7216 H   0  0  0  0  0  0  0  0  0  0  0  0
  138.9590   75.6059  220.4821 H   0  0  0  0  0  0  0  0  0  0  0  0
  141.3888   74.3833  219.5862 H   0  0  0  0  0  0  0  0  0  0  0  0
  143.9148   72.5405  218.3038 H   0  0  0  0  0  0  0  0  0  0  0  0
  144.0000   73.1379  220.0138 H   0  0  0  0  0  0  0  0  0  0  0  0
  145.6640   71.2770  219.0921 H   0  0  0  0  0  0  0  0  0  0  0  0
  145.0137   71.2543  220.7817 H   0  0  0  0  0  0  0  0  0  0  0  0
  146.0025   68.8903  220.0418 H   0  0  0  0  0  0  0  0  0  0  0  0
  145.1928   66.5761  219.7033 H   0  0  0  0  0  0  0  0  0  0  0  0
  142.8521   66.2253  218.9301 H   0  0  0  0  0  0  0  0  0  0  0  0
  141.3909   68.1769  218.5189 H   0  0  0  0  0  0  0  0  0  0  0  0
  141.9431   71.0281  217.7125 H   0  0  0  0  0  0  0  0  0  0  0  0
  140.8945   70.4986  219.0323 H   0  0  0  0  0  0  0  0  0  0  0  0
  137.9991   70.8273  224.2497 H   0  0  0  0  0  0  0  0  0  0  0  0
  138.4092   70.5347  222.5018 H   0  0  0  0  0  0  0  0  0  0  0  0
  138.3006   68.4415  223.8967 H   0  0  0  0  0  0  0  0  0  0  0  0
  139.8564   68.6842  223.0856 H   0  0  0  0  0  0  0  0  0  0  0  0
  139.3043   67.1384  225.5837 H   0  0  0  0  0  0  0  0  0  0  0  0
  140.3492   67.0193  227.8224 H   0  0  0  0  0  0  0  0  0  0  0  0
  141.5221   69.0767  228.6757 H   0  0  0  0  0  0  0  0  0  0  0  0
  141.5945   71.1162  227.2787 H   0  0  0  0  0  0  0  0  0  0  0  0
  140.1487   72.3496  225.4775 H   0  0  0  0  0  0  0  0  0  0  0  0
  141.6461   71.7332  224.6674 H   0  0  0  0  0  0  0  0  0  0  0  0
  138.0485   75.8358  222.5852 H   0  0  0  0  0  0  0  0  0  0  0  0
  139.7183   75.8335  223.3674 H   0  0  0  0  0  0  0  0  0  0  0  0
  138.0249   77.9304  222.9802 H   0  0  0  0  0  0  0  0  0  0  0  0
  139.8611   77.8568  223.4128 H   0  0  0  0  0  0  0  0  0  0  0  0
  1  2  1  0
  2  3  2  0
  2  4  1  0
  4  5  1  0
  5  6  1  0
  6  7  1  0
  7  8  1  0
  8  9  1  0
  9 10  2  0
 10 11  1  0
 11 12  1  0
 12 13  1  0
 13 14  1  0
 14 15  1  0
 15 16  2  0
 16 17  1  0
 17 18  2  0
 18 19  1  0
 19 20  2  0
 20 21  1  0
 11 22  2  0
 22 23  1  0
 23 24  1  0
 24 25  1  0
 25 26  1  0
 26 27  1  0
 27 28  2  0
 28 29  1  0
 29 30  2  0
 30 31  1  0
 31 32  2  0
 32 33  1  0
 23 34  2  0
  8 35  1  0
 35 36  1  0
 36  5  1  0
 34  9  1  0
 21 12  1  0
 33 24  1  0
 20 15  1  0
 32 27  1  0
  1 37  1  0
  1 38  1  0
  4 39  1  0
  4 40  1  0
  6 41  1  0
  6 42  1  0
  7 43  1  0
  7 44  1  0
  8 45  1  0
 10 46  1  0
 13 47  1  0
 13 48  1  0
 14 49  1  0
 14 50  1  0
 16 51  1  0
 17 52  1  0
 18 53  1  0
 19 54  1  0
 21 55  1  0
 21 56  1  0
 25 57  1  0
 25 58  1  0
 26 59  1  0
 26 60  1  0
 28 61  1  0
 29 62  1  0
 30 63  1  0
 31 64  1  0
 33 65  1  0
 33 66  1  0
 35 67  1  0
 35 68  1  0
 36 69  1  0
 36 70  1  0
M  END
>  <smiles>  (48) 
NC(=O)CN1CCC(c2cc(N3CCc4ccccc4C3)nc(N3CCc4ccccc4C3)n2)CC1

>  <score_type>  (48) 
oracle

>  <origin>  (48) 
autodockgpu

>  <m_score__min__energy>  (48) 
-11.01

>  <m_primary>  (48) 
energy

>  <rmsd>  (48) 
10.234670338919633

>  <m_score__min__rmsd>  (48) 
10.234670338919633

>  <meeko>  (48) 
{"free_energy": -9.93, "intermolecular_energy": -11.42, "internal_energy": -1.47, "cluster_size": 12, "cluster_id": 3, "rank_in_cluster": 7}

>  <energy>  (48) 
-9.82

>  <cluster_rmsd>  (48) 
0.61

>  <cluster>  (48) 
3

$$$$

     RDKit          3D

 70 75  0  0  0  0  0  0  0  0999 V2000
  146.3380   67.0290  219.6820 N   0  0  0  0  0  0  0  0  0  0  0  0
  145.7770   67.8650  218.6680 C   0  0  0  0  0  0  0  0  0  0  0  0
  146.5420   68.2750  217.7810 O   0  0  0  0  0  0  0  0  0  0  0  0
  144.3350   68.1660  218.7660 C   0  0  0  0  0  0  0  0  0  0  0  0
  144.0400   69.5720  218.6310 N   0  0  0  0  0  0  0  0  0  0  0  0
  142.6460   69.6900  218.3440 C   0  0  0  0  0  0  0  0  0  0  0  0
  141.9110   70.0950  219.6060 C   0  0  0  0  0  0  0  0  0  0  0  0
  142.3480   71.5310  219.8380 C   0  0  0  0  0  0  0  0  0  0  0  0
  141.5020   72.2560  220.7970 C   0  0  0  0  0  0  0  0  0  0  0  0
  141.0960   73.5750  220.5680 C   0  0  0  0  0  0  0  0  0  0  0  0
  140.3080   74.2650  221.4530 C   0  0  0  0  0  0  0  0  0  0  0  0
  139.8710   75.6000  221.2710 N   0  0  0  0  0  0  0  0  0  0  0  0
  138.5690   76.0960  221.6510 C   0  0  0  0  0  0  0  0  0  0  0  0
  138.6680   77.1680  222.7190 C   0  0  0  0  0  0  0  0  0  0  0  0
  139.9250   77.9430  222.5920 C   0  0  0  0  0  0  0  0  0  0  0  0
  140.1210   78.9910  223.4660 C   0  0  0  0  0  0  0  0  0  0  0  0
  141.2530   79.7860  223.4460 C   0  0  0  0  0  0  0  0  0  0  0  0
  142.2180   79.5110  222.5100 C   0  0  0  0  0  0  0  0  0  0  0  0
  142.0360   78.4630  221.6240 C   0  0  0  0  0  0  0  0  0  0  0  0
  140.8990   77.6750  221.6550 C   0  0  0  0  0  0  0  0  0  0  0  0
  140.7790   76.5590  220.6630 C   0  0  0  0  0  0  0  0  0  0  0  0
  139.9390   73.5920  222.5750 N   0  0  0  0  0  0  0  0  0  0  0  0
  140.3070   72.3260  222.8310 C   0  0  0  0  0  0  0  0  0  0  0  0
  139.8870   71.6750  224.0240 N   0  0  0  0  0  0  0  0  0  0  0  0
  138.7280   70.8290  224.0700 C   0  0  0  0  0  0  0  0  0  0  0  0
  139.0550   69.4250  224.5320 C   0  0  0  0  0  0  0  0  0  0  0  0
  139.7720   69.5750  225.8310 C   0  0  0  0  0  0  0  0  0  0  0  0
  139.6980   68.5540  226.7360 C   0  0  0  0  0  0  0  0  0  0  0  0
  140.3120   68.5660  227.9690 C   0  0  0  0  0  0  0  0  0  0  0  0
  141.0450   69.7000  228.2840 C   0  0  0  0  0  0  0  0  0  0  0  0
  141.1280   70.7450  227.3730 C   0  0  0  0  0  0  0  0  0  0  0  0
  140.5030   70.6990  226.1530 C   0  0  0  0  0  0  0  0  0  0  0  0
  140.6460   71.8620  225.2410 C   0  0  0  0  0  0  0  0  0  0  0  0
  141.0850   71.6750  221.9360 N   0  0  0  0  0  0  0  0  0  0  0  0
  143.7970   71.4700  220.2370 C   0  0  0  0  0  0  0  0  0  0  0  0
  144.5760   70.3670  219.6490 C   0  0  0  0  0  0  0  0  0  0  0  0
  146.9290   67.4390  220.4450 H   0  0  0  0  0  0  0  0  0  0  0  0
  146.1690   65.9850  219.6830 H   0  0  0  0  0  0  0  0  0  0  0  0
  143.8084   67.6197  217.9696 H   0  0  0  0  0  0  0  0  0  0  0  0
  144.0024   67.8557  219.7675 H   0  0  0  0  0  0  0  0  0  0  0  0
  142.4934   70.4543  217.5678 H   0  0  0  0  0  0  0  0  0  0  0  0
  142.2593   68.7251  217.9841 H   0  0  0  0  0  0  0  0  0  0  0  0
  140.8222   70.0358  219.4609 H   0  0  0  0  0  0  0  0  0  0  0  0
  142.1391   69.4390  220.4590 H   0  0  0  0  0  0  0  0  0  0  0  0
  142.2277   72.1232  218.9189 H   0  0  0  0  0  0  0  0  0  0  0  0
  141.4206   74.0768  219.6445 H   0  0  0  0  0  0  0  0  0  0  0  0
  138.0763   76.5207  220.7639 H   0  0  0  0  0  0  0  0  0  0  0  0
  137.9878   75.2565  222.0601 H   0  0  0  0  0  0  0  0  0  0  0  0
  137.8133   77.8532  222.6187 H   0  0  0  0  0  0  0  0  0  0  0  0
  138.6615   76.6776  223.7036 H   0  0  0  0  0  0  0  0  0  0  0  0
  139.3422   79.2047  224.2129 H   0  0  0  0  0  0  0  0  0  0  0  0
  141.3759   80.6142  224.1594 H   0  0  0  0  0  0  0  0  0  0  0  0
  143.1324   80.1207  222.4639 H   0  0  0  0  0  0  0  0  0  0  0  0
  142.8148   78.2514  220.8766 H   0  0  0  0  0  0  0  0  0  0  0  0
  140.3671   76.9307  219.7131 H   0  0  0  0  0  0  0  0  0  0  0  0
  141.7559   76.1090  220.4324 H   0  0  0  0  0  0  0  0  0  0  0  0
  137.9976   71.2683  224.7653 H   0  0  0  0  0  0  0  0  0  0  0  0
  138.3230   70.7600  223.0496 H   0  0  0  0  0  0  0  0  0  0  0  0
  138.1315   68.8436  224.6703 H   0  0  0  0  0  0  0  0  0  0  0  0
  139.6696   68.8909  223.7924 H   0  0  0  0  0  0  0  0  0  0  0  0
  139.1103   67.6653  226.4623 H   0  0  0  0  0  0  0  0  0  0  0  0
  140.2253   67.7203  228.6671 H   0  0  0  0  0  0  0  0  0  0  0  0
  141.5597   69.7718  229.2535 H   0  0  0  0  0  0  0  0  0  0  0  0
  141.7134   71.6377  227.6383 H   0  0  0  0  0  0  0  0  0  0  0  0
  140.2836   72.7653  225.7535 H   0  0  0  0  0  0  0  0  0  0  0  0
  141.7083   71.9641  224.9742 H   0  0  0  0  0  0  0  0  0  0  0  0
  144.2705   72.4161  219.9358 H   0  0  0  0  0  0  0  0  0  0  0  0
  143.8016   71.2944  221.3229 H   0  0  0  0  0  0  0  0  0  0  0  0
  145.4965   70.8140  219.2455 H   0  0  0  0  0  0  0  0  0  0  0  0
  144.6668   69.6601  220.4869 H   0  0  0  0  0  0  0  0  0  0  0  0
  1  2  1  0
  2  3  2  0
  2  4  1  0
  4  5  1  0
  5  6  1  0
  6  7  1  0
  7  8  1  0
  8  9  1  0
  9 10  2  0
 10 11  1  0
 11 12  1  0
 12 13  1  0
 13 14  1  0
 14 15  1  0
 15 16  2  0
 16 17  1  0
 17 18  2  0
 18 19  1  0
 19 20  2  0
 20 21  1  0
 11 22  2  0
 22 23  1  0
 23 24  1  0
 24 25  1  0
 25 26  1  0
 26 27  1  0
 27 28  2  0
 28 29  1  0
 29 30  2  0
 30 31  1  0
 31 32  2  0
 32 33  1  0
 23 34  2  0
  8 35  1  0
 35 36  1  0
 36  5  1  0
 34  9  1  0
 21 12  1  0
 33 24  1  0
 20 15  1  0
 32 27  1  0
  1 37  1  0
  1 38  1  0
  4 39  1  0
  4 40  1  0
  6 41  1  0
  6 42  1  0
  7 43  1  0
  7 44  1  0
  8 45  1  0
 10 46  1  0
 13 47  1  0
 13 48  1  0
 14 49  1  0
 14 50  1  0
 16 51  1  0
 17 52  1  0
 18 53  1  0
 19 54  1  0
 21 55  1  0
 21 56  1  0
 25 57  1  0
 25 58  1  0
 26 59  1  0
 26 60  1  0
 28 61  1  0
 29 62  1  0
 30 63  1  0
 31 64  1  0
 33 65  1  0
 33 66  1  0
 35 67  1  0
 35 68  1  0
 36 69  1  0
 36 70  1  0
M  END
>  <smiles>  (49) 
NC(=O)CN1CCC(c2cc(N3CCc4ccccc4C3)nc(N3CCc4ccccc4C3)n2)CC1

>  <score_type>  (49) 
oracle

>  <origin>  (49) 
autodockgpu

>  <m_score__min__energy>  (49) 
-11.01

>  <m_primary>  (49) 
energy

>  <rmsd>  (49) 
4.343326213716884

>  <m_score__min__rmsd>  (49) 
4.343326213716884

>  <meeko>  (49) 
{"free_energy": -10.44, "intermolecular_energy": -11.94, "internal_energy": -1.34, "cluster_size": 26, "cluster_id": 1, "rank_in_cluster": 6}

>  <energy>  (49) 
-9.63

>  <cluster_rmsd>  (49) 
0.7

>  <cluster>  (49) 
3

$$$$

     RDKit          3D

 70 75  0  0  0  0  0  0  0  0999 V2000
  143.7960   67.9740  219.4680 N   0  0  0  0  0  0  0  0  0  0  0  0
  145.0680   68.5900  219.2640 C   0  0  0  0  0  0  0  0  0  0  0  0
  145.9560   68.3540  220.0990 O   0  0  0  0  0  0  0  0  0  0  0  0
  145.2150   69.4540  218.0760 C   0  0  0  0  0  0  0  0  0  0  0  0
  145.0780   70.8590  218.3780 N   0  0  0  0  0  0  0  0  0  0  0  0
  143.8620   71.3070  217.7770 C   0  0  0  0  0  0  0  0  0  0  0  0
  142.7890   71.4110  218.8420 C   0  0  0  0  0  0  0  0  0  0  0  0
  143.2260   72.5960  219.6850 C   0  0  0  0  0  0  0  0  0  0  0  0
  142.1690   73.1150  220.5650 C   0  0  0  0  0  0  0  0  0  0  0  0
  141.7010   74.4290  220.4550 C   0  0  0  0  0  0  0  0  0  0  0  0
  140.7160   74.9280  221.2690 C   0  0  0  0  0  0  0  0  0  0  0  0
  140.2070   76.2480  221.2010 N   0  0  0  0  0  0  0  0  0  0  0  0
  138.8680   76.6320  221.5820 C   0  0  0  0  0  0  0  0  0  0  0  0
  138.8720   77.5970  222.7500 C   0  0  0  0  0  0  0  0  0  0  0  0
  140.0860   78.4480  222.7440 C   0  0  0  0  0  0  0  0  0  0  0  0
  140.1940   79.4140  223.7220 C   0  0  0  0  0  0  0  0  0  0  0  0
  141.2780   80.2680  223.8190 C   0  0  0  0  0  0  0  0  0  0  0  0
  142.2850   80.1410  222.8950 C   0  0  0  0  0  0  0  0  0  0  0  0
  142.1900   79.1770  221.9070 C   0  0  0  0  0  0  0  0  0  0  0  0
  141.1010   78.3280  221.8200 C   0  0  0  0  0  0  0  0  0  0  0  0
  141.0760   77.3110  220.7210 C   0  0  0  0  0  0  0  0  0  0  0  0
  140.2140   74.0680  222.1950 N   0  0  0  0  0  0  0  0  0  0  0  0
  140.6360   72.8010  222.3320 C   0  0  0  0  0  0  0  0  0  0  0  0
  140.0700   71.9500  223.3210 N   0  0  0  0  0  0  0  0  0  0  0  0
  138.9110   71.1420  223.0670 C   0  0  0  0  0  0  0  0  0  0  0  0
  139.1740   69.6680  223.2910 C   0  0  0  0  0  0  0  0  0  0  0  0
  139.7260   69.5530  224.6720 C   0  0  0  0  0  0  0  0  0  0  0  0
  139.5370   68.3840  225.3520 C   0  0  0  0  0  0  0  0  0  0  0  0
  139.9950   68.1480  226.6300 C   0  0  0  0  0  0  0  0  0  0  0  0
  140.6880   69.1830  227.2390 C   0  0  0  0  0  0  0  0  0  0  0  0
  140.8860   70.3780  226.5580 C   0  0  0  0  0  0  0  0  0  0  0  0
  140.4160   70.5770  225.2850 C   0  0  0  0  0  0  0  0  0  0  0  0
  140.6740   71.8860  224.6330 C   0  0  0  0  0  0  0  0  0  0  0  0
  141.6100   72.3420  221.5130 N   0  0  0  0  0  0  0  0  0  0  0  0
  144.4620   72.1560  220.4220 C   0  0  0  0  0  0  0  0  0  0  0  0
  145.3100   71.1790  219.7190 C   0  0  0  0  0  0  0  0  0  0  0  0
  143.1390   68.3360  220.2010 H   0  0  0  0  0  0  0  0  0  0  0  0
  143.4920   67.1450  218.8870 H   0  0  0  0  0  0  0  0  0  0  0  0
  146.2110   69.2848  217.6410 H   0  0  0  0  0  0  0  0  0  0  0  0
  144.4095   69.1887  217.3754 H   0  0  0  0  0  0  0  0  0  0  0  0
  144.0206   72.2935  217.3169 H   0  0  0  0  0  0  0  0  0  0  0  0
  143.5467   70.5917  217.0031 H   0  0  0  0  0  0  0  0  0  0  0  0
  141.8039   71.5952  218.3886 H   0  0  0  0  0  0  0  0  0  0  0  0
  142.6837   70.4874  219.4301 H   0  0  0  0  0  0  0  0  0  0  0  0
  143.4490   73.4615  219.0438 H   0  0  0  0  0  0  0  0  0  0  0  0
  142.1386   75.0854  219.6884 H   0  0  0  0  0  0  0  0  0  0  0  0
  138.3775   77.1138  220.7234 H   0  0  0  0  0  0  0  0  0  0  0  0
  138.3257   75.7254  221.8885 H   0  0  0  0  0  0  0  0  0  0  0  0
  137.9828   78.2414  222.6850 H   0  0  0  0  0  0  0  0  0  0  0  0
  138.8632   77.0128  223.6820 H   0  0  0  0  0  0  0  0  0  0  0  0
  139.3820   79.5099  224.4579 H   0  0  0  0  0  0  0  0  0  0  0  0
  141.3314   81.0268  224.6136 H   0  0  0  0  0  0  0  0  0  0  0  0
  143.1630   80.8022  222.9397 H   0  0  0  0  0  0  0  0  0  0  0  0
  143.0021   79.0831  221.1710 H   0  0  0  0  0  0  0  0  0  0  0  0
  140.6719   77.7515  219.7976 H   0  0  0  0  0  0  0  0  0  0  0  0
  142.0838   76.9403  220.4824 H   0  0  0  0  0  0  0  0  0  0  0  0
  138.1024   71.4628  223.7403 H   0  0  0  0  0  0  0  0  0  0  0  0
  138.6337   71.2763  222.0110 H   0  0  0  0  0  0  0  0  0  0  0  0
  138.2386   69.0956  223.2046 H   0  0  0  0  0  0  0  0  0  0  0  0
  139.8733   69.2658  222.5432 H   0  0  0  0  0  0  0  0  0  0  0  0
  138.9834   67.5787  224.8470 H   0  0  0  0  0  0  0  0  0  0  0  0
  139.8201   67.1892  227.1401 H   0  0  0  0  0  0  0  0  0  0  0  0
  141.0803   69.0584  228.2591 H   0  0  0  0  0  0  0  0  0  0  0  0
  141.4369   71.1898  227.0555 H   0  0  0  0  0  0  0  0  0  0  0  0
  140.2544   72.6868  225.2596 H   0  0  0  0  0  0  0  0  0  0  0  0
  141.7613   72.0081  224.5199 H   0  0  0  0  0  0  0  0  0  0  0  0
  145.0714   73.0493  220.6236 H   0  0  0  0  0  0  0  0  0  0  0  0
  144.1051   71.6459  221.3289 H   0  0  0  0  0  0  0  0  0  0  0  0
  146.3402   71.5605  219.7760 H   0  0  0  0  0  0  0  0  0  0  0  0
  145.0755   70.2374  220.2370 H   0  0  0  0  0  0  0  0  0  0  0  0
  1  2  1  0
  2  3  2  0
  2  4  1  0
  4  5  1  0
  5  6  1  0
  6  7  1  0
  7  8  1  0
  8  9  1  0
  9 10  2  0
 10 11  1  0
 11 12  1  0
 12 13  1  0
 13 14  1  0
 14 15  1  0
 15 16  2  0
 16 17  1  0
 17 18  2  0
 18 19  1  0
 19 20  2  0
 20 21  1  0
 11 22  2  0
 22 23  1  0
 23 24  1  0
 24 25  1  0
 25 26  1  0
 26 27  1  0
 27 28  2  0
 28 29  1  0
 29 30  2  0
 30 31  1  0
 31 32  2  0
 32 33  1  0
 23 34  2  0
  8 35  1  0
 35 36  1  0
 36  5  1  0
 34  9  1  0
 21 12  1  0
 33 24  1  0
 20 15  1  0
 32 27  1  0
  1 37  1  0
  1 38  1  0
  4 39  1  0
  4 40  1  0
  6 41  1  0
  6 42  1  0
  7 43  1  0
  7 44  1  0
  8 45  1  0
 10 46  1  0
 13 47  1  0
 13 48  1  0
 14 49  1  0
 14 50  1  0
 16 51  1  0
 17 52  1  0
 18 53  1  0
 19 54  1  0
 21 55  1  0
 21 56  1  0
 25 57  1  0
 25 58  1  0
 26 59  1  0
 26 60  1  0
 28 61  1  0
 29 62  1  0
 30 63  1  0
 31 64  1  0
 33 65  1  0
 33 66  1  0
 35 67  1  0
 35 68  1  0
 36 69  1  0
 36 70  1  0
M  END
>  <smiles>  (50) 
NC(=O)CN1CCC(c2cc(N3CCc4ccccc4C3)nc(N3CCc4ccccc4C3)n2)CC1

>  <score_type>  (50) 
oracle

>  <origin>  (50) 
autodockgpu

>  <m_score__min__energy>  (50) 
-11.01

>  <m_primary>  (50) 
energy

>  <rmsd>  (50) 
3.9487003703969514

>  <m_score__min__rmsd>  (50) 
3.9487003703969514

>  <meeko>  (50) 
{"free_energy": -10.42, "intermolecular_energy": -11.91, "internal_energy": -1.41, "cluster_size": 26, "cluster_id": 1, "rank_in_cluster": 8}

>  <energy>  (50) 
-9.46

>  <cluster_rmsd>  (50) 
1.2

>  <cluster>  (50) 
3

$$$$
