
     RDKit          3D

 51 54  0  0  0  0  0  0  0  0999 V2000
  140.3330   71.8500  221.0600 O   0  0  0  0  0  0  0  0  0  0  0  0
  139.9470   72.3170  222.1810 C   0  0  0  0  0  0  0  0  0  0  0  0
  139.5370   73.6750  222.2510 N   0  0  0  0  0  0  0  0  0  0  0  0
  139.5650   74.5020  221.0450 C   0  0  0  0  0  0  0  0  0  0  0  0
  140.7210   75.4020  221.0280 C   0  0  0  0  0  0  0  0  0  0  0  0
  141.5690   75.2910  221.9560 O   0  0  0  0  0  0  0  0  0  0  0  0
  140.9710   76.3950  220.0500 N   0  0  0  0  0  0  0  0  0  0  0  0
  141.6480   76.0120  218.8280 C   0  0  0  0  0  0  0  0  0  0  0  0
  142.8560   76.8530  218.5510 C   0  0  0  0  0  0  0  0  0  0  0  0
  142.4800   78.3030  218.6020 C   0  0  0  0  0  0  0  0  0  0  0  0
  141.0250   78.5080  218.9350 C   0  0  0  0  0  0  0  0  0  0  0  0
  140.5910   77.7850  220.1840 C   0  0  2  0  0  0  0  0  0  0  0  0
  141.1520   78.4580  221.3660 C   0  0  0  0  0  0  0  0  0  0  0  0
  141.1070   78.0000  222.6450 C   0  0  0  0  0  0  0  0  0  0  0  0
  141.6670   78.6780  223.7190 C   0  0  0  0  0  0  0  0  0  0  0  0
  142.3010   79.8790  223.4820 C   0  0  0  0  0  0  0  0  0  0  0  0
  142.3740   80.3930  222.1850 C   0  0  0  0  0  0  0  0  0  0  0  0
  141.8050   79.6800  221.1620 C   0  0  0  0  0  0  0  0  0  0  0  0
  139.9310   71.4620  223.3620 C   0  0  0  0  0  0  0  0  0  0  0  0
  139.4560   70.1710  223.2610 C   0  0  0  0  0  0  0  0  0  0  0  0
  139.4070   69.2990  224.3300 C   0  0  0  0  0  0  0  0  0  0  0  0
  139.8640   69.7780  225.5410 C   0  0  0  0  0  0  0  0  0  0  0  0
  139.8300   68.9430  226.6230 C   0  0  0  0  0  0  0  0  0  0  0  0
  140.2860   69.4200  227.8290 C   0  0  0  0  0  0  0  0  0  0  0  0
  140.2590   68.5970  228.9200 F   0  0  0  0  0  0  0  0  0  0  0  0
  140.7720   70.6990  227.9870 C   0  0  0  0  0  0  0  0  0  0  0  0
  140.7930   71.5180  226.8810 C   0  0  0  0  0  0  0  0  0  0  0  0
  140.3460   71.0820  225.6510 C   0  0  0  0  0  0  0  0  0  0  0  0
  140.3720   71.8970  224.5650 N   0  0  0  0  0  0  0  0  0  0  0  0
  139.2210   74.0460  223.1790 H   0  0  0  0  0  0  0  0  0  0  0  0
  139.6125   73.8450  220.1640 H   0  0  0  0  0  0  0  0  0  0  0  0
  138.6531   75.1171  221.0315 H   0  0  0  0  0  0  0  0  0  0  0  0
  141.9623   74.9614  218.9138 H   0  0  0  0  0  0  0  0  0  0  0  0
  140.9427   76.1579  217.9966 H   0  0  0  0  0  0  0  0  0  0  0  0
  143.6269   76.6476  219.3083 H   0  0  0  0  0  0  0  0  0  0  0  0
  143.2485   76.6117  217.5521 H   0  0  0  0  0  0  0  0  0  0  0  0
  143.0914   78.7996  219.3698 H   0  0  0  0  0  0  0  0  0  0  0  0
  142.6592   78.7311  217.6047 H   0  0  0  0  0  0  0  0  0  0  0  0
  140.8474   79.5845  219.0753 H   0  0  0  0  0  0  0  0  0  0  0  0
  140.4389   78.0962  218.1002 H   0  0  0  0  0  0  0  0  0  0  0  0
  139.5001   77.8123  220.3222 H   0  0  0  0  0  0  0  0  0  0  0  0
  140.6008   77.0429  222.8389 H   0  0  0  0  0  0  0  0  0  0  0  0
  141.6062   78.2659  224.7371 H   0  0  0  0  0  0  0  0  0  0  0  0
  142.7513   80.4349  224.3176 H   0  0  0  0  0  0  0  0  0  0  0  0
  142.8781   81.3508  221.9887 H   0  0  0  0  0  0  0  0  0  0  0  0
  141.8636   80.0836  220.1404 H   0  0  0  0  0  0  0  0  0  0  0  0
  139.0991   69.8194  222.2817 H   0  0  0  0  0  0  0  0  0  0  0  0
  139.0230   68.2739  224.2221 H   0  0  0  0  0  0  0  0  0  0  0  0
  139.4476   67.9157  226.5309 H   0  0  0  0  0  0  0  0  0  0  0  0
  141.1313   71.0540  228.9642 H   0  0  0  0  0  0  0  0  0  0  0  0
  141.1753   72.5446  226.9803 H   0  0  0  0  0  0  0  0  0  0  0  0
  1  2  2  0
  2  3  1  0
  3  4  1  0
  4  5  1  0
  5  6  2  0
  5  7  1  0
  7  8  1  0
  8  9  1  0
  9 10  1  0
 10 11  1  0
 11 12  1  0
 12 13  1  0
 13 14  2  0
 14 15  1  0
 15 16  2  0
 16 17  1  0
 17 18  2  0
  2 19  1  0
 19 20  2  0
 20 21  1  0
 21 22  2  0
 22 23  1  0
 23 24  2  0
 24 25  1  0
 24 26  1  0
 26 27  2  0
 27 28  1  0
 28 29  2  0
 12  7  1  0
 18 13  1  0
 29 19  1  0
 28 22  1  0
  3 30  1  0
  4 31  1  0
  4 32  1  0
  8 33  1  0
  8 34  1  0
  9 35  1  0
  9 36  1  0
 10 37  1  0
 10 38  1  0
 11 39  1  0
 11 40  1  0
 12 41  1  1
 14 42  1  0
 15 43  1  0
 16 44  1  0
 17 45  1  0
 18 46  1  0
 20 47  1  0
 21 48  1  0
 23 49  1  0
 26 50  1  0
 27 51  1  0
M  END
>  <smiles>  (1) 
O=C(NCC(=O)N1CCCCC1c1ccccc1)c1ccc2cc(F)ccc2n1

>  <score_type>  (1) 
oracle

>  <origin>  (1) 
autodockgpu

>  <m_score__min__energy>  (1) 
-9.2699999999999996

>  <m_primary>  (1) 
energy

>  <rmsd>  (1) 
1.7432555035498498

>  <m_score__min__rmsd>  (1) 
1.7432555035498498

>  <meeko>  (1) 
{"free_energy": -8.93, "intermolecular_energy": -10.42, "internal_energy": -1.25, "cluster_size": 27, "cluster_id": 2, "rank_in_cluster": 3}

>  <energy>  (1) 
-9.27

>  <cluster_rmsd>  (1) 
0.0

>  <cluster>  (1) 
1

$$$$

     RDKit          3D

 51 54  0  0  0  0  0  0  0  0999 V2000
  140.1180   71.8180  221.0750 O   0  0  0  0  0  0  0  0  0  0  0  0
  139.9360   72.3230  222.2290 C   0  0  0  0  0  0  0  0  0  0  0  0
  139.7270   73.7250  222.3370 N   0  0  0  0  0  0  0  0  0  0  0  0
  139.7260   74.5510  221.1300 C   0  0  0  0  0  0  0  0  0  0  0  0
  140.5310   75.7640  221.3000 C   0  0  0  0  0  0  0  0  0  0  0  0
  141.0810   75.9550  222.4180 O   0  0  0  0  0  0  0  0  0  0  0  0
  140.7470   76.7470  220.3040 N   0  0  0  0  0  0  0  0  0  0  0  0
  141.4360   76.3660  219.0880 C   0  0  0  0  0  0  0  0  0  0  0  0
  142.6150   77.2430  218.7950 C   0  0  0  0  0  0  0  0  0  0  0  0
  142.1910   78.6800  218.8220 C   0  0  0  0  0  0  0  0  0  0  0  0
  140.7300   78.8420  219.1540 C   0  0  0  0  0  0  0  0  0  0  0  0
  140.3210   78.1260  220.4150 C   0  0  2  0  0  0  0  0  0  0  0  0
  140.8610   78.8370  221.5850 C   0  0  0  0  0  0  0  0  0  0  0  0
  142.1750   78.9990  221.8880 C   0  0  0  0  0  0  0  0  0  0  0  0
  142.6220   79.6920  223.0040 C   0  0  0  0  0  0  0  0  0  0  0  0
  141.6880   80.2460  223.8530 C   0  0  0  0  0  0  0  0  0  0  0  0
  140.3240   80.1070  223.5870 C   0  0  0  0  0  0  0  0  0  0  0  0
  139.9400   79.4130  222.4700 C   0  0  0  0  0  0  0  0  0  0  0  0
  139.9410   71.4680  223.4100 C   0  0  0  0  0  0  0  0  0  0  0  0
  139.4360   70.1880  223.3260 C   0  0  0  0  0  0  0  0  0  0  0  0
  139.4040   69.3170  224.3970 C   0  0  0  0  0  0  0  0  0  0  0  0
  139.9130   69.7850  225.5910 C   0  0  0  0  0  0  0  0  0  0  0  0
  139.8980   68.9500  226.6740 C   0  0  0  0  0  0  0  0  0  0  0  0
  140.4050   69.4170  227.8640 C   0  0  0  0  0  0  0  0  0  0  0  0
  140.3970   68.5950  228.9550 F   0  0  0  0  0  0  0  0  0  0  0  0
  140.9230   70.6860  228.0050 C   0  0  0  0  0  0  0  0  0  0  0  0
  140.9240   71.5050  226.8980 C   0  0  0  0  0  0  0  0  0  0  0  0
  140.4260   71.0790  225.6840 C   0  0  0  0  0  0  0  0  0  0  0  0
  140.4320   71.8930  224.5980 N   0  0  0  0  0  0  0  0  0  0  0  0
  139.5770   74.1270  223.2930 H   0  0  0  0  0  0  0  0  0  0  0  0
  140.1385   73.9638  220.2963 H   0  0  0  0  0  0  0  0  0  0  0  0
  138.6890   74.8548  220.9244 H   0  0  0  0  0  0  0  0  0  0  0  0
  141.7859   75.3283  219.1917 H   0  0  0  0  0  0  0  0  0  0  0  0
  140.7257   76.4733  218.2549 H   0  0  0  0  0  0  0  0  0  0  0  0
  143.3930   77.0764  219.5546 H   0  0  0  0  0  0  0  0  0  0  0  0
  143.0142   76.9983  217.7996 H   0  0  0  0  0  0  0  0  0  0  0  0
  142.7864   79.2097  219.5802 H   0  0  0  0  0  0  0  0  0  0  0  0
  142.3547   79.0968  217.8173 H   0  0  0  0  0  0  0  0  0  0  0  0
  140.5169   79.9142  219.2768 H   0  0  0  0  0  0  0  0  0  0  0  0
  140.1573   78.3969  218.3270 H   0  0  0  0  0  0  0  0  0  0  0  0
  139.2298   78.1193  220.5538 H   0  0  0  0  0  0  0  0  0  0  0  0
  142.9238   78.5579  221.2137 H   0  0  0  0  0  0  0  0  0  0  0  0
  143.6980   79.7970  223.2067 H   0  0  0  0  0  0  0  0  0  0  0  0
  142.0184   80.8000  224.7440 H   0  0  0  0  0  0  0  0  0  0  0  0
  139.5733   80.5458  224.2607 H   0  0  0  0  0  0  0  0  0  0  0  0
  138.8659   79.3036  222.2595 H   0  0  0  0  0  0  0  0  0  0  0  0
  139.0395   69.8440  222.3593 H   0  0  0  0  0  0  0  0  0  0  0  0
  138.9933   68.3009  224.3030 H   0  0  0  0  0  0  0  0  0  0  0  0
  139.4909   67.9311  226.5953 H   0  0  0  0  0  0  0  0  0  0  0  0
  141.3223   71.0331  228.9694 H   0  0  0  0  0  0  0  0  0  0  0  0
  141.3316   72.5231  226.9837 H   0  0  0  0  0  0  0  0  0  0  0  0
  1  2  2  0
  2  3  1  0
  3  4  1  0
  4  5  1  0
  5  6  2  0
  5  7  1  0
  7  8  1  0
  8  9  1  0
  9 10  1  0
 10 11  1  0
 11 12  1  0
 12 13  1  0
 13 14  2  0
 14 15  1  0
 15 16  2  0
 16 17  1  0
 17 18  2  0
  2 19  1  0
 19 20  2  0
 20 21  1  0
 21 22  2  0
 22 23  1  0
 23 24  2  0
 24 25  1  0
 24 26  1  0
 26 27  2  0
 27 28  1  0
 28 29  2  0
 12  7  1  0
 18 13  1  0
 29 19  1  0
 28 22  1  0
  3 30  1  0
  4 31  1  0
  4 32  1  0
  8 33  1  0
  8 34  1  0
  9 35  1  0
  9 36  1  0
 10 37  1  0
 10 38  1  0
 11 39  1  0
 11 40  1  0
 12 41  1  1
 14 42  1  0
 15 43  1  0
 16 44  1  0
 17 45  1  0
 18 46  1  0
 20 47  1  0
 21 48  1  0
 23 49  1  0
 26 50  1  0
 27 51  1  0
M  END
>  <smiles>  (2) 
O=C(NCC(=O)N1CCCCC1c1ccccc1)c1ccc2cc(F)ccc2n1

>  <score_type>  (2) 
oracle

>  <origin>  (2) 
autodockgpu

>  <m_score__min__energy>  (2) 
-9.2699999999999996

>  <m_primary>  (2) 
energy

>  <rmsd>  (2) 
1.8587312822464068

>  <m_score__min__rmsd>  (2) 
1.8587312822464068

>  <meeko>  (2) 
{"free_energy": -8.68, "intermolecular_energy": -10.17, "internal_energy": -1.63, "cluster_size": 27, "cluster_id": 2, "rank_in_cluster": 14}

>  <energy>  (2) 
-9.24

>  <cluster_rmsd>  (2) 
0.29

>  <cluster>  (2) 
1

$$$$

     RDKit          3D

 51 54  0  0  0  0  0  0  0  0999 V2000
  140.9200   71.8360  221.2210 O   0  0  0  0  0  0  0  0  0  0  0  0
  140.2950   72.2970  222.2300 C   0  0  0  0  0  0  0  0  0  0  0  0
  139.7400   73.6030  222.1530 N   0  0  0  0  0  0  0  0  0  0  0  0
  139.8970   74.3830  220.9260 C   0  0  0  0  0  0  0  0  0  0  0  0
  140.4980   75.6940  221.1870 C   0  0  0  0  0  0  0  0  0  0  0  0
  140.8350   75.9630  222.3720 O   0  0  0  0  0  0  0  0  0  0  0  0
  140.7370   76.6930  220.2120 N   0  0  0  0  0  0  0  0  0  0  0  0
  141.4300   76.3250  218.9940 C   0  0  0  0  0  0  0  0  0  0  0  0
  142.6240   77.1890  218.7270 C   0  0  0  0  0  0  0  0  0  0  0  0
  142.2200   78.6320  218.7780 C   0  0  0  0  0  0  0  0  0  0  0  0
  140.7590   78.8090  219.1010 C   0  0  0  0  0  0  0  0  0  0  0  0
  140.3300   78.0750  220.3450 C   0  0  2  0  0  0  0  0  0  0  0  0
  140.8690   78.7570  221.5330 C   0  0  0  0  0  0  0  0  0  0  0  0
  142.1790   79.0210  221.7780 C   0  0  0  0  0  0  0  0  0  0  0  0
  142.6260   79.6800  222.9150 C   0  0  0  0  0  0  0  0  0  0  0  0
  141.6960   80.0870  223.8480 C   0  0  0  0  0  0  0  0  0  0  0  0
  140.3370   79.8370  223.6440 C   0  0  0  0  0  0  0  0  0  0  0  0
  139.9530   79.1850  222.5020 C   0  0  0  0  0  0  0  0  0  0  0  0
  140.1580   71.4900  223.4370 C   0  0  0  0  0  0  0  0  0  0  0  0
  139.4750   70.2930  223.3810 C   0  0  0  0  0  0  0  0  0  0  0  0
  139.3000   69.4710  224.4760 C   0  0  0  0  0  0  0  0  0  0  0  0
  139.8510   69.9010  225.6660 C   0  0  0  0  0  0  0  0  0  0  0  0
  139.6980   69.1130  226.7730 C   0  0  0  0  0  0  0  0  0  0  0  0
  140.2470   69.5410  227.9580 C   0  0  0  0  0  0  0  0  0  0  0  0
  140.1030   68.7640  229.0740 F   0  0  0  0  0  0  0  0  0  0  0  0
  140.9400   70.7260  228.0720 C   0  0  0  0  0  0  0  0  0  0  0  0
  141.0780   71.4990  226.9420 C   0  0  0  0  0  0  0  0  0  0  0  0
  140.5440   71.1100  225.7310 C   0  0  0  0  0  0  0  0  0  0  0  0
  140.6850   71.8780  224.6210 N   0  0  0  0  0  0  0  0  0  0  0  0
  139.2280   73.9700  222.9910 H   0  0  0  0  0  0  0  0  0  0  0  0
  140.5435   73.8270  220.2310 H   0  0  0  0  0  0  0  0  0  0  0  0
  138.8985   74.5448  220.4939 H   0  0  0  0  0  0  0  0  0  0  0  0
  141.7633   75.2803  219.0803 H   0  0  0  0  0  0  0  0  0  0  0  0
  140.7280   76.4592  218.1578 H   0  0  0  0  0  0  0  0  0  0  0  0
  143.3932   76.9967  219.4894 H   0  0  0  0  0  0  0  0  0  0  0  0
  143.0282   76.9570  217.7306 H   0  0  0  0  0  0  0  0  0  0  0  0
  142.8165   79.1386  219.5510 H   0  0  0  0  0  0  0  0  0  0  0  0
  142.3980   79.0652  217.7827 H   0  0  0  0  0  0  0  0  0  0  0  0
  140.5603   79.8816  219.2425 H   0  0  0  0  0  0  0  0  0  0  0  0
  140.1866   78.3884  218.2611 H   0  0  0  0  0  0  0  0  0  0  0  0
  139.2377   78.0806  220.4745 H   0  0  0  0  0  0  0  0  0  0  0  0
  142.9240   78.6957  221.0370 H   0  0  0  0  0  0  0  0  0  0  0  0
  143.6980   79.8732  223.0682 H   0  0  0  0  0  0  0  0  0  0  0  0
  142.0258   80.6110  224.7572 H   0  0  0  0  0  0  0  0  0  0  0  0
  139.5901   80.1572  224.3854 H   0  0  0  0  0  0  0  0  0  0  0  0
  138.8827   78.9899  222.3397 H   0  0  0  0  0  0  0  0  0  0  0  0
  139.0491   69.9781  222.4169 H   0  0  0  0  0  0  0  0  0  0  0  0
  138.7494   68.5215  224.4038 H   0  0  0  0  0  0  0  0  0  0  0  0
  139.1497   68.1611  226.7165 H   0  0  0  0  0  0  0  0  0  0  0  0
  141.3686   71.0436  229.0340 H   0  0  0  0  0  0  0  0  0  0  0  0
  141.6273   72.4499  227.0059 H   0  0  0  0  0  0  0  0  0  0  0  0
  1  2  2  0
  2  3  1  0
  3  4  1  0
  4  5  1  0
  5  6  2  0
  5  7  1  0
  7  8  1  0
  8  9  1  0
  9 10  1  0
 10 11  1  0
 11 12  1  0
 12 13  1  0
 13 14  2  0
 14 15  1  0
 15 16  2  0
 16 17  1  0
 17 18  2  0
  2 19  1  0
 19 20  2  0
 20 21  1  0
 21 22  2  0
 22 23  1  0
 23 24  2  0
 24 25  1  0
 24 26  1  0
 26 27  2  0
 27 28  1  0
 28 29  2  0
 12  7  1  0
 18 13  1  0
 29 19  1  0
 28 22  1  0
  3 30  1  0
  4 31  1  0
  4 32  1  0
  8 33  1  0
  8 34  1  0
  9 35  1  0
  9 36  1  0
 10 37  1  0
 10 38  1  0
 11 39  1  0
 11 40  1  0
 12 41  1  1
 14 42  1  0
 15 43  1  0
 16 44  1  0
 17 45  1  0
 18 46  1  0
 20 47  1  0
 21 48  1  0
 23 49  1  0
 26 50  1  0
 27 51  1  0
M  END
>  <smiles>  (3) 
O=C(NCC(=O)N1CCCCC1c1ccccc1)c1ccc2cc(F)ccc2n1

>  <score_type>  (3) 
oracle

>  <origin>  (3) 
autodockgpu

>  <m_score__min__energy>  (3) 
-9.2699999999999996

>  <m_primary>  (3) 
energy

>  <rmsd>  (3) 
1.8914392492444978

>  <m_score__min__rmsd>  (3) 
1.8914392492444978

>  <meeko>  (3) 
{"free_energy": -8.88, "intermolecular_energy": -10.37, "internal_energy": -1.41, "cluster_size": 27, "cluster_id": 2, "rank_in_cluster": 5}

>  <energy>  (3) 
-8.99

>  <cluster_rmsd>  (3) 
0.0

>  <cluster>  (3) 
2

$$$$

     RDKit          3D

 51 54  0  0  0  0  0  0  0  0999 V2000
  136.1170   77.4090  223.0650 O   0  0  0  0  0  0  0  0  0  0  0  0
  136.3850   76.1990  223.3580 C   0  0  0  0  0  0  0  0  0  0  0  0
  137.5690   75.6140  222.8350 N   0  0  0  0  0  0  0  0  0  0  0  0
  138.4510   76.4090  221.9790 C   0  0  0  0  0  0  0  0  0  0  0  0
  139.6940   75.6980  221.6690 C   0  0  0  0  0  0  0  0  0  0  0  0
  139.9330   74.6270  222.2910 O   0  0  0  0  0  0  0  0  0  0  0  0
  140.6600   76.1160  220.7220 N   0  0  0  0  0  0  0  0  0  0  0  0
  141.4000   75.1070  219.9920 C   0  0  0  0  0  0  0  0  0  0  0  0
  142.8830   75.2900  220.0980 C   0  0  0  0  0  0  0  0  0  0  0  0
  143.2430   76.6950  219.7170 C   0  0  0  0  0  0  0  0  0  0  0  0
  142.0340   77.5220  219.3640 C   0  0  0  0  0  0  0  0  0  0  0  0
  140.9640   77.4990  220.4240 C   0  0  2  0  0  0  0  0  0  0  0  0
  141.4010   78.2900  221.5850 C   0  0  0  0  0  0  0  0  0  0  0  0
  141.3780   77.8870  222.8830 C   0  0  0  0  0  0  0  0  0  0  0  0
  141.8160   78.6780  223.9360 C   0  0  0  0  0  0  0  0  0  0  0  0
  142.2990   79.9380  223.6570 C   0  0  0  0  0  0  0  0  0  0  0  0
  142.3420   80.4000  222.3390 C   0  0  0  0  0  0  0  0  0  0  0  0
  141.8980   79.5760  221.3390 C   0  0  0  0  0  0  0  0  0  0  0  0
  135.4830   75.4390  224.2160 C   0  0  0  0  0  0  0  0  0  0  0  0
  135.4710   74.0620  224.1400 C   0  0  0  0  0  0  0  0  0  0  0  0
  134.6490   73.2700  224.9160 C   0  0  0  0  0  0  0  0  0  0  0  0
  133.8130   73.9240  225.7980 C   0  0  0  0  0  0  0  0  0  0  0  0
  132.9840   73.1720  226.5840 C   0  0  0  0  0  0  0  0  0  0  0  0
  132.1520   73.8240  227.4630 C   0  0  0  0  0  0  0  0  0  0  0  0
  131.3170   73.0860  228.2550 F   0  0  0  0  0  0  0  0  0  0  0  0
  132.1220   75.1960  227.5810 C   0  0  0  0  0  0  0  0  0  0  0  0
  132.9680   75.9270  226.7780 C   0  0  0  0  0  0  0  0  0  0  0  0
  133.8200   75.3160  225.8810 C   0  0  0  0  0  0  0  0  0  0  0  0
  134.6510   76.0450  225.0930 N   0  0  0  0  0  0  0  0  0  0  0  0
  137.7780   74.6180  223.0840 H   0  0  0  0  0  0  0  0  0  0  0  0
  137.9261   76.6349  221.0391 H   0  0  0  0  0  0  0  0  0  0  0  0
  138.7104   77.3318  222.5186 H   0  0  0  0  0  0  0  0  0  0  0  0
  141.1376   74.1176  220.3947 H   0  0  0  0  0  0  0  0  0  0  0  0
  141.1284   75.1982  218.9300 H   0  0  0  0  0  0  0  0  0  0  0  0
  143.2029   75.0975  221.1327 H   0  0  0  0  0  0  0  0  0  0  0  0
  143.3882   74.5860  219.4204 H   0  0  0  0  0  0  0  0  0  0  0  0
  143.7603   77.1692  220.5640 H   0  0  0  0  0  0  0  0  0  0  0  0
  143.8877   76.6465  218.8270 H   0  0  0  0  0  0  0  0  0  0  0  0
  142.3552   78.5635  219.2151 H   0  0  0  0  0  0  0  0  0  0  0  0
  141.5978   77.0874  218.4524 H   0  0  0  0  0  0  0  0  0  0  0  0
  140.0306   77.9706  220.0829 H   0  0  0  0  0  0  0  0  0  0  0  0
  140.9924   76.8822  223.1105 H   0  0  0  0  0  0  0  0  0  0  0  0
  141.7784   78.3071  224.9709 H   0  0  0  0  0  0  0  0  0  0  0  0
  142.6522   80.5828  224.4752 H   0  0  0  0  0  0  0  0  0  0  0  0
  142.7247   81.4053  222.1091 H   0  0  0  0  0  0  0  0  0  0  0  0
  141.9332   79.9389  220.3012 H   0  0  0  0  0  0  0  0  0  0  0  0
  136.1492   73.5712  223.4265 H   0  0  0  0  0  0  0  0  0  0  0  0
  134.6597   72.1730  224.8355 H   0  0  0  0  0  0  0  0  0  0  0  0
  132.9830   72.0742  226.5147 H   0  0  0  0  0  0  0  0  0  0  0  0
  131.4449   75.6908  228.2928 H   0  0  0  0  0  0  0  0  0  0  0  0
  132.9647   77.0244  226.8532 H   0  0  0  0  0  0  0  0  0  0  0  0
  1  2  2  0
  2  3  1  0
  3  4  1  0
  4  5  1  0
  5  6  2  0
  5  7  1  0
  7  8  1  0
  8  9  1  0
  9 10  1  0
 10 11  1  0
 11 12  1  0
 12 13  1  0
 13 14  2  0
 14 15  1  0
 15 16  2  0
 16 17  1  0
 17 18  2  0
  2 19  1  0
 19 20  2  0
 20 21  1  0
 21 22  2  0
 22 23  1  0
 23 24  2  0
 24 25  1  0
 24 26  1  0
 26 27  2  0
 27 28  1  0
 28 29  2  0
 12  7  1  0
 18 13  1  0
 29 19  1  0
 28 22  1  0
  3 30  1  0
  4 31  1  0
  4 32  1  0
  8 33  1  0
  8 34  1  0
  9 35  1  0
  9 36  1  0
 10 37  1  0
 10 38  1  0
 11 39  1  0
 11 40  1  0
 12 41  1  6
 14 42  1  0
 15 43  1  0
 16 44  1  0
 17 45  1  0
 18 46  1  0
 20 47  1  0
 21 48  1  0
 23 49  1  0
 26 50  1  0
 27 51  1  0
M  END
>  <smiles>  (4) 
O=C(NCC(=O)N1CCCCC1c1ccccc1)c1ccc2cc(F)ccc2n1

>  <score_type>  (4) 
oracle

>  <origin>  (4) 
autodockgpu

>  <m_score__min__energy>  (4) 
-9.2699999999999996

>  <m_primary>  (4) 
energy

>  <rmsd>  (4) 
5.898470419760421

>  <m_score__min__rmsd>  (4) 
5.898470419760421

>  <meeko>  (4) 
{"free_energy": -8.2, "intermolecular_energy": -9.69, "internal_energy": -1.7, "cluster_size": 7, "cluster_id": 4, "rank_in_cluster": 1}

>  <energy>  (4) 
-8.94

>  <cluster_rmsd>  (4) 
0.31

>  <cluster>  (4) 
2

$$$$

     RDKit          3D

 51 54  0  0  0  0  0  0  0  0999 V2000
  140.1440   71.8160  221.0930 O   0  0  0  0  0  0  0  0  0  0  0  0
  139.9460   72.3260  222.2430 C   0  0  0  0  0  0  0  0  0  0  0  0
  139.7320   73.7270  222.3420 N   0  0  0  0  0  0  0  0  0  0  0  0
  139.7440   74.5480  221.1320 C   0  0  0  0  0  0  0  0  0  0  0  0
  140.4970   75.7900  221.3230 C   0  0  0  0  0  0  0  0  0  0  0  0
  140.9820   76.0160  222.4650 O   0  0  0  0  0  0  0  0  0  0  0  0
  140.7280   76.7680  220.3260 N   0  0  0  0  0  0  0  0  0  0  0  0
  141.4160   76.3750  219.1130 C   0  0  0  0  0  0  0  0  0  0  0  0
  142.6070   77.2360  218.8210 C   0  0  0  0  0  0  0  0  0  0  0  0
  142.2000   78.6790  218.8430 C   0  0  0  0  0  0  0  0  0  0  0  0
  140.7410   78.8590  219.1700 C   0  0  0  0  0  0  0  0  0  0  0  0
  140.3190   78.1530  220.4320 C   0  0  2  0  0  0  0  0  0  0  0  0
  140.8630   78.8600  221.6010 C   0  0  0  0  0  0  0  0  0  0  0  0
  142.1780   78.9940  221.9160 C   0  0  0  0  0  0  0  0  0  0  0  0
  142.6300   79.6850  223.0310 C   0  0  0  0  0  0  0  0  0  0  0  0
  141.7020   80.2680  223.8660 C   0  0  0  0  0  0  0  0  0  0  0  0
  140.3370   80.1590  223.5870 C   0  0  0  0  0  0  0  0  0  0  0  0
  139.9480   79.4650  222.4720 C   0  0  0  0  0  0  0  0  0  0  0  0
  139.9390   71.4760  223.4270 C   0  0  0  0  0  0  0  0  0  0  0  0
  139.4220   70.2000  223.3470 C   0  0  0  0  0  0  0  0  0  0  0  0
  139.3780   69.3340  224.4220 C   0  0  0  0  0  0  0  0  0  0  0  0
  139.8870   69.8030  225.6150 C   0  0  0  0  0  0  0  0  0  0  0  0
  139.8610   68.9720  226.7020 C   0  0  0  0  0  0  0  0  0  0  0  0
  140.3690   69.4390  227.8910 C   0  0  0  0  0  0  0  0  0  0  0  0
  140.3500   68.6220  228.9860 F   0  0  0  0  0  0  0  0  0  0  0  0
  140.8990   70.7030  228.0280 C   0  0  0  0  0  0  0  0  0  0  0  0
  140.9110   71.5170  226.9180 C   0  0  0  0  0  0  0  0  0  0  0  0
  140.4130   71.0910  225.7040 C   0  0  0  0  0  0  0  0  0  0  0  0
  140.4310   71.9010  224.6150 N   0  0  0  0  0  0  0  0  0  0  0  0
  139.5690   74.1330  223.2950 H   0  0  0  0  0  0  0  0  0  0  0  0
  140.2070   73.9730  220.3165 H   0  0  0  0  0  0  0  0  0  0  0  0
  138.7044   74.8131  220.8891 H   0  0  0  0  0  0  0  0  0  0  0  0
  141.7524   75.3332  219.2206 H   0  0  0  0  0  0  0  0  0  0  0  0
  140.7096   76.4892  218.2776 H   0  0  0  0  0  0  0  0  0  0  0  0
  143.3807   77.0619  219.5833 H   0  0  0  0  0  0  0  0  0  0  0  0
  143.0064   76.9835  217.8277 H   0  0  0  0  0  0  0  0  0  0  0  0
  142.7994   79.2036  219.6016 H   0  0  0  0  0  0  0  0  0  0  0  0
  142.3718   79.0913  217.8378 H   0  0  0  0  0  0  0  0  0  0  0  0
  140.5402   79.9341  219.2881 H   0  0  0  0  0  0  0  0  0  0  0  0
  140.1660   78.4170  218.3430 H   0  0  0  0  0  0  0  0  0  0  0  0
  139.2274   78.1612  220.5678 H   0  0  0  0  0  0  0  0  0  0  0  0
  142.9229   78.5305  221.2525 H   0  0  0  0  0  0  0  0  0  0  0  0
  143.7062   79.7656  223.2438 H   0  0  0  0  0  0  0  0  0  0  0  0
  142.0368   80.8214  224.7557 H   0  0  0  0  0  0  0  0  0  0  0  0
  139.5902   80.6211  224.2493 H   0  0  0  0  0  0  0  0  0  0  0  0
  138.8737   79.3793  222.2517 H   0  0  0  0  0  0  0  0  0  0  0  0
  139.0256   69.8554  222.3805 H   0  0  0  0  0  0  0  0  0  0  0  0
  138.9582   68.3213  224.3313 H   0  0  0  0  0  0  0  0  0  0  0  0
  139.4444   67.9567  226.6263 H   0  0  0  0  0  0  0  0  0  0  0  0
  141.2992   71.0503  228.9920 H   0  0  0  0  0  0  0  0  0  0  0  0
  141.3277   72.5316  227.0010 H   0  0  0  0  0  0  0  0  0  0  0  0
  1  2  2  0
  2  3  1  0
  3  4  1  0
  4  5  1  0
  5  6  2  0
  5  7  1  0
  7  8  1  0
  8  9  1  0
  9 10  1  0
 10 11  1  0
 11 12  1  0
 12 13  1  0
 13 14  2  0
 14 15  1  0
 15 16  2  0
 16 17  1  0
 17 18  2  0
  2 19  1  0
 19 20  2  0
 20 21  1  0
 21 22  2  0
 22 23  1  0
 23 24  2  0
 24 25  1  0
 24 26  1  0
 26 27  2  0
 27 28  1  0
 28 29  2  0
 12  7  1  0
 18 13  1  0
 29 19  1  0
 28 22  1  0
  3 30  1  0
  4 31  1  0
  4 32  1  0
  8 33  1  0
  8 34  1  0
  9 35  1  0
  9 36  1  0
 10 37  1  0
 10 38  1  0
 11 39  1  0
 11 40  1  0
 12 41  1  1
 14 42  1  0
 15 43  1  0
 16 44  1  0
 17 45  1  0
 18 46  1  0
 20 47  1  0
 21 48  1  0
 23 49  1  0
 26 50  1  0
 27 51  1  0
M  END
>  <smiles>  (5) 
O=C(NCC(=O)N1CCCCC1c1ccccc1)c1ccc2cc(F)ccc2n1

>  <score_type>  (5) 
oracle

>  <origin>  (5) 
autodockgpu

>  <m_score__min__energy>  (5) 
-9.2699999999999996

>  <m_primary>  (5) 
energy

>  <rmsd>  (5) 
1.8688660465014837

>  <m_score__min__rmsd>  (5) 
1.8688660465014837

>  <meeko>  (5) 
{"free_energy": -8.69, "intermolecular_energy": -10.18, "internal_energy": -1.64, "cluster_size": 27, "cluster_id": 2, "rank_in_cluster": 13}

>  <energy>  (5) 
-8.93

>  <cluster_rmsd>  (5) 
0.55

>  <cluster>  (5) 
2

$$$$

     RDKit          3D

 51 54  0  0  0  0  0  0  0  0999 V2000
  136.1930   77.4190  223.0950 O   0  0  0  0  0  0  0  0  0  0  0  0
  136.4500   76.2030  223.3720 C   0  0  0  0  0  0  0  0  0  0  0  0
  137.6370   75.6190  222.8520 N   0  0  0  0  0  0  0  0  0  0  0  0
  138.5310   76.4210  222.0160 C   0  0  0  0  0  0  0  0  0  0  0  0
  139.7370   75.6780  221.6400 C   0  0  0  0  0  0  0  0  0  0  0  0
  139.9400   74.5640  222.1950 O   0  0  0  0  0  0  0  0  0  0  0  0
  140.7010   76.1080  220.6970 N   0  0  0  0  0  0  0  0  0  0  0  0
  141.4650   75.1100  219.9780 C   0  0  0  0  0  0  0  0  0  0  0  0
  142.9440   75.3210  220.0940 C   0  0  0  0  0  0  0  0  0  0  0  0
  143.2800   76.7310  219.7080 C   0  0  0  0  0  0  0  0  0  0  0  0
  142.0590   77.5330  219.3410 C   0  0  0  0  0  0  0  0  0  0  0  0
  140.9820   77.4960  220.3940 C   0  0  2  0  0  0  0  0  0  0  0  0
  141.3950   78.3000  221.5540 C   0  0  0  0  0  0  0  0  0  0  0  0
  141.3840   77.8990  222.8530 C   0  0  0  0  0  0  0  0  0  0  0  0
  141.7990   78.7040  223.9050 C   0  0  0  0  0  0  0  0  0  0  0  0
  142.2450   79.9770  223.6240 C   0  0  0  0  0  0  0  0  0  0  0  0
  142.2750   80.4380  222.3050 C   0  0  0  0  0  0  0  0  0  0  0  0
  141.8550   79.6000  221.3060 C   0  0  0  0  0  0  0  0  0  0  0  0
  135.5370   75.4350  224.2100 C   0  0  0  0  0  0  0  0  0  0  0  0
  135.4820   74.0640  224.0780 C   0  0  0  0  0  0  0  0  0  0  0  0
  134.6450   73.2650  224.8320 C   0  0  0  0  0  0  0  0  0  0  0  0
  133.8400   73.9080  225.7510 C   0  0  0  0  0  0  0  0  0  0  0  0
  132.9970   73.1490  226.5160 C   0  0  0  0  0  0  0  0  0  0  0  0
  132.1960   73.7890  227.4320 C   0  0  0  0  0  0  0  0  0  0  0  0
  131.3480   73.0450  228.2040 F   0  0  0  0  0  0  0  0  0  0  0  0
  132.2100   75.1550  227.6060 C   0  0  0  0  0  0  0  0  0  0  0  0
  133.0680   75.8930  226.8220 C   0  0  0  0  0  0  0  0  0  0  0  0
  133.8900   75.2950  225.8910 C   0  0  0  0  0  0  0  0  0  0  0  0
  134.7330   76.0300  225.1220 N   0  0  0  0  0  0  0  0  0  0  0  0
  137.8370   74.6180  223.0880 H   0  0  0  0  0  0  0  0  0  0  0  0
  137.9947   76.7155  221.1018 H   0  0  0  0  0  0  0  0  0  0  0  0
  138.8400   77.3038  222.5950 H   0  0  0  0  0  0  0  0  0  0  0  0
  141.2180   74.1178  220.3837 H   0  0  0  0  0  0  0  0  0  0  0  0
  141.1998   75.1912  218.9135 H   0  0  0  0  0  0  0  0  0  0  0  0
  143.2599   75.1399  221.1320 H   0  0  0  0  0  0  0  0  0  0  0  0
  143.4675   74.6229  219.4242 H   0  0  0  0  0  0  0  0  0  0  0  0
  143.7814   77.2195  220.5565 H   0  0  0  0  0  0  0  0  0  0  0  0
  143.9323   76.6898  218.8232 H   0  0  0  0  0  0  0  0  0  0  0  0
  142.3618   78.5794  219.1881 H   0  0  0  0  0  0  0  0  0  0  0  0
  141.6377   77.0854  218.4288 H   0  0  0  0  0  0  0  0  0  0  0  0
  140.0431   77.9495  220.0436 H   0  0  0  0  0  0  0  0  0  0  0  0
  141.0277   76.8839  223.0823 H   0  0  0  0  0  0  0  0  0  0  0  0
  141.7724   78.3337  224.9404 H   0  0  0  0  0  0  0  0  0  0  0  0
  142.5789   80.6332  224.4413 H   0  0  0  0  0  0  0  0  0  0  0  0
  142.6288   81.4535  222.0736 H   0  0  0  0  0  0  0  0  0  0  0  0
  141.8799   79.9622  220.2676 H   0  0  0  0  0  0  0  0  0  0  0  0
  136.1365   73.5830  223.3362 H   0  0  0  0  0  0  0  0  0  0  0  0
  134.6210   72.1724  224.7067 H   0  0  0  0  0  0  0  0  0  0  0  0
  132.9610   72.0556  226.4012 H   0  0  0  0  0  0  0  0  0  0  0  0
  131.5574   75.6403  228.3467 H   0  0  0  0  0  0  0  0  0  0  0  0
  133.0983   76.9861  226.9414 H   0  0  0  0  0  0  0  0  0  0  0  0
  1  2  2  0
  2  3  1  0
  3  4  1  0
  4  5  1  0
  5  6  2  0
  5  7  1  0
  7  8  1  0
  8  9  1  0
  9 10  1  0
 10 11  1  0
 11 12  1  0
 12 13  1  0
 13 14  2  0
 14 15  1  0
 15 16  2  0
 16 17  1  0
 17 18  2  0
  2 19  1  0
 19 20  2  0
 20 21  1  0
 21 22  2  0
 22 23  1  0
 23 24  2  0
 24 25  1  0
 24 26  1  0
 26 27  2  0
 27 28  1  0
 28 29  2  0
 12  7  1  0
 18 13  1  0
 29 19  1  0
 28 22  1  0
  3 30  1  0
  4 31  1  0
  4 32  1  0
  8 33  1  0
  8 34  1  0
  9 35  1  0
  9 36  1  0
 10 37  1  0
 10 38  1  0
 11 39  1  0
 11 40  1  0
 12 41  1  6
 14 42  1  0
 15 43  1  0
 16 44  1  0
 17 45  1  0
 18 46  1  0
 20 47  1  0
 21 48  1  0
 23 49  1  0
 26 50  1  0
 27 51  1  0
M  END
>  <smiles>  (6) 
O=C(NCC(=O)N1CCCCC1c1ccccc1)c1ccc2cc(F)ccc2n1

>  <score_type>  (6) 
oracle

>  <origin>  (6) 
autodockgpu

>  <m_score__min__energy>  (6) 
-9.2699999999999996

>  <m_primary>  (6) 
energy

>  <rmsd>  (6) 
5.871648923106062

>  <m_score__min__rmsd>  (6) 
5.871648923106062

>  <meeko>  (6) 
{"free_energy": -8.2, "intermolecular_energy": -9.69, "internal_energy": -1.71, "cluster_size": 7, "cluster_id": 4, "rank_in_cluster": 2}

>  <energy>  (6) 
-8.9

>  <cluster_rmsd>  (6) 
0.33

>  <cluster>  (6) 
2

$$$$

     RDKit          3D

 51 54  0  0  0  0  0  0  0  0999 V2000
  141.1440   71.7080  221.3990 O   0  0  0  0  0  0  0  0  0  0  0  0
  140.5280   72.2340  222.3820 C   0  0  0  0  0  0  0  0  0  0  0  0
  140.0940   73.5830  222.2750 N   0  0  0  0  0  0  0  0  0  0  0  0
  140.3620   74.3330  221.0490 C   0  0  0  0  0  0  0  0  0  0  0  0
  140.2070   75.7770  221.2490 C   0  0  0  0  0  0  0  0  0  0  0  0
  139.7490   76.1730  222.3550 O   0  0  0  0  0  0  0  0  0  0  0  0
  140.5300   76.7740  220.2960 N   0  0  0  0  0  0  0  0  0  0  0  0
  141.1780   76.3740  219.0640 C   0  0  0  0  0  0  0  0  0  0  0  0
  142.4460   77.1310  218.8080 C   0  0  0  0  0  0  0  0  0  0  0  0
  142.1780   78.6030  218.8980 C   0  0  0  0  0  0  0  0  0  0  0  0
  140.7420   78.9050  219.2380 C   0  0  0  0  0  0  0  0  0  0  0  0
  140.2540   78.1840  220.4680 C   0  0  2  0  0  0  0  0  0  0  0  0
  140.8620   78.7820  221.6660 C   0  0  0  0  0  0  0  0  0  0  0  0
  142.1920   78.9510  221.8910 C   0  0  0  0  0  0  0  0  0  0  0  0
  142.7040   79.5350  223.0410 C   0  0  0  0  0  0  0  0  0  0  0  0
  141.8240   79.9650  224.0100 C   0  0  0  0  0  0  0  0  0  0  0  0
  140.4470   79.8120  223.8280 C   0  0  0  0  0  0  0  0  0  0  0  0
  139.9970   79.2310  222.6720 C   0  0  0  0  0  0  0  0  0  0  0  0
  140.2770   71.4540  223.5880 C   0  0  0  0  0  0  0  0  0  0  0  0
  139.6090   70.2510  223.4950 C   0  0  0  0  0  0  0  0  0  0  0  0
  139.3310   69.4540  224.5880 C   0  0  0  0  0  0  0  0  0  0  0  0
  139.7610   69.9170  225.8150 C   0  0  0  0  0  0  0  0  0  0  0  0
  139.5040   69.1540  226.9210 C   0  0  0  0  0  0  0  0  0  0  0  0
  139.9320   69.6150  228.1440 C   0  0  0  0  0  0  0  0  0  0  0  0
  139.6830   68.8640  229.2580 F   0  0  0  0  0  0  0  0  0  0  0  0
  140.6040   70.8070  228.2960 C   0  0  0  0  0  0  0  0  0  0  0  0
  140.8480   71.5550  227.1650 C   0  0  0  0  0  0  0  0  0  0  0  0
  140.4380   71.1320  225.9180 C   0  0  0  0  0  0  0  0  0  0  0  0
  140.6830   71.8750  224.8090 N   0  0  0  0  0  0  0  0  0  0  0  0
  139.5880   74.0030  223.0910 H   0  0  0  0  0  0  0  0  0  0  0  0
  141.3925   74.1272  220.7238 H   0  0  0  0  0  0  0  0  0  0  0  0
  139.6357   74.0135  220.2872 H   0  0  0  0  0  0  0  0  0  0  0  0
  141.4137   75.3011  219.1221 H   0  0  0  0  0  0  0  0  0  0  0  0
  140.4863   76.5931  218.2372 H   0  0  0  0  0  0  0  0  0  0  0  0
  143.1989   76.8491  219.5588 H   0  0  0  0  0  0  0  0  0  0  0  0
  142.8206   76.8880  217.8027 H   0  0  0  0  0  0  0  0  0  0  0  0
  142.8237   79.0327  219.6780 H   0  0  0  0  0  0  0  0  0  0  0  0
  142.3893   79.0434  217.9124 H   0  0  0  0  0  0  0  0  0  0  0  0
  140.6438   79.9876  219.4064 H   0  0  0  0  0  0  0  0  0  0  0  0
  140.1284   78.5583  218.3934 H   0  0  0  0  0  0  0  0  0  0  0  0
  139.1681   78.2885  220.6089 H   0  0  0  0  0  0  0  0  0  0  0  0
  142.8989   78.6070  221.1217 H   0  0  0  0  0  0  0  0  0  0  0  0
  143.7894   79.6521  223.1761 H   0  0  0  0  0  0  0  0  0  0  0  0
  142.2068   80.4304  224.9302 H   0  0  0  0  0  0  0  0  0  0  0  0
  139.7384   80.1514  224.5979 H   0  0  0  0  0  0  0  0  0  0  0  0
  138.9129   79.1123  222.5280 H   0  0  0  0  0  0  0  0  0  0  0  0
  139.2817   69.9097  222.5018 H   0  0  0  0  0  0  0  0  0  0  0  0
  138.7944   68.4992  224.4859 H   0  0  0  0  0  0  0  0  0  0  0  0
  138.9690   68.1968  226.8344 H   0  0  0  0  0  0  0  0  0  0  0  0
  140.9350   71.1506  229.2872 H   0  0  0  0  0  0  0  0  0  0  0  0
  141.3823   72.5119  227.2588 H   0  0  0  0  0  0  0  0  0  0  0  0
  1  2  2  0
  2  3  1  0
  3  4  1  0
  4  5  1  0
  5  6  2  0
  5  7  1  0
  7  8  1  0
  8  9  1  0
  9 10  1  0
 10 11  1  0
 11 12  1  0
 12 13  1  0
 13 14  2  0
 14 15  1  0
 15 16  2  0
 16 17  1  0
 17 18  2  0
  2 19  1  0
 19 20  2  0
 20 21  1  0
 21 22  2  0
 22 23  1  0
 23 24  2  0
 24 25  1  0
 24 26  1  0
 26 27  2  0
 27 28  1  0
 28 29  2  0
 12  7  1  0
 18 13  1  0
 29 19  1  0
 28 22  1  0
  3 30  1  0
  4 31  1  0
  4 32  1  0
  8 33  1  0
  8 34  1  0
  9 35  1  0
  9 36  1  0
 10 37  1  0
 10 38  1  0
 11 39  1  0
 11 40  1  0
 12 41  1  1
 14 42  1  0
 15 43  1  0
 16 44  1  0
 17 45  1  0
 18 46  1  0
 20 47  1  0
 21 48  1  0
 23 49  1  0
 26 50  1  0
 27 51  1  0
M  END
>  <smiles>  (7) 
O=C(NCC(=O)N1CCCCC1c1ccccc1)c1ccc2cc(F)ccc2n1

>  <score_type>  (7) 
oracle

>  <origin>  (7) 
autodockgpu

>  <m_score__min__energy>  (7) 
-9.2699999999999996

>  <m_primary>  (7) 
energy

>  <rmsd>  (7) 
2.00047897888193

>  <m_score__min__rmsd>  (7) 
2.00047897888193

>  <meeko>  (7) 
{"free_energy": -8.65, "intermolecular_energy": -10.14, "internal_energy": -1.69, "cluster_size": 27, "cluster_id": 2, "rank_in_cluster": 20}

>  <energy>  (7) 
-8.88

>  <cluster_rmsd>  (7) 
0.38

>  <cluster>  (7) 
2

$$$$

     RDKit          3D

 51 54  0  0  0  0  0  0  0  0999 V2000
  140.1540   71.3380  221.1430 O   0  0  0  0  0  0  0  0  0  0  0  0
  139.9550   71.9020  222.2670 C   0  0  0  0  0  0  0  0  0  0  0  0
  139.7400   73.3060  222.2990 N   0  0  0  0  0  0  0  0  0  0  0  0
  139.7510   74.0680  221.0500 C   0  0  0  0  0  0  0  0  0  0  0  0
  140.5680   75.2800  221.1580 C   0  0  0  0  0  0  0  0  0  0  0  0
  140.6080   75.8660  222.2740 O   0  0  0  0  0  0  0  0  0  0  0  0
  141.3240   75.8520  220.1070 N   0  0  0  0  0  0  0  0  0  0  0  0
  140.6240   76.3950  218.9620 C   0  0  0  0  0  0  0  0  0  0  0  0
  141.1120   75.8270  217.6650 C   0  0  0  0  0  0  0  0  0  0  0  0
  142.6020   75.9720  217.5840 C   0  0  0  0  0  0  0  0  0  0  0  0
  143.1850   76.6140  218.8160 C   0  0  0  0  0  0  0  0  0  0  0  0
  142.7690   75.9370  220.0960 C   0  0  2  0  0  0  0  0  0  0  0  0
  143.4550   74.6410  220.2150 C   0  0  0  0  0  0  0  0  0  0  0  0
  142.8790   73.4150  220.1040 C   0  0  0  0  0  0  0  0  0  0  0  0
  143.5840   72.2260  220.2160 C   0  0  0  0  0  0  0  0  0  0  0  0
  144.9410   72.2840  220.4540 C   0  0  0  0  0  0  0  0  0  0  0  0
  145.5810   73.5190  220.5780 C   0  0  0  0  0  0  0  0  0  0  0  0
  144.8350   74.6620  220.4570 C   0  0  0  0  0  0  0  0  0  0  0  0
  139.9490   71.1100  223.4910 C   0  0  0  0  0  0  0  0  0  0  0  0
  139.3970   69.8460  223.4820 C   0  0  0  0  0  0  0  0  0  0  0  0
  139.3510   69.0340  224.5970 C   0  0  0  0  0  0  0  0  0  0  0  0
  139.8950   69.5460  225.7580 C   0  0  0  0  0  0  0  0  0  0  0  0
  139.8670   68.7690  226.8840 C   0  0  0  0  0  0  0  0  0  0  0  0
  140.4090   69.2790  228.0400 C   0  0  0  0  0  0  0  0  0  0  0  0
  140.3900   68.5150  229.1730 F   0  0  0  0  0  0  0  0  0  0  0  0
  140.9740   70.5340  228.1070 C   0  0  0  0  0  0  0  0  0  0  0  0
  140.9870   71.2930  226.9580 C   0  0  0  0  0  0  0  0  0  0  0  0
  140.4550   70.8230  225.7760 C   0  0  0  0  0  0  0  0  0  0  0  0
  140.4730   71.5780  224.6480 N   0  0  0  0  0  0  0  0  0  0  0  0
  139.5760   73.7580  223.2300 H   0  0  0  0  0  0  0  0  0  0  0  0
  140.1596   73.4336  220.2496 H   0  0  0  0  0  0  0  0  0  0  0  0
  138.7177   74.3715  220.8260 H   0  0  0  0  0  0  0  0  0  0  0  0
  139.5524   76.1687  219.0646 H   0  0  0  0  0  0  0  0  0  0  0  0
  140.8100   77.4790  218.9416 H   0  0  0  0  0  0  0  0  0  0  0  0
  140.8438   74.7618  217.6074 H   0  0  0  0  0  0  0  0  0  0  0  0
  140.6453   76.3688  216.8292 H   0  0  0  0  0  0  0  0  0  0  0  0
  143.0478   74.9739  217.4613 H   0  0  0  0  0  0  0  0  0  0  0  0
  142.8292   76.6234  216.7272 H   0  0  0  0  0  0  0  0  0  0  0  0
  144.2819   76.5775  218.7426 H   0  0  0  0  0  0  0  0  0  0  0  0
  142.8056   77.6457  218.8556 H   0  0  0  0  0  0  0  0  0  0  0  0
  143.0681   76.5102  220.9859 H   0  0  0  0  0  0  0  0  0  0  0  0
  141.7965   73.3631  219.9154 H   0  0  0  0  0  0  0  0  0  0  0  0
  143.0718   71.2576  220.1171 H   0  0  0  0  0  0  0  0  0  0  0  0
  145.5214   71.3542  220.5465 H   0  0  0  0  0  0  0  0  0  0  0  0
  146.6629   73.5732  220.7691 H   0  0  0  0  0  0  0  0  0  0  0  0
  145.3395   75.6347  220.5537 H   0  0  0  0  0  0  0  0  0  0  0  0
  138.9729   69.4668  222.5405 H   0  0  0  0  0  0  0  0  0  0  0  0
  138.9035   68.0297  224.5624 H   0  0  0  0  0  0  0  0  0  0  0  0
  139.4226   67.7629  226.8648 H   0  0  0  0  0  0  0  0  0  0  0  0
  141.4001   70.9165  229.0462 H   0  0  0  0  0  0  0  0  0  0  0  0
  141.4325   72.2984  226.9838 H   0  0  0  0  0  0  0  0  0  0  0  0
  1  2  2  0
  2  3  1  0
  3  4  1  0
  4  5  1  0
  5  6  2  0
  5  7  1  0
  7  8  1  0
  8  9  1  0
  9 10  1  0
 10 11  1  0
 11 12  1  0
 12 13  1  0
 13 14  2  0
 14 15  1  0
 15 16  2  0
 16 17  1  0
 17 18  2  0
  2 19  1  0
 19 20  2  0
 20 21  1  0
 21 22  2  0
 22 23  1  0
 23 24  2  0
 24 25  1  0
 24 26  1  0
 26 27  2  0
 27 28  1  0
 28 29  2  0
 12  7  1  0
 18 13  1  0
 29 19  1  0
 28 22  1  0
  3 30  1  0
  4 31  1  0
  4 32  1  0
  8 33  1  0
  8 34  1  0
  9 35  1  0
  9 36  1  0
 10 37  1  0
 10 38  1  0
 11 39  1  0
 11 40  1  0
 12 41  1  1
 14 42  1  0
 15 43  1  0
 16 44  1  0
 17 45  1  0
 18 46  1  0
 20 47  1  0
 21 48  1  0
 23 49  1  0
 26 50  1  0
 27 51  1  0
M  END
>  <smiles>  (8) 
O=C(NCC(=O)N1CCCCC1c1ccccc1)c1ccc2cc(F)ccc2n1

>  <score_type>  (8) 
oracle

>  <origin>  (8) 
autodockgpu

>  <m_score__min__energy>  (8) 
-9.2699999999999996

>  <m_primary>  (8) 
energy

>  <rmsd>  (8) 
1.6577833602895513

>  <m_score__min__rmsd>  (8) 
1.6577833602895513

>  <meeko>  (8) 
{"free_energy": -8.33, "intermolecular_energy": -9.82, "internal_energy": -1.94, "cluster_size": 13, "cluster_id": 3, "rank_in_cluster": 8}

>  <energy>  (8) 
-8.81

>  <cluster_rmsd>  (8) 
0.29

>  <cluster>  (8) 
2

$$$$

     RDKit          3D

 51 54  0  0  0  0  0  0  0  0999 V2000
  140.8890   71.7370  221.2410 O   0  0  0  0  0  0  0  0  0  0  0  0
  140.3820   72.2670  222.2810 C   0  0  0  0  0  0  0  0  0  0  0  0
  139.9980   73.6350  222.2330 N   0  0  0  0  0  0  0  0  0  0  0  0
  140.1920   74.3970  221.0000 C   0  0  0  0  0  0  0  0  0  0  0  0
  140.2690   75.8380  221.2570 C   0  0  0  0  0  0  0  0  0  0  0  0
  140.0620   76.2390  222.4350 O   0  0  0  0  0  0  0  0  0  0  0  0
  140.5610   76.8270  220.2870 N   0  0  0  0  0  0  0  0  0  0  0  0
  141.3210   76.4480  219.1130 C   0  0  0  0  0  0  0  0  0  0  0  0
  142.5270   77.3100  218.9040 C   0  0  0  0  0  0  0  0  0  0  0  0
  142.1200   78.7530  218.9180 C   0  0  0  0  0  0  0  0  0  0  0  0
  140.6440   78.9310  219.1580 C   0  0  0  0  0  0  0  0  0  0  0  0
  140.1460   78.2110  220.3840 C   0  0  2  0  0  0  0  0  0  0  0  0
  140.6190   78.9040  221.5920 C   0  0  0  0  0  0  0  0  0  0  0  0
  139.8730   79.7010  222.4020 C   0  0  0  0  0  0  0  0  0  0  0  0
  140.3760   80.3210  223.5370 C   0  0  0  0  0  0  0  0  0  0  0  0
  141.7000   80.1210  223.8650 C   0  0  0  0  0  0  0  0  0  0  0  0
  142.5090   79.3120  223.0640 C   0  0  0  0  0  0  0  0  0  0  0  0
  141.9600   78.7250  221.9550 C   0  0  0  0  0  0  0  0  0  0  0  0
  140.2030   71.4750  223.4920 C   0  0  0  0  0  0  0  0  0  0  0  0
  139.5310   70.2730  223.4260 C   0  0  0  0  0  0  0  0  0  0  0  0
  139.3180   69.4650  224.5250 C   0  0  0  0  0  0  0  0  0  0  0  0
  139.8190   69.9150  225.7300 C   0  0  0  0  0  0  0  0  0  0  0  0
  139.6270   69.1420  226.8410 C   0  0  0  0  0  0  0  0  0  0  0  0
  140.1260   69.5900  228.0410 C   0  0  0  0  0  0  0  0  0  0  0  0
  139.9430   68.8280  229.1610 F   0  0  0  0  0  0  0  0  0  0  0  0
  140.8050   70.7820  228.1650 C   0  0  0  0  0  0  0  0  0  0  0  0
  140.9820   71.5410  227.0300 C   0  0  0  0  0  0  0  0  0  0  0  0
  140.5000   71.1300  225.8050 C   0  0  0  0  0  0  0  0  0  0  0  0
  140.6790   71.8850  224.6910 N   0  0  0  0  0  0  0  0  0  0  0  0
  139.5810   74.0590  223.0960 H   0  0  0  0  0  0  0  0  0  0  0  0
  141.1276   74.0700  220.5228 H   0  0  0  0  0  0  0  0  0  0  0  0
  139.3282   74.2123  220.3445 H   0  0  0  0  0  0  0  0  0  0  0  0
  141.6496   75.4045  219.2279 H   0  0  0  0  0  0  0  0  0  0  0  0
  140.6664   76.5736  218.2379 H   0  0  0  0  0  0  0  0  0  0  0  0
  143.2529   77.1262  219.7098 H   0  0  0  0  0  0  0  0  0  0  0  0
  142.9860   77.0684  217.9340 H   0  0  0  0  0  0  0  0  0  0  0  0
  142.6725   79.2681  219.7176 H   0  0  0  0  0  0  0  0  0  0  0  0
  142.3525   79.1766  217.9298 H   0  0  0  0  0  0  0  0  0  0  0  0
  140.4370   80.0049  219.2761 H   0  0  0  0  0  0  0  0  0  0  0  0
  140.1199   78.4992  218.2926 H   0  0  0  0  0  0  0  0  0  0  0  0
  139.0482   78.2187  220.4536 H   0  0  0  0  0  0  0  0  0  0  0  0
  138.8159   79.8628  222.1444 H   0  0  0  0  0  0  0  0  0  0  0  0
  139.7324   80.9581  224.1613 H   0  0  0  0  0  0  0  0  0  0  0  0
  142.1209   80.6005  224.7611 H   0  0  0  0  0  0  0  0  0  0  0  0
  143.5666   79.1494  223.3189 H   0  0  0  0  0  0  0  0  0  0  0  0
  142.5974   78.0878  221.3244 H   0  0  0  0  0  0  0  0  0  0  0  0
  139.1459   69.9417  222.4503 H   0  0  0  0  0  0  0  0  0  0  0  0
  138.7765   68.5109  224.4445 H   0  0  0  0  0  0  0  0  0  0  0  0
  139.0870   68.1859  226.7764 H   0  0  0  0  0  0  0  0  0  0  0  0
  141.1929   71.1164  229.1385 H   0  0  0  0  0  0  0  0  0  0  0  0
  141.5204   72.4975  227.1020 H   0  0  0  0  0  0  0  0  0  0  0  0
  1  2  2  0
  2  3  1  0
  3  4  1  0
  4  5  1  0
  5  6  2  0
  5  7  1  0
  7  8  1  0
  8  9  1  0
  9 10  1  0
 10 11  1  0
 11 12  1  0
 12 13  1  0
 13 14  2  0
 14 15  1  0
 15 16  2  0
 16 17  1  0
 17 18  2  0
  2 19  1  0
 19 20  2  0
 20 21  1  0
 21 22  2  0
 22 23  1  0
 23 24  2  0
 24 25  1  0
 24 26  1  0
 26 27  2  0
 27 28  1  0
 28 29  2  0
 12  7  1  0
 18 13  1  0
 29 19  1  0
 28 22  1  0
  3 30  1  0
  4 31  1  0
  4 32  1  0
  8 33  1  0
  8 34  1  0
  9 35  1  0
  9 36  1  0
 10 37  1  0
 10 38  1  0
 11 39  1  0
 11 40  1  0
 12 41  1  6
 14 42  1  0
 15 43  1  0
 16 44  1  0
 17 45  1  0
 18 46  1  0
 20 47  1  0
 21 48  1  0
 23 49  1  0
 26 50  1  0
 27 51  1  0
M  END
>  <smiles>  (9) 
O=C(NCC(=O)N1CCCCC1c1ccccc1)c1ccc2cc(F)ccc2n1

>  <score_type>  (9) 
oracle

>  <origin>  (9) 
autodockgpu

>  <m_score__min__energy>  (9) 
-9.2699999999999996

>  <m_primary>  (9) 
energy

>  <rmsd>  (9) 
1.9946899000501932

>  <m_score__min__rmsd>  (9) 
1.9946899000501932

>  <meeko>  (9) 
{"free_energy": -8.65, "intermolecular_energy": -10.14, "internal_energy": -1.68, "cluster_size": 27, "cluster_id": 2, "rank_in_cluster": 18}

>  <energy>  (9) 
-8.76

>  <cluster_rmsd>  (9) 
0.54

>  <cluster>  (9) 
2

$$$$

     RDKit          3D

 51 54  0  0  0  0  0  0  0  0999 V2000
  140.9270   71.7250  221.2580 O   0  0  0  0  0  0  0  0  0  0  0  0
  140.4100   72.2600  222.2910 C   0  0  0  0  0  0  0  0  0  0  0  0
  140.0230   73.6260  222.2330 N   0  0  0  0  0  0  0  0  0  0  0  0
  140.2240   74.3820  220.9970 C   0  0  0  0  0  0  0  0  0  0  0  0
  140.2780   75.8250  221.2450 C   0  0  0  0  0  0  0  0  0  0  0  0
  140.0420   76.2330  222.4140 O   0  0  0  0  0  0  0  0  0  0  0  0
  140.5780   76.8110  220.2730 N   0  0  0  0  0  0  0  0  0  0  0  0
  141.3470   76.4260  219.1070 C   0  0  0  0  0  0  0  0  0  0  0  0
  142.5560   77.2880  218.9040 C   0  0  0  0  0  0  0  0  0  0  0  0
  142.1490   78.7310  218.9090 C   0  0  0  0  0  0  0  0  0  0  0  0
  140.6710   78.9110  219.1370 C   0  0  0  0  0  0  0  0  0  0  0  0
  140.1640   78.1950  220.3610 C   0  0  2  0  0  0  0  0  0  0  0  0
  140.6270   78.8930  221.5700 C   0  0  0  0  0  0  0  0  0  0  0  0
  139.8720   79.6800  222.3810 C   0  0  0  0  0  0  0  0  0  0  0  0
  140.3660   80.3040  223.5170 C   0  0  0  0  0  0  0  0  0  0  0  0
  141.6920   80.1200  223.8450 C   0  0  0  0  0  0  0  0  0  0  0  0
  142.5120   79.3210  223.0440 C   0  0  0  0  0  0  0  0  0  0  0  0
  141.9700   78.7290  221.9350 C   0  0  0  0  0  0  0  0  0  0  0  0
  140.2230   71.4740  223.5050 C   0  0  0  0  0  0  0  0  0  0  0  0
  139.5450   70.2750  223.4430 C   0  0  0  0  0  0  0  0  0  0  0  0
  139.3250   69.4730  224.5450 C   0  0  0  0  0  0  0  0  0  0  0  0
  139.8250   69.9260  225.7490 C   0  0  0  0  0  0  0  0  0  0  0  0
  139.6260   69.1580  226.8630 C   0  0  0  0  0  0  0  0  0  0  0  0
  140.1240   69.6090  228.0620 C   0  0  0  0  0  0  0  0  0  0  0  0
  139.9350   68.8530  229.1850 F   0  0  0  0  0  0  0  0  0  0  0  0
  140.8100   70.7980  228.1830 C   0  0  0  0  0  0  0  0  0  0  0  0
  140.9940   71.5510  227.0450 C   0  0  0  0  0  0  0  0  0  0  0  0
  140.5130   71.1380  225.8210 C   0  0  0  0  0  0  0  0  0  0  0  0
  140.6990   71.8860  224.7040 N   0  0  0  0  0  0  0  0  0  0  0  0
  139.5970   74.0540  223.0900 H   0  0  0  0  0  0  0  0  0  0  0  0
  141.1705   74.0644  220.5351 H   0  0  0  0  0  0  0  0  0  0  0  0
  139.3722   74.1810  220.3307 H   0  0  0  0  0  0  0  0  0  0  0  0
  141.6744   75.3830  219.2295 H   0  0  0  0  0  0  0  0  0  0  0  0
  140.6996   76.5470  218.2259 H   0  0  0  0  0  0  0  0  0  0  0  0
  143.2754   77.1074  219.7163 H   0  0  0  0  0  0  0  0  0  0  0  0
  143.0228   77.0426  217.9387 H   0  0  0  0  0  0  0  0  0  0  0  0
  142.6956   79.2492  219.7107 H   0  0  0  0  0  0  0  0  0  0  0  0
  142.3889   79.1501  217.9207 H   0  0  0  0  0  0  0  0  0  0  0  0
  140.4638   79.9853  219.2504 H   0  0  0  0  0  0  0  0  0  0  0  0
  140.1529   78.4775  218.2688 H   0  0  0  0  0  0  0  0  0  0  0  0
  139.0657   78.2023  220.4214 H   0  0  0  0  0  0  0  0  0  0  0  0
  138.8133   79.8300  222.1229 H   0  0  0  0  0  0  0  0  0  0  0  0
  139.7140   80.9317  224.1422 H   0  0  0  0  0  0  0  0  0  0  0  0
  142.1066   80.6044  224.7414 H   0  0  0  0  0  0  0  0  0  0  0  0
  143.5714   79.1707  223.2993 H   0  0  0  0  0  0  0  0  0  0  0  0
  142.6149   78.0990  221.3048 H   0  0  0  0  0  0  0  0  0  0  0  0
  139.1606   69.9412  222.4679 H   0  0  0  0  0  0  0  0  0  0  0  0
  138.7789   68.5213  224.4674 H   0  0  0  0  0  0  0  0  0  0  0  0
  139.0816   68.2042  226.8010 H   0  0  0  0  0  0  0  0  0  0  0  0
  141.1976   71.1342  229.1560 H   0  0  0  0  0  0  0  0  0  0  0  0
  141.5377   72.5047  227.1143 H   0  0  0  0  0  0  0  0  0  0  0  0
  1  2  2  0
  2  3  1  0
  3  4  1  0
  4  5  1  0
  5  6  2  0
  5  7  1  0
  7  8  1  0
  8  9  1  0
  9 10  1  0
 10 11  1  0
 11 12  1  0
 12 13  1  0
 13 14  2  0
 14 15  1  0
 15 16  2  0
 16 17  1  0
 17 18  2  0
  2 19  1  0
 19 20  2  0
 20 21  1  0
 21 22  2  0
 22 23  1  0
 23 24  2  0
 24 25  1  0
 24 26  1  0
 26 27  2  0
 27 28  1  0
 28 29  2  0
 12  7  1  0
 18 13  1  0
 29 19  1  0
 28 22  1  0
  3 30  1  0
  4 31  1  0
  4 32  1  0
  8 33  1  0
  8 34  1  0
  9 35  1  0
  9 36  1  0
 10 37  1  0
 10 38  1  0
 11 39  1  0
 11 40  1  0
 12 41  1  6
 14 42  1  0
 15 43  1  0
 16 44  1  0
 17 45  1  0
 18 46  1  0
 20 47  1  0
 21 48  1  0
 23 49  1  0
 26 50  1  0
 27 51  1  0
M  END
>  <smiles>  (10) 
O=C(NCC(=O)N1CCCCC1c1ccccc1)c1ccc2cc(F)ccc2n1

>  <score_type>  (10) 
oracle

>  <origin>  (10) 
autodockgpu

>  <m_score__min__energy>  (10) 
-9.2699999999999996

>  <m_primary>  (10) 
energy

>  <rmsd>  (10) 
1.9995120977425798

>  <m_score__min__rmsd>  (10) 
1.9995120977425798

>  <meeko>  (10) 
{"free_energy": -8.65, "intermolecular_energy": -10.14, "internal_energy": -1.68, "cluster_size": 27, "cluster_id": 2, "rank_in_cluster": 19}

>  <energy>  (10) 
-8.75

>  <cluster_rmsd>  (10) 
0.55

>  <cluster>  (10) 
2

$$$$

     RDKit          3D

 51 54  0  0  0  0  0  0  0  0999 V2000
  138.9350   71.6120  221.3490 O   0  0  0  0  0  0  0  0  0  0  0  0
  139.6650   71.9590  222.3320 C   0  0  0  0  0  0  0  0  0  0  0  0
  140.4080   73.1670  222.2410 N   0  0  0  0  0  0  0  0  0  0  0  0
  140.3180   73.9800  221.0280 C   0  0  0  0  0  0  0  0  0  0  0  0
  140.9360   75.2970  221.2090 C   0  0  0  0  0  0  0  0  0  0  0  0
  141.4340   75.5650  222.3360 O   0  0  0  0  0  0  0  0  0  0  0  0
  141.0230   76.3020  220.2160 N   0  0  0  0  0  0  0  0  0  0  0  0
  141.7280   76.0050  218.9850 C   0  0  0  0  0  0  0  0  0  0  0  0
  142.7970   77.0090  218.6770 C   0  0  0  0  0  0  0  0  0  0  0  0
  142.2150   78.3900  218.7200 C   0  0  0  0  0  0  0  0  0  0  0  0
  140.7520   78.3860  219.0780 C   0  0  0  0  0  0  0  0  0  0  0  0
  140.4480   77.6250  220.3420 C   0  0  2  0  0  0  0  0  0  0  0  0
  140.9260   78.3870  221.5060 C   0  0  0  0  0  0  0  0  0  0  0  0
  142.1920   78.8390  221.7030 C   0  0  0  0  0  0  0  0  0  0  0  0
  142.5790   79.5650  222.8210 C   0  0  0  0  0  0  0  0  0  0  0  0
  141.6340   79.8430  223.7860 C   0  0  0  0  0  0  0  0  0  0  0  0
  140.3190   79.3990  223.6310 C   0  0  0  0  0  0  0  0  0  0  0  0
  139.9920   78.6870  222.5070 C   0  0  0  0  0  0  0  0  0  0  0  0
  139.7290   71.1230  223.5260 C   0  0  0  0  0  0  0  0  0  0  0  0
  139.1420   69.8750  223.5150 C   0  0  0  0  0  0  0  0  0  0  0  0
  139.1570   69.0240  224.6020 C   0  0  0  0  0  0  0  0  0  0  0  0
  139.8000   69.4790  225.7350 C   0  0  0  0  0  0  0  0  0  0  0  0
  139.8350   68.6630  226.8320 C   0  0  0  0  0  0  0  0  0  0  0  0
  140.4770   69.1160  227.9600 C   0  0  0  0  0  0  0  0  0  0  0  0
  140.5210   68.3130  229.0650 F   0  0  0  0  0  0  0  0  0  0  0  0
  141.0800   70.3530  228.0270 C   0  0  0  0  0  0  0  0  0  0  0  0
  141.0290   71.1530  226.9080 C   0  0  0  0  0  0  0  0  0  0  0  0
  140.3970   70.7400  225.7540 C   0  0  0  0  0  0  0  0  0  0  0  0
  140.3510   71.5350  224.6540 N   0  0  0  0  0  0  0  0  0  0  0  0
  141.0040   73.4410  223.0580 H   0  0  0  0  0  0  0  0  0  0  0  0
  140.8312   73.4553  220.2086 H   0  0  0  0  0  0  0  0  0  0  0  0
  139.2535   74.1306  220.7952 H   0  0  0  0  0  0  0  0  0  0  0  0
  142.1927   75.0121  219.0758 H   0  0  0  0  0  0  0  0  0  0  0  0
  140.9951   76.0363  218.1653 H   0  0  0  0  0  0  0  0  0  0  0  0
  143.6020   76.9273  219.4221 H   0  0  0  0  0  0  0  0  0  0  0  0
  143.2039   76.8143  217.6737 H   0  0  0  0  0  0  0  0  0  0  0  0
  142.7608   78.9801  219.4710 H   0  0  0  0  0  0  0  0  0  0  0  0
  142.3130   78.8265  217.7151 H   0  0  0  0  0  0  0  0  0  0  0  0
  140.4224   79.4271  219.2099 H   0  0  0  0  0  0  0  0  0  0  0  0
  140.2184   77.8818  218.2588 H   0  0  0  0  0  0  0  0  0  0  0  0
  139.3669   77.4968  220.4998 H   0  0  0  0  0  0  0  0  0  0  0  0
  142.9497   78.6181  220.9367 H   0  0  0  0  0  0  0  0  0  0  0  0
  143.6169   79.9110  222.9347 H   0  0  0  0  0  0  0  0  0  0  0  0
  141.9169   80.4165  224.6810 H   0  0  0  0  0  0  0  0  0  0  0  0
  139.5601   79.6168  224.3969 H   0  0  0  0  0  0  0  0  0  0  0  0
  138.9562   78.3372  222.3855 H   0  0  0  0  0  0  0  0  0  0  0  0
  138.6377   69.5417  222.5960 H   0  0  0  0  0  0  0  0  0  0  0  0
  138.6804   68.0332  224.5667 H   0  0  0  0  0  0  0  0  0  0  0  0
  139.3618   67.6702  226.8122 H   0  0  0  0  0  0  0  0  0  0  0  0
  141.5853   70.6900  228.9441 H   0  0  0  0  0  0  0  0  0  0  0  0
  141.5035   72.1450  226.9349 H   0  0  0  0  0  0  0  0  0  0  0  0
  1  2  2  0
  2  3  1  0
  3  4  1  0
  4  5  1  0
  5  6  2  0
  5  7  1  0
  7  8  1  0
  8  9  1  0
  9 10  1  0
 10 11  1  0
 11 12  1  0
 12 13  1  0
 13 14  2  0
 14 15  1  0
 15 16  2  0
 16 17  1  0
 17 18  2  0
  2 19  1  0
 19 20  2  0
 20 21  1  0
 21 22  2  0
 22 23  1  0
 23 24  2  0
 24 25  1  0
 24 26  1  0
 26 27  2  0
 27 28  1  0
 28 29  2  0
 12  7  1  0
 18 13  1  0
 29 19  1  0
 28 22  1  0
  3 30  1  0
  4 31  1  0
  4 32  1  0
  8 33  1  0
  8 34  1  0
  9 35  1  0
  9 36  1  0
 10 37  1  0
 10 38  1  0
 11 39  1  0
 11 40  1  0
 12 41  1  1
 14 42  1  0
 15 43  1  0
 16 44  1  0
 17 45  1  0
 18 46  1  0
 20 47  1  0
 21 48  1  0
 23 49  1  0
 26 50  1  0
 27 51  1  0
M  END
>  <smiles>  (11) 
O=C(NCC(=O)N1CCCCC1c1ccccc1)c1ccc2cc(F)ccc2n1

>  <score_type>  (11) 
oracle

>  <origin>  (11) 
autodockgpu

>  <m_score__min__energy>  (11) 
-9.2699999999999996

>  <m_primary>  (11) 
energy

>  <rmsd>  (11) 
1.812752541598299

>  <m_score__min__rmsd>  (11) 
1.812752541598299

>  <meeko>  (11) 
{"free_energy": -7.97, "intermolecular_energy": -9.47, "internal_energy": -1.91, "cluster_size": 27, "cluster_id": 2, "rank_in_cluster": 27}

>  <energy>  (11) 
-8.74

>  <cluster_rmsd>  (11) 
1.4

>  <cluster>  (11) 
2

$$$$

     RDKit          3D

 51 54  0  0  0  0  0  0  0  0999 V2000
  138.4580   71.9330  222.1160 O   0  0  0  0  0  0  0  0  0  0  0  0
  139.6060   71.6490  222.5900 C   0  0  0  0  0  0  0  0  0  0  0  0
  140.7610   72.1450  221.9270 N   0  0  0  0  0  0  0  0  0  0  0  0
  140.6090   72.9640  220.7250 C   0  0  0  0  0  0  0  0  0  0  0  0
  141.0230   74.3510  220.9550 C   0  0  0  0  0  0  0  0  0  0  0  0
  140.8020   74.8520  222.0910 O   0  0  0  0  0  0  0  0  0  0  0  0
  141.6580   75.1840  220.0020 N   0  0  0  0  0  0  0  0  0  0  0  0
  140.8900   75.6530  218.8670 C   0  0  0  0  0  0  0  0  0  0  0  0
  141.5480   75.3420  217.5570 C   0  0  0  0  0  0  0  0  0  0  0  0
  142.9610   75.8420  217.5760 C   0  0  0  0  0  0  0  0  0  0  0  0
  143.3270   76.4830  218.8900 C   0  0  0  0  0  0  0  0  0  0  0  0
  143.0400   75.6080  220.0820 C   0  0  2  0  0  0  0  0  0  0  0  0
  144.0120   74.5050  220.1320 C   0  0  0  0  0  0  0  0  0  0  0  0
  145.1950   74.5100  220.8010 C   0  0  0  0  0  0  0  0  0  0  0  0
  146.0670   73.4310  220.8190 C   0  0  0  0  0  0  0  0  0  0  0  0
  145.7210   72.2930  220.1240 C   0  0  0  0  0  0  0  0  0  0  0  0
  144.5170   72.2370  219.4190 C   0  0  0  0  0  0  0  0  0  0  0  0
  143.6940   73.3320  219.4370 C   0  0  0  0  0  0  0  0  0  0  0  0
  139.7180   70.8310  223.7910 C   0  0  0  0  0  0  0  0  0  0  0  0
  139.2110   69.5490  223.7920 C   0  0  0  0  0  0  0  0  0  0  0  0
  139.2760   68.7110  224.8880 C   0  0  0  0  0  0  0  0  0  0  0  0
  139.8860   69.2170  226.0170 C   0  0  0  0  0  0  0  0  0  0  0  0
  139.9690   68.4160  227.1230 C   0  0  0  0  0  0  0  0  0  0  0  0
  140.5780   68.9200  228.2480 C   0  0  0  0  0  0  0  0  0  0  0  0
  140.6690   68.1320  229.3610 F   0  0  0  0  0  0  0  0  0  0  0  0
  141.1020   70.1920  228.3030 C   0  0  0  0  0  0  0  0  0  0  0  0
  141.0040   70.9760  227.1760 C   0  0  0  0  0  0  0  0  0  0  0  0
  140.4020   70.5130  226.0250 C   0  0  0  0  0  0  0  0  0  0  0  0
  140.3100   71.2930  224.9170 N   0  0  0  0  0  0  0  0  0  0  0  0
  141.6990   71.9050  222.3280 H   0  0  0  0  0  0  0  0  0  0  0  0
  141.2276   72.5363  219.9223 H   0  0  0  0  0  0  0  0  0  0  0  0
  139.5450   72.9668  220.4457 H   0  0  0  0  0  0  0  0  0  0  0  0
  139.9013   75.1714  218.8876 H   0  0  0  0  0  0  0  0  0  0  0  0
  140.8105   76.7471  218.9481 H   0  0  0  0  0  0  0  0  0  0  0  0
  141.5463   74.2540  217.3951 H   0  0  0  0  0  0  0  0  0  0  0  0
  140.9957   75.8349  216.7433 H   0  0  0  0  0  0  0  0  0  0  0  0
  143.6381   74.9939  217.3961 H   0  0  0  0  0  0  0  0  0  0  0  0
  143.0560   76.6076  216.7919 H   0  0  0  0  0  0  0  0  0  0  0  0
  144.4024   76.7142  218.8778 H   0  0  0  0  0  0  0  0  0  0  0  0
  142.7090   77.3870  218.9940 H   0  0  0  0  0  0  0  0  0  0  0  0
  143.1608   76.1482  221.0326 H   0  0  0  0  0  0  0  0  0  0  0  0
  145.4757   75.4166  221.3571 H   0  0  0  0  0  0  0  0  0  0  0  0
  147.0141   73.4831  221.3761 H   0  0  0  0  0  0  0  0  0  0  0  0
  146.3962   71.4246  220.1244 H   0  0  0  0  0  0  0  0  0  0  0  0
  144.2351   71.3322  218.8606 H   0  0  0  0  0  0  0  0  0  0  0  0
  142.7448   73.2878  218.8829 H   0  0  0  0  0  0  0  0  0  0  0  0
  138.7313   69.1753  222.8753 H   0  0  0  0  0  0  0  0  0  0  0  0
  138.8624   67.6920  224.8619 H   0  0  0  0  0  0  0  0  0  0  0  0
  139.5591   67.3953  227.1125 H   0  0  0  0  0  0  0  0  0  0  0  0
  141.5831   70.5692  229.2175 H   0  0  0  0  0  0  0  0  0  0  0  0
  141.4156   71.9959  227.1939 H   0  0  0  0  0  0  0  0  0  0  0  0
  1  2  2  0
  2  3  1  0
  3  4  1  0
  4  5  1  0
  5  6  2  0
  5  7  1  0
  7  8  1  0
  8  9  1  0
  9 10  1  0
 10 11  1  0
 11 12  1  0
 12 13  1  0
 13 14  2  0
 14 15  1  0
 15 16  2  0
 16 17  1  0
 17 18  2  0
  2 19  1  0
 19 20  2  0
 20 21  1  0
 21 22  2  0
 22 23  1  0
 23 24  2  0
 24 25  1  0
 24 26  1  0
 26 27  2  0
 27 28  1  0
 28 29  2  0
 12  7  1  0
 18 13  1  0
 29 19  1  0
 28 22  1  0
  3 30  1  0
  4 31  1  0
  4 32  1  0
  8 33  1  0
  8 34  1  0
  9 35  1  0
  9 36  1  0
 10 37  1  0
 10 38  1  0
 11 39  1  0
 11 40  1  0
 12 41  1  1
 14 42  1  0
 15 43  1  0
 16 44  1  0
 17 45  1  0
 18 46  1  0
 20 47  1  0
 21 48  1  0
 23 49  1  0
 26 50  1  0
 27 51  1  0
M  END
>  <smiles>  (12) 
O=C(NCC(=O)N1CCCCC1c1ccccc1)c1ccc2cc(F)ccc2n1

>  <score_type>  (12) 
oracle

>  <origin>  (12) 
autodockgpu

>  <m_score__min__energy>  (12) 
-9.2699999999999996

>  <m_primary>  (12) 
energy

>  <rmsd>  (12) 
1.9221828517567636

>  <m_score__min__rmsd>  (12) 
1.9221828517567636

>  <meeko>  (12) 
{"free_energy": -8.16, "intermolecular_energy": -9.65, "internal_energy": -1.45, "cluster_size": 13, "cluster_id": 3, "rank_in_cluster": 12}

>  <energy>  (12) 
-8.74

>  <cluster_rmsd>  (12) 
0.8

>  <cluster>  (12) 
2

$$$$

     RDKit          3D

 51 54  0  0  0  0  0  0  0  0999 V2000
  141.0310   72.7510  222.0850 O   0  0  0  0  0  0  0  0  0  0  0  0
  139.9610   72.4990  222.7280 C   0  0  0  0  0  0  0  0  0  0  0  0
  138.7620   73.1570  222.3430 N   0  0  0  0  0  0  0  0  0  0  0  0
  138.7810   74.1010  221.2260 C   0  0  0  0  0  0  0  0  0  0  0  0
  139.5970   75.2810  221.5240 C   0  0  0  0  0  0  0  0  0  0  0  0
  139.6550   75.6710  222.7220 O   0  0  0  0  0  0  0  0  0  0  0  0
  140.3340   76.0270  220.5730 N   0  0  0  0  0  0  0  0  0  0  0  0
  141.3180   75.3400  219.7610 C   0  0  0  0  0  0  0  0  0  0  0  0
  142.6710   75.9800  219.8310 C   0  0  0  0  0  0  0  0  0  0  0  0
  142.5500   77.4420  219.5230 C   0  0  0  0  0  0  0  0  0  0  0  0
  141.1270   77.8580  219.2580 C   0  0  0  0  0  0  0  0  0  0  0  0
  140.1720   77.4480  220.3480 C   0  0  2  0  0  0  0  0  0  0  0  0
  140.3930   78.2820  221.5400 C   0  0  0  0  0  0  0  0  0  0  0  0
  139.6610   79.3660  221.9070 C   0  0  0  0  0  0  0  0  0  0  0  0
  139.9140   80.1070  223.0530 C   0  0  0  0  0  0  0  0  0  0  0  0
  140.9620   79.7290  223.8630 C   0  0  0  0  0  0  0  0  0  0  0  0
  141.7470   78.6220  223.5300 C   0  0  0  0  0  0  0  0  0  0  0  0
  141.4510   77.9270  222.3870 C   0  0  0  0  0  0  0  0  0  0  0  0
  139.9800   71.5510  223.8350 C   0  0  0  0  0  0  0  0  0  0  0  0
  139.4540   70.2890  223.6590 C   0  0  0  0  0  0  0  0  0  0  0  0
  139.4320   69.3330  224.6560 C   0  0  0  0  0  0  0  0  0  0  0  0
  139.9740   69.6970  225.8720 C   0  0  0  0  0  0  0  0  0  0  0  0
  139.9700   68.7770  226.8840 C   0  0  0  0  0  0  0  0  0  0  0  0
  140.5100   69.1380  228.0950 C   0  0  0  0  0  0  0  0  0  0  0  0
  140.5140   68.2300  229.1170 F   0  0  0  0  0  0  0  0  0  0  0  0
  141.0500   70.3840  228.3270 C   0  0  0  0  0  0  0  0  0  0  0  0
  141.0390   71.2910  227.2910 C   0  0  0  0  0  0  0  0  0  0  0  0
  140.5090   70.9720  226.0580 C   0  0  0  0  0  0  0  0  0  0  0  0
  140.5030   71.8710  225.0410 N   0  0  0  0  0  0  0  0  0  0  0  0
  137.8880   72.9400  222.8800 H   0  0  0  0  0  0  0  0  0  0  0  0
  139.1949   73.5964  220.3405 H   0  0  0  0  0  0  0  0  0  0  0  0
  137.7492   74.4361  221.0442 H   0  0  0  0  0  0  0  0  0  0  0  0
  141.4012   74.3009  220.1122 H   0  0  0  0  0  0  0  0  0  0  0  0
  140.9799   75.3889  218.7154 H   0  0  0  0  0  0  0  0  0  0  0  0
  143.0853   75.8515  220.8419 H   0  0  0  0  0  0  0  0  0  0  0  0
  143.3390   75.5053  219.0972 H   0  0  0  0  0  0  0  0  0  0  0  0
  142.9319   78.0162  220.3800 H   0  0  0  0  0  0  0  0  0  0  0  0
  143.1326   77.6417  218.6116 H   0  0  0  0  0  0  0  0  0  0  0  0
  141.0961   78.9533  219.1609 H   0  0  0  0  0  0  0  0  0  0  0  0
  140.8060   77.3501  218.3366 H   0  0  0  0  0  0  0  0  0  0  0  0
  139.1222   77.6149  220.0649 H   0  0  0  0  0  0  0  0  0  0  0  0
  138.8241   79.6724  221.2623 H   0  0  0  0  0  0  0  0  0  0  0  0
  139.2913   80.9770  223.3087 H   0  0  0  0  0  0  0  0  0  0  0  0
  141.1820   80.3013  224.7763 H   0  0  0  0  0  0  0  0  0  0  0  0
  142.5854   78.3148  224.1724 H   0  0  0  0  0  0  0  0  0  0  0  0
  142.0686   77.0556  222.1239 H   0  0  0  0  0  0  0  0  0  0  0  0
  139.0312   70.0306  222.6769 H   0  0  0  0  0  0  0  0  0  0  0  0
  139.0046   68.3332  224.4893 H   0  0  0  0  0  0  0  0  0  0  0  0
  139.5454   67.7737  226.7324 H   0  0  0  0  0  0  0  0  0  0  0  0
  141.4757   70.6456  229.3070 H   0  0  0  0  0  0  0  0  0  0  0  0
  141.4628   72.2935  227.4503 H   0  0  0  0  0  0  0  0  0  0  0  0
  1  2  2  0
  2  3  1  0
  3  4  1  0
  4  5  1  0
  5  6  2  0
  5  7  1  0
  7  8  1  0
  8  9  1  0
  9 10  1  0
 10 11  1  0
 11 12  1  0
 12 13  1  0
 13 14  2  0
 14 15  1  0
 15 16  2  0
 16 17  1  0
 17 18  2  0
  2 19  1  0
 19 20  2  0
 20 21  1  0
 21 22  2  0
 22 23  1  0
 23 24  2  0
 24 25  1  0
 24 26  1  0
 26 27  2  0
 27 28  1  0
 28 29  2  0
 12  7  1  0
 18 13  1  0
 29 19  1  0
 28 22  1  0
  3 30  1  0
  4 31  1  0
  4 32  1  0
  8 33  1  0
  8 34  1  0
  9 35  1  0
  9 36  1  0
 10 37  1  0
 10 38  1  0
 11 39  1  0
 11 40  1  0
 12 41  1  6
 14 42  1  0
 15 43  1  0
 16 44  1  0
 17 45  1  0
 18 46  1  0
 20 47  1  0
 21 48  1  0
 23 49  1  0
 26 50  1  0
 27 51  1  0
M  END
>  <smiles>  (13) 
O=C(NCC(=O)N1CCCCC1c1ccccc1)c1ccc2cc(F)ccc2n1

>  <score_type>  (13) 
oracle

>  <origin>  (13) 
autodockgpu

>  <m_score__min__energy>  (13) 
-9.2699999999999996

>  <m_primary>  (13) 
energy

>  <rmsd>  (13) 
1.7659416776027412

>  <m_score__min__rmsd>  (13) 
1.7659416776027412

>  <meeko>  (13) 
{"free_energy": -8.67, "intermolecular_energy": -10.16, "internal_energy": -1.4, "cluster_size": 27, "cluster_id": 2, "rank_in_cluster": 17}

>  <energy>  (13) 
-8.74

>  <cluster_rmsd>  (13) 
0.56

>  <cluster>  (13) 
2

$$$$

     RDKit          3D

 51 54  0  0  0  0  0  0  0  0999 V2000
  141.3650   72.4710  221.7950 O   0  0  0  0  0  0  0  0  0  0  0  0
  140.3690   72.5450  222.5830 C   0  0  0  0  0  0  0  0  0  0  0  0
  139.3940   73.5540  222.3610 N   0  0  0  0  0  0  0  0  0  0  0  0
  139.5540   74.4800  221.2400 C   0  0  0  0  0  0  0  0  0  0  0  0
  139.9090   75.8280  221.6940 C   0  0  0  0  0  0  0  0  0  0  0  0
  141.1170   76.0560  221.9760 O   0  0  0  0  0  0  0  0  0  0  0  0
  139.0030   76.9060  221.8410 N   0  0  0  0  0  0  0  0  0  0  0  0
  137.8330   76.9520  220.9890 C   0  0  0  0  0  0  0  0  0  0  0  0
  137.7050   78.2520  220.2560 C   0  0  0  0  0  0  0  0  0  0  0  0
  137.7870   79.3880  221.2310 C   0  0  0  0  0  0  0  0  0  0  0  0
  137.9940   78.9170  222.6460 C   0  0  0  0  0  0  0  0  0  0  0  0
  139.1640   77.9800  222.7990 C   0  0  2  0  0  0  0  0  0  0  0  0
  140.4210   78.7310  222.6640 C   0  0  0  0  0  0  0  0  0  0  0  0
  141.0010   79.1210  221.4980 C   0  0  0  0  0  0  0  0  0  0  0  0
  142.1860   79.8410  221.4370 C   0  0  0  0  0  0  0  0  0  0  0  0
  142.8130   80.1790  222.6170 C   0  0  0  0  0  0  0  0  0  0  0  0
  142.2580   79.8010  223.8420 C   0  0  0  0  0  0  0  0  0  0  0  0
  141.0860   79.0930  223.8430 C   0  0  0  0  0  0  0  0  0  0  0  0
  140.2410   71.6030  223.6890 C   0  0  0  0  0  0  0  0  0  0  0  0
  139.6280   70.3860  223.4800 C   0  0  0  0  0  0  0  0  0  0  0  0
  139.4670   69.4400  224.4730 C   0  0  0  0  0  0  0  0  0  0  0  0
  139.9580   69.7650  225.7210 C   0  0  0  0  0  0  0  0  0  0  0  0
  139.8160   68.8530  226.7310 C   0  0  0  0  0  0  0  0  0  0  0  0
  140.3050   69.1760  227.9740 C   0  0  0  0  0  0  0  0  0  0  0  0
  140.1720   68.2750  228.9930 F   0  0  0  0  0  0  0  0  0  0  0  0
  140.9270   70.3760  228.2400 C   0  0  0  0  0  0  0  0  0  0  0  0
  141.0550   71.2750  227.2050 C   0  0  0  0  0  0  0  0  0  0  0  0
  140.5800   70.9940  225.9410 C   0  0  0  0  0  0  0  0  0  0  0  0
  140.7110   71.8860  224.9270 N   0  0  0  0  0  0  0  0  0  0  0  0
  138.5780   73.6030  223.0170 H   0  0  0  0  0  0  0  0  0  0  0  0
  140.3500   74.1055  220.5796 H   0  0  0  0  0  0  0  0  0  0  0  0
  138.5938   74.5405  220.7067 H   0  0  0  0  0  0  0  0  0  0  0  0
  137.9011   76.1376  220.2527 H   0  0  0  0  0  0  0  0  0  0  0  0
  136.9476   76.8439  221.6327 H   0  0  0  0  0  0  0  0  0  0  0  0
  138.5192   78.3401  219.5216 H   0  0  0  0  0  0  0  0  0  0  0  0
  136.7360   78.2851  219.7364 H   0  0  0  0  0  0  0  0  0  0  0  0
  138.6293   80.0363  220.9478 H   0  0  0  0  0  0  0  0  0  0  0  0
  136.8306   79.9303  221.1949 H   0  0  0  0  0  0  0  0  0  0  0  0
  138.1653   79.7961  223.2847 H   0  0  0  0  0  0  0  0  0  0  0  0
  137.0915   78.3604  222.9386 H   0  0  0  0  0  0  0  0  0  0  0  0
  139.2024   77.5228  223.7987 H   0  0  0  0  0  0  0  0  0  0  0  0
  140.5053   78.8519  220.5536 H   0  0  0  0  0  0  0  0  0  0  0  0
  142.6154   80.1355  220.4680 H   0  0  0  0  0  0  0  0  0  0  0  0
  143.7538   80.7485  222.5941 H   0  0  0  0  0  0  0  0  0  0  0  0
  142.7530   80.0670  224.7876 H   0  0  0  0  0  0  0  0  0  0  0  0
  140.6490   78.7966  224.8080 H   0  0  0  0  0  0  0  0  0  0  0  0
  139.2486   70.1574  222.4731 H   0  0  0  0  0  0  0  0  0  0  0  0
  138.9726   68.4767  224.2791 H   0  0  0  0  0  0  0  0  0  0  0  0
  139.3230   67.8860  226.5526 H   0  0  0  0  0  0  0  0  0  0  0  0
  141.3085   70.6081  229.2453 H   0  0  0  0  0  0  0  0  0  0  0  0
  141.5480   72.2406  227.3907 H   0  0  0  0  0  0  0  0  0  0  0  0
  1  2  2  0
  2  3  1  0
  3  4  1  0
  4  5  1  0
  5  6  2  0
  5  7  1  0
  7  8  1  0
  8  9  1  0
  9 10  1  0
 10 11  1  0
 11 12  1  0
 12 13  1  0
 13 14  2  0
 14 15  1  0
 15 16  2  0
 16 17  1  0
 17 18  2  0
  2 19  1  0
 19 20  2  0
 20 21  1  0
 21 22  2  0
 22 23  1  0
 23 24  2  0
 24 25  1  0
 24 26  1  0
 26 27  2  0
 27 28  1  0
 28 29  2  0
 12  7  1  0
 18 13  1  0
 29 19  1  0
 28 22  1  0
  3 30  1  0
  4 31  1  0
  4 32  1  0
  8 33  1  0
  8 34  1  0
  9 35  1  0
  9 36  1  0
 10 37  1  0
 10 38  1  0
 11 39  1  0
 11 40  1  0
 12 41  1  1
 14 42  1  0
 15 43  1  0
 16 44  1  0
 17 45  1  0
 18 46  1  0
 20 47  1  0
 21 48  1  0
 23 49  1  0
 26 50  1  0
 27 51  1  0
M  END
>  <smiles>  (14) 
O=C(NCC(=O)N1CCCCC1c1ccccc1)c1ccc2cc(F)ccc2n1

>  <score_type>  (14) 
oracle

>  <origin>  (14) 
autodockgpu

>  <m_score__min__energy>  (14) 
-9.2699999999999996

>  <m_primary>  (14) 
energy

>  <rmsd>  (14) 
2.8960540229142415

>  <m_score__min__rmsd>  (14) 
2.8960540229142415

>  <meeko>  (14) 
{"free_energy": -8.74, "intermolecular_energy": -10.23, "internal_energy": -1.27, "cluster_size": 27, "cluster_id": 2, "rank_in_cluster": 9}

>  <energy>  (14) 
-8.72

>  <cluster_rmsd>  (14) 
0.49

>  <cluster>  (14) 
2

$$$$

     RDKit          3D

 51 54  0  0  0  0  0  0  0  0999 V2000
  136.1370   77.4910  222.8920 O   0  0  0  0  0  0  0  0  0  0  0  0
  136.3630   76.2950  223.2630 C   0  0  0  0  0  0  0  0  0  0  0  0
  137.5090   75.6260  222.7560 N   0  0  0  0  0  0  0  0  0  0  0  0
  138.3990   76.3210  221.8260 C   0  0  0  0  0  0  0  0  0  0  0  0
  139.6430   75.5780  221.6050 C   0  0  0  0  0  0  0  0  0  0  0  0
  139.8460   74.5460  222.3020 O   0  0  0  0  0  0  0  0  0  0  0  0
  140.6450   75.9220  220.6660 N   0  0  0  0  0  0  0  0  0  0  0  0
  141.3970   74.8600  220.0300 C   0  0  0  0  0  0  0  0  0  0  0  0
  142.8780   75.0360  220.1750 C   0  0  0  0  0  0  0  0  0  0  0  0
  143.2670   76.4090  219.7150 C   0  0  0  0  0  0  0  0  0  0  0  0
  142.0810   77.2220  219.2670 C   0  0  0  0  0  0  0  0  0  0  0  0
  140.9760   77.2800  220.2890 C   0  0  2  0  0  0  0  0  0  0  0  0
  141.3820   78.1410  221.4100 C   0  0  0  0  0  0  0  0  0  0  0  0
  141.3780   77.8000  222.7250 C   0  0  0  0  0  0  0  0  0  0  0  0
  141.7850   78.6560  223.7380 C   0  0  0  0  0  0  0  0  0  0  0  0
  142.2160   79.9210  223.3990 C   0  0  0  0  0  0  0  0  0  0  0  0
  142.2380   80.3210  222.0610 C   0  0  0  0  0  0  0  0  0  0  0  0
  141.8260   79.4340  221.1020 C   0  0  0  0  0  0  0  0  0  0  0  0
  135.4540   75.6350  224.1930 C   0  0  0  0  0  0  0  0  0  0  0  0
  134.5960   76.3940  224.9610 C   0  0  0  0  0  0  0  0  0  0  0  0
  133.7070   75.8470  225.8650 C   0  0  0  0  0  0  0  0  0  0  0  0
  133.7050   74.4710  225.9750 C   0  0  0  0  0  0  0  0  0  0  0  0
  132.8370   73.8940  226.8600 C   0  0  0  0  0  0  0  0  0  0  0  0
  132.8350   72.5230  226.9700 C   0  0  0  0  0  0  0  0  0  0  0  0
  131.9730   71.9310  227.8500 F   0  0  0  0  0  0  0  0  0  0  0  0
  133.6690   71.7160  226.2280 C   0  0  0  0  0  0  0  0  0  0  0  0
  134.5320   72.3250  225.3460 C   0  0  0  0  0  0  0  0  0  0  0  0
  134.5690   73.6960  225.2020 C   0  0  0  0  0  0  0  0  0  0  0  0
  135.4240   74.2880  224.3290 N   0  0  0  0  0  0  0  0  0  0  0  0
  137.6840   74.6410  223.0710 H   0  0  0  0  0  0  0  0  0  0  0  0
  137.8819   76.4440  220.8630 H   0  0  0  0  0  0  0  0  0  0  0  0
  138.6567   77.2966  222.2639 H   0  0  0  0  0  0  0  0  0  0  0  0
  141.1096   73.9019  220.4877 H   0  0  0  0  0  0  0  0  0  0  0  0
  141.1624   74.8829  218.9556 H   0  0  0  0  0  0  0  0  0  0  0  0
  143.1604   74.9095  221.2306 H   0  0  0  0  0  0  0  0  0  0  0  0
  143.3977   74.2840  219.5631 H   0  0  0  0  0  0  0  0  0  0  0  0
  143.7610   76.9333  220.5463 H   0  0  0  0  0  0  0  0  0  0  0  0
  143.9407   76.2955  218.8529 H   0  0  0  0  0  0  0  0  0  0  0  0
  142.4194   78.2481  219.0605 H   0  0  0  0  0  0  0  0  0  0  0  0
  141.6704   76.7320  218.3718 H   0  0  0  0  0  0  0  0  0  0  0  0
  140.0609   77.7382  219.8858 H   0  0  0  0  0  0  0  0  0  0  0  0
  141.0340   76.7923  223.0010 H   0  0  0  0  0  0  0  0  0  0  0  0
  141.7643   78.3324  224.7891 H   0  0  0  0  0  0  0  0  0  0  0  0
  142.5436   80.6175  224.1849 H   0  0  0  0  0  0  0  0  0  0  0  0
  142.5796   81.3289  221.7827 H   0  0  0  0  0  0  0  0  0  0  0  0
  141.8444   79.7491  220.0483 H   0  0  0  0  0  0  0  0  0  0  0  0
  134.6211   77.4879  224.8480 H   0  0  0  0  0  0  0  0  0  0  0  0
  133.0345   76.4758  226.4669 H   0  0  0  0  0  0  0  0  0  0  0  0
  132.1582   74.5101  227.4680 H   0  0  0  0  0  0  0  0  0  0  0  0
  133.6459   70.6216  226.3368 H   0  0  0  0  0  0  0  0  0  0  0  0
  135.2086   71.7033  224.7413 H   0  0  0  0  0  0  0  0  0  0  0  0
  1  2  2  0
  2  3  1  0
  3  4  1  0
  4  5  1  0
  5  6  2  0
  5  7  1  0
  7  8  1  0
  8  9  1  0
  9 10  1  0
 10 11  1  0
 11 12  1  0
 12 13  1  0
 13 14  2  0
 14 15  1  0
 15 16  2  0
 16 17  1  0
 17 18  2  0
  2 19  1  0
 19 20  2  0
 20 21  1  0
 21 22  2  0
 22 23  1  0
 23 24  2  0
 24 25  1  0
 24 26  1  0
 26 27  2  0
 27 28  1  0
 28 29  2  0
 12  7  1  0
 18 13  1  0
 29 19  1  0
 28 22  1  0
  3 30  1  0
  4 31  1  0
  4 32  1  0
  8 33  1  0
  8 34  1  0
  9 35  1  0
  9 36  1  0
 10 37  1  0
 10 38  1  0
 11 39  1  0
 11 40  1  0
 12 41  1  6
 14 42  1  0
 15 43  1  0
 16 44  1  0
 17 45  1  0
 18 46  1  0
 20 47  1  0
 21 48  1  0
 23 49  1  0
 26 50  1  0
 27 51  1  0
M  END
>  <smiles>  (15) 
O=C(NCC(=O)N1CCCCC1c1ccccc1)c1ccc2cc(F)ccc2n1

>  <score_type>  (15) 
oracle

>  <origin>  (15) 
autodockgpu

>  <m_score__min__energy>  (15) 
-9.2699999999999996

>  <m_primary>  (15) 
energy

>  <rmsd>  (15) 
5.913339938035165

>  <m_score__min__rmsd>  (15) 
5.913339938035165

>  <meeko>  (15) 
{"free_energy": -7.89, "intermolecular_energy": -9.38, "internal_energy": -1.94, "cluster_size": 7, "cluster_id": 4, "rank_in_cluster": 5}

>  <energy>  (15) 
-8.69

>  <cluster_rmsd>  (15) 
0.5

>  <cluster>  (15) 
2

$$$$

     RDKit          3D

 51 54  0  0  0  0  0  0  0  0999 V2000
  138.9780   70.8980  221.5560 O   0  0  0  0  0  0  0  0  0  0  0  0
  139.3810   71.4430  222.6340 C   0  0  0  0  0  0  0  0  0  0  0  0
  139.6290   72.8420  222.6420 N   0  0  0  0  0  0  0  0  0  0  0  0
  139.4180   73.6200  221.4220 C   0  0  0  0  0  0  0  0  0  0  0  0
  140.4280   74.6710  221.2650 C   0  0  0  0  0  0  0  0  0  0  0  0
  140.8350   75.2580  222.3040 O   0  0  0  0  0  0  0  0  0  0  0  0
  140.9910   75.0860  220.0330 N   0  0  0  0  0  0  0  0  0  0  0  0
  140.1460   75.1170  218.8570 C   0  0  0  0  0  0  0  0  0  0  0  0
  140.7210   74.3380  217.7140 C   0  0  0  0  0  0  0  0  0  0  0  0
  142.1280   74.7890  217.4580 C   0  0  0  0  0  0  0  0  0  0  0  0
  142.5700   75.8620  218.4180 C   0  0  0  0  0  0  0  0  0  0  0  0
  142.3700   75.4900  219.8640 C   0  0  2  0  0  0  0  0  0  0  0  0
  143.3550   74.4700  220.2530 C   0  0  0  0  0  0  0  0  0  0  0  0
  143.1120   73.1430  220.4210 C   0  0  0  0  0  0  0  0  0  0  0  0
  144.0900   72.2260  220.7790 C   0  0  0  0  0  0  0  0  0  0  0  0
  145.3760   72.6790  220.9790 C   0  0  0  0  0  0  0  0  0  0  0  0
  145.6780   74.0330  220.8210 C   0  0  0  0  0  0  0  0  0  0  0  0
  144.6740   74.8940  220.4640 C   0  0  0  0  0  0  0  0  0  0  0  0
  139.5790   70.6350  223.8320 C   0  0  0  0  0  0  0  0  0  0  0  0
  139.1910   69.3120  223.8320 C   0  0  0  0  0  0  0  0  0  0  0  0
  139.3420   68.4800  224.9240 C   0  0  0  0  0  0  0  0  0  0  0  0
  139.9150   69.0360  226.0500 C   0  0  0  0  0  0  0  0  0  0  0  0
  140.0800   68.2430  227.1520 C   0  0  0  0  0  0  0  0  0  0  0  0
  140.6510   68.7970  228.2730 C   0  0  0  0  0  0  0  0  0  0  0  0
  140.8240   68.0170  229.3830 F   0  0  0  0  0  0  0  0  0  0  0  0
  141.0570   70.1120  228.3290 C   0  0  0  0  0  0  0  0  0  0  0  0
  140.8770   70.8870  227.2060 C   0  0  0  0  0  0  0  0  0  0  0  0
  140.3100   70.3740  226.0580 C   0  0  0  0  0  0  0  0  0  0  0  0
  140.1360   71.1460  224.9540 N   0  0  0  0  0  0  0  0  0  0  0  0
  139.9600   73.2780  223.5360 H   0  0  0  0  0  0  0  0  0  0  0  0
  139.4695   72.9444  220.5555 H   0  0  0  0  0  0  0  0  0  0  0  0
  138.4313   74.1014  221.4898 H   0  0  0  0  0  0  0  0  0  0  0  0
  139.1657   74.6906  219.1162 H   0  0  0  0  0  0  0  0  0  0  0  0
  140.0602   76.1656  218.5359 H   0  0  0  0  0  0  0  0  0  0  0  0
  140.7192   73.2666  217.9630 H   0  0  0  0  0  0  0  0  0  0  0  0
  140.1127   74.5066  216.8131 H   0  0  0  0  0  0  0  0  0  0  0  0
  142.8004   73.9244  217.5604 H   0  0  0  0  0  0  0  0  0  0  0  0
  142.1658   75.2107  216.4427 H   0  0  0  0  0  0  0  0  0  0  0  0
  143.6397   76.0583  218.2532 H   0  0  0  0  0  0  0  0  0  0  0  0
  141.9496   76.7489  218.2219 H   0  0  0  0  0  0  0  0  0  0  0  0
  142.5459   76.3392  220.5407 H   0  0  0  0  0  0  0  0  0  0  0  0
  142.0865   72.7771  220.2650 H   0  0  0  0  0  0  0  0  0  0  0  0
  143.8441   71.1607  220.9005 H   0  0  0  0  0  0  0  0  0  0  0  0
  146.1680   71.9709  221.2643 H   0  0  0  0  0  0  0  0  0  0  0  0
  146.7022   74.4013  220.9801 H   0  0  0  0  0  0  0  0  0  0  0  0
  144.9126   75.9604  220.3380 H   0  0  0  0  0  0  0  0  0  0  0  0
  138.7393   68.8991  222.9180 H   0  0  0  0  0  0  0  0  0  0  0  0
  139.0220   67.4279  224.8977 H   0  0  0  0  0  0  0  0  0  0  0  0
  139.7641   67.1894  227.1416 H   0  0  0  0  0  0  0  0  0  0  0  0
  141.5099   70.5288  229.2407 H   0  0  0  0  0  0  0  0  0  0  0  0
  141.1928   71.9405  227.2244 H   0  0  0  0  0  0  0  0  0  0  0  0
  1  2  2  0
  2  3  1  0
  3  4  1  0
  4  5  1  0
  5  6  2  0
  5  7  1  0
  7  8  1  0
  8  9  1  0
  9 10  1  0
 10 11  1  0
 11 12  1  0
 12 13  1  0
 13 14  2  0
 14 15  1  0
 15 16  2  0
 16 17  1  0
 17 18  2  0
  2 19  1  0
 19 20  2  0
 20 21  1  0
 21 22  2  0
 22 23  1  0
 23 24  2  0
 24 25  1  0
 24 26  1  0
 26 27  2  0
 27 28  1  0
 28 29  2  0
 12  7  1  0
 18 13  1  0
 29 19  1  0
 28 22  1  0
  3 30  1  0
  4 31  1  0
  4 32  1  0
  8 33  1  0
  8 34  1  0
  9 35  1  0
  9 36  1  0
 10 37  1  0
 10 38  1  0
 11 39  1  0
 11 40  1  0
 12 41  1  1
 14 42  1  0
 15 43  1  0
 16 44  1  0
 17 45  1  0
 18 46  1  0
 20 47  1  0
 21 48  1  0
 23 49  1  0
 26 50  1  0
 27 51  1  0
M  END
>  <smiles>  (16) 
O=C(NCC(=O)N1CCCCC1c1ccccc1)c1ccc2cc(F)ccc2n1

>  <score_type>  (16) 
oracle

>  <origin>  (16) 
autodockgpu

>  <m_score__min__energy>  (16) 
-9.2699999999999996

>  <m_primary>  (16) 
energy

>  <rmsd>  (16) 
1.4709990127962203

>  <m_score__min__rmsd>  (16) 
1.4709990127962203

>  <meeko>  (16) 
{"free_energy": -8.03, "intermolecular_energy": -9.52, "internal_energy": -1.96, "cluster_size": 13, "cluster_id": 3, "rank_in_cluster": 13}

>  <energy>  (16) 
-8.68

>  <cluster_rmsd>  (16) 
0.49

>  <cluster>  (16) 
2

$$$$

     RDKit          3D

 51 54  0  0  0  0  0  0  0  0999 V2000
  136.1880   77.4870  222.8580 O   0  0  0  0  0  0  0  0  0  0  0  0
  136.4290   76.2990  223.2460 C   0  0  0  0  0  0  0  0  0  0  0  0
  137.5950   75.6450  222.7640 N   0  0  0  0  0  0  0  0  0  0  0  0
  138.4870   76.3460  221.8400 C   0  0  0  0  0  0  0  0  0  0  0  0
  139.7310   75.6040  221.6170 C   0  0  0  0  0  0  0  0  0  0  0  0
  139.9380   74.5750  222.3160 O   0  0  0  0  0  0  0  0  0  0  0  0
  140.7300   75.9470  220.6730 N   0  0  0  0  0  0  0  0  0  0  0  0
  141.4900   74.8850  220.0470 C   0  0  0  0  0  0  0  0  0  0  0  0
  142.9690   75.0750  220.1890 C   0  0  0  0  0  0  0  0  0  0  0  0
  143.3470   76.4460  219.7150 C   0  0  0  0  0  0  0  0  0  0  0  0
  142.1540   77.2450  219.2600 C   0  0  0  0  0  0  0  0  0  0  0  0
  141.0490   77.3040  220.2830 C   0  0  2  0  0  0  0  0  0  0  0  0
  141.4500   78.1800  221.3950 C   0  0  0  0  0  0  0  0  0  0  0  0
  141.8260   79.4820  221.2940 C   0  0  0  0  0  0  0  0  0  0  0  0
  142.1830   80.2600  222.3860 C   0  0  0  0  0  0  0  0  0  0  0  0
  142.1580   79.6880  223.6400 C   0  0  0  0  0  0  0  0  0  0  0  0
  141.7800   78.3520  223.7970 C   0  0  0  0  0  0  0  0  0  0  0  0
  141.4360   77.6310  222.6840 C   0  0  0  0  0  0  0  0  0  0  0  0
  135.5170   75.6320  224.1680 C   0  0  0  0  0  0  0  0  0  0  0  0
  134.6480   76.3850  224.9290 C   0  0  0  0  0  0  0  0  0  0  0  0
  133.7550   75.8320  225.8250 C   0  0  0  0  0  0  0  0  0  0  0  0
  133.7620   74.4570  225.9350 C   0  0  0  0  0  0  0  0  0  0  0  0
  132.8910   73.8730  226.8130 C   0  0  0  0  0  0  0  0  0  0  0  0
  132.8970   72.5020  226.9230 C   0  0  0  0  0  0  0  0  0  0  0  0
  132.0320   71.9030  227.7960 F   0  0  0  0  0  0  0  0  0  0  0  0
  133.7430   71.7010  226.1880 C   0  0  0  0  0  0  0  0  0  0  0  0
  134.6090   72.3160  225.3130 C   0  0  0  0  0  0  0  0  0  0  0  0
  134.6380   73.6880  225.1690 C   0  0  0  0  0  0  0  0  0  0  0  0
  135.4950   74.2860  224.3030 N   0  0  0  0  0  0  0  0  0  0  0  0
  137.7810   74.6670  223.0910 H   0  0  0  0  0  0  0  0  0  0  0  0
  137.9718   76.4752  220.8767 H   0  0  0  0  0  0  0  0  0  0  0  0
  138.7439   77.3189  222.2843 H   0  0  0  0  0  0  0  0  0  0  0  0
  141.2110   73.9292  220.5145 H   0  0  0  0  0  0  0  0  0  0  0  0
  141.2542   74.8949  218.9726 H   0  0  0  0  0  0  0  0  0  0  0  0
  143.2530   74.9616  221.2456 H   0  0  0  0  0  0  0  0  0  0  0  0
  143.4942   74.3213  219.5839 H   0  0  0  0  0  0  0  0  0  0  0  0
  143.8376   76.9825  220.5405 H   0  0  0  0  0  0  0  0  0  0  0  0
  144.0210   76.3292  218.8536 H   0  0  0  0  0  0  0  0  0  0  0  0
  142.4839   78.2717  219.0432 H   0  0  0  0  0  0  0  0  0  0  0  0
  141.7467   76.7430  218.3700 H   0  0  0  0  0  0  0  0  0  0  0  0
  140.1292   77.7505  219.8773 H   0  0  0  0  0  0  0  0  0  0  0  0
  141.8485   79.9427  220.2954 H   0  0  0  0  0  0  0  0  0  0  0  0
  142.4797   81.3110  222.2539 H   0  0  0  0  0  0  0  0  0  0  0  0
  142.4367   80.2856  224.5204 H   0  0  0  0  0  0  0  0  0  0  0  0
  141.7590   77.8884  224.7943 H   0  0  0  0  0  0  0  0  0  0  0  0
  141.1370   76.5796  222.8072 H   0  0  0  0  0  0  0  0  0  0  0  0
  134.6672   77.4791  224.8168 H   0  0  0  0  0  0  0  0  0  0  0  0
  133.0727   76.4561  226.4208 H   0  0  0  0  0  0  0  0  0  0  0  0
  132.2032   74.4842  227.4158 H   0  0  0  0  0  0  0  0  0  0  0  0
  133.7269   70.6065  226.2968 H   0  0  0  0  0  0  0  0  0  0  0  0
  135.2947   71.6989  224.7139 H   0  0  0  0  0  0  0  0  0  0  0  0
  1  2  2  0
  2  3  1  0
  3  4  1  0
  4  5  1  0
  5  6  2  0
  5  7  1  0
  7  8  1  0
  8  9  1  0
  9 10  1  0
 10 11  1  0
 11 12  1  0
 12 13  1  0
 13 14  2  0
 14 15  1  0
 15 16  2  0
 16 17  1  0
 17 18  2  0
  2 19  1  0
 19 20  2  0
 20 21  1  0
 21 22  2  0
 22 23  1  0
 23 24  2  0
 24 25  1  0
 24 26  1  0
 26 27  2  0
 27 28  1  0
 28 29  2  0
 12  7  1  0
 18 13  1  0
 29 19  1  0
 28 22  1  0
  3 30  1  0
  4 31  1  0
  4 32  1  0
  8 33  1  0
  8 34  1  0
  9 35  1  0
  9 36  1  0
 10 37  1  0
 10 38  1  0
 11 39  1  0
 11 40  1  0
 12 41  1  6
 14 42  1  0
 15 43  1  0
 16 44  1  0
 17 45  1  0
 18 46  1  0
 20 47  1  0
 21 48  1  0
 23 49  1  0
 26 50  1  0
 27 51  1  0
M  END
>  <smiles>  (17) 
O=C(NCC(=O)N1CCCCC1c1ccccc1)c1ccc2cc(F)ccc2n1

>  <score_type>  (17) 
oracle

>  <origin>  (17) 
autodockgpu

>  <m_score__min__energy>  (17) 
-9.2699999999999996

>  <m_primary>  (17) 
energy

>  <rmsd>  (17) 
5.8894609455467375

>  <m_score__min__rmsd>  (17) 
5.8894609455467375

>  <meeko>  (17) 
{"free_energy": -7.77, "intermolecular_energy": -9.26, "internal_energy": -1.78, "cluster_size": 7, "cluster_id": 4, "rank_in_cluster": 7}

>  <energy>  (17) 
-8.68

>  <cluster_rmsd>  (17) 
0.49

>  <cluster>  (17) 
2

$$$$

     RDKit          3D

 51 54  0  0  0  0  0  0  0  0999 V2000
  141.1880   71.7640  221.4580 O   0  0  0  0  0  0  0  0  0  0  0  0
  140.5340   72.2870  222.4170 C   0  0  0  0  0  0  0  0  0  0  0  0
  140.0950   73.6330  222.2920 N   0  0  0  0  0  0  0  0  0  0  0  0
  140.4010   74.3820  221.0740 C   0  0  0  0  0  0  0  0  0  0  0  0
  140.0350   75.7960  221.1980 C   0  0  0  0  0  0  0  0  0  0  0  0
  139.3430   76.1410  222.1940 O   0  0  0  0  0  0  0  0  0  0  0  0
  140.3970   76.8170  220.2860 N   0  0  0  0  0  0  0  0  0  0  0  0
  140.9640   76.4400  219.0080 C   0  0  0  0  0  0  0  0  0  0  0  0
  142.2750   77.1120  218.7380 C   0  0  0  0  0  0  0  0  0  0  0  0
  142.1250   78.5930  218.9170 C   0  0  0  0  0  0  0  0  0  0  0  0
  140.7320   78.9830  219.3340 C   0  0  0  0  0  0  0  0  0  0  0  0
  140.2380   78.2330  220.5440 C   0  0  2  0  0  0  0  0  0  0  0  0
  140.9370   78.7150  221.7450 C   0  0  0  0  0  0  0  0  0  0  0  0
  141.1370   78.0140  222.8920 C   0  0  0  0  0  0  0  0  0  0  0  0
  141.8170   78.5230  223.9900 C   0  0  0  0  0  0  0  0  0  0  0  0
  142.3150   79.8060  223.9190 C   0  0  0  0  0  0  0  0  0  0  0  0
  142.1350   80.5690  222.7630 C   0  0  0  0  0  0  0  0  0  0  0  0
  141.4580   80.0150  221.7090 C   0  0  0  0  0  0  0  0  0  0  0  0
  140.2460   71.5080  223.6160 C   0  0  0  0  0  0  0  0  0  0  0  0
  139.5050   70.3500  223.5130 C   0  0  0  0  0  0  0  0  0  0  0  0
  139.1890   69.5570  224.5990 C   0  0  0  0  0  0  0  0  0  0  0  0
  139.6560   69.9760  225.8280 C   0  0  0  0  0  0  0  0  0  0  0  0
  139.3620   69.2160  226.9260 C   0  0  0  0  0  0  0  0  0  0  0  0
  139.8270   69.6340  228.1510 C   0  0  0  0  0  0  0  0  0  0  0  0
  139.5420   68.8850  229.2580 F   0  0  0  0  0  0  0  0  0  0  0  0
  140.5710   70.7810  228.3120 C   0  0  0  0  0  0  0  0  0  0  0  0
  140.8510   71.5270  227.1890 C   0  0  0  0  0  0  0  0  0  0  0  0
  140.4060   71.1470  225.9400 C   0  0  0  0  0  0  0  0  0  0  0  0
  140.6870   71.8880  224.8380 N   0  0  0  0  0  0  0  0  0  0  0  0
  139.5560   74.0500  223.0880 H   0  0  0  0  0  0  0  0  0  0  0  0
  141.4801   74.3098  220.8733 H   0  0  0  0  0  0  0  0  0  0  0  0
  139.8156   73.9483  220.2498 H   0  0  0  0  0  0  0  0  0  0  0  0
  141.1180   75.3509  218.9986 H   0  0  0  0  0  0  0  0  0  0  0  0
  140.2598   76.7573  218.2248 H   0  0  0  0  0  0  0  0  0  0  0  0
  143.0325   76.7329  219.4398 H   0  0  0  0  0  0  0  0  0  0  0  0
  142.5905   76.8980  217.7062 H   0  0  0  0  0  0  0  0  0  0  0  0
  142.8320   78.9287  219.6899 H   0  0  0  0  0  0  0  0  0  0  0  0
  142.3307   79.0703  217.9475 H   0  0  0  0  0  0  0  0  0  0  0  0
  140.7250   80.0588  219.5636 H   0  0  0  0  0  0  0  0  0  0  0  0
  140.0607   78.7318  218.4996 H   0  0  0  0  0  0  0  0  0  0  0  0
  139.1698   78.4114  220.7366 H   0  0  0  0  0  0  0  0  0  0  0  0
  140.7394   76.9902  222.9535 H   0  0  0  0  0  0  0  0  0  0  0  0
  141.9553   77.9157  224.8967 H   0  0  0  0  0  0  0  0  0  0  0  0
  142.8568   80.2312  224.7767 H   0  0  0  0  0  0  0  0  0  0  0  0
  142.5290   81.5941  222.7003 H   0  0  0  0  0  0  0  0  0  0  0  0
  141.3177   80.6149  220.7977 H   0  0  0  0  0  0  0  0  0  0  0  0
  139.1485   70.0429  222.5187 H   0  0  0  0  0  0  0  0  0  0  0  0
  138.5949   68.6377  224.4896 H   0  0  0  0  0  0  0  0  0  0  0  0
  138.7690   68.2943  226.8320 H   0  0  0  0  0  0  0  0  0  0  0  0
  140.9298   71.0912  229.3045 H   0  0  0  0  0  0  0  0  0  0  0  0
  141.4438   72.4481  227.2904 H   0  0  0  0  0  0  0  0  0  0  0  0
  1  2  2  0
  2  3  1  0
  3  4  1  0
  4  5  1  0
  5  6  2  0
  5  7  1  0
  7  8  1  0
  8  9  1  0
  9 10  1  0
 10 11  1  0
 11 12  1  0
 12 13  1  0
 13 14  2  0
 14 15  1  0
 15 16  2  0
 16 17  1  0
 17 18  2  0
  2 19  1  0
 19 20  2  0
 20 21  1  0
 21 22  2  0
 22 23  1  0
 23 24  2  0
 24 25  1  0
 24 26  1  0
 26 27  2  0
 27 28  1  0
 28 29  2  0
 12  7  1  0
 18 13  1  0
 29 19  1  0
 28 22  1  0
  3 30  1  0
  4 31  1  0
  4 32  1  0
  8 33  1  0
  8 34  1  0
  9 35  1  0
  9 36  1  0
 10 37  1  0
 10 38  1  0
 11 39  1  0
 11 40  1  0
 12 41  1  1
 14 42  1  0
 15 43  1  0
 16 44  1  0
 17 45  1  0
 18 46  1  0
 20 47  1  0
 21 48  1  0
 23 49  1  0
 26 50  1  0
 27 51  1  0
M  END
>  <smiles>  (18) 
O=C(NCC(=O)N1CCCCC1c1ccccc1)c1ccc2cc(F)ccc2n1

>  <score_type>  (18) 
oracle

>  <origin>  (18) 
autodockgpu

>  <m_score__min__energy>  (18) 
-9.2699999999999996

>  <m_primary>  (18) 
energy

>  <rmsd>  (18) 
2.023977666624609

>  <m_score__min__rmsd>  (18) 
2.023977666624609

>  <meeko>  (18) 
{"free_energy": -8.74, "intermolecular_energy": -10.23, "internal_energy": -1.55, "cluster_size": 27, "cluster_id": 2, "rank_in_cluster": 10}

>  <energy>  (18) 
-8.67

>  <cluster_rmsd>  (18) 
0.56

>  <cluster>  (18) 
2

$$$$

     RDKit          3D

 51 54  0  0  0  0  0  0  0  0999 V2000
  140.9780   73.8180  220.6840 O   0  0  0  0  0  0  0  0  0  0  0  0
  140.4250   74.6160  221.5080 C   0  0  0  0  0  0  0  0  0  0  0  0
  139.3970   74.1210  222.3540 N   0  0  0  0  0  0  0  0  0  0  0  0
  138.9990   72.7170  222.2630 C   0  0  0  0  0  0  0  0  0  0  0  0
  139.8390   71.8570  223.1010 C   0  0  0  0  0  0  0  0  0  0  0  0
  141.0100   72.2490  223.3610 O   0  0  0  0  0  0  0  0  0  0  0  0
  139.4450   70.6120  223.6490 N   0  0  0  0  0  0  0  0  0  0  0  0
  138.2050   70.0150  223.1970 C   0  0  0  0  0  0  0  0  0  0  0  0
  137.2850   69.6730  224.3290 C   0  0  0  0  0  0  0  0  0  0  0  0
  138.0200   68.8460  225.3400 C   0  0  0  0  0  0  0  0  0  0  0  0
  139.4570   68.6130  224.9560 C   0  0  0  0  0  0  0  0  0  0  0  0
  140.2050   69.8820  224.6410 C   0  0  2  0  0  0  0  0  0  0  0  0
  140.4590   70.6280  225.8830 C   0  0  0  0  0  0  0  0  0  0  0  0
  141.1190   71.8120  225.9860 C   0  0  0  0  0  0  0  0  0  0  0  0
  141.3180   72.4740  227.1890 C   0  0  0  0  0  0  0  0  0  0  0  0
  140.8240   71.9050  228.3430 C   0  0  0  0  0  0  0  0  0  0  0  0
  140.1390   70.6890  228.2910 C   0  0  0  0  0  0  0  0  0  0  0  0
  139.9710   70.0800  227.0760 C   0  0  0  0  0  0  0  0  0  0  0  0
  140.8500   76.0100  221.5720 C   0  0  0  0  0  0  0  0  0  0  0  0
  141.5660   76.5520  220.5250 C   0  0  0  0  0  0  0  0  0  0  0  0
  142.0050   77.8610  220.5080 C   0  0  0  0  0  0  0  0  0  0  0  0
  141.6920   78.6320  221.6090 C   0  0  0  0  0  0  0  0  0  0  0  0
  142.1110   79.9340  221.6280 C   0  0  0  0  0  0  0  0  0  0  0  0
  141.7980   80.7030  222.7250 C   0  0  0  0  0  0  0  0  0  0  0  0
  142.2100   82.0060  222.7590 F   0  0  0  0  0  0  0  0  0  0  0  0
  141.0860   80.2140  223.7970 C   0  0  0  0  0  0  0  0  0  0  0  0
  140.6780   78.9000  223.7510 C   0  0  0  0  0  0  0  0  0  0  0  0
  140.9680   78.0910  222.6710 C   0  0  0  0  0  0  0  0  0  0  0  0
  140.5610   76.7970  222.6340 N   0  0  0  0  0  0  0  0  0  0  0  0
  138.9510   74.7890  223.0280 H   0  0  0  0  0  0  0  0  0  0  0  0
  137.9533   72.6215  222.5908 H   0  0  0  0  0  0  0  0  0  0  0  0
  139.1169   72.3956  221.2176 H   0  0  0  0  0  0  0  0  0  0  0  0
  137.6944   70.7253  222.5301 H   0  0  0  0  0  0  0  0  0  0  0  0
  138.4557   69.0789  222.6765 H   0  0  0  0  0  0  0  0  0  0  0  0
  136.9276   70.5990  224.8032 H   0  0  0  0  0  0  0  0  0  0  0  0
  136.4270   69.1026  223.9437 H   0  0  0  0  0  0  0  0  0  0  0  0
  137.9932   69.3664  226.3087 H   0  0  0  0  0  0  0  0  0  0  0  0
  137.5245   67.8655  225.3951 H   0  0  0  0  0  0  0  0  0  0  0  0
  139.9637   68.1077  225.7914 H   0  0  0  0  0  0  0  0  0  0  0  0
  139.4539   68.0021  224.0412 H   0  0  0  0  0  0  0  0  0  0  0  0
  141.1978   69.6842  224.2106 H   0  0  0  0  0  0  0  0  0  0  0  0
  141.5160   72.2691  225.0676 H   0  0  0  0  0  0  0  0  0  0  0  0
  141.8581   73.4318  227.2210 H   0  0  0  0  0  0  0  0  0  0  0  0
  140.9698   72.4107  229.3089 H   0  0  0  0  0  0  0  0  0  0  0  0
  139.7422   70.2294  229.2082 H   0  0  0  0  0  0  0  0  0  0  0  0
  139.4313   69.1224  227.0354 H   0  0  0  0  0  0  0  0  0  0  0  0
  141.7984   75.9106  219.6621 H   0  0  0  0  0  0  0  0  0  0  0  0
  142.5752   78.2685  219.6601 H   0  0  0  0  0  0  0  0  0  0  0  0
  142.6832   80.3551  220.7882 H   0  0  0  0  0  0  0  0  0  0  0  0
  140.8509   80.8521  224.6616 H   0  0  0  0  0  0  0  0  0  0  0  0
  140.1074   78.4850  224.5949 H   0  0  0  0  0  0  0  0  0  0  0  0
  1  2  2  0
  2  3  1  0
  3  4  1  0
  4  5  1  0
  5  6  2  0
  5  7  1  0
  7  8  1  0
  8  9  1  0
  9 10  1  0
 10 11  1  0
 11 12  1  0
 12 13  1  0
 13 14  2  0
 14 15  1  0
 15 16  2  0
 16 17  1  0
 17 18  2  0
  2 19  1  0
 19 20  2  0
 20 21  1  0
 21 22  2  0
 22 23  1  0
 23 24  2  0
 24 25  1  0
 24 26  1  0
 26 27  2  0
 27 28  1  0
 28 29  2  0
 12  7  1  0
 18 13  1  0
 29 19  1  0
 28 22  1  0
  3 30  1  0
  4 31  1  0
  4 32  1  0
  8 33  1  0
  8 34  1  0
  9 35  1  0
  9 36  1  0
 10 37  1  0
 10 38  1  0
 11 39  1  0
 11 40  1  0
 12 41  1  6
 14 42  1  0
 15 43  1  0
 16 44  1  0
 17 45  1  0
 18 46  1  0
 20 47  1  0
 21 48  1  0
 23 49  1  0
 26 50  1  0
 27 51  1  0
M  END
>  <smiles>  (19) 
O=C(NCC(=O)N1CCCCC1c1ccccc1)c1ccc2cc(F)ccc2n1

>  <score_type>  (19) 
oracle

>  <origin>  (19) 
autodockgpu

>  <m_score__min__energy>  (19) 
-9.2699999999999996

>  <m_primary>  (19) 
energy

>  <rmsd>  (19) 
8.706016734763116

>  <m_score__min__rmsd>  (19) 
8.706016734763116

>  <meeko>  (19) 
{"free_energy": -9.24, "intermolecular_energy": -10.73, "internal_energy": -1.13, "cluster_size": 2, "cluster_id": 1, "rank_in_cluster": 2}

>  <energy>  (19) 
-8.67

>  <cluster_rmsd>  (19) 
0.74

>  <cluster>  (19) 
2

$$$$

     RDKit          3D

 51 54  0  0  0  0  0  0  0  0999 V2000
  141.0630   72.1700  221.4980 O   0  0  0  0  0  0  0  0  0  0  0  0
  140.2090   72.3890  222.4160 C   0  0  0  0  0  0  0  0  0  0  0  0
  139.3270   73.4960  222.2810 N   0  0  0  0  0  0  0  0  0  0  0  0
  139.4190   74.3530  221.0990 C   0  0  0  0  0  0  0  0  0  0  0  0
  140.4580   75.3750  221.2460 C   0  0  0  0  0  0  0  0  0  0  0  0
  141.0870   75.4240  222.3380 O   0  0  0  0  0  0  0  0  0  0  0  0
  140.8210   76.3210  220.2570 N   0  0  0  0  0  0  0  0  0  0  0  0
  141.5980   75.8740  219.1190 C   0  0  0  0  0  0  0  0  0  0  0  0
  142.8470   76.6790  218.9230 C   0  0  0  0  0  0  0  0  0  0  0  0
  142.5020   78.1370  218.8820 C   0  0  0  0  0  0  0  0  0  0  0  0
  141.0280   78.3840  219.0700 C   0  0  0  0  0  0  0  0  0  0  0  0
  140.4630   77.7230  220.3000 C   0  0  2  0  0  0  0  0  0  0  0  0
  140.9290   78.4320  221.5020 C   0  0  0  0  0  0  0  0  0  0  0  0
  142.1840   78.9090  221.7150 C   0  0  0  0  0  0  0  0  0  0  0  0
  142.5600   79.5820  222.8690 C   0  0  0  0  0  0  0  0  0  0  0  0
  141.6160   79.7790  223.8540 C   0  0  0  0  0  0  0  0  0  0  0  0
  140.3120   79.3080  223.6840 C   0  0  0  0  0  0  0  0  0  0  0  0
  139.9960   78.6510  222.5240 C   0  0  0  0  0  0  0  0  0  0  0  0
  140.1460   71.5130  223.5800 C   0  0  0  0  0  0  0  0  0  0  0  0
  139.5700   70.2660  223.4620 C   0  0  0  0  0  0  0  0  0  0  0  0
  139.4700   69.3770  224.5140 C   0  0  0  0  0  0  0  0  0  0  0  0
  139.9850   69.7930  225.7250 C   0  0  0  0  0  0  0  0  0  0  0  0
  139.9040   68.9390  226.7910 C   0  0  0  0  0  0  0  0  0  0  0  0
  140.4170   69.3530  227.9970 C   0  0  0  0  0  0  0  0  0  0  0  0
  140.3440   68.5110  229.0720 F   0  0  0  0  0  0  0  0  0  0  0  0
  141.0040   70.5870  228.1720 C   0  0  0  0  0  0  0  0  0  0  0  0
  141.0700   71.4250  227.0820 C   0  0  0  0  0  0  0  0  0  0  0  0
  140.5690   71.0520  225.8520 C   0  0  0  0  0  0  0  0  0  0  0  0
  140.6400   71.8860  224.7830 N   0  0  0  0  0  0  0  0  0  0  0  0
  138.6290   73.6640  223.0440 H   0  0  0  0  0  0  0  0  0  0  0  0
  139.6551   73.7289  220.2245 H   0  0  0  0  0  0  0  0  0  0  0  0
  138.4532   74.8639  220.9718 H   0  0  0  0  0  0  0  0  0  0  0  0
  141.8778   74.8216  219.2747 H   0  0  0  0  0  0  0  0  0  0  0  0
  140.9760   75.9993  218.2205 H   0  0  0  0  0  0  0  0  0  0  0  0
  143.5395   76.4896  219.7564 H   0  0  0  0  0  0  0  0  0  0  0  0
  143.3245   76.3890  217.9754 H   0  0  0  0  0  0  0  0  0  0  0  0
  143.0516   78.6527  219.6833 H   0  0  0  0  0  0  0  0  0  0  0  0
  142.7823   78.5201  217.8897 H   0  0  0  0  0  0  0  0  0  0  0  0
  140.8636   79.4687  219.1503 H   0  0  0  0  0  0  0  0  0  0  0  0
  140.5123   77.9487  218.2014 H   0  0  0  0  0  0  0  0  0  0  0  0
  139.3649   77.7789  220.3342 H   0  0  0  0  0  0  0  0  0  0  0  0
  142.9408   78.7535  220.9320 H   0  0  0  0  0  0  0  0  0  0  0  0
  143.5889   79.9502  222.9949 H   0  0  0  0  0  0  0  0  0  0  0  0
  141.8907   80.3093  224.7777 H   0  0  0  0  0  0  0  0  0  0  0  0
  139.5538   79.4615  224.4660 H   0  0  0  0  0  0  0  0  0  0  0  0
  138.9689   78.2807  222.3897 H   0  0  0  0  0  0  0  0  0  0  0  0
  139.1707   69.9646  222.4824 H   0  0  0  0  0  0  0  0  0  0  0  0
  139.0038   68.3881  224.3930 H   0  0  0  0  0  0  0  0  0  0  0  0
  139.4404   67.9470  226.6855 H   0  0  0  0  0  0  0  0  0  0  0  0
  141.4062   70.8922  229.1493 H   0  0  0  0  0  0  0  0  0  0  0  0
  141.5335   72.4162  227.1945 H   0  0  0  0  0  0  0  0  0  0  0  0
  1  2  2  0
  2  3  1  0
  3  4  1  0
  4  5  1  0
  5  6  2  0
  5  7  1  0
  7  8  1  0
  8  9  1  0
  9 10  1  0
 10 11  1  0
 11 12  1  0
 12 13  1  0
 13 14  2  0
 14 15  1  0
 15 16  2  0
 16 17  1  0
 17 18  2  0
  2 19  1  0
 19 20  2  0
 20 21  1  0
 21 22  2  0
 22 23  1  0
 23 24  2  0
 24 25  1  0
 24 26  1  0
 26 27  2  0
 27 28  1  0
 28 29  2  0
 12  7  1  0
 18 13  1  0
 29 19  1  0
 28 22  1  0
  3 30  1  0
  4 31  1  0
  4 32  1  0
  8 33  1  0
  8 34  1  0
  9 35  1  0
  9 36  1  0
 10 37  1  0
 10 38  1  0
 11 39  1  0
 11 40  1  0
 12 41  1  6
 14 42  1  0
 15 43  1  0
 16 44  1  0
 17 45  1  0
 18 46  1  0
 20 47  1  0
 21 48  1  0
 23 49  1  0
 26 50  1  0
 27 51  1  0
M  END
>  <smiles>  (20) 
O=C(NCC(=O)N1CCCCC1c1ccccc1)c1ccc2cc(F)ccc2n1

>  <score_type>  (20) 
oracle

>  <origin>  (20) 
autodockgpu

>  <m_score__min__energy>  (20) 
-9.2699999999999996

>  <m_primary>  (20) 
energy

>  <rmsd>  (20) 
1.7736835705427656

>  <m_score__min__rmsd>  (20) 
1.7736835705427656

>  <meeko>  (20) 
{"free_energy": -8.99, "intermolecular_energy": -10.48, "internal_energy": -1.3, "cluster_size": 27, "cluster_id": 2, "rank_in_cluster": 1}

>  <energy>  (20) 
-8.65

>  <cluster_rmsd>  (20) 
0.6

>  <cluster>  (20) 
2

$$$$

     RDKit          3D

 51 54  0  0  0  0  0  0  0  0999 V2000
  140.9400   71.8540  221.3040 O   0  0  0  0  0  0  0  0  0  0  0  0
  140.2760   72.3030  222.2930 C   0  0  0  0  0  0  0  0  0  0  0  0
  139.6810   73.5890  222.1910 N   0  0  0  0  0  0  0  0  0  0  0  0
  139.8440   74.3650  220.9610 C   0  0  0  0  0  0  0  0  0  0  0  0
  140.5810   75.6100  221.1960 C   0  0  0  0  0  0  0  0  0  0  0  0
  141.0690   75.7990  222.3430 O   0  0  0  0  0  0  0  0  0  0  0  0
  140.7940   76.6270  220.2350 N   0  0  0  0  0  0  0  0  0  0  0  0
  141.4940   76.2930  219.0110 C   0  0  0  0  0  0  0  0  0  0  0  0
  142.6670   77.1890  218.7550 C   0  0  0  0  0  0  0  0  0  0  0  0
  142.2300   78.6210  218.8270 C   0  0  0  0  0  0  0  0  0  0  0  0
  140.7660   78.7580  219.1540 C   0  0  0  0  0  0  0  0  0  0  0  0
  140.3560   77.9980  220.3890 C   0  0  2  0  0  0  0  0  0  0  0  0
  140.8810   78.6750  221.5850 C   0  0  0  0  0  0  0  0  0  0  0  0
  142.1810   78.9990  221.8160 C   0  0  0  0  0  0  0  0  0  0  0  0
  142.6130   79.6500  222.9630 C   0  0  0  0  0  0  0  0  0  0  0  0
  141.6810   79.9850  223.9210 C   0  0  0  0  0  0  0  0  0  0  0  0
  140.3330   79.6730  223.7320 C   0  0  0  0  0  0  0  0  0  0  0  0
  139.9620   79.0310  222.5800 C   0  0  0  0  0  0  0  0  0  0  0  0
  140.1330   71.5000  223.5020 C   0  0  0  0  0  0  0  0  0  0  0  0
  139.4380   70.3100  223.4510 C   0  0  0  0  0  0  0  0  0  0  0  0
  139.2580   69.4930  224.5500 C   0  0  0  0  0  0  0  0  0  0  0  0
  139.8160   69.9220  225.7370 C   0  0  0  0  0  0  0  0  0  0  0  0
  139.6580   69.1380  226.8470 C   0  0  0  0  0  0  0  0  0  0  0  0
  140.2140   69.5650  228.0300 C   0  0  0  0  0  0  0  0  0  0  0  0
  140.0650   68.7930  229.1480 F   0  0  0  0  0  0  0  0  0  0  0  0
  140.9190   70.7430  228.1380 C   0  0  0  0  0  0  0  0  0  0  0  0
  141.0610   71.5120  227.0050 C   0  0  0  0  0  0  0  0  0  0  0  0
  140.5210   71.1240  225.7970 C   0  0  0  0  0  0  0  0  0  0  0  0
  140.6670   71.8880  224.6840 N   0  0  0  0  0  0  0  0  0  0  0  0
  139.1360   73.9460  223.0120 H   0  0  0  0  0  0  0  0  0  0  0  0
  140.3951   73.7581  220.2276 H   0  0  0  0  0  0  0  0  0  0  0  0
  138.8432   74.6258  220.5864 H   0  0  0  0  0  0  0  0  0  0  0  0
  141.8522   75.2554  219.0820 H   0  0  0  0  0  0  0  0  0  0  0  0
  140.7879   76.4225  218.1776 H   0  0  0  0  0  0  0  0  0  0  0  0
  143.4417   77.0039  219.5137 H   0  0  0  0  0  0  0  0  0  0  0  0
  143.0746   76.9809  217.7547 H   0  0  0  0  0  0  0  0  0  0  0  0
  142.8154   79.1304  219.6066 H   0  0  0  0  0  0  0  0  0  0  0  0
  142.3969   79.0731  217.8382 H   0  0  0  0  0  0  0  0  0  0  0  0
  140.5415   79.8236  219.3095 H   0  0  0  0  0  0  0  0  0  0  0  0
  140.2031   78.3340  218.3094 H   0  0  0  0  0  0  0  0  0  0  0  0
  139.2642   77.9777  220.5214 H   0  0  0  0  0  0  0  0  0  0  0  0
  142.9287   78.7315  221.0548 H   0  0  0  0  0  0  0  0  0  0  0  0
  143.6764   79.8933  223.1043 H   0  0  0  0  0  0  0  0  0  0  0  0
  142.0002   80.5005  224.8388 H   0  0  0  0  0  0  0  0  0  0  0  0
  139.5840   79.9374  224.4929 H   0  0  0  0  0  0  0  0  0  0  0  0
  138.9002   78.7854  222.4306 H   0  0  0  0  0  0  0  0  0  0  0  0
  139.0063   69.9964  222.4890 H   0  0  0  0  0  0  0  0  0  0  0  0
  138.6983   68.5484  224.4825 H   0  0  0  0  0  0  0  0  0  0  0  0
  139.1009   68.1910  226.7945 H   0  0  0  0  0  0  0  0  0  0  0  0
  141.3542   71.0590  229.0976 H   0  0  0  0  0  0  0  0  0  0  0  0
  141.6185   72.4584  227.0648 H   0  0  0  0  0  0  0  0  0  0  0  0
  1  2  2  0
  2  3  1  0
  3  4  1  0
  4  5  1  0
  5  6  2  0
  5  7  1  0
  7  8  1  0
  8  9  1  0
  9 10  1  0
 10 11  1  0
 11 12  1  0
 12 13  1  0
 13 14  2  0
 14 15  1  0
 15 16  2  0
 16 17  1  0
 17 18  2  0
  2 19  1  0
 19 20  2  0
 20 21  1  0
 21 22  2  0
 22 23  1  0
 23 24  2  0
 24 25  1  0
 24 26  1  0
 26 27  2  0
 27 28  1  0
 28 29  2  0
 12  7  1  0
 18 13  1  0
 29 19  1  0
 28 22  1  0
  3 30  1  0
  4 31  1  0
  4 32  1  0
  8 33  1  0
  8 34  1  0
  9 35  1  0
  9 36  1  0
 10 37  1  0
 10 38  1  0
 11 39  1  0
 11 40  1  0
 12 41  1  1
 14 42  1  0
 15 43  1  0
 16 44  1  0
 17 45  1  0
 18 46  1  0
 20 47  1  0
 21 48  1  0
 23 49  1  0
 26 50  1  0
 27 51  1  0
M  END
>  <smiles>  (21) 
O=C(NCC(=O)N1CCCCC1c1ccccc1)c1ccc2cc(F)ccc2n1

>  <score_type>  (21) 
oracle

>  <origin>  (21) 
autodockgpu

>  <m_score__min__energy>  (21) 
-9.2699999999999996

>  <m_primary>  (21) 
energy

>  <rmsd>  (21) 
1.8912657188666149

>  <m_score__min__rmsd>  (21) 
1.8912657188666149

>  <meeko>  (21) 
{"free_energy": -8.9, "intermolecular_energy": -10.39, "internal_energy": -1.35, "cluster_size": 27, "cluster_id": 2, "rank_in_cluster": 4}

>  <energy>  (21) 
-8.65

>  <cluster_rmsd>  (21) 
0.59

>  <cluster>  (21) 
2

$$$$

     RDKit          3D

 51 54  0  0  0  0  0  0  0  0999 V2000
  140.9580   71.8590  221.3010 O   0  0  0  0  0  0  0  0  0  0  0  0
  140.2840   72.2620  222.3030 C   0  0  0  0  0  0  0  0  0  0  0  0
  139.6330   73.5230  222.2270 N   0  0  0  0  0  0  0  0  0  0  0  0
  139.7510   74.3250  221.0100 C   0  0  0  0  0  0  0  0  0  0  0  0
  140.7960   75.3450  221.1280 C   0  0  0  0  0  0  0  0  0  0  0  0
  141.1030   75.7440  222.2840 O   0  0  0  0  0  0  0  0  0  0  0  0
  141.4970   75.9270  220.0440 N   0  0  0  0  0  0  0  0  0  0  0  0
  140.7410   76.4340  218.9180 C   0  0  0  0  0  0  0  0  0  0  0  0
  141.2000   75.8650  217.6110 C   0  0  0  0  0  0  0  0  0  0  0  0
  142.6820   76.0530  217.4760 C   0  0  0  0  0  0  0  0  0  0  0  0
  143.2870   76.7270  218.6790 C   0  0  0  0  0  0  0  0  0  0  0  0
  142.9380   76.0540  219.9800 C   0  0  2  0  0  0  0  0  0  0  0  0
  143.6660   74.7800  220.0900 C   0  0  0  0  0  0  0  0  0  0  0  0
  144.9630   74.6290  220.4700 C   0  0  0  0  0  0  0  0  0  0  0  0
  145.5920   73.3960  220.5660 C   0  0  0  0  0  0  0  0  0  0  0  0
  144.8700   72.2620  220.2590 C   0  0  0  0  0  0  0  0  0  0  0  0
  143.5340   72.3640  219.8620 C   0  0  0  0  0  0  0  0  0  0  0  0
  142.9640   73.6070  219.7870 C   0  0  0  0  0  0  0  0  0  0  0  0
  140.1880   71.4340  223.5000 C   0  0  0  0  0  0  0  0  0  0  0  0
  139.5830   70.1970  223.4260 C   0  0  0  0  0  0  0  0  0  0  0  0
  139.4520   69.3540  224.5110 C   0  0  0  0  0  0  0  0  0  0  0  0
  139.9630   69.8060  225.7110 C   0  0  0  0  0  0  0  0  0  0  0  0
  139.8510   68.9980  226.8080 C   0  0  0  0  0  0  0  0  0  0  0  0
  140.3610   69.4480  228.0030 C   0  0  0  0  0  0  0  0  0  0  0  0
  140.2570   68.6520  229.1100 F   0  0  0  0  0  0  0  0  0  0  0  0
  140.9760   70.6740  228.1350 C   0  0  0  0  0  0  0  0  0  0  0  0
  141.0740   71.4660  227.0130 C   0  0  0  0  0  0  0  0  0  0  0  0
  140.5770   71.0560  225.7940 C   0  0  0  0  0  0  0  0  0  0  0  0
  140.6790   71.8440  224.6930 N   0  0  0  0  0  0  0  0  0  0  0  0
  139.0810   73.8420  223.0590 H   0  0  0  0  0  0  0  0  0  0  0  0
  139.9959   73.6604  220.1683 H   0  0  0  0  0  0  0  0  0  0  0  0
  138.7916   74.8369  220.8443 H   0  0  0  0  0  0  0  0  0  0  0  0
  139.6811   76.1767  219.0611 H   0  0  0  0  0  0  0  0  0  0  0  0
  140.8933   77.5227  218.8784 H   0  0  0  0  0  0  0  0  0  0  0  0
  140.9618   74.7917  217.5746 H   0  0  0  0  0  0  0  0  0  0  0  0
  140.6884   76.3826  216.7862 H   0  0  0  0  0  0  0  0  0  0  0  0
  143.1531   75.0671  217.3493 H   0  0  0  0  0  0  0  0  0  0  0  0
  142.8600   76.6998  216.6042 H   0  0  0  0  0  0  0  0  0  0  0  0
  144.3813   76.7234  218.5671 H   0  0  0  0  0  0  0  0  0  0  0  0
  142.8767   77.7467  218.7206 H   0  0  0  0  0  0  0  0  0  0  0  0
  143.2523   76.6467  220.8517 H   0  0  0  0  0  0  0  0  0  0  0  0
  145.5434   75.5310  220.7139 H   0  0  0  0  0  0  0  0  0  0  0  0
  146.6438   73.3246  220.8802 H   0  0  0  0  0  0  0  0  0  0  0  0
  145.3475   71.2734  220.3269 H   0  0  0  0  0  0  0  0  0  0  0  0
  142.9519   71.4640  219.6147 H   0  0  0  0  0  0  0  0  0  0  0  0
  141.9119   73.6871  219.4761 H   0  0  0  0  0  0  0  0  0  0  0  0
  139.1855   69.8661  222.4552 H   0  0  0  0  0  0  0  0  0  0  0  0
  138.9650   68.3715  224.4239 H   0  0  0  0  0  0  0  0  0  0  0  0
  139.3655   68.0135  226.7366 H   0  0  0  0  0  0  0  0  0  0  0  0
  141.3751   71.0086  229.1039 H   0  0  0  0  0  0  0  0  0  0  0  0
  141.5605   72.4495  227.0910 H   0  0  0  0  0  0  0  0  0  0  0  0
  1  2  2  0
  2  3  1  0
  3  4  1  0
  4  5  1  0
  5  6  2  0
  5  7  1  0
  7  8  1  0
  8  9  1  0
  9 10  1  0
 10 11  1  0
 11 12  1  0
 12 13  1  0
 13 14  2  0
 14 15  1  0
 15 16  2  0
 16 17  1  0
 17 18  2  0
  2 19  1  0
 19 20  2  0
 20 21  1  0
 21 22  2  0
 22 23  1  0
 23 24  2  0
 24 25  1  0
 24 26  1  0
 26 27  2  0
 27 28  1  0
 28 29  2  0
 12  7  1  0
 18 13  1  0
 29 19  1  0
 28 22  1  0
  3 30  1  0
  4 31  1  0
  4 32  1  0
  8 33  1  0
  8 34  1  0
  9 35  1  0
  9 36  1  0
 10 37  1  0
 10 38  1  0
 11 39  1  0
 11 40  1  0
 12 41  1  1
 14 42  1  0
 15 43  1  0
 16 44  1  0
 17 45  1  0
 18 46  1  0
 20 47  1  0
 21 48  1  0
 23 49  1  0
 26 50  1  0
 27 51  1  0
M  END
>  <smiles>  (22) 
O=C(NCC(=O)N1CCCCC1c1ccccc1)c1ccc2cc(F)ccc2n1

>  <score_type>  (22) 
oracle

>  <origin>  (22) 
autodockgpu

>  <m_score__min__energy>  (22) 
-9.2699999999999996

>  <m_primary>  (22) 
energy

>  <rmsd>  (22) 
1.7769186760373248

>  <m_score__min__rmsd>  (22) 
1.7769186760373248

>  <meeko>  (22) 
{"free_energy": -8.45, "intermolecular_energy": -9.94, "internal_energy": -1.74, "cluster_size": 13, "cluster_id": 3, "rank_in_cluster": 3}

>  <energy>  (22) 
-8.65

>  <cluster_rmsd>  (22) 
0.58

>  <cluster>  (22) 
2

$$$$

     RDKit          3D

 51 54  0  0  0  0  0  0  0  0999 V2000
  141.2450   72.0640  221.4310 O   0  0  0  0  0  0  0  0  0  0  0  0
  140.3560   72.3680  222.2900 C   0  0  0  0  0  0  0  0  0  0  0  0
  139.5450   73.5110  222.0600 N   0  0  0  0  0  0  0  0  0  0  0  0
  139.7460   74.3090  220.8510 C   0  0  0  0  0  0  0  0  0  0  0  0
  140.3740   75.6000  221.1490 C   0  0  0  0  0  0  0  0  0  0  0  0
  140.6950   75.8380  222.3450 O   0  0  0  0  0  0  0  0  0  0  0  0
  140.6550   76.6100  220.1980 N   0  0  0  0  0  0  0  0  0  0  0  0
  141.3470   76.2460  218.9790 C   0  0  0  0  0  0  0  0  0  0  0  0
  142.5720   77.0750  218.7410 C   0  0  0  0  0  0  0  0  0  0  0  0
  142.2160   78.5290  218.8200 C   0  0  0  0  0  0  0  0  0  0  0  0
  140.7590   78.7470  219.1340 C   0  0  0  0  0  0  0  0  0  0  0  0
  140.2930   78.0030  220.3580 C   0  0  2  0  0  0  0  0  0  0  0  0
  140.8430   78.6400  221.5640 C   0  0  0  0  0  0  0  0  0  0  0  0
  142.1340   79.0220  221.7510 C   0  0  0  0  0  0  0  0  0  0  0  0
  142.5910   79.6300  222.9110 C   0  0  0  0  0  0  0  0  0  0  0  0
  141.6930   79.8600  223.9320 C   0  0  0  0  0  0  0  0  0  0  0  0
  140.3550   79.4850  223.7900 C   0  0  0  0  0  0  0  0  0  0  0  0
  139.9590   78.8890  222.6220 C   0  0  0  0  0  0  0  0  0  0  0  0
  140.1830   71.5470  223.4830 C   0  0  0  0  0  0  0  0  0  0  0  0
  139.4810   70.3630  223.4000 C   0  0  0  0  0  0  0  0  0  0  0  0
  139.2720   69.5310  224.4810 C   0  0  0  0  0  0  0  0  0  0  0  0
  139.8080   69.9370  225.6870 C   0  0  0  0  0  0  0  0  0  0  0  0
  139.6220   69.1380  226.7810 C   0  0  0  0  0  0  0  0  0  0  0  0
  140.1560   69.5410  227.9810 C   0  0  0  0  0  0  0  0  0  0  0  0
  139.9780   68.7540  229.0840 F   0  0  0  0  0  0  0  0  0  0  0  0
  140.8660   70.7130  228.1230 C   0  0  0  0  0  0  0  0  0  0  0  0
  141.0380   71.4980  227.0050 C   0  0  0  0  0  0  0  0  0  0  0  0
  140.5200   71.1330  225.7790 C   0  0  0  0  0  0  0  0  0  0  0  0
  140.6950   71.9130  224.6820 N   0  0  0  0  0  0  0  0  0  0  0  0
  138.8160   73.7490  222.7750 H   0  0  0  0  0  0  0  0  0  0  0  0
  140.3926   73.7499  220.1587 H   0  0  0  0  0  0  0  0  0  0  0  0
  138.7609   74.5035  220.4019 H   0  0  0  0  0  0  0  0  0  0  0  0
  141.6445   75.1891  219.0452 H   0  0  0  0  0  0  0  0  0  0  0  0
  140.6579   76.4223  218.1400 H   0  0  0  0  0  0  0  0  0  0  0  0
  143.3273   76.8406  219.5056 H   0  0  0  0  0  0  0  0  0  0  0  0
  142.9775   76.8510  217.7433 H   0  0  0  0  0  0  0  0  0  0  0  0
  142.8216   78.9986  219.6091 H   0  0  0  0  0  0  0  0  0  0  0  0
  142.4180   78.9778  217.8362 H   0  0  0  0  0  0  0  0  0  0  0  0
  140.5943   79.8225  219.2960 H   0  0  0  0  0  0  0  0  0  0  0  0
  140.1817   78.3619  218.2805 H   0  0  0  0  0  0  0  0  0  0  0  0
  139.2004   78.0438  220.4786 H   0  0  0  0  0  0  0  0  0  0  0  0
  142.8542   78.8394  220.9398 H   0  0  0  0  0  0  0  0  0  0  0  0
  143.6464   79.9222  223.0142 H   0  0  0  0  0  0  0  0  0  0  0  0
  142.0317   80.3406  224.8617 H   0  0  0  0  0  0  0  0  0  0  0  0
  139.6333   79.6648  224.6004 H   0  0  0  0  0  0  0  0  0  0  0  0
  138.9051   78.5942  222.5103 H   0  0  0  0  0  0  0  0  0  0  0  0
  139.0674   70.0673  222.4245 H   0  0  0  0  0  0  0  0  0  0  0  0
  138.7070   68.5919  224.3867 H   0  0  0  0  0  0  0  0  0  0  0  0
  139.0590   68.1963  226.7023 H   0  0  0  0  0  0  0  0  0  0  0  0
  141.2815   71.0116  229.0968 H   0  0  0  0  0  0  0  0  0  0  0  0
  141.6018   72.4386  227.0911 H   0  0  0  0  0  0  0  0  0  0  0  0
  1  2  2  0
  2  3  1  0
  3  4  1  0
  4  5  1  0
  5  6  2  0
  5  7  1  0
  7  8  1  0
  8  9  1  0
  9 10  1  0
 10 11  1  0
 11 12  1  0
 12 13  1  0
 13 14  2  0
 14 15  1  0
 15 16  2  0
 16 17  1  0
 17 18  2  0
  2 19  1  0
 19 20  2  0
 20 21  1  0
 21 22  2  0
 22 23  1  0
 23 24  2  0
 24 25  1  0
 24 26  1  0
 26 27  2  0
 27 28  1  0
 28 29  2  0
 12  7  1  0
 18 13  1  0
 29 19  1  0
 28 22  1  0
  3 30  1  0
  4 31  1  0
  4 32  1  0
  8 33  1  0
  8 34  1  0
  9 35  1  0
  9 36  1  0
 10 37  1  0
 10 38  1  0
 11 39  1  0
 11 40  1  0
 12 41  1  1
 14 42  1  0
 15 43  1  0
 16 44  1  0
 17 45  1  0
 18 46  1  0
 20 47  1  0
 21 48  1  0
 23 49  1  0
 26 50  1  0
 27 51  1  0
M  END
>  <smiles>  (23) 
O=C(NCC(=O)N1CCCCC1c1ccccc1)c1ccc2cc(F)ccc2n1

>  <score_type>  (23) 
oracle

>  <origin>  (23) 
autodockgpu

>  <m_score__min__energy>  (23) 
-9.2699999999999996

>  <m_primary>  (23) 
energy

>  <rmsd>  (23) 
1.863705099544889

>  <m_score__min__rmsd>  (23) 
1.863705099544889

>  <meeko>  (23) 
{"free_energy": -8.94, "intermolecular_energy": -10.44, "internal_energy": -1.27, "cluster_size": 27, "cluster_id": 2, "rank_in_cluster": 2}

>  <energy>  (23) 
-8.59

>  <cluster_rmsd>  (23) 
0.61

>  <cluster>  (23) 
2

$$$$

     RDKit          3D

 51 54  0  0  0  0  0  0  0  0999 V2000
  141.3410   72.3080  221.6730 O   0  0  0  0  0  0  0  0  0  0  0  0
  140.3150   72.4040  222.4200 C   0  0  0  0  0  0  0  0  0  0  0  0
  139.3190   73.3640  222.0930 N   0  0  0  0  0  0  0  0  0  0  0  0
  139.4920   74.2130  220.9150 C   0  0  0  0  0  0  0  0  0  0  0  0
  140.6640   75.0840  221.0390 C   0  0  0  0  0  0  0  0  0  0  0  0
  141.1340   75.2810  222.1930 O   0  0  0  0  0  0  0  0  0  0  0  0
  141.3210   75.7290  219.9630 N   0  0  0  0  0  0  0  0  0  0  0  0
  140.5310   76.1770  218.8340 C   0  0  0  0  0  0  0  0  0  0  0  0
  141.0460   75.6560  217.5280 C   0  0  0  0  0  0  0  0  0  0  0  0
  142.5070   75.9700  217.4040 C   0  0  0  0  0  0  0  0  0  0  0  0
  143.0450   76.6870  218.6140 C   0  0  0  0  0  0  0  0  0  0  0  0
  142.7460   75.9790  219.9100 C   0  0  2  0  0  0  0  0  0  0  0  0
  143.5790   74.7710  220.0190 C   0  0  0  0  0  0  0  0  0  0  0  0
  144.8600   74.7200  220.4710 C   0  0  0  0  0  0  0  0  0  0  0  0
  145.5910   73.5440  220.5600 C   0  0  0  0  0  0  0  0  0  0  0  0
  144.9940   72.3650  220.1710 C   0  0  0  0  0  0  0  0  0  0  0  0
  143.6790   72.3640  219.6980 C   0  0  0  0  0  0  0  0  0  0  0  0
  143.0040   73.5540  219.6320 C   0  0  0  0  0  0  0  0  0  0  0  0
  140.1750   71.5400  223.5860 C   0  0  0  0  0  0  0  0  0  0  0  0
  139.4900   70.3490  223.4720 C   0  0  0  0  0  0  0  0  0  0  0  0
  139.3130   69.4750  224.5260 C   0  0  0  0  0  0  0  0  0  0  0  0
  139.8640   69.8460  225.7360 C   0  0  0  0  0  0  0  0  0  0  0  0
  139.7090   69.0050  226.8030 C   0  0  0  0  0  0  0  0  0  0  0  0
  140.2590   69.3740  228.0080 C   0  0  0  0  0  0  0  0  0  0  0  0
  140.1130   68.5450  229.0850 F   0  0  0  0  0  0  0  0  0  0  0  0
  140.9540   70.5510  228.1790 C   0  0  0  0  0  0  0  0  0  0  0  0
  141.0940   71.3780  227.0870 C   0  0  0  0  0  0  0  0  0  0  0  0
  140.5600   71.0480  225.8590 C   0  0  0  0  0  0  0  0  0  0  0  0
  140.7030   71.8700  224.7870 N   0  0  0  0  0  0  0  0  0  0  0  0
  138.4790   73.4320  222.7160 H   0  0  0  0  0  0  0  0  0  0  0  0
  139.6167   73.5723  220.0296 H   0  0  0  0  0  0  0  0  0  0  0  0
  138.6008   74.8507  220.8194 H   0  0  0  0  0  0  0  0  0  0  0  0
  139.4959   75.8298  218.9683 H   0  0  0  0  0  0  0  0  0  0  0  0
  140.5895   77.2750  218.8011 H   0  0  0  0  0  0  0  0  0  0  0  0
  140.9005   74.5665  217.4852 H   0  0  0  0  0  0  0  0  0  0  0  0
  140.4978   76.1327  216.7020 H   0  0  0  0  0  0  0  0  0  0  0  0
  143.0610   75.0284  217.2761 H   0  0  0  0  0  0  0  0  0  0  0  0
  142.6348   76.6341  216.5364 H   0  0  0  0  0  0  0  0  0  0  0  0
  144.1363   76.7772  218.5095 H   0  0  0  0  0  0  0  0  0  0  0  0
  142.5495   77.6681  218.6576 H   0  0  0  0  0  0  0  0  0  0  0  0
  143.0030   76.5917  220.7867 H   0  0  0  0  0  0  0  0  0  0  0  0
  145.3416   75.6588  220.7820 H   0  0  0  0  0  0  0  0  0  0  0  0
  146.6257   73.5529  220.9334 H   0  0  0  0  0  0  0  0  0  0  0  0
  145.5546   71.4206  220.2330 H   0  0  0  0  0  0  0  0  0  0  0  0
  143.1959   71.4266  219.3851 H   0  0  0  0  0  0  0  0  0  0  0  0
  141.9688   73.5538  219.2601 H   0  0  0  0  0  0  0  0  0  0  0  0
  139.0638   70.0821  222.4937 H   0  0  0  0  0  0  0  0  0  0  0  0
  138.7609   68.5310  224.4075 H   0  0  0  0  0  0  0  0  0  0  0  0
  139.1587   68.0581  226.7001 H   0  0  0  0  0  0  0  0  0  0  0  0
  141.3828   70.8212  229.1553 H   0  0  0  0  0  0  0  0  0  0  0  0
  141.6446   72.3239  227.1967 H   0  0  0  0  0  0  0  0  0  0  0  0
  1  2  2  0
  2  3  1  0
  3  4  1  0
  4  5  1  0
  5  6  2  0
  5  7  1  0
  7  8  1  0
  8  9  1  0
  9 10  1  0
 10 11  1  0
 11 12  1  0
 12 13  1  0
 13 14  2  0
 14 15  1  0
 15 16  2  0
 16 17  1  0
 17 18  2  0
  2 19  1  0
 19 20  2  0
 20 21  1  0
 21 22  2  0
 22 23  1  0
 23 24  2  0
 24 25  1  0
 24 26  1  0
 26 27  2  0
 27 28  1  0
 28 29  2  0
 12  7  1  0
 18 13  1  0
 29 19  1  0
 28 22  1  0
  3 30  1  0
  4 31  1  0
  4 32  1  0
  8 33  1  0
  8 34  1  0
  9 35  1  0
  9 36  1  0
 10 37  1  0
 10 38  1  0
 11 39  1  0
 11 40  1  0
 12 41  1  1
 14 42  1  0
 15 43  1  0
 16 44  1  0
 17 45  1  0
 18 46  1  0
 20 47  1  0
 21 48  1  0
 23 49  1  0
 26 50  1  0
 27 51  1  0
M  END
>  <smiles>  (24) 
O=C(NCC(=O)N1CCCCC1c1ccccc1)c1ccc2cc(F)ccc2n1

>  <score_type>  (24) 
oracle

>  <origin>  (24) 
autodockgpu

>  <m_score__min__energy>  (24) 
-9.2699999999999996

>  <m_primary>  (24) 
energy

>  <rmsd>  (24) 
1.6887677195606374

>  <m_score__min__rmsd>  (24) 
1.6887677195606374

>  <meeko>  (24) 
{"free_energy": -8.42, "intermolecular_energy": -9.92, "internal_energy": -1.64, "cluster_size": 13, "cluster_id": 3, "rank_in_cluster": 5}

>  <energy>  (24) 
-8.55

>  <cluster_rmsd>  (24) 
0.55

>  <cluster>  (24) 
2

$$$$

     RDKit          3D

 51 54  0  0  0  0  0  0  0  0999 V2000
  141.0220   71.8900  221.3350 O   0  0  0  0  0  0  0  0  0  0  0  0
  140.3020   72.2700  222.3140 C   0  0  0  0  0  0  0  0  0  0  0  0
  139.6180   73.5110  222.2180 N   0  0  0  0  0  0  0  0  0  0  0  0
  139.7530   74.3190  221.0060 C   0  0  0  0  0  0  0  0  0  0  0  0
  140.8050   75.3300  221.1400 C   0  0  0  0  0  0  0  0  0  0  0  0
  141.1110   75.7140  222.3020 O   0  0  0  0  0  0  0  0  0  0  0  0
  141.5160   75.9180  220.0650 N   0  0  0  0  0  0  0  0  0  0  0  0
  140.7670   76.4610  218.9510 C   0  0  0  0  0  0  0  0  0  0  0  0
  141.2140   75.9060  217.6320 C   0  0  0  0  0  0  0  0  0  0  0  0
  142.6980   76.0690  217.4970 C   0  0  0  0  0  0  0  0  0  0  0  0
  143.3180   76.7100  218.7110 C   0  0  0  0  0  0  0  0  0  0  0  0
  142.9580   76.0200  220.0010 C   0  0  2  0  0  0  0  0  0  0  0  0
  143.6630   74.7310  220.0870 C   0  0  0  0  0  0  0  0  0  0  0  0
  144.9350   74.5410  220.5270 C   0  0  0  0  0  0  0  0  0  0  0  0
  145.5410   73.2950  220.5940 C   0  0  0  0  0  0  0  0  0  0  0  0
  144.8220   72.1890  220.1940 C   0  0  0  0  0  0  0  0  0  0  0  0
  143.5120   72.3310  219.7320 C   0  0  0  0  0  0  0  0  0  0  0  0
  142.9620   73.5850  219.6880 C   0  0  0  0  0  0  0  0  0  0  0  0
  140.1900   71.4370  223.5060 C   0  0  0  0  0  0  0  0  0  0  0  0
  139.5670   70.2100  223.4220 C   0  0  0  0  0  0  0  0  0  0  0  0
  139.4190   69.3620  224.5020 C   0  0  0  0  0  0  0  0  0  0  0  0
  139.9340   69.7990  225.7060 C   0  0  0  0  0  0  0  0  0  0  0  0
  139.8060   68.9870  226.7980 C   0  0  0  0  0  0  0  0  0  0  0  0
  140.3200   69.4220  227.9970 C   0  0  0  0  0  0  0  0  0  0  0  0
  140.2000   68.6210  229.0990 F   0  0  0  0  0  0  0  0  0  0  0  0
  140.9520   70.6370  228.1380 C   0  0  0  0  0  0  0  0  0  0  0  0
  141.0660   71.4350  227.0220 C   0  0  0  0  0  0  0  0  0  0  0  0
  140.5670   71.0390  225.7980 C   0  0  0  0  0  0  0  0  0  0  0  0
  140.6830   71.8320  224.7030 N   0  0  0  0  0  0  0  0  0  0  0  0
  139.0280   73.8120  223.0300 H   0  0  0  0  0  0  0  0  0  0  0  0
  140.0005   73.6574  220.1628 H   0  0  0  0  0  0  0  0  0  0  0  0
  138.7991   74.8391  220.8340 H   0  0  0  0  0  0  0  0  0  0  0  0
  139.7026   76.2216  219.0917 H   0  0  0  0  0  0  0  0  0  0  0  0
  140.9387   77.5473  218.9313 H   0  0  0  0  0  0  0  0  0  0  0  0
  140.9562   74.8380  217.5775 H   0  0  0  0  0  0  0  0  0  0  0  0
  140.7106   76.4474  216.8174 H   0  0  0  0  0  0  0  0  0  0  0  0
  143.1505   75.0770  217.3513 H   0  0  0  0  0  0  0  0  0  0  0  0
  142.8862   76.7281  216.6367 H   0  0  0  0  0  0  0  0  0  0  0  0
  144.4118   76.6876  218.5970 H   0  0  0  0  0  0  0  0  0  0  0  0
  142.9275   77.7366  218.7716 H   0  0  0  0  0  0  0  0  0  0  0  0
  143.2839   76.5914  220.8827 H   0  0  0  0  0  0  0  0  0  0  0  0
  145.5135   75.4204  220.8463 H   0  0  0  0  0  0  0  0  0  0  0  0
  146.5736   73.1917  220.9587 H   0  0  0  0  0  0  0  0  0  0  0  0
  145.2820   71.1908  220.2389 H   0  0  0  0  0  0  0  0  0  0  0  0
  142.9329   71.4531  219.4096 H   0  0  0  0  0  0  0  0  0  0  0  0
  141.9296   73.6967  219.3252 H   0  0  0  0  0  0  0  0  0  0  0  0
  139.1685   69.8910  222.4476 H   0  0  0  0  0  0  0  0  0  0  0  0
  138.9164   68.3881  224.4077 H   0  0  0  0  0  0  0  0  0  0  0  0
  139.3048   68.0109  226.7198 H   0  0  0  0  0  0  0  0  0  0  0  0
  141.3527   70.9595  229.1104 H   0  0  0  0  0  0  0  0  0  0  0  0
  141.5664   72.4108  227.1080 H   0  0  0  0  0  0  0  0  0  0  0  0
  1  2  2  0
  2  3  1  0
  3  4  1  0
  4  5  1  0
  5  6  2  0
  5  7  1  0
  7  8  1  0
  8  9  1  0
  9 10  1  0
 10 11  1  0
 11 12  1  0
 12 13  1  0
 13 14  2  0
 14 15  1  0
 15 16  2  0
 16 17  1  0
 17 18  2  0
  2 19  1  0
 19 20  2  0
 20 21  1  0
 21 22  2  0
 22 23  1  0
 23 24  2  0
 24 25  1  0
 24 26  1  0
 26 27  2  0
 27 28  1  0
 28 29  2  0
 12  7  1  0
 18 13  1  0
 29 19  1  0
 28 22  1  0
  3 30  1  0
  4 31  1  0
  4 32  1  0
  8 33  1  0
  8 34  1  0
  9 35  1  0
  9 36  1  0
 10 37  1  0
 10 38  1  0
 11 39  1  0
 11 40  1  0
 12 41  1  1
 14 42  1  0
 15 43  1  0
 16 44  1  0
 17 45  1  0
 18 46  1  0
 20 47  1  0
 21 48  1  0
 23 49  1  0
 26 50  1  0
 27 51  1  0
M  END
>  <smiles>  (25) 
O=C(NCC(=O)N1CCCCC1c1ccccc1)c1ccc2cc(F)ccc2n1

>  <score_type>  (25) 
oracle

>  <origin>  (25) 
autodockgpu

>  <m_score__min__energy>  (25) 
-9.2699999999999996

>  <m_primary>  (25) 
energy

>  <rmsd>  (25) 
1.7948291884937086

>  <m_score__min__rmsd>  (25) 
1.7948291884937086

>  <meeko>  (25) 
{"free_energy": -8.43, "intermolecular_energy": -9.92, "internal_energy": -1.75, "cluster_size": 13, "cluster_id": 3, "rank_in_cluster": 4}

>  <energy>  (25) 
-8.52

>  <cluster_rmsd>  (25) 
0.63

>  <cluster>  (25) 
2

$$$$

     RDKit          3D

 51 54  0  0  0  0  0  0  0  0999 V2000
  136.1490   77.3910  223.0520 O   0  0  0  0  0  0  0  0  0  0  0  0
  136.4180   76.1810  223.3450 C   0  0  0  0  0  0  0  0  0  0  0  0
  137.6090   75.6010  222.8310 N   0  0  0  0  0  0  0  0  0  0  0  0
  138.4940   76.3990  221.9840 C   0  0  0  0  0  0  0  0  0  0  0  0
  139.7190   75.6710  221.6380 C   0  0  0  0  0  0  0  0  0  0  0  0
  139.9370   74.5740  222.2200 O   0  0  0  0  0  0  0  0  0  0  0  0
  140.6860   76.1000  220.6960 N   0  0  0  0  0  0  0  0  0  0  0  0
  141.4410   75.0990  219.9720 C   0  0  0  0  0  0  0  0  0  0  0  0
  142.9220   75.2990  220.0870 C   0  0  0  0  0  0  0  0  0  0  0  0
  143.2680   76.7080  219.7080 C   0  0  0  0  0  0  0  0  0  0  0  0
  142.0520   77.5200  219.3460 C   0  0  0  0  0  0  0  0  0  0  0  0
  140.9760   77.4860  220.4000 C   0  0  2  0  0  0  0  0  0  0  0  0
  141.3960   78.2820  221.5630 C   0  0  0  0  0  0  0  0  0  0  0  0
  141.3980   77.8690  222.8580 C   0  0  0  0  0  0  0  0  0  0  0  0
  141.8190   78.6660  223.9140 C   0  0  0  0  0  0  0  0  0  0  0  0
  142.2570   79.9440  223.6400 C   0  0  0  0  0  0  0  0  0  0  0  0
  142.2730   80.4170  222.3260 C   0  0  0  0  0  0  0  0  0  0  0  0
  141.8480   79.5860  221.3230 C   0  0  0  0  0  0  0  0  0  0  0  0
  135.5120   75.4170  224.1940 C   0  0  0  0  0  0  0  0  0  0  0  0
  135.4620   74.0440  224.0740 C   0  0  0  0  0  0  0  0  0  0  0  0
  134.6320   73.2480  224.8390 C   0  0  0  0  0  0  0  0  0  0  0  0
  133.8300   73.8950  225.7580 C   0  0  0  0  0  0  0  0  0  0  0  0
  132.9940   73.1390  226.5330 C   0  0  0  0  0  0  0  0  0  0  0  0
  132.1960   73.7830  227.4480 C   0  0  0  0  0  0  0  0  0  0  0  0
  131.3550   73.0420  228.2310 F   0  0  0  0  0  0  0  0  0  0  0  0
  132.2050   75.1510  227.6120 C   0  0  0  0  0  0  0  0  0  0  0  0
  133.0550   75.8860  226.8170 C   0  0  0  0  0  0  0  0  0  0  0  0
  133.8750   75.2830  225.8860 C   0  0  0  0  0  0  0  0  0  0  0  0
  134.7110   76.0160  225.1060 N   0  0  0  0  0  0  0  0  0  0  0  0
  137.8180   74.6050  223.0810 H   0  0  0  0  0  0  0  0  0  0  0  0
  137.9609   76.6594  221.0577 H   0  0  0  0  0  0  0  0  0  0  0  0
  138.7795   77.3023  222.5431 H   0  0  0  0  0  0  0  0  0  0  0  0
  141.1872   74.1071  220.3742 H   0  0  0  0  0  0  0  0  0  0  0  0
  141.1748   75.1858  218.9082 H   0  0  0  0  0  0  0  0  0  0  0  0
  143.2379   75.1102  221.1236 H   0  0  0  0  0  0  0  0  0  0  0  0
  143.4393   74.6008  219.4126 H   0  0  0  0  0  0  0  0  0  0  0  0
  143.7735   77.1887  220.5585 H   0  0  0  0  0  0  0  0  0  0  0  0
  143.9198   76.6669  218.8228 H   0  0  0  0  0  0  0  0  0  0  0  0
  142.3618   78.5649  219.1972 H   0  0  0  0  0  0  0  0  0  0  0  0
  141.6266   77.0791  218.4324 H   0  0  0  0  0  0  0  0  0  0  0  0
  140.0397   77.9478  220.0534 H   0  0  0  0  0  0  0  0  0  0  0  0
  141.0478   76.8503  223.0809 H   0  0  0  0  0  0  0  0  0  0  0  0
  141.8034   78.2861  224.9462 H   0  0  0  0  0  0  0  0  0  0  0  0
  142.5955   80.5943  224.4601 H   0  0  0  0  0  0  0  0  0  0  0  0
  142.6199   81.4363  222.1009 H   0  0  0  0  0  0  0  0  0  0  0  0
  141.8623   79.9577  220.2878 H   0  0  0  0  0  0  0  0  0  0  0  0
  136.1148   73.5593  223.3331 H   0  0  0  0  0  0  0  0  0  0  0  0
  134.6110   72.1544  224.7221 H   0  0  0  0  0  0  0  0  0  0  0  0
  132.9613   72.0446  226.4267 H   0  0  0  0  0  0  0  0  0  0  0  0
  131.5550   75.6392  228.3531 H   0  0  0  0  0  0  0  0  0  0  0  0
  133.0810   76.9802  226.9267 H   0  0  0  0  0  0  0  0  0  0  0  0
  1  2  2  0
  2  3  1  0
  3  4  1  0
  4  5  1  0
  5  6  2  0
  5  7  1  0
  7  8  1  0
  8  9  1  0
  9 10  1  0
 10 11  1  0
 11 12  1  0
 12 13  1  0
 13 14  2  0
 14 15  1  0
 15 16  2  0
 16 17  1  0
 17 18  2  0
  2 19  1  0
 19 20  2  0
 20 21  1  0
 21 22  2  0
 22 23  1  0
 23 24  2  0
 24 25  1  0
 24 26  1  0
 26 27  2  0
 27 28  1  0
 28 29  2  0
 12  7  1  0
 18 13  1  0
 29 19  1  0
 28 22  1  0
  3 30  1  0
  4 31  1  0
  4 32  1  0
  8 33  1  0
  8 34  1  0
  9 35  1  0
  9 36  1  0
 10 37  1  0
 10 38  1  0
 11 39  1  0
 11 40  1  0
 12 41  1  6
 14 42  1  0
 15 43  1  0
 16 44  1  0
 17 45  1  0
 18 46  1  0
 20 47  1  0
 21 48  1  0
 23 49  1  0
 26 50  1  0
 27 51  1  0
M  END
>  <smiles>  (26) 
O=C(NCC(=O)N1CCCCC1c1ccccc1)c1ccc2cc(F)ccc2n1

>  <score_type>  (26) 
oracle

>  <origin>  (26) 
autodockgpu

>  <m_score__min__energy>  (26) 
-9.2699999999999996

>  <m_primary>  (26) 
energy

>  <rmsd>  (26) 
5.86577582823365

>  <m_score__min__rmsd>  (26) 
5.86577582823365

>  <meeko>  (26) 
{"free_energy": -8.19, "intermolecular_energy": -9.68, "internal_energy": -1.71, "cluster_size": 7, "cluster_id": 4, "rank_in_cluster": 3}

>  <energy>  (26) 
-8.41

>  <cluster_rmsd>  (26) 
0.75

>  <cluster>  (26) 
2

$$$$

     RDKit          3D

 51 54  0  0  0  0  0  0  0  0999 V2000
  140.8180   71.7520  221.2230 O   0  0  0  0  0  0  0  0  0  0  0  0
  140.3400   72.2900  222.2740 C   0  0  0  0  0  0  0  0  0  0  0  0
  139.9800   73.6640  222.2370 N   0  0  0  0  0  0  0  0  0  0  0  0
  140.1620   74.4250  221.0010 C   0  0  0  0  0  0  0  0  0  0  0  0
  140.3470   75.8550  221.2650 C   0  0  0  0  0  0  0  0  0  0  0  0
  140.2420   76.2530  222.4570 O   0  0  0  0  0  0  0  0  0  0  0  0
  140.6360   76.8370  220.2860 N   0  0  0  0  0  0  0  0  0  0  0  0
  141.3160   76.4300  219.0740 C   0  0  0  0  0  0  0  0  0  0  0  0
  142.5510   77.2360  218.8080 C   0  0  0  0  0  0  0  0  0  0  0  0
  142.2150   78.6970  218.8500 C   0  0  0  0  0  0  0  0  0  0  0  0
  140.7620   78.9430  219.1650 C   0  0  0  0  0  0  0  0  0  0  0  0
  140.2930   78.2370  220.4110 C   0  0  2  0  0  0  0  0  0  0  0  0
  140.8590   78.8990  221.5980 C   0  0  0  0  0  0  0  0  0  0  0  0
  142.1740   78.9440  221.9390 C   0  0  0  0  0  0  0  0  0  0  0  0
  142.6480   79.5960  223.0690 C   0  0  0  0  0  0  0  0  0  0  0  0
  141.7420   80.2300  223.8920 C   0  0  0  0  0  0  0  0  0  0  0  0
  140.3790   80.2110  223.5860 C   0  0  0  0  0  0  0  0  0  0  0  0
  139.9680   79.5540  222.4570 C   0  0  0  0  0  0  0  0  0  0  0  0
  140.1710   71.4980  223.4870 C   0  0  0  0  0  0  0  0  0  0  0  0
  139.4890   70.3020  223.4290 C   0  0  0  0  0  0  0  0  0  0  0  0
  139.2840   69.4940  224.5310 C   0  0  0  0  0  0  0  0  0  0  0  0
  139.8040   69.9400  225.7290 C   0  0  0  0  0  0  0  0  0  0  0  0
  139.6210   69.1670  226.8420 C   0  0  0  0  0  0  0  0  0  0  0  0
  140.1400   69.6110  228.0360 C   0  0  0  0  0  0  0  0  0  0  0  0
  139.9660   68.8500  229.1580 F   0  0  0  0  0  0  0  0  0  0  0  0
  140.8300   70.7970  228.1520 C   0  0  0  0  0  0  0  0  0  0  0  0
  140.9980   71.5550  227.0150 C   0  0  0  0  0  0  0  0  0  0  0  0
  140.4960   71.1500  225.7960 C   0  0  0  0  0  0  0  0  0  0  0  0
  140.6670   71.9030  224.6800 N   0  0  0  0  0  0  0  0  0  0  0  0
  139.5870   74.0930  223.1080 H   0  0  0  0  0  0  0  0  0  0  0  0
  141.0488   74.0424  220.4745 H   0  0  0  0  0  0  0  0  0  0  0  0
  139.2563   74.3045  220.3885 H   0  0  0  0  0  0  0  0  0  0  0  0
  141.5996   75.3713  219.1676 H   0  0  0  0  0  0  0  0  0  0  0  0
  140.6249   76.5920  218.2337 H   0  0  0  0  0  0  0  0  0  0  0  0
  143.3071   77.0117  219.5748 H   0  0  0  0  0  0  0  0  0  0  0  0
  142.9481   76.9802  217.8146 H   0  0  0  0  0  0  0  0  0  0  0  0
  142.8308   79.1791  219.6236 H   0  0  0  0  0  0  0  0  0  0  0  0
  142.4182   79.1169  217.8538 H   0  0  0  0  0  0  0  0  0  0  0  0
  140.6124   80.0244  219.2995 H   0  0  0  0  0  0  0  0  0  0  0  0
  140.1750   78.5440  218.3246 H   0  0  0  0  0  0  0  0  0  0  0  0
  139.2017   78.2949  220.5362 H   0  0  0  0  0  0  0  0  0  0  0  0
  142.8999   78.4377  221.2858 H   0  0  0  0  0  0  0  0  0  0  0  0
  143.7229   79.6065  223.3026 H   0  0  0  0  0  0  0  0  0  0  0  0
  142.0937   80.7531  224.7935 H   0  0  0  0  0  0  0  0  0  0  0  0
  139.6504   80.7138  224.2390 H   0  0  0  0  0  0  0  0  0  0  0  0
  138.8950   79.5402  222.2152 H   0  0  0  0  0  0  0  0  0  0  0  0
  139.0883   69.9746  222.4583 H   0  0  0  0  0  0  0  0  0  0  0  0
  138.7345   68.5440  224.4572 H   0  0  0  0  0  0  0  0  0  0  0  0
  139.0731   68.2150  226.7840 H   0  0  0  0  0  0  0  0  0  0  0  0
  141.2334   71.1277  229.1205 H   0  0  0  0  0  0  0  0  0  0  0  0
  141.5459   72.5066  227.0804 H   0  0  0  0  0  0  0  0  0  0  0  0
  1  2  2  0
  2  3  1  0
  3  4  1  0
  4  5  1  0
  5  6  2  0
  5  7  1  0
  7  8  1  0
  8  9  1  0
  9 10  1  0
 10 11  1  0
 11 12  1  0
 12 13  1  0
 13 14  2  0
 14 15  1  0
 15 16  2  0
 16 17  1  0
 17 18  2  0
  2 19  1  0
 19 20  2  0
 20 21  1  0
 21 22  2  0
 22 23  1  0
 23 24  2  0
 24 25  1  0
 24 26  1  0
 26 27  2  0
 27 28  1  0
 28 29  2  0
 12  7  1  0
 18 13  1  0
 29 19  1  0
 28 22  1  0
  3 30  1  0
  4 31  1  0
  4 32  1  0
  8 33  1  0
  8 34  1  0
  9 35  1  0
  9 36  1  0
 10 37  1  0
 10 38  1  0
 11 39  1  0
 11 40  1  0
 12 41  1  1
 14 42  1  0
 15 43  1  0
 16 44  1  0
 17 45  1  0
 18 46  1  0
 20 47  1  0
 21 48  1  0
 23 49  1  0
 26 50  1  0
 27 51  1  0
M  END
>  <smiles>  (27) 
O=C(NCC(=O)N1CCCCC1c1ccccc1)c1ccc2cc(F)ccc2n1

>  <score_type>  (27) 
oracle

>  <origin>  (27) 
autodockgpu

>  <m_score__min__energy>  (27) 
-9.2699999999999996

>  <m_primary>  (27) 
energy

>  <rmsd>  (27) 
1.976265353015651

>  <m_score__min__rmsd>  (27) 
1.976265353015651

>  <meeko>  (27) 
{"free_energy": -8.74, "intermolecular_energy": -10.23, "internal_energy": -1.69, "cluster_size": 27, "cluster_id": 2, "rank_in_cluster": 11}

>  <energy>  (27) 
-8.19

>  <cluster_rmsd>  (27) 
1.61

>  <cluster>  (27) 
2

$$$$

     RDKit          3D

 51 54  0  0  0  0  0  0  0  0999 V2000
  141.0140   72.0940  221.4350 O   0  0  0  0  0  0  0  0  0  0  0  0
  140.1910   72.3600  222.3700 C   0  0  0  0  0  0  0  0  0  0  0  0
  139.3520   73.4990  222.2380 N   0  0  0  0  0  0  0  0  0  0  0  0
  139.4500   74.3350  221.0420 C   0  0  0  0  0  0  0  0  0  0  0  0
  140.3750   75.4560  221.2350 C   0  0  0  0  0  0  0  0  0  0  0  0
  140.9650   75.5480  222.3450 O   0  0  0  0  0  0  0  0  0  0  0  0
  140.6650   76.4510  220.2710 N   0  0  0  0  0  0  0  0  0  0  0  0
  141.4760   76.0950  219.1260 C   0  0  0  0  0  0  0  0  0  0  0  0
  142.6590   76.9980  218.9540 C   0  0  0  0  0  0  0  0  0  0  0  0
  142.2020   78.4260  218.9480 C   0  0  0  0  0  0  0  0  0  0  0  0
  140.7140   78.5540  219.1370 C   0  0  0  0  0  0  0  0  0  0  0  0
  140.2000   77.8200  220.3490 C   0  0  2  0  0  0  0  0  0  0  0  0
  140.6070   78.5330  221.5690 C   0  0  0  0  0  0  0  0  0  0  0  0
  141.8810   78.6920  222.0170 C   0  0  0  0  0  0  0  0  0  0  0  0
  142.2020   79.3870  223.1750 C   0  0  0  0  0  0  0  0  0  0  0  0
  141.1810   79.9460  223.9130 C   0  0  0  0  0  0  0  0  0  0  0  0
  139.8550   79.8100  223.4960 C   0  0  0  0  0  0  0  0  0  0  0  0
  139.5960   79.1140  222.3440 C   0  0  0  0  0  0  0  0  0  0  0  0
  140.1200   71.5030  223.5470 C   0  0  0  0  0  0  0  0  0  0  0  0
  139.5290   70.2610  223.4500 C   0  0  0  0  0  0  0  0  0  0  0  0
  139.4220   69.3900  224.5160 C   0  0  0  0  0  0  0  0  0  0  0  0
  139.9440   69.8180  225.7190 C   0  0  0  0  0  0  0  0  0  0  0  0
  139.8550   68.9820  226.7980 C   0  0  0  0  0  0  0  0  0  0  0  0
  140.3760   69.4090  227.9970 C   0  0  0  0  0  0  0  0  0  0  0  0
  140.2960   68.5850  229.0850 F   0  0  0  0  0  0  0  0  0  0  0  0
  140.9780   70.6380  228.1510 C   0  0  0  0  0  0  0  0  0  0  0  0
  141.0520   71.4590  227.0480 C   0  0  0  0  0  0  0  0  0  0  0  0
  140.5440   71.0730  225.8250 C   0  0  0  0  0  0  0  0  0  0  0  0
  140.6220   71.8880  224.7430 N   0  0  0  0  0  0  0  0  0  0  0  0
  138.6780   73.7060  223.0140 H   0  0  0  0  0  0  0  0  0  0  0  0
  139.8082   73.7180  220.2048 H   0  0  0  0  0  0  0  0  0  0  0  0
  138.4524   74.7476  220.8309 H   0  0  0  0  0  0  0  0  0  0  0  0
  141.8361   75.0638  219.2564 H   0  0  0  0  0  0  0  0  0  0  0  0
  140.8475   76.1952  218.2288 H   0  0  0  0  0  0  0  0  0  0  0  0
  143.3631   76.8420  219.7846 H   0  0  0  0  0  0  0  0  0  0  0  0
  143.1589   76.7693  218.0012 H   0  0  0  0  0  0  0  0  0  0  0  0
  142.7090   78.9624  219.7636 H   0  0  0  0  0  0  0  0  0  0  0  0
  142.4531   78.8540  217.9663 H   0  0  0  0  0  0  0  0  0  0  0  0
  140.4664   79.6204  219.2440 H   0  0  0  0  0  0  0  0  0  0  0  0
  140.2344   78.1026  218.2560 H   0  0  0  0  0  0  0  0  0  0  0  0
  139.1009   77.7892  220.3822 H   0  0  0  0  0  0  0  0  0  0  0  0
  142.6992   78.2471  221.4317 H   0  0  0  0  0  0  0  0  0  0  0  0
  143.2489   79.4894  223.4967 H   0  0  0  0  0  0  0  0  0  0  0  0
  141.4114   80.5015  224.8341 H   0  0  0  0  0  0  0  0  0  0  0  0
  139.0349   80.2526  224.0804 H   0  0  0  0  0  0  0  0  0  0  0  0
  138.5517   79.0076  222.0151 H   0  0  0  0  0  0  0  0  0  0  0  0
  139.1232   69.9490  222.4764 H   0  0  0  0  0  0  0  0  0  0  0  0
  138.9446   68.4046  224.4113 H   0  0  0  0  0  0  0  0  0  0  0  0
  139.3792   67.9942  226.7090 H   0  0  0  0  0  0  0  0  0  0  0  0
  141.3861   70.9533  229.1226 H   0  0  0  0  0  0  0  0  0  0  0  0
  141.5276   72.4462  227.1445 H   0  0  0  0  0  0  0  0  0  0  0  0
  1  2  2  0
  2  3  1  0
  3  4  1  0
  4  5  1  0
  5  6  2  0
  5  7  1  0
  7  8  1  0
  8  9  1  0
  9 10  1  0
 10 11  1  0
 11 12  1  0
 12 13  1  0
 13 14  2  0
 14 15  1  0
 15 16  2  0
 16 17  1  0
 17 18  2  0
  2 19  1  0
 19 20  2  0
 20 21  1  0
 21 22  2  0
 22 23  1  0
 23 24  2  0
 24 25  1  0
 24 26  1  0
 26 27  2  0
 27 28  1  0
 28 29  2  0
 12  7  1  0
 18 13  1  0
 29 19  1  0
 28 22  1  0
  3 30  1  0
  4 31  1  0
  4 32  1  0
  8 33  1  0
  8 34  1  0
  9 35  1  0
  9 36  1  0
 10 37  1  0
 10 38  1  0
 11 39  1  0
 11 40  1  0
 12 41  1  6
 14 42  1  0
 15 43  1  0
 16 44  1  0
 17 45  1  0
 18 46  1  0
 20 47  1  0
 21 48  1  0
 23 49  1  0
 26 50  1  0
 27 51  1  0
M  END
>  <smiles>  (28) 
O=C(NCC(=O)N1CCCCC1c1ccccc1)c1ccc2cc(F)ccc2n1

>  <score_type>  (28) 
oracle

>  <origin>  (28) 
autodockgpu

>  <m_score__min__energy>  (28) 
-9.2699999999999996

>  <m_primary>  (28) 
energy

>  <rmsd>  (28) 
1.8015984829861973

>  <m_score__min__rmsd>  (28) 
1.8015984829861973

>  <meeko>  (28) 
{"free_energy": -8.81, "intermolecular_energy": -10.3, "internal_energy": -1.39, "cluster_size": 27, "cluster_id": 2, "rank_in_cluster": 6}

>  <energy>  (28) 
-8.06

>  <cluster_rmsd>  (28) 
0.64

>  <cluster>  (28) 
2

$$$$

     RDKit          3D

 51 54  0  0  0  0  0  0  0  0999 V2000
  140.5810   70.9410  221.2780 O   0  0  0  0  0  0  0  0  0  0  0  0
  140.1900   71.5580  222.3210 C   0  0  0  0  0  0  0  0  0  0  0  0
  139.8960   72.9450  222.2240 N   0  0  0  0  0  0  0  0  0  0  0  0
  140.0460   73.6280  220.9400 C   0  0  0  0  0  0  0  0  0  0  0  0
  140.5970   74.9770  221.1020 C   0  0  0  0  0  0  0  0  0  0  0  0
  140.4110   75.5610  222.2040 O   0  0  0  0  0  0  0  0  0  0  0  0
  141.3270   75.6860  220.1170 N   0  0  0  0  0  0  0  0  0  0  0  0
  140.6000   76.3410  219.0490 C   0  0  0  0  0  0  0  0  0  0  0  0
  141.0850   75.9390  217.6900 C   0  0  0  0  0  0  0  0  0  0  0  0
  142.5700   76.1280  217.6120 C   0  0  0  0  0  0  0  0  0  0  0  0
  143.1530   76.6370  218.9050 C   0  0  0  0  0  0  0  0  0  0  0  0
  142.7690   75.8060  220.1010 C   0  0  2  0  0  0  0  0  0  0  0  0
  143.4860   74.5210  220.0630 C   0  0  0  0  0  0  0  0  0  0  0  0
  142.9790   73.3330  219.6410 C   0  0  0  0  0  0  0  0  0  0  0  0
  143.7120   72.1550  219.6190 C   0  0  0  0  0  0  0  0  0  0  0  0
  145.0220   72.1860  220.0460 C   0  0  0  0  0  0  0  0  0  0  0  0
  145.5900   73.3820  220.4910 C   0  0  0  0  0  0  0  0  0  0  0  0
  144.8200   74.5150  220.4900 C   0  0  0  0  0  0  0  0  0  0  0  0
  140.0500   70.8430  223.5830 C   0  0  0  0  0  0  0  0  0  0  0  0
  139.3680   69.6450  223.6160 C   0  0  0  0  0  0  0  0  0  0  0  0
  139.1910   68.9070  224.7690 C   0  0  0  0  0  0  0  0  0  0  0  0
  139.7380   69.4260  225.9250 C   0  0  0  0  0  0  0  0  0  0  0  0
  139.5820   68.7230  227.0880 C   0  0  0  0  0  0  0  0  0  0  0  0
  140.1280   69.2400  228.2390 C   0  0  0  0  0  0  0  0  0  0  0  0
  139.9810   68.5490  229.4100 F   0  0  0  0  0  0  0  0  0  0  0  0
  140.8200   70.4300  228.2660 C   0  0  0  0  0  0  0  0  0  0  0  0
  140.9600   71.1170  227.0800 C   0  0  0  0  0  0  0  0  0  0  0  0
  140.4300   70.6370  225.9010 C   0  0  0  0  0  0  0  0  0  0  0  0
  140.5740   71.3200  224.7370 N   0  0  0  0  0  0  0  0  0  0  0  0
  139.5740   73.4400  223.0900 H   0  0  0  0  0  0  0  0  0  0  0  0
  140.7228   73.0412  220.3015 H   0  0  0  0  0  0  0  0  0  0  0  0
  139.0498   73.7182  220.4823 H   0  0  0  0  0  0  0  0  0  0  0  0
  139.5353   76.0782  219.1349 H   0  0  0  0  0  0  0  0  0  0  0  0
  140.7606   77.4243  219.1527 H   0  0  0  0  0  0  0  0  0  0  0  0
  140.8403   74.8815  217.5116 H   0  0  0  0  0  0  0  0  0  0  0  0
  140.5959   76.5628  216.9274 H   0  0  0  0  0  0  0  0  0  0  0  0
  143.0369   75.1618  217.3702 H   0  0  0  0  0  0  0  0  0  0  0  0
  142.7721   76.8792  216.8343 H   0  0  0  0  0  0  0  0  0  0  0  0
  144.2495   76.6366  218.8174 H   0  0  0  0  0  0  0  0  0  0  0  0
  142.7499   77.6474  219.0680 H   0  0  0  0  0  0  0  0  0  0  0  0
  143.0670   76.2793  221.0482 H   0  0  0  0  0  0  0  0  0  0  0  0
  141.9338   73.3036  219.2993 H   0  0  0  0  0  0  0  0  0  0  0  0
  143.2573   71.2167  219.2683 H   0  0  0  0  0  0  0  0  0  0  0  0
  145.6230   71.2647  220.0363 H   0  0  0  0  0  0  0  0  0  0  0  0
  146.6343   73.4134  220.8352 H   0  0  0  0  0  0  0  0  0  0  0  0
  145.2672   75.4577  220.8384 H   0  0  0  0  0  0  0  0  0  0  0  0
  138.9442   69.2584  222.6774 H   0  0  0  0  0  0  0  0  0  0  0  0
  138.6420   67.9538  224.7666 H   0  0  0  0  0  0  0  0  0  0  0  0
  139.0342   67.7692  227.1020 H   0  0  0  0  0  0  0  0  0  0  0  0
  141.2465   70.8189  229.2024 H   0  0  0  0  0  0  0  0  0  0  0  0
  141.5076   72.0710  227.0735 H   0  0  0  0  0  0  0  0  0  0  0  0
  1  2  2  0
  2  3  1  0
  3  4  1  0
  4  5  1  0
  5  6  2  0
  5  7  1  0
  7  8  1  0
  8  9  1  0
  9 10  1  0
 10 11  1  0
 11 12  1  0
 12 13  1  0
 13 14  2  0
 14 15  1  0
 15 16  2  0
 16 17  1  0
 17 18  2  0
  2 19  1  0
 19 20  2  0
 20 21  1  0
 21 22  2  0
 22 23  1  0
 23 24  2  0
 24 25  1  0
 24 26  1  0
 26 27  2  0
 27 28  1  0
 28 29  2  0
 12  7  1  0
 18 13  1  0
 29 19  1  0
 28 22  1  0
  3 30  1  0
  4 31  1  0
  4 32  1  0
  8 33  1  0
  8 34  1  0
  9 35  1  0
  9 36  1  0
 10 37  1  0
 10 38  1  0
 11 39  1  0
 11 40  1  0
 12 41  1  1
 14 42  1  0
 15 43  1  0
 16 44  1  0
 17 45  1  0
 18 46  1  0
 20 47  1  0
 21 48  1  0
 23 49  1  0
 26 50  1  0
 27 51  1  0
M  END
>  <smiles>  (29) 
O=C(NCC(=O)N1CCCCC1c1ccccc1)c1ccc2cc(F)ccc2n1

>  <score_type>  (29) 
oracle

>  <origin>  (29) 
autodockgpu

>  <m_score__min__energy>  (29) 
-9.2699999999999996

>  <m_primary>  (29) 
energy

>  <rmsd>  (29) 
1.7120471665311086

>  <m_score__min__rmsd>  (29) 
1.7120471665311086

>  <meeko>  (29) 
{"free_energy": -8.21, "intermolecular_energy": -9.7, "internal_energy": -1.91, "cluster_size": 13, "cluster_id": 3, "rank_in_cluster": 10}

>  <energy>  (29) 
-7.97

>  <cluster_rmsd>  (29) 
0.73

>  <cluster>  (29) 
2

$$$$

     RDKit          3D

 51 54  0  0  0  0  0  0  0  0999 V2000
  139.9020   71.7650  221.1000 O   0  0  0  0  0  0  0  0  0  0  0  0
  139.7970   72.2830  222.2580 C   0  0  0  0  0  0  0  0  0  0  0  0
  139.5940   73.6850  222.3640 N   0  0  0  0  0  0  0  0  0  0  0  0
  139.5100   74.4970  221.1510 C   0  0  0  0  0  0  0  0  0  0  0  0
  140.7930   75.1300  220.8290 C   0  0  0  0  0  0  0  0  0  0  0  0
  141.8340   74.6540  221.3570 O   0  0  0  0  0  0  0  0  0  0  0  0
  140.9630   76.2400  219.9660 N   0  0  0  0  0  0  0  0  0  0  0  0
  141.9660   76.1630  218.9240 C   0  0  0  0  0  0  0  0  0  0  0  0
  142.9250   77.3140  218.9610 C   0  0  0  0  0  0  0  0  0  0  0  0
  142.1600   78.6030  218.9680 C   0  0  0  0  0  0  0  0  0  0  0  0
  140.6700   78.3870  218.9600 C   0  0  0  0  0  0  0  0  0  0  0  0
  140.1940   77.4630  220.0510 C   0  0  2  0  0  0  0  0  0  0  0  0
  140.2790   78.1460  221.3510 C   0  0  0  0  0  0  0  0  0  0  0  0
  139.2590   78.7710  221.9960 C   0  0  0  0  0  0  0  0  0  0  0  0
  139.4010   79.3900  223.2300 C   0  0  0  0  0  0  0  0  0  0  0  0
  140.6380   79.3740  223.8370 C   0  0  0  0  0  0  0  0  0  0  0  0
  141.7190   78.7460  223.2150 C   0  0  0  0  0  0  0  0  0  0  0  0
  141.5220   78.1500  221.9970 C   0  0  0  0  0  0  0  0  0  0  0  0
  139.8840   71.4410  223.4460 C   0  0  0  0  0  0  0  0  0  0  0  0
  139.4390   70.1370  223.3900 C   0  0  0  0  0  0  0  0  0  0  0  0
  139.4860   69.2760  224.4680 C   0  0  0  0  0  0  0  0  0  0  0  0
  140.0110   69.7810  225.6410 C   0  0  0  0  0  0  0  0  0  0  0  0
  140.0730   68.9580  226.7310 C   0  0  0  0  0  0  0  0  0  0  0  0
  140.5960   69.4610  227.8980 C   0  0  0  0  0  0  0  0  0  0  0  0
  140.6650   68.6500  228.9970 F   0  0  0  0  0  0  0  0  0  0  0  0
  141.0550   70.7540  228.0110 C   0  0  0  0  0  0  0  0  0  0  0  0
  140.9800   71.5610  226.8980 C   0  0  0  0  0  0  0  0  0  0  0  0
  140.4630   71.0990  225.7050 C   0  0  0  0  0  0  0  0  0  0  0  0
  140.3930   71.9020  224.6120 N   0  0  0  0  0  0  0  0  0  0  0  0
  139.5090   74.0980  223.3240 H   0  0  0  0  0  0  0  0  0  0  0  0
  139.2103   73.8527  220.3113 H   0  0  0  0  0  0  0  0  0  0  0  0
  138.7700   75.2926  221.3229 H   0  0  0  0  0  0  0  0  0  0  0  0
  142.5325   75.2283  219.0486 H   0  0  0  0  0  0  0  0  0  0  0  0
  141.4441   76.1952  217.9562 H   0  0  0  0  0  0  0  0  0  0  0  0
  143.5412   77.2486  219.8699 H   0  0  0  0  0  0  0  0  0  0  0  0
  143.5744   77.2783  218.0738 H   0  0  0  0  0  0  0  0  0  0  0  0
  142.4299   79.1689  219.8718 H   0  0  0  0  0  0  0  0  0  0  0  0
  142.4236   79.1541  218.0532 H   0  0  0  0  0  0  0  0  0  0  0  0
  140.1756   79.3613  219.0877 H   0  0  0  0  0  0  0  0  0  0  0  0
  140.4152   77.9146  217.9998 H   0  0  0  0  0  0  0  0  0  0  0  0
  139.1347   77.1910  219.9328 H   0  0  0  0  0  0  0  0  0  0  0  0
  138.2698   78.7871  221.5152 H   0  0  0  0  0  0  0  0  0  0  0  0
  138.5445   79.8828  223.7132 H   0  0  0  0  0  0  0  0  0  0  0  0
  140.7744   79.8579  224.8154 H   0  0  0  0  0  0  0  0  0  0  0  0
  142.7094   78.7301  223.6934 H   0  0  0  0  0  0  0  0  0  0  0  0
  142.3735   77.6551  221.5071 H   0  0  0  0  0  0  0  0  0  0  0  0
  139.0267   69.7649  222.4405 H   0  0  0  0  0  0  0  0  0  0  0  0
  139.1235   68.2399  224.3962 H   0  0  0  0  0  0  0  0  0  0  0  0
  139.7135   67.9199  226.6753 H   0  0  0  0  0  0  0  0  0  0  0  0
  141.4678   71.1298  228.9588 H   0  0  0  0  0  0  0  0  0  0  0  0
  141.3406   72.5983  226.9613 H   0  0  0  0  0  0  0  0  0  0  0  0
  1  2  2  0
  2  3  1  0
  3  4  1  0
  4  5  1  0
  5  6  2  0
  5  7  1  0
  7  8  1  0
  8  9  1  0
  9 10  1  0
 10 11  1  0
 11 12  1  0
 12 13  1  0
 13 14  2  0
 14 15  1  0
 15 16  2  0
 16 17  1  0
 17 18  2  0
  2 19  1  0
 19 20  2  0
 20 21  1  0
 21 22  2  0
 22 23  1  0
 23 24  2  0
 24 25  1  0
 24 26  1  0
 26 27  2  0
 27 28  1  0
 28 29  2  0
 12  7  1  0
 18 13  1  0
 29 19  1  0
 28 22  1  0
  3 30  1  0
  4 31  1  0
  4 32  1  0
  8 33  1  0
  8 34  1  0
  9 35  1  0
  9 36  1  0
 10 37  1  0
 10 38  1  0
 11 39  1  0
 11 40  1  0
 12 41  1  6
 14 42  1  0
 15 43  1  0
 16 44  1  0
 17 45  1  0
 18 46  1  0
 20 47  1  0
 21 48  1  0
 23 49  1  0
 26 50  1  0
 27 51  1  0
M  END
>  <smiles>  (30) 
O=C(NCC(=O)N1CCCCC1c1ccccc1)c1ccc2cc(F)ccc2n1

>  <score_type>  (30) 
oracle

>  <origin>  (30) 
autodockgpu

>  <m_score__min__energy>  (30) 
-9.2699999999999996

>  <m_primary>  (30) 
energy

>  <rmsd>  (30) 
1.8462002387367569

>  <m_score__min__rmsd>  (30) 
1.8462002387367569

>  <meeko>  (30) 
{"free_energy": -8.06, "intermolecular_energy": -9.55, "internal_energy": -1.52, "cluster_size": 27, "cluster_id": 2, "rank_in_cluster": 26}

>  <energy>  (30) 
-8.51

>  <cluster_rmsd>  (30) 
0.0

>  <cluster>  (30) 
3

$$$$

     RDKit          3D

 51 54  0  0  0  0  0  0  0  0999 V2000
  140.8010   71.0880  221.3020 O   0  0  0  0  0  0  0  0  0  0  0  0
  140.3220   71.6830  222.3210 C   0  0  0  0  0  0  0  0  0  0  0  0
  139.9560   73.0510  222.2040 N   0  0  0  0  0  0  0  0  0  0  0  0
  140.1360   73.7410  220.9270 C   0  0  0  0  0  0  0  0  0  0  0  0
  140.7520   75.0590  221.1030 C   0  0  0  0  0  0  0  0  0  0  0  0
  140.6460   75.6150  222.2300 O   0  0  0  0  0  0  0  0  0  0  0  0
  141.4640   75.7690  220.1050 N   0  0  0  0  0  0  0  0  0  0  0  0
  140.7230   76.3680  219.0150 C   0  0  0  0  0  0  0  0  0  0  0  0
  141.2350   75.9490  217.6710 C   0  0  0  0  0  0  0  0  0  0  0  0
  142.7130   76.1910  217.6000 C   0  0  0  0  0  0  0  0  0  0  0  0
  143.2650   76.7540  218.8830 C   0  0  0  0  0  0  0  0  0  0  0  0
  142.9010   75.9410  220.0980 C   0  0  2  0  0  0  0  0  0  0  0  0
  143.6650   74.6840  220.0990 C   0  0  0  0  0  0  0  0  0  0  0  0
  144.9210   74.5100  220.5900 C   0  0  0  0  0  0  0  0  0  0  0  0
  145.5860   73.2920  220.5720 C   0  0  0  0  0  0  0  0  0  0  0  0
  144.9450   72.2000  220.0280 C   0  0  0  0  0  0  0  0  0  0  0  0
  143.6550   72.3260  219.5090 C   0  0  0  0  0  0  0  0  0  0  0  0
  143.0460   73.5530  219.5540 C   0  0  0  0  0  0  0  0  0  0  0  0
  140.1550   70.9620  223.5770 C   0  0  0  0  0  0  0  0  0  0  0  0
  139.4550   69.7740  223.5920 C   0  0  0  0  0  0  0  0  0  0  0  0
  139.2510   69.0310  224.7390 C   0  0  0  0  0  0  0  0  0  0  0  0
  139.7910   69.5340  225.9050 C   0  0  0  0  0  0  0  0  0  0  0  0
  139.6100   68.8260  227.0610 C   0  0  0  0  0  0  0  0  0  0  0  0
  140.1490   69.3270  228.2220 C   0  0  0  0  0  0  0  0  0  0  0  0
  139.9770   68.6310  229.3860 F   0  0  0  0  0  0  0  0  0  0  0  0
  140.8570   70.5070  228.2660 C   0  0  0  0  0  0  0  0  0  0  0  0
  141.0230   71.1990  227.0870 C   0  0  0  0  0  0  0  0  0  0  0  0
  140.5010   70.7350  225.8980 C   0  0  0  0  0  0  0  0  0  0  0  0
  140.6700   71.4240  224.7400 N   0  0  0  0  0  0  0  0  0  0  0  0
  139.5610   73.5280  223.0500 H   0  0  0  0  0  0  0  0  0  0  0  0
  140.7820   73.1296  220.2798 H   0  0  0  0  0  0  0  0  0  0  0  0
  139.1444   73.8848  220.4731 H   0  0  0  0  0  0  0  0  0  0  0  0
  139.6681   76.0678  219.0993 H   0  0  0  0  0  0  0  0  0  0  0  0
  140.8420   77.4589  219.0914 H   0  0  0  0  0  0  0  0  0  0  0  0
  141.0312   74.8788  217.5186 H   0  0  0  0  0  0  0  0  0  0  0  0
  140.7302   76.5342  216.8882 H   0  0  0  0  0  0  0  0  0  0  0  0
  143.2173   75.2369  217.3871 H   0  0  0  0  0  0  0  0  0  0  0  0
  142.8941   76.9290  216.8047 H   0  0  0  0  0  0  0  0  0  0  0  0
  144.3615   76.7915  218.8041 H   0  0  0  0  0  0  0  0  0  0  0  0
  142.8236   77.7527  219.0161 H   0  0  0  0  0  0  0  0  0  0  0  0
  143.1724   76.4486  221.0354 H   0  0  0  0  0  0  0  0  0  0  0  0
  145.4366   75.3795  221.0238 H   0  0  0  0  0  0  0  0  0  0  0  0
  146.6022   73.2002  220.9829 H   0  0  0  0  0  0  0  0  0  0  0  0
  145.4523   71.2243  220.0026 H   0  0  0  0  0  0  0  0  0  0  0  0
  143.1381   71.4584  219.0730 H   0  0  0  0  0  0  0  0  0  0  0  0
  142.0297   73.6530  219.1453 H   0  0  0  0  0  0  0  0  0  0  0  0
  139.0389   69.3997  222.6450 H   0  0  0  0  0  0  0  0  0  0  0  0
  138.6870   68.0868  224.7234 H   0  0  0  0  0  0  0  0  0  0  0  0
  139.0479   67.8805  227.0617 H   0  0  0  0  0  0  0  0  0  0  0  0
  141.2758   70.8842  229.2107 H   0  0  0  0  0  0  0  0  0  0  0  0
  141.5854   72.1444  227.0939 H   0  0  0  0  0  0  0  0  0  0  0  0
  1  2  2  0
  2  3  1  0
  3  4  1  0
  4  5  1  0
  5  6  2  0
  5  7  1  0
  7  8  1  0
  8  9  1  0
  9 10  1  0
 10 11  1  0
 11 12  1  0
 12 13  1  0
 13 14  2  0
 14 15  1  0
 15 16  2  0
 16 17  1  0
 17 18  2  0
  2 19  1  0
 19 20  2  0
 20 21  1  0
 21 22  2  0
 22 23  1  0
 23 24  2  0
 24 25  1  0
 24 26  1  0
 26 27  2  0
 27 28  1  0
 28 29  2  0
 12  7  1  0
 18 13  1  0
 29 19  1  0
 28 22  1  0
  3 30  1  0
  4 31  1  0
  4 32  1  0
  8 33  1  0
  8 34  1  0
  9 35  1  0
  9 36  1  0
 10 37  1  0
 10 38  1  0
 11 39  1  0
 11 40  1  0
 12 41  1  1
 14 42  1  0
 15 43  1  0
 16 44  1  0
 17 45  1  0
 18 46  1  0
 20 47  1  0
 21 48  1  0
 23 49  1  0
 26 50  1  0
 27 51  1  0
M  END
>  <smiles>  (31) 
O=C(NCC(=O)N1CCCCC1c1ccccc1)c1ccc2cc(F)ccc2n1

>  <score_type>  (31) 
oracle

>  <origin>  (31) 
autodockgpu

>  <m_score__min__energy>  (31) 
-9.2699999999999996

>  <m_primary>  (31) 
energy

>  <rmsd>  (31) 
1.7762967999680566

>  <m_score__min__rmsd>  (31) 
1.7762967999680566

>  <meeko>  (31) 
{"free_energy": -8.19, "intermolecular_energy": -9.68, "internal_energy": -1.85, "cluster_size": 13, "cluster_id": 3, "rank_in_cluster": 11}

>  <energy>  (31) 
-8.5

>  <cluster_rmsd>  (31) 
0.15

>  <cluster>  (31) 
3

$$$$

     RDKit          3D

 51 54  0  0  0  0  0  0  0  0999 V2000
  140.3540   71.7640  221.1210 O   0  0  0  0  0  0  0  0  0  0  0  0
  140.0720   72.2880  222.2470 C   0  0  0  0  0  0  0  0  0  0  0  0
  139.8080   73.6830  222.3040 N   0  0  0  0  0  0  0  0  0  0  0  0
  139.8640   74.4810  221.0800 C   0  0  0  0  0  0  0  0  0  0  0  0
  140.2890   75.8580  221.3460 C   0  0  0  0  0  0  0  0  0  0  0  0
  140.3890   76.2230  222.5490 O   0  0  0  0  0  0  0  0  0  0  0  0
  140.6010   76.8230  220.3580 N   0  0  0  0  0  0  0  0  0  0  0  0
  141.3690   76.4100  219.2010 C   0  0  0  0  0  0  0  0  0  0  0  0
  142.5870   77.2560  218.9860 C   0  0  0  0  0  0  0  0  0  0  0  0
  142.1950   78.7030  218.9650 C   0  0  0  0  0  0  0  0  0  0  0  0
  140.7180   78.9010  219.1850 C   0  0  0  0  0  0  0  0  0  0  0  0
  140.2000   78.2120  220.4200 C   0  0  2  0  0  0  0  0  0  0  0  0
  140.6680   78.9270  221.6180 C   0  0  0  0  0  0  0  0  0  0  0  0
  139.9170   79.7330  222.4140 C   0  0  0  0  0  0  0  0  0  0  0  0
  140.4150   80.3730  223.5410 C   0  0  0  0  0  0  0  0  0  0  0  0
  141.7390   80.1850  223.8730 C   0  0  0  0  0  0  0  0  0  0  0  0
  142.5530   79.3670  223.0870 C   0  0  0  0  0  0  0  0  0  0  0  0
  142.0080   78.7590  221.9870 C   0  0  0  0  0  0  0  0  0  0  0  0
  140.0230   71.4610  223.4460 C   0  0  0  0  0  0  0  0  0  0  0  0
  139.4300   70.2170  223.3920 C   0  0  0  0  0  0  0  0  0  0  0  0
  139.3430   69.3740  224.4820 C   0  0  0  0  0  0  0  0  0  0  0  0
  139.8870   69.8320  225.6640 C   0  0  0  0  0  0  0  0  0  0  0  0
  139.8190   69.0240  226.7650 C   0  0  0  0  0  0  0  0  0  0  0  0
  140.3610   69.4810  227.9430 C   0  0  0  0  0  0  0  0  0  0  0  0
  140.3010   68.6850  229.0530 F   0  0  0  0  0  0  0  0  0  0  0  0
  140.9660   70.7140  228.0550 C   0  0  0  0  0  0  0  0  0  0  0  0
  141.0190   71.5060  226.9300 C   0  0  0  0  0  0  0  0  0  0  0  0
  140.4890   71.0890  225.7270 C   0  0  0  0  0  0  0  0  0  0  0  0
  140.5470   71.8770  224.6230 N   0  0  0  0  0  0  0  0  0  0  0  0
  139.5760   74.1020  223.2370 H   0  0  0  0  0  0  0  0  0  0  0  0
  140.5783   74.0162  220.3845 H   0  0  0  0  0  0  0  0  0  0  0  0
  138.8534   74.5132  220.6468 H   0  0  0  0  0  0  0  0  0  0  0  0
  141.6856   75.3661  219.3426 H   0  0  0  0  0  0  0  0  0  0  0  0
  140.7250   76.5222  218.3163 H   0  0  0  0  0  0  0  0  0  0  0  0
  143.3028   77.0821  219.8030 H   0  0  0  0  0  0  0  0  0  0  0  0
  143.0532   76.9891  218.0261 H   0  0  0  0  0  0  0  0  0  0  0  0
  142.7442   79.2294  219.7596 H   0  0  0  0  0  0  0  0  0  0  0  0
  142.4426   79.1032  217.9708 H   0  0  0  0  0  0  0  0  0  0  0  0
  140.5208   79.9791  219.2784 H   0  0  0  0  0  0  0  0  0  0  0  0
  140.1987   78.4567  218.3231 H   0  0  0  0  0  0  0  0  0  0  0  0
  139.1016   78.2313  220.4770 H   0  0  0  0  0  0  0  0  0  0  0  0
  138.8598   79.8862  222.1517 H   0  0  0  0  0  0  0  0  0  0  0  0
  139.7671   81.0157  224.1551 H   0  0  0  0  0  0  0  0  0  0  0  0
  142.1566   80.6816  224.7613 H   0  0  0  0  0  0  0  0  0  0  0  0
  143.6110   79.2138  223.3459 H   0  0  0  0  0  0  0  0  0  0  0  0
  142.6489   78.1130  221.3690 H   0  0  0  0  0  0  0  0  0  0  0  0
  139.0059   69.8802  222.4345 H   0  0  0  0  0  0  0  0  0  0  0  0
  138.8638   68.3864  224.4114 H   0  0  0  0  0  0  0  0  0  0  0  0
  139.3429   68.0339  226.7097 H   0  0  0  0  0  0  0  0  0  0  0  0
  141.3920   71.0539  229.0105 H   0  0  0  0  0  0  0  0  0  0  0  0
  141.4957   72.4954  226.9922 H   0  0  0  0  0  0  0  0  0  0  0  0
  1  2  2  0
  2  3  1  0
  3  4  1  0
  4  5  1  0
  5  6  2  0
  5  7  1  0
  7  8  1  0
  8  9  1  0
  9 10  1  0
 10 11  1  0
 11 12  1  0
 12 13  1  0
 13 14  2  0
 14 15  1  0
 15 16  2  0
 16 17  1  0
 17 18  2  0
  2 19  1  0
 19 20  2  0
 20 21  1  0
 21 22  2  0
 22 23  1  0
 23 24  2  0
 24 25  1  0
 24 26  1  0
 26 27  2  0
 27 28  1  0
 28 29  2  0
 12  7  1  0
 18 13  1  0
 29 19  1  0
 28 22  1  0
  3 30  1  0
  4 31  1  0
  4 32  1  0
  8 33  1  0
  8 34  1  0
  9 35  1  0
  9 36  1  0
 10 37  1  0
 10 38  1  0
 11 39  1  0
 11 40  1  0
 12 41  1  6
 14 42  1  0
 15 43  1  0
 16 44  1  0
 17 45  1  0
 18 46  1  0
 20 47  1  0
 21 48  1  0
 23 49  1  0
 26 50  1  0
 27 51  1  0
M  END
>  <smiles>  (32) 
O=C(NCC(=O)N1CCCCC1c1ccccc1)c1ccc2cc(F)ccc2n1

>  <score_type>  (32) 
oracle

>  <origin>  (32) 
autodockgpu

>  <m_score__min__energy>  (32) 
-9.2699999999999996

>  <m_primary>  (32) 
energy

>  <rmsd>  (32) 
1.9201255785083549

>  <m_score__min__rmsd>  (32) 
1.9201255785083549

>  <meeko>  (32) 
{"free_energy": -8.67, "intermolecular_energy": -10.17, "internal_energy": -1.67, "cluster_size": 27, "cluster_id": 2, "rank_in_cluster": 16}

>  <energy>  (32) 
-8.45

>  <cluster_rmsd>  (32) 
0.11

>  <cluster>  (32) 
3

$$$$

     RDKit          3D

 51 54  0  0  0  0  0  0  0  0999 V2000
  136.0970   77.4750  222.8220 O   0  0  0  0  0  0  0  0  0  0  0  0
  136.3550   76.2930  223.2200 C   0  0  0  0  0  0  0  0  0  0  0  0
  137.5200   75.6450  222.7290 N   0  0  0  0  0  0  0  0  0  0  0  0
  138.3920   76.3430  221.7850 C   0  0  0  0  0  0  0  0  0  0  0  0
  139.6550   75.6280  221.5790 C   0  0  0  0  0  0  0  0  0  0  0  0
  139.8770   74.6060  222.2840 O   0  0  0  0  0  0  0  0  0  0  0  0
  140.6570   75.9900  220.6460 N   0  0  0  0  0  0  0  0  0  0  0  0
  141.4080   74.9400  219.9890 C   0  0  0  0  0  0  0  0  0  0  0  0
  142.8890   75.1120  220.1360 C   0  0  0  0  0  0  0  0  0  0  0  0
  143.2780   76.4930  219.7020 C   0  0  0  0  0  0  0  0  0  0  0  0
  142.0920   77.3160  219.2700 C   0  0  0  0  0  0  0  0  0  0  0  0
  140.9870   77.3550  220.2940 C   0  0  2  0  0  0  0  0  0  0  0  0
  141.3950   78.1940  221.4310 C   0  0  0  0  0  0  0  0  0  0  0  0
  141.3880   77.8290  222.7400 C   0  0  0  0  0  0  0  0  0  0  0  0
  141.7970   78.6660  223.7690 C   0  0  0  0  0  0  0  0  0  0  0  0
  142.2330   79.9350  223.4520 C   0  0  0  0  0  0  0  0  0  0  0  0
  142.2590   80.3590  222.1210 C   0  0  0  0  0  0  0  0  0  0  0  0
  141.8450   79.4900  221.1460 C   0  0  0  0  0  0  0  0  0  0  0  0
  135.4630   75.6290  224.1640 C   0  0  0  0  0  0  0  0  0  0  0  0
  134.6130   76.3840  224.9430 C   0  0  0  0  0  0  0  0  0  0  0  0
  133.7390   75.8340  225.8600 C   0  0  0  0  0  0  0  0  0  0  0  0
  133.7460   74.4580  225.9710 C   0  0  0  0  0  0  0  0  0  0  0  0
  132.8940   73.8770  226.8700 C   0  0  0  0  0  0  0  0  0  0  0  0
  132.9010   72.5060  226.9800 C   0  0  0  0  0  0  0  0  0  0  0  0
  132.0550   71.9100  227.8730 F   0  0  0  0  0  0  0  0  0  0  0  0
  133.7280   71.7030  226.2270 C   0  0  0  0  0  0  0  0  0  0  0  0
  134.5760   72.3160  225.3320 C   0  0  0  0  0  0  0  0  0  0  0  0
  134.6030   73.6870  225.1860 C   0  0  0  0  0  0  0  0  0  0  0  0
  135.4420   74.2830  224.3000 N   0  0  0  0  0  0  0  0  0  0  0  0
  137.7210   74.6730  223.0660 H   0  0  0  0  0  0  0  0  0  0  0  0
  137.8722   76.4327  220.8197 H   0  0  0  0  0  0  0  0  0  0  0  0
  138.6244   77.3337  222.2028 H   0  0  0  0  0  0  0  0  0  0  0  0
  141.1203   73.9734  220.4283 H   0  0  0  0  0  0  0  0  0  0  0  0
  141.1726   74.9840  218.9154 H   0  0  0  0  0  0  0  0  0  0  0  0
  143.1723   74.9652  221.1887 H   0  0  0  0  0  0  0  0  0  0  0  0
  143.4078   74.3714  219.5096 H   0  0  0  0  0  0  0  0  0  0  0  0
  143.7728   77.0011  220.5428 H   0  0  0  0  0  0  0  0  0  0  0  0
  143.9507   76.3952  218.8371 H   0  0  0  0  0  0  0  0  0  0  0  0
  142.4312   78.3456  219.0834 H   0  0  0  0  0  0  0  0  0  0  0  0
  141.6807   76.8440  218.3656 H   0  0  0  0  0  0  0  0  0  0  0  0
  140.0716   77.8208  219.9002 H   0  0  0  0  0  0  0  0  0  0  0  0
  141.0401   76.8177  222.9975 H   0  0  0  0  0  0  0  0  0  0  0  0
  141.7738   78.3244  224.8143 H   0  0  0  0  0  0  0  0  0  0  0  0
  142.5618   80.6165  224.2504 H   0  0  0  0  0  0  0  0  0  0  0  0
  142.6049   81.3703  221.8611 H   0  0  0  0  0  0  0  0  0  0  0  0
  141.8668   79.8230  220.0978 H   0  0  0  0  0  0  0  0  0  0  0  0
  134.6316   77.4779  224.8288 H   0  0  0  0  0  0  0  0  0  0  0  0
  133.0717   76.4601  226.4705 H   0  0  0  0  0  0  0  0  0  0  0  0
  132.2215   74.4898  227.4882 H   0  0  0  0  0  0  0  0  0  0  0  0
  133.7118   70.6086  226.3367 H   0  0  0  0  0  0  0  0  0  0  0  0
  135.2479   71.6974  224.7189 H   0  0  0  0  0  0  0  0  0  0  0  0
  1  2  2  0
  2  3  1  0
  3  4  1  0
  4  5  1  0
  5  6  2  0
  5  7  1  0
  7  8  1  0
  8  9  1  0
  9 10  1  0
 10 11  1  0
 11 12  1  0
 12 13  1  0
 13 14  2  0
 14 15  1  0
 15 16  2  0
 16 17  1  0
 17 18  2  0
  2 19  1  0
 19 20  2  0
 20 21  1  0
 21 22  2  0
 22 23  1  0
 23 24  2  0
 24 25  1  0
 24 26  1  0
 26 27  2  0
 27 28  1  0
 28 29  2  0
 12  7  1  0
 18 13  1  0
 29 19  1  0
 28 22  1  0
  3 30  1  0
  4 31  1  0
  4 32  1  0
  8 33  1  0
  8 34  1  0
  9 35  1  0
  9 36  1  0
 10 37  1  0
 10 38  1  0
 11 39  1  0
 11 40  1  0
 12 41  1  6
 14 42  1  0
 15 43  1  0
 16 44  1  0
 17 45  1  0
 18 46  1  0
 20 47  1  0
 21 48  1  0
 23 49  1  0
 26 50  1  0
 27 51  1  0
M  END
>  <smiles>  (33) 
O=C(NCC(=O)N1CCCCC1c1ccccc1)c1ccc2cc(F)ccc2n1

>  <score_type>  (33) 
oracle

>  <origin>  (33) 
autodockgpu

>  <m_score__min__energy>  (33) 
-9.2699999999999996

>  <m_primary>  (33) 
energy

>  <rmsd>  (33) 
5.887542564186867

>  <m_score__min__rmsd>  (33) 
5.887542564186867

>  <meeko>  (33) 
{"free_energy": -7.87, "intermolecular_energy": -9.36, "internal_energy": -1.94, "cluster_size": 7, "cluster_id": 4, "rank_in_cluster": 6}

>  <energy>  (33) 
-8.43

>  <cluster_rmsd>  (33) 
0.11

>  <cluster>  (33) 
3

$$$$

     RDKit          3D

 51 54  0  0  0  0  0  0  0  0999 V2000
  140.2150   71.8060  221.1170 O   0  0  0  0  0  0  0  0  0  0  0  0
  139.9900   72.3250  222.2580 C   0  0  0  0  0  0  0  0  0  0  0  0
  139.7570   73.7240  222.3390 N   0  0  0  0  0  0  0  0  0  0  0  0
  139.7810   74.5330  221.1200 C   0  0  0  0  0  0  0  0  0  0  0  0
  140.5230   75.7820  221.3090 C   0  0  0  0  0  0  0  0  0  0  0  0
  141.0060   76.0140  222.4510 O   0  0  0  0  0  0  0  0  0  0  0  0
  140.7480   76.7590  220.3090 N   0  0  0  0  0  0  0  0  0  0  0  0
  141.4370   76.3670  219.0960 C   0  0  0  0  0  0  0  0  0  0  0  0
  142.6220   77.2340  218.8020 C   0  0  0  0  0  0  0  0  0  0  0  0
  142.2070   78.6750  218.8210 C   0  0  0  0  0  0  0  0  0  0  0  0
  140.7470   78.8470  219.1480 C   0  0  0  0  0  0  0  0  0  0  0  0
  140.3310   78.1410  220.4120 C   0  0  2  0  0  0  0  0  0  0  0  0
  140.8720   78.8540  221.5800 C   0  0  0  0  0  0  0  0  0  0  0  0
  142.1870   78.9910  221.8960 C   0  0  0  0  0  0  0  0  0  0  0  0
  142.6360   79.6870  223.0090 C   0  0  0  0  0  0  0  0  0  0  0  0
  141.7050   80.2720  223.8400 C   0  0  0  0  0  0  0  0  0  0  0  0
  140.3420   80.1600  223.5600 C   0  0  0  0  0  0  0  0  0  0  0  0
  139.9550   79.4620  222.4460 C   0  0  0  0  0  0  0  0  0  0  0  0
  139.9730   71.4870  223.4510 C   0  0  0  0  0  0  0  0  0  0  0  0
  139.4070   70.2300  223.3920 C   0  0  0  0  0  0  0  0  0  0  0  0
  139.3500   69.3760  224.4760 C   0  0  0  0  0  0  0  0  0  0  0  0
  139.8970   69.8380  225.6560 C   0  0  0  0  0  0  0  0  0  0  0  0
  139.8580   69.0200  226.7510 C   0  0  0  0  0  0  0  0  0  0  0  0
  140.4030   69.4790  227.9270 C   0  0  0  0  0  0  0  0  0  0  0  0
  140.3730   68.6730  229.0310 F   0  0  0  0  0  0  0  0  0  0  0  0
  140.9810   70.7240  228.0430 C   0  0  0  0  0  0  0  0  0  0  0  0
  141.0050   71.5260  226.9240 C   0  0  0  0  0  0  0  0  0  0  0  0
  140.4710   71.1070  225.7230 C   0  0  0  0  0  0  0  0  0  0  0  0
  140.4990   71.9050  224.6250 N   0  0  0  0  0  0  0  0  0  0  0  0
  139.5720   74.1380  223.2840 H   0  0  0  0  0  0  0  0  0  0  0  0
  140.2596   73.9528  220.3173 H   0  0  0  0  0  0  0  0  0  0  0  0
  138.7433   74.7885  220.8594 H   0  0  0  0  0  0  0  0  0  0  0  0
  141.7794   75.3274  219.2054 H   0  0  0  0  0  0  0  0  0  0  0  0
  140.7294   76.4749  218.2608 H   0  0  0  0  0  0  0  0  0  0  0  0
  143.3969   77.0660  219.5644 H   0  0  0  0  0  0  0  0  0  0  0  0
  143.0223   76.9818  217.8089 H   0  0  0  0  0  0  0  0  0  0  0  0
  142.8036   79.2046  219.5784 H   0  0  0  0  0  0  0  0  0  0  0  0
  142.3764   79.0864  217.8150 H   0  0  0  0  0  0  0  0  0  0  0  0
  140.5396   79.9210  219.2638 H   0  0  0  0  0  0  0  0  0  0  0  0
  140.1739   78.4002  218.3222 H   0  0  0  0  0  0  0  0  0  0  0  0
  139.2395   78.1430  220.5485 H   0  0  0  0  0  0  0  0  0  0  0  0
  142.9335   78.5261  221.2352 H   0  0  0  0  0  0  0  0  0  0  0  0
  143.7117   79.7701  223.2236 H   0  0  0  0  0  0  0  0  0  0  0  0
  142.0375   80.8297  224.7279 H   0  0  0  0  0  0  0  0  0  0  0  0
  139.5937   80.6227  224.2203 H   0  0  0  0  0  0  0  0  0  0  0  0
  138.8812   79.3759  222.2233 H   0  0  0  0  0  0  0  0  0  0  0  0
  138.9808   69.8919  222.4359 H   0  0  0  0  0  0  0  0  0  0  0  0
  138.8921   68.3786  224.4026 H   0  0  0  0  0  0  0  0  0  0  0  0
  139.4024   68.0205  226.6926 H   0  0  0  0  0  0  0  0  0  0  0  0
  141.4088   71.0658  228.9970 H   0  0  0  0  0  0  0  0  0  0  0  0
  141.4610   72.5249  226.9893 H   0  0  0  0  0  0  0  0  0  0  0  0
  1  2  2  0
  2  3  1  0
  3  4  1  0
  4  5  1  0
  5  6  2  0
  5  7  1  0
  7  8  1  0
  8  9  1  0
  9 10  1  0
 10 11  1  0
 11 12  1  0
 12 13  1  0
 13 14  2  0
 14 15  1  0
 15 16  2  0
 16 17  1  0
 17 18  2  0
  2 19  1  0
 19 20  2  0
 20 21  1  0
 21 22  2  0
 22 23  1  0
 23 24  2  0
 24 25  1  0
 24 26  1  0
 26 27  2  0
 27 28  1  0
 28 29  2  0
 12  7  1  0
 18 13  1  0
 29 19  1  0
 28 22  1  0
  3 30  1  0
  4 31  1  0
  4 32  1  0
  8 33  1  0
  8 34  1  0
  9 35  1  0
  9 36  1  0
 10 37  1  0
 10 38  1  0
 11 39  1  0
 11 40  1  0
 12 41  1  1
 14 42  1  0
 15 43  1  0
 16 44  1  0
 17 45  1  0
 18 46  1  0
 20 47  1  0
 21 48  1  0
 23 49  1  0
 26 50  1  0
 27 51  1  0
M  END
>  <smiles>  (34) 
O=C(NCC(=O)N1CCCCC1c1ccccc1)c1ccc2cc(F)ccc2n1

>  <score_type>  (34) 
oracle

>  <origin>  (34) 
autodockgpu

>  <m_score__min__energy>  (34) 
-9.2699999999999996

>  <m_primary>  (34) 
energy

>  <rmsd>  (34) 
1.8776028268254263

>  <m_score__min__rmsd>  (34) 
1.8776028268254263

>  <meeko>  (34) 
{"free_energy": -8.72, "intermolecular_energy": -10.21, "internal_energy": -1.62, "cluster_size": 27, "cluster_id": 2, "rank_in_cluster": 12}

>  <energy>  (34) 
-8.42

>  <cluster_rmsd>  (34) 
0.23

>  <cluster>  (34) 
3

$$$$

     RDKit          3D

 51 54  0  0  0  0  0  0  0  0999 V2000
  141.0000   73.5700  220.9300 O   0  0  0  0  0  0  0  0  0  0  0  0
  140.3110   74.4320  221.5660 C   0  0  0  0  0  0  0  0  0  0  0  0
  139.1610   73.9980  222.2790 N   0  0  0  0  0  0  0  0  0  0  0  0
  138.7960   72.5820  222.2680 C   0  0  0  0  0  0  0  0  0  0  0  0
  139.6800   71.7850  223.1230 C   0  0  0  0  0  0  0  0  0  0  0  0
  140.8140   72.2600  223.4040 O   0  0  0  0  0  0  0  0  0  0  0  0
  139.3650   70.5160  223.6670 N   0  0  0  0  0  0  0  0  0  0  0  0
  138.1580   69.8500  223.2250 C   0  0  0  0  0  0  0  0  0  0  0  0
  137.2710   69.4480  224.3640 C   0  0  0  0  0  0  0  0  0  0  0  0
  138.0640   68.6590  225.3620 C   0  0  0  0  0  0  0  0  0  0  0  0
  139.5090   68.5130  224.9610 C   0  0  0  0  0  0  0  0  0  0  0  0
  140.1770   69.8260  224.6470 C   0  0  2  0  0  0  0  0  0  0  0  0
  140.4010   70.5780  225.8910 C   0  0  0  0  0  0  0  0  0  0  0  0
  141.0650   71.7590  226.0050 C   0  0  0  0  0  0  0  0  0  0  0  0
  141.2330   72.4270  227.2090 C   0  0  0  0  0  0  0  0  0  0  0  0
  140.7040   71.8690  228.3520 C   0  0  0  0  0  0  0  0  0  0  0  0
  140.0140   70.6560  228.2890 C   0  0  0  0  0  0  0  0  0  0  0  0
  139.8770   70.0400  227.0730 C   0  0  0  0  0  0  0  0  0  0  0  0
  140.7070   75.8360  221.5550 C   0  0  0  0  0  0  0  0  0  0  0  0
  141.0800   76.4280  220.3670 C   0  0  0  0  0  0  0  0  0  0  0  0
  141.4690   77.7500  220.2720 C   0  0  0  0  0  0  0  0  0  0  0  0
  141.4690   78.4800  221.4430 C   0  0  0  0  0  0  0  0  0  0  0  0
  141.8490   79.7930  221.3870 C   0  0  0  0  0  0  0  0  0  0  0  0
  141.8490   80.5210  222.5540 C   0  0  0  0  0  0  0  0  0  0  0  0
  142.2250   81.8340  222.5150 F   0  0  0  0  0  0  0  0  0  0  0  0
  141.4850   79.9810  223.7670 C   0  0  0  0  0  0  0  0  0  0  0  0
  141.1090   78.6570  223.7930 C   0  0  0  0  0  0  0  0  0  0  0  0
  141.0930   77.8880  222.6480 C   0  0  0  0  0  0  0  0  0  0  0  0
  140.7190   76.5830  222.6830 N   0  0  0  0  0  0  0  0  0  0  0  0
  138.6040   74.7180  222.7980 H   0  0  0  0  0  0  0  0  0  0  0  0
  137.7624   72.4780  222.6296 H   0  0  0  0  0  0  0  0  0  0  0  0
  138.8934   72.2120  221.2367 H   0  0  0  0  0  0  0  0  0  0  0  0
  137.5996   70.5327  222.5677 H   0  0  0  0  0  0  0  0  0  0  0  0
  138.4581   68.9329  222.6969 H   0  0  0  0  0  0  0  0  0  0  0  0
  136.8652   70.3486  224.8480 H   0  0  0  0  0  0  0  0  0  0  0  0
  136.4435   68.8310  223.9836 H   0  0  0  0  0  0  0  0  0  0  0  0
  138.0172   69.1709  226.3345 H   0  0  0  0  0  0  0  0  0  0  0  0
  137.6273   67.6508  225.4158 H   0  0  0  0  0  0  0  0  0  0  0  0
  140.0537   68.0333  225.7875 H   0  0  0  0  0  0  0  0  0  0  0  0
  139.5321   67.9084  224.0423 H   0  0  0  0  0  0  0  0  0  0  0  0
  141.1751   69.6899  224.2050 H   0  0  0  0  0  0  0  0  0  0  0  0
  141.4909   72.2079  225.0956 H   0  0  0  0  0  0  0  0  0  0  0  0
  141.7771   73.3821  227.2502 H   0  0  0  0  0  0  0  0  0  0  0  0
  140.8254   72.3806  229.3182 H   0  0  0  0  0  0  0  0  0  0  0  0
  139.5892   70.2044  229.1976 H   0  0  0  0  0  0  0  0  0  0  0  0
  139.3338   69.0848  227.0231 H   0  0  0  0  0  0  0  0  0  0  0  0
  141.0672   75.8186  219.4513 H   0  0  0  0  0  0  0  0  0  0  0  0
  141.7638   78.1981  219.3116 H   0  0  0  0  0  0  0  0  0  0  0  0
  142.1467   80.2544  220.4338 H   0  0  0  0  0  0  0  0  0  0  0  0
  141.4943   80.5873  224.6848 H   0  0  0  0  0  0  0  0  0  0  0  0
  140.8142   78.2014  224.7498 H   0  0  0  0  0  0  0  0  0  0  0  0
  1  2  2  0
  2  3  1  0
  3  4  1  0
  4  5  1  0
  5  6  2  0
  5  7  1  0
  7  8  1  0
  8  9  1  0
  9 10  1  0
 10 11  1  0
 11 12  1  0
 12 13  1  0
 13 14  2  0
 14 15  1  0
 15 16  2  0
 16 17  1  0
 17 18  2  0
  2 19  1  0
 19 20  2  0
 20 21  1  0
 21 22  2  0
 22 23  1  0
 23 24  2  0
 24 25  1  0
 24 26  1  0
 26 27  2  0
 27 28  1  0
 28 29  2  0
 12  7  1  0
 18 13  1  0
 29 19  1  0
 28 22  1  0
  3 30  1  0
  4 31  1  0
  4 32  1  0
  8 33  1  0
  8 34  1  0
  9 35  1  0
  9 36  1  0
 10 37  1  0
 10 38  1  0
 11 39  1  0
 11 40  1  0
 12 41  1  6
 14 42  1  0
 15 43  1  0
 16 44  1  0
 17 45  1  0
 18 46  1  0
 20 47  1  0
 21 48  1  0
 23 49  1  0
 26 50  1  0
 27 51  1  0
M  END
>  <smiles>  (35) 
O=C(NCC(=O)N1CCCCC1c1ccccc1)c1ccc2cc(F)ccc2n1

>  <score_type>  (35) 
oracle

>  <origin>  (35) 
autodockgpu

>  <m_score__min__energy>  (35) 
-9.2699999999999996

>  <m_primary>  (35) 
energy

>  <rmsd>  (35) 
8.663666063005353

>  <m_score__min__rmsd>  (35) 
8.663666063005353

>  <meeko>  (35) 
{"free_energy": -9.27, "intermolecular_energy": -10.76, "internal_energy": -0.95, "cluster_size": 2, "cluster_id": 1, "rank_in_cluster": 1}

>  <energy>  (35) 
-8.41

>  <cluster_rmsd>  (35) 
0.13

>  <cluster>  (35) 
3

$$$$

     RDKit          3D

 51 54  0  0  0  0  0  0  0  0999 V2000
  140.1190   71.8180  221.0870 O   0  0  0  0  0  0  0  0  0  0  0  0
  139.9330   72.3330  222.2370 C   0  0  0  0  0  0  0  0  0  0  0  0
  139.7270   73.7350  222.3330 N   0  0  0  0  0  0  0  0  0  0  0  0
  139.7330   74.5520  221.1190 C   0  0  0  0  0  0  0  0  0  0  0  0
  140.5340   75.7680  221.2850 C   0  0  0  0  0  0  0  0  0  0  0  0
  141.0810   75.9670  222.4030 O   0  0  0  0  0  0  0  0  0  0  0  0
  140.7480   76.7470  220.2850 N   0  0  0  0  0  0  0  0  0  0  0  0
  141.4380   76.3620  219.0710 C   0  0  0  0  0  0  0  0  0  0  0  0
  142.6160   77.2390  218.7750 C   0  0  0  0  0  0  0  0  0  0  0  0
  142.1890   78.6760  218.7950 C   0  0  0  0  0  0  0  0  0  0  0  0
  140.7280   78.8360  219.1250 C   0  0  0  0  0  0  0  0  0  0  0  0
  140.3200   78.1260  220.3890 C   0  0  2  0  0  0  0  0  0  0  0  0
  140.8570   78.8430  221.5560 C   0  0  0  0  0  0  0  0  0  0  0  0
  142.1720   79.0170  221.8540 C   0  0  0  0  0  0  0  0  0  0  0  0
  142.6160   79.7160  222.9680 C   0  0  0  0  0  0  0  0  0  0  0  0
  141.6810   80.2620  223.8200 C   0  0  0  0  0  0  0  0  0  0  0  0
  140.3170   80.1100  223.5590 C   0  0  0  0  0  0  0  0  0  0  0  0
  139.9350   79.4120  222.4440 C   0  0  0  0  0  0  0  0  0  0  0  0
  139.9330   71.4870  223.4250 C   0  0  0  0  0  0  0  0  0  0  0  0
  139.4110   70.2130  223.3530 C   0  0  0  0  0  0  0  0  0  0  0  0
  139.3720   69.3500  224.4310 C   0  0  0  0  0  0  0  0  0  0  0  0
  139.8920   69.8220  225.6190 C   0  0  0  0  0  0  0  0  0  0  0  0
  139.8710   68.9960  226.7090 C   0  0  0  0  0  0  0  0  0  0  0  0
  140.3880   69.4660  227.8920 C   0  0  0  0  0  0  0  0  0  0  0  0
  140.3750   68.6520  228.9910 F   0  0  0  0  0  0  0  0  0  0  0  0
  140.9230   70.7290  228.0210 C   0  0  0  0  0  0  0  0  0  0  0  0
  140.9300   71.5390  226.9080 C   0  0  0  0  0  0  0  0  0  0  0  0
  140.4220   71.1100  225.7000 C   0  0  0  0  0  0  0  0  0  0  0  0
  140.4340   71.9150  224.6070 N   0  0  0  0  0  0  0  0  0  0  0  0
  139.5750   74.1460  223.2850 H   0  0  0  0  0  0  0  0  0  0  0  0
  140.1528   73.9592  220.2930 H   0  0  0  0  0  0  0  0  0  0  0  0
  138.6968   74.8520  220.9038 H   0  0  0  0  0  0  0  0  0  0  0  0
  141.7890   75.3251  219.1790 H   0  0  0  0  0  0  0  0  0  0  0  0
  140.7280   76.4652  218.2372 H   0  0  0  0  0  0  0  0  0  0  0  0
  143.3936   77.0772  219.5361 H   0  0  0  0  0  0  0  0  0  0  0  0
  143.0169   76.9902  217.7813 H   0  0  0  0  0  0  0  0  0  0  0  0
  142.7826   79.2105  219.5512 H   0  0  0  0  0  0  0  0  0  0  0  0
  142.3528   79.0888  217.7886 H   0  0  0  0  0  0  0  0  0  0  0  0
  140.5122   79.9083  219.2420 H   0  0  0  0  0  0  0  0  0  0  0  0
  140.1570   78.3850  218.3000 H   0  0  0  0  0  0  0  0  0  0  0  0
  139.2287   78.1187  220.5271 H   0  0  0  0  0  0  0  0  0  0  0  0
  142.9224   78.5816  221.1778 H   0  0  0  0  0  0  0  0  0  0  0  0
  143.6918   79.8316  223.1664 H   0  0  0  0  0  0  0  0  0  0  0  0
  142.0098   80.8198  224.7093 H   0  0  0  0  0  0  0  0  0  0  0  0
  139.5648   80.5422  224.2354 H   0  0  0  0  0  0  0  0  0  0  0  0
  138.8611   79.2935  222.2376 H   0  0  0  0  0  0  0  0  0  0  0  0
  139.0060   69.8670  222.3906 H   0  0  0  0  0  0  0  0  0  0  0  0
  138.9482   68.3384  224.3468 H   0  0  0  0  0  0  0  0  0  0  0  0
  139.4511   67.9816  226.6402 H   0  0  0  0  0  0  0  0  0  0  0  0
  141.3308   71.0784  228.9810 H   0  0  0  0  0  0  0  0  0  0  0  0
  141.3508   72.5525  226.9841 H   0  0  0  0  0  0  0  0  0  0  0  0
  1  2  2  0
  2  3  1  0
  3  4  1  0
  4  5  1  0
  5  6  2  0
  5  7  1  0
  7  8  1  0
  8  9  1  0
  9 10  1  0
 10 11  1  0
 11 12  1  0
 12 13  1  0
 13 14  2  0
 14 15  1  0
 15 16  2  0
 16 17  1  0
 17 18  2  0
  2 19  1  0
 19 20  2  0
 20 21  1  0
 21 22  2  0
 22 23  1  0
 23 24  2  0
 24 25  1  0
 24 26  1  0
 26 27  2  0
 27 28  1  0
 28 29  2  0
 12  7  1  0
 18 13  1  0
 29 19  1  0
 28 22  1  0
  3 30  1  0
  4 31  1  0
  4 32  1  0
  8 33  1  0
  8 34  1  0
  9 35  1  0
  9 36  1  0
 10 37  1  0
 10 38  1  0
 11 39  1  0
 11 40  1  0
 12 41  1  1
 14 42  1  0
 15 43  1  0
 16 44  1  0
 17 45  1  0
 18 46  1  0
 20 47  1  0
 21 48  1  0
 23 49  1  0
 26 50  1  0
 27 51  1  0
M  END
>  <smiles>  (36) 
O=C(NCC(=O)N1CCCCC1c1ccccc1)c1ccc2cc(F)ccc2n1

>  <score_type>  (36) 
oracle

>  <origin>  (36) 
autodockgpu

>  <m_score__min__energy>  (36) 
-9.2699999999999996

>  <m_primary>  (36) 
energy

>  <rmsd>  (36) 
1.8599607654511852

>  <m_score__min__rmsd>  (36) 
1.8599607654511852

>  <meeko>  (36) 
{"free_energy": -8.68, "intermolecular_energy": -10.17, "internal_energy": -1.62, "cluster_size": 27, "cluster_id": 2, "rank_in_cluster": 15}

>  <energy>  (36) 
-8.34

>  <cluster_rmsd>  (36) 
0.33

>  <cluster>  (36) 
3

$$$$

     RDKit          3D

 51 54  0  0  0  0  0  0  0  0999 V2000
  140.7790   71.7420  221.1700 O   0  0  0  0  0  0  0  0  0  0  0  0
  140.3140   72.2790  222.2270 C   0  0  0  0  0  0  0  0  0  0  0  0
  139.9590   73.6550  222.1950 N   0  0  0  0  0  0  0  0  0  0  0  0
  140.1330   74.4180  220.9600 C   0  0  0  0  0  0  0  0  0  0  0  0
  140.3570   75.8420  221.2270 C   0  0  0  0  0  0  0  0  0  0  0  0
  140.2850   76.2370  222.4220 O   0  0  0  0  0  0  0  0  0  0  0  0
  140.6510   76.8210  220.2470 N   0  0  0  0  0  0  0  0  0  0  0  0
  141.3340   76.4110  219.0370 C   0  0  0  0  0  0  0  0  0  0  0  0
  142.5710   77.2140  218.7730 C   0  0  0  0  0  0  0  0  0  0  0  0
  142.2370   78.6750  218.8120 C   0  0  0  0  0  0  0  0  0  0  0  0
  140.7850   78.9250  219.1220 C   0  0  0  0  0  0  0  0  0  0  0  0
  140.3110   78.2230  220.3680 C   0  0  2  0  0  0  0  0  0  0  0  0
  140.8750   78.8850  221.5550 C   0  0  0  0  0  0  0  0  0  0  0  0
  142.1950   79.0070  221.8530 C   0  0  0  0  0  0  0  0  0  0  0  0
  142.6660   79.6550  222.9860 C   0  0  0  0  0  0  0  0  0  0  0  0
  141.7510   80.2040  223.8590 C   0  0  0  0  0  0  0  0  0  0  0  0
  140.3820   80.1050  223.5980 C   0  0  0  0  0  0  0  0  0  0  0  0
  139.9740   79.4550  222.4640 C   0  0  0  0  0  0  0  0  0  0  0  0
  140.1530   71.4860  223.4390 C   0  0  0  0  0  0  0  0  0  0  0  0
  139.5070   70.2690  223.3760 C   0  0  0  0  0  0  0  0  0  0  0  0
  139.3130   69.4590  224.4770 C   0  0  0  0  0  0  0  0  0  0  0  0
  139.8040   69.9220  225.6800 C   0  0  0  0  0  0  0  0  0  0  0  0
  139.6300   69.1470  226.7930 C   0  0  0  0  0  0  0  0  0  0  0  0
  140.1200   69.6080  227.9920 C   0  0  0  0  0  0  0  0  0  0  0  0
  139.9540   68.8450  229.1140 F   0  0  0  0  0  0  0  0  0  0  0  0
  140.7740   70.8150  228.1130 C   0  0  0  0  0  0  0  0  0  0  0  0
  140.9330   71.5750  226.9770 C   0  0  0  0  0  0  0  0  0  0  0  0
  140.4590   71.1520  225.7530 C   0  0  0  0  0  0  0  0  0  0  0  0
  140.6220   71.9080  224.6370 N   0  0  0  0  0  0  0  0  0  0  0  0
  139.5770   74.0840  223.0720 H   0  0  0  0  0  0  0  0  0  0  0  0
  140.9994   74.0176  220.4132 H   0  0  0  0  0  0  0  0  0  0  0  0
  139.2120   74.3221  220.3662 H   0  0  0  0  0  0  0  0  0  0  0  0
  141.6153   75.3519  219.1329 H   0  0  0  0  0  0  0  0  0  0  0  0
  140.6455   76.5733  218.1946 H   0  0  0  0  0  0  0  0  0  0  0  0
  143.3247   76.9896  219.5421 H   0  0  0  0  0  0  0  0  0  0  0  0
  142.9706   76.9559  217.7812 H   0  0  0  0  0  0  0  0  0  0  0  0
  142.8514   79.1570  219.5867 H   0  0  0  0  0  0  0  0  0  0  0  0
  142.4433   79.0924  217.8154 H   0  0  0  0  0  0  0  0  0  0  0  0
  140.6376   80.0071  219.2537 H   0  0  0  0  0  0  0  0  0  0  0  0
  140.1994   78.5256  218.2809 H   0  0  0  0  0  0  0  0  0  0  0  0
  139.2195   78.2846  220.4896 H   0  0  0  0  0  0  0  0  0  0  0  0
  142.9285   78.5693  221.1600 H   0  0  0  0  0  0  0  0  0  0  0  0
  143.7456   79.7290  223.1833 H   0  0  0  0  0  0  0  0  0  0  0  0
  142.1001   80.7219  224.7645 H   0  0  0  0  0  0  0  0  0  0  0  0
  139.6463   80.5407  224.2900 H   0  0  0  0  0  0  0  0  0  0  0  0
  138.8962   79.3773  222.2586 H   0  0  0  0  0  0  0  0  0  0  0  0
  139.1281   69.9273  222.4015 H   0  0  0  0  0  0  0  0  0  0  0  0
  138.7930   68.4929  224.3988 H   0  0  0  0  0  0  0  0  0  0  0  0
  139.1111   68.1791  226.7306 H   0  0  0  0  0  0  0  0  0  0  0  0
  141.1562   71.1594  229.0853 H   0  0  0  0  0  0  0  0  0  0  0  0
  141.4506   72.5431  227.0469 H   0  0  0  0  0  0  0  0  0  0  0  0
  1  2  2  0
  2  3  1  0
  3  4  1  0
  4  5  1  0
  5  6  2  0
  5  7  1  0
  7  8  1  0
  8  9  1  0
  9 10  1  0
 10 11  1  0
 11 12  1  0
 12 13  1  0
 13 14  2  0
 14 15  1  0
 15 16  2  0
 16 17  1  0
 17 18  2  0
  2 19  1  0
 19 20  2  0
 20 21  1  0
 21 22  2  0
 22 23  1  0
 23 24  2  0
 24 25  1  0
 24 26  1  0
 26 27  2  0
 27 28  1  0
 28 29  2  0
 12  7  1  0
 18 13  1  0
 29 19  1  0
 28 22  1  0
  3 30  1  0
  4 31  1  0
  4 32  1  0
  8 33  1  0
  8 34  1  0
  9 35  1  0
  9 36  1  0
 10 37  1  0
 10 38  1  0
 11 39  1  0
 11 40  1  0
 12 41  1  1
 14 42  1  0
 15 43  1  0
 16 44  1  0
 17 45  1  0
 18 46  1  0
 20 47  1  0
 21 48  1  0
 23 49  1  0
 26 50  1  0
 27 51  1  0
M  END
>  <smiles>  (37) 
O=C(NCC(=O)N1CCCCC1c1ccccc1)c1ccc2cc(F)ccc2n1

>  <score_type>  (37) 
oracle

>  <origin>  (37) 
autodockgpu

>  <m_score__min__energy>  (37) 
-9.2699999999999996

>  <m_primary>  (37) 
energy

>  <rmsd>  (37) 
1.9539030262587604

>  <m_score__min__rmsd>  (37) 
1.9539030262587604

>  <meeko>  (37) 
{"free_energy": -8.76, "intermolecular_energy": -10.25, "internal_energy": -1.66, "cluster_size": 27, "cluster_id": 2, "rank_in_cluster": 7}

>  <energy>  (37) 
-8.33

>  <cluster_rmsd>  (37) 
0.39

>  <cluster>  (37) 
3

$$$$

     RDKit          3D

 51 54  0  0  0  0  0  0  0  0999 V2000
  136.1480   77.3840  223.0690 O   0  0  0  0  0  0  0  0  0  0  0  0
  136.4150   76.1710  223.3490 C   0  0  0  0  0  0  0  0  0  0  0  0
  137.6030   75.5940  222.8240 N   0  0  0  0  0  0  0  0  0  0  0  0
  138.4860   76.3990  221.9800 C   0  0  0  0  0  0  0  0  0  0  0  0
  139.7180   75.6810  221.6420 C   0  0  0  0  0  0  0  0  0  0  0  0
  139.9480   74.5920  222.2340 O   0  0  0  0  0  0  0  0  0  0  0  0
  140.6810   76.1110  220.6970 N   0  0  0  0  0  0  0  0  0  0  0  0
  141.4340   75.1110  219.9680 C   0  0  0  0  0  0  0  0  0  0  0  0
  142.9150   75.3120  220.0770 C   0  0  0  0  0  0  0  0  0  0  0  0
  143.2590   76.7210  219.6990 C   0  0  0  0  0  0  0  0  0  0  0  0
  142.0420   77.5340  219.3430 C   0  0  0  0  0  0  0  0  0  0  0  0
  140.9700   77.4980  220.4010 C   0  0  2  0  0  0  0  0  0  0  0  0
  141.3950   78.2930  221.5640 C   0  0  0  0  0  0  0  0  0  0  0  0
  141.3700   77.8900  222.8620 C   0  0  0  0  0  0  0  0  0  0  0  0
  141.7960   78.6840  223.9170 C   0  0  0  0  0  0  0  0  0  0  0  0
  142.2690   79.9490  223.6400 C   0  0  0  0  0  0  0  0  0  0  0  0
  142.3130   80.4110  222.3220 C   0  0  0  0  0  0  0  0  0  0  0  0
  141.8810   79.5830  221.3200 C   0  0  0  0  0  0  0  0  0  0  0  0
  135.5120   75.4010  224.1950 C   0  0  0  0  0  0  0  0  0  0  0  0
  135.4650   74.0280  224.0690 C   0  0  0  0  0  0  0  0  0  0  0  0
  134.6380   73.2270  224.8300 C   0  0  0  0  0  0  0  0  0  0  0  0
  133.8350   73.8670  225.7530 C   0  0  0  0  0  0  0  0  0  0  0  0
  133.0020   73.1060  226.5260 C   0  0  0  0  0  0  0  0  0  0  0  0
  132.2030   73.7430  227.4450 C   0  0  0  0  0  0  0  0  0  0  0  0
  131.3650   72.9970  228.2250 F   0  0  0  0  0  0  0  0  0  0  0  0
  132.2090   75.1100  227.6150 C   0  0  0  0  0  0  0  0  0  0  0  0
  133.0570   75.8510  226.8230 C   0  0  0  0  0  0  0  0  0  0  0  0
  133.8770   75.2550  225.8880 C   0  0  0  0  0  0  0  0  0  0  0  0
  134.7110   75.9930  225.1110 N   0  0  0  0  0  0  0  0  0  0  0  0
  137.8120   74.5950  223.0640 H   0  0  0  0  0  0  0  0  0  0  0  0
  137.9556   76.6535  221.0505 H   0  0  0  0  0  0  0  0  0  0  0  0
  138.7607   77.3057  222.5390 H   0  0  0  0  0  0  0  0  0  0  0  0
  141.1827   74.1184  220.3699 H   0  0  0  0  0  0  0  0  0  0  0  0
  141.1631   75.1990  218.9055 H   0  0  0  0  0  0  0  0  0  0  0  0
  143.2353   75.1218  221.1120 H   0  0  0  0  0  0  0  0  0  0  0  0
  143.4297   74.6153  219.3990 H   0  0  0  0  0  0  0  0  0  0  0  0
  143.7678   77.2003  220.5483 H   0  0  0  0  0  0  0  0  0  0  0  0
  143.9069   76.6811  218.8110 H   0  0  0  0  0  0  0  0  0  0  0  0
  142.3515   78.5792  219.1952 H   0  0  0  0  0  0  0  0  0  0  0  0
  141.6131   77.0952  218.4300 H   0  0  0  0  0  0  0  0  0  0  0  0
  140.0322   77.9596  220.0583 H   0  0  0  0  0  0  0  0  0  0  0  0
  140.9923   76.8818  223.0877 H   0  0  0  0  0  0  0  0  0  0  0  0
  141.7572   78.3124  224.9516 H   0  0  0  0  0  0  0  0  0  0  0  0
  142.6130   80.5970  224.4596 H   0  0  0  0  0  0  0  0  0  0  0  0
  142.6872   81.4199  222.0936 H   0  0  0  0  0  0  0  0  0  0  0  0
  141.9174   79.9461  220.2823 H   0  0  0  0  0  0  0  0  0  0  0  0
  136.1186   73.5482  223.3256 H   0  0  0  0  0  0  0  0  0  0  0  0
  134.6195   72.1340  224.7074 H   0  0  0  0  0  0  0  0  0  0  0  0
  132.9723   72.0120  226.4150 H   0  0  0  0  0  0  0  0  0  0  0  0
  131.5581   75.5933  228.3585 H   0  0  0  0  0  0  0  0  0  0  0  0
  133.0811   76.9446  226.9388 H   0  0  0  0  0  0  0  0  0  0  0  0
  1  2  2  0
  2  3  1  0
  3  4  1  0
  4  5  1  0
  5  6  2  0
  5  7  1  0
  7  8  1  0
  8  9  1  0
  9 10  1  0
 10 11  1  0
 11 12  1  0
 12 13  1  0
 13 14  2  0
 14 15  1  0
 15 16  2  0
 16 17  1  0
 17 18  2  0
  2 19  1  0
 19 20  2  0
 20 21  1  0
 21 22  2  0
 22 23  1  0
 23 24  2  0
 24 25  1  0
 24 26  1  0
 26 27  2  0
 27 28  1  0
 28 29  2  0
 12  7  1  0
 18 13  1  0
 29 19  1  0
 28 22  1  0
  3 30  1  0
  4 31  1  0
  4 32  1  0
  8 33  1  0
  8 34  1  0
  9 35  1  0
  9 36  1  0
 10 37  1  0
 10 38  1  0
 11 39  1  0
 11 40  1  0
 12 41  1  6
 14 42  1  0
 15 43  1  0
 16 44  1  0
 17 45  1  0
 18 46  1  0
 20 47  1  0
 21 48  1  0
 23 49  1  0
 26 50  1  0
 27 51  1  0
M  END
>  <smiles>  (38) 
O=C(NCC(=O)N1CCCCC1c1ccccc1)c1ccc2cc(F)ccc2n1

>  <score_type>  (38) 
oracle

>  <origin>  (38) 
autodockgpu

>  <m_score__min__energy>  (38) 
-9.2699999999999996

>  <m_primary>  (38) 
energy

>  <rmsd>  (38) 
5.852407658999871

>  <m_score__min__rmsd>  (38) 
5.852407658999871

>  <meeko>  (38) 
{"free_energy": -8.19, "intermolecular_energy": -9.68, "internal_energy": -1.71, "cluster_size": 7, "cluster_id": 4, "rank_in_cluster": 4}

>  <energy>  (38) 
-8.24

>  <cluster_rmsd>  (38) 
0.43

>  <cluster>  (38) 
3

$$$$

     RDKit          3D

 51 54  0  0  0  0  0  0  0  0999 V2000
  141.2610   71.7460  221.4960 O   0  0  0  0  0  0  0  0  0  0  0  0
  140.5910   72.2610  222.4480 C   0  0  0  0  0  0  0  0  0  0  0  0
  140.1320   73.5990  222.3170 N   0  0  0  0  0  0  0  0  0  0  0  0
  140.4360   74.3510  221.1000 C   0  0  0  0  0  0  0  0  0  0  0  0
  140.1430   75.7790  221.2550 C   0  0  0  0  0  0  0  0  0  0  0  0
  139.5850   76.1550  222.3210 O   0  0  0  0  0  0  0  0  0  0  0  0
  140.4380   76.7820  220.3000 N   0  0  0  0  0  0  0  0  0  0  0  0
  141.0450   76.3910  219.0440 C   0  0  0  0  0  0  0  0  0  0  0  0
  142.3050   77.1470  218.7520 C   0  0  0  0  0  0  0  0  0  0  0  0
  142.0430   78.6190  218.8620 C   0  0  0  0  0  0  0  0  0  0  0  0
  140.6190   78.9210  219.2510 C   0  0  0  0  0  0  0  0  0  0  0  0
  140.1710   78.1920  220.4900 C   0  0  2  0  0  0  0  0  0  0  0  0
  140.8190   78.7800  221.6730 C   0  0  0  0  0  0  0  0  0  0  0  0
  142.1570   78.9000  221.8760 C   0  0  0  0  0  0  0  0  0  0  0  0
  142.7080   79.4760  223.0120 C   0  0  0  0  0  0  0  0  0  0  0  0
  141.8590   79.9510  223.9880 C   0  0  0  0  0  0  0  0  0  0  0  0
  140.4760   79.8510  223.8280 C   0  0  0  0  0  0  0  0  0  0  0  0
  139.9860   79.2740  222.6850 C   0  0  0  0  0  0  0  0  0  0  0  0
  140.3050   71.4800  223.6460 C   0  0  0  0  0  0  0  0  0  0  0  0
  139.5850   70.3090  223.5390 C   0  0  0  0  0  0  0  0  0  0  0  0
  139.2720   69.5130  224.6230 C   0  0  0  0  0  0  0  0  0  0  0  0
  139.7210   69.9420  225.8550 C   0  0  0  0  0  0  0  0  0  0  0  0
  139.4300   69.1790  226.9530 C   0  0  0  0  0  0  0  0  0  0  0  0
  139.8780   69.6070  228.1800 C   0  0  0  0  0  0  0  0  0  0  0  0
  139.5950   68.8550  229.2870 F   0  0  0  0  0  0  0  0  0  0  0  0
  140.6020   70.7670  228.3460 C   0  0  0  0  0  0  0  0  0  0  0  0
  140.8790   71.5150  227.2240 C   0  0  0  0  0  0  0  0  0  0  0  0
  140.4510   71.1250  225.9720 C   0  0  0  0  0  0  0  0  0  0  0  0
  140.7300   71.8690  224.8710 N   0  0  0  0  0  0  0  0  0  0  0  0
  139.5800   74.0100  223.1080 H   0  0  0  0  0  0  0  0  0  0  0  0
  141.5036   74.2301  220.8641 H   0  0  0  0  0  0  0  0  0  0  0  0
  139.8050   73.9585  220.2890 H   0  0  0  0  0  0  0  0  0  0  0  0
  141.2803   75.3173  219.0858 H   0  0  0  0  0  0  0  0  0  0  0  0
  140.3270   76.6186  218.2423 H   0  0  0  0  0  0  0  0  0  0  0  0
  143.0817   76.8580  219.4753 H   0  0  0  0  0  0  0  0  0  0  0  0
  142.6458   76.9109  217.7331 H   0  0  0  0  0  0  0  0  0  0  0  0
  142.7146   79.0415  219.6239 H   0  0  0  0  0  0  0  0  0  0  0  0
  142.2230   79.0667  217.8735 H   0  0  0  0  0  0  0  0  0  0  0  0
  140.5283   80.0024  219.4306 H   0  0  0  0  0  0  0  0  0  0  0  0
  139.9773   78.5820  218.4244 H   0  0  0  0  0  0  0  0  0  0  0  0
  139.0903   78.2978  220.6659 H   0  0  0  0  0  0  0  0  0  0  0  0
  142.8385   78.5212  221.1001 H   0  0  0  0  0  0  0  0  0  0  0  0
  143.7989   79.5518  223.1308 H   0  0  0  0  0  0  0  0  0  0  0  0
  142.2731   80.4111  224.8973 H   0  0  0  0  0  0  0  0  0  0  0  0
  139.7929   80.2276  224.6036 H   0  0  0  0  0  0  0  0  0  0  0  0
  138.8962   79.1959  222.5576 H   0  0  0  0  0  0  0  0  0  0  0  0
  139.2435   69.9937  222.5420 H   0  0  0  0  0  0  0  0  0  0  0  0
  138.6940   68.5840  224.5100 H   0  0  0  0  0  0  0  0  0  0  0  0
  138.8527   68.2476  226.8563 H   0  0  0  0  0  0  0  0  0  0  0  0
  140.9470   71.0848  229.3410 H   0  0  0  0  0  0  0  0  0  0  0  0
  141.4555   72.4460  227.3284 H   0  0  0  0  0  0  0  0  0  0  0  0
  1  2  2  0
  2  3  1  0
  3  4  1  0
  4  5  1  0
  5  6  2  0
  5  7  1  0
  7  8  1  0
  8  9  1  0
  9 10  1  0
 10 11  1  0
 11 12  1  0
 12 13  1  0
 13 14  2  0
 14 15  1  0
 15 16  2  0
 16 17  1  0
 17 18  2  0
  2 19  1  0
 19 20  2  0
 20 21  1  0
 21 22  2  0
 22 23  1  0
 23 24  2  0
 24 25  1  0
 24 26  1  0
 26 27  2  0
 27 28  1  0
 28 29  2  0
 12  7  1  0
 18 13  1  0
 29 19  1  0
 28 22  1  0
  3 30  1  0
  4 31  1  0
  4 32  1  0
  8 33  1  0
  8 34  1  0
  9 35  1  0
  9 36  1  0
 10 37  1  0
 10 38  1  0
 11 39  1  0
 11 40  1  0
 12 41  1  1
 14 42  1  0
 15 43  1  0
 16 44  1  0
 17 45  1  0
 18 46  1  0
 20 47  1  0
 21 48  1  0
 23 49  1  0
 26 50  1  0
 27 51  1  0
M  END
>  <smiles>  (39) 
O=C(NCC(=O)N1CCCCC1c1ccccc1)c1ccc2cc(F)ccc2n1

>  <score_type>  (39) 
oracle

>  <origin>  (39) 
autodockgpu

>  <m_score__min__energy>  (39) 
-9.2699999999999996

>  <m_primary>  (39) 
energy

>  <rmsd>  (39) 
2.020604063325132

>  <m_score__min__rmsd>  (39) 
2.020604063325132

>  <meeko>  (39) 
{"free_energy": -8.52, "intermolecular_energy": -10.01, "internal_energy": -1.73, "cluster_size": 27, "cluster_id": 2, "rank_in_cluster": 23}

>  <energy>  (39) 
-8.21

>  <cluster_rmsd>  (39) 
0.5

>  <cluster>  (39) 
3

$$$$

     RDKit          3D

 51 54  0  0  0  0  0  0  0  0999 V2000
  141.3940   72.1620  221.6290 O   0  0  0  0  0  0  0  0  0  0  0  0
  140.4060   72.3590  222.4070 C   0  0  0  0  0  0  0  0  0  0  0  0
  139.4910   73.4020  222.1000 N   0  0  0  0  0  0  0  0  0  0  0  0
  139.7020   74.2200  220.9070 C   0  0  0  0  0  0  0  0  0  0  0  0
  140.7490   75.2250  221.1130 C   0  0  0  0  0  0  0  0  0  0  0  0
  141.0300   75.5500  222.2980 O   0  0  0  0  0  0  0  0  0  0  0  0
  141.4800   75.8670  220.0840 N   0  0  0  0  0  0  0  0  0  0  0  0
  140.7510   76.5020  219.0050 C   0  0  0  0  0  0  0  0  0  0  0  0
  141.1920   76.0280  217.6540 C   0  0  0  0  0  0  0  0  0  0  0  0
  142.6810   76.1620  217.5370 C   0  0  0  0  0  0  0  0  0  0  0  0
  143.3090   76.7030  218.7950 C   0  0  0  0  0  0  0  0  0  0  0  0
  142.9250   75.9360  220.0330 C   0  0  2  0  0  0  0  0  0  0  0  0
  143.5970   74.6280  220.0330 C   0  0  0  0  0  0  0  0  0  0  0  0
  143.0640   73.4520  219.6090 C   0  0  0  0  0  0  0  0  0  0  0  0
  143.7550   72.2490  219.6240 C   0  0  0  0  0  0  0  0  0  0  0  0
  145.0510   72.2400  220.0950 C   0  0  0  0  0  0  0  0  0  0  0  0
  145.6450   73.4220  220.5440 C   0  0  0  0  0  0  0  0  0  0  0  0
  144.9150   74.5810  220.5050 C   0  0  0  0  0  0  0  0  0  0  0  0
  140.2270   71.5220  223.5880 C   0  0  0  0  0  0  0  0  0  0  0  0
  139.5550   70.3230  223.4760 C   0  0  0  0  0  0  0  0  0  0  0  0
  139.3430   69.4730  224.5440 C   0  0  0  0  0  0  0  0  0  0  0  0
  139.8430   69.8790  225.7650 C   0  0  0  0  0  0  0  0  0  0  0  0
  139.6520   69.0630  226.8460 C   0  0  0  0  0  0  0  0  0  0  0  0
  140.1510   69.4660  228.0620 C   0  0  0  0  0  0  0  0  0  0  0  0
  139.9690   68.6630  229.1530 F   0  0  0  0  0  0  0  0  0  0  0  0
  140.8300   70.6530  228.2310 C   0  0  0  0  0  0  0  0  0  0  0  0
  141.0070   71.4540  227.1260 C   0  0  0  0  0  0  0  0  0  0  0  0
  140.5240   71.0900  225.8860 C   0  0  0  0  0  0  0  0  0  0  0  0
  140.7040   71.8860  224.8010 N   0  0  0  0  0  0  0  0  0  0  0  0
  138.6820   73.5530  222.7490 H   0  0  0  0  0  0  0  0  0  0  0  0
  139.9965   73.5649  220.0739 H   0  0  0  0  0  0  0  0  0  0  0  0
  138.7625   74.7466  220.6835 H   0  0  0  0  0  0  0  0  0  0  0  0
  139.6804   76.2792  219.1243 H   0  0  0  0  0  0  0  0  0  0  0  0
  140.9494   77.5826  219.0599 H   0  0  0  0  0  0  0  0  0  0  0  0
  140.9078   74.9732  217.5250 H   0  0  0  0  0  0  0  0  0  0  0  0
  140.7075   76.6368  216.8764 H   0  0  0  0  0  0  0  0  0  0  0  0
  143.1095   75.1711  217.3261 H   0  0  0  0  0  0  0  0  0  0  0  0
  142.8912   76.8730  216.7244 H   0  0  0  0  0  0  0  0  0  0  0  0
  144.4026   76.6616  218.6844 H   0  0  0  0  0  0  0  0  0  0  0  0
  142.9428   77.7322  218.9240 H   0  0  0  0  0  0  0  0  0  0  0  0
  143.2600   76.4366  220.9534 H   0  0  0  0  0  0  0  0  0  0  0  0
  142.0299   73.4540  219.2340 H   0  0  0  0  0  0  0  0  0  0  0  0
  143.2797   71.3231  219.2681 H   0  0  0  0  0  0  0  0  0  0  0  0
  145.6193   71.2984  220.1173 H   0  0  0  0  0  0  0  0  0  0  0  0
  146.6782   73.4223  220.9214 H   0  0  0  0  0  0  0  0  0  0  0  0
  145.3827   75.5117  220.8585 H   0  0  0  0  0  0  0  0  0  0  0  0
  139.1692   70.0293  222.4886 H   0  0  0  0  0  0  0  0  0  0  0  0
  138.8035   68.5215  224.4275 H   0  0  0  0  0  0  0  0  0  0  0  0
  139.1132   68.1093  226.7450 H   0  0  0  0  0  0  0  0  0  0  0  0
  141.2177   70.9505  229.2165 H   0  0  0  0  0  0  0  0  0  0  0  0
  141.5462   72.4067  227.2340 H   0  0  0  0  0  0  0  0  0  0  0  0
  1  2  2  0
  2  3  1  0
  3  4  1  0
  4  5  1  0
  5  6  2  0
  5  7  1  0
  7  8  1  0
  8  9  1  0
  9 10  1  0
 10 11  1  0
 11 12  1  0
 12 13  1  0
 13 14  2  0
 14 15  1  0
 15 16  2  0
 16 17  1  0
 17 18  2  0
  2 19  1  0
 19 20  2  0
 20 21  1  0
 21 22  2  0
 22 23  1  0
 23 24  2  0
 24 25  1  0
 24 26  1  0
 26 27  2  0
 27 28  1  0
 28 29  2  0
 12  7  1  0
 18 13  1  0
 29 19  1  0
 28 22  1  0
  3 30  1  0
  4 31  1  0
  4 32  1  0
  8 33  1  0
  8 34  1  0
  9 35  1  0
  9 36  1  0
 10 37  1  0
 10 38  1  0
 11 39  1  0
 11 40  1  0
 12 41  1  1
 14 42  1  0
 15 43  1  0
 16 44  1  0
 17 45  1  0
 18 46  1  0
 20 47  1  0
 21 48  1  0
 23 49  1  0
 26 50  1  0
 27 51  1  0
M  END
>  <smiles>  (40) 
O=C(NCC(=O)N1CCCCC1c1ccccc1)c1ccc2cc(F)ccc2n1

>  <score_type>  (40) 
oracle

>  <origin>  (40) 
autodockgpu

>  <m_score__min__energy>  (40) 
-9.2699999999999996

>  <m_primary>  (40) 
energy

>  <rmsd>  (40) 
1.8318184415746503

>  <m_score__min__rmsd>  (40) 
1.8318184415746503

>  <meeko>  (40) 
{"free_energy": -8.5, "intermolecular_energy": -9.99, "internal_energy": -1.73, "cluster_size": 13, "cluster_id": 3, "rank_in_cluster": 2}

>  <energy>  (40) 
-8.19

>  <cluster_rmsd>  (40) 
0.42

>  <cluster>  (40) 
3

$$$$

     RDKit          3D

 51 54  0  0  0  0  0  0  0  0999 V2000
  141.3850   72.2110  221.6870 O   0  0  0  0  0  0  0  0  0  0  0  0
  140.4560   72.4210  222.5320 C   0  0  0  0  0  0  0  0  0  0  0  0
  139.5890   73.5290  222.3340 N   0  0  0  0  0  0  0  0  0  0  0  0
  139.7810   74.3990  221.1740 C   0  0  0  0  0  0  0  0  0  0  0  0
  140.4960   75.6290  221.5280 C   0  0  0  0  0  0  0  0  0  0  0  0
  141.7130   75.7160  221.2110 O   0  0  0  0  0  0  0  0  0  0  0  0
  139.9290   76.7390  222.2010 N   0  0  0  0  0  0  0  0  0  0  0  0
  138.5790   76.6260  222.7130 C   0  0  0  0  0  0  0  0  0  0  0  0
  137.6870   77.7300  222.2340 C   0  0  0  0  0  0  0  0  0  0  0  0
  138.3310   79.0540  222.5180 C   0  0  0  0  0  0  0  0  0  0  0  0
  139.6800   78.9080  223.1710 C   0  0  0  0  0  0  0  0  0  0  0  0
  140.6130   77.9960  222.4180 C   0  0  2  0  0  0  0  0  0  0  0  0
  141.0700   78.6610  221.1880 C   0  0  0  0  0  0  0  0  0  0  0  0
  140.8930   78.2070  219.9190 C   0  0  0  0  0  0  0  0  0  0  0  0
  141.3390   78.8890  218.7950 C   0  0  0  0  0  0  0  0  0  0  0  0
  141.9970   80.0870  218.9690 C   0  0  0  0  0  0  0  0  0  0  0  0
  142.2060   80.5950  220.2530 C   0  0  0  0  0  0  0  0  0  0  0  0
  141.7430   79.8810  221.3270 C   0  0  0  0  0  0  0  0  0  0  0  0
  140.2930   71.5310  223.6750 C   0  0  0  0  0  0  0  0  0  0  0  0
  139.6630   70.3160  223.5080 C   0  0  0  0  0  0  0  0  0  0  0  0
  139.4700   69.4170  224.5390 C   0  0  0  0  0  0  0  0  0  0  0  0
  139.9440   69.7890  225.7800 C   0  0  0  0  0  0  0  0  0  0  0  0
  139.7700   68.9240  226.8260 C   0  0  0  0  0  0  0  0  0  0  0  0
  140.2440   69.2940  228.0620 C   0  0  0  0  0  0  0  0  0  0  0  0
  140.0780   68.4410  229.1180 F   0  0  0  0  0  0  0  0  0  0  0  0
  140.8810   70.4940  228.2870 C   0  0  0  0  0  0  0  0  0  0  0  0
  141.0410   71.3450  227.2160 C   0  0  0  0  0  0  0  0  0  0  0  0
  140.5830   71.0160  225.9570 C   0  0  0  0  0  0  0  0  0  0  0  0
  140.7460   71.8610  224.9070 N   0  0  0  0  0  0  0  0  0  0  0  0
  138.8280   73.6900  223.0360 H   0  0  0  0  0  0  0  0  0  0  0  0
  140.3617   73.8559  220.4139 H   0  0  0  0  0  0  0  0  0  0  0  0
  138.7894   74.6789  220.7888 H   0  0  0  0  0  0  0  0  0  0  0  0
  138.1570   75.6646  222.3848 H   0  0  0  0  0  0  0  0  0  0  0  0
  138.6319   76.6925  223.8097 H   0  0  0  0  0  0  0  0  0  0  0  0
  137.5249   77.6262  221.1510 H   0  0  0  0  0  0  0  0  0  0  0  0
  136.7211   77.6731  222.7572 H   0  0  0  0  0  0  0  0  0  0  0  0
  138.4546   79.5974  221.5696 H   0  0  0  0  0  0  0  0  0  0  0  0
  137.6789   79.6016  223.2143 H   0  0  0  0  0  0  0  0  0  0  0  0
  140.1442   79.9030  223.2389 H   0  0  0  0  0  0  0  0  0  0  0  0
  139.5148   78.4582  224.1611 H   0  0  0  0  0  0  0  0  0  0  0  0
  141.5278   77.7747  222.9873 H   0  0  0  0  0  0  0  0  0  0  0  0
  140.3696   77.2502  219.7753 H   0  0  0  0  0  0  0  0  0  0  0  0
  141.1707   78.4817  217.7871 H   0  0  0  0  0  0  0  0  0  0  0  0
  142.3591   80.6455  218.0932 H   0  0  0  0  0  0  0  0  0  0  0  0
  142.7321   81.5499  220.3994 H   0  0  0  0  0  0  0  0  0  0  0  0
  141.9064   80.2820  222.3382 H   0  0  0  0  0  0  0  0  0  0  0  0
  139.2964   70.0497  222.5056 H   0  0  0  0  0  0  0  0  0  0  0  0
  138.9641   68.4535  224.3786 H   0  0  0  0  0  0  0  0  0  0  0  0
  139.2641   67.9580  226.6815 H   0  0  0  0  0  0  0  0  0  0  0  0
  141.2494   70.7636  229.2878 H   0  0  0  0  0  0  0  0  0  0  0  0
  141.5461   72.3102  227.3682 H   0  0  0  0  0  0  0  0  0  0  0  0
  1  2  2  0
  2  3  1  0
  3  4  1  0
  4  5  1  0
  5  6  2  0
  5  7  1  0
  7  8  1  0
  8  9  1  0
  9 10  1  0
 10 11  1  0
 11 12  1  0
 12 13  1  0
 13 14  2  0
 14 15  1  0
 15 16  2  0
 16 17  1  0
 17 18  2  0
  2 19  1  0
 19 20  2  0
 20 21  1  0
 21 22  2  0
 22 23  1  0
 23 24  2  0
 24 25  1  0
 24 26  1  0
 26 27  2  0
 27 28  1  0
 28 29  2  0
 12  7  1  0
 18 13  1  0
 29 19  1  0
 28 22  1  0
  3 30  1  0
  4 31  1  0
  4 32  1  0
  8 33  1  0
  8 34  1  0
  9 35  1  0
  9 36  1  0
 10 37  1  0
 10 38  1  0
 11 39  1  0
 11 40  1  0
 12 41  1  1
 14 42  1  0
 15 43  1  0
 16 44  1  0
 17 45  1  0
 18 46  1  0
 20 47  1  0
 21 48  1  0
 23 49  1  0
 26 50  1  0
 27 51  1  0
M  END
>  <smiles>  (41) 
O=C(NCC(=O)N1CCCCC1c1ccccc1)c1ccc2cc(F)ccc2n1

>  <score_type>  (41) 
oracle

>  <origin>  (41) 
autodockgpu

>  <m_score__min__energy>  (41) 
-9.2699999999999996

>  <m_primary>  (41) 
energy

>  <rmsd>  (41) 
3.0670700849178445

>  <m_score__min__rmsd>  (41) 
3.0670700849178445

>  <meeko>  (41) 
{"free_energy": -8.19, "intermolecular_energy": -9.68, "internal_energy": -1.27, "cluster_size": 27, "cluster_id": 2, "rank_in_cluster": 25}

>  <energy>  (41) 
-8.16

>  <cluster_rmsd>  (41) 
1.12

>  <cluster>  (41) 
3

$$$$

     RDKit          3D

 51 54  0  0  0  0  0  0  0  0999 V2000
  141.0760   71.7890  221.3810 O   0  0  0  0  0  0  0  0  0  0  0  0
  140.3480   72.1830  222.3490 C   0  0  0  0  0  0  0  0  0  0  0  0
  139.6710   73.4270  222.2320 N   0  0  0  0  0  0  0  0  0  0  0  0
  139.8220   74.2210  221.0130 C   0  0  0  0  0  0  0  0  0  0  0  0
  140.8190   75.2830  221.1750 C   0  0  0  0  0  0  0  0  0  0  0  0
  141.0780   75.6750  222.3450 O   0  0  0  0  0  0  0  0  0  0  0  0
  141.5240   75.9100  220.1190 N   0  0  0  0  0  0  0  0  0  0  0  0
  140.7700   76.4790  219.0220 C   0  0  0  0  0  0  0  0  0  0  0  0
  141.2220   75.9700  217.6870 C   0  0  0  0  0  0  0  0  0  0  0  0
  142.7050   76.1510  217.5580 C   0  0  0  0  0  0  0  0  0  0  0  0
  143.3190   76.7600  218.7910 C   0  0  0  0  0  0  0  0  0  0  0  0
  142.9660   76.0270  220.0590 C   0  0  2  0  0  0  0  0  0  0  0  0
  143.6820   74.7430  220.1050 C   0  0  0  0  0  0  0  0  0  0  0  0
  144.9530   74.5500  220.5480 C   0  0  0  0  0  0  0  0  0  0  0  0
  145.5710   73.3080  220.5770 C   0  0  0  0  0  0  0  0  0  0  0  0
  144.8660   72.2100  220.1330 C   0  0  0  0  0  0  0  0  0  0  0  0
  143.5580   72.3560  219.6660 C   0  0  0  0  0  0  0  0  0  0  0  0
  142.9960   73.6050  219.6610 C   0  0  0  0  0  0  0  0  0  0  0  0
  140.2200   71.3640  223.5480 C   0  0  0  0  0  0  0  0  0  0  0  0
  139.5940   70.1380  223.4710 C   0  0  0  0  0  0  0  0  0  0  0  0
  139.4310   69.3030  224.5580 C   0  0  0  0  0  0  0  0  0  0  0  0
  139.9340   69.7510  225.7630 C   0  0  0  0  0  0  0  0  0  0  0  0
  139.7920   68.9510  226.8620 C   0  0  0  0  0  0  0  0  0  0  0  0
  140.2930   69.3970  228.0620 C   0  0  0  0  0  0  0  0  0  0  0  0
  140.1590   68.6080  229.1710 F   0  0  0  0  0  0  0  0  0  0  0  0
  140.9280   70.6110  228.1970 C   0  0  0  0  0  0  0  0  0  0  0  0
  141.0570   71.3960  227.0730 C   0  0  0  0  0  0  0  0  0  0  0  0
  140.5700   70.9890  225.8490 C   0  0  0  0  0  0  0  0  0  0  0  0
  140.7010   71.7700  224.7460 N   0  0  0  0  0  0  0  0  0  0  0  0
  139.0740   73.7390  223.0360 H   0  0  0  0  0  0  0  0  0  0  0  0
  140.1374   73.5586  220.1934 H   0  0  0  0  0  0  0  0  0  0  0  0
  138.8535   74.6925  220.7900 H   0  0  0  0  0  0  0  0  0  0  0  0
  139.7081   76.2246  219.1550 H   0  0  0  0  0  0  0  0  0  0  0  0
  140.9313   77.5670  219.0358 H   0  0  0  0  0  0  0  0  0  0  0  0
  140.9741   74.9019  217.5989 H   0  0  0  0  0  0  0  0  0  0  0  0
  140.7137   76.5318  216.8895 H   0  0  0  0  0  0  0  0  0  0  0  0
  143.1667   75.1682  217.3821 H   0  0  0  0  0  0  0  0  0  0  0  0
  142.8870   76.8382  216.7186 H   0  0  0  0  0  0  0  0  0  0  0  0
  144.4130   76.7517  218.6763 H   0  0  0  0  0  0  0  0  0  0  0  0
  142.9186   77.7804  218.8833 H   0  0  0  0  0  0  0  0  0  0  0  0
  143.2873   76.5733  220.9581 H   0  0  0  0  0  0  0  0  0  0  0  0
  145.5205   75.4235  220.9016 H   0  0  0  0  0  0  0  0  0  0  0  0
  146.6016   73.2019  220.9465 H   0  0  0  0  0  0  0  0  0  0  0  0
  145.3353   71.2152  220.1465 H   0  0  0  0  0  0  0  0  0  0  0  0
  142.9898   71.4844  219.3089 H   0  0  0  0  0  0  0  0  0  0  0  0
  141.9654   73.7191  219.2939 H   0  0  0  0  0  0  0  0  0  0  0  0
  139.2055   69.8092  222.4958 H   0  0  0  0  0  0  0  0  0  0  0  0
  138.9259   68.3299  224.4686 H   0  0  0  0  0  0  0  0  0  0  0  0
  139.2897   67.9752  226.7882 H   0  0  0  0  0  0  0  0  0  0  0  0
  141.3192   70.9428  229.1701 H   0  0  0  0  0  0  0  0  0  0  0  0
  141.5604   72.3707  227.1536 H   0  0  0  0  0  0  0  0  0  0  0  0
  1  2  2  0
  2  3  1  0
  3  4  1  0
  4  5  1  0
  5  6  2  0
  5  7  1  0
  7  8  1  0
  8  9  1  0
  9 10  1  0
 10 11  1  0
 11 12  1  0
 12 13  1  0
 13 14  2  0
 14 15  1  0
 15 16  2  0
 16 17  1  0
 17 18  2  0
  2 19  1  0
 19 20  2  0
 20 21  1  0
 21 22  2  0
 22 23  1  0
 23 24  2  0
 24 25  1  0
 24 26  1  0
 26 27  2  0
 27 28  1  0
 28 29  2  0
 12  7  1  0
 18 13  1  0
 29 19  1  0
 28 22  1  0
  3 30  1  0
  4 31  1  0
  4 32  1  0
  8 33  1  0
  8 34  1  0
  9 35  1  0
  9 36  1  0
 10 37  1  0
 10 38  1  0
 11 39  1  0
 11 40  1  0
 12 41  1  1
 14 42  1  0
 15 43  1  0
 16 44  1  0
 17 45  1  0
 18 46  1  0
 20 47  1  0
 21 48  1  0
 23 49  1  0
 26 50  1  0
 27 51  1  0
M  END
>  <smiles>  (42) 
O=C(NCC(=O)N1CCCCC1c1ccccc1)c1ccc2cc(F)ccc2n1

>  <score_type>  (42) 
oracle

>  <origin>  (42) 
autodockgpu

>  <m_score__min__energy>  (42) 
-9.2699999999999996

>  <m_primary>  (42) 
energy

>  <rmsd>  (42) 
1.8029920296471282

>  <m_score__min__rmsd>  (42) 
1.8029920296471282

>  <meeko>  (42) 
{"free_energy": -8.41, "intermolecular_energy": -9.91, "internal_energy": -1.76, "cluster_size": 13, "cluster_id": 3, "rank_in_cluster": 6}

>  <energy>  (42) 
-8.03

>  <cluster_rmsd>  (42) 
1.01

>  <cluster>  (42) 
3

$$$$

     RDKit          3D

 51 54  0  0  0  0  0  0  0  0999 V2000
  139.9040   71.5700  221.1230 O   0  0  0  0  0  0  0  0  0  0  0  0
  139.7580   72.1150  222.2650 C   0  0  0  0  0  0  0  0  0  0  0  0
  139.4830   73.5080  222.3270 N   0  0  0  0  0  0  0  0  0  0  0  0
  139.3730   74.2800  221.0890 C   0  0  0  0  0  0  0  0  0  0  0  0
  139.7120   75.6900  221.2950 C   0  0  0  0  0  0  0  0  0  0  0  0
  139.4280   76.2090  222.4090 O   0  0  0  0  0  0  0  0  0  0  0  0
  140.3370   76.5280  220.3400 N   0  0  0  0  0  0  0  0  0  0  0  0
  141.1260   75.9180  219.2890 C   0  0  0  0  0  0  0  0  0  0  0  0
  142.5140   76.4750  219.2130 C   0  0  0  0  0  0  0  0  0  0  0  0
  142.4510   77.9710  219.1280 C   0  0  0  0  0  0  0  0  0  0  0  0
  141.0370   78.4880  219.1660 C   0  0  0  0  0  0  0  0  0  0  0  0
  140.2430   77.9730  220.3380 C   0  0  2  0  0  0  0  0  0  0  0  0
  140.7130   78.6150  221.5750 C   0  0  0  0  0  0  0  0  0  0  0  0
  141.4210   78.0180  222.5690 C   0  0  0  0  0  0  0  0  0  0  0  0
  141.8460   78.6830  223.7100 C   0  0  0  0  0  0  0  0  0  0  0  0
  141.5350   80.0190  223.8490 C   0  0  0  0  0  0  0  0  0  0  0  0
  140.8080   80.6790  222.8560 C   0  0  0  0  0  0  0  0  0  0  0  0
  140.4150   79.9730  221.7490 C   0  0  0  0  0  0  0  0  0  0  0  0
  139.8730   71.3140  223.4770 C   0  0  0  0  0  0  0  0  0  0  0  0
  139.4640   69.9970  223.4640 C   0  0  0  0  0  0  0  0  0  0  0  0
  139.5390   69.1720  224.5690 C   0  0  0  0  0  0  0  0  0  0  0  0
  140.0540   69.7280  225.7220 C   0  0  0  0  0  0  0  0  0  0  0  0
  140.1430   68.9410  226.8370 C   0  0  0  0  0  0  0  0  0  0  0  0
  140.6570   69.4940  227.9860 C   0  0  0  0  0  0  0  0  0  0  0  0
  140.7530   68.7210  229.1090 F   0  0  0  0  0  0  0  0  0  0  0  0
  141.0810   70.8030  228.0560 C   0  0  0  0  0  0  0  0  0  0  0  0
  140.9790   71.5720  226.9180 C   0  0  0  0  0  0  0  0  0  0  0  0
  140.4700   71.0590  225.7430 C   0  0  0  0  0  0  0  0  0  0  0  0
  140.3740   71.8250  224.6260 N   0  0  0  0  0  0  0  0  0  0  0  0
  139.3650   73.9440  223.2730 H   0  0  0  0  0  0  0  0  0  0  0  0
  140.0590   73.8544  220.3419 H   0  0  0  0  0  0  0  0  0  0  0  0
  138.3299   74.2261  220.7441 H   0  0  0  0  0  0  0  0  0  0  0  0
  141.1904   74.8365  219.4795 H   0  0  0  0  0  0  0  0  0  0  0  0
  140.6283   76.1327  218.3318 H   0  0  0  0  0  0  0  0  0  0  0  0
  143.0757   76.1826  220.1124 H   0  0  0  0  0  0  0  0  0  0  0  0
  143.0185   76.0789  218.3193 H   0  0  0  0  0  0  0  0  0  0  0  0
  143.0060   78.3970  219.9768 H   0  0  0  0  0  0  0  0  0  0  0  0
  142.8929   78.2717  218.1666 H   0  0  0  0  0  0  0  0  0  0  0  0
  141.0686   79.5861  219.2218 H   0  0  0  0  0  0  0  0  0  0  0  0
  140.5366   78.1323  218.2533 H   0  0  0  0  0  0  0  0  0  0  0  0
  139.1761   78.2299  220.2626 H   0  0  0  0  0  0  0  0  0  0  0  0
  141.6703   76.9518  222.4636 H   0  0  0  0  0  0  0  0  0  0  0  0
  142.4188   78.1557  224.4871 H   0  0  0  0  0  0  0  0  0  0  0  0
  141.8608   80.5671  224.7454 H   0  0  0  0  0  0  0  0  0  0  0  0
  140.5557   81.7446  222.9603 H   0  0  0  0  0  0  0  0  0  0  0  0
  139.8431   80.4929  220.9663 H   0  0  0  0  0  0  0  0  0  0  0  0
  139.0586   69.5838  222.5286 H   0  0  0  0  0  0  0  0  0  0  0  0
  139.2050   68.1246  224.5318 H   0  0  0  0  0  0  0  0  0  0  0  0
  139.8118   67.8923  226.8150 H   0  0  0  0  0  0  0  0  0  0  0  0
  141.4873   71.2199  228.9894 H   0  0  0  0  0  0  0  0  0  0  0  0
  141.3113   72.6202  226.9467 H   0  0  0  0  0  0  0  0  0  0  0  0
  1  2  2  0
  2  3  1  0
  3  4  1  0
  4  5  1  0
  5  6  2  0
  5  7  1  0
  7  8  1  0
  8  9  1  0
  9 10  1  0
 10 11  1  0
 11 12  1  0
 12 13  1  0
 13 14  2  0
 14 15  1  0
 15 16  2  0
 16 17  1  0
 17 18  2  0
  2 19  1  0
 19 20  2  0
 20 21  1  0
 21 22  2  0
 22 23  1  0
 23 24  2  0
 24 25  1  0
 24 26  1  0
 26 27  2  0
 27 28  1  0
 28 29  2  0
 12  7  1  0
 18 13  1  0
 29 19  1  0
 28 22  1  0
  3 30  1  0
  4 31  1  0
  4 32  1  0
  8 33  1  0
  8 34  1  0
  9 35  1  0
  9 36  1  0
 10 37  1  0
 10 38  1  0
 11 39  1  0
 11 40  1  0
 12 41  1  6
 14 42  1  0
 15 43  1  0
 16 44  1  0
 17 45  1  0
 18 46  1  0
 20 47  1  0
 21 48  1  0
 23 49  1  0
 26 50  1  0
 27 51  1  0
M  END
>  <smiles>  (43) 
O=C(NCC(=O)N1CCCCC1c1ccccc1)c1ccc2cc(F)ccc2n1

>  <score_type>  (43) 
oracle

>  <origin>  (43) 
autodockgpu

>  <m_score__min__energy>  (43) 
-9.2699999999999996

>  <m_primary>  (43) 
energy

>  <rmsd>  (43) 
1.6992667454323165

>  <m_score__min__rmsd>  (43) 
1.6992667454323165

>  <meeko>  (43) 
{"free_energy": -8.41, "intermolecular_energy": -9.9, "internal_energy": -1.58, "cluster_size": 27, "cluster_id": 2, "rank_in_cluster": 24}

>  <energy>  (43) 
-8.2

>  <cluster_rmsd>  (43) 
0.0

>  <cluster>  (43) 
4

$$$$

     RDKit          3D

 51 54  0  0  0  0  0  0  0  0999 V2000
  140.3200   71.4030  221.1280 O   0  0  0  0  0  0  0  0  0  0  0  0
  140.0430   71.9530  222.2420 C   0  0  0  0  0  0  0  0  0  0  0  0
  139.7760   73.3490  222.2670 N   0  0  0  0  0  0  0  0  0  0  0  0
  139.8250   74.1170  221.0230 C   0  0  0  0  0  0  0  0  0  0  0  0
  140.6630   75.3120  221.1540 C   0  0  0  0  0  0  0  0  0  0  0  0
  140.7290   75.8660  222.2840 O   0  0  0  0  0  0  0  0  0  0  0  0
  141.4140   75.9010  220.1080 N   0  0  0  0  0  0  0  0  0  0  0  0
  140.7060   76.4880  218.9890 C   0  0  0  0  0  0  0  0  0  0  0  0
  141.1660   75.9490  217.6690 C   0  0  0  0  0  0  0  0  0  0  0  0
  142.6570   76.0720  217.5700 C   0  0  0  0  0  0  0  0  0  0  0  0
  143.2680   76.6690  218.8110 C   0  0  0  0  0  0  0  0  0  0  0  0
  142.8600   75.9630  220.0770 C   0  0  2  0  0  0  0  0  0  0  0  0
  143.5260   74.6530  220.1500 C   0  0  0  0  0  0  0  0  0  0  0  0
  142.9480   73.4460  219.9190 C   0  0  0  0  0  0  0  0  0  0  0  0
  143.6350   72.2420  219.9930 C   0  0  0  0  0  0  0  0  0  0  0  0
  144.9740   72.2680  220.3200 C   0  0  0  0  0  0  0  0  0  0  0  0
  145.6150   73.4830  220.5690 C   0  0  0  0  0  0  0  0  0  0  0  0
  144.8870   74.6410  220.4800 C   0  0  0  0  0  0  0  0  0  0  0  0
  140.0020   71.1550  223.4610 C   0  0  0  0  0  0  0  0  0  0  0  0
  139.4160   69.9070  223.4390 C   0  0  0  0  0  0  0  0  0  0  0  0
  139.3360   69.0900  224.5490 C   0  0  0  0  0  0  0  0  0  0  0  0
  139.8820   69.5800  225.7180 C   0  0  0  0  0  0  0  0  0  0  0  0
  139.8210   68.7980  226.8390 C   0  0  0  0  0  0  0  0  0  0  0  0
  140.3640   69.2860  228.0030 C   0  0  0  0  0  0  0  0  0  0  0  0
  140.3120   68.5170  229.1320 F   0  0  0  0  0  0  0  0  0  0  0  0
  140.9630   70.5240  228.0830 C   0  0  0  0  0  0  0  0  0  0  0  0
  141.0090   71.2900  226.9400 C   0  0  0  0  0  0  0  0  0  0  0  0
  140.4770   70.8410  225.7490 C   0  0  0  0  0  0  0  0  0  0  0  0
  140.5270   71.6020  224.6260 N   0  0  0  0  0  0  0  0  0  0  0  0
  139.5490   73.7890  223.1910 H   0  0  0  0  0  0  0  0  0  0  0  0
  140.2363   73.4792  220.2267 H   0  0  0  0  0  0  0  0  0  0  0  0
  138.8022   74.4414  220.7809 H   0  0  0  0  0  0  0  0  0  0  0  0
  139.6324   76.2761  219.1012 H   0  0  0  0  0  0  0  0  0  0  0  0
  140.9093   77.5690  218.9964 H   0  0  0  0  0  0  0  0  0  0  0  0
  140.8793   74.8903  217.5854 H   0  0  0  0  0  0  0  0  0  0  0  0
  140.6965   76.5219  216.8558 H   0  0  0  0  0  0  0  0  0  0  0  0
  143.0843   75.0707  217.4125 H   0  0  0  0  0  0  0  0  0  0  0  0
  142.8828   76.7437  216.7287 H   0  0  0  0  0  0  0  0  0  0  0  0
  144.3630   76.6172  218.7202 H   0  0  0  0  0  0  0  0  0  0  0  0
  142.9057   77.7050  218.8855 H   0  0  0  0  0  0  0  0  0  0  0  0
  143.1821   76.5063  220.9776 H   0  0  0  0  0  0  0  0  0  0  0  0
  141.8793   73.4211  219.6597 H   0  0  0  0  0  0  0  0  0  0  0  0
  143.1226   71.2889  219.7952 H   0  0  0  0  0  0  0  0  0  0  0  0
  145.5400   71.3270  220.3851 H   0  0  0  0  0  0  0  0  0  0  0  0
  146.6829   73.5105  220.8314 H   0  0  0  0  0  0  0  0  0  0  0  0
  145.3917   75.5986  220.6755 H   0  0  0  0  0  0  0  0  0  0  0  0
  138.9917   69.5448  222.4910 H   0  0  0  0  0  0  0  0  0  0  0  0
  138.8612   68.0988  224.5040 H   0  0  0  0  0  0  0  0  0  0  0  0
  139.3496   67.8046  226.8092 H   0  0  0  0  0  0  0  0  0  0  0  0
  141.3904   70.8884  229.0288 H   0  0  0  0  0  0  0  0  0  0  0  0
  141.4808   72.2830  226.9773 H   0  0  0  0  0  0  0  0  0  0  0  0
  1  2  2  0
  2  3  1  0
  3  4  1  0
  4  5  1  0
  5  6  2  0
  5  7  1  0
  7  8  1  0
  8  9  1  0
  9 10  1  0
 10 11  1  0
 11 12  1  0
 12 13  1  0
 13 14  2  0
 14 15  1  0
 15 16  2  0
 16 17  1  0
 17 18  2  0
  2 19  1  0
 19 20  2  0
 20 21  1  0
 21 22  2  0
 22 23  1  0
 23 24  2  0
 24 25  1  0
 24 26  1  0
 26 27  2  0
 27 28  1  0
 28 29  2  0
 12  7  1  0
 18 13  1  0
 29 19  1  0
 28 22  1  0
  3 30  1  0
  4 31  1  0
  4 32  1  0
  8 33  1  0
  8 34  1  0
  9 35  1  0
  9 36  1  0
 10 37  1  0
 10 38  1  0
 11 39  1  0
 11 40  1  0
 12 41  1  1
 14 42  1  0
 15 43  1  0
 16 44  1  0
 17 45  1  0
 18 46  1  0
 20 47  1  0
 21 48  1  0
 23 49  1  0
 26 50  1  0
 27 51  1  0
M  END
>  <smiles>  (44) 
O=C(NCC(=O)N1CCCCC1c1ccccc1)c1ccc2cc(F)ccc2n1

>  <score_type>  (44) 
oracle

>  <origin>  (44) 
autodockgpu

>  <m_score__min__energy>  (44) 
-9.2699999999999996

>  <m_primary>  (44) 
energy

>  <rmsd>  (44) 
1.714807275565886

>  <m_score__min__rmsd>  (44) 
1.714807275565886

>  <meeko>  (44) 
{"free_energy": -8.34, "intermolecular_energy": -9.83, "internal_energy": -1.92, "cluster_size": 13, "cluster_id": 3, "rank_in_cluster": 7}

>  <energy>  (44) 
-8.2

>  <cluster_rmsd>  (44) 
0.07

>  <cluster>  (44) 
4

$$$$

     RDKit          3D

 51 54  0  0  0  0  0  0  0  0999 V2000
  141.1430   72.0130  221.4250 O   0  0  0  0  0  0  0  0  0  0  0  0
  140.3340   72.3290  222.3550 C   0  0  0  0  0  0  0  0  0  0  0  0
  139.5570   73.5110  222.2130 N   0  0  0  0  0  0  0  0  0  0  0  0
  139.7020   74.3310  221.0110 C   0  0  0  0  0  0  0  0  0  0  0  0
  140.7820   75.3120  221.1480 C   0  0  0  0  0  0  0  0  0  0  0  0
  141.1100   75.6700  222.3120 O   0  0  0  0  0  0  0  0  0  0  0  0
  141.4980   75.8950  220.0740 N   0  0  0  0  0  0  0  0  0  0  0  0
  140.7530   76.4740  218.9750 C   0  0  0  0  0  0  0  0  0  0  0  0
  141.1700   75.9280  217.6450 C   0  0  0  0  0  0  0  0  0  0  0  0
  142.6570   76.0510  217.4960 C   0  0  0  0  0  0  0  0  0  0  0  0
  143.3070   76.6570  218.7120 C   0  0  0  0  0  0  0  0  0  0  0  0
  142.9420   75.9580  219.9960 C   0  0  2  0  0  0  0  0  0  0  0  0
  143.6110   74.6490  220.0550 C   0  0  0  0  0  0  0  0  0  0  0  0
  143.0630   73.4520  219.7160 C   0  0  0  0  0  0  0  0  0  0  0  0
  143.7530   72.2500  219.7840 C   0  0  0  0  0  0  0  0  0  0  0  0
  145.0610   72.2640  220.2180 C   0  0  0  0  0  0  0  0  0  0  0  0
  145.6700   73.4680  220.5790 C   0  0  0  0  0  0  0  0  0  0  0  0
  144.9420   74.6250  220.4920 C   0  0  0  0  0  0  0  0  0  0  0  0
  140.2140   71.4860  223.5380 C   0  0  0  0  0  0  0  0  0  0  0  0
  139.5900   70.2600  223.4410 C   0  0  0  0  0  0  0  0  0  0  0  0
  139.4360   69.4030  224.5120 C   0  0  0  0  0  0  0  0  0  0  0  0
  139.9460   69.8290  225.7220 C   0  0  0  0  0  0  0  0  0  0  0  0
  139.8110   69.0060  226.8070 C   0  0  0  0  0  0  0  0  0  0  0  0
  140.3190   69.4300  228.0120 C   0  0  0  0  0  0  0  0  0  0  0  0
  140.1930   68.6190  229.1060 F   0  0  0  0  0  0  0  0  0  0  0  0
  140.9530   70.6430  228.1670 C   0  0  0  0  0  0  0  0  0  0  0  0
  141.0730   71.4500  227.0590 C   0  0  0  0  0  0  0  0  0  0  0  0
  140.5790   71.0670  225.8290 C   0  0  0  0  0  0  0  0  0  0  0  0
  140.7020   71.8690  224.7410 N   0  0  0  0  0  0  0  0  0  0  0  0
  138.8940   73.7590  222.9860 H   0  0  0  0  0  0  0  0  0  0  0  0
  139.9237   73.6744  220.1568 H   0  0  0  0  0  0  0  0  0  0  0  0
  138.7607   74.8785  220.8552 H   0  0  0  0  0  0  0  0  0  0  0  0
  139.6840   76.2614  219.1235 H   0  0  0  0  0  0  0  0  0  0  0  0
  140.9550   77.5553  218.9691 H   0  0  0  0  0  0  0  0  0  0  0  0
  140.8814   74.8687  217.5771 H   0  0  0  0  0  0  0  0  0  0  0  0
  140.6738   76.4962  216.8444 H   0  0  0  0  0  0  0  0  0  0  0  0
  143.0798   75.0489  217.3317 H   0  0  0  0  0  0  0  0  0  0  0  0
  142.8550   76.7164  216.6428 H   0  0  0  0  0  0  0  0  0  0  0  0
  144.3986   76.6067  218.5856 H   0  0  0  0  0  0  0  0  0  0  0  0
  142.9453   77.6928  218.7917 H   0  0  0  0  0  0  0  0  0  0  0  0
  143.2934   76.5067  220.8823 H   0  0  0  0  0  0  0  0  0  0  0  0
  142.0190   73.4354  219.3700 H   0  0  0  0  0  0  0  0  0  0  0  0
  143.2663   71.3060  219.4976 H   0  0  0  0  0  0  0  0  0  0  0  0
  145.6276   71.3232  220.2803 H   0  0  0  0  0  0  0  0  0  0  0  0
  146.7136   73.4867  220.9263 H   0  0  0  0  0  0  0  0  0  0  0  0
  145.4215   75.5732  220.7766 H   0  0  0  0  0  0  0  0  0  0  0  0
  139.1956   69.9499  222.4621 H   0  0  0  0  0  0  0  0  0  0  0  0
  138.9328   68.4305  224.4067 H   0  0  0  0  0  0  0  0  0  0  0  0
  139.3094   68.0312  226.7173 H   0  0  0  0  0  0  0  0  0  0  0  0
  141.3501   70.9561  229.1439 H   0  0  0  0  0  0  0  0  0  0  0  0
  141.5749   72.4240  227.1562 H   0  0  0  0  0  0  0  0  0  0  0  0
  1  2  2  0
  2  3  1  0
  3  4  1  0
  4  5  1  0
  5  6  2  0
  5  7  1  0
  7  8  1  0
  8  9  1  0
  9 10  1  0
 10 11  1  0
 11 12  1  0
 12 13  1  0
 13 14  2  0
 14 15  1  0
 15 16  2  0
 16 17  1  0
 17 18  2  0
  2 19  1  0
 19 20  2  0
 20 21  1  0
 21 22  2  0
 22 23  1  0
 23 24  2  0
 24 25  1  0
 24 26  1  0
 26 27  2  0
 27 28  1  0
 28 29  2  0
 12  7  1  0
 18 13  1  0
 29 19  1  0
 28 22  1  0
  3 30  1  0
  4 31  1  0
  4 32  1  0
  8 33  1  0
  8 34  1  0
  9 35  1  0
  9 36  1  0
 10 37  1  0
 10 38  1  0
 11 39  1  0
 11 40  1  0
 12 41  1  1
 14 42  1  0
 15 43  1  0
 16 44  1  0
 17 45  1  0
 18 46  1  0
 20 47  1  0
 21 48  1  0
 23 49  1  0
 26 50  1  0
 27 51  1  0
M  END
>  <smiles>  (45) 
O=C(NCC(=O)N1CCCCC1c1ccccc1)c1ccc2cc(F)ccc2n1

>  <score_type>  (45) 
oracle

>  <origin>  (45) 
autodockgpu

>  <m_score__min__energy>  (45) 
-9.2699999999999996

>  <m_primary>  (45) 
energy

>  <rmsd>  (45) 
1.8050990756381824

>  <m_score__min__rmsd>  (45) 
1.8050990756381824

>  <meeko>  (45) 
{"free_energy": -8.51, "intermolecular_energy": -10.0, "internal_energy": -1.76, "cluster_size": 13, "cluster_id": 3, "rank_in_cluster": 1}

>  <energy>  (45) 
-8.19

>  <cluster_rmsd>  (45) 
0.06

>  <cluster>  (45) 
4

$$$$

     RDKit          3D

 51 54  0  0  0  0  0  0  0  0999 V2000
  140.0490   71.8510  221.0280 O   0  0  0  0  0  0  0  0  0  0  0  0
  139.8960   72.3360  222.1950 C   0  0  0  0  0  0  0  0  0  0  0  0
  139.7030   73.7370  222.3340 N   0  0  0  0  0  0  0  0  0  0  0  0
  139.6850   74.5860  221.1430 C   0  0  0  0  0  0  0  0  0  0  0  0
  140.4780   75.8040  221.3300 C   0  0  0  0  0  0  0  0  0  0  0  0
  140.9800   76.0120  222.4680 O   0  0  0  0  0  0  0  0  0  0  0  0
  140.7330   76.7750  220.3320 N   0  0  0  0  0  0  0  0  0  0  0  0
  141.5020   76.3900  219.1670 C   0  0  0  0  0  0  0  0  0  0  0  0
  142.6770   77.2890  218.9300 C   0  0  0  0  0  0  0  0  0  0  0  0
  142.2200   78.7160  218.9050 C   0  0  0  0  0  0  0  0  0  0  0  0
  140.7390   78.8490  219.1450 C   0  0  0  0  0  0  0  0  0  0  0  0
  140.2700   78.1450  220.3920 C   0  0  2  0  0  0  0  0  0  0  0  0
  140.7210   78.8880  221.5790 C   0  0  0  0  0  0  0  0  0  0  0  0
  139.9510   79.6890  222.3630 C   0  0  0  0  0  0  0  0  0  0  0  0
  140.4350   80.3560  223.4800 C   0  0  0  0  0  0  0  0  0  0  0  0
  141.7630   80.2040  223.8150 C   0  0  0  0  0  0  0  0  0  0  0  0
  142.5960   79.3930  223.0400 C   0  0  0  0  0  0  0  0  0  0  0  0
  142.0650   78.7570  221.9490 C   0  0  0  0  0  0  0  0  0  0  0  0
  139.9170   71.4580  223.3600 C   0  0  0  0  0  0  0  0  0  0  0  0
  139.4430   70.1690  223.2490 C   0  0  0  0  0  0  0  0  0  0  0  0
  139.4280   69.2760  224.3030 C   0  0  0  0  0  0  0  0  0  0  0  0
  139.9210   69.7340  225.5070 C   0  0  0  0  0  0  0  0  0  0  0  0
  139.9230   68.8780  226.5740 C   0  0  0  0  0  0  0  0  0  0  0  0
  140.4150   69.3330  227.7740 C   0  0  0  0  0  0  0  0  0  0  0  0
  140.4230   68.4900  228.8500 F   0  0  0  0  0  0  0  0  0  0  0  0
  140.9020   70.6100  227.9420 C   0  0  0  0  0  0  0  0  0  0  0  0
  140.8880   71.4510  226.8510 C   0  0  0  0  0  0  0  0  0  0  0  0
  140.4040   71.0370  225.6270 C   0  0  0  0  0  0  0  0  0  0  0  0
  140.3940   71.8720  224.5570 N   0  0  0  0  0  0  0  0  0  0  0  0
  139.5770   74.1230  223.3000 H   0  0  0  0  0  0  0  0  0  0  0  0
  140.0979   74.0191  220.2955 H   0  0  0  0  0  0  0  0  0  0  0  0
  138.6434   74.8827  220.9508 H   0  0  0  0  0  0  0  0  0  0  0  0
  141.8676   75.3624  219.3099 H   0  0  0  0  0  0  0  0  0  0  0  0
  140.8412   76.4670  218.2910 H   0  0  0  0  0  0  0  0  0  0  0  0
  143.4107   77.1535  219.7382 H   0  0  0  0  0  0  0  0  0  0  0  0
  143.1417   77.0369  217.9654 H   0  0  0  0  0  0  0  0  0  0  0  0
  142.7561   79.2724  219.6880 H   0  0  0  0  0  0  0  0  0  0  0  0
  142.4352   79.1196  217.9046 H   0  0  0  0  0  0  0  0  0  0  0  0
  140.4948   79.9178  219.2350 H   0  0  0  0  0  0  0  0  0  0  0  0
  140.2279   78.3765  218.2932 H   0  0  0  0  0  0  0  0  0  0  0  0
  139.1728   78.1149  220.4648 H   0  0  0  0  0  0  0  0  0  0  0  0
  138.8907   79.8148  222.0986 H   0  0  0  0  0  0  0  0  0  0  0  0
  139.7725   80.9925  224.0850 H   0  0  0  0  0  0  0  0  0  0  0  0
  142.1688   80.7231  224.6958 H   0  0  0  0  0  0  0  0  0  0  0  0
  143.6573   79.2677  223.3007 H   0  0  0  0  0  0  0  0  0  0  0  0
  142.7207   78.1179  221.3394 H   0  0  0  0  0  0  0  0  0  0  0  0
  139.0580   69.8349  222.2742 H   0  0  0  0  0  0  0  0  0  0  0  0
  139.0426   68.2522  224.1879 H   0  0  0  0  0  0  0  0  0  0  0  0
  139.5405   67.8515  226.4742 H   0  0  0  0  0  0  0  0  0  0  0  0
  141.2892   70.9473  228.9148 H   0  0  0  0  0  0  0  0  0  0  0  0
  141.2716   72.4764  226.9581 H   0  0  0  0  0  0  0  0  0  0  0  0
  1  2  2  0
  2  3  1  0
  3  4  1  0
  4  5  1  0
  5  6  2  0
  5  7  1  0
  7  8  1  0
  8  9  1  0
  9 10  1  0
 10 11  1  0
 11 12  1  0
 12 13  1  0
 13 14  2  0
 14 15  1  0
 15 16  2  0
 16 17  1  0
 17 18  2  0
  2 19  1  0
 19 20  2  0
 20 21  1  0
 21 22  2  0
 22 23  1  0
 23 24  2  0
 24 25  1  0
 24 26  1  0
 26 27  2  0
 27 28  1  0
 28 29  2  0
 12  7  1  0
 18 13  1  0
 29 19  1  0
 28 22  1  0
  3 30  1  0
  4 31  1  0
  4 32  1  0
  8 33  1  0
  8 34  1  0
  9 35  1  0
  9 36  1  0
 10 37  1  0
 10 38  1  0
 11 39  1  0
 11 40  1  0
 12 41  1  6
 14 42  1  0
 15 43  1  0
 16 44  1  0
 17 45  1  0
 18 46  1  0
 20 47  1  0
 21 48  1  0
 23 49  1  0
 26 50  1  0
 27 51  1  0
M  END
>  <smiles>  (46) 
O=C(NCC(=O)N1CCCCC1c1ccccc1)c1ccc2cc(F)ccc2n1

>  <score_type>  (46) 
oracle

>  <origin>  (46) 
autodockgpu

>  <m_score__min__energy>  (46) 
-9.2699999999999996

>  <m_primary>  (46) 
energy

>  <rmsd>  (46) 
1.880810335562339

>  <m_score__min__rmsd>  (46) 
1.880810335562339

>  <meeko>  (46) 
{"free_energy": -8.55, "intermolecular_energy": -10.05, "internal_energy": -1.62, "cluster_size": 27, "cluster_id": 2, "rank_in_cluster": 22}

>  <energy>  (46) 
-8.19

>  <cluster_rmsd>  (46) 
0.06

>  <cluster>  (46) 
4

$$$$

     RDKit          3D

 51 54  0  0  0  0  0  0  0  0999 V2000
  141.0020   71.7650  221.2890 O   0  0  0  0  0  0  0  0  0  0  0  0
  140.4350   72.2910  222.3010 C   0  0  0  0  0  0  0  0  0  0  0  0
  140.0210   73.6480  222.2260 N   0  0  0  0  0  0  0  0  0  0  0  0
  140.2520   74.4070  220.9970 C   0  0  0  0  0  0  0  0  0  0  0  0
  140.4300   75.8360  221.2650 C   0  0  0  0  0  0  0  0  0  0  0  0
  140.3470   76.2270  222.4610 O   0  0  0  0  0  0  0  0  0  0  0  0
  140.6920   76.8250  220.2850 N   0  0  0  0  0  0  0  0  0  0  0  0
  141.3690   76.4350  219.0660 C   0  0  0  0  0  0  0  0  0  0  0  0
  142.5850   77.2640  218.7910 C   0  0  0  0  0  0  0  0  0  0  0  0
  142.2220   78.7180  218.8390 C   0  0  0  0  0  0  0  0  0  0  0  0
  140.7690   78.9360  219.1680 C   0  0  0  0  0  0  0  0  0  0  0  0
  140.3250   78.2190  220.4170 C   0  0  2  0  0  0  0  0  0  0  0  0
  140.8890   78.8880  221.5990 C   0  0  0  0  0  0  0  0  0  0  0  0
  142.2050   78.9550  221.9310 C   0  0  0  0  0  0  0  0  0  0  0  0
  142.6770   79.6130  223.0580 C   0  0  0  0  0  0  0  0  0  0  0  0
  141.7680   80.2310  223.8880 C   0  0  0  0  0  0  0  0  0  0  0  0
  140.4030   80.1910  223.5930 C   0  0  0  0  0  0  0  0  0  0  0  0
  139.9940   79.5280  222.4660 C   0  0  0  0  0  0  0  0  0  0  0  0
  140.2200   71.5030  223.5090 C   0  0  0  0  0  0  0  0  0  0  0  0
  139.4770   70.3430  223.4420 C   0  0  0  0  0  0  0  0  0  0  0  0
  139.2270   69.5420  224.5390 C   0  0  0  0  0  0  0  0  0  0  0  0
  139.7640   69.9540  225.7410 C   0  0  0  0  0  0  0  0  0  0  0  0
  139.5370   69.1850  226.8490 C   0  0  0  0  0  0  0  0  0  0  0  0
  140.0730   69.5950  228.0470 C   0  0  0  0  0  0  0  0  0  0  0  0
  139.8560   68.8380  229.1640 F   0  0  0  0  0  0  0  0  0  0  0  0
  140.8240   70.7430  228.1720 C   0  0  0  0  0  0  0  0  0  0  0  0
  141.0350   71.4980  227.0400 C   0  0  0  0  0  0  0  0  0  0  0  0
  140.5180   71.1250  225.8170 C   0  0  0  0  0  0  0  0  0  0  0  0
  140.7320   71.8750  224.7060 N   0  0  0  0  0  0  0  0  0  0  0  0
  139.5550   74.0680  223.0650 H   0  0  0  0  0  0  0  0  0  0  0  0
  141.1574   74.0215  220.5054 H   0  0  0  0  0  0  0  0  0  0  0  0
  139.3698   74.2878  220.3508 H   0  0  0  0  0  0  0  0  0  0  0  0
  141.6735   75.3816  219.1539 H   0  0  0  0  0  0  0  0  0  0  0  0
  140.6674   76.5869  218.2326 H   0  0  0  0  0  0  0  0  0  0  0  0
  143.3520   77.0526  219.5506 H   0  0  0  0  0  0  0  0  0  0  0  0
  142.9780   77.0176  217.7936 H   0  0  0  0  0  0  0  0  0  0  0  0
  142.8360   79.2103  219.6076 H   0  0  0  0  0  0  0  0  0  0  0  0
  142.4076   79.1433  217.8417 H   0  0  0  0  0  0  0  0  0  0  0  0
  140.6005   80.0142  219.3061 H   0  0  0  0  0  0  0  0  0  0  0  0
  140.1816   78.5276  218.3324 H   0  0  0  0  0  0  0  0  0  0  0  0
  139.2341   78.2569  220.5531 H   0  0  0  0  0  0  0  0  0  0  0  0
  142.9345   78.4618  221.2718 H   0  0  0  0  0  0  0  0  0  0  0  0
  143.7533   79.6404  223.2835 H   0  0  0  0  0  0  0  0  0  0  0  0
  142.1184   80.7585  224.7874 H   0  0  0  0  0  0  0  0  0  0  0  0
  139.6717   80.6817  224.2521 H   0  0  0  0  0  0  0  0  0  0  0  0
  138.9195   79.4970  222.2325 H   0  0  0  0  0  0  0  0  0  0  0  0
  139.0637   70.0413  222.4682 H   0  0  0  0  0  0  0  0  0  0  0  0
  138.6297   68.6218  224.4583 H   0  0  0  0  0  0  0  0  0  0  0  0
  138.9412   68.2626  226.7834 H   0  0  0  0  0  0  0  0  0  0  0  0
  141.2412   71.0464  229.1436 H   0  0  0  0  0  0  0  0  0  0  0  0
  141.6299   72.4204  227.1128 H   0  0  0  0  0  0  0  0  0  0  0  0
  1  2  2  0
  2  3  1  0
  3  4  1  0
  4  5  1  0
  5  6  2  0
  5  7  1  0
  7  8  1  0
  8  9  1  0
  9 10  1  0
 10 11  1  0
 11 12  1  0
 12 13  1  0
 13 14  2  0
 14 15  1  0
 15 16  2  0
 16 17  1  0
 17 18  2  0
  2 19  1  0
 19 20  2  0
 20 21  1  0
 21 22  2  0
 22 23  1  0
 23 24  2  0
 24 25  1  0
 24 26  1  0
 26 27  2  0
 27 28  1  0
 28 29  2  0
 12  7  1  0
 18 13  1  0
 29 19  1  0
 28 22  1  0
  3 30  1  0
  4 31  1  0
  4 32  1  0
  8 33  1  0
  8 34  1  0
  9 35  1  0
  9 36  1  0
 10 37  1  0
 10 38  1  0
 11 39  1  0
 11 40  1  0
 12 41  1  1
 14 42  1  0
 15 43  1  0
 16 44  1  0
 17 45  1  0
 18 46  1  0
 20 47  1  0
 21 48  1  0
 23 49  1  0
 26 50  1  0
 27 51  1  0
M  END
>  <smiles>  (47) 
O=C(NCC(=O)N1CCCCC1c1ccccc1)c1ccc2cc(F)ccc2n1

>  <score_type>  (47) 
oracle

>  <origin>  (47) 
autodockgpu

>  <m_score__min__energy>  (47) 
-9.2699999999999996

>  <m_primary>  (47) 
energy

>  <rmsd>  (47) 
2.007295911258089

>  <m_score__min__rmsd>  (47) 
2.007295911258089

>  <meeko>  (47) 
{"free_energy": -8.75, "intermolecular_energy": -10.25, "internal_energy": -1.63, "cluster_size": 27, "cluster_id": 2, "rank_in_cluster": 8}

>  <energy>  (47) 
-7.89

>  <cluster_rmsd>  (47) 
0.72

>  <cluster>  (47) 
4

$$$$

     RDKit          3D

 51 54  0  0  0  0  0  0  0  0999 V2000
  138.8490   74.5930  220.8980 O   0  0  0  0  0  0  0  0  0  0  0  0
  139.9880   74.8870  221.3850 C   0  0  0  0  0  0  0  0  0  0  0  0
  140.0950   76.0160  222.2420 N   0  0  0  0  0  0  0  0  0  0  0  0
  138.9030   76.8080  222.5450 C   0  0  0  0  0  0  0  0  0  0  0  0
  139.1450   78.2430  222.3700 C   0  0  0  0  0  0  0  0  0  0  0  0
  138.2620   78.9220  221.7790 O   0  0  0  0  0  0  0  0  0  0  0  0
  140.2950   78.9380  222.8160 N   0  0  0  0  0  0  0  0  0  0  0  0
  140.1300   80.0210  223.7630 C   0  0  0  0  0  0  0  0  0  0  0  0
  140.7640   81.2960  223.2970 C   0  0  0  0  0  0  0  0  0  0  0  0
  142.1920   81.0380  222.9200 C   0  0  0  0  0  0  0  0  0  0  0  0
  142.5770   79.5920  223.0880 C   0  0  0  0  0  0  0  0  0  0  0  0
  141.6450   78.6390  222.3860 C   0  0  2  0  0  0  0  0  0  0  0  0
  141.8540   78.7220  220.9330 C   0  0  0  0  0  0  0  0  0  0  0  0
  141.7530   79.8440  220.1720 C   0  0  0  0  0  0  0  0  0  0  0  0
  141.9740   79.8600  218.8020 C   0  0  0  0  0  0  0  0  0  0  0  0
  142.3110   78.6800  218.1750 C   0  0  0  0  0  0  0  0  0  0  0  0
  142.4260   77.4990  218.9120 C   0  0  0  0  0  0  0  0  0  0  0  0
  142.1980   77.5420  220.2620 C   0  0  0  0  0  0  0  0  0  0  0  0
  141.1540   74.0730  221.0610 C   0  0  0  0  0  0  0  0  0  0  0  0
  141.0100   72.7110  220.9020 C   0  0  0  0  0  0  0  0  0  0  0  0
  142.0620   71.8700  220.5970 C   0  0  0  0  0  0  0  0  0  0  0  0
  143.3010   72.4600  220.4500 C   0  0  0  0  0  0  0  0  0  0  0  0
  144.3680   71.6580  220.1480 C   0  0  0  0  0  0  0  0  0  0  0  0
  145.6020   72.2450  220.0010 C   0  0  0  0  0  0  0  0  0  0  0  0
  146.6780   71.4580  219.6980 F   0  0  0  0  0  0  0  0  0  0  0  0
  145.8040   73.6000  220.1480 C   0  0  0  0  0  0  0  0  0  0  0  0
  144.7130   74.3820  220.4530 C   0  0  0  0  0  0  0  0  0  0  0  0
  143.4550   73.8370  220.6090 C   0  0  0  0  0  0  0  0  0  0  0  0
  142.3840   74.6150  220.9090 N   0  0  0  0  0  0  0  0  0  0  0  0
  141.0380   76.2470  222.6360 H   0  0  0  0  0  0  0  0  0  0  0  0
  138.0896   76.4992  221.8719 H   0  0  0  0  0  0  0  0  0  0  0  0
  138.6334   76.6321  223.5969 H   0  0  0  0  0  0  0  0  0  0  0  0
  139.0546   80.1968  223.9132 H   0  0  0  0  0  0  0  0  0  0  0  0
  140.6273   79.7242  224.6982 H   0  0  0  0  0  0  0  0  0  0  0  0
  140.2176   81.6784  222.4222 H   0  0  0  0  0  0  0  0  0  0  0  0
  140.7282   82.0396  224.1068 H   0  0  0  0  0  0  0  0  0  0  0  0
  142.3364   81.3221  221.8672 H   0  0  0  0  0  0  0  0  0  0  0  0
  142.8290   81.6350  223.5892 H   0  0  0  0  0  0  0  0  0  0  0  0
  143.5898   79.4515  222.6824 H   0  0  0  0  0  0  0  0  0  0  0  0
  142.5243   79.3648  224.1630 H   0  0  0  0  0  0  0  0  0  0  0  0
  141.8459   77.5902  222.6499 H   0  0  0  0  0  0  0  0  0  0  0  0
  141.4821   80.7879  220.6677 H   0  0  0  0  0  0  0  0  0  0  0  0
  141.8821   80.7944  218.2289 H   0  0  0  0  0  0  0  0  0  0  0  0
  142.4902   78.6681  217.0898 H   0  0  0  0  0  0  0  0  0  0  0  0
  142.6943   76.5534  218.4182 H   0  0  0  0  0  0  0  0  0  0  0  0
  142.2888   76.6120  220.8425 H   0  0  0  0  0  0  0  0  0  0  0  0
  140.0084   72.2730  221.0240 H   0  0  0  0  0  0  0  0  0  0  0  0
  141.9198   70.7858  220.4774 H   0  0  0  0  0  0  0  0  0  0  0  0
  144.2413   70.5721  220.0261 H   0  0  0  0  0  0  0  0  0  0  0  0
  146.8038   74.0421  220.0257 H   0  0  0  0  0  0  0  0  0  0  0  0
  144.8472   75.4669  220.5753 H   0  0  0  0  0  0  0  0  0  0  0  0
  1  2  2  0
  2  3  1  0
  3  4  1  0
  4  5  1  0
  5  6  2  0
  5  7  1  0
  7  8  1  0
  8  9  1  0
  9 10  1  0
 10 11  1  0
 11 12  1  0
 12 13  1  0
 13 14  2  0
 14 15  1  0
 15 16  2  0
 16 17  1  0
 17 18  2  0
  2 19  1  0
 19 20  2  0
 20 21  1  0
 21 22  2  0
 22 23  1  0
 23 24  2  0
 24 25  1  0
 24 26  1  0
 26 27  2  0
 27 28  1  0
 28 29  2  0
 12  7  1  0
 18 13  1  0
 29 19  1  0
 28 22  1  0
  3 30  1  0
  4 31  1  0
  4 32  1  0
  8 33  1  0
  8 34  1  0
  9 35  1  0
  9 36  1  0
 10 37  1  0
 10 38  1  0
 11 39  1  0
 11 40  1  0
 12 41  1  1
 14 42  1  0
 15 43  1  0
 16 44  1  0
 17 45  1  0
 18 46  1  0
 20 47  1  0
 21 48  1  0
 23 49  1  0
 26 50  1  0
 27 51  1  0
M  END
>  <smiles>  (48) 
O=C(NCC(=O)N1CCCCC1c1ccccc1)c1ccc2cc(F)ccc2n1

>  <score_type>  (48) 
oracle

>  <origin>  (48) 
autodockgpu

>  <m_score__min__energy>  (48) 
-9.2699999999999996

>  <m_primary>  (48) 
energy

>  <rmsd>  (48) 
6.528480892482111

>  <m_score__min__rmsd>  (48) 
6.528480892482111

>  <meeko>  (48) 
{"free_energy": -7.06, "intermolecular_energy": -8.55, "internal_energy": -2.09, "cluster_size": 1, "cluster_id": 5, "rank_in_cluster": 1}

>  <energy>  (48) 
-7.87

>  <cluster_rmsd>  (48) 
0.71

>  <cluster>  (48) 
4

$$$$

     RDKit          3D

 51 54  0  0  0  0  0  0  0  0999 V2000
  140.1020   71.5970  221.0660 O   0  0  0  0  0  0  0  0  0  0  0  0
  139.9360   72.1500  222.2000 C   0  0  0  0  0  0  0  0  0  0  0  0
  139.7020   73.5510  222.2500 N   0  0  0  0  0  0  0  0  0  0  0  0
  139.6580   74.3210  221.0070 C   0  0  0  0  0  0  0  0  0  0  0  0
  140.5060   75.5150  221.0760 C   0  0  0  0  0  0  0  0  0  0  0  0
  140.5030   76.1800  222.1480 O   0  0  0  0  0  0  0  0  0  0  0  0
  141.3360   75.9890  220.0320 N   0  0  0  0  0  0  0  0  0  0  0  0
  140.7150   76.4980  218.8260 C   0  0  0  0  0  0  0  0  0  0  0  0
  141.2310   75.8340  217.5870 C   0  0  0  0  0  0  0  0  0  0  0  0
  142.7290   75.9020  217.5680 C   0  0  0  0  0  0  0  0  0  0  0  0
  143.2880   76.5850  218.7890 C   0  0  0  0  0  0  0  0  0  0  0  0
  142.7820   76.0030  220.0840 C   0  0  2  0  0  0  0  0  0  0  0  0
  143.3960   74.6850  220.3070 C   0  0  0  0  0  0  0  0  0  0  0  0
  142.7410   73.4960  220.3680 C   0  0  0  0  0  0  0  0  0  0  0  0
  143.3800   72.2810  220.5710 C   0  0  0  0  0  0  0  0  0  0  0  0
  144.7500   72.2740  220.7200 C   0  0  0  0  0  0  0  0  0  0  0  0
  145.4700   73.4700  220.6660 C   0  0  0  0  0  0  0  0  0  0  0  0
  144.7870   74.6400  220.4620 C   0  0  0  0  0  0  0  0  0  0  0  0
  139.9850   71.3500  223.4180 C   0  0  0  0  0  0  0  0  0  0  0  0
  139.5290   70.0480  223.3960 C   0  0  0  0  0  0  0  0  0  0  0  0
  139.5410   69.2250  224.5040 C   0  0  0  0  0  0  0  0  0  0  0  0
  140.0410   69.7660  225.6710 C   0  0  0  0  0  0  0  0  0  0  0  0
  140.0680   68.9810  226.7900 C   0  0  0  0  0  0  0  0  0  0  0  0
  140.5660   69.5190  227.9520 C   0  0  0  0  0  0  0  0  0  0  0  0
  140.6000   68.7470  229.0800 F   0  0  0  0  0  0  0  0  0  0  0  0
  141.0350   70.8120  228.0320 C   0  0  0  0  0  0  0  0  0  0  0  0
  140.9950   71.5800  226.8900 C   0  0  0  0  0  0  0  0  0  0  0  0
  140.5040   71.0810  225.7010 C   0  0  0  0  0  0  0  0  0  0  0  0
  140.4690   71.8460  224.5800 N   0  0  0  0  0  0  0  0  0  0  0  0
  139.5660   73.9940  223.1900 H   0  0  0  0  0  0  0  0  0  0  0  0
  140.0067   73.6838  220.1809 H   0  0  0  0  0  0  0  0  0  0  0  0
  138.6204   74.6475  220.8435 H   0  0  0  0  0  0  0  0  0  0  0  0
  139.6300   76.3289  218.8903 H   0  0  0  0  0  0  0  0  0  0  0  0
  140.9557   77.5690  218.7544 H   0  0  0  0  0  0  0  0  0  0  0  0
  140.9119   74.7814  217.5755 H   0  0  0  0  0  0  0  0  0  0  0  0
  140.8301   76.3493  216.7017 H   0  0  0  0  0  0  0  0  0  0  0  0
  143.1286   74.8782  217.5217 H   0  0  0  0  0  0  0  0  0  0  0  0
  143.0271   76.4909  216.6880 H   0  0  0  0  0  0  0  0  0  0  0  0
  144.3839   76.4922  218.7696 H   0  0  0  0  0  0  0  0  0  0  0  0
  142.9592   77.6341  218.7537 H   0  0  0  0  0  0  0  0  0  0  0  0
  143.0701   76.6110  220.9542 H   0  0  0  0  0  0  0  0  0  0  0  0
  141.6473   73.4966  220.2503 H   0  0  0  0  0  0  0  0  0  0  0  0
  142.8055   71.3439  220.6121 H   0  0  0  0  0  0  0  0  0  0  0  0
  145.2786   71.3231  220.8821 H   0  0  0  0  0  0  0  0  0  0  0  0
  146.5636   73.4723  220.7849 H   0  0  0  0  0  0  0  0  0  0  0  0
  145.3539   75.5816  220.4182 H   0  0  0  0  0  0  0  0  0  0  0  0
  139.1370   69.6465  222.4499 H   0  0  0  0  0  0  0  0  0  0  0  0
  139.1707   68.1902  224.4591 H   0  0  0  0  0  0  0  0  0  0  0  0
  139.7002   67.9447  226.7607 H   0  0  0  0  0  0  0  0  0  0  0  0
  141.4281   71.2170  228.9762 H   0  0  0  0  0  0  0  0  0  0  0  0
  141.3632   72.6159  226.9264 H   0  0  0  0  0  0  0  0  0  0  0  0
  1  2  2  0
  2  3  1  0
  3  4  1  0
  4  5  1  0
  5  6  2  0
  5  7  1  0
  7  8  1  0
  8  9  1  0
  9 10  1  0
 10 11  1  0
 11 12  1  0
 12 13  1  0
 13 14  2  0
 14 15  1  0
 15 16  2  0
 16 17  1  0
 17 18  2  0
  2 19  1  0
 19 20  2  0
 20 21  1  0
 21 22  2  0
 22 23  1  0
 23 24  2  0
 24 25  1  0
 24 26  1  0
 26 27  2  0
 27 28  1  0
 28 29  2  0
 12  7  1  0
 18 13  1  0
 29 19  1  0
 28 22  1  0
  3 30  1  0
  4 31  1  0
  4 32  1  0
  8 33  1  0
  8 34  1  0
  9 35  1  0
  9 36  1  0
 10 37  1  0
 10 38  1  0
 11 39  1  0
 11 40  1  0
 12 41  1  1
 14 42  1  0
 15 43  1  0
 16 44  1  0
 17 45  1  0
 18 46  1  0
 20 47  1  0
 21 48  1  0
 23 49  1  0
 26 50  1  0
 27 51  1  0
M  END
>  <smiles>  (49) 
O=C(NCC(=O)N1CCCCC1c1ccccc1)c1ccc2cc(F)ccc2n1

>  <score_type>  (49) 
oracle

>  <origin>  (49) 
autodockgpu

>  <m_score__min__energy>  (49) 
-9.2699999999999996

>  <m_primary>  (49) 
energy

>  <rmsd>  (49) 
1.718939120271395

>  <m_score__min__rmsd>  (49) 
1.718939120271395

>  <meeko>  (49) 
{"free_energy": -8.24, "intermolecular_energy": -9.73, "internal_energy": -1.96, "cluster_size": 13, "cluster_id": 3, "rank_in_cluster": 9}

>  <energy>  (49) 
-7.77

>  <cluster_rmsd>  (49) 
0.72

>  <cluster>  (49) 
4

$$$$

     RDKit          3D

 51 54  0  0  0  0  0  0  0  0999 V2000
  141.1410   71.7200  221.3830 O   0  0  0  0  0  0  0  0  0  0  0  0
  140.5420   72.2550  222.3710 C   0  0  0  0  0  0  0  0  0  0  0  0
  140.1250   73.6090  222.2660 N   0  0  0  0  0  0  0  0  0  0  0  0
  140.3890   74.3540  221.0360 C   0  0  0  0  0  0  0  0  0  0  0  0
  140.3000   75.8020  221.2450 C   0  0  0  0  0  0  0  0  0  0  0  0
  139.9470   76.2130  222.3840 O   0  0  0  0  0  0  0  0  0  0  0  0
  140.5800   76.7880  220.2690 N   0  0  0  0  0  0  0  0  0  0  0  0
  141.2540   76.3890  219.0500 C   0  0  0  0  0  0  0  0  0  0  0  0
  142.4840   77.2000  218.7800 C   0  0  0  0  0  0  0  0  0  0  0  0
  142.1440   78.6590  218.8310 C   0  0  0  0  0  0  0  0  0  0  0  0
  140.6930   78.9000  219.1560 C   0  0  0  0  0  0  0  0  0  0  0  0
  140.2340   78.1880  220.4020 C   0  0  2  0  0  0  0  0  0  0  0  0
  140.8060   78.8460  221.5870 C   0  0  0  0  0  0  0  0  0  0  0  0
  142.1150   78.8460  221.9500 C   0  0  0  0  0  0  0  0  0  0  0  0
  142.5950   79.4970  223.0780 C   0  0  0  0  0  0  0  0  0  0  0  0
  141.7020   80.1780  223.8760 C   0  0  0  0  0  0  0  0  0  0  0  0
  140.3450   80.2070  223.5470 C   0  0  0  0  0  0  0  0  0  0  0  0
  139.9270   79.5480  222.4210 C   0  0  0  0  0  0  0  0  0  0  0  0
  140.2940   71.4810  223.5820 C   0  0  0  0  0  0  0  0  0  0  0  0
  139.6080   70.2880  223.4980 C   0  0  0  0  0  0  0  0  0  0  0  0
  139.3320   69.4960  224.5950 C   0  0  0  0  0  0  0  0  0  0  0  0
  139.7820   69.9550  225.8170 C   0  0  0  0  0  0  0  0  0  0  0  0
  139.5270   69.1970  226.9270 C   0  0  0  0  0  0  0  0  0  0  0  0
  139.9750   69.6530  228.1430 C   0  0  0  0  0  0  0  0  0  0  0  0
  139.7290   68.9080  229.2620 F   0  0  0  0  0  0  0  0  0  0  0  0
  140.6660   70.8370  228.2860 C   0  0  0  0  0  0  0  0  0  0  0  0
  140.9070   71.5790  227.1520 C   0  0  0  0  0  0  0  0  0  0  0  0
  140.4770   71.1600  225.9100 C   0  0  0  0  0  0  0  0  0  0  0  0
  140.7200   71.8980  224.7970 N   0  0  0  0  0  0  0  0  0  0  0  0
  139.6320   74.0370  223.0870 H   0  0  0  0  0  0  0  0  0  0  0  0
  141.4005   74.1073  220.6808 H   0  0  0  0  0  0  0  0  0  0  0  0
  139.6282   74.0689  220.2945 H   0  0  0  0  0  0  0  0  0  0  0  0
  141.5417   75.3308  219.1367 H   0  0  0  0  0  0  0  0  0  0  0  0
  140.5570   76.5528  218.2150 H   0  0  0  0  0  0  0  0  0  0  0  0
  143.2457   76.9746  219.5409 H   0  0  0  0  0  0  0  0  0  0  0  0
  142.8753   76.9502  217.7828 H   0  0  0  0  0  0  0  0  0  0  0  0
  142.7633   79.1392  219.6029 H   0  0  0  0  0  0  0  0  0  0  0  0
  142.3395   79.0837  217.8353 H   0  0  0  0  0  0  0  0  0  0  0  0
  140.5415   79.9805  219.2957 H   0  0  0  0  0  0  0  0  0  0  0  0
  140.1016   78.5029  218.3178 H   0  0  0  0  0  0  0  0  0  0  0  0
  139.1434   78.2428  220.5346 H   0  0  0  0  0  0  0  0  0  0  0  0
  142.8317   78.3019  221.3173 H   0  0  0  0  0  0  0  0  0  0  0  0
  143.6655   79.4698  223.3294 H   0  0  0  0  0  0  0  0  0  0  0  0
  142.0591   80.7008  224.7756 H   0  0  0  0  0  0  0  0  0  0  0  0
  139.6260   80.7483  224.1795 H   0  0  0  0  0  0  0  0  0  0  0  0
  138.8583   79.5712  222.1617 H   0  0  0  0  0  0  0  0  0  0  0  0
  139.2639   69.9507  222.5092 H   0  0  0  0  0  0  0  0  0  0  0  0
  138.7819   68.5482  224.5002 H   0  0  0  0  0  0  0  0  0  0  0  0
  138.9776   68.2473  226.8479 H   0  0  0  0  0  0  0  0  0  0  0  0
  141.0131   71.1773  229.2728 H   0  0  0  0  0  0  0  0  0  0  0  0
  141.4555   72.5286  227.2381 H   0  0  0  0  0  0  0  0  0  0  0  0
  1  2  2  0
  2  3  1  0
  3  4  1  0
  4  5  1  0
  5  6  2  0
  5  7  1  0
  7  8  1  0
  8  9  1  0
  9 10  1  0
 10 11  1  0
 11 12  1  0
 12 13  1  0
 13 14  2  0
 14 15  1  0
 15 16  2  0
 16 17  1  0
 17 18  2  0
  2 19  1  0
 19 20  2  0
 20 21  1  0
 21 22  2  0
 22 23  1  0
 23 24  2  0
 24 25  1  0
 24 26  1  0
 26 27  2  0
 27 28  1  0
 28 29  2  0
 12  7  1  0
 18 13  1  0
 29 19  1  0
 28 22  1  0
  3 30  1  0
  4 31  1  0
  4 32  1  0
  8 33  1  0
  8 34  1  0
  9 35  1  0
  9 36  1  0
 10 37  1  0
 10 38  1  0
 11 39  1  0
 11 40  1  0
 12 41  1  1
 14 42  1  0
 15 43  1  0
 16 44  1  0
 17 45  1  0
 18 46  1  0
 20 47  1  0
 21 48  1  0
 23 49  1  0
 26 50  1  0
 27 51  1  0
M  END
>  <smiles>  (50) 
O=C(NCC(=O)N1CCCCC1c1ccccc1)c1ccc2cc(F)ccc2n1

>  <score_type>  (50) 
oracle

>  <origin>  (50) 
autodockgpu

>  <m_score__min__energy>  (50) 
-9.2699999999999996

>  <m_primary>  (50) 
energy

>  <rmsd>  (50) 
2.0161171733066166

>  <m_score__min__rmsd>  (50) 
2.0161171733066166

>  <meeko>  (50) 
{"free_energy": -8.59, "intermolecular_energy": -10.09, "internal_energy": -1.74, "cluster_size": 27, "cluster_id": 2, "rank_in_cluster": 21}

>  <energy>  (50) 
-7.06

>  <cluster_rmsd>  (50) 
0.0

>  <cluster>  (50) 
5

$$$$

     RDKit          3D

 51 54  0  0  0  0  0  0  0  0999 V2000
  140.7780   71.7680  221.0800 O   0  0  0  0  0  0  0  0  0  0  0  0
  140.3130   72.2980  222.1190 C   0  0  0  0  0  0  0  0  0  0  0  0
  139.9590   73.6770  222.1930 N   0  0  0  0  0  0  0  0  0  0  0  0
  140.1290   74.5600  221.0170 C   0  0  0  0  0  0  0  0  0  0  0  0
  140.8130   75.7950  221.4230 C   0  0  0  0  0  0  0  0  0  0  0  0
  140.5170   76.2330  222.5970 O   0  0  0  0  0  0  0  0  0  0  0  0
  141.7430   76.5540  220.7060 N   0  0  0  0  0  0  0  0  0  0  0  0
  142.7130   75.7680  219.8980 C   0  0  0  0  0  0  0  0  0  0  0  0
  143.0320   76.5490  218.6440 C   0  0  0  0  0  0  0  0  0  0  0  0
  141.9420   77.4690  218.2170 C   0  0  0  0  0  0  0  0  0  0  0  0
  141.3280   78.3450  219.2430 C   0  0  0  0  0  0  0  0  0  0  0  0
  141.8910   77.9590  220.6000 C   0  0  1  0  0  0  0  0  0  0  0  0
  141.5260   78.8140  221.7050 C   0  0  0  0  0  0  0  0  0  0  0  0
  140.2270   79.1400  222.0590 C   0  0  0  0  0  0  0  0  0  0  0  0
  139.9370   79.9950  223.1050 C   0  0  0  0  0  0  0  0  0  0  0  0
  140.9680   80.5660  223.8460 C   0  0  0  0  0  0  0  0  0  0  0  0
  142.2670   80.2420  223.4940 C   0  0  0  0  0  0  0  0  0  0  0  0
  142.5300   79.3990  222.4630 C   0  0  0  0  0  0  0  0  0  0  0  0
  140.1200   71.4690  223.3210 C   0  0  0  0  0  0  0  0  0  0  0  0
  139.4350   70.2730  223.2330 C   0  0  0  0  0  0  0  0  0  0  0  0
  139.2470   69.4830  224.3690 C   0  0  0  0  0  0  0  0  0  0  0  0
  139.7520   69.9040  225.5850 C   0  0  0  0  0  0  0  0  0  0  0  0
  139.6040   69.1770  226.7440 C   0  0  0  0  0  0  0  0  0  0  0  0
  140.1330   69.6610  227.9130 C   0  0  0  0  0  0  0  0  0  0  0  0
  139.9910   68.9440  229.0740 F   0  0  0  0  0  0  0  0  0  0  0  0
  140.8150   70.8580  227.9790 C   0  0  0  0  0  0  0  0  0  0  0  0
  140.9640   71.5900  226.8200 C   0  0  0  0  0  0  0  0  0  0  0  0
  140.4340   71.1070  225.6400 C   0  0  0  0  0  0  0  0  0  0  0  0
  140.5930   71.8400  224.5220 N   0  0  0  0  0  0  0  0  0  0  0  0
  139.5810   74.0410  223.0890 H   0  0  0  0  0  0  0  0  0  0  0  0
  140.7296   74.0426  220.2544 H   0  0  0  0  0  0  0  0  0  0  0  0
  139.1415   74.8090  220.6013 H   0  0  0  0  0  0  0  0  0  0  0  0
  143.6332   75.6044  220.4780 H   0  0  0  0  0  0  0  0  0  0  0  0
  142.2820   74.7906  219.6354 H   0  0  0  0  0  0  0  0  0  0  0  0
  143.9377   77.1456  218.8277 H   0  0  0  0  0  0  0  0  0  0  0  0
  143.1685   75.8159  217.8353 H   0  0  0  0  0  0  0  0  0  0  0  0
  142.3536   78.1221  217.4334 H   0  0  0  0  0  0  0  0  0  0  0  0
  141.1265   76.8010  217.9028 H   0  0  0  0  0  0  0  0  0  0  0  0
  141.5682   79.3963  219.0262 H   0  0  0  0  0  0  0  0  0  0  0  0
  140.2346   78.2244  219.2386 H   0  0  0  0  0  0  0  0  0  0  0  0
  142.9669   78.1741  220.6788 H   0  0  0  0  0  0  0  0  0  0  0  0
  139.3960   78.7022  221.4865 H   0  0  0  0  0  0  0  0  0  0  0  0
  138.8901   80.2248  223.3525 H   0  0  0  0  0  0  0  0  0  0  0  0
  140.7579   81.2502  224.6813 H   0  0  0  0  0  0  0  0  0  0  0  0
  143.1032   80.6765  224.0614 H   0  0  0  0  0  0  0  0  0  0  0  0
  143.5782   79.1712  222.2195 H   0  0  0  0  0  0  0  0  0  0  0  0
  139.0356   69.9411  222.2633 H   0  0  0  0  0  0  0  0  0  0  0  0
  138.7002   68.5312  224.2967 H   0  0  0  0  0  0  0  0  0  0  0  0
  139.0667   68.2172  226.7329 H   0  0  0  0  0  0  0  0  0  0  0  0
  141.2294   71.2194  228.9317 H   0  0  0  0  0  0  0  0  0  0  0  0
  141.5004   72.5503  226.8353 H   0  0  0  0  0  0  0  0  0  0  0  0
  1  2  2  0
  2  3  1  0
  3  4  1  0
  4  5  1  0
  5  6  2  0
  5  7  1  0
  7  8  1  0
  8  9  1  0
  9 10  1  0
 10 11  1  0
 11 12  1  0
 12 13  1  0
 13 14  2  0
 14 15  1  0
 15 16  2  0
 16 17  1  0
 17 18  2  0
  2 19  1  0
 19 20  2  0
 20 21  1  0
 21 22  2  0
 22 23  1  0
 23 24  2  0
 24 25  1  0
 24 26  1  0
 26 27  2  0
 27 28  1  0
 28 29  2  0
 12  7  1  0
 18 13  1  0
 29 19  1  0
 28 22  1  0
  3 30  1  0
  4 31  1  0
  4 32  1  0
  8 33  1  0
  8 34  1  0
  9 35  1  0
  9 36  1  0
 10 37  1  0
 10 38  1  0
 11 39  1  0
 11 40  1  0
 12 41  1  6
 14 42  1  0
 15 43  1  0
 16 44  1  0
 17 45  1  0
 18 46  1  0
 20 47  1  0
 21 48  1  0
 23 49  1  0
 26 50  1  0
 27 51  1  0
M  END
>  <smiles>  (51) 
O=C(NCC(=O)N1CCCCC1c1ccccc1)c1ccc2cc(F)ccc2n1

>  <score_type>  (51) 
oracle

>  <origin>  (51) 
autodockgpu

>  <m_score__min__energy>  (51) 
-9.2599999999999998

>  <m_primary>  (51) 
energy

>  <rmsd>  (51) 
2.0960931511095247

>  <m_score__min__rmsd>  (51) 
2.0960931511095247

>  <meeko>  (51) 
{"free_energy": -9.09, "intermolecular_energy": -10.58, "internal_energy": -1.7, "cluster_size": 23, "cluster_id": 1, "rank_in_cluster": 7}

>  <energy>  (51) 
-9.26

>  <cluster_rmsd>  (51) 
0.0

>  <cluster>  (51) 
1

$$$$

     RDKit          3D

 51 54  0  0  0  0  0  0  0  0999 V2000
  140.2710   70.7170  221.7490 O   0  0  0  0  0  0  0  0  0  0  0  0
  140.1020   71.5200  222.6990 C   0  0  0  0  0  0  0  0  0  0  0  0
  139.7830   72.8960  222.5020 N   0  0  0  0  0  0  0  0  0  0  0  0
  139.6320   73.4440  221.1350 C   0  0  0  0  0  0  0  0  0  0  0  0
  140.4490   74.6560  220.9960 C   0  0  0  0  0  0  0  0  0  0  0  0
  140.6500   75.3170  222.0840 O   0  0  0  0  0  0  0  0  0  0  0  0
  141.0400   75.1840  219.8440 N   0  0  0  0  0  0  0  0  0  0  0  0
  140.0880   75.7060  218.8280 C   0  0  0  0  0  0  0  0  0  0  0  0
  140.7240   76.8970  218.1470 C   0  0  0  0  0  0  0  0  0  0  0  0
  141.7210   77.6100  218.9930 C   0  0  0  0  0  0  0  0  0  0  0  0
  142.7400   76.8000  219.7020 C   0  0  0  0  0  0  0  0  0  0  0  0
  142.4060   75.3320  219.5020 C   0  0  1  0  0  0  0  0  0  0  0  0
  143.3840   74.3870  219.9900 C   0  0  0  0  0  0  0  0  0  0  0  0
  143.1730   73.0250  220.1210 C   0  0  0  0  0  0  0  0  0  0  0  0
  144.1340   72.1730  220.6320 C   0  0  0  0  0  0  0  0  0  0  0  0
  145.3680   72.6750  221.0370 C   0  0  0  0  0  0  0  0  0  0  0  0
  145.5810   74.0350  220.9070 C   0  0  0  0  0  0  0  0  0  0  0  0
  144.6230   74.8550  220.4030 C   0  0  0  0  0  0  0  0  0  0  0  0
  140.2400   71.0340  224.0820 C   0  0  0  0  0  0  0  0  0  0  0  0
  140.7170   71.8780  225.0660 C   0  0  0  0  0  0  0  0  0  0  0  0
  140.8520   71.4230  226.3800 C   0  0  0  0  0  0  0  0  0  0  0  0
  140.5030   70.1230  226.6920 C   0  0  0  0  0  0  0  0  0  0  0  0
  140.6080   69.6090  227.9630 C   0  0  0  0  0  0  0  0  0  0  0  0
  140.2420   68.3070  228.1950 C   0  0  0  0  0  0  0  0  0  0  0  0
  140.3460   67.7860  229.4600 F   0  0  0  0  0  0  0  0  0  0  0  0
  139.7670   67.4820  227.1990 C   0  0  0  0  0  0  0  0  0  0  0  0
  139.6600   67.9940  225.9220 C   0  0  0  0  0  0  0  0  0  0  0  0
  140.0270   69.3030  225.6840 C   0  0  0  0  0  0  0  0  0  0  0  0
  139.9130   69.7790  224.4290 N   0  0  0  0  0  0  0  0  0  0  0  0
  139.6600   73.4980  223.3400 H   0  0  0  0  0  0  0  0  0  0  0  0
  139.9625   72.6938  220.4015 H   0  0  0  0  0  0  0  0  0  0  0  0
  138.5757   73.6937  220.9567 H   0  0  0  0  0  0  0  0  0  0  0  0
  139.8721   74.9244  218.0847 H   0  0  0  0  0  0  0  0  0  0  0  0
  139.1457   76.0047  219.3106 H   0  0  0  0  0  0  0  0  0  0  0  0
  141.2300   76.5462  217.2354 H   0  0  0  0  0  0  0  0  0  0  0  0
  139.9166   77.6121  217.9309 H   0  0  0  0  0  0  0  0  0  0  0  0
  142.2588   78.3141  218.3411 H   0  0  0  0  0  0  0  0  0  0  0  0
  141.1234   78.0639  219.7973 H   0  0  0  0  0  0  0  0  0  0  0  0
  143.7374   77.0139  219.2904 H   0  0  0  0  0  0  0  0  0  0  0  0
  142.7407   77.0458  220.7742 H   0  0  0  0  0  0  0  0  0  0  0  0
  142.5065   75.0244  218.4507 H   0  0  0  0  0  0  0  0  0  0  0  0
  142.2057   72.6058  219.8071 H   0  0  0  0  0  0  0  0  0  0  0  0
  143.9236   71.0968  220.7188 H   0  0  0  0  0  0  0  0  0  0  0  0
  146.1457   72.0132  221.4458 H   0  0  0  0  0  0  0  0  0  0  0  0
  146.5461   74.4614  221.2181 H   0  0  0  0  0  0  0  0  0  0  0  0
  144.8374   75.9306  220.3191 H   0  0  0  0  0  0  0  0  0  0  0  0
  140.9917   72.9129  224.8139 H   0  0  0  0  0  0  0  0  0  0  0  0
  141.2340   72.0959  227.1618 H   0  0  0  0  0  0  0  0  0  0  0  0
  140.9819   70.2357  228.7861 H   0  0  0  0  0  0  0  0  0  0  0  0
  139.4805   66.4424  227.4161 H   0  0  0  0  0  0  0  0  0  0  0  0
  139.2856   67.3646  225.1012 H   0  0  0  0  0  0  0  0  0  0  0  0
  1  2  2  0
  2  3  1  0
  3  4  1  0
  4  5  1  0
  5  6  2  0
  5  7  1  0
  7  8  1  0
  8  9  1  0
  9 10  1  0
 10 11  1  0
 11 12  1  0
 12 13  1  0
 13 14  2  0
 14 15  1  0
 15 16  2  0
 16 17  1  0
 17 18  2  0
  2 19  1  0
 19 20  2  0
 20 21  1  0
 21 22  2  0
 22 23  1  0
 23 24  2  0
 24 25  1  0
 24 26  1  0
 26 27  2  0
 27 28  1  0
 28 29  2  0
 12  7  1  0
 18 13  1  0
 29 19  1  0
 28 22  1  0
  3 30  1  0
  4 31  1  0
  4 32  1  0
  8 33  1  0
  8 34  1  0
  9 35  1  0
  9 36  1  0
 10 37  1  0
 10 38  1  0
 11 39  1  0
 11 40  1  0
 12 41  1  6
 14 42  1  0
 15 43  1  0
 16 44  1  0
 17 45  1  0
 18 46  1  0
 20 47  1  0
 21 48  1  0
 23 49  1  0
 26 50  1  0
 27 51  1  0
M  END
>  <smiles>  (52) 
O=C(NCC(=O)N1CCCCC1c1ccccc1)c1ccc2cc(F)ccc2n1

>  <score_type>  (52) 
oracle

>  <origin>  (52) 
autodockgpu

>  <m_score__min__energy>  (52) 
-9.2599999999999998

>  <m_primary>  (52) 
energy

>  <rmsd>  (52) 
2.7529528832437573

>  <m_score__min__rmsd>  (52) 
2.7529528832437573

>  <meeko>  (52) 
{"free_energy": -8.38, "intermolecular_energy": -9.87, "internal_energy": -1.86, "cluster_size": 15, "cluster_id": 3, "rank_in_cluster": 2}

>  <energy>  (52) 
-9.2

>  <cluster_rmsd>  (52) 
0.33

>  <cluster>  (52) 
1

$$$$

     RDKit          3D

 51 54  0  0  0  0  0  0  0  0999 V2000
  136.3070   77.5380  222.7250 O   0  0  0  0  0  0  0  0  0  0  0  0
  136.7250   76.4120  223.0900 C   0  0  0  0  0  0  0  0  0  0  0  0
  138.0320   75.9330  222.7810 N   0  0  0  0  0  0  0  0  0  0  0  0
  138.9710   76.7660  221.9960 C   0  0  0  0  0  0  0  0  0  0  0  0
  140.1660   75.9810  221.6610 C   0  0  0  0  0  0  0  0  0  0  0  0
  140.1500   74.7530  222.0520 O   0  0  0  0  0  0  0  0  0  0  0  0
  141.3120   76.3870  220.9730 N   0  0  0  0  0  0  0  0  0  0  0  0
  142.0270   75.3080  220.2400 C   0  0  0  0  0  0  0  0  0  0  0  0
  142.6220   75.8980  218.9830 C   0  0  0  0  0  0  0  0  0  0  0  0
  141.8860   77.0870  218.4720 C   0  0  0  0  0  0  0  0  0  0  0  0
  141.5270   78.1530  219.4380 C   0  0  0  0  0  0  0  0  0  0  0  0
  141.8890   77.6740  220.8330 C   0  0  1  0  0  0  0  0  0  0  0  0
  141.7580   78.6470  221.8920 C   0  0  0  0  0  0  0  0  0  0  0  0
  141.5490   78.3430  223.2270 C   0  0  0  0  0  0  0  0  0  0  0  0
  141.3920   79.3190  224.1930 C   0  0  0  0  0  0  0  0  0  0  0  0
  141.4400   80.6650  223.8400 C   0  0  0  0  0  0  0  0  0  0  0  0
  141.6490   80.9710  222.5070 C   0  0  0  0  0  0  0  0  0  0  0  0
  141.8000   79.9970  221.5730 C   0  0  0  0  0  0  0  0  0  0  0  0
  135.8360   75.5380  223.8740 C   0  0  0  0  0  0  0  0  0  0  0  0
  135.8030   74.1800  223.6190 C   0  0  0  0  0  0  0  0  0  0  0  0
  134.9620   73.3450  224.3570 C   0  0  0  0  0  0  0  0  0  0  0  0
  134.1610   73.8830  225.3460 C   0  0  0  0  0  0  0  0  0  0  0  0
  133.3090   73.1210  226.1110 C   0  0  0  0  0  0  0  0  0  0  0  0
  132.5440   73.7280  227.0740 C   0  0  0  0  0  0  0  0  0  0  0  0
  131.6910   72.9760  227.8420 F   0  0  0  0  0  0  0  0  0  0  0  0
  132.5920   75.0850  227.3130 C   0  0  0  0  0  0  0  0  0  0  0  0
  133.4440   75.8530  226.5470 C   0  0  0  0  0  0  0  0  0  0  0  0
  134.2160   75.2460  225.5770 C   0  0  0  0  0  0  0  0  0  0  0  0
  135.0410   76.0180  224.8430 N   0  0  0  0  0  0  0  0  0  0  0  0
  138.3030   74.9890  223.1180 H   0  0  0  0  0  0  0  0  0  0  0  0
  138.4793   77.0973  221.0695 H   0  0  0  0  0  0  0  0  0  0  0  0
  139.2657   77.6429  222.5911 H   0  0  0  0  0  0  0  0  0  0  0  0
  142.8277   74.8969  220.8724 H   0  0  0  0  0  0  0  0  0  0  0  0
  141.3279   74.4986  219.9831 H   0  0  0  0  0  0  0  0  0  0  0  0
  143.6587   76.1972  219.1970 H   0  0  0  0  0  0  0  0  0  0  0  0
  142.5602   75.1233  218.2045 H   0  0  0  0  0  0  0  0  0  0  0  0
  142.5110   77.5485  217.6933 H   0  0  0  0  0  0  0  0  0  0  0  0
  140.9190   76.6864  218.1339 H   0  0  0  0  0  0  0  0  0  0  0  0
  142.0856   79.0711  219.2034 H   0  0  0  0  0  0  0  0  0  0  0  0
  140.4503   78.3706  219.3795 H   0  0  0  0  0  0  0  0  0  0  0  0
  142.9750   77.5543  220.9605 H   0  0  0  0  0  0  0  0  0  0  0  0
  141.5064   77.2863  223.5295 H   0  0  0  0  0  0  0  0  0  0  0  0
  141.2289   79.0319  225.2423 H   0  0  0  0  0  0  0  0  0  0  0  0
  141.3162   81.4565  224.5937 H   0  0  0  0  0  0  0  0  0  0  0  0
  141.6938   82.0255  222.1973 H   0  0  0  0  0  0  0  0  0  0  0  0
  141.9616   80.2888  220.5248 H   0  0  0  0  0  0  0  0  0  0  0  0
  136.4422   73.7552  222.8310 H   0  0  0  0  0  0  0  0  0  0  0  0
  134.9372   72.2645  224.1522 H   0  0  0  0  0  0  0  0  0  0  0  0
  133.2418   72.0346  225.9519 H   0  0  0  0  0  0  0  0  0  0  0  0
  131.9673   75.5431  228.0940 H   0  0  0  0  0  0  0  0  0  0  0  0
  133.5077   76.9393  226.7076 H   0  0  0  0  0  0  0  0  0  0  0  0
  1  2  2  0
  2  3  1  0
  3  4  1  0
  4  5  1  0
  5  6  2  0
  5  7  1  0
  7  8  1  0
  8  9  1  0
  9 10  1  0
 10 11  1  0
 11 12  1  0
 12 13  1  0
 13 14  2  0
 14 15  1  0
 15 16  2  0
 16 17  1  0
 17 18  2  0
  2 19  1  0
 19 20  2  0
 20 21  1  0
 21 22  2  0
 22 23  1  0
 23 24  2  0
 24 25  1  0
 24 26  1  0
 26 27  2  0
 27 28  1  0
 28 29  2  0
 12  7  1  0
 18 13  1  0
 29 19  1  0
 28 22  1  0
  3 30  1  0
  4 31  1  0
  4 32  1  0
  8 33  1  0
  8 34  1  0
  9 35  1  0
  9 36  1  0
 10 37  1  0
 10 38  1  0
 11 39  1  0
 11 40  1  0
 12 41  1  6
 14 42  1  0
 15 43  1  0
 16 44  1  0
 17 45  1  0
 18 46  1  0
 20 47  1  0
 21 48  1  0
 23 49  1  0
 26 50  1  0
 27 51  1  0
M  END
>  <smiles>  (53) 
O=C(NCC(=O)N1CCCCC1c1ccccc1)c1ccc2cc(F)ccc2n1

>  <score_type>  (53) 
oracle

>  <origin>  (53) 
autodockgpu

>  <m_score__min__energy>  (53) 
-9.2599999999999998

>  <m_primary>  (53) 
energy

>  <rmsd>  (53) 
5.745845463273534

>  <m_score__min__rmsd>  (53) 
5.745845463273534

>  <meeko>  (53) 
{"free_energy": -7.98, "intermolecular_energy": -9.47, "internal_energy": -1.85, "cluster_size": 4, "cluster_id": 5, "rank_in_cluster": 1}

>  <energy>  (53) 
-9.15

>  <cluster_rmsd>  (53) 
0.4

>  <cluster>  (53) 
1

$$$$

     RDKit          3D

 51 54  0  0  0  0  0  0  0  0999 V2000
  139.3150   70.9930  220.9640 O   0  0  0  0  0  0  0  0  0  0  0  0
  139.4360   71.5870  222.0630 C   0  0  0  0  0  0  0  0  0  0  0  0
  139.4790   73.0090  222.1740 N   0  0  0  0  0  0  0  0  0  0  0  0
  139.3780   73.8590  220.9660 C   0  0  0  0  0  0  0  0  0  0  0  0
  140.5270   74.7730  220.9090 C   0  0  0  0  0  0  0  0  0  0  0  0
  141.0190   75.1170  222.0490 O   0  0  0  0  0  0  0  0  0  0  0  0
  141.1580   75.3120  219.7850 N   0  0  0  0  0  0  0  0  0  0  0  0
  140.2450   75.8900  218.7630 C   0  0  0  0  0  0  0  0  0  0  0  0
  140.9300   77.0780  218.1280 C   0  0  0  0  0  0  0  0  0  0  0  0
  141.9280   77.7380  219.0130 C   0  0  0  0  0  0  0  0  0  0  0  0
  142.9080   76.8800  219.7220 C   0  0  0  0  0  0  0  0  0  0  0  0
  142.5360   75.4280  219.4750 C   0  0  1  0  0  0  0  0  0  0  0  0
  143.4740   74.4420  219.9580 C   0  0  0  0  0  0  0  0  0  0  0  0
  143.2330   73.0800  220.0150 C   0  0  0  0  0  0  0  0  0  0  0  0
  144.1560   72.1850  220.5240 C   0  0  0  0  0  0  0  0  0  0  0  0
  145.3800   72.6430  221.0040 C   0  0  0  0  0  0  0  0  0  0  0  0
  145.6230   74.0030  220.9480 C   0  0  0  0  0  0  0  0  0  0  0  0
  144.7030   74.8660  220.4440 C   0  0  0  0  0  0  0  0  0  0  0  0
  139.5410   70.7940  223.2990 C   0  0  0  0  0  0  0  0  0  0  0  0
  139.1040   69.4840  223.3180 C   0  0  0  0  0  0  0  0  0  0  0  0
  139.1980   68.7260  224.4870 C   0  0  0  0  0  0  0  0  0  0  0  0
  139.7330   69.2940  225.6280 C   0  0  0  0  0  0  0  0  0  0  0  0
  139.8570   68.6070  226.8130 C   0  0  0  0  0  0  0  0  0  0  0  0
  140.3990   69.2400  227.9040 C   0  0  0  0  0  0  0  0  0  0  0  0
  140.5250   68.5630  229.0900 F   0  0  0  0  0  0  0  0  0  0  0  0
  140.8300   70.5490  227.8640 C   0  0  0  0  0  0  0  0  0  0  0  0
  140.7060   71.2410  226.6770 C   0  0  0  0  0  0  0  0  0  0  0  0
  140.1630   70.6080  225.5770 C   0  0  0  0  0  0  0  0  0  0  0  0
  140.0540   71.3060  224.4290 N   0  0  0  0  0  0  0  0  0  0  0  0
  139.5820   73.4260  223.1190 H   0  0  0  0  0  0  0  0  0  0  0  0
  139.3723   73.2218  220.0694 H   0  0  0  0  0  0  0  0  0  0  0  0
  138.4475   74.4441  221.0078 H   0  0  0  0  0  0  0  0  0  0  0  0
  140.0223   75.1351  217.9945 H   0  0  0  0  0  0  0  0  0  0  0  0
  139.3020   76.2049  219.2338 H   0  0  0  0  0  0  0  0  0  0  0  0
  141.4453   76.7361  217.2183 H   0  0  0  0  0  0  0  0  0  0  0  0
  140.1488   77.8223  217.9141 H   0  0  0  0  0  0  0  0  0  0  0  0
  142.5001   78.4426  218.3916 H   0  0  0  0  0  0  0  0  0  0  0  0
  141.3262   78.1878  219.8165 H   0  0  0  0  0  0  0  0  0  0  0  0
  143.9201   77.0754  219.3378 H   0  0  0  0  0  0  0  0  0  0  0  0
  142.8924   77.0975  220.8002 H   0  0  0  0  0  0  0  0  0  0  0  0
  142.6510   75.1457  218.4181 H   0  0  0  0  0  0  0  0  0  0  0  0
  142.2722   72.6957  219.6418 H   0  0  0  0  0  0  0  0  0  0  0  0
  143.9230   71.1103  220.5497 H   0  0  0  0  0  0  0  0  0  0  0  0
  146.1274   71.9474  221.4134 H   0  0  0  0  0  0  0  0  0  0  0  0
  146.5816   74.3944  221.3194 H   0  0  0  0  0  0  0  0  0  0  0  0
  144.9406   75.9398  220.4202 H   0  0  0  0  0  0  0  0  0  0  0  0
  138.6797   69.0354  222.4076 H   0  0  0  0  0  0  0  0  0  0  0  0
  138.8484   67.6831  224.4998 H   0  0  0  0  0  0  0  0  0  0  0  0
  139.5252   67.5608  226.8859 H   0  0  0  0  0  0  0  0  0  0  0  0
  141.2613   71.0289  228.7549 H   0  0  0  0  0  0  0  0  0  0  0  0
  141.0368   72.2878  226.6077 H   0  0  0  0  0  0  0  0  0  0  0  0
  1  2  2  0
  2  3  1  0
  3  4  1  0
  4  5  1  0
  5  6  2  0
  5  7  1  0
  7  8  1  0
  8  9  1  0
  9 10  1  0
 10 11  1  0
 11 12  1  0
 12 13  1  0
 13 14  2  0
 14 15  1  0
 15 16  2  0
 16 17  1  0
 17 18  2  0
  2 19  1  0
 19 20  2  0
 20 21  1  0
 21 22  2  0
 22 23  1  0
 23 24  2  0
 24 25  1  0
 24 26  1  0
 26 27  2  0
 27 28  1  0
 28 29  2  0
 12  7  1  0
 18 13  1  0
 29 19  1  0
 28 22  1  0
  3 30  1  0
  4 31  1  0
  4 32  1  0
  8 33  1  0
  8 34  1  0
  9 35  1  0
  9 36  1  0
 10 37  1  0
 10 38  1  0
 11 39  1  0
 11 40  1  0
 12 41  1  6
 14 42  1  0
 15 43  1  0
 16 44  1  0
 17 45  1  0
 18 46  1  0
 20 47  1  0
 21 48  1  0
 23 49  1  0
 26 50  1  0
 27 51  1  0
M  END
>  <smiles>  (54) 
O=C(NCC(=O)N1CCCCC1c1ccccc1)c1ccc2cc(F)ccc2n1

>  <score_type>  (54) 
oracle

>  <origin>  (54) 
autodockgpu

>  <m_score__min__energy>  (54) 
-9.2599999999999998

>  <m_primary>  (54) 
energy

>  <rmsd>  (54) 
1.5710445396120585

>  <m_score__min__rmsd>  (54) 
1.5710445396120585

>  <meeko>  (54) 
{"free_energy": -8.24, "intermolecular_energy": -9.73, "internal_energy": -2.03, "cluster_size": 15, "cluster_id": 3, "rank_in_cluster": 5}

>  <energy>  (54) 
-9.13

>  <cluster_rmsd>  (54) 
0.37

>  <cluster>  (54) 
1

$$$$

     RDKit          3D

 51 54  0  0  0  0  0  0  0  0999 V2000
  138.8810   70.9450  221.1920 O   0  0  0  0  0  0  0  0  0  0  0  0
  139.1940   71.5220  222.2610 C   0  0  0  0  0  0  0  0  0  0  0  0
  139.3570   72.9350  222.3590 N   0  0  0  0  0  0  0  0  0  0  0  0
  139.1550   73.7980  221.1730 C   0  0  0  0  0  0  0  0  0  0  0  0
  140.2240   74.8040  221.1080 C   0  0  0  0  0  0  0  0  0  0  0  0
  140.6860   75.1960  222.2450 O   0  0  0  0  0  0  0  0  0  0  0  0
  140.8060   75.3880  219.9790 N   0  0  0  0  0  0  0  0  0  0  0  0
  139.8510   76.0130  219.0260 C   0  0  0  0  0  0  0  0  0  0  0  0
  140.5150   77.2230  218.4110 C   0  0  0  0  0  0  0  0  0  0  0  0
  141.5590   77.8400  219.2760 C   0  0  0  0  0  0  0  0  0  0  0  0
  142.5630   76.9460  219.9020 C   0  0  0  0  0  0  0  0  0  0  0  0
  142.1690   75.5090  219.6110 C   0  0  1  0  0  0  0  0  0  0  0  0
  143.1210   74.4980  220.0080 C   0  0  0  0  0  0  0  0  0  0  0  0
  142.8180   73.1630  220.2190 C   0  0  0  0  0  0  0  0  0  0  0  0
  143.7650   72.2460  220.6360 C   0  0  0  0  0  0  0  0  0  0  0  0
  145.0770   72.6510  220.8620 C   0  0  0  0  0  0  0  0  0  0  0  0
  145.3820   73.9840  220.6520 C   0  0  0  0  0  0  0  0  0  0  0  0
  144.4380   74.8690  220.2420 C   0  0  0  0  0  0  0  0  0  0  0  0
  139.4070   70.7160  223.4750 C   0  0  0  0  0  0  0  0  0  0  0  0
  139.0050   69.3940  223.5060 C   0  0  0  0  0  0  0  0  0  0  0  0
  139.2020   68.6240  224.6540 C   0  0  0  0  0  0  0  0  0  0  0  0
  139.8040   69.1910  225.7610 C   0  0  0  0  0  0  0  0  0  0  0  0
  140.0300   68.4930  226.9250 C   0  0  0  0  0  0  0  0  0  0  0  0
  140.6330   69.1240  227.9820 C   0  0  0  0  0  0  0  0  0  0  0  0
  140.8620   68.4360  229.1470 F   0  0  0  0  0  0  0  0  0  0  0  0
  141.0280   70.4440  227.9310 C   0  0  0  0  0  0  0  0  0  0  0  0
  140.8020   71.1490  226.7660 C   0  0  0  0  0  0  0  0  0  0  0  0
  140.1960   70.5160  225.6990 C   0  0  0  0  0  0  0  0  0  0  0  0
  139.9880   71.2260  224.5720 N   0  0  0  0  0  0  0  0  0  0  0  0
  139.6180   73.3380  223.2800 H   0  0  0  0  0  0  0  0  0  0  0  0
  139.1774   73.1806  220.2629 H   0  0  0  0  0  0  0  0  0  0  0  0
  138.1813   74.3039  221.2508 H   0  0  0  0  0  0  0  0  0  0  0  0
  139.5878   75.2926  218.2375 H   0  0  0  0  0  0  0  0  0  0  0  0
  138.9326   76.3122  219.5524 H   0  0  0  0  0  0  0  0  0  0  0  0
  140.9849   76.9173  217.4646 H   0  0  0  0  0  0  0  0  0  0  0  0
  139.7304   77.9802  218.2659 H   0  0  0  0  0  0  0  0  0  0  0  0
  142.1078   78.5663  218.6586 H   0  0  0  0  0  0  0  0  0  0  0  0
  140.9991   78.2604  220.1244 H   0  0  0  0  0  0  0  0  0  0  0  0
  143.5581   77.1515  219.4806 H   0  0  0  0  0  0  0  0  0  0  0  0
  142.5978   77.1169  220.9881 H   0  0  0  0  0  0  0  0  0  0  0  0
  142.2328   75.2711  218.5389 H   0  0  0  0  0  0  0  0  0  0  0  0
  141.7868   72.8200  220.0487 H   0  0  0  0  0  0  0  0  0  0  0  0
  143.4808   71.1945  220.7894 H   0  0  0  0  0  0  0  0  0  0  0  0
  145.8442   71.9368  221.1957 H   0  0  0  0  0  0  0  0  0  0  0  0
  146.4111   74.3340  220.8208 H   0  0  0  0  0  0  0  0  0  0  0  0
  144.7274   75.9192  220.0895 H   0  0  0  0  0  0  0  0  0  0  0  0
  138.5275   68.9463  222.6219 H   0  0  0  0  0  0  0  0  0  0  0  0
  138.8799   67.5725  224.6770 H   0  0  0  0  0  0  0  0  0  0  0  0
  139.7295   67.4380  227.0066 H   0  0  0  0  0  0  0  0  0  0  0  0
  141.5105   70.9227  228.7959 H   0  0  0  0  0  0  0  0  0  0  0  0
  141.1017   72.2045  226.6884 H   0  0  0  0  0  0  0  0  0  0  0  0
  1  2  2  0
  2  3  1  0
  3  4  1  0
  4  5  1  0
  5  6  2  0
  5  7  1  0
  7  8  1  0
  8  9  1  0
  9 10  1  0
 10 11  1  0
 11 12  1  0
 12 13  1  0
 13 14  2  0
 14 15  1  0
 15 16  2  0
 16 17  1  0
 17 18  2  0
  2 19  1  0
 19 20  2  0
 20 21  1  0
 21 22  2  0
 22 23  1  0
 23 24  2  0
 24 25  1  0
 24 26  1  0
 26 27  2  0
 27 28  1  0
 28 29  2  0
 12  7  1  0
 18 13  1  0
 29 19  1  0
 28 22  1  0
  3 30  1  0
  4 31  1  0
  4 32  1  0
  8 33  1  0
  8 34  1  0
  9 35  1  0
  9 36  1  0
 10 37  1  0
 10 38  1  0
 11 39  1  0
 11 40  1  0
 12 41  1  6
 14 42  1  0
 15 43  1  0
 16 44  1  0
 17 45  1  0
 18 46  1  0
 20 47  1  0
 21 48  1  0
 23 49  1  0
 26 50  1  0
 27 51  1  0
M  END
>  <smiles>  (55) 
O=C(NCC(=O)N1CCCCC1c1ccccc1)c1ccc2cc(F)ccc2n1

>  <score_type>  (55) 
oracle

>  <origin>  (55) 
autodockgpu

>  <m_score__min__energy>  (55) 
-9.2599999999999998

>  <m_primary>  (55) 
energy

>  <rmsd>  (55) 
1.4912550538945821

>  <m_score__min__rmsd>  (55) 
1.4912550538945821

>  <meeko>  (55) 
{"free_energy": -8.17, "intermolecular_energy": -9.66, "internal_energy": -2.11, "cluster_size": 15, "cluster_id": 3, "rank_in_cluster": 10}

>  <energy>  (55) 
-9.11

>  <cluster_rmsd>  (55) 
0.31

>  <cluster>  (55) 
1

$$$$

     RDKit          3D

 51 54  0  0  0  0  0  0  0  0999 V2000
  139.1010   70.9830  221.0810 O   0  0  0  0  0  0  0  0  0  0  0  0
  139.3630   71.5680  222.1600 C   0  0  0  0  0  0  0  0  0  0  0  0
  139.5290   72.9820  222.2530 N   0  0  0  0  0  0  0  0  0  0  0  0
  139.3950   73.8340  221.0500 C   0  0  0  0  0  0  0  0  0  0  0  0
  140.5420   74.7480  220.9630 C   0  0  0  0  0  0  0  0  0  0  0  0
  141.0840   75.0660  222.0880 O   0  0  0  0  0  0  0  0  0  0  0  0
  141.1230   75.3140  219.8250 N   0  0  0  0  0  0  0  0  0  0  0  0
  140.1690   75.9420  218.8730 C   0  0  0  0  0  0  0  0  0  0  0  0
  140.8430   77.1380  218.2420 C   0  0  0  0  0  0  0  0  0  0  0  0
  141.9010   77.7500  219.0930 C   0  0  0  0  0  0  0  0  0  0  0  0
  142.8980   76.8500  219.7190 C   0  0  0  0  0  0  0  0  0  0  0  0
  142.4840   75.4140  219.4450 C   0  0  1  0  0  0  0  0  0  0  0  0
  143.4270   74.3950  219.8450 C   0  0  0  0  0  0  0  0  0  0  0  0
  144.6470   74.6390  220.4530 C   0  0  0  0  0  0  0  0  0  0  0  0
  145.5280   73.6250  220.7780 C   0  0  0  0  0  0  0  0  0  0  0  0
  145.2030   72.3010  220.4960 C   0  0  0  0  0  0  0  0  0  0  0  0
  143.9850   72.0550  219.8890 C   0  0  0  0  0  0  0  0  0  0  0  0
  143.1340   73.0660  219.5770 C   0  0  0  0  0  0  0  0  0  0  0  0
  139.5080   70.7730  223.3910 C   0  0  0  0  0  0  0  0  0  0  0  0
  139.0830   69.4580  223.4170 C   0  0  0  0  0  0  0  0  0  0  0  0
  139.2160   68.6980  224.5820 C   0  0  0  0  0  0  0  0  0  0  0  0
  139.7760   69.2680  225.7090 C   0  0  0  0  0  0  0  0  0  0  0  0
  139.9380   68.5800  226.8890 C   0  0  0  0  0  0  0  0  0  0  0  0
  140.5020   69.2140  227.9660 C   0  0  0  0  0  0  0  0  0  0  0  0
  140.6660   68.5350  229.1470 F   0  0  0  0  0  0  0  0  0  0  0  0
  140.9200   70.5270  227.9180 C   0  0  0  0  0  0  0  0  0  0  0  0
  140.7580   71.2210  226.7370 C   0  0  0  0  0  0  0  0  0  0  0  0
  140.1910   70.5870  225.6500 C   0  0  0  0  0  0  0  0  0  0  0  0
  140.0450   71.2860  224.5080 N   0  0  0  0  0  0  0  0  0  0  0  0
  139.7460   73.3920  223.1820 H   0  0  0  0  0  0  0  0  0  0  0  0
  139.3646   73.1983  220.1528 H   0  0  0  0  0  0  0  0  0  0  0  0
  138.4661   74.4191  221.1185 H   0  0  0  0  0  0  0  0  0  0  0  0
  139.8914   75.2176  218.0931 H   0  0  0  0  0  0  0  0  0  0  0  0
  139.2583   76.2574  219.4032 H   0  0  0  0  0  0  0  0  0  0  0  0
  141.3018   76.8179  217.2949 H   0  0  0  0  0  0  0  0  0  0  0  0
  140.0665   77.9034  218.0962 H   0  0  0  0  0  0  0  0  0  0  0  0
  142.4539   78.4638  218.4646 H   0  0  0  0  0  0  0  0  0  0  0  0
  141.3530   78.1853  219.9417 H   0  0  0  0  0  0  0  0  0  0  0  0
  143.8921   77.0391  219.2877 H   0  0  0  0  0  0  0  0  0  0  0  0
  142.9433   77.0307  220.8031 H   0  0  0  0  0  0  0  0  0  0  0  0
  142.5365   75.1643  218.3750 H   0  0  0  0  0  0  0  0  0  0  0  0
  144.9250   75.6775  220.6857 H   0  0  0  0  0  0  0  0  0  0  0  0
  146.4873   73.8644  221.2601 H   0  0  0  0  0  0  0  0  0  0  0  0
  145.8905   71.4798  220.7470 H   0  0  0  0  0  0  0  0  0  0  0  0
  143.6997   71.0189  219.6541 H   0  0  0  0  0  0  0  0  0  0  0  0
  142.1765   72.8220  219.0936 H   0  0  0  0  0  0  0  0  0  0  0  0
  138.6383   69.0080  222.5171 H   0  0  0  0  0  0  0  0  0  0  0  0
  138.8768   67.6518  224.6017 H   0  0  0  0  0  0  0  0  0  0  0  0
  139.6179   67.5306  226.9679 H   0  0  0  0  0  0  0  0  0  0  0  0
  141.3708   71.0084  228.7983 H   0  0  0  0  0  0  0  0  0  0  0  0
  141.0780   72.2708  226.6621 H   0  0  0  0  0  0  0  0  0  0  0  0
  1  2  2  0
  2  3  1  0
  3  4  1  0
  4  5  1  0
  5  6  2  0
  5  7  1  0
  7  8  1  0
  8  9  1  0
  9 10  1  0
 10 11  1  0
 11 12  1  0
 12 13  1  0
 13 14  2  0
 14 15  1  0
 15 16  2  0
 16 17  1  0
 17 18  2  0
  2 19  1  0
 19 20  2  0
 20 21  1  0
 21 22  2  0
 22 23  1  0
 23 24  2  0
 24 25  1  0
 24 26  1  0
 26 27  2  0
 27 28  1  0
 28 29  2  0
 12  7  1  0
 18 13  1  0
 29 19  1  0
 28 22  1  0
  3 30  1  0
  4 31  1  0
  4 32  1  0
  8 33  1  0
  8 34  1  0
  9 35  1  0
  9 36  1  0
 10 37  1  0
 10 38  1  0
 11 39  1  0
 11 40  1  0
 12 41  1  6
 14 42  1  0
 15 43  1  0
 16 44  1  0
 17 45  1  0
 18 46  1  0
 20 47  1  0
 21 48  1  0
 23 49  1  0
 26 50  1  0
 27 51  1  0
M  END
>  <smiles>  (56) 
O=C(NCC(=O)N1CCCCC1c1ccccc1)c1ccc2cc(F)ccc2n1

>  <score_type>  (56) 
oracle

>  <origin>  (56) 
autodockgpu

>  <m_score__min__energy>  (56) 
-9.2599999999999998

>  <m_primary>  (56) 
energy

>  <rmsd>  (56) 
1.5801724737023661

>  <m_score__min__rmsd>  (56) 
1.5801724737023661

>  <meeko>  (56) 
{"free_energy": -8.04, "intermolecular_energy": -9.53, "internal_energy": -2.08, "cluster_size": 15, "cluster_id": 3, "rank_in_cluster": 14}

>  <energy>  (56) 
-9.09

>  <cluster_rmsd>  (56) 
0.38

>  <cluster>  (56) 
1

$$$$

     RDKit          3D

 51 54  0  0  0  0  0  0  0  0999 V2000
  139.9760   71.3050  221.0090 O   0  0  0  0  0  0  0  0  0  0  0  0
  139.7350   71.8430  222.1170 C   0  0  0  0  0  0  0  0  0  0  0  0
  139.4160   73.2260  222.2530 N   0  0  0  0  0  0  0  0  0  0  0  0
  139.3540   74.1030  221.0620 C   0  0  0  0  0  0  0  0  0  0  0  0
  140.6390   74.7950  220.8910 C   0  0  0  0  0  0  0  0  0  0  0  0
  141.2940   75.0240  221.9770 O   0  0  0  0  0  0  0  0  0  0  0  0
  141.2450   75.2320  219.7100 N   0  0  0  0  0  0  0  0  0  0  0  0
  140.3070   75.6530  218.6360 C   0  0  0  0  0  0  0  0  0  0  0  0
  140.9410   76.7910  217.8690 C   0  0  0  0  0  0  0  0  0  0  0  0
  141.9110   77.5870  218.6690 C   0  0  0  0  0  0  0  0  0  0  0  0
  142.9270   76.8550  219.4630 C   0  0  0  0  0  0  0  0  0  0  0  0
  142.6160   75.3700  219.3820 C   0  0  1  0  0  0  0  0  0  0  0  0
  143.5970   74.4850  219.9660 C   0  0  0  0  0  0  0  0  0  0  0  0
  144.8270   74.8820  220.4640 C   0  0  0  0  0  0  0  0  0  0  0  0
  145.7420   73.9840  220.9780 C   0  0  0  0  0  0  0  0  0  0  0  0
  145.4460   72.6240  221.0070 C   0  0  0  0  0  0  0  0  0  0  0  0
  144.2180   72.2250  220.5100 C   0  0  0  0  0  0  0  0  0  0  0  0
  143.3320   73.1230  220.0090 C   0  0  0  0  0  0  0  0  0  0  0  0
  139.7810   71.0210  223.3380 C   0  0  0  0  0  0  0  0  0  0  0  0
  139.2920   69.7290  223.3190 C   0  0  0  0  0  0  0  0  0  0  0  0
  139.3310   68.9440  224.4740 C   0  0  0  0  0  0  0  0  0  0  0  0
  139.8630   69.4670  225.6370 C   0  0  0  0  0  0  0  0  0  0  0  0
  139.9340   68.7520  226.8110 C   0  0  0  0  0  0  0  0  0  0  0  0
  140.4750   69.3390  227.9250 C   0  0  0  0  0  0  0  0  0  0  0  0
  140.5490   68.6340  229.1000 F   0  0  0  0  0  0  0  0  0  0  0  0
  140.9580   70.6310  227.9230 C   0  0  0  0  0  0  0  0  0  0  0  0
  140.8890   71.3510  226.7480 C   0  0  0  0  0  0  0  0  0  0  0  0
  140.3450   70.7640  225.6240 C   0  0  0  0  0  0  0  0  0  0  0  0
  140.2890   71.4890  224.4900 N   0  0  0  0  0  0  0  0  0  0  0  0
  139.2310   73.5980  223.2050 H   0  0  0  0  0  0  0  0  0  0  0  0
  139.1446   73.4944  220.1699 H   0  0  0  0  0  0  0  0  0  0  0  0
  138.5544   74.8462  221.1972 H   0  0  0  0  0  0  0  0  0  0  0  0
  140.1158   74.8086  217.9575 H   0  0  0  0  0  0  0  0  0  0  0  0
  139.3517   75.9779  219.0740 H   0  0  0  0  0  0  0  0  0  0  0  0
  141.4694   76.3718  217.0001 H   0  0  0  0  0  0  0  0  0  0  0  0
  140.1288   77.4735  217.5784 H   0  0  0  0  0  0  0  0  0  0  0  0
  142.4520   78.2414  217.9697 H   0  0  0  0  0  0  0  0  0  0  0  0
  141.2918   78.0982  219.4209 H   0  0  0  0  0  0  0  0  0  0  0  0
  143.9294   77.0481  219.0531 H   0  0  0  0  0  0  0  0  0  0  0  0
  142.9038   77.1907  220.5103 H   0  0  0  0  0  0  0  0  0  0  0  0
  142.7404   74.9748  218.3630 H   0  0  0  0  0  0  0  0  0  0  0  0
  145.0845   75.9513  220.4496 H   0  0  0  0  0  0  0  0  0  0  0  0
  146.7065   74.3442  221.3652 H   0  0  0  0  0  0  0  0  0  0  0  0
  146.1624   71.8932  221.4104 H   0  0  0  0  0  0  0  0  0  0  0  0
  143.9540   71.1572  220.5211 H   0  0  0  0  0  0  0  0  0  0  0  0
  142.3688   72.7582  219.6229 H   0  0  0  0  0  0  0  0  0  0  0  0
  138.8702   69.3167  222.3905 H   0  0  0  0  0  0  0  0  0  0  0  0
  138.9405   67.9158  224.4576 H   0  0  0  0  0  0  0  0  0  0  0  0
  139.5598   67.7185  226.8547 H   0  0  0  0  0  0  0  0  0  0  0  0
  141.3865   71.0753  228.8335 H   0  0  0  0  0  0  0  0  0  0  0  0
  141.2645   72.3841  226.7077 H   0  0  0  0  0  0  0  0  0  0  0  0
  1  2  2  0
  2  3  1  0
  3  4  1  0
  4  5  1  0
  5  6  2  0
  5  7  1  0
  7  8  1  0
  8  9  1  0
  9 10  1  0
 10 11  1  0
 11 12  1  0
 12 13  1  0
 13 14  2  0
 14 15  1  0
 15 16  2  0
 16 17  1  0
 17 18  2  0
  2 19  1  0
 19 20  2  0
 20 21  1  0
 21 22  2  0
 22 23  1  0
 23 24  2  0
 24 25  1  0
 24 26  1  0
 26 27  2  0
 27 28  1  0
 28 29  2  0
 12  7  1  0
 18 13  1  0
 29 19  1  0
 28 22  1  0
  3 30  1  0
  4 31  1  0
  4 32  1  0
  8 33  1  0
  8 34  1  0
  9 35  1  0
  9 36  1  0
 10 37  1  0
 10 38  1  0
 11 39  1  0
 11 40  1  0
 12 41  1  6
 14 42  1  0
 15 43  1  0
 16 44  1  0
 17 45  1  0
 18 46  1  0
 20 47  1  0
 21 48  1  0
 23 49  1  0
 26 50  1  0
 27 51  1  0
M  END
>  <smiles>  (57) 
O=C(NCC(=O)N1CCCCC1c1ccccc1)c1ccc2cc(F)ccc2n1

>  <score_type>  (57) 
oracle

>  <origin>  (57) 
autodockgpu

>  <m_score__min__energy>  (57) 
-9.2599999999999998

>  <m_primary>  (57) 
energy

>  <rmsd>  (57) 
1.5654437085590232

>  <m_score__min__rmsd>  (57) 
1.5654437085590232

>  <meeko>  (57) 
{"free_energy": -8.34, "intermolecular_energy": -9.83, "internal_energy": -1.81, "cluster_size": 15, "cluster_id": 3, "rank_in_cluster": 3}

>  <energy>  (57) 
-9.09

>  <cluster_rmsd>  (57) 
0.44

>  <cluster>  (57) 
1

$$$$

     RDKit          3D

 51 54  0  0  0  0  0  0  0  0999 V2000
  141.0320   71.8810  221.2260 O   0  0  0  0  0  0  0  0  0  0  0  0
  140.3810   72.3480  222.1910 C   0  0  0  0  0  0  0  0  0  0  0  0
  139.8400   73.6680  222.1950 N   0  0  0  0  0  0  0  0  0  0  0  0
  140.0300   74.5600  221.0290 C   0  0  0  0  0  0  0  0  0  0  0  0
  140.7160   75.7880  221.4540 C   0  0  0  0  0  0  0  0  0  0  0  0
  140.3360   76.2700  222.5870 O   0  0  0  0  0  0  0  0  0  0  0  0
  141.7240   76.4970  220.7950 N   0  0  0  0  0  0  0  0  0  0  0  0
  142.7100   75.6620  220.0610 C   0  0  0  0  0  0  0  0  0  0  0  0
  143.1460   76.4140  218.8250 C   0  0  0  0  0  0  0  0  0  0  0  0
  142.1290   77.3750  218.3180 C   0  0  0  0  0  0  0  0  0  0  0  0
  141.4860   78.2880  219.2930 C   0  0  0  0  0  0  0  0  0  0  0  0
  141.9400   77.8940  220.6870 C   0  0  1  0  0  0  0  0  0  0  0  0
  141.5390   78.7760  221.7580 C   0  0  0  0  0  0  0  0  0  0  0  0
  140.2310   79.1340  222.0420 C   0  0  0  0  0  0  0  0  0  0  0  0
  139.9090   80.0150  223.0570 C   0  0  0  0  0  0  0  0  0  0  0  0
  140.9140   80.5780  223.8380 C   0  0  0  0  0  0  0  0  0  0  0  0
  142.2210   80.2220  223.5560 C   0  0  0  0  0  0  0  0  0  0  0  0
  142.5160   79.3550  222.5540 C   0  0  0  0  0  0  0  0  0  0  0  0
  140.1590   71.5070  223.3800 C   0  0  0  0  0  0  0  0  0  0  0  0
  139.4060   70.3530  223.2780 C   0  0  0  0  0  0  0  0  0  0  0  0
  139.1890   69.5520  224.4010 C   0  0  0  0  0  0  0  0  0  0  0  0
  139.7340   69.9190  225.6170 C   0  0  0  0  0  0  0  0  0  0  0  0
  139.5620   69.1780  226.7640 C   0  0  0  0  0  0  0  0  0  0  0  0
  140.1340   69.6070  227.9340 C   0  0  0  0  0  0  0  0  0  0  0  0
  139.9670   68.8750  229.0820 F   0  0  0  0  0  0  0  0  0  0  0  0
  140.8830   70.7620  228.0140 C   0  0  0  0  0  0  0  0  0  0  0  0
  141.0570   71.5080  226.8670 C   0  0  0  0  0  0  0  0  0  0  0  0
  140.4830   71.0800  225.6860 C   0  0  0  0  0  0  0  0  0  0  0  0
  140.6690   71.8260  224.5800 N   0  0  0  0  0  0  0  0  0  0  0  0
  139.3140   73.9820  223.0330 H   0  0  0  0  0  0  0  0  0  0  0  0
  140.6373   74.0455  220.2697 H   0  0  0  0  0  0  0  0  0  0  0  0
  139.0492   74.8183  220.6032 H   0  0  0  0  0  0  0  0  0  0  0  0
  143.5814   75.4656  220.7030 H   0  0  0  0  0  0  0  0  0  0  0  0
  142.2551   74.7013  219.7779 H   0  0  0  0  0  0  0  0  0  0  0  0
  144.0627   76.9729  219.0642 H   0  0  0  0  0  0  0  0  0  0  0  0
  143.3038   75.6665  218.0336 H   0  0  0  0  0  0  0  0  0  0  0  0
  142.6207   78.0011  217.5589 H   0  0  0  0  0  0  0  0  0  0  0  0
  141.3080   76.7394  217.9547 H   0  0  0  0  0  0  0  0  0  0  0  0
  141.7851   79.3257  219.0839 H   0  0  0  0  0  0  0  0  0  0  0  0
  140.3912   78.2140  219.2162 H   0  0  0  0  0  0  0  0  0  0  0  0
  143.0166   78.0640  220.8354 H   0  0  0  0  0  0  0  0  0  0  0  0
  139.4198   78.7015  221.4380 H   0  0  0  0  0  0  0  0  0  0  0  0
  138.8565   80.2717  223.2479 H   0  0  0  0  0  0  0  0  0  0  0  0
  140.6777   81.2809  224.6505 H   0  0  0  0  0  0  0  0  0  0  0  0
  143.0375   80.6502  224.1559 H   0  0  0  0  0  0  0  0  0  0  0  0
  143.5700   79.1021  222.3663 H   0  0  0  0  0  0  0  0  0  0  0  0
  138.9756   70.0640  222.3078 H   0  0  0  0  0  0  0  0  0  0  0  0
  138.5879   68.6345  224.3184 H   0  0  0  0  0  0  0  0  0  0  0  0
  138.9712   68.2504  226.7423 H   0  0  0  0  0  0  0  0  0  0  0  0
  141.3299   71.0800  228.9675 H   0  0  0  0  0  0  0  0  0  0  0  0
  141.6477   72.4356  226.8927 H   0  0  0  0  0  0  0  0  0  0  0  0
  1  2  2  0
  2  3  1  0
  3  4  1  0
  4  5  1  0
  5  6  2  0
  5  7  1  0
  7  8  1  0
  8  9  1  0
  9 10  1  0
 10 11  1  0
 11 12  1  0
 12 13  1  0
 13 14  2  0
 14 15  1  0
 15 16  2  0
 16 17  1  0
 17 18  2  0
  2 19  1  0
 19 20  2  0
 20 21  1  0
 21 22  2  0
 22 23  1  0
 23 24  2  0
 24 25  1  0
 24 26  1  0
 26 27  2  0
 27 28  1  0
 28 29  2  0
 12  7  1  0
 18 13  1  0
 29 19  1  0
 28 22  1  0
  3 30  1  0
  4 31  1  0
  4 32  1  0
  8 33  1  0
  8 34  1  0
  9 35  1  0
  9 36  1  0
 10 37  1  0
 10 38  1  0
 11 39  1  0
 11 40  1  0
 12 41  1  6
 14 42  1  0
 15 43  1  0
 16 44  1  0
 17 45  1  0
 18 46  1  0
 20 47  1  0
 21 48  1  0
 23 49  1  0
 26 50  1  0
 27 51  1  0
M  END
>  <smiles>  (58) 
O=C(NCC(=O)N1CCCCC1c1ccccc1)c1ccc2cc(F)ccc2n1

>  <score_type>  (58) 
oracle

>  <origin>  (58) 
autodockgpu

>  <m_score__min__energy>  (58) 
-9.2599999999999998

>  <m_primary>  (58) 
energy

>  <rmsd>  (58) 
2.1231099556525863

>  <m_score__min__rmsd>  (58) 
2.1231099556525863

>  <meeko>  (58) 
{"free_energy": -9.2, "intermolecular_energy": -10.69, "internal_energy": -1.54, "cluster_size": 23, "cluster_id": 1, "rank_in_cluster": 2}

>  <energy>  (58) 
-9.08

>  <cluster_rmsd>  (58) 
0.34

>  <cluster>  (58) 
1

$$$$

     RDKit          3D

 51 54  0  0  0  0  0  0  0  0999 V2000
  141.2540   72.3320  221.5450 O   0  0  0  0  0  0  0  0  0  0  0  0
  140.3550   72.5280  222.3990 C   0  0  0  0  0  0  0  0  0  0  0  0
  139.4470   73.6270  222.3300 N   0  0  0  0  0  0  0  0  0  0  0  0
  139.5330   74.6020  221.2190 C   0  0  0  0  0  0  0  0  0  0  0  0
  140.3600   75.7450  221.6290 C   0  0  0  0  0  0  0  0  0  0  0  0
  139.9950   76.3320  222.7160 O   0  0  0  0  0  0  0  0  0  0  0  0
  141.4890   76.2750  220.9990 N   0  0  0  0  0  0  0  0  0  0  0  0
  142.4440   75.2710  220.4610 C   0  0  0  0  0  0  0  0  0  0  0  0
  143.0610   75.8270  219.1990 C   0  0  0  0  0  0  0  0  0  0  0  0
  142.1960   76.8120  218.4920 C   0  0  0  0  0  0  0  0  0  0  0  0
  141.5680   77.8890  219.2930 C   0  0  0  0  0  0  0  0  0  0  0  0
  141.8560   77.6230  220.7600 C   0  0  1  0  0  0  0  0  0  0  0  0
  141.4560   78.6590  221.6830 C   0  0  0  0  0  0  0  0  0  0  0  0
  140.6200   79.7190  221.3710 C   0  0  0  0  0  0  0  0  0  0  0  0
  140.3020   80.7050  222.2860 C   0  0  0  0  0  0  0  0  0  0  0  0
  140.8260   80.6570  223.5750 C   0  0  0  0  0  0  0  0  0  0  0  0
  141.6600   79.5990  223.8890 C   0  0  0  0  0  0  0  0  0  0  0  0
  141.9610   78.6410  222.9750 C   0  0  0  0  0  0  0  0  0  0  0  0
  140.2210   71.5910  223.5270 C   0  0  0  0  0  0  0  0  0  0  0  0
  139.5980   70.3720  223.3410 C   0  0  0  0  0  0  0  0  0  0  0  0
  139.4660   69.4780  224.4060 C   0  0  0  0  0  0  0  0  0  0  0  0
  139.9620   69.8210  225.6500 C   0  0  0  0  0  0  0  0  0  0  0  0
  139.8670   68.9910  226.7430 C   0  0  0  0  0  0  0  0  0  0  0  0
  140.3840   69.4010  227.9460 C   0  0  0  0  0  0  0  0  0  0  0  0
  140.2930   68.5800  229.0420 F   0  0  0  0  0  0  0  0  0  0  0  0
  141.0020   70.6220  228.1100 C   0  0  0  0  0  0  0  0  0  0  0  0
  141.0980   71.4580  227.0160 C   0  0  0  0  0  0  0  0  0  0  0  0
  140.5800   71.0490  225.8040 C   0  0  0  0  0  0  0  0  0  0  0  0
  140.6880   71.8830  224.7510 N   0  0  0  0  0  0  0  0  0  0  0  0
  138.7310   73.7210  223.0760 H   0  0  0  0  0  0  0  0  0  0  0  0
  139.9867   74.1180  220.3415 H   0  0  0  0  0  0  0  0  0  0  0  0
  138.5229   74.9549  220.9638 H   0  0  0  0  0  0  0  0  0  0  0  0
  143.2314   75.0725  221.2031 H   0  0  0  0  0  0  0  0  0  0  0  0
  141.9187   74.3298  220.2416 H   0  0  0  0  0  0  0  0  0  0  0  0
  144.0064   76.3228  219.4642 H   0  0  0  0  0  0  0  0  0  0  0  0
  143.2087   74.9794  218.5136 H   0  0  0  0  0  0  0  0  0  0  0  0
  142.8140   77.2958  217.7213 H   0  0  0  0  0  0  0  0  0  0  0  0
  141.3488   76.2164  218.1212 H   0  0  0  0  0  0  0  0  0  0  0  0
  141.9892   78.8626  219.0020 H   0  0  0  0  0  0  0  0  0  0  0  0
  140.4822   77.9074  219.1175 H   0  0  0  0  0  0  0  0  0  0  0  0
  142.9274   77.7093  220.9937 H   0  0  0  0  0  0  0  0  0  0  0  0
  140.1940   79.7780  220.3586 H   0  0  0  0  0  0  0  0  0  0  0  0
  139.6338   81.5290  221.9953 H   0  0  0  0  0  0  0  0  0  0  0  0
  140.5854   81.4325  224.3171 H   0  0  0  0  0  0  0  0  0  0  0  0
  142.0882   79.5324  224.9000 H   0  0  0  0  0  0  0  0  0  0  0  0
  142.6305   77.8196  223.2701 H   0  0  0  0  0  0  0  0  0  0  0  0
  139.2041   70.1042  222.3495 H   0  0  0  0  0  0  0  0  0  0  0  0
  138.9706   68.5074  224.2559 H   0  0  0  0  0  0  0  0  0  0  0  0
  139.3813   68.0081  226.6534 H   0  0  0  0  0  0  0  0  0  0  0  0
  141.4081   70.9223  229.0872 H   0  0  0  0  0  0  0  0  0  0  0  0
  141.5828   72.4410  227.1093 H   0  0  0  0  0  0  0  0  0  0  0  0
  1  2  2  0
  2  3  1  0
  3  4  1  0
  4  5  1  0
  5  6  2  0
  5  7  1  0
  7  8  1  0
  8  9  1  0
  9 10  1  0
 10 11  1  0
 11 12  1  0
 12 13  1  0
 13 14  2  0
 14 15  1  0
 15 16  2  0
 16 17  1  0
 17 18  2  0
  2 19  1  0
 19 20  2  0
 20 21  1  0
 21 22  2  0
 22 23  1  0
 23 24  2  0
 24 25  1  0
 24 26  1  0
 26 27  2  0
 27 28  1  0
 28 29  2  0
 12  7  1  0
 18 13  1  0
 29 19  1  0
 28 22  1  0
  3 30  1  0
  4 31  1  0
  4 32  1  0
  8 33  1  0
  8 34  1  0
  9 35  1  0
  9 36  1  0
 10 37  1  0
 10 38  1  0
 11 39  1  0
 11 40  1  0
 12 41  1  6
 14 42  1  0
 15 43  1  0
 16 44  1  0
 17 45  1  0
 18 46  1  0
 20 47  1  0
 21 48  1  0
 23 49  1  0
 26 50  1  0
 27 51  1  0
M  END
>  <smiles>  (59) 
O=C(NCC(=O)N1CCCCC1c1ccccc1)c1ccc2cc(F)ccc2n1

>  <score_type>  (59) 
oracle

>  <origin>  (59) 
autodockgpu

>  <m_score__min__energy>  (59) 
-9.2599999999999998

>  <m_primary>  (59) 
energy

>  <rmsd>  (59) 
2.037186861940621

>  <m_score__min__rmsd>  (59) 
2.037186861940621

>  <meeko>  (59) 
{"free_energy": -9.08, "intermolecular_energy": -10.57, "internal_energy": -1.48, "cluster_size": 23, "cluster_id": 1, "rank_in_cluster": 8}

>  <energy>  (59) 
-9.07

>  <cluster_rmsd>  (59) 
0.44

>  <cluster>  (59) 
1

$$$$

     RDKit          3D

 51 54  0  0  0  0  0  0  0  0999 V2000
  140.2710   70.6490  221.6460 O   0  0  0  0  0  0  0  0  0  0  0  0
  140.1480   71.4800  222.5780 C   0  0  0  0  0  0  0  0  0  0  0  0
  139.9020   72.8670  222.3510 N   0  0  0  0  0  0  0  0  0  0  0  0
  139.7790   73.3920  220.9720 C   0  0  0  0  0  0  0  0  0  0  0  0
  140.2600   74.7790  220.9280 C   0  0  0  0  0  0  0  0  0  0  0  0
  140.1430   75.4410  222.0270 O   0  0  0  0  0  0  0  0  0  0  0  0
  140.8280   75.4720  219.8550 N   0  0  0  0  0  0  0  0  0  0  0  0
  139.8630   76.2060  218.9930 C   0  0  0  0  0  0  0  0  0  0  0  0
  140.5320   77.4670  218.4960 C   0  0  0  0  0  0  0  0  0  0  0  0
  141.6000   77.9760  219.3990 C   0  0  0  0  0  0  0  0  0  0  0  0
  142.6040   77.0100  219.9060 C   0  0  0  0  0  0  0  0  0  0  0  0
  142.1850   75.6160  219.4740 C   0  0  1  0  0  0  0  0  0  0  0  0
  143.1310   74.5580  219.7420 C   0  0  0  0  0  0  0  0  0  0  0  0
  142.9330   73.2220  219.4350 C   0  0  0  0  0  0  0  0  0  0  0  0
  143.8590   72.2450  219.7500 C   0  0  0  0  0  0  0  0  0  0  0  0
  145.0410   72.5880  220.4000 C   0  0  0  0  0  0  0  0  0  0  0  0
  145.2410   73.9220  220.7070 C   0  0  0  0  0  0  0  0  0  0  0  0
  144.3180   74.8660  220.3890 C   0  0  0  0  0  0  0  0  0  0  0  0
  140.2600   71.0180  223.9710 C   0  0  0  0  0  0  0  0  0  0  0  0
  140.6960   71.8860  224.9540 C   0  0  0  0  0  0  0  0  0  0  0  0
  140.8070   71.4540  226.2780 C   0  0  0  0  0  0  0  0  0  0  0  0
  140.4760   70.1520  226.6010 C   0  0  0  0  0  0  0  0  0  0  0  0
  140.5600   69.6590  227.8820 C   0  0  0  0  0  0  0  0  0  0  0  0
  140.2150   68.3540  228.1260 C   0  0  0  0  0  0  0  0  0  0  0  0
  140.2970   67.8540  229.4000 F   0  0  0  0  0  0  0  0  0  0  0  0
  139.7810   67.5040  227.1300 C   0  0  0  0  0  0  0  0  0  0  0  0
  139.6960   67.9950  225.8440 C   0  0  0  0  0  0  0  0  0  0  0  0
  140.0420   69.3070  225.5950 C   0  0  0  0  0  0  0  0  0  0  0  0
  139.9500   69.7620  224.3300 N   0  0  0  0  0  0  0  0  0  0  0  0
  139.8130   73.4930  223.1750 H   0  0  0  0  0  0  0  0  0  0  0  0
  140.3813   72.7739  220.2899 H   0  0  0  0  0  0  0  0  0  0  0  0
  138.7240   73.3613  220.6622 H   0  0  0  0  0  0  0  0  0  0  0  0
  139.5748   75.5765  218.1382 H   0  0  0  0  0  0  0  0  0  0  0  0
  138.9591   76.4582  219.5668 H   0  0  0  0  0  0  0  0  0  0  0  0
  140.9793   77.2580  217.5130 H   0  0  0  0  0  0  0  0  0  0  0  0
  139.7553   78.2444  218.4482 H   0  0  0  0  0  0  0  0  0  0  0  0
  142.1464   78.7576  218.8508 H   0  0  0  0  0  0  0  0  0  0  0  0
  141.0621   78.3096  220.2987 H   0  0  0  0  0  0  0  0  0  0  0  0
  143.5932   77.2475  219.4875 H   0  0  0  0  0  0  0  0  0  0  0  0
  142.6627   77.0652  221.0031 H   0  0  0  0  0  0  0  0  0  0  0  0
  142.2247   75.4919  218.3817 H   0  0  0  0  0  0  0  0  0  0  0  0
  142.0055   72.9277  218.9220 H   0  0  0  0  0  0  0  0  0  0  0  0
  143.6614   71.1954  219.4867 H   0  0  0  0  0  0  0  0  0  0  0  0
  145.7897   71.8253  220.6604 H   0  0  0  0  0  0  0  0  0  0  0  0
  146.1664   74.2242  221.2191 H   0  0  0  0  0  0  0  0  0  0  0  0
  144.5196   75.9142  220.6547 H   0  0  0  0  0  0  0  0  0  0  0  0
  140.9569   72.9222  224.6927 H   0  0  0  0  0  0  0  0  0  0  0  0
  141.1558   72.1462  227.0585 H   0  0  0  0  0  0  0  0  0  0  0  0
  140.9009   70.3056  228.7040 H   0  0  0  0  0  0  0  0  0  0  0  0
  139.5099   66.4621  227.3555 H   0  0  0  0  0  0  0  0  0  0  0  0
  139.3552   67.3460  225.0238 H   0  0  0  0  0  0  0  0  0  0  0  0
  1  2  2  0
  2  3  1  0
  3  4  1  0
  4  5  1  0
  5  6  2  0
  5  7  1  0
  7  8  1  0
  8  9  1  0
  9 10  1  0
 10 11  1  0
 11 12  1  0
 12 13  1  0
 13 14  2  0
 14 15  1  0
 15 16  2  0
 16 17  1  0
 17 18  2  0
  2 19  1  0
 19 20  2  0
 20 21  1  0
 21 22  2  0
 22 23  1  0
 23 24  2  0
 24 25  1  0
 24 26  1  0
 26 27  2  0
 27 28  1  0
 28 29  2  0
 12  7  1  0
 18 13  1  0
 29 19  1  0
 28 22  1  0
  3 30  1  0
  4 31  1  0
  4 32  1  0
  8 33  1  0
  8 34  1  0
  9 35  1  0
  9 36  1  0
 10 37  1  0
 10 38  1  0
 11 39  1  0
 11 40  1  0
 12 41  1  6
 14 42  1  0
 15 43  1  0
 16 44  1  0
 17 45  1  0
 18 46  1  0
 20 47  1  0
 21 48  1  0
 23 49  1  0
 26 50  1  0
 27 51  1  0
M  END
>  <smiles>  (60) 
O=C(NCC(=O)N1CCCCC1c1ccccc1)c1ccc2cc(F)ccc2n1

>  <score_type>  (60) 
oracle

>  <origin>  (60) 
autodockgpu

>  <m_score__min__energy>  (60) 
-9.2599999999999998

>  <m_primary>  (60) 
energy

>  <rmsd>  (60) 
2.7793903385703986

>  <m_score__min__rmsd>  (60) 
2.7793903385703986

>  <meeko>  (60) 
{"free_energy": -7.95, "intermolecular_energy": -9.45, "internal_energy": -1.99, "cluster_size": 15, "cluster_id": 3, "rank_in_cluster": 15}

>  <energy>  (60) 
-9.07

>  <cluster_rmsd>  (60) 
0.46

>  <cluster>  (60) 
1

$$$$

     RDKit          3D

 51 54  0  0  0  0  0  0  0  0999 V2000
  140.3240   70.7580  221.7570 O   0  0  0  0  0  0  0  0  0  0  0  0
  140.1150   71.5460  222.7110 C   0  0  0  0  0  0  0  0  0  0  0  0
  139.7470   72.9110  222.5220 N   0  0  0  0  0  0  0  0  0  0  0  0
  139.5930   73.4640  221.1570 C   0  0  0  0  0  0  0  0  0  0  0  0
  140.4390   74.6560  221.0100 C   0  0  0  0  0  0  0  0  0  0  0  0
  140.6480   75.3250  222.0910 O   0  0  0  0  0  0  0  0  0  0  0  0
  141.0480   75.1570  219.8560 N   0  0  0  0  0  0  0  0  0  0  0  0
  140.1130   75.6530  218.8110 C   0  0  0  0  0  0  0  0  0  0  0  0
  140.7590   76.8280  218.1130 C   0  0  0  0  0  0  0  0  0  0  0  0
  141.7400   77.5630  218.9580 C   0  0  0  0  0  0  0  0  0  0  0  0
  142.7480   76.7720  219.7040 C   0  0  0  0  0  0  0  0  0  0  0  0
  142.4200   75.2990  219.5330 C   0  0  1  0  0  0  0  0  0  0  0  0
  143.3910   74.3690  220.0610 C   0  0  0  0  0  0  0  0  0  0  0  0
  143.1550   73.0230  220.2910 C   0  0  0  0  0  0  0  0  0  0  0  0
  144.1120   72.1870  220.8350 C   0  0  0  0  0  0  0  0  0  0  0  0
  145.3660   72.6870  221.1730 C   0  0  0  0  0  0  0  0  0  0  0  0
  145.6040   74.0300  220.9430 C   0  0  0  0  0  0  0  0  0  0  0  0
  144.6500   74.8360  220.4090 C   0  0  0  0  0  0  0  0  0  0  0  0
  140.2530   71.0530  224.0920 C   0  0  0  0  0  0  0  0  0  0  0  0
  140.7380   71.8900  225.0780 C   0  0  0  0  0  0  0  0  0  0  0  0
  140.8730   71.4290  226.3900 C   0  0  0  0  0  0  0  0  0  0  0  0
  140.5180   70.1290  226.6970 C   0  0  0  0  0  0  0  0  0  0  0  0
  140.6250   69.6080  227.9660 C   0  0  0  0  0  0  0  0  0  0  0  0
  140.2530   68.3080  228.1930 C   0  0  0  0  0  0  0  0  0  0  0  0
  140.3570   67.7800  229.4550 F   0  0  0  0  0  0  0  0  0  0  0  0
  139.7710   67.4890  227.1940 C   0  0  0  0  0  0  0  0  0  0  0  0
  139.6640   68.0070  225.9200 C   0  0  0  0  0  0  0  0  0  0  0  0
  140.0360   69.3160  225.6870 C   0  0  0  0  0  0  0  0  0  0  0  0
  139.9210   69.7980  224.4340 N   0  0  0  0  0  0  0  0  0  0  0  0
  139.5930   73.5000  223.3630 H   0  0  0  0  0  0  0  0  0  0  0  0
  139.8959   72.7068  220.4189 H   0  0  0  0  0  0  0  0  0  0  0  0
  138.5411   73.7398  220.9910 H   0  0  0  0  0  0  0  0  0  0  0  0
  139.9111   74.8534  218.0831 H   0  0  0  0  0  0  0  0  0  0  0  0
  139.1621   75.9616  219.2698 H   0  0  0  0  0  0  0  0  0  0  0  0
  141.2811   76.4562  217.2190 H   0  0  0  0  0  0  0  0  0  0  0  0
  139.9543   77.5363  217.8662 H   0  0  0  0  0  0  0  0  0  0  0  0
  142.2880   78.2520  218.2984 H   0  0  0  0  0  0  0  0  0  0  0  0
  141.1282   78.0354  219.7406 H   0  0  0  0  0  0  0  0  0  0  0  0
  143.7522   76.9782  219.3051 H   0  0  0  0  0  0  0  0  0  0  0  0
  142.7294   77.0432  220.7699 H   0  0  0  0  0  0  0  0  0  0  0  0
  142.5385   74.9659  218.4914 H   0  0  0  0  0  0  0  0  0  0  0  0
  142.1712   72.6050  220.0314 H   0  0  0  0  0  0  0  0  0  0  0  0
  143.8819   71.1242  221.0011 H   0  0  0  0  0  0  0  0  0  0  0  0
  146.1401   72.0375  221.6075 H   0  0  0  0  0  0  0  0  0  0  0  0
  146.5864   74.4542  221.1979 H   0  0  0  0  0  0  0  0  0  0  0  0
  144.8844   75.8984  220.2465 H   0  0  0  0  0  0  0  0  0  0  0  0
  141.0192   72.9239  224.8292 H   0  0  0  0  0  0  0  0  0  0  0  0
  141.2595   72.0968  227.1740 H   0  0  0  0  0  0  0  0  0  0  0  0
  141.0054   70.2286  228.7907 H   0  0  0  0  0  0  0  0  0  0  0  0
  139.4795   66.4500  227.4073 H   0  0  0  0  0  0  0  0  0  0  0  0
  139.2857   67.3827  225.0971 H   0  0  0  0  0  0  0  0  0  0  0  0
  1  2  2  0
  2  3  1  0
  3  4  1  0
  4  5  1  0
  5  6  2  0
  5  7  1  0
  7  8  1  0
  8  9  1  0
  9 10  1  0
 10 11  1  0
 11 12  1  0
 12 13  1  0
 13 14  2  0
 14 15  1  0
 15 16  2  0
 16 17  1  0
 17 18  2  0
  2 19  1  0
 19 20  2  0
 20 21  1  0
 21 22  2  0
 22 23  1  0
 23 24  2  0
 24 25  1  0
 24 26  1  0
 26 27  2  0
 27 28  1  0
 28 29  2  0
 12  7  1  0
 18 13  1  0
 29 19  1  0
 28 22  1  0
  3 30  1  0
  4 31  1  0
  4 32  1  0
  8 33  1  0
  8 34  1  0
  9 35  1  0
  9 36  1  0
 10 37  1  0
 10 38  1  0
 11 39  1  0
 11 40  1  0
 12 41  1  6
 14 42  1  0
 15 43  1  0
 16 44  1  0
 17 45  1  0
 18 46  1  0
 20 47  1  0
 21 48  1  0
 23 49  1  0
 26 50  1  0
 27 51  1  0
M  END
>  <smiles>  (61) 
O=C(NCC(=O)N1CCCCC1c1ccccc1)c1ccc2cc(F)ccc2n1

>  <score_type>  (61) 
oracle

>  <origin>  (61) 
autodockgpu

>  <m_score__min__energy>  (61) 
-9.2599999999999998

>  <m_primary>  (61) 
energy

>  <rmsd>  (61) 
2.7520870544484852

>  <m_score__min__rmsd>  (61) 
2.7520870544484852

>  <meeko>  (61) 
{"free_energy": -8.41, "intermolecular_energy": -9.91, "internal_energy": -1.84, "cluster_size": 15, "cluster_id": 3, "rank_in_cluster": 1}

>  <energy>  (61) 
-9.06

>  <cluster_rmsd>  (61) 
0.37

>  <cluster>  (61) 
1

$$$$

     RDKit          3D

 51 54  0  0  0  0  0  0  0  0999 V2000
  140.9820   71.9520  221.2310 O   0  0  0  0  0  0  0  0  0  0  0  0
  140.3560   72.3890  222.2260 C   0  0  0  0  0  0  0  0  0  0  0  0
  139.7960   73.7000  222.2750 N   0  0  0  0  0  0  0  0  0  0  0  0
  139.9350   74.6180  221.1210 C   0  0  0  0  0  0  0  0  0  0  0  0
  140.6850   75.8140  221.5300 C   0  0  0  0  0  0  0  0  0  0  0  0
  140.3970   76.2770  222.6970 O   0  0  0  0  0  0  0  0  0  0  0  0
  141.6700   76.5090  220.8230 N   0  0  0  0  0  0  0  0  0  0  0  0
  142.6300   75.6590  220.0700 C   0  0  0  0  0  0  0  0  0  0  0  0
  143.0220   76.3880  218.8060 C   0  0  0  0  0  0  0  0  0  0  0  0
  141.9890   77.3410  218.3170 C   0  0  0  0  0  0  0  0  0  0  0  0
  141.3810   78.2730  219.2970 C   0  0  0  0  0  0  0  0  0  0  0  0
  141.8830   77.9030  220.6820 C   0  0  1  0  0  0  0  0  0  0  0  0
  141.5210   78.8050  221.7500 C   0  0  0  0  0  0  0  0  0  0  0  0
  142.3200   79.1030  222.8420 C   0  0  0  0  0  0  0  0  0  0  0  0
  141.9050   79.9460  223.8550 C   0  0  0  0  0  0  0  0  0  0  0  0
  140.6420   80.5310  223.8040 C   0  0  0  0  0  0  0  0  0  0  0  0
  139.8420   80.2350  222.7140 C   0  0  0  0  0  0  0  0  0  0  0  0
  140.2690   79.4040  221.7290 C   0  0  0  0  0  0  0  0  0  0  0  0
  140.1850   71.5220  223.4040 C   0  0  0  0  0  0  0  0  0  0  0  0
  139.5470   70.3030  223.2770 C   0  0  0  0  0  0  0  0  0  0  0  0
  139.3800   69.4750  224.3900 C   0  0  0  0  0  0  0  0  0  0  0  0
  139.8580   69.8820  225.6210 C   0  0  0  0  0  0  0  0  0  0  0  0
  139.7280   69.1190  226.7580 C   0  0  0  0  0  0  0  0  0  0  0  0
  140.2280   69.5910  227.9450 C   0  0  0  0  0  0  0  0  0  0  0  0
  140.1030   68.8370  229.0850 F   0  0  0  0  0  0  0  0  0  0  0  0
  140.8620   70.8110  228.0510 C   0  0  0  0  0  0  0  0  0  0  0  0
  140.9930   71.5790  226.9120 C   0  0  0  0  0  0  0  0  0  0  0  0
  140.4920   71.1080  225.7160 C   0  0  0  0  0  0  0  0  0  0  0  0
  140.6330   71.8770  224.6190 N   0  0  0  0  0  0  0  0  0  0  0  0
  139.2930   73.9900  223.1350 H   0  0  0  0  0  0  0  0  0  0  0  0
  140.4745   74.1072  220.3098 H   0  0  0  0  0  0  0  0  0  0  0  0
  138.9364   74.9157  220.7687 H   0  0  0  0  0  0  0  0  0  0  0  0
  143.5234   75.4737  220.6844 H   0  0  0  0  0  0  0  0  0  0  0  0
  142.1655   74.6934  219.8211 H   0  0  0  0  0  0  0  0  0  0  0  0
  143.9470   76.9500  219.0025 H   0  0  0  0  0  0  0  0  0  0  0  0
  143.1505   75.6257  218.0234 H   0  0  0  0  0  0  0  0  0  0  0  0
  142.4546   77.9523  217.5299 H   0  0  0  0  0  0  0  0  0  0  0  0
  141.1553   76.7001  217.9942 H   0  0  0  0  0  0  0  0  0  0  0  0
  141.6740   79.3062  219.0589 H   0  0  0  0  0  0  0  0  0  0  0  0
  140.2841   78.1999  219.2594 H   0  0  0  0  0  0  0  0  0  0  0  0
  142.9644   78.0736  220.7896 H   0  0  0  0  0  0  0  0  0  0  0  0
  143.3213   78.6520  222.9048 H   0  0  0  0  0  0  0  0  0  0  0  0
  142.5732   80.1555  224.7033 H   0  0  0  0  0  0  0  0  0  0  0  0
  140.2930   81.2039  224.6011 H   0  0  0  0  0  0  0  0  0  0  0  0
  138.8395   80.6823  222.6444 H   0  0  0  0  0  0  0  0  0  0  0  0
  139.5976   79.1976  220.8825 H   0  0  0  0  0  0  0  0  0  0  0  0
  139.1687   69.9829  222.2949 H   0  0  0  0  0  0  0  0  0  0  0  0
  138.8712   68.5052  224.2870 H   0  0  0  0  0  0  0  0  0  0  0  0
  139.2281   68.1401  226.7159 H   0  0  0  0  0  0  0  0  0  0  0  0
  141.2527   71.1625  229.0173 H   0  0  0  0  0  0  0  0  0  0  0  0
  141.4924   72.5580  226.9573 H   0  0  0  0  0  0  0  0  0  0  0  0
  1  2  2  0
  2  3  1  0
  3  4  1  0
  4  5  1  0
  5  6  2  0
  5  7  1  0
  7  8  1  0
  8  9  1  0
  9 10  1  0
 10 11  1  0
 11 12  1  0
 12 13  1  0
 13 14  2  0
 14 15  1  0
 15 16  2  0
 16 17  1  0
 17 18  2  0
  2 19  1  0
 19 20  2  0
 20 21  1  0
 21 22  2  0
 22 23  1  0
 23 24  2  0
 24 25  1  0
 24 26  1  0
 26 27  2  0
 27 28  1  0
 28 29  2  0
 12  7  1  0
 18 13  1  0
 29 19  1  0
 28 22  1  0
  3 30  1  0
  4 31  1  0
  4 32  1  0
  8 33  1  0
  8 34  1  0
  9 35  1  0
  9 36  1  0
 10 37  1  0
 10 38  1  0
 11 39  1  0
 11 40  1  0
 12 41  1  6
 14 42  1  0
 15 43  1  0
 16 44  1  0
 17 45  1  0
 18 46  1  0
 20 47  1  0
 21 48  1  0
 23 49  1  0
 26 50  1  0
 27 51  1  0
M  END
>  <smiles>  (62) 
O=C(NCC(=O)N1CCCCC1c1ccccc1)c1ccc2cc(F)ccc2n1

>  <score_type>  (62) 
oracle

>  <origin>  (62) 
autodockgpu

>  <m_score__min__energy>  (62) 
-9.2599999999999998

>  <m_primary>  (62) 
energy

>  <rmsd>  (62) 
2.0804094258850103

>  <m_score__min__rmsd>  (62) 
2.0804094258850103

>  <meeko>  (62) 
{"free_energy": -9.04, "intermolecular_energy": -10.53, "internal_energy": -1.62, "cluster_size": 23, "cluster_id": 1, "rank_in_cluster": 12}

>  <energy>  (62) 
-9.04

>  <cluster_rmsd>  (62) 
0.32

>  <cluster>  (62) 
1

$$$$

     RDKit          3D

 51 54  0  0  0  0  0  0  0  0999 V2000
  139.8910   71.6700  221.0450 O   0  0  0  0  0  0  0  0  0  0  0  0
  139.7820   72.2020  222.1760 C   0  0  0  0  0  0  0  0  0  0  0  0
  139.5590   73.5990  222.3570 N   0  0  0  0  0  0  0  0  0  0  0  0
  139.4440   74.4980  221.1870 C   0  0  0  0  0  0  0  0  0  0  0  0
  140.7300   75.1680  220.9520 C   0  0  0  0  0  0  0  0  0  0  0  0
  141.3870   75.4940  222.0110 O   0  0  0  0  0  0  0  0  0  0  0  0
  141.3350   75.4940  219.7350 N   0  0  0  0  0  0  0  0  0  0  0  0
  140.4170   76.0340  218.6970 C   0  0  0  0  0  0  0  0  0  0  0  0
  141.1720   77.0550  217.8770 C   0  0  0  0  0  0  0  0  0  0  0  0
  142.2870   77.7110  218.6140 C   0  0  0  0  0  0  0  0  0  0  0  0
  143.2220   76.8480  219.3760 C   0  0  0  0  0  0  0  0  0  0  0  0
  142.6940   75.4240  219.3400 C   0  0  1  0  0  0  0  0  0  0  0  0
  143.5610   74.4120  219.8970 C   0  0  0  0  0  0  0  0  0  0  0  0
  144.8020   74.6550  220.4620 C   0  0  0  0  0  0  0  0  0  0  0  0
  145.6060   73.6410  220.9450 C   0  0  0  0  0  0  0  0  0  0  0  0
  145.1800   72.3170  220.8740 C   0  0  0  0  0  0  0  0  0  0  0  0
  143.9410   72.0720  220.3100 C   0  0  0  0  0  0  0  0  0  0  0  0
  143.1660   73.0830  219.8400 C   0  0  0  0  0  0  0  0  0  0  0  0
  139.8870   71.3570  223.3780 C   0  0  0  0  0  0  0  0  0  0  0  0
  139.5110   70.0290  223.3240 C   0  0  0  0  0  0  0  0  0  0  0  0
  139.6070   69.2220  224.4610 C   0  0  0  0  0  0  0  0  0  0  0  0
  140.0810   69.7610  225.6420 C   0  0  0  0  0  0  0  0  0  0  0  0
  140.2020   69.0260  226.7990 C   0  0  0  0  0  0  0  0  0  0  0  0
  140.6800   69.6310  227.9330 C   0  0  0  0  0  0  0  0  0  0  0  0
  140.8030   68.9060  229.0910 F   0  0  0  0  0  0  0  0  0  0  0  0
  141.0510   70.9580  227.9660 C   0  0  0  0  0  0  0  0  0  0  0  0
  140.9300   71.6990  226.8080 C   0  0  0  0  0  0  0  0  0  0  0  0
  140.4490   71.0940  225.6640 C   0  0  0  0  0  0  0  0  0  0  0  0
  140.3410   71.8390  224.5460 N   0  0  0  0  0  0  0  0  0  0  0  0
  139.4810   73.9630  223.3260 H   0  0  0  0  0  0  0  0  0  0  0  0
  139.1700   73.9097  220.2988 H   0  0  0  0  0  0  0  0  0  0  0  0
  138.6687   75.2536  221.3817 H   0  0  0  0  0  0  0  0  0  0  0  0
  140.0706   75.2175  218.0463 H   0  0  0  0  0  0  0  0  0  0  0  0
  139.5428   76.5027  219.1724 H   0  0  0  0  0  0  0  0  0  0  0  0
  141.5897   76.5502  216.9935 H   0  0  0  0  0  0  0  0  0  0  0  0
  140.4551   77.8455  217.6101 H   0  0  0  0  0  0  0  0  0  0  0  0
  142.8835   78.2678  217.8763 H   0  0  0  0  0  0  0  0  0  0  0  0
  141.7875   78.3195  219.3822 H   0  0  0  0  0  0  0  0  0  0  0  0
  144.2210   76.8860  218.9171 H   0  0  0  0  0  0  0  0  0  0  0  0
  143.2981   77.1977  220.4162 H   0  0  0  0  0  0  0  0  0  0  0  0
  142.7106   75.0018  218.3244 H   0  0  0  0  0  0  0  0  0  0  0  0
  145.1602   75.6929  220.5285 H   0  0  0  0  0  0  0  0  0  0  0  0
  146.5848   73.8797  221.3866 H   0  0  0  0  0  0  0  0  0  0  0  0
  145.8062   71.4958  221.2527 H   0  0  0  0  0  0  0  0  0  0  0  0
  143.5759   71.0366  220.2408 H   0  0  0  0  0  0  0  0  0  0  0  0
  142.1888   72.8395  219.3976 H   0  0  0  0  0  0  0  0  0  0  0  0
  139.1343   69.6046  222.3817 H   0  0  0  0  0  0  0  0  0  0  0  0
  139.3072   68.1646  224.4162 H   0  0  0  0  0  0  0  0  0  0  0  0
  139.9180   67.9634  226.8141 H   0  0  0  0  0  0  0  0  0  0  0  0
  141.4334   71.4144  228.8909 H   0  0  0  0  0  0  0  0  0  0  0  0
  141.2141   72.7616  226.7966 H   0  0  0  0  0  0  0  0  0  0  0  0
  1  2  2  0
  2  3  1  0
  3  4  1  0
  4  5  1  0
  5  6  2  0
  5  7  1  0
  7  8  1  0
  8  9  1  0
  9 10  1  0
 10 11  1  0
 11 12  1  0
 12 13  1  0
 13 14  2  0
 14 15  1  0
 15 16  2  0
 16 17  1  0
 17 18  2  0
  2 19  1  0
 19 20  2  0
 20 21  1  0
 21 22  2  0
 22 23  1  0
 23 24  2  0
 24 25  1  0
 24 26  1  0
 26 27  2  0
 27 28  1  0
 28 29  2  0
 12  7  1  0
 18 13  1  0
 29 19  1  0
 28 22  1  0
  3 30  1  0
  4 31  1  0
  4 32  1  0
  8 33  1  0
  8 34  1  0
  9 35  1  0
  9 36  1  0
 10 37  1  0
 10 38  1  0
 11 39  1  0
 11 40  1  0
 12 41  1  6
 14 42  1  0
 15 43  1  0
 16 44  1  0
 17 45  1  0
 18 46  1  0
 20 47  1  0
 21 48  1  0
 23 49  1  0
 26 50  1  0
 27 51  1  0
M  END
>  <smiles>  (63) 
O=C(NCC(=O)N1CCCCC1c1ccccc1)c1ccc2cc(F)ccc2n1

>  <score_type>  (63) 
oracle

>  <origin>  (63) 
autodockgpu

>  <m_score__min__energy>  (63) 
-9.2599999999999998

>  <m_primary>  (63) 
energy

>  <rmsd>  (63) 
1.7426024874493755

>  <m_score__min__rmsd>  (63) 
1.7426024874493755

>  <meeko>  (63) 
{"free_energy": -8.08, "intermolecular_energy": -9.57, "internal_energy": -1.94, "cluster_size": 15, "cluster_id": 3, "rank_in_cluster": 12}

>  <energy>  (63) 
-8.99

>  <cluster_rmsd>  (63) 
0.39

>  <cluster>  (63) 
1

$$$$

     RDKit          3D

 51 54  0  0  0  0  0  0  0  0999 V2000
  140.7610   71.8640  221.1050 O   0  0  0  0  0  0  0  0  0  0  0  0
  140.2940   72.3750  222.1510 C   0  0  0  0  0  0  0  0  0  0  0  0
  139.9350   73.7520  222.2480 N   0  0  0  0  0  0  0  0  0  0  0  0
  140.1030   74.6550  221.0860 C   0  0  0  0  0  0  0  0  0  0  0  0
  140.9440   75.7970  221.4670 C   0  0  0  0  0  0  0  0  0  0  0  0
  140.8980   76.1290  222.7100 O   0  0  0  0  0  0  0  0  0  0  0  0
  141.7880   76.5660  220.6610 N   0  0  0  0  0  0  0  0  0  0  0  0
  142.7030   75.7910  219.7810 C   0  0  0  0  0  0  0  0  0  0  0  0
  142.8900   76.5600  218.4930 C   0  0  0  0  0  0  0  0  0  0  0  0
  141.7450   77.4470  218.1520 C   0  0  0  0  0  0  0  0  0  0  0  0
  141.2010   78.3240  219.2160 C   0  0  0  0  0  0  0  0  0  0  0  0
  141.8910   77.9730  220.5230 C   0  0  1  0  0  0  0  0  0  0  0  0
  141.6030   78.8360  221.6450 C   0  0  0  0  0  0  0  0  0  0  0  0
  142.5580   79.4400  222.4460 C   0  0  0  0  0  0  0  0  0  0  0  0
  142.2220   80.2270  223.5310 C   0  0  0  0  0  0  0  0  0  0  0  0
  140.8850   80.4360  223.8560 C   0  0  0  0  0  0  0  0  0  0  0  0
  139.9290   79.8340  223.0570 C   0  0  0  0  0  0  0  0  0  0  0  0
  140.2790   79.0640  221.9950 C   0  0  0  0  0  0  0  0  0  0  0  0
  140.1040   71.5270  223.3400 C   0  0  0  0  0  0  0  0  0  0  0  0
  139.4410   70.3200  223.2280 C   0  0  0  0  0  0  0  0  0  0  0  0
  139.2550   69.5110  224.3520 C   0  0  0  0  0  0  0  0  0  0  0  0
  139.7400   69.9240  225.5780 C   0  0  0  0  0  0  0  0  0  0  0  0
  139.5940   69.1790  226.7250 C   0  0  0  0  0  0  0  0  0  0  0  0
  140.1040   69.6550  227.9060 C   0  0  0  0  0  0  0  0  0  0  0  0
  139.9620   68.9190  229.0550 F   0  0  0  0  0  0  0  0  0  0  0  0
  140.7630   70.8620  227.9960 C   0  0  0  0  0  0  0  0  0  0  0  0
  140.9110   71.6130  226.8480 C   0  0  0  0  0  0  0  0  0  0  0  0
  140.4010   71.1370  225.6570 C   0  0  0  0  0  0  0  0  0  0  0  0
  140.5590   71.8890  224.5500 N   0  0  0  0  0  0  0  0  0  0  0  0
  139.5560   74.1000  223.1500 H   0  0  0  0  0  0  0  0  0  0  0  0
  140.5824   74.1061  220.2621 H   0  0  0  0  0  0  0  0  0  0  0  0
  139.1173   75.0196  220.7612 H   0  0  0  0  0  0  0  0  0  0  0  0
  143.6747   75.6590  220.2794 H   0  0  0  0  0  0  0  0  0  0  0  0
  142.2759   74.7993  219.5709 H   0  0  0  0  0  0  0  0  0  0  0  0
  143.7934   77.1805  218.5875 H   0  0  0  0  0  0  0  0  0  0  0  0
  142.9720   75.8176  217.6854 H   0  0  0  0  0  0  0  0  0  0  0  0
  142.0701   78.0976  217.3268 H   0  0  0  0  0  0  0  0  0  0  0  0
  140.9220   76.7550  217.9200 H   0  0  0  0  0  0  0  0  0  0  0  0
  141.3942   79.3773  218.9647 H   0  0  0  0  0  0  0  0  0  0  0  0
  140.1149   78.1771  219.3096 H   0  0  0  0  0  0  0  0  0  0  0  0
  142.9638   78.2154  220.5028 H   0  0  0  0  0  0  0  0  0  0  0  0
  143.6216   79.2878  222.2101 H   0  0  0  0  0  0  0  0  0  0  0  0
  143.0132   80.6894  224.1393 H   0  0  0  0  0  0  0  0  0  0  0  0
  140.5985   81.0575  224.7172 H   0  0  0  0  0  0  0  0  0  0  0  0
  138.8636   79.9823  223.2870 H   0  0  0  0  0  0  0  0  0  0  0  0
  139.4842   78.6038  221.3895 H   0  0  0  0  0  0  0  0  0  0  0  0
  139.0579   69.9945  222.2496 H   0  0  0  0  0  0  0  0  0  0  0  0
  138.7256   68.5510  224.2613 H   0  0  0  0  0  0  0  0  0  0  0  0
  139.0731   68.2106  226.6955 H   0  0  0  0  0  0  0  0  0  0  0  0
  141.1607   71.2175  228.9580 H   0  0  0  0  0  0  0  0  0  0  0  0
  141.4306   72.5820  226.8816 H   0  0  0  0  0  0  0  0  0  0  0  0
  1  2  2  0
  2  3  1  0
  3  4  1  0
  4  5  1  0
  5  6  2  0
  5  7  1  0
  7  8  1  0
  8  9  1  0
  9 10  1  0
 10 11  1  0
 11 12  1  0
 12 13  1  0
 13 14  2  0
 14 15  1  0
 15 16  2  0
 16 17  1  0
 17 18  2  0
  2 19  1  0
 19 20  2  0
 20 21  1  0
 21 22  2  0
 22 23  1  0
 23 24  2  0
 24 25  1  0
 24 26  1  0
 26 27  2  0
 27 28  1  0
 28 29  2  0
 12  7  1  0
 18 13  1  0
 29 19  1  0
 28 22  1  0
  3 30  1  0
  4 31  1  0
  4 32  1  0
  8 33  1  0
  8 34  1  0
  9 35  1  0
  9 36  1  0
 10 37  1  0
 10 38  1  0
 11 39  1  0
 11 40  1  0
 12 41  1  6
 14 42  1  0
 15 43  1  0
 16 44  1  0
 17 45  1  0
 18 46  1  0
 20 47  1  0
 21 48  1  0
 23 49  1  0
 26 50  1  0
 27 51  1  0
M  END
>  <smiles>  (64) 
O=C(NCC(=O)N1CCCCC1c1ccccc1)c1ccc2cc(F)ccc2n1

>  <score_type>  (64) 
oracle

>  <origin>  (64) 
autodockgpu

>  <m_score__min__energy>  (64) 
-9.2599999999999998

>  <m_primary>  (64) 
energy

>  <rmsd>  (64) 
2.0748103432005625

>  <m_score__min__rmsd>  (64) 
2.0748103432005625

>  <meeko>  (64) 
{"free_energy": -8.94, "intermolecular_energy": -10.43, "internal_energy": -1.71, "cluster_size": 23, "cluster_id": 1, "rank_in_cluster": 17}

>  <energy>  (64) 
-8.98

>  <cluster_rmsd>  (64) 
0.41

>  <cluster>  (64) 
1

$$$$

     RDKit          3D

 51 54  0  0  0  0  0  0  0  0999 V2000
  140.6960   71.8180  221.1060 O   0  0  0  0  0  0  0  0  0  0  0  0
  140.2490   72.3370  222.1570 C   0  0  0  0  0  0  0  0  0  0  0  0
  139.9080   73.7190  222.2540 N   0  0  0  0  0  0  0  0  0  0  0  0
  140.0710   74.6160  221.0870 C   0  0  0  0  0  0  0  0  0  0  0  0
  140.8230   75.8130  221.4870 C   0  0  0  0  0  0  0  0  0  0  0  0
  140.6180   76.2190  222.6920 O   0  0  0  0  0  0  0  0  0  0  0  0
  141.7300   76.5650  220.7360 N   0  0  0  0  0  0  0  0  0  0  0  0
  142.6830   75.7720  219.9150 C   0  0  0  0  0  0  0  0  0  0  0  0
  142.9660   76.5350  218.6410 C   0  0  0  0  0  0  0  0  0  0  0  0
  141.8610   77.4430  218.2280 C   0  0  0  0  0  0  0  0  0  0  0  0
  141.2670   78.3310  219.2560 C   0  0  0  0  0  0  0  0  0  0  0  0
  141.8670   77.9690  220.6040 C   0  0  1  0  0  0  0  0  0  0  0  0
  141.5250   78.8390  221.7050 C   0  0  0  0  0  0  0  0  0  0  0  0
  140.2340   79.1760  222.0770 C   0  0  0  0  0  0  0  0  0  0  0  0
  139.9670   80.0460  223.1170 C   0  0  0  0  0  0  0  0  0  0  0  0
  141.0130   80.6200  223.8340 C   0  0  0  0  0  0  0  0  0  0  0  0
  142.3030   80.2840  223.4640 C   0  0  0  0  0  0  0  0  0  0  0  0
  142.5450   79.4280  222.4380 C   0  0  0  0  0  0  0  0  0  0  0  0
  140.0650   71.4950  223.3520 C   0  0  0  0  0  0  0  0  0  0  0  0
  139.4120   70.2820  223.2470 C   0  0  0  0  0  0  0  0  0  0  0  0
  139.2320   69.4790  224.3750 C   0  0  0  0  0  0  0  0  0  0  0  0
  139.7130   69.9030  225.5990 C   0  0  0  0  0  0  0  0  0  0  0  0
  139.5720   69.1650  226.7510 C   0  0  0  0  0  0  0  0  0  0  0  0
  140.0760   69.6530  227.9300 C   0  0  0  0  0  0  0  0  0  0  0  0
  139.9390   68.9230  229.0830 F   0  0  0  0  0  0  0  0  0  0  0  0
  140.7260   70.8660  228.0120 C   0  0  0  0  0  0  0  0  0  0  0  0
  140.8690   71.6100  226.8600 C   0  0  0  0  0  0  0  0  0  0  0  0
  140.3630   71.1230  225.6710 C   0  0  0  0  0  0  0  0  0  0  0  0
  140.5160   71.8680  224.5600 N   0  0  0  0  0  0  0  0  0  0  0  0
  139.5460   74.0740  223.1600 H   0  0  0  0  0  0  0  0  0  0  0  0
  140.6190   74.0877  220.2929 H   0  0  0  0  0  0  0  0  0  0  0  0
  139.0800   74.9146  220.7144 H   0  0  0  0  0  0  0  0  0  0  0  0
  143.6187   75.6218  220.4736 H   0  0  0  0  0  0  0  0  0  0  0  0
  142.2501   74.7889  219.6782 H   0  0  0  0  0  0  0  0  0  0  0  0
  143.8731   77.1386  218.7922 H   0  0  0  0  0  0  0  0  0  0  0  0
  143.0855   75.7901  217.8405 H   0  0  0  0  0  0  0  0  0  0  0  0
  142.2497   78.0867  217.4252 H   0  0  0  0  0  0  0  0  0  0  0  0
  141.0417   76.7662  217.9439 H   0  0  0  0  0  0  0  0  0  0  0  0
  141.4946   79.3804  219.0174 H   0  0  0  0  0  0  0  0  0  0  0  0
  140.1747   78.2038  219.2811 H   0  0  0  0  0  0  0  0  0  0  0  0
  142.9433   78.1911  220.6510 H   0  0  0  0  0  0  0  0  0  0  0  0
  139.3909   78.7353  221.5247 H   0  0  0  0  0  0  0  0  0  0  0  0
  138.9258   80.2854  223.3788 H   0  0  0  0  0  0  0  0  0  0  0  0
  140.8209   81.3153  224.6644 H   0  0  0  0  0  0  0  0  0  0  0  0
  143.1510   80.7196  224.0128 H   0  0  0  0  0  0  0  0  0  0  0  0
  143.5878   79.1930  222.1786 H   0  0  0  0  0  0  0  0  0  0  0  0
  139.0322   69.9473  222.2704 H   0  0  0  0  0  0  0  0  0  0  0  0
  138.7103   68.5144  224.2897 H   0  0  0  0  0  0  0  0  0  0  0  0
  139.0596   68.1919  226.7273 H   0  0  0  0  0  0  0  0  0  0  0  0
  141.1204   71.2309  228.9718 H   0  0  0  0  0  0  0  0  0  0  0  0
  141.3816   72.5829  226.8878 H   0  0  0  0  0  0  0  0  0  0  0  0
  1  2  2  0
  2  3  1  0
  3  4  1  0
  4  5  1  0
  5  6  2  0
  5  7  1  0
  7  8  1  0
  8  9  1  0
  9 10  1  0
 10 11  1  0
 11 12  1  0
 12 13  1  0
 13 14  2  0
 14 15  1  0
 15 16  2  0
 16 17  1  0
 17 18  2  0
  2 19  1  0
 19 20  2  0
 20 21  1  0
 21 22  2  0
 22 23  1  0
 23 24  2  0
 24 25  1  0
 24 26  1  0
 26 27  2  0
 27 28  1  0
 28 29  2  0
 12  7  1  0
 18 13  1  0
 29 19  1  0
 28 22  1  0
  3 30  1  0
  4 31  1  0
  4 32  1  0
  8 33  1  0
  8 34  1  0
  9 35  1  0
  9 36  1  0
 10 37  1  0
 10 38  1  0
 11 39  1  0
 11 40  1  0
 12 41  1  6
 14 42  1  0
 15 43  1  0
 16 44  1  0
 17 45  1  0
 18 46  1  0
 20 47  1  0
 21 48  1  0
 23 49  1  0
 26 50  1  0
 27 51  1  0
M  END
>  <smiles>  (65) 
O=C(NCC(=O)N1CCCCC1c1ccccc1)c1ccc2cc(F)ccc2n1

>  <score_type>  (65) 
oracle

>  <origin>  (65) 
autodockgpu

>  <m_score__min__energy>  (65) 
-9.2599999999999998

>  <m_primary>  (65) 
energy

>  <rmsd>  (65) 
2.0806905305512937

>  <m_score__min__rmsd>  (65) 
2.0806905305512937

>  <meeko>  (65) 
{"free_energy": -9.07, "intermolecular_energy": -10.56, "internal_energy": -1.72, "cluster_size": 23, "cluster_id": 1, "rank_in_cluster": 9}

>  <energy>  (65) 
-8.98

>  <cluster_rmsd>  (65) 
0.4

>  <cluster>  (65) 
1

$$$$

     RDKit          3D

 51 54  0  0  0  0  0  0  0  0999 V2000
  141.3890   72.6910  220.8310 O   0  0  0  0  0  0  0  0  0  0  0  0
  140.6570   73.3520  221.6070 C   0  0  0  0  0  0  0  0  0  0  0  0
  139.7400   72.7430  222.5140 N   0  0  0  0  0  0  0  0  0  0  0  0
  139.6150   71.2690  222.5770 C   0  0  0  0  0  0  0  0  0  0  0  0
  138.3180   70.9090  223.1660 C   0  0  0  0  0  0  0  0  0  0  0  0
  137.5770   71.9010  223.5230 O   0  0  0  0  0  0  0  0  0  0  0  0
  137.7820   69.6380  223.3860 N   0  0  0  0  0  0  0  0  0  0  0  0
  136.4650   69.3850  222.7420 C   0  0  0  0  0  0  0  0  0  0  0  0
  136.4080   67.9330  222.3280 C   0  0  0  0  0  0  0  0  0  0  0  0
  137.7430   67.3310  222.0620 C   0  0  0  0  0  0  0  0  0  0  0  0
  138.8200   67.5550  223.0560 C   0  0  0  0  0  0  0  0  0  0  0  0
  138.3090   68.5330  224.1000 C   0  0  1  0  0  0  0  0  0  0  0  0
  139.1680   68.7480  225.2410 C   0  0  0  0  0  0  0  0  0  0  0  0
  139.4700   69.9860  225.7830 C   0  0  0  0  0  0  0  0  0  0  0  0
  140.3310   70.1350  226.8540 C   0  0  0  0  0  0  0  0  0  0  0  0
  140.9310   69.0180  227.4280 C   0  0  0  0  0  0  0  0  0  0  0  0
  140.6300   67.7800  226.8890 C   0  0  0  0  0  0  0  0  0  0  0  0
  139.7820   67.6550  225.8360 C   0  0  0  0  0  0  0  0  0  0  0  0
  140.7370   74.8220  221.5890 C   0  0  0  0  0  0  0  0  0  0  0  0
  141.7170   75.4510  220.8450 C   0  0  0  0  0  0  0  0  0  0  0  0
  141.8000   76.8450  220.8240 C   0  0  0  0  0  0  0  0  0  0  0  0
  140.8960   77.5940  221.5530 C   0  0  0  0  0  0  0  0  0  0  0  0
  140.9180   78.9690  221.5780 C   0  0  0  0  0  0  0  0  0  0  0  0
  139.9860   79.6440  222.3260 C   0  0  0  0  0  0  0  0  0  0  0  0
  140.0020   81.0150  222.3580 F   0  0  0  0  0  0  0  0  0  0  0  0
  139.0160   78.9960  223.0610 C   0  0  0  0  0  0  0  0  0  0  0  0
  138.9900   77.6170  223.0380 C   0  0  0  0  0  0  0  0  0  0  0  0
  139.9260   76.9350  222.2870 C   0  0  0  0  0  0  0  0  0  0  0  0
  139.8790   75.5880  222.2810 N   0  0  0  0  0  0  0  0  0  0  0  0
  139.1670   73.3590  223.1230 H   0  0  0  0  0  0  0  0  0  0  0  0
  139.6843   70.8520  221.5615 H   0  0  0  0  0  0  0  0  0  0  0  0
  140.4248   70.8600  223.1990 H   0  0  0  0  0  0  0  0  0  0  0  0
  135.6554   69.6002  223.4549 H   0  0  0  0  0  0  0  0  0  0  0  0
  136.3434   70.0340  221.8622 H   0  0  0  0  0  0  0  0  0  0  0  0
  135.9242   67.3614  223.1338 H   0  0  0  0  0  0  0  0  0  0  0  0
  135.8440   67.8909  221.3845 H   0  0  0  0  0  0  0  0  0  0  0  0
  137.5997   66.2439  221.9749 H   0  0  0  0  0  0  0  0  0  0  0  0
  138.0976   67.8412  221.1543 H   0  0  0  0  0  0  0  0  0  0  0  0
  139.0861   66.6023  223.5373 H   0  0  0  0  0  0  0  0  0  0  0  0
  139.7142   67.9616  222.5610 H   0  0  0  0  0  0  0  0  0  0  0  0
  137.4830   68.1125  224.6923 H   0  0  0  0  0  0  0  0  0  0  0  0
  139.0080   70.8833  225.3454 H   0  0  0  0  0  0  0  0  0  0  0  0
  140.5423   71.1379  227.2533 H   0  0  0  0  0  0  0  0  0  0  0  0
  141.6200   69.1161  228.2799 H   0  0  0  0  0  0  0  0  0  0  0  0
  141.0871   66.8782  227.3225 H   0  0  0  0  0  0  0  0  0  0  0  0
  139.5740   66.6501  225.4399 H   0  0  0  0  0  0  0  0  0  0  0  0
  142.4350   74.8510  220.2666 H   0  0  0  0  0  0  0  0  0  0  0  0
  142.5804   77.3438  220.2306 H   0  0  0  0  0  0  0  0  0  0  0  0
  141.6755   79.5226  221.0038 H   0  0  0  0  0  0  0  0  0  0  0  0
  138.2816   79.5642  223.6507 H   0  0  0  0  0  0  0  0  0  0  0  0
  138.2307   77.0662  223.6126 H   0  0  0  0  0  0  0  0  0  0  0  0
  1  2  2  0
  2  3  1  0
  3  4  1  0
  4  5  1  0
  5  6  2  0
  5  7  1  0
  7  8  1  0
  8  9  1  0
  9 10  1  0
 10 11  1  0
 11 12  1  0
 12 13  1  0
 13 14  2  0
 14 15  1  0
 15 16  2  0
 16 17  1  0
 17 18  2  0
  2 19  1  0
 19 20  2  0
 20 21  1  0
 21 22  2  0
 22 23  1  0
 23 24  2  0
 24 25  1  0
 24 26  1  0
 26 27  2  0
 27 28  1  0
 28 29  2  0
 12  7  1  0
 18 13  1  0
 29 19  1  0
 28 22  1  0
  3 30  1  0
  4 31  1  0
  4 32  1  0
  8 33  1  0
  8 34  1  0
  9 35  1  0
  9 36  1  0
 10 37  1  0
 10 38  1  0
 11 39  1  0
 11 40  1  0
 12 41  1  1
 14 42  1  0
 15 43  1  0
 16 44  1  0
 17 45  1  0
 18 46  1  0
 20 47  1  0
 21 48  1  0
 23 49  1  0
 26 50  1  0
 27 51  1  0
M  END
>  <smiles>  (66) 
O=C(NCC(=O)N1CCCCC1c1ccccc1)c1ccc2cc(F)ccc2n1

>  <score_type>  (66) 
oracle

>  <origin>  (66) 
autodockgpu

>  <m_score__min__energy>  (66) 
-9.2599999999999998

>  <m_primary>  (66) 
energy

>  <rmsd>  (66) 
8.558494304911891

>  <m_score__min__rmsd>  (66) 
8.558494304911891

>  <meeko>  (66) 
{"free_energy": -7.27, "intermolecular_energy": -8.76, "internal_energy": -2.07, "cluster_size": 1, "cluster_id": 6, "rank_in_cluster": 1}

>  <energy>  (66) 
-8.96

>  <cluster_rmsd>  (66) 
0.41

>  <cluster>  (66) 
1

$$$$

     RDKit          3D

 51 54  0  0  0  0  0  0  0  0999 V2000
  140.7980   71.7830  221.1040 O   0  0  0  0  0  0  0  0  0  0  0  0
  140.3190   72.3080  222.1380 C   0  0  0  0  0  0  0  0  0  0  0  0
  139.9620   73.6870  222.2130 N   0  0  0  0  0  0  0  0  0  0  0  0
  140.1470   74.5750  221.0430 C   0  0  0  0  0  0  0  0  0  0  0  0
  140.8940   75.7740  221.4470 C   0  0  0  0  0  0  0  0  0  0  0  0
  140.7110   76.1570  222.6630 O   0  0  0  0  0  0  0  0  0  0  0  0
  141.7760   76.5490  220.6890 N   0  0  0  0  0  0  0  0  0  0  0  0
  142.7260   75.7800  219.8420 C   0  0  0  0  0  0  0  0  0  0  0  0
  142.9740   76.5630  218.5730 C   0  0  0  0  0  0  0  0  0  0  0  0
  141.8490   77.4590  218.1910 C   0  0  0  0  0  0  0  0  0  0  0  0
  141.2600   78.3260  219.2400 C   0  0  0  0  0  0  0  0  0  0  0  0
  141.8900   77.9560  220.5720 C   0  0  1  0  0  0  0  0  0  0  0  0
  141.5540   78.8070  221.6890 C   0  0  0  0  0  0  0  0  0  0  0  0
  140.2650   79.1290  222.0820 C   0  0  0  0  0  0  0  0  0  0  0  0
  140.0030   79.9810  223.1380 C   0  0  0  0  0  0  0  0  0  0  0  0
  141.0540   80.5530  223.8500 C   0  0  0  0  0  0  0  0  0  0  0  0
  142.3420   80.2330  223.4610 C   0  0  0  0  0  0  0  0  0  0  0  0
  142.5780   79.3940  222.4200 C   0  0  0  0  0  0  0  0  0  0  0  0
  140.1120   71.4750  223.3350 C   0  0  0  0  0  0  0  0  0  0  0  0
  139.4040   70.2920  223.2380 C   0  0  0  0  0  0  0  0  0  0  0  0
  139.2020   69.4970  224.3690 C   0  0  0  0  0  0  0  0  0  0  0  0
  139.7160   69.9000  225.5870 C   0  0  0  0  0  0  0  0  0  0  0  0
  139.5560   69.1680  226.7410 C   0  0  0  0  0  0  0  0  0  0  0  0
  140.0950   69.6330  227.9130 C   0  0  0  0  0  0  0  0  0  0  0  0
  139.9390   68.9100  229.0690 F   0  0  0  0  0  0  0  0  0  0  0  0
  140.7990   70.8160  227.9880 C   0  0  0  0  0  0  0  0  0  0  0  0
  140.9610   71.5540  226.8330 C   0  0  0  0  0  0  0  0  0  0  0  0
  140.4200   71.0890  225.6510 C   0  0  0  0  0  0  0  0  0  0  0  0
  140.5930   71.8270  224.5370 N   0  0  0  0  0  0  0  0  0  0  0  0
  139.5730   74.0470  223.1060 H   0  0  0  0  0  0  0  0  0  0  0  0
  140.7079   74.0400  220.2625 H   0  0  0  0  0  0  0  0  0  0  0  0
  139.1631   74.8725  220.6512 H   0  0  0  0  0  0  0  0  0  0  0  0
  143.6737   75.6374  220.3819 H   0  0  0  0  0  0  0  0  0  0  0  0
  142.3044   74.7929  219.6012 H   0  0  0  0  0  0  0  0  0  0  0  0
  143.8745   77.1784  218.7155 H   0  0  0  0  0  0  0  0  0  0  0  0
  143.0895   75.8297  217.7613 H   0  0  0  0  0  0  0  0  0  0  0  0
  142.2139   78.1180  217.3894 H   0  0  0  0  0  0  0  0  0  0  0  0
  141.0349   76.7733  217.9135 H   0  0  0  0  0  0  0  0  0  0  0  0
  141.4678   79.3815  219.0104 H   0  0  0  0  0  0  0  0  0  0  0  0
  140.1702   78.1829  219.2828 H   0  0  0  0  0  0  0  0  0  0  0  0
  142.9638   78.1926  220.6023 H   0  0  0  0  0  0  0  0  0  0  0  0
  139.4188   78.6902  221.5331 H   0  0  0  0  0  0  0  0  0  0  0  0
  138.9632   80.2075  223.4163 H   0  0  0  0  0  0  0  0  0  0  0  0
  140.8665   81.2353  224.6922 H   0  0  0  0  0  0  0  0  0  0  0  0
  143.1929   80.6673  224.0063 H   0  0  0  0  0  0  0  0  0  0  0  0
  143.6196   79.1710  222.1455 H   0  0  0  0  0  0  0  0  0  0  0  0
  138.9978   69.9750  222.2661 H   0  0  0  0  0  0  0  0  0  0  0  0
  138.6374   68.5562  224.2905 H   0  0  0  0  0  0  0  0  0  0  0  0
  139.0008   68.2185  226.7236 H   0  0  0  0  0  0  0  0  0  0  0  0
  141.2204   71.1625  228.9431 H   0  0  0  0  0  0  0  0  0  0  0  0
  141.5158   72.5036  226.8540 H   0  0  0  0  0  0  0  0  0  0  0  0
  1  2  2  0
  2  3  1  0
  3  4  1  0
  4  5  1  0
  5  6  2  0
  5  7  1  0
  7  8  1  0
  8  9  1  0
  9 10  1  0
 10 11  1  0
 11 12  1  0
 12 13  1  0
 13 14  2  0
 14 15  1  0
 15 16  2  0
 16 17  1  0
 17 18  2  0
  2 19  1  0
 19 20  2  0
 20 21  1  0
 21 22  2  0
 22 23  1  0
 23 24  2  0
 24 25  1  0
 24 26  1  0
 26 27  2  0
 27 28  1  0
 28 29  2  0
 12  7  1  0
 18 13  1  0
 29 19  1  0
 28 22  1  0
  3 30  1  0
  4 31  1  0
  4 32  1  0
  8 33  1  0
  8 34  1  0
  9 35  1  0
  9 36  1  0
 10 37  1  0
 10 38  1  0
 11 39  1  0
 11 40  1  0
 12 41  1  6
 14 42  1  0
 15 43  1  0
 16 44  1  0
 17 45  1  0
 18 46  1  0
 20 47  1  0
 21 48  1  0
 23 49  1  0
 26 50  1  0
 27 51  1  0
M  END
>  <smiles>  (67) 
O=C(NCC(=O)N1CCCCC1c1ccccc1)c1ccc2cc(F)ccc2n1

>  <score_type>  (67) 
oracle

>  <origin>  (67) 
autodockgpu

>  <m_score__min__energy>  (67) 
-9.2599999999999998

>  <m_primary>  (67) 
energy

>  <rmsd>  (67) 
2.089928385512965

>  <m_score__min__rmsd>  (67) 
2.089928385512965

>  <meeko>  (67) 
{"free_energy": -9.07, "intermolecular_energy": -10.56, "internal_energy": -1.71, "cluster_size": 23, "cluster_id": 1, "rank_in_cluster": 10}

>  <energy>  (67) 
-8.94

>  <cluster_rmsd>  (67) 
0.48

>  <cluster>  (67) 
1

$$$$

     RDKit          3D

 51 54  0  0  0  0  0  0  0  0999 V2000
  138.6950   70.6800  221.4890 O   0  0  0  0  0  0  0  0  0  0  0  0
  139.1620   71.2310  222.5150 C   0  0  0  0  0  0  0  0  0  0  0  0
  139.4870   72.6190  222.5690 N   0  0  0  0  0  0  0  0  0  0  0  0
  139.2790   73.4850  221.3860 C   0  0  0  0  0  0  0  0  0  0  0  0
  140.4230   74.3940  221.2340 C   0  0  0  0  0  0  0  0  0  0  0  0
  141.0560   74.6750  222.3200 O   0  0  0  0  0  0  0  0  0  0  0  0
  140.9150   74.9890  220.0690 N   0  0  0  0  0  0  0  0  0  0  0  0
  139.8800   75.4240  219.0940 C   0  0  0  0  0  0  0  0  0  0  0  0
  140.3680   76.6780  218.4070 C   0  0  0  0  0  0  0  0  0  0  0  0
  141.3190   77.4790  219.2260 C   0  0  0  0  0  0  0  0  0  0  0  0
  142.4390   76.7690  219.8880 C   0  0  0  0  0  0  0  0  0  0  0  0
  142.2460   75.2760  219.6800 C   0  0  1  0  0  0  0  0  0  0  0  0
  143.3310   74.4300  220.1200 C   0  0  0  0  0  0  0  0  0  0  0  0
  144.5970   74.8770  220.4620 C   0  0  0  0  0  0  0  0  0  0  0  0
  145.6090   74.0150  220.8410 C   0  0  0  0  0  0  0  0  0  0  0  0
  145.3760   72.6430  220.8880 C   0  0  0  0  0  0  0  0  0  0  0  0
  144.1130   72.1940  220.5470 C   0  0  0  0  0  0  0  0  0  0  0  0
  143.1320   73.0580  220.1770 C   0  0  0  0  0  0  0  0  0  0  0  0
  139.3910   70.4210  223.7230 C   0  0  0  0  0  0  0  0  0  0  0  0
  138.9950   69.0970  223.7520 C   0  0  0  0  0  0  0  0  0  0  0  0
  139.2080   68.3220  224.8950 C   0  0  0  0  0  0  0  0  0  0  0  0
  139.8170   68.8870  225.9990 C   0  0  0  0  0  0  0  0  0  0  0  0
  140.0570   68.1850  227.1570 C   0  0  0  0  0  0  0  0  0  0  0  0
  140.6670   68.8150  228.2120 C   0  0  0  0  0  0  0  0  0  0  0  0
  140.9100   68.1220  229.3710 F   0  0  0  0  0  0  0  0  0  0  0  0
  141.0540   70.1370  228.1630 C   0  0  0  0  0  0  0  0  0  0  0  0
  140.8140   70.8450  227.0030 C   0  0  0  0  0  0  0  0  0  0  0  0
  140.2010   70.2150  225.9390 C   0  0  0  0  0  0  0  0  0  0  0  0
  139.9790   70.9280  224.8180 N   0  0  0  0  0  0  0  0  0  0  0  0
  139.8710   73.0010  223.4550 H   0  0  0  0  0  0  0  0  0  0  0  0
  139.1863   72.8594  220.4860 H   0  0  0  0  0  0  0  0  0  0  0  0
  138.3598   74.0738  221.5212 H   0  0  0  0  0  0  0  0  0  0  0  0
  139.7159   74.6320  218.3485 H   0  0  0  0  0  0  0  0  0  0  0  0
  138.9313   75.6231  219.6140 H   0  0  0  0  0  0  0  0  0  0  0  0
  140.8726   76.3884  217.4734 H   0  0  0  0  0  0  0  0  0  0  0  0
  139.4858   77.3106  218.2292 H   0  0  0  0  0  0  0  0  0  0  0  0
  141.7597   78.2394  218.5645 H   0  0  0  0  0  0  0  0  0  0  0  0
  140.7089   77.8630  220.0568 H   0  0  0  0  0  0  0  0  0  0  0  0
  143.3944   77.0860  219.4446 H   0  0  0  0  0  0  0  0  0  0  0  0
  142.4543   77.0034  220.9626 H   0  0  0  0  0  0  0  0  0  0  0  0
  142.3373   74.9893  218.6219 H   0  0  0  0  0  0  0  0  0  0  0  0
  144.8043   75.9568  220.4308 H   0  0  0  0  0  0  0  0  0  0  0  0
  146.5995   74.4134  221.1058 H   0  0  0  0  0  0  0  0  0  0  0  0
  146.1686   71.9408  221.1859 H   0  0  0  0  0  0  0  0  0  0  0  0
  143.8985   71.1155  220.5760 H   0  0  0  0  0  0  0  0  0  0  0  0
  142.1432   72.6549  219.9128 H   0  0  0  0  0  0  0  0  0  0  0  0
  138.5099   68.6513  222.8711 H   0  0  0  0  0  0  0  0  0  0  0  0
  138.8927   67.2684  224.9157 H   0  0  0  0  0  0  0  0  0  0  0  0
  139.7626   67.1281  227.2366 H   0  0  0  0  0  0  0  0  0  0  0  0
  141.5412   70.6150  229.0256 H   0  0  0  0  0  0  0  0  0  0  0  0
  141.1086   71.9021  226.9271 H   0  0  0  0  0  0  0  0  0  0  0  0
  1  2  2  0
  2  3  1  0
  3  4  1  0
  4  5  1  0
  5  6  2  0
  5  7  1  0
  7  8  1  0
  8  9  1  0
  9 10  1  0
 10 11  1  0
 11 12  1  0
 12 13  1  0
 13 14  2  0
 14 15  1  0
 15 16  2  0
 16 17  1  0
 17 18  2  0
  2 19  1  0
 19 20  2  0
 20 21  1  0
 21 22  2  0
 22 23  1  0
 23 24  2  0
 24 25  1  0
 24 26  1  0
 26 27  2  0
 27 28  1  0
 28 29  2  0
 12  7  1  0
 18 13  1  0
 29 19  1  0
 28 22  1  0
  3 30  1  0
  4 31  1  0
  4 32  1  0
  8 33  1  0
  8 34  1  0
  9 35  1  0
  9 36  1  0
 10 37  1  0
 10 38  1  0
 11 39  1  0
 11 40  1  0
 12 41  1  6
 14 42  1  0
 15 43  1  0
 16 44  1  0
 17 45  1  0
 18 46  1  0
 20 47  1  0
 21 48  1  0
 23 49  1  0
 26 50  1  0
 27 51  1  0
M  END
>  <smiles>  (68) 
O=C(NCC(=O)N1CCCCC1c1ccccc1)c1ccc2cc(F)ccc2n1

>  <score_type>  (68) 
oracle

>  <origin>  (68) 
autodockgpu

>  <m_score__min__energy>  (68) 
-9.2599999999999998

>  <m_primary>  (68) 
energy

>  <rmsd>  (68) 
1.5022240859171223

>  <m_score__min__rmsd>  (68) 
1.5022240859171223

>  <meeko>  (68) 
{"free_energy": -8.08, "intermolecular_energy": -9.57, "internal_energy": -2.1, "cluster_size": 15, "cluster_id": 3, "rank_in_cluster": 13}

>  <energy>  (68) 
-8.89

>  <cluster_rmsd>  (68) 
0.39

>  <cluster>  (68) 
1

$$$$

     RDKit          3D

 51 54  0  0  0  0  0  0  0  0999 V2000
  141.2150   72.2710  221.3480 O   0  0  0  0  0  0  0  0  0  0  0  0
  140.3780   72.5960  222.2250 C   0  0  0  0  0  0  0  0  0  0  0  0
  139.6400   73.8160  222.1770 N   0  0  0  0  0  0  0  0  0  0  0  0
  139.8360   74.7680  221.0600 C   0  0  0  0  0  0  0  0  0  0  0  0
  140.8080   75.7970  221.4550 C   0  0  0  0  0  0  0  0  0  0  0  0
  140.8750   76.0400  222.7180 O   0  0  0  0  0  0  0  0  0  0  0  0
  141.6690   76.5410  220.6440 N   0  0  0  0  0  0  0  0  0  0  0  0
  142.5570   75.7390  219.7600 C   0  0  0  0  0  0  0  0  0  0  0  0
  142.7590   76.5010  218.4700 C   0  0  0  0  0  0  0  0  0  0  0  0
  141.6370   77.4200  218.1340 C   0  0  0  0  0  0  0  0  0  0  0  0
  141.1240   78.3130  219.2000 C   0  0  0  0  0  0  0  0  0  0  0  0
  141.8110   77.9430  220.5030 C   0  0  1  0  0  0  0  0  0  0  0  0
  141.5530   78.8160  221.6260 C   0  0  0  0  0  0  0  0  0  0  0  0
  142.5290   79.3990  222.4170 C   0  0  0  0  0  0  0  0  0  0  0  0
  142.2220   80.1960  223.5040 C   0  0  0  0  0  0  0  0  0  0  0  0
  140.8930   80.4380  223.8390 C   0  0  0  0  0  0  0  0  0  0  0  0
  139.9160   79.8570  223.0500 C   0  0  0  0  0  0  0  0  0  0  0  0
  140.2390   79.0760  221.9860 C   0  0  0  0  0  0  0  0  0  0  0  0
  140.1390   71.6890  223.3600 C   0  0  0  0  0  0  0  0  0  0  0  0
  139.3790   70.5490  223.1840 C   0  0  0  0  0  0  0  0  0  0  0  0
  139.1470   69.6840  224.2570 C   0  0  0  0  0  0  0  0  0  0  0  0
  139.6830   69.9750  225.4960 C   0  0  0  0  0  0  0  0  0  0  0  0
  139.4960   69.1690  226.5960 C   0  0  0  0  0  0  0  0  0  0  0  0
  140.0600   69.5240  227.7950 C   0  0  0  0  0  0  0  0  0  0  0  0
  139.8770   68.7270  228.8960 F   0  0  0  0  0  0  0  0  0  0  0  0
  140.8160   70.6670  227.9490 C   0  0  0  0  0  0  0  0  0  0  0  0
  141.0050   71.4780  226.8490 C   0  0  0  0  0  0  0  0  0  0  0  0
  140.4400   71.1240  225.6400 C   0  0  0  0  0  0  0  0  0  0  0  0
  140.6400   71.9320  224.5820 N   0  0  0  0  0  0  0  0  0  0  0  0
  138.9660   74.0140  222.9420 H   0  0  0  0  0  0  0  0  0  0  0  0
  140.2129   74.2269  220.1795 H   0  0  0  0  0  0  0  0  0  0  0  0
  138.8764   75.2465  220.8148 H   0  0  0  0  0  0  0  0  0  0  0  0
  143.5271   75.5798  220.2535 H   0  0  0  0  0  0  0  0  0  0  0  0
  142.1007   74.7597  219.5534 H   0  0  0  0  0  0  0  0  0  0  0  0
  143.6800   77.0959  218.5590 H   0  0  0  0  0  0  0  0  0  0  0  0
  142.8160   75.7558  217.6628 H   0  0  0  0  0  0  0  0  0  0  0  0
  141.9757   78.0603  217.3062 H   0  0  0  0  0  0  0  0  0  0  0  0
  140.7935   76.7513  217.9073 H   0  0  0  0  0  0  0  0  0  0  0  0
  141.3458   79.3602  218.9468 H   0  0  0  0  0  0  0  0  0  0  0  0
  140.0346   78.1976  219.2996 H   0  0  0  0  0  0  0  0  0  0  0  0
  142.8904   78.1533  220.4758 H   0  0  0  0  0  0  0  0  0  0  0  0
  143.5865   79.2215  222.1715 H   0  0  0  0  0  0  0  0  0  0  0  0
  143.0294   80.6396  224.1051 H   0  0  0  0  0  0  0  0  0  0  0  0
  140.6287   81.0688  224.7005 H   0  0  0  0  0  0  0  0  0  0  0  0
  138.8564   80.0309  223.2889 H   0  0  0  0  0  0  0  0  0  0  0  0
  139.4285   78.6337  221.3881 H   0  0  0  0  0  0  0  0  0  0  0  0
  138.9546   70.3210  222.1951 H   0  0  0  0  0  0  0  0  0  0  0  0
  138.5411   68.7769  224.1154 H   0  0  0  0  0  0  0  0  0  0  0  0
  138.8996   68.2483  226.5143 H   0  0  0  0  0  0  0  0  0  0  0  0
  141.2567   70.9253  228.9232 H   0  0  0  0  0  0  0  0  0  0  0  0
  141.6007   72.3988  226.9345 H   0  0  0  0  0  0  0  0  0  0  0  0
  1  2  2  0
  2  3  1  0
  3  4  1  0
  4  5  1  0
  5  6  2  0
  5  7  1  0
  7  8  1  0
  8  9  1  0
  9 10  1  0
 10 11  1  0
 11 12  1  0
 12 13  1  0
 13 14  2  0
 14 15  1  0
 15 16  2  0
 16 17  1  0
 17 18  2  0
  2 19  1  0
 19 20  2  0
 20 21  1  0
 21 22  2  0
 22 23  1  0
 23 24  2  0
 24 25  1  0
 24 26  1  0
 26 27  2  0
 27 28  1  0
 28 29  2  0
 12  7  1  0
 18 13  1  0
 29 19  1  0
 28 22  1  0
  3 30  1  0
  4 31  1  0
  4 32  1  0
  8 33  1  0
  8 34  1  0
  9 35  1  0
  9 36  1  0
 10 37  1  0
 10 38  1  0
 11 39  1  0
 11 40  1  0
 12 41  1  6
 14 42  1  0
 15 43  1  0
 16 44  1  0
 17 45  1  0
 18 46  1  0
 20 47  1  0
 21 48  1  0
 23 49  1  0
 26 50  1  0
 27 51  1  0
M  END
>  <smiles>  (69) 
O=C(NCC(=O)N1CCCCC1c1ccccc1)c1ccc2cc(F)ccc2n1

>  <score_type>  (69) 
oracle

>  <origin>  (69) 
autodockgpu

>  <m_score__min__energy>  (69) 
-9.2599999999999998

>  <m_primary>  (69) 
energy

>  <rmsd>  (69) 
2.0424908758551807

>  <m_score__min__rmsd>  (69) 
2.0424908758551807

>  <meeko>  (69) 
{"free_energy": -8.96, "intermolecular_energy": -10.45, "internal_energy": -1.51, "cluster_size": 23, "cluster_id": 1, "rank_in_cluster": 16}

>  <energy>  (69) 
-8.8

>  <cluster_rmsd>  (69) 
0.56

>  <cluster>  (69) 
1

$$$$

     RDKit          3D

 51 54  0  0  0  0  0  0  0  0999 V2000
  136.2840   76.9630  221.7640 O   0  0  0  0  0  0  0  0  0  0  0  0
  136.6830   75.9680  222.4160 C   0  0  0  0  0  0  0  0  0  0  0  0
  137.9440   75.3440  222.1810 N   0  0  0  0  0  0  0  0  0  0  0  0
  138.8540   75.8610  221.1330 C   0  0  0  0  0  0  0  0  0  0  0  0
  140.2390   75.4950  221.4580 C   0  0  0  0  0  0  0  0  0  0  0  0
  140.3740   74.5000  222.2660 O   0  0  0  0  0  0  0  0  0  0  0  0
  141.4250   76.0790  221.0060 N   0  0  0  0  0  0  0  0  0  0  0  0
  142.4350   75.1280  220.4700 C   0  0  0  0  0  0  0  0  0  0  0  0
  143.1770   75.8060  219.3410 C   0  0  0  0  0  0  0  0  0  0  0  0
  142.3860   76.8630  218.6520 C   0  0  0  0  0  0  0  0  0  0  0  0
  141.6740   77.8580  219.4900 C   0  0  0  0  0  0  0  0  0  0  0  0
  141.8090   77.4410  220.9440 C   0  0  1  0  0  0  0  0  0  0  0  0
  141.3120   78.3810  221.9220 C   0  0  0  0  0  0  0  0  0  0  0  0
  139.9800   78.7260  222.0840 C   0  0  0  0  0  0  0  0  0  0  0  0
  139.5660   79.6620  223.0120 C   0  0  0  0  0  0  0  0  0  0  0  0
  140.4990   80.2990  223.8260 C   0  0  0  0  0  0  0  0  0  0  0  0
  141.8290   79.9560  223.6660 C   0  0  0  0  0  0  0  0  0  0  0  0
  142.2160   79.0340  222.7480 C   0  0  0  0  0  0  0  0  0  0  0  0
  135.8220   75.4100  223.4720 C   0  0  0  0  0  0  0  0  0  0  0  0
  135.7040   74.0400  223.6130 C   0  0  0  0  0  0  0  0  0  0  0  0
  134.8870   73.5030  224.6110 C   0  0  0  0  0  0  0  0  0  0  0  0
  134.1980   74.3490  225.4590 C   0  0  0  0  0  0  0  0  0  0  0  0
  133.3780   73.8900  226.4630 C   0  0  0  0  0  0  0  0  0  0  0  0
  132.7260   74.7930  227.2650 C   0  0  0  0  0  0  0  0  0  0  0  0
  131.9050   74.3440  228.2680 F   0  0  0  0  0  0  0  0  0  0  0  0
  132.8580   76.1560  227.1070 C   0  0  0  0  0  0  0  0  0  0  0  0
  133.6800   76.6200  226.1000 C   0  0  0  0  0  0  0  0  0  0  0  0
  134.3380   75.7160  225.2920 C   0  0  0  0  0  0  0  0  0  0  0  0
  135.1350   76.1940  224.3170 N   0  0  0  0  0  0  0  0  0  0  0  0
  138.2030   74.5230  222.7620 H   0  0  0  0  0  0  0  0  0  0  0  0
  138.5786   75.4249  220.1614 H   0  0  0  0  0  0  0  0  0  0  0  0
  138.7680   76.9565  221.0828 H   0  0  0  0  0  0  0  0  0  0  0  0
  143.1423   74.8500  221.2653 H   0  0  0  0  0  0  0  0  0  0  0  0
  141.9391   74.2172  220.1031 H   0  0  0  0  0  0  0  0  0  0  0  0
  144.0877   76.2664  219.7516 H   0  0  0  0  0  0  0  0  0  0  0  0
  143.3981   75.0314  218.5919 H   0  0  0  0  0  0  0  0  0  0  0  0
  143.0784   77.4183  218.0023 H   0  0  0  0  0  0  0  0  0  0  0  0
  141.5841   76.3138  218.1369 H   0  0  0  0  0  0  0  0  0  0  0  0
  142.1200   78.8531  219.3455 H   0  0  0  0  0  0  0  0  0  0  0  0
  140.6123   77.9026  219.2056 H   0  0  0  0  0  0  0  0  0  0  0  0
  142.8504   77.4947  221.2941 H   0  0  0  0  0  0  0  0  0  0  0  0
  139.2249   78.2371  221.4510 H   0  0  0  0  0  0  0  0  0  0  0  0
  138.4974   79.9045  223.1080 H   0  0  0  0  0  0  0  0  0  0  0  0
  140.1892   81.0481  224.5696 H   0  0  0  0  0  0  0  0  0  0  0  0
  142.5895   80.4406  224.2960 H   0  0  0  0  0  0  0  0  0  0  0  0
  143.2859   78.7956  222.6554 H   0  0  0  0  0  0  0  0  0  0  0  0
  136.2554   73.3701  222.9369 H   0  0  0  0  0  0  0  0  0  0  0  0
  134.7927   72.4126  224.7211 H   0  0  0  0  0  0  0  0  0  0  0  0
  133.2459   72.8096  226.6218 H   0  0  0  0  0  0  0  0  0  0  0  0
  132.3225   76.8553  227.7659 H   0  0  0  0  0  0  0  0  0  0  0  0
  133.8093   77.7011  225.9431 H   0  0  0  0  0  0  0  0  0  0  0  0
  1  2  2  0
  2  3  1  0
  3  4  1  0
  4  5  1  0
  5  6  2  0
  5  7  1  0
  7  8  1  0
  8  9  1  0
  9 10  1  0
 10 11  1  0
 11 12  1  0
 12 13  1  0
 13 14  2  0
 14 15  1  0
 15 16  2  0
 16 17  1  0
 17 18  2  0
  2 19  1  0
 19 20  2  0
 20 21  1  0
 21 22  2  0
 22 23  1  0
 23 24  2  0
 24 25  1  0
 24 26  1  0
 26 27  2  0
 27 28  1  0
 28 29  2  0
 12  7  1  0
 18 13  1  0
 29 19  1  0
 28 22  1  0
  3 30  1  0
  4 31  1  0
  4 32  1  0
  8 33  1  0
  8 34  1  0
  9 35  1  0
  9 36  1  0
 10 37  1  0
 10 38  1  0
 11 39  1  0
 11 40  1  0
 12 41  1  1
 14 42  1  0
 15 43  1  0
 16 44  1  0
 17 45  1  0
 18 46  1  0
 20 47  1  0
 21 48  1  0
 23 49  1  0
 26 50  1  0
 27 51  1  0
M  END
>  <smiles>  (70) 
O=C(NCC(=O)N1CCCCC1c1ccccc1)c1ccc2cc(F)ccc2n1

>  <score_type>  (70) 
oracle

>  <origin>  (70) 
autodockgpu

>  <m_score__min__energy>  (70) 
-9.2599999999999998

>  <m_primary>  (70) 
energy

>  <rmsd>  (70) 
5.824648691801663

>  <m_score__min__rmsd>  (70) 
5.824648691801663

>  <meeko>  (70) 
{"free_energy": -7.57, "intermolecular_energy": -9.06, "internal_energy": -1.94, "cluster_size": 4, "cluster_id": 5, "rank_in_cluster": 3}

>  <energy>  (70) 
-8.75

>  <cluster_rmsd>  (70) 
0.56

>  <cluster>  (70) 
1

$$$$

     RDKit          3D

 51 54  0  0  0  0  0  0  0  0999 V2000
  139.5600   71.3240  221.0480 O   0  0  0  0  0  0  0  0  0  0  0  0
  139.5870   71.8810  222.1720 C   0  0  0  0  0  0  0  0  0  0  0  0
  139.5310   73.2970  222.3370 N   0  0  0  0  0  0  0  0  0  0  0  0
  139.4350   74.1860  221.1580 C   0  0  0  0  0  0  0  0  0  0  0  0
  140.7330   74.8330  220.9200 C   0  0  0  0  0  0  0  0  0  0  0  0
  141.4390   75.0610  221.9730 O   0  0  0  0  0  0  0  0  0  0  0  0
  141.3020   75.2270  219.7070 N   0  0  0  0  0  0  0  0  0  0  0  0
  140.3370   75.6920  218.6760 C   0  0  0  0  0  0  0  0  0  0  0  0
  140.9920   76.7880  217.8680 C   0  0  0  0  0  0  0  0  0  0  0  0
  142.0440   77.5350  218.6110 C   0  0  0  0  0  0  0  0  0  0  0  0
  143.0560   76.7530  219.3610 C   0  0  0  0  0  0  0  0  0  0  0  0
  142.6610   75.2870  219.3090 C   0  0  1  0  0  0  0  0  0  0  0  0
  143.6190   74.3530  219.8530 C   0  0  0  0  0  0  0  0  0  0  0  0
  143.4490   72.9790  219.8970 C   0  0  0  0  0  0  0  0  0  0  0  0
  144.3840   72.1350  220.4650 C   0  0  0  0  0  0  0  0  0  0  0  0
  145.5480   72.6570  221.0220 C   0  0  0  0  0  0  0  0  0  0  0  0
  145.7200   74.0290  220.9800 C   0  0  0  0  0  0  0  0  0  0  0  0
  144.7890   74.8410  220.4170 C   0  0  0  0  0  0  0  0  0  0  0  0
  139.6820   71.0480  223.3830 C   0  0  0  0  0  0  0  0  0  0  0  0
  139.2100   69.7490  223.3660 C   0  0  0  0  0  0  0  0  0  0  0  0
  139.2950   68.9530  224.5110 C   0  0  0  0  0  0  0  0  0  0  0  0
  139.8560   69.4720  225.6620 C   0  0  0  0  0  0  0  0  0  0  0  0
  139.9720   68.7460  226.8250 C   0  0  0  0  0  0  0  0  0  0  0  0
  140.5410   69.3300  227.9290 C   0  0  0  0  0  0  0  0  0  0  0  0
  140.6600   68.6130  229.0930 F   0  0  0  0  0  0  0  0  0  0  0  0
  141.0060   70.6270  227.9240 C   0  0  0  0  0  0  0  0  0  0  0  0
  140.8910   71.3590  226.7600 C   0  0  0  0  0  0  0  0  0  0  0  0
  140.3200   70.7750  225.6470 C   0  0  0  0  0  0  0  0  0  0  0  0
  140.2190   71.5100  224.5230 N   0  0  0  0  0  0  0  0  0  0  0  0
  139.5600   73.6810  223.3010 H   0  0  0  0  0  0  0  0  0  0  0  0
  139.1542   73.5934  220.2748 H   0  0  0  0  0  0  0  0  0  0  0  0
  138.6719   74.9563  221.3431 H   0  0  0  0  0  0  0  0  0  0  0  0
  140.0669   74.8547  218.0157 H   0  0  0  0  0  0  0  0  0  0  0  0
  139.4240   76.0722  219.1576 H   0  0  0  0  0  0  0  0  0  0  0  0
  141.4519   76.3348  216.9774 H   0  0  0  0  0  0  0  0  0  0  0  0
  140.2045   77.5123  217.6126 H   0  0  0  0  0  0  0  0  0  0  0  0
  142.5849   78.1528  217.8791 H   0  0  0  0  0  0  0  0  0  0  0  0
  141.4927   78.0860  219.3872 H   0  0  0  0  0  0  0  0  0  0  0  0
  144.0460   76.8879  218.9010 H   0  0  0  0  0  0  0  0  0  0  0  0
  143.1024   77.0961  220.4051 H   0  0  0  0  0  0  0  0  0  0  0  0
  142.7134   74.8798  218.2885 H   0  0  0  0  0  0  0  0  0  0  0  0
  142.5363   72.5439  219.4639 H   0  0  0  0  0  0  0  0  0  0  0  0
  144.2083   71.0492  220.4770 H   0  0  0  0  0  0  0  0  0  0  0  0
  146.3041   72.0019  221.4793 H   0  0  0  0  0  0  0  0  0  0  0  0
  146.6300   74.4712  221.4117 H   0  0  0  0  0  0  0  0  0  0  0  0
  144.9689   75.9262  220.4076 H   0  0  0  0  0  0  0  0  0  0  0  0
  138.7654   69.3401  222.4467 H   0  0  0  0  0  0  0  0  0  0  0  0
  138.9177   67.9198  224.4962 H   0  0  0  0  0  0  0  0  0  0  0  0
  139.6121   67.7075  226.8695 H   0  0  0  0  0  0  0  0  0  0  0  0
  141.4574   71.0677  228.8251 H   0  0  0  0  0  0  0  0  0  0  0  0
  141.2508   72.3977  226.7193 H   0  0  0  0  0  0  0  0  0  0  0  0
  1  2  2  0
  2  3  1  0
  3  4  1  0
  4  5  1  0
  5  6  2  0
  5  7  1  0
  7  8  1  0
  8  9  1  0
  9 10  1  0
 10 11  1  0
 11 12  1  0
 12 13  1  0
 13 14  2  0
 14 15  1  0
 15 16  2  0
 16 17  1  0
 17 18  2  0
  2 19  1  0
 19 20  2  0
 20 21  1  0
 21 22  2  0
 22 23  1  0
 23 24  2  0
 24 25  1  0
 24 26  1  0
 26 27  2  0
 27 28  1  0
 28 29  2  0
 12  7  1  0
 18 13  1  0
 29 19  1  0
 28 22  1  0
  3 30  1  0
  4 31  1  0
  4 32  1  0
  8 33  1  0
  8 34  1  0
  9 35  1  0
  9 36  1  0
 10 37  1  0
 10 38  1  0
 11 39  1  0
 11 40  1  0
 12 41  1  6
 14 42  1  0
 15 43  1  0
 16 44  1  0
 17 45  1  0
 18 46  1  0
 20 47  1  0
 21 48  1  0
 23 49  1  0
 26 50  1  0
 27 51  1  0
M  END
>  <smiles>  (71) 
O=C(NCC(=O)N1CCCCC1c1ccccc1)c1ccc2cc(F)ccc2n1

>  <score_type>  (71) 
oracle

>  <origin>  (71) 
autodockgpu

>  <m_score__min__energy>  (71) 
-9.2599999999999998

>  <m_primary>  (71) 
energy

>  <rmsd>  (71) 
1.6097576585467217

>  <m_score__min__rmsd>  (71) 
1.6097576585467217

>  <meeko>  (71) 
{"free_energy": -8.3, "intermolecular_energy": -9.79, "internal_energy": -1.88, "cluster_size": 15, "cluster_id": 3, "rank_in_cluster": 4}

>  <energy>  (71) 
-8.04

>  <cluster_rmsd>  (71) 
1.72

>  <cluster>  (71) 
1

$$$$

     RDKit          3D

 51 54  0  0  0  0  0  0  0  0999 V2000
  141.0200   71.8850  221.2840 O   0  0  0  0  0  0  0  0  0  0  0  0
  140.2740   72.2910  222.2090 C   0  0  0  0  0  0  0  0  0  0  0  0
  139.5820   73.5360  222.1550 N   0  0  0  0  0  0  0  0  0  0  0  0
  139.7190   74.4210  220.9750 C   0  0  0  0  0  0  0  0  0  0  0  0
  140.3000   75.7060  221.3870 C   0  0  0  0  0  0  0  0  0  0  0  0
  139.6510   76.3390  222.3020 O   0  0  0  0  0  0  0  0  0  0  0  0
  141.4620   76.3270  220.9210 N   0  0  0  0  0  0  0  0  0  0  0  0
  142.4960   75.4090  220.3750 C   0  0  0  0  0  0  0  0  0  0  0  0
  143.2030   76.1100  219.2380 C   0  0  0  0  0  0  0  0  0  0  0  0
  142.3710   77.1400  218.5570 C   0  0  0  0  0  0  0  0  0  0  0  0
  141.6360   78.1120  219.4020 C   0  0  0  0  0  0  0  0  0  0  0  0
  141.8010   77.7010  220.8550 C   0  0  1  0  0  0  0  0  0  0  0  0
  141.2840   78.6250  221.8370 C   0  0  0  0  0  0  0  0  0  0  0  0
  140.2590   79.5290  221.6130 C   0  0  0  0  0  0  0  0  0  0  0  0
  139.8310   80.4180  222.5810 C   0  0  0  0  0  0  0  0  0  0  0  0
  140.4340   80.4280  223.8350 C   0  0  0  0  0  0  0  0  0  0  0  0
  141.4580   79.5260  224.0620 C   0  0  0  0  0  0  0  0  0  0  0  0
  141.8640   78.6610  223.0980 C   0  0  0  0  0  0  0  0  0  0  0  0
  140.0990   71.4540  223.4080 C   0  0  0  0  0  0  0  0  0  0  0  0
  139.4470   70.2390  223.3130 C   0  0  0  0  0  0  0  0  0  0  0  0
  139.2750   69.4410  224.4460 C   0  0  0  0  0  0  0  0  0  0  0  0
  139.7620   69.8730  225.6660 C   0  0  0  0  0  0  0  0  0  0  0  0
  139.6290   69.1400  226.8220 C   0  0  0  0  0  0  0  0  0  0  0  0
  140.1380   69.6350  227.9950 C   0  0  0  0  0  0  0  0  0  0  0  0
  140.0090   68.9100  229.1530 F   0  0  0  0  0  0  0  0  0  0  0  0
  140.7860   70.8500  228.0680 C   0  0  0  0  0  0  0  0  0  0  0  0
  140.9210   71.5890  226.9110 C   0  0  0  0  0  0  0  0  0  0  0  0
  140.4100   71.0940  225.7280 C   0  0  0  0  0  0  0  0  0  0  0  0
  140.5550   71.8340  224.6120 N   0  0  0  0  0  0  0  0  0  0  0  0
  138.9840   73.8030  222.9610 H   0  0  0  0  0  0  0  0  0  0  0  0
  140.3761   73.9432  220.2334 H   0  0  0  0  0  0  0  0  0  0  0  0
  138.7274   74.5941  220.5313 H   0  0  0  0  0  0  0  0  0  0  0  0
  143.2205   75.1548  221.1627 H   0  0  0  0  0  0  0  0  0  0  0  0
  142.0263   74.4821  220.0141 H   0  0  0  0  0  0  0  0  0  0  0  0
  144.1026   76.6002  219.6386 H   0  0  0  0  0  0  0  0  0  0  0  0
  143.4410   75.3424  218.4869 H   0  0  0  0  0  0  0  0  0  0  0  0
  143.0381   77.7170  217.8997 H   0  0  0  0  0  0  0  0  0  0  0  0
  141.5819   76.5647  218.0507 H   0  0  0  0  0  0  0  0  0  0  0  0
  142.0473   79.1211  219.2518 H   0  0  0  0  0  0  0  0  0  0  0  0
  140.5704   78.1215  219.1294 H   0  0  0  0  0  0  0  0  0  0  0  0
  142.8436   77.7887  221.1946 H   0  0  0  0  0  0  0  0  0  0  0  0
  139.7676   79.5399  220.6289 H   0  0  0  0  0  0  0  0  0  0  0  0
  139.0124   81.1187  222.3597 H   0  0  0  0  0  0  0  0  0  0  0  0
  140.1080   81.1283  224.6181 H   0  0  0  0  0  0  0  0  0  0  0  0
  141.9534   79.5094  225.0440 H   0  0  0  0  0  0  0  0  0  0  0  0
  142.6831   77.9625  223.3242 H   0  0  0  0  0  0  0  0  0  0  0  0
  139.0618   69.8990  222.3404 H   0  0  0  0  0  0  0  0  0  0  0  0
  138.7553   68.4746  224.3685 H   0  0  0  0  0  0  0  0  0  0  0  0
  139.1190   68.1655  226.8058 H   0  0  0  0  0  0  0  0  0  0  0  0
  141.1849   71.2203  229.0239 H   0  0  0  0  0  0  0  0  0  0  0  0
  141.4310   72.5634  226.9309 H   0  0  0  0  0  0  0  0  0  0  0  0
  1  2  2  0
  2  3  1  0
  3  4  1  0
  4  5  1  0
  5  6  2  0
  5  7  1  0
  7  8  1  0
  8  9  1  0
  9 10  1  0
 10 11  1  0
 11 12  1  0
 12 13  1  0
 13 14  2  0
 14 15  1  0
 15 16  2  0
 16 17  1  0
 17 18  2  0
  2 19  1  0
 19 20  2  0
 20 21  1  0
 21 22  2  0
 22 23  1  0
 23 24  2  0
 24 25  1  0
 24 26  1  0
 26 27  2  0
 27 28  1  0
 28 29  2  0
 12  7  1  0
 18 13  1  0
 29 19  1  0
 28 22  1  0
  3 30  1  0
  4 31  1  0
  4 32  1  0
  8 33  1  0
  8 34  1  0
  9 35  1  0
  9 36  1  0
 10 37  1  0
 10 38  1  0
 11 39  1  0
 11 40  1  0
 12 41  1  1
 14 42  1  0
 15 43  1  0
 16 44  1  0
 17 45  1  0
 18 46  1  0
 20 47  1  0
 21 48  1  0
 23 49  1  0
 26 50  1  0
 27 51  1  0
M  END
>  <smiles>  (72) 
O=C(NCC(=O)N1CCCCC1c1ccccc1)c1ccc2cc(F)ccc2n1

>  <score_type>  (72) 
oracle

>  <origin>  (72) 
autodockgpu

>  <m_score__min__energy>  (72) 
-9.2599999999999998

>  <m_primary>  (72) 
energy

>  <rmsd>  (72) 
2.064416212517093

>  <m_score__min__rmsd>  (72) 
2.064416212517093

>  <meeko>  (72) 
{"free_energy": -8.89, "intermolecular_energy": -10.38, "internal_energy": -1.51, "cluster_size": 23, "cluster_id": 1, "rank_in_cluster": 18}

>  <energy>  (72) 
-7.99

>  <cluster_rmsd>  (72) 
1.54

>  <cluster>  (72) 
1

$$$$

     RDKit          3D

 51 54  0  0  0  0  0  0  0  0999 V2000
  138.8900   70.9740  221.1830 O   0  0  0  0  0  0  0  0  0  0  0  0
  139.2080   71.5480  222.2530 C   0  0  0  0  0  0  0  0  0  0  0  0
  139.3760   72.9600  222.3530 N   0  0  0  0  0  0  0  0  0  0  0  0
  139.1760   73.8260  221.1690 C   0  0  0  0  0  0  0  0  0  0  0  0
  140.1770   74.9010  221.1690 C   0  0  0  0  0  0  0  0  0  0  0  0
  140.5430   75.3180  222.3310 O   0  0  0  0  0  0  0  0  0  0  0  0
  140.7870   75.5260  220.0770 N   0  0  0  0  0  0  0  0  0  0  0  0
  139.8580   76.2160  219.1430 C   0  0  0  0  0  0  0  0  0  0  0  0
  140.5550   77.4400  218.5960 C   0  0  0  0  0  0  0  0  0  0  0  0
  141.5980   77.9930  219.5030 C   0  0  0  0  0  0  0  0  0  0  0  0
  142.5760   77.0490  220.0970 C   0  0  0  0  0  0  0  0  0  0  0  0
  142.1570   75.6360  219.7330 C   0  0  1  0  0  0  0  0  0  0  0  0
  143.0830   74.5870  220.0930 C   0  0  0  0  0  0  0  0  0  0  0  0
  142.7250   73.2870  220.4070 C   0  0  0  0  0  0  0  0  0  0  0  0
  143.6520   72.3340  220.7820 C   0  0  0  0  0  0  0  0  0  0  0  0
  145.0020   72.6650  220.8570 C   0  0  0  0  0  0  0  0  0  0  0  0
  145.3630   73.9630  220.5440 C   0  0  0  0  0  0  0  0  0  0  0  0
  144.4360   74.8850  220.1780 C   0  0  0  0  0  0  0  0  0  0  0  0
  139.4210   70.7390  223.4650 C   0  0  0  0  0  0  0  0  0  0  0  0
  139.0160   69.4180  223.4930 C   0  0  0  0  0  0  0  0  0  0  0  0
  139.2130   68.6450  224.6400 C   0  0  0  0  0  0  0  0  0  0  0  0
  139.8160   69.2090  225.7480 C   0  0  0  0  0  0  0  0  0  0  0  0
  140.0420   68.5080  226.9100 C   0  0  0  0  0  0  0  0  0  0  0  0
  140.6470   69.1360  227.9680 C   0  0  0  0  0  0  0  0  0  0  0  0
  140.8760   68.4450  229.1310 F   0  0  0  0  0  0  0  0  0  0  0  0
  141.0440   70.4550  227.9190 C   0  0  0  0  0  0  0  0  0  0  0  0
  140.8190   71.1620  226.7560 C   0  0  0  0  0  0  0  0  0  0  0  0
  140.2110   70.5340  225.6880 C   0  0  0  0  0  0  0  0  0  0  0  0
  140.0030   71.2450  224.5630 N   0  0  0  0  0  0  0  0  0  0  0  0
  139.6420   73.3600  223.2740 H   0  0  0  0  0  0  0  0  0  0  0  0
  139.2841   73.2253  220.2538 H   0  0  0  0  0  0  0  0  0  0  0  0
  138.1683   74.2657  221.2045 H   0  0  0  0  0  0  0  0  0  0  0  0
  139.5912   75.5401  218.3172 H   0  0  0  0  0  0  0  0  0  0  0  0
  138.9386   76.5086  219.6713 H   0  0  0  0  0  0  0  0  0  0  0  0
  141.0323   77.1702  217.6424 H   0  0  0  0  0  0  0  0  0  0  0  0
  139.7878   78.2193  218.4771 H   0  0  0  0  0  0  0  0  0  0  0  0
  142.1692   78.7376  218.9291 H   0  0  0  0  0  0  0  0  0  0  0  0
  141.0349   78.3829  220.3637 H   0  0  0  0  0  0  0  0  0  0  0  0
  143.5802   77.2537  219.6974 H   0  0  0  0  0  0  0  0  0  0  0  0
  142.6004   77.1671  221.1904 H   0  0  0  0  0  0  0  0  0  0  0  0
  142.2310   75.4482  218.6517 H   0  0  0  0  0  0  0  0  0  0  0  0
  141.6636   73.0026  220.3560 H   0  0  0  0  0  0  0  0  0  0  0  0
  143.3229   71.3121  221.0217 H   0  0  0  0  0  0  0  0  0  0  0  0
  145.7551   71.9206  221.1547 H   0  0  0  0  0  0  0  0  0  0  0  0
  146.4226   74.2542  220.5926 H   0  0  0  0  0  0  0  0  0  0  0  0
  144.7695   75.9059  219.9400 H   0  0  0  0  0  0  0  0  0  0  0  0
  138.5365   68.9733  222.6085 H   0  0  0  0  0  0  0  0  0  0  0  0
  138.8900   67.5937  224.6609 H   0  0  0  0  0  0  0  0  0  0  0  0
  139.7401   67.4532  226.9895 H   0  0  0  0  0  0  0  0  0  0  0  0
  141.5276   70.9314  228.7846 H   0  0  0  0  0  0  0  0  0  0  0  0
  141.1215   72.2169  226.6805 H   0  0  0  0  0  0  0  0  0  0  0  0
  1  2  2  0
  2  3  1  0
  3  4  1  0
  4  5  1  0
  5  6  2  0
  5  7  1  0
  7  8  1  0
  8  9  1  0
  9 10  1  0
 10 11  1  0
 11 12  1  0
 12 13  1  0
 13 14  2  0
 14 15  1  0
 15 16  2  0
 16 17  1  0
 17 18  2  0
  2 19  1  0
 19 20  2  0
 20 21  1  0
 21 22  2  0
 22 23  1  0
 23 24  2  0
 24 25  1  0
 24 26  1  0
 26 27  2  0
 27 28  1  0
 28 29  2  0
 12  7  1  0
 18 13  1  0
 29 19  1  0
 28 22  1  0
  3 30  1  0
  4 31  1  0
  4 32  1  0
  8 33  1  0
  8 34  1  0
  9 35  1  0
  9 36  1  0
 10 37  1  0
 10 38  1  0
 11 39  1  0
 11 40  1  0
 12 41  1  6
 14 42  1  0
 15 43  1  0
 16 44  1  0
 17 45  1  0
 18 46  1  0
 20 47  1  0
 21 48  1  0
 23 49  1  0
 26 50  1  0
 27 51  1  0
M  END
>  <smiles>  (73) 
O=C(NCC(=O)N1CCCCC1c1ccccc1)c1ccc2cc(F)ccc2n1

>  <score_type>  (73) 
oracle

>  <origin>  (73) 
autodockgpu

>  <m_score__min__energy>  (73) 
-9.2599999999999998

>  <m_primary>  (73) 
energy

>  <rmsd>  (73) 
1.550150583488294

>  <m_score__min__rmsd>  (73) 
1.550150583488294

>  <meeko>  (73) 
{"free_energy": -8.19, "intermolecular_energy": -9.68, "internal_energy": -2.13, "cluster_size": 15, "cluster_id": 3, "rank_in_cluster": 8}

>  <energy>  (73) 
-7.81

>  <cluster_rmsd>  (73) 
1.85

>  <cluster>  (73) 
1

$$$$

     RDKit          3D

 51 54  0  0  0  0  0  0  0  0999 V2000
  140.7540   71.6490  221.1010 O   0  0  0  0  0  0  0  0  0  0  0  0
  140.3000   72.1690  222.1490 C   0  0  0  0  0  0  0  0  0  0  0  0
  139.9370   73.5450  222.2360 N   0  0  0  0  0  0  0  0  0  0  0  0
  140.0850   74.4360  221.0620 C   0  0  0  0  0  0  0  0  0  0  0  0
  139.7460   75.8140  221.4430 C   0  0  0  0  0  0  0  0  0  0  0  0
  139.6920   76.0410  222.7100 O   0  0  0  0  0  0  0  0  0  0  0  0
  139.4790   76.9080  220.6150 N   0  0  0  0  0  0  0  0  0  0  0  0
  139.0320   76.5660  219.2390 C   0  0  0  0  0  0  0  0  0  0  0  0
  138.0430   77.6140  218.7840 C   0  0  0  0  0  0  0  0  0  0  0  0
  137.3100   78.2720  219.9010 C   0  0  0  0  0  0  0  0  0  0  0  0
  138.0960   78.7550  221.0610 C   0  0  0  0  0  0  0  0  0  0  0  0
  139.5340   78.2970  220.8870 C   0  0  1  0  0  0  0  0  0  0  0  0
  140.4840   78.8120  221.8460 C   0  0  0  0  0  0  0  0  0  0  0  0
  141.7980   79.1450  221.5590 C   0  0  0  0  0  0  0  0  0  0  0  0
  142.6750   79.5980  222.5270 C   0  0  0  0  0  0  0  0  0  0  0  0
  142.2490   79.7350  223.8450 C   0  0  0  0  0  0  0  0  0  0  0  0
  140.9380   79.4040  224.1340 C   0  0  0  0  0  0  0  0  0  0  0  0
  140.0920   78.9600  223.1680 C   0  0  0  0  0  0  0  0  0  0  0  0
  140.1300   71.3330  223.3490 C   0  0  0  0  0  0  0  0  0  0  0  0
  139.5420   70.0870  223.2450 C   0  0  0  0  0  0  0  0  0  0  0  0
  139.3760   69.2890  224.3790 C   0  0  0  0  0  0  0  0  0  0  0  0
  139.8050   69.7520  225.6080 C   0  0  0  0  0  0  0  0  0  0  0  0
  139.6740   69.0200  226.7660 C   0  0  0  0  0  0  0  0  0  0  0  0
  140.1240   69.5470  227.9500 C   0  0  0  0  0  0  0  0  0  0  0  0
  139.9960   68.8250  229.1090 F   0  0  0  0  0  0  0  0  0  0  0  0
  140.7090   70.7930  228.0320 C   0  0  0  0  0  0  0  0  0  0  0  0
  140.8410   71.5300  226.8730 C   0  0  0  0  0  0  0  0  0  0  0  0
  140.3900   71.0030  225.6800 C   0  0  0  0  0  0  0  0  0  0  0  0
  140.5320   71.7430  224.5620 N   0  0  0  0  0  0  0  0  0  0  0  0
  139.5690   73.9020  223.1390 H   0  0  0  0  0  0  0  0  0  0  0  0
  141.1246   74.4004  220.7042 H   0  0  0  0  0  0  0  0  0  0  0  0
  139.4084   74.1013  220.2619 H   0  0  0  0  0  0  0  0  0  0  0  0
  139.8973   76.5523  218.5600 H   0  0  0  0  0  0  0  0  0  0  0  0
  138.5600   75.5725  219.2311 H   0  0  0  0  0  0  0  0  0  0  0  0
  138.5896   78.3873  218.2244 H   0  0  0  0  0  0  0  0  0  0  0  0
  137.2921   77.0999  218.1661 H   0  0  0  0  0  0  0  0  0  0  0  0
  136.7824   79.1402  219.4792 H   0  0  0  0  0  0  0  0  0  0  0  0
  136.6702   77.4784  220.3144 H   0  0  0  0  0  0  0  0  0  0  0  0
  138.0582   79.8535  221.1044 H   0  0  0  0  0  0  0  0  0  0  0  0
  137.6799   78.3505  221.9955 H   0  0  0  0  0  0  0  0  0  0  0  0
  140.0179   78.7733  220.0216 H   0  0  0  0  0  0  0  0  0  0  0  0
  142.1563   79.0453  220.5238 H   0  0  0  0  0  0  0  0  0  0  0  0
  143.7106   79.8504  222.2553 H   0  0  0  0  0  0  0  0  0  0  0  0
  142.9315   80.0941  224.6294 H   0  0  0  0  0  0  0  0  0  0  0  0
  140.5726   79.5021  225.1669 H   0  0  0  0  0  0  0  0  0  0  0  0
  139.0575   78.7085  223.4448 H   0  0  0  0  0  0  0  0  0  0  0  0
  139.2030   69.7218  222.2643 H   0  0  0  0  0  0  0  0  0  0  0  0
  138.9066   68.2978  224.2942 H   0  0  0  0  0  0  0  0  0  0  0  0
  139.2128   68.0216  226.7425 H   0  0  0  0  0  0  0  0  0  0  0  0
  141.0611   71.1890  228.9960 H   0  0  0  0  0  0  0  0  0  0  0  0
  141.3016   72.5286  226.8997 H   0  0  0  0  0  0  0  0  0  0  0  0
  1  2  2  0
  2  3  1  0
  3  4  1  0
  4  5  1  0
  5  6  2  0
  5  7  1  0
  7  8  1  0
  8  9  1  0
  9 10  1  0
 10 11  1  0
 11 12  1  0
 12 13  1  0
 13 14  2  0
 14 15  1  0
 15 16  2  0
 16 17  1  0
 17 18  2  0
  2 19  1  0
 19 20  2  0
 20 21  1  0
 21 22  2  0
 22 23  1  0
 23 24  2  0
 24 25  1  0
 24 26  1  0
 26 27  2  0
 27 28  1  0
 28 29  2  0
 12  7  1  0
 18 13  1  0
 29 19  1  0
 28 22  1  0
  3 30  1  0
  4 31  1  0
  4 32  1  0
  8 33  1  0
  8 34  1  0
  9 35  1  0
  9 36  1  0
 10 37  1  0
 10 38  1  0
 11 39  1  0
 11 40  1  0
 12 41  1  6
 14 42  1  0
 15 43  1  0
 16 44  1  0
 17 45  1  0
 18 46  1  0
 20 47  1  0
 21 48  1  0
 23 49  1  0
 26 50  1  0
 27 51  1  0
M  END
>  <smiles>  (74) 
O=C(NCC(=O)N1CCCCC1c1ccccc1)c1ccc2cc(F)ccc2n1

>  <score_type>  (74) 
oracle

>  <origin>  (74) 
autodockgpu

>  <m_score__min__energy>  (74) 
-9.2599999999999998

>  <m_primary>  (74) 
energy

>  <rmsd>  (74) 
2.2551275217397837

>  <m_score__min__rmsd>  (74) 
2.2551275217397837

>  <meeko>  (74) 
{"free_energy": -7.99, "intermolecular_energy": -9.48, "internal_energy": -1.97, "cluster_size": 23, "cluster_id": 1, "rank_in_cluster": 22}

>  <energy>  (74) 
-8.78

>  <cluster_rmsd>  (74) 
0.0

>  <cluster>  (74) 
2

$$$$

     RDKit          3D

 51 54  0  0  0  0  0  0  0  0999 V2000
  140.0440   71.7230  221.0400 O   0  0  0  0  0  0  0  0  0  0  0  0
  139.8930   72.2500  222.1680 C   0  0  0  0  0  0  0  0  0  0  0  0
  139.6810   73.6490  222.3480 N   0  0  0  0  0  0  0  0  0  0  0  0
  139.6290   74.5560  221.1780 C   0  0  0  0  0  0  0  0  0  0  0  0
  140.3390   75.8040  221.4900 C   0  0  0  0  0  0  0  0  0  0  0  0
  139.8290   76.5090  222.4390 O   0  0  0  0  0  0  0  0  0  0  0  0
  141.4930   76.3220  220.8970 N   0  0  0  0  0  0  0  0  0  0  0  0
  142.4160   75.3110  220.3160 C   0  0  0  0  0  0  0  0  0  0  0  0
  143.0650   75.9070  219.0890 C   0  0  0  0  0  0  0  0  0  0  0  0
  142.2450   76.9570  218.4260 C   0  0  0  0  0  0  0  0  0  0  0  0
  141.6490   78.0160  219.2750 C   0  0  0  0  0  0  0  0  0  0  0  0
  141.9120   77.6650  220.7290 C   0  0  1  0  0  0  0  0  0  0  0  0
  141.5420   78.6680  221.7000 C   0  0  0  0  0  0  0  0  0  0  0  0
  141.8460   78.6150  223.0510 C   0  0  0  0  0  0  0  0  0  0  0  0
  141.4320   79.5860  223.9420 C   0  0  0  0  0  0  0  0  0  0  0  0
  140.6790   80.6690  223.4950 C   0  0  0  0  0  0  0  0  0  0  0  0
  140.3740   80.7250  222.1460 C   0  0  0  0  0  0  0  0  0  0  0  0
  140.7910   79.7590  221.2870 C   0  0  0  0  0  0  0  0  0  0  0  0
  139.9350   71.3980  223.3690 C   0  0  0  0  0  0  0  0  0  0  0  0
  139.4970   70.0890  223.3030 C   0  0  0  0  0  0  0  0  0  0  0  0
  139.5330   69.2760  224.4380 C   0  0  0  0  0  0  0  0  0  0  0  0
  140.0090   69.7880  225.6300 C   0  0  0  0  0  0  0  0  0  0  0  0
  140.0730   69.0450  226.7860 C   0  0  0  0  0  0  0  0  0  0  0  0
  140.5580   69.6230  227.9310 C   0  0  0  0  0  0  0  0  0  0  0  0
  140.6240   68.8900  229.0890 F   0  0  0  0  0  0  0  0  0  0  0  0
  140.9900   70.9320  227.9760 C   0  0  0  0  0  0  0  0  0  0  0  0
  140.9270   71.6800  226.8190 C   0  0  0  0  0  0  0  0  0  0  0  0
  140.4400   71.1020  225.6640 C   0  0  0  0  0  0  0  0  0  0  0  0
  140.3890   71.8540  224.5470 N   0  0  0  0  0  0  0  0  0  0  0  0
  139.5660   74.0100  223.3140 H   0  0  0  0  0  0  0  0  0  0  0  0
  140.1070   74.0687  220.3154 H   0  0  0  0  0  0  0  0  0  0  0  0
  138.5798   74.7828  220.9379 H   0  0  0  0  0  0  0  0  0  0  0  0
  143.1883   75.0460  221.0531 H   0  0  0  0  0  0  0  0  0  0  0  0
  141.8587   74.4022  220.0450 H   0  0  0  0  0  0  0  0  0  0  0  0
  144.0253   76.3534  219.3868 H   0  0  0  0  0  0  0  0  0  0  0  0
  143.1877   75.0901  218.3626 H   0  0  0  0  0  0  0  0  0  0  0  0
  142.8883   77.4551  217.6857 H   0  0  0  0  0  0  0  0  0  0  0  0
  141.3800   76.4129  218.0190 H   0  0  0  0  0  0  0  0  0  0  0  0
  142.1093   78.9864  219.0374 H   0  0  0  0  0  0  0  0  0  0  0  0
  140.5666   78.0850  219.0913 H   0  0  0  0  0  0  0  0  0  0  0  0
  142.9836   77.6979  220.9750 H   0  0  0  0  0  0  0  0  0  0  0  0
  142.4388   77.7685  223.4277 H   0  0  0  0  0  0  0  0  0  0  0  0
  141.6975   79.5037  225.0063 H   0  0  0  0  0  0  0  0  0  0  0  0
  140.3389   81.4517  224.1890 H   0  0  0  0  0  0  0  0  0  0  0  0
  139.7820   81.5688  221.7619 H   0  0  0  0  0  0  0  0  0  0  0  0
  140.5231   79.8450  220.2236 H   0  0  0  0  0  0  0  0  0  0  0  0
  139.1183   69.6856  222.3523 H   0  0  0  0  0  0  0  0  0  0  0  0
  139.1845   68.2341  224.3834 H   0  0  0  0  0  0  0  0  0  0  0  0
  139.7383   67.9972  226.7918 H   0  0  0  0  0  0  0  0  0  0  0  0
  141.3746   71.3679  228.9099 H   0  0  0  0  0  0  0  0  0  0  0  0
  141.2618   72.7278  226.8167 H   0  0  0  0  0  0  0  0  0  0  0  0
  1  2  2  0
  2  3  1  0
  3  4  1  0
  4  5  1  0
  5  6  2  0
  5  7  1  0
  7  8  1  0
  8  9  1  0
  9 10  1  0
 10 11  1  0
 11 12  1  0
 12 13  1  0
 13 14  2  0
 14 15  1  0
 15 16  2  0
 16 17  1  0
 17 18  2  0
  2 19  1  0
 19 20  2  0
 20 21  1  0
 21 22  2  0
 22 23  1  0
 23 24  2  0
 24 25  1  0
 24 26  1  0
 26 27  2  0
 27 28  1  0
 28 29  2  0
 12  7  1  0
 18 13  1  0
 29 19  1  0
 28 22  1  0
  3 30  1  0
  4 31  1  0
  4 32  1  0
  8 33  1  0
  8 34  1  0
  9 35  1  0
  9 36  1  0
 10 37  1  0
 10 38  1  0
 11 39  1  0
 11 40  1  0
 12 41  1  6
 14 42  1  0
 15 43  1  0
 16 44  1  0
 17 45  1  0
 18 46  1  0
 20 47  1  0
 21 48  1  0
 23 49  1  0
 26 50  1  0
 27 51  1  0
M  END
>  <smiles>  (75) 
O=C(NCC(=O)N1CCCCC1c1ccccc1)c1ccc2cc(F)ccc2n1

>  <score_type>  (75) 
oracle

>  <origin>  (75) 
autodockgpu

>  <m_score__min__energy>  (75) 
-9.2599999999999998

>  <m_primary>  (75) 
energy

>  <rmsd>  (75) 
1.9640536552441512

>  <m_score__min__rmsd>  (75) 
1.9640536552441512

>  <meeko>  (75) 
{"free_energy": -8.75, "intermolecular_energy": -10.24, "internal_energy": -1.62, "cluster_size": 23, "cluster_id": 1, "rank_in_cluster": 20}

>  <energy>  (75) 
-8.77

>  <cluster_rmsd>  (75) 
0.02

>  <cluster>  (75) 
2

$$$$

     RDKit          3D

 51 54  0  0  0  0  0  0  0  0999 V2000
  141.2950   72.1500  221.4430 O   0  0  0  0  0  0  0  0  0  0  0  0
  140.4620   72.5320  222.3000 C   0  0  0  0  0  0  0  0  0  0  0  0
  139.7610   73.7700  222.1990 N   0  0  0  0  0  0  0  0  0  0  0  0
  139.9950   74.6740  221.0500 C   0  0  0  0  0  0  0  0  0  0  0  0
  140.8300   75.8060  221.4760 C   0  0  0  0  0  0  0  0  0  0  0  0
  140.7170   76.1430  222.7140 O   0  0  0  0  0  0  0  0  0  0  0  0
  141.7310   76.5590  220.7180 N   0  0  0  0  0  0  0  0  0  0  0  0
  142.6740   75.7670  219.8840 C   0  0  0  0  0  0  0  0  0  0  0  0
  142.9450   76.5350  218.6110 C   0  0  0  0  0  0  0  0  0  0  0  0
  141.8370   77.4460  218.2130 C   0  0  0  0  0  0  0  0  0  0  0  0
  141.2560   78.3320  219.2500 C   0  0  0  0  0  0  0  0  0  0  0  0
  141.8700   77.9630  220.5900 C   0  0  1  0  0  0  0  0  0  0  0  0
  141.5410   78.8300  221.6980 C   0  0  0  0  0  0  0  0  0  0  0  0
  140.2540   79.1450  222.1030 C   0  0  0  0  0  0  0  0  0  0  0  0
  139.9980   80.0120  223.1480 C   0  0  0  0  0  0  0  0  0  0  0  0
  141.0530   80.6060  223.8360 C   0  0  0  0  0  0  0  0  0  0  0  0
  142.3390   80.2930  223.4340 C   0  0  0  0  0  0  0  0  0  0  0  0
  142.5690   79.4380  222.4040 C   0  0  0  0  0  0  0  0  0  0  0  0
  140.1860   71.6750  223.4650 C   0  0  0  0  0  0  0  0  0  0  0  0
  139.3800   70.5620  223.3280 C   0  0  0  0  0  0  0  0  0  0  0  0
  139.1130   69.7450  224.4290 C   0  0  0  0  0  0  0  0  0  0  0  0
  139.6610   70.0560  225.6590 C   0  0  0  0  0  0  0  0  0  0  0  0
  139.4410   69.2970  226.7850 C   0  0  0  0  0  0  0  0  0  0  0  0
  140.0190   69.6700  227.9710 C   0  0  0  0  0  0  0  0  0  0  0  0
  139.8040   68.9190  229.1000 F   0  0  0  0  0  0  0  0  0  0  0  0
  140.8220   70.7850  228.0870 C   0  0  0  0  0  0  0  0  0  0  0  0
  141.0440   71.5490  226.9600 C   0  0  0  0  0  0  0  0  0  0  0  0
  140.4640   71.1770  225.7640 C   0  0  0  0  0  0  0  0  0  0  0  0
  140.6970   71.9400  224.6780 N   0  0  0  0  0  0  0  0  0  0  0  0
  139.0870   74.0170  222.9500 H   0  0  0  0  0  0  0  0  0  0  0  0
  140.5076   74.1221  220.2483 H   0  0  0  0  0  0  0  0  0  0  0  0
  139.0304   75.0506  220.6789 H   0  0  0  0  0  0  0  0  0  0  0  0
  143.6151   75.6125  220.4322 H   0  0  0  0  0  0  0  0  0  0  0  0
  142.2370   74.7856  219.6477 H   0  0  0  0  0  0  0  0  0  0  0  0
  143.8542   77.1370  218.7557 H   0  0  0  0  0  0  0  0  0  0  0  0
  143.0556   75.7934  217.8061 H   0  0  0  0  0  0  0  0  0  0  0  0
  142.2178   78.0914  217.4077 H   0  0  0  0  0  0  0  0  0  0  0  0
  141.0135   76.7713  217.9362 H   0  0  0  0  0  0  0  0  0  0  0  0
  141.4837   79.3817  219.0128 H   0  0  0  0  0  0  0  0  0  0  0  0
  140.1636   78.2081  219.2862 H   0  0  0  0  0  0  0  0  0  0  0  0
  142.9474   78.1817  220.6264 H   0  0  0  0  0  0  0  0  0  0  0  0
  139.4050   78.6882  221.5733 H   0  0  0  0  0  0  0  0  0  0  0  0
  138.9599   80.2332  223.4367 H   0  0  0  0  0  0  0  0  0  0  0  0
  140.8701   81.2997  224.6698 H   0  0  0  0  0  0  0  0  0  0  0  0
  143.1929   80.7458  223.9592 H   0  0  0  0  0  0  0  0  0  0  0  0
  143.6088   79.2195  222.1191 H   0  0  0  0  0  0  0  0  0  0  0  0
  138.9462   70.3177  222.3471 H   0  0  0  0  0  0  0  0  0  0  0  0
  138.4703   68.8592  224.3177 H   0  0  0  0  0  0  0  0  0  0  0  0
  138.8073   68.3993  226.7343 H   0  0  0  0  0  0  0  0  0  0  0  0
  141.2734   71.0579  229.0523 H   0  0  0  0  0  0  0  0  0  0  0  0
  141.6776   72.4466  227.0140 H   0  0  0  0  0  0  0  0  0  0  0  0
  1  2  2  0
  2  3  1  0
  3  4  1  0
  4  5  1  0
  5  6  2  0
  5  7  1  0
  7  8  1  0
  8  9  1  0
  9 10  1  0
 10 11  1  0
 11 12  1  0
 12 13  1  0
 13 14  2  0
 14 15  1  0
 15 16  2  0
 16 17  1  0
 17 18  2  0
  2 19  1  0
 19 20  2  0
 20 21  1  0
 21 22  2  0
 22 23  1  0
 23 24  2  0
 24 25  1  0
 24 26  1  0
 26 27  2  0
 27 28  1  0
 28 29  2  0
 12  7  1  0
 18 13  1  0
 29 19  1  0
 28 22  1  0
  3 30  1  0
  4 31  1  0
  4 32  1  0
  8 33  1  0
  8 34  1  0
  9 35  1  0
  9 36  1  0
 10 37  1  0
 10 38  1  0
 11 39  1  0
 11 40  1  0
 12 41  1  6
 14 42  1  0
 15 43  1  0
 16 44  1  0
 17 45  1  0
 18 46  1  0
 20 47  1  0
 21 48  1  0
 23 49  1  0
 26 50  1  0
 27 51  1  0
M  END
>  <smiles>  (76) 
O=C(NCC(=O)N1CCCCC1c1ccccc1)c1ccc2cc(F)ccc2n1

>  <score_type>  (76) 
oracle

>  <origin>  (76) 
autodockgpu

>  <m_score__min__energy>  (76) 
-9.2599999999999998

>  <m_primary>  (76) 
energy

>  <rmsd>  (76) 
2.131614310025344

>  <m_score__min__rmsd>  (76) 
2.131614310025344

>  <meeko>  (76) 
{"free_energy": -9.15, "intermolecular_energy": -10.64, "internal_energy": -1.5, "cluster_size": 23, "cluster_id": 1, "rank_in_cluster": 3}

>  <energy>  (76) 
-8.66

>  <cluster_rmsd>  (76) 
0.15

>  <cluster>  (76) 
2

$$$$

     RDKit          3D

 51 54  0  0  0  0  0  0  0  0999 V2000
  139.0880   70.8810  221.1240 O   0  0  0  0  0  0  0  0  0  0  0  0
  139.3080   71.4790  222.2050 C   0  0  0  0  0  0  0  0  0  0  0  0
  139.3890   72.9000  222.3020 N   0  0  0  0  0  0  0  0  0  0  0  0
  139.2090   73.7450  221.1000 C   0  0  0  0  0  0  0  0  0  0  0  0
  140.1920   74.8370  221.1140 C   0  0  0  0  0  0  0  0  0  0  0  0
  140.5320   75.2610  222.2820 O   0  0  0  0  0  0  0  0  0  0  0  0
  140.8060   75.4720  220.0310 N   0  0  0  0  0  0  0  0  0  0  0  0
  139.8800   76.1500  219.0850 C   0  0  0  0  0  0  0  0  0  0  0  0
  140.5650   77.3850  218.5490 C   0  0  0  0  0  0  0  0  0  0  0  0
  141.5880   77.9520  219.4700 C   0  0  0  0  0  0  0  0  0  0  0  0
  142.5720   77.0230  220.0770 C   0  0  0  0  0  0  0  0  0  0  0  0
  142.1790   75.6030  219.7050 C   0  0  1  0  0  0  0  0  0  0  0  0
  143.1150   74.5680  220.0760 C   0  0  0  0  0  0  0  0  0  0  0  0
  142.7760   73.2550  220.3550 C   0  0  0  0  0  0  0  0  0  0  0  0
  143.7120   72.3150  220.7440 C   0  0  0  0  0  0  0  0  0  0  0  0
  145.0510   72.6730  220.8680 C   0  0  0  0  0  0  0  0  0  0  0  0
  145.3930   73.9840  220.5890 C   0  0  0  0  0  0  0  0  0  0  0  0
  144.4580   74.8930  220.2100 C   0  0  0  0  0  0  0  0  0  0  0  0
  139.4960   70.6910  223.4350 C   0  0  0  0  0  0  0  0  0  0  0  0
  139.0690   69.3780  223.4850 C   0  0  0  0  0  0  0  0  0  0  0  0
  139.2420   68.6250  224.6490 C   0  0  0  0  0  0  0  0  0  0  0  0
  139.8430   69.2010  225.7520 C   0  0  0  0  0  0  0  0  0  0  0  0
  140.0450   68.5190  226.9300 C   0  0  0  0  0  0  0  0  0  0  0  0
  140.6490   69.1590  227.9820 C   0  0  0  0  0  0  0  0  0  0  0  0
  140.8540   68.4870  229.1610 F   0  0  0  0  0  0  0  0  0  0  0  0
  141.0680   70.4710  227.9110 C   0  0  0  0  0  0  0  0  0  0  0  0
  140.8660   71.1580  226.7320 C   0  0  0  0  0  0  0  0  0  0  0  0
  140.2590   70.5180  225.6700 C   0  0  0  0  0  0  0  0  0  0  0  0
  140.0740   71.2100  224.5300 N   0  0  0  0  0  0  0  0  0  0  0  0
  139.5760   73.3200  223.2330 H   0  0  0  0  0  0  0  0  0  0  0  0
  139.3540   73.1333  220.1973 H   0  0  0  0  0  0  0  0  0  0  0  0
  138.1934   74.1675  221.0990 H   0  0  0  0  0  0  0  0  0  0  0  0
  139.6348   75.4714  218.2547 H   0  0  0  0  0  0  0  0  0  0  0  0
  138.9495   76.4283  219.6015 H   0  0  0  0  0  0  0  0  0  0  0  0
  141.0583   77.1242  217.6010 H   0  0  0  0  0  0  0  0  0  0  0  0
  139.7877   78.1528  218.4217 H   0  0  0  0  0  0  0  0  0  0  0  0
  142.1557   78.7052  218.9039 H   0  0  0  0  0  0  0  0  0  0  0  0
  141.0075   78.3322  220.3235 H   0  0  0  0  0  0  0  0  0  0  0  0
  143.5785   77.2435  219.6919 H   0  0  0  0  0  0  0  0  0  0  0  0
  142.5797   77.1402  221.1707 H   0  0  0  0  0  0  0  0  0  0  0  0
  142.2705   75.4181  218.6245 H   0  0  0  0  0  0  0  0  0  0  0  0
  141.7235   72.9486  220.2638 H   0  0  0  0  0  0  0  0  0  0  0  0
  143.3978   71.2823  220.9559 H   0  0  0  0  0  0  0  0  0  0  0  0
  145.8104   71.9396  221.1769 H   0  0  0  0  0  0  0  0  0  0  0  0
  146.4440   74.2967  220.6759 H   0  0  0  0  0  0  0  0  0  0  0  0
  144.7766   75.9250  220.0015 H   0  0  0  0  0  0  0  0  0  0  0  0
  138.5908   68.9236  222.6047 H   0  0  0  0  0  0  0  0  0  0  0  0
  138.9018   67.5796  224.6873 H   0  0  0  0  0  0  0  0  0  0  0  0
  139.7252   67.4710  227.0270 H   0  0  0  0  0  0  0  0  0  0  0  0
  141.5506   70.9568  228.7719 H   0  0  0  0  0  0  0  0  0  0  0  0
  141.1857   72.2064  226.6388 H   0  0  0  0  0  0  0  0  0  0  0  0
  1  2  2  0
  2  3  1  0
  3  4  1  0
  4  5  1  0
  5  6  2  0
  5  7  1  0
  7  8  1  0
  8  9  1  0
  9 10  1  0
 10 11  1  0
 11 12  1  0
 12 13  1  0
 13 14  2  0
 14 15  1  0
 15 16  2  0
 16 17  1  0
 17 18  2  0
  2 19  1  0
 19 20  2  0
 20 21  1  0
 21 22  2  0
 22 23  1  0
 23 24  2  0
 24 25  1  0
 24 26  1  0
 26 27  2  0
 27 28  1  0
 28 29  2  0
 12  7  1  0
 18 13  1  0
 29 19  1  0
 28 22  1  0
  3 30  1  0
  4 31  1  0
  4 32  1  0
  8 33  1  0
  8 34  1  0
  9 35  1  0
  9 36  1  0
 10 37  1  0
 10 38  1  0
 11 39  1  0
 11 40  1  0
 12 41  1  6
 14 42  1  0
 15 43  1  0
 16 44  1  0
 17 45  1  0
 18 46  1  0
 20 47  1  0
 21 48  1  0
 23 49  1  0
 26 50  1  0
 27 51  1  0
M  END
>  <smiles>  (77) 
O=C(NCC(=O)N1CCCCC1c1ccccc1)c1ccc2cc(F)ccc2n1

>  <score_type>  (77) 
oracle

>  <origin>  (77) 
autodockgpu

>  <m_score__min__energy>  (77) 
-9.2599999999999998

>  <m_primary>  (77) 
energy

>  <rmsd>  (77) 
1.5397258569032444

>  <m_score__min__rmsd>  (77) 
1.5397258569032444

>  <meeko>  (77) 
{"free_energy": -8.19, "intermolecular_energy": -9.68, "internal_energy": -2.1, "cluster_size": 15, "cluster_id": 3, "rank_in_cluster": 7}

>  <energy>  (77) 
-8.41

>  <cluster_rmsd>  (77) 
0.0

>  <cluster>  (77) 
3

$$$$

     RDKit          3D

 51 54  0  0  0  0  0  0  0  0999 V2000
  138.8480   70.9870  221.2000 O   0  0  0  0  0  0  0  0  0  0  0  0
  139.1950   71.5600  222.2600 C   0  0  0  0  0  0  0  0  0  0  0  0
  139.3910   72.9700  222.3510 N   0  0  0  0  0  0  0  0  0  0  0  0
  139.1840   73.8340  221.1660 C   0  0  0  0  0  0  0  0  0  0  0  0
  140.1800   74.9140  221.1630 C   0  0  0  0  0  0  0  0  0  0  0  0
  140.5390   75.3400  222.3250 O   0  0  0  0  0  0  0  0  0  0  0  0
  140.7910   75.5350  220.0710 N   0  0  0  0  0  0  0  0  0  0  0  0
  139.8630   76.2200  219.1320 C   0  0  0  0  0  0  0  0  0  0  0  0
  140.5590   77.4440  218.5810 C   0  0  0  0  0  0  0  0  0  0  0  0
  141.6000   78.0020  219.4890 C   0  0  0  0  0  0  0  0  0  0  0  0
  142.5770   77.0620  220.0890 C   0  0  0  0  0  0  0  0  0  0  0  0
  142.1610   75.6470  219.7290 C   0  0  1  0  0  0  0  0  0  0  0  0
  143.0890   74.6010  220.0950 C   0  0  0  0  0  0  0  0  0  0  0  0
  142.7330   73.2990  220.4060 C   0  0  0  0  0  0  0  0  0  0  0  0
  143.6610   72.3490  220.7870 C   0  0  0  0  0  0  0  0  0  0  0  0
  145.0100   72.6850  220.8720 C   0  0  0  0  0  0  0  0  0  0  0  0
  145.3670   73.9850  220.5620 C   0  0  0  0  0  0  0  0  0  0  0  0
  144.4400   74.9040  220.1890 C   0  0  0  0  0  0  0  0  0  0  0  0
  139.4150   70.7540  223.4730 C   0  0  0  0  0  0  0  0  0  0  0  0
  139.0250   69.4280  223.5000 C   0  0  0  0  0  0  0  0  0  0  0  0
  139.2290   68.6570  224.6470 C   0  0  0  0  0  0  0  0  0  0  0  0
  139.8250   69.2270  225.7560 C   0  0  0  0  0  0  0  0  0  0  0  0
  140.0570   68.5280  226.9180 C   0  0  0  0  0  0  0  0  0  0  0  0
  140.6540   69.1630  227.9770 C   0  0  0  0  0  0  0  0  0  0  0  0
  140.8880   68.4740  229.1400 F   0  0  0  0  0  0  0  0  0  0  0  0
  141.0360   70.4870  227.9290 C   0  0  0  0  0  0  0  0  0  0  0  0
  140.8040   71.1910  226.7660 C   0  0  0  0  0  0  0  0  0  0  0  0
  140.2050   70.5560  225.6970 C   0  0  0  0  0  0  0  0  0  0  0  0
  139.9900   71.2660  224.5720 N   0  0  0  0  0  0  0  0  0  0  0  0
  139.6800   73.3700  223.2640 H   0  0  0  0  0  0  0  0  0  0  0  0
  139.2931   73.2329  220.2512 H   0  0  0  0  0  0  0  0  0  0  0  0
  138.1742   74.2687  221.2030 H   0  0  0  0  0  0  0  0  0  0  0  0
  139.5993   75.5403  218.3083 H   0  0  0  0  0  0  0  0  0  0  0  0
  138.9422   76.5133  219.6574 H   0  0  0  0  0  0  0  0  0  0  0  0
  141.0385   77.1716  217.6292 H   0  0  0  0  0  0  0  0  0  0  0  0
  139.7908   78.2216  218.4572 H   0  0  0  0  0  0  0  0  0  0  0  0
  142.1719   78.7448  218.9135 H   0  0  0  0  0  0  0  0  0  0  0  0
  141.0343   78.3947  220.3468 H   0  0  0  0  0  0  0  0  0  0  0  0
  143.5821   77.2665  219.6916 H   0  0  0  0  0  0  0  0  0  0  0  0
  142.5980   77.1841  221.1820 H   0  0  0  0  0  0  0  0  0  0  0  0
  142.2365   75.4561  218.6483 H   0  0  0  0  0  0  0  0  0  0  0  0
  141.6730   73.0110  220.3475 H   0  0  0  0  0  0  0  0  0  0  0  0
  143.3339   71.3257  221.0236 H   0  0  0  0  0  0  0  0  0  0  0  0
  145.7641   71.9436  221.1746 H   0  0  0  0  0  0  0  0  0  0  0  0
  146.4250   74.2805  220.6190 H   0  0  0  0  0  0  0  0  0  0  0  0
  144.7718   75.9258  219.9527 H   0  0  0  0  0  0  0  0  0  0  0  0
  138.5520   68.9781  222.6146 H   0  0  0  0  0  0  0  0  0  0  0  0
  138.9171   67.6023  224.6673 H   0  0  0  0  0  0  0  0  0  0  0  0
  139.7665   67.4700  226.9970 H   0  0  0  0  0  0  0  0  0  0  0  0
  141.5130   70.9689  228.7952 H   0  0  0  0  0  0  0  0  0  0  0  0
  141.0939   72.2495  226.6911 H   0  0  0  0  0  0  0  0  0  0  0  0
  1  2  2  0
  2  3  1  0
  3  4  1  0
  4  5  1  0
  5  6  2  0
  5  7  1  0
  7  8  1  0
  8  9  1  0
  9 10  1  0
 10 11  1  0
 11 12  1  0
 12 13  1  0
 13 14  2  0
 14 15  1  0
 15 16  2  0
 16 17  1  0
 17 18  2  0
  2 19  1  0
 19 20  2  0
 20 21  1  0
 21 22  2  0
 22 23  1  0
 23 24  2  0
 24 25  1  0
 24 26  1  0
 26 27  2  0
 27 28  1  0
 28 29  2  0
 12  7  1  0
 18 13  1  0
 29 19  1  0
 28 22  1  0
  3 30  1  0
  4 31  1  0
  4 32  1  0
  8 33  1  0
  8 34  1  0
  9 35  1  0
  9 36  1  0
 10 37  1  0
 10 38  1  0
 11 39  1  0
 11 40  1  0
 12 41  1  6
 14 42  1  0
 15 43  1  0
 16 44  1  0
 17 45  1  0
 18 46  1  0
 20 47  1  0
 21 48  1  0
 23 49  1  0
 26 50  1  0
 27 51  1  0
M  END
>  <smiles>  (78) 
O=C(NCC(=O)N1CCCCC1c1ccccc1)c1ccc2cc(F)ccc2n1

>  <score_type>  (78) 
oracle

>  <origin>  (78) 
autodockgpu

>  <m_score__min__energy>  (78) 
-9.2599999999999998

>  <m_primary>  (78) 
energy

>  <rmsd>  (78) 
1.550717130620945

>  <m_score__min__rmsd>  (78) 
1.550717130620945

>  <meeko>  (78) 
{"free_energy": -8.17, "intermolecular_energy": -9.66, "internal_energy": -2.13, "cluster_size": 15, "cluster_id": 3, "rank_in_cluster": 11}

>  <energy>  (78) 
-8.38

>  <cluster_rmsd>  (78) 
0.07

>  <cluster>  (78) 
3

$$$$

     RDKit          3D

 51 54  0  0  0  0  0  0  0  0999 V2000
  136.4560   77.5790  222.7310 O   0  0  0  0  0  0  0  0  0  0  0  0
  136.7020   76.3850  223.0260 C   0  0  0  0  0  0  0  0  0  0  0  0
  137.8350   75.6800  222.5220 N   0  0  0  0  0  0  0  0  0  0  0  0
  138.7900   76.3490  221.6090 C   0  0  0  0  0  0  0  0  0  0  0  0
  140.0740   75.6350  221.6280 C   0  0  0  0  0  0  0  0  0  0  0  0
  140.0670   74.5000  222.2370 O   0  0  0  0  0  0  0  0  0  0  0  0
  141.2960   76.0220  221.0730 N   0  0  0  0  0  0  0  0  0  0  0  0
  142.1750   74.9050  220.6360 C   0  0  0  0  0  0  0  0  0  0  0  0
  142.9380   75.3510  219.4100 C   0  0  0  0  0  0  0  0  0  0  0  0
  142.2380   76.3950  218.6130 C   0  0  0  0  0  0  0  0  0  0  0  0
  141.6710   77.5600  219.3350 C   0  0  0  0  0  0  0  0  0  0  0  0
  141.8220   77.3150  220.8270 C   0  0  1  0  0  0  0  0  0  0  0  0
  141.4690   78.4190  221.6890 C   0  0  0  0  0  0  0  0  0  0  0  0
  141.1740   79.7010  221.2550 C   0  0  0  0  0  0  0  0  0  0  0  0
  140.8800   80.7290  222.1300 C   0  0  0  0  0  0  0  0  0  0  0  0
  140.8730   80.4980  223.5030 C   0  0  0  0  0  0  0  0  0  0  0  0
  141.1670   79.2180  223.9390 C   0  0  0  0  0  0  0  0  0  0  0  0
  141.4540   78.2210  223.0620 C   0  0  0  0  0  0  0  0  0  0  0  0
  135.7880   75.6660  223.9300 C   0  0  0  0  0  0  0  0  0  0  0  0
  134.8880   76.3720  224.7050 C   0  0  0  0  0  0  0  0  0  0  0  0
  134.0190   75.6980  225.5660 C   0  0  0  0  0  0  0  0  0  0  0  0
  134.0640   74.3190  225.6390 C   0  0  0  0  0  0  0  0  0  0  0  0
  133.2390   73.5900  226.4640 C   0  0  0  0  0  0  0  0  0  0  0  0
  133.3430   72.2220  226.4820 C   0  0  0  0  0  0  0  0  0  0  0  0
  132.5250   71.4880  227.3030 F   0  0  0  0  0  0  0  0  0  0  0  0
  134.2480   71.5370  225.7000 C   0  0  0  0  0  0  0  0  0  0  0  0
  135.0780   72.2640  224.8720 C   0  0  0  0  0  0  0  0  0  0  0  0
  134.9760   73.6410  224.8500 C   0  0  0  0  0  0  0  0  0  0  0  0
  135.7980   74.3280  224.0330 N   0  0  0  0  0  0  0  0  0  0  0  0
  137.9700   74.6920  222.8120 H   0  0  0  0  0  0  0  0  0  0  0  0
  138.3837   76.3441  220.5868 H   0  0  0  0  0  0  0  0  0  0  0  0
  138.9446   77.3868  221.9392 H   0  0  0  0  0  0  0  0  0  0  0  0
  142.8805   74.6506  221.4407 H   0  0  0  0  0  0  0  0  0  0  0  0
  141.5699   74.0166  220.4025 H   0  0  0  0  0  0  0  0  0  0  0  0
  143.9088   75.7546  219.7336 H   0  0  0  0  0  0  0  0  0  0  0  0
  143.0436   74.4696  218.7605 H   0  0  0  0  0  0  0  0  0  0  0  0
  142.9591   76.7845  217.8793 H   0  0  0  0  0  0  0  0  0  0  0  0
  141.3616   75.8787  218.1943 H   0  0  0  0  0  0  0  0  0  0  0  0
  142.2136   78.4738  219.0512 H   0  0  0  0  0  0  0  0  0  0  0  0
  140.6092   77.6863  219.0768 H   0  0  0  0  0  0  0  0  0  0  0  0
  142.8766   77.2954  221.1391 H   0  0  0  0  0  0  0  0  0  0  0  0
  141.1738   79.9080  220.1747 H   0  0  0  0  0  0  0  0  0  0  0  0
  140.6510   81.7321  221.7411 H   0  0  0  0  0  0  0  0  0  0  0  0
  140.6421   81.3038  224.2153 H   0  0  0  0  0  0  0  0  0  0  0  0
  141.1684   79.0034  225.0179 H   0  0  0  0  0  0  0  0  0  0  0  0
  141.6830   77.2195  223.4552 H   0  0  0  0  0  0  0  0  0  0  0  0
  134.8558   77.4698  224.6436 H   0  0  0  0  0  0  0  0  0  0  0  0
  133.3031   76.2617  226.1822 H   0  0  0  0  0  0  0  0  0  0  0  0
  132.5028   74.0992  227.1033 H   0  0  0  0  0  0  0  0  0  0  0  0
  134.3069   70.4391  225.7352 H   0  0  0  0  0  0  0  0  0  0  0  0
  135.8142   71.7516  224.2352 H   0  0  0  0  0  0  0  0  0  0  0  0
  1  2  2  0
  2  3  1  0
  3  4  1  0
  4  5  1  0
  5  6  2  0
  5  7  1  0
  7  8  1  0
  8  9  1  0
  9 10  1  0
 10 11  1  0
 11 12  1  0
 12 13  1  0
 13 14  2  0
 14 15  1  0
 15 16  2  0
 16 17  1  0
 17 18  2  0
  2 19  1  0
 19 20  2  0
 20 21  1  0
 21 22  2  0
 22 23  1  0
 23 24  2  0
 24 25  1  0
 24 26  1  0
 26 27  2  0
 27 28  1  0
 28 29  2  0
 12  7  1  0
 18 13  1  0
 29 19  1  0
 28 22  1  0
  3 30  1  0
  4 31  1  0
  4 32  1  0
  8 33  1  0
  8 34  1  0
  9 35  1  0
  9 36  1  0
 10 37  1  0
 10 38  1  0
 11 39  1  0
 11 40  1  0
 12 41  1  6
 14 42  1  0
 15 43  1  0
 16 44  1  0
 17 45  1  0
 18 46  1  0
 20 47  1  0
 21 48  1  0
 23 49  1  0
 26 50  1  0
 27 51  1  0
M  END
>  <smiles>  (79) 
O=C(NCC(=O)N1CCCCC1c1ccccc1)c1ccc2cc(F)ccc2n1

>  <score_type>  (79) 
oracle

>  <origin>  (79) 
autodockgpu

>  <m_score__min__energy>  (79) 
-9.2599999999999998

>  <m_primary>  (79) 
energy

>  <rmsd>  (79) 
5.70999123686707

>  <m_score__min__rmsd>  (79) 
5.70999123686707

>  <meeko>  (79) 
{"free_energy": -7.4, "intermolecular_energy": -8.89, "internal_energy": -2.24, "cluster_size": 4, "cluster_id": 5, "rank_in_cluster": 4}

>  <energy>  (79) 
-8.34

>  <cluster_rmsd>  (79) 
0.78

>  <cluster>  (79) 
3

$$$$

     RDKit          3D

 51 54  0  0  0  0  0  0  0  0999 V2000
  136.4480   77.5230  222.8740 O   0  0  0  0  0  0  0  0  0  0  0  0
  136.7250   76.3180  223.0850 C   0  0  0  0  0  0  0  0  0  0  0  0
  137.8940   75.6890  222.5650 N   0  0  0  0  0  0  0  0  0  0  0  0
  138.8510   76.4550  221.7340 C   0  0  0  0  0  0  0  0  0  0  0  0
  140.1090   75.7050  221.6130 C   0  0  0  0  0  0  0  0  0  0  0  0
  140.0920   74.5120  222.0990 O   0  0  0  0  0  0  0  0  0  0  0  0
  141.3160   76.1120  221.0390 N   0  0  0  0  0  0  0  0  0  0  0  0
  142.2050   75.0100  220.5850 C   0  0  0  0  0  0  0  0  0  0  0  0
  142.9420   75.4710  219.3480 C   0  0  0  0  0  0  0  0  0  0  0  0
  142.2130   76.5080  218.5660 C   0  0  0  0  0  0  0  0  0  0  0  0
  141.6410   77.6610  219.3020 C   0  0  0  0  0  0  0  0  0  0  0  0
  141.8180   77.4140  220.7900 C   0  0  1  0  0  0  0  0  0  0  0  0
  141.4620   78.5090  221.6610 C   0  0  0  0  0  0  0  0  0  0  0  0
  141.1420   79.7880  221.2360 C   0  0  0  0  0  0  0  0  0  0  0  0
  140.8460   80.8090  222.1190 C   0  0  0  0  0  0  0  0  0  0  0  0
  140.8630   80.5730  223.4910 C   0  0  0  0  0  0  0  0  0  0  0  0
  141.1820   79.2960  223.9180 C   0  0  0  0  0  0  0  0  0  0  0  0
  141.4700   78.3070  223.0340 C   0  0  0  0  0  0  0  0  0  0  0  0
  135.8100   75.5050  223.9050 C   0  0  0  0  0  0  0  0  0  0  0  0
  135.7630   74.1350  223.7340 C   0  0  0  0  0  0  0  0  0  0  0  0
  134.8970   73.3580  224.5070 C   0  0  0  0  0  0  0  0  0  0  0  0
  134.0870   73.9670  225.4460 C   0  0  0  0  0  0  0  0  0  0  0  0
  133.2120   73.2650  226.2410 C   0  0  0  0  0  0  0  0  0  0  0  0
  132.4390   73.9400  227.1520 C   0  0  0  0  0  0  0  0  0  0  0  0
  131.5630   73.2480  227.9480 F   0  0  0  0  0  0  0  0  0  0  0  0
  132.5030   75.3090  227.3070 C   0  0  0  0  0  0  0  0  0  0  0  0
  133.3790   76.0170  226.5110 C   0  0  0  0  0  0  0  0  0  0  0  0
  134.1580   75.3410  225.5940 C   0  0  0  0  0  0  0  0  0  0  0  0
  135.0060   76.0550  224.8290 N   0  0  0  0  0  0  0  0  0  0  0  0
  138.0530   74.6870  222.7840 H   0  0  0  0  0  0  0  0  0  0  0  0
  138.4218   76.6138  220.7337 H   0  0  0  0  0  0  0  0  0  0  0  0
  139.0496   77.4275  222.2081 H   0  0  0  0  0  0  0  0  0  0  0  0
  142.9269   74.7644  221.3778 H   0  0  0  0  0  0  0  0  0  0  0  0
  141.6099   74.1130  220.3584 H   0  0  0  0  0  0  0  0  0  0  0  0
  143.9119   75.8878  219.6572 H   0  0  0  0  0  0  0  0  0  0  0  0
  143.0505   74.5934  218.6937 H   0  0  0  0  0  0  0  0  0  0  0  0
  142.9160   76.9110  217.8222 H   0  0  0  0  0  0  0  0  0  0  0  0
  141.3377   75.9803  218.1592 H   0  0  0  0  0  0  0  0  0  0  0  0
  142.1659   78.5836  219.0134 H   0  0  0  0  0  0  0  0  0  0  0  0
  140.5734   77.7717  219.0612 H   0  0  0  0  0  0  0  0  0  0  0  0
  142.8773   77.4102  221.0866 H   0  0  0  0  0  0  0  0  0  0  0  0
  141.1228   79.9986  220.1565 H   0  0  0  0  0  0  0  0  0  0  0  0
  140.5965   81.8100  221.7372 H   0  0  0  0  0  0  0  0  0  0  0  0
  140.6312   81.3729  224.2097 H   0  0  0  0  0  0  0  0  0  0  0  0
  141.2026   79.0779  224.9960 H   0  0  0  0  0  0  0  0  0  0  0  0
  141.7191   77.3077  223.4205 H   0  0  0  0  0  0  0  0  0  0  0  0
  136.4103   73.6539  222.9859 H   0  0  0  0  0  0  0  0  0  0  0  0
  134.8602   72.2673  224.3689 H   0  0  0  0  0  0  0  0  0  0  0  0
  133.1323   72.1719  226.1476 H   0  0  0  0  0  0  0  0  0  0  0  0
  131.8715   75.8230  228.0466 H   0  0  0  0  0  0  0  0  0  0  0  0
  133.4560   77.1102  226.6061 H   0  0  0  0  0  0  0  0  0  0  0  0
  1  2  2  0
  2  3  1  0
  3  4  1  0
  4  5  1  0
  5  6  2  0
  5  7  1  0
  7  8  1  0
  8  9  1  0
  9 10  1  0
 10 11  1  0
 11 12  1  0
 12 13  1  0
 13 14  2  0
 14 15  1  0
 15 16  2  0
 16 17  1  0
 17 18  2  0
  2 19  1  0
 19 20  2  0
 20 21  1  0
 21 22  2  0
 22 23  1  0
 23 24  2  0
 24 25  1  0
 24 26  1  0
 26 27  2  0
 27 28  1  0
 28 29  2  0
 12  7  1  0
 18 13  1  0
 29 19  1  0
 28 22  1  0
  3 30  1  0
  4 31  1  0
  4 32  1  0
  8 33  1  0
  8 34  1  0
  9 35  1  0
  9 36  1  0
 10 37  1  0
 10 38  1  0
 11 39  1  0
 11 40  1  0
 12 41  1  6
 14 42  1  0
 15 43  1  0
 16 44  1  0
 17 45  1  0
 18 46  1  0
 20 47  1  0
 21 48  1  0
 23 49  1  0
 26 50  1  0
 27 51  1  0
M  END
>  <smiles>  (80) 
O=C(NCC(=O)N1CCCCC1c1ccccc1)c1ccc2cc(F)ccc2n1

>  <score_type>  (80) 
oracle

>  <origin>  (80) 
autodockgpu

>  <m_score__min__energy>  (80) 
-9.2599999999999998

>  <m_primary>  (80) 
energy

>  <rmsd>  (80) 
5.802534482280122

>  <m_score__min__rmsd>  (80) 
5.802534482280122

>  <meeko>  (80) 
{"free_energy": -7.84, "intermolecular_energy": -9.33, "internal_energy": -1.93, "cluster_size": 4, "cluster_id": 5, "rank_in_cluster": 2}

>  <energy>  (80) 
-8.3

>  <cluster_rmsd>  (80) 
0.81

>  <cluster>  (80) 
3

$$$$

     RDKit          3D

 51 54  0  0  0  0  0  0  0  0999 V2000
  141.2880   72.3520  221.5600 O   0  0  0  0  0  0  0  0  0  0  0  0
  140.3690   72.5410  222.3930 C   0  0  0  0  0  0  0  0  0  0  0  0
  139.4550   73.6320  222.3030 N   0  0  0  0  0  0  0  0  0  0  0  0
  139.5580   74.6080  221.1940 C   0  0  0  0  0  0  0  0  0  0  0  0
  140.3630   75.7590  221.6240 C   0  0  0  0  0  0  0  0  0  0  0  0
  139.9960   76.3090  222.7300 O   0  0  0  0  0  0  0  0  0  0  0  0
  141.4720   76.3320  220.9960 N   0  0  0  0  0  0  0  0  0  0  0  0
  142.4020   75.3680  220.3510 C   0  0  0  0  0  0  0  0  0  0  0  0
  142.9770   76.0150  219.1130 C   0  0  0  0  0  0  0  0  0  0  0  0
  142.0940   77.0520  218.5120 C   0  0  0  0  0  0  0  0  0  0  0  0
  141.5000   78.0690  219.4140 C   0  0  0  0  0  0  0  0  0  0  0  0
  141.8380   77.6920  220.8460 C   0  0  1  0  0  0  0  0  0  0  0  0
  141.4760   78.6580  221.8570 C   0  0  0  0  0  0  0  0  0  0  0  0
  140.2070   79.1830  222.0340 C   0  0  0  0  0  0  0  0  0  0  0  0
  139.9270   80.1350  222.9960 C   0  0  0  0  0  0  0  0  0  0  0  0
  140.9380   80.6020  223.8310 C   0  0  0  0  0  0  0  0  0  0  0  0
  142.2070   80.0800  223.6560 C   0  0  0  0  0  0  0  0  0  0  0  0
  142.4610   79.1450  222.7050 C   0  0  0  0  0  0  0  0  0  0  0  0
  140.2160   71.6030  223.5180 C   0  0  0  0  0  0  0  0  0  0  0  0
  139.5770   70.3930  223.3250 C   0  0  0  0  0  0  0  0  0  0  0  0
  139.4270   69.4980  224.3880 C   0  0  0  0  0  0  0  0  0  0  0  0
  139.9220   69.8300  225.6340 C   0  0  0  0  0  0  0  0  0  0  0  0
  139.8100   68.9990  226.7250 C   0  0  0  0  0  0  0  0  0  0  0  0
  140.3270   69.3980  227.9310 C   0  0  0  0  0  0  0  0  0  0  0  0
  140.2190   68.5750  229.0240 F   0  0  0  0  0  0  0  0  0  0  0  0
  140.9610   70.6100  228.1020 C   0  0  0  0  0  0  0  0  0  0  0  0
  141.0750   71.4470  227.0110 C   0  0  0  0  0  0  0  0  0  0  0  0
  140.5570   71.0490  225.7950 C   0  0  0  0  0  0  0  0  0  0  0  0
  140.6810   71.8840  224.7450 N   0  0  0  0  0  0  0  0  0  0  0  0
  138.7210   73.7210  223.0320 H   0  0  0  0  0  0  0  0  0  0  0  0
  140.0378   74.1288  220.3279 H   0  0  0  0  0  0  0  0  0  0  0  0
  138.5509   74.9506  220.9141 H   0  0  0  0  0  0  0  0  0  0  0  0
  143.2139   75.1123  221.0477 H   0  0  0  0  0  0  0  0  0  0  0  0
  141.8641   74.4473  220.0809 H   0  0  0  0  0  0  0  0  0  0  0  0
  143.9338   76.4870  219.3809 H   0  0  0  0  0  0  0  0  0  0  0  0
  143.0955   75.2203  218.3617 H   0  0  0  0  0  0  0  0  0  0  0  0
  142.6875   77.5901  217.7582 H   0  0  0  0  0  0  0  0  0  0  0  0
  141.2311   76.4886  218.1273 H   0  0  0  0  0  0  0  0  0  0  0  0
  141.9164   79.0604  219.1822 H   0  0  0  0  0  0  0  0  0  0  0  0
  140.4089   78.1044  219.2789 H   0  0  0  0  0  0  0  0  0  0  0  0
  142.9174   77.7558  221.0481 H   0  0  0  0  0  0  0  0  0  0  0  0
  139.3920   78.8295  221.3853 H   0  0  0  0  0  0  0  0  0  0  0  0
  138.9036   80.5242  223.1019 H   0  0  0  0  0  0  0  0  0  0  0  0
  140.7351   81.3592  224.6026 H   0  0  0  0  0  0  0  0  0  0  0  0
  143.0270   80.4296  224.3005 H   0  0  0  0  0  0  0  0  0  0  0  0
  143.4859   78.7589  222.6027 H   0  0  0  0  0  0  0  0  0  0  0  0
  139.1848   70.1332  222.3307 H   0  0  0  0  0  0  0  0  0  0  0  0
  138.9179   68.5352  224.2333 H   0  0  0  0  0  0  0  0  0  0  0  0
  139.3104   68.0236  226.6307 H   0  0  0  0  0  0  0  0  0  0  0  0
  141.3654   70.9022  229.0824 H   0  0  0  0  0  0  0  0  0  0  0  0
  141.5740   72.4223  227.1093 H   0  0  0  0  0  0  0  0  0  0  0  0
  1  2  2  0
  2  3  1  0
  3  4  1  0
  4  5  1  0
  5  6  2  0
  5  7  1  0
  7  8  1  0
  8  9  1  0
  9 10  1  0
 10 11  1  0
 11 12  1  0
 12 13  1  0
 13 14  2  0
 14 15  1  0
 15 16  2  0
 16 17  1  0
 17 18  2  0
  2 19  1  0
 19 20  2  0
 20 21  1  0
 21 22  2  0
 22 23  1  0
 23 24  2  0
 24 25  1  0
 24 26  1  0
 26 27  2  0
 27 28  1  0
 28 29  2  0
 12  7  1  0
 18 13  1  0
 29 19  1  0
 28 22  1  0
  3 30  1  0
  4 31  1  0
  4 32  1  0
  8 33  1  0
  8 34  1  0
  9 35  1  0
  9 36  1  0
 10 37  1  0
 10 38  1  0
 11 39  1  0
 11 40  1  0
 12 41  1  6
 14 42  1  0
 15 43  1  0
 16 44  1  0
 17 45  1  0
 18 46  1  0
 20 47  1  0
 21 48  1  0
 23 49  1  0
 26 50  1  0
 27 51  1  0
M  END
>  <smiles>  (81) 
O=C(NCC(=O)N1CCCCC1c1ccccc1)c1ccc2cc(F)ccc2n1

>  <score_type>  (81) 
oracle

>  <origin>  (81) 
autodockgpu

>  <m_score__min__energy>  (81) 
-9.2599999999999998

>  <m_primary>  (81) 
energy

>  <rmsd>  (81) 
2.0372197625302757

>  <m_score__min__rmsd>  (81) 
2.0372197625302757

>  <meeko>  (81) 
{"free_energy": -9.26, "intermolecular_energy": -10.75, "internal_energy": -1.45, "cluster_size": 23, "cluster_id": 1, "rank_in_cluster": 1}

>  <energy>  (81) 
-8.24

>  <cluster_rmsd>  (81) 
0.8

>  <cluster>  (81) 
3

$$$$

     RDKit          3D

 51 54  0  0  0  0  0  0  0  0999 V2000
  140.5410   71.7480  221.0780 O   0  0  0  0  0  0  0  0  0  0  0  0
  140.1600   72.2690  222.1540 C   0  0  0  0  0  0  0  0  0  0  0  0
  139.8580   73.6580  222.2780 N   0  0  0  0  0  0  0  0  0  0  0  0
  139.9850   74.5600  221.1110 C   0  0  0  0  0  0  0  0  0  0  0  0
  140.6760   75.7920  221.5130 C   0  0  0  0  0  0  0  0  0  0  0  0
  140.3240   76.2790  222.6530 O   0  0  0  0  0  0  0  0  0  0  0  0
  141.6660   76.5020  220.8270 N   0  0  0  0  0  0  0  0  0  0  0  0
  142.6430   75.6650  220.0810 C   0  0  0  0  0  0  0  0  0  0  0  0
  143.0470   76.4080  218.8280 C   0  0  0  0  0  0  0  0  0  0  0  0
  142.0130   77.3570  218.3320 C   0  0  0  0  0  0  0  0  0  0  0  0
  141.3830   78.2750  219.3110 C   0  0  0  0  0  0  0  0  0  0  0  0
  141.8690   77.8980  220.7000 C   0  0  1  0  0  0  0  0  0  0  0  0
  141.4840   78.7890  221.7690 C   0  0  0  0  0  0  0  0  0  0  0  0
  142.3400   79.2750  222.7440 C   0  0  0  0  0  0  0  0  0  0  0  0
  141.9070   80.0950  223.7680 C   0  0  0  0  0  0  0  0  0  0  0  0
  140.5660   80.4630  223.8490 C   0  0  0  0  0  0  0  0  0  0  0  0
  139.7090   79.9790  222.8760 C   0  0  0  0  0  0  0  0  0  0  0  0
  140.1550   79.1740  221.8780 C   0  0  0  0  0  0  0  0  0  0  0  0
  140.0150   71.4220  223.3500 C   0  0  0  0  0  0  0  0  0  0  0  0
  139.4270   70.1760  223.2450 C   0  0  0  0  0  0  0  0  0  0  0  0
  139.2850   69.3670  224.3750 C   0  0  0  0  0  0  0  0  0  0  0  0
  139.7360   69.8190  225.6000 C   0  0  0  0  0  0  0  0  0  0  0  0
  139.6290   69.0770  226.7530 C   0  0  0  0  0  0  0  0  0  0  0  0
  140.1000   69.5940  227.9330 C   0  0  0  0  0  0  0  0  0  0  0  0
  139.9970   68.8610  229.0880 F   0  0  0  0  0  0  0  0  0  0  0  0
  140.6850   70.8400  228.0150 C   0  0  0  0  0  0  0  0  0  0  0  0
  140.7930   71.5880  226.8610 C   0  0  0  0  0  0  0  0  0  0  0  0
  140.3210   71.0710  225.6720 C   0  0  0  0  0  0  0  0  0  0  0  0
  140.4390   71.8210  224.5590 N   0  0  0  0  0  0  0  0  0  0  0  0
  139.5500   74.0140  223.2030 H   0  0  0  0  0  0  0  0  0  0  0  0
  140.5626   74.0575  220.3211 H   0  0  0  0  0  0  0  0  0  0  0  0
  138.9831   74.8103  220.7322 H   0  0  0  0  0  0  0  0  0  0  0  0
  143.5291   75.4815  220.7064 H   0  0  0  0  0  0  0  0  0  0  0  0
  142.1898   74.6978  219.8180 H   0  0  0  0  0  0  0  0  0  0  0  0
  143.9645   76.9758  219.0422 H   0  0  0  0  0  0  0  0  0  0  0  0
  143.1927   75.6533  218.0411 H   0  0  0  0  0  0  0  0  0  0  0  0
  142.4849   77.9791  217.5572 H   0  0  0  0  0  0  0  0  0  0  0  0
  141.1896   76.7122  217.9912 H   0  0  0  0  0  0  0  0  0  0  0  0
  141.6697   79.3128  219.0856 H   0  0  0  0  0  0  0  0  0  0  0  0
  140.2874   78.1921  219.2575 H   0  0  0  0  0  0  0  0  0  0  0  0
  142.9474   78.0758  220.8246 H   0  0  0  0  0  0  0  0  0  0  0  0
  143.4036   78.9977  222.7012 H   0  0  0  0  0  0  0  0  0  0  0  0
  142.6224   80.4579  224.5207 H   0  0  0  0  0  0  0  0  0  0  0  0
  140.2014   81.1145  224.6568 H   0  0  0  0  0  0  0  0  0  0  0  0
  138.6441   80.2523  222.9121 H   0  0  0  0  0  0  0  0  0  0  0  0
  139.4361   78.8133  221.1276 H   0  0  0  0  0  0  0  0  0  0  0  0
  139.0693   69.8197  222.2677 H   0  0  0  0  0  0  0  0  0  0  0  0
  138.8166   68.3754  224.2898 H   0  0  0  0  0  0  0  0  0  0  0  0
  139.1698   68.0777  226.7291 H   0  0  0  0  0  0  0  0  0  0  0  0
  141.0558   71.2273  228.9755 H   0  0  0  0  0  0  0  0  0  0  0  0
  141.2513   72.5876  226.8884 H   0  0  0  0  0  0  0  0  0  0  0  0
  1  2  2  0
  2  3  1  0
  3  4  1  0
  4  5  1  0
  5  6  2  0
  5  7  1  0
  7  8  1  0
  8  9  1  0
  9 10  1  0
 10 11  1  0
 11 12  1  0
 12 13  1  0
 13 14  2  0
 14 15  1  0
 15 16  2  0
 16 17  1  0
 17 18  2  0
  2 19  1  0
 19 20  2  0
 20 21  1  0
 21 22  2  0
 22 23  1  0
 23 24  2  0
 24 25  1  0
 24 26  1  0
 26 27  2  0
 27 28  1  0
 28 29  2  0
 12  7  1  0
 18 13  1  0
 29 19  1  0
 28 22  1  0
  3 30  1  0
  4 31  1  0
  4 32  1  0
  8 33  1  0
  8 34  1  0
  9 35  1  0
  9 36  1  0
 10 37  1  0
 10 38  1  0
 11 39  1  0
 11 40  1  0
 12 41  1  6
 14 42  1  0
 15 43  1  0
 16 44  1  0
 17 45  1  0
 18 46  1  0
 20 47  1  0
 21 48  1  0
 23 49  1  0
 26 50  1  0
 27 51  1  0
M  END
>  <smiles>  (82) 
O=C(NCC(=O)N1CCCCC1c1ccccc1)c1ccc2cc(F)ccc2n1

>  <score_type>  (82) 
oracle

>  <origin>  (82) 
autodockgpu

>  <m_score__min__energy>  (82) 
-9.2599999999999998

>  <m_primary>  (82) 
energy

>  <rmsd>  (82) 
2.0588882327173903

>  <m_score__min__rmsd>  (82) 
2.0588882327173903

>  <meeko>  (82) 
{"free_energy": -8.98, "intermolecular_energy": -10.47, "internal_energy": -1.72, "cluster_size": 23, "cluster_id": 1, "rank_in_cluster": 15}

>  <energy>  (82) 
-8.19

>  <cluster_rmsd>  (82) 
0.85

>  <cluster>  (82) 
3

$$$$

     RDKit          3D

 51 54  0  0  0  0  0  0  0  0999 V2000
  141.1440   72.2650  221.4570 O   0  0  0  0  0  0  0  0  0  0  0  0
  140.2720   72.5000  222.3270 C   0  0  0  0  0  0  0  0  0  0  0  0
  139.3840   73.6130  222.2530 N   0  0  0  0  0  0  0  0  0  0  0  0
  139.4580   74.5580  221.1160 C   0  0  0  0  0  0  0  0  0  0  0  0
  140.2140   75.7530  221.5160 C   0  0  0  0  0  0  0  0  0  0  0  0
  139.7140   76.4220  222.4970 O   0  0  0  0  0  0  0  0  0  0  0  0
  141.4010   76.2560  220.9760 N   0  0  0  0  0  0  0  0  0  0  0  0
  142.3460   75.2310  220.4600 C   0  0  0  0  0  0  0  0  0  0  0  0
  143.0630   75.8050  219.2600 C   0  0  0  0  0  0  0  0  0  0  0  0
  142.2850   76.8490  218.5390 C   0  0  0  0  0  0  0  0  0  0  0  0
  141.6520   77.9240  219.3400 C   0  0  0  0  0  0  0  0  0  0  0  0
  141.8360   77.5940  220.8110 C   0  0  1  0  0  0  0  0  0  0  0  0
  141.4220   78.6140  221.7470 C   0  0  0  0  0  0  0  0  0  0  0  0
  141.7920   78.6630  223.0810 C   0  0  0  0  0  0  0  0  0  0  0  0
  141.3330   79.6430  223.9400 C   0  0  0  0  0  0  0  0  0  0  0  0
  140.4650   80.6290  223.4760 C   0  0  0  0  0  0  0  0  0  0  0  0
  140.0950   80.5820  222.1440 C   0  0  0  0  0  0  0  0  0  0  0  0
  140.5570   79.6100  221.3160 C   0  0  0  0  0  0  0  0  0  0  0  0
  140.1500   71.5950  223.4830 C   0  0  0  0  0  0  0  0  0  0  0  0
  139.5200   70.3730  223.3390 C   0  0  0  0  0  0  0  0  0  0  0  0
  139.3990   69.5100  224.4310 C   0  0  0  0  0  0  0  0  0  0  0  0
  139.9140   69.8840  225.6570 C   0  0  0  0  0  0  0  0  0  0  0  0
  139.8310   69.0850  226.7740 C   0  0  0  0  0  0  0  0  0  0  0  0
  140.3650   69.5260  227.9580 C   0  0  0  0  0  0  0  0  0  0  0  0
  140.2860   68.7360  229.0770 F   0  0  0  0  0  0  0  0  0  0  0  0
  140.9900   70.7490  228.0800 C   0  0  0  0  0  0  0  0  0  0  0  0
  141.0750   71.5530  226.9620 C   0  0  0  0  0  0  0  0  0  0  0  0
  140.5380   71.1140  225.7690 C   0  0  0  0  0  0  0  0  0  0  0  0
  140.6350   71.9180  224.6920 N   0  0  0  0  0  0  0  0  0  0  0  0
  138.6890   73.7410  223.0150 H   0  0  0  0  0  0  0  0  0  0  0  0
  139.9633   74.0719  220.2684 H   0  0  0  0  0  0  0  0  0  0  0  0
  138.4405   74.8521  220.8189 H   0  0  0  0  0  0  0  0  0  0  0  0
  143.0765   74.9725  221.2408 H   0  0  0  0  0  0  0  0  0  0  0  0
  141.7978   74.3214  220.1735 H   0  0  0  0  0  0  0  0  0  0  0  0
  144.0087   76.2510  219.6015 H   0  0  0  0  0  0  0  0  0  0  0  0
  143.2196   74.9766  218.5535 H   0  0  0  0  0  0  0  0  0  0  0  0
  142.9690   77.3323  217.8259 H   0  0  0  0  0  0  0  0  0  0  0  0
  141.4392   76.3033  218.0953 H   0  0  0  0  0  0  0  0  0  0  0  0
  142.1302   78.8881  219.1124 H   0  0  0  0  0  0  0  0  0  0  0  0
  140.5812   77.9958  219.0988 H   0  0  0  0  0  0  0  0  0  0  0  0
  142.8932   77.6256  221.1132 H   0  0  0  0  0  0  0  0  0  0  0  0
  142.4757   77.8942  223.4703 H   0  0  0  0  0  0  0  0  0  0  0  0
  141.6535   79.6447  224.9923 H   0  0  0  0  0  0  0  0  0  0  0  0
  140.0875   81.4165  224.1448 H   0  0  0  0  0  0  0  0  0  0  0  0
  139.4124   81.3479  221.7473 H   0  0  0  0  0  0  0  0  0  0  0  0
  140.2337   79.6121  220.2646 H   0  0  0  0  0  0  0  0  0  0  0  0
  139.1123   70.0789  222.3606 H   0  0  0  0  0  0  0  0  0  0  0  0
  138.8965   68.5383  224.3152 H   0  0  0  0  0  0  0  0  0  0  0  0
  139.3410   68.1018  226.7181 H   0  0  0  0  0  0  0  0  0  0  0  0
  141.4097   71.0750  229.0431 H   0  0  0  0  0  0  0  0  0  0  0  0
  141.5665   72.5353  227.0211 H   0  0  0  0  0  0  0  0  0  0  0  0
  1  2  2  0
  2  3  1  0
  3  4  1  0
  4  5  1  0
  5  6  2  0
  5  7  1  0
  7  8  1  0
  8  9  1  0
  9 10  1  0
 10 11  1  0
 11 12  1  0
 12 13  1  0
 13 14  2  0
 14 15  1  0
 15 16  2  0
 16 17  1  0
 17 18  2  0
  2 19  1  0
 19 20  2  0
 20 21  1  0
 21 22  2  0
 22 23  1  0
 23 24  2  0
 24 25  1  0
 24 26  1  0
 26 27  2  0
 27 28  1  0
 28 29  2  0
 12  7  1  0
 18 13  1  0
 29 19  1  0
 28 22  1  0
  3 30  1  0
  4 31  1  0
  4 32  1  0
  8 33  1  0
  8 34  1  0
  9 35  1  0
  9 36  1  0
 10 37  1  0
 10 38  1  0
 11 39  1  0
 11 40  1  0
 12 41  1  6
 14 42  1  0
 15 43  1  0
 16 44  1  0
 17 45  1  0
 18 46  1  0
 20 47  1  0
 21 48  1  0
 23 49  1  0
 26 50  1  0
 27 51  1  0
M  END
>  <smiles>  (83) 
O=C(NCC(=O)N1CCCCC1c1ccccc1)c1ccc2cc(F)ccc2n1

>  <score_type>  (83) 
oracle

>  <origin>  (83) 
autodockgpu

>  <m_score__min__energy>  (83) 
-9.2599999999999998

>  <m_primary>  (83) 
energy

>  <rmsd>  (83) 
2.017406802508638

>  <m_score__min__rmsd>  (83) 
2.017406802508638

>  <meeko>  (83) 
{"free_energy": -8.99, "intermolecular_energy": -10.48, "internal_energy": -1.48, "cluster_size": 23, "cluster_id": 1, "rank_in_cluster": 13}

>  <energy>  (83) 
-8.19

>  <cluster_rmsd>  (83) 
0.84

>  <cluster>  (83) 
3

$$$$

     RDKit          3D

 51 54  0  0  0  0  0  0  0  0999 V2000
  134.7210   68.9550  225.3580 O   0  0  0  0  0  0  0  0  0  0  0  0
  134.9600   70.1490  225.0580 C   0  0  0  0  0  0  0  0  0  0  0  0
  135.9430   70.5240  224.0940 N   0  0  0  0  0  0  0  0  0  0  0  0
  136.7380   69.4910  223.3920 C   0  0  0  0  0  0  0  0  0  0  0  0
  138.0090   69.2830  224.0980 C   0  0  0  0  0  0  0  0  0  0  0  0
  137.9470   68.5290  225.1410 O   0  0  0  0  0  0  0  0  0  0  0  0
  139.2730   69.7900  223.7860 N   0  0  0  0  0  0  0  0  0  0  0  0
  139.5600   69.9270  222.3330 C   0  0  0  0  0  0  0  0  0  0  0  0
  140.4360   71.1420  222.1320 C   0  0  0  0  0  0  0  0  0  0  0  0
  140.2720   72.1810  223.1860 C   0  0  0  0  0  0  0  0  0  0  0  0
  140.2880   71.7460  224.6030 C   0  0  0  0  0  0  0  0  0  0  0  0
  140.3190   70.2280  224.6360 C   0  0  1  0  0  0  0  0  0  0  0  0
  140.5000   69.6260  225.9360 C   0  0  0  0  0  0  0  0  0  0  0  0
  140.9590   68.3380  226.1560 C   0  0  0  0  0  0  0  0  0  0  0  0
  141.0760   67.8000  227.4240 C   0  0  0  0  0  0  0  0  0  0  0  0
  140.7240   68.5560  228.5380 C   0  0  0  0  0  0  0  0  0  0  0  0
  140.2650   69.8430  228.3210 C   0  0  0  0  0  0  0  0  0  0  0  0
  140.1580   70.3530  227.0670 C   0  0  0  0  0  0  0  0  0  0  0  0
  134.2010   71.2220  225.7230 C   0  0  0  0  0  0  0  0  0  0  0  0
  133.1670   70.9040  226.5830 C   0  0  0  0  0  0  0  0  0  0  0  0
  132.4420   71.9160  227.2170 C   0  0  0  0  0  0  0  0  0  0  0  0
  132.7640   73.2390  226.9790 C   0  0  0  0  0  0  0  0  0  0  0  0
  132.0930   74.2860  227.5670 C   0  0  0  0  0  0  0  0  0  0  0  0
  132.4710   75.5730  227.2810 C   0  0  0  0  0  0  0  0  0  0  0  0
  131.8070   76.6230  227.8630 F   0  0  0  0  0  0  0  0  0  0  0  0
  133.5060   75.8680  226.4200 C   0  0  0  0  0  0  0  0  0  0  0  0
  134.1810   74.8210  225.8270 C   0  0  0  0  0  0  0  0  0  0  0  0
  133.8040   73.5240  226.1120 C   0  0  0  0  0  0  0  0  0  0  0  0
  134.4800   72.5190  225.5210 N   0  0  0  0  0  0  0  0  0  0  0  0
  136.0830   71.5350  223.9010 H   0  0  0  0  0  0  0  0  0  0  0  0
  136.1733   68.5473  223.3691 H   0  0  0  0  0  0  0  0  0  0  0  0
  136.9417   69.8233  222.3634 H   0  0  0  0  0  0  0  0  0  0  0  0
  140.0819   69.0288  221.9711 H   0  0  0  0  0  0  0  0  0  0  0  0
  138.6210   70.0411  221.7715 H   0  0  0  0  0  0  0  0  0  0  0  0
  141.4864   70.8155  222.1271 H   0  0  0  0  0  0  0  0  0  0  0  0
  140.1339   71.6012  221.1792 H   0  0  0  0  0  0  0  0  0  0  0  0
  141.0878   72.9078  223.0581 H   0  0  0  0  0  0  0  0  0  0  0  0
  139.2551   72.5707  223.0306 H   0  0  0  0  0  0  0  0  0  0  0  0
  141.1807   72.1472  225.1051 H   0  0  0  0  0  0  0  0  0  0  0  0
  139.3932   72.1180  225.1235 H   0  0  0  0  0  0  0  0  0  0  0  0
  141.2552   69.8234  224.2238 H   0  0  0  0  0  0  0  0  0  0  0  0
  141.2407   67.7206  225.2903 H   0  0  0  0  0  0  0  0  0  0  0  0
  141.4479   66.7728  227.5526 H   0  0  0  0  0  0  0  0  0  0  0  0
  140.8077   68.1450  229.5549 H   0  0  0  0  0  0  0  0  0  0  0  0
  139.9809   70.4659  229.1819 H   0  0  0  0  0  0  0  0  0  0  0  0
  139.7863   71.3809  226.9434 H   0  0  0  0  0  0  0  0  0  0  0  0
  132.9138   69.8498  226.7691 H   0  0  0  0  0  0  0  0  0  0  0  0
  131.6196   71.6614  227.9017 H   0  0  0  0  0  0  0  0  0  0  0  0
  131.2610   74.0928  228.2601 H   0  0  0  0  0  0  0  0  0  0  0  0
  133.7865   76.9109  226.2111 H   0  0  0  0  0  0  0  0  0  0  0  0
  135.0119   75.0179  225.1335 H   0  0  0  0  0  0  0  0  0  0  0  0
  1  2  2  0
  2  3  1  0
  3  4  1  0
  4  5  1  0
  5  6  2  0
  5  7  1  0
  7  8  1  0
  8  9  1  0
  9 10  1  0
 10 11  1  0
 11 12  1  0
 12 13  1  0
 13 14  2  0
 14 15  1  0
 15 16  2  0
 16 17  1  0
 17 18  2  0
  2 19  1  0
 19 20  2  0
 20 21  1  0
 21 22  2  0
 22 23  1  0
 23 24  2  0
 24 25  1  0
 24 26  1  0
 26 27  2  0
 27 28  1  0
 28 29  2  0
 12  7  1  0
 18 13  1  0
 29 19  1  0
 28 22  1  0
  3 30  1  0
  4 31  1  0
  4 32  1  0
  8 33  1  0
  8 34  1  0
  9 35  1  0
  9 36  1  0
 10 37  1  0
 10 38  1  0
 11 39  1  0
 11 40  1  0
 12 41  1  6
 14 42  1  0
 15 43  1  0
 16 44  1  0
 17 45  1  0
 18 46  1  0
 20 47  1  0
 21 48  1  0
 23 49  1  0
 26 50  1  0
 27 51  1  0
M  END
>  <smiles>  (84) 
O=C(NCC(=O)N1CCCCC1c1ccccc1)c1ccc2cc(F)ccc2n1

>  <score_type>  (84) 
oracle

>  <origin>  (84) 
autodockgpu

>  <m_score__min__energy>  (84) 
-9.2599999999999998

>  <m_primary>  (84) 
energy

>  <rmsd>  (84) 
7.610245143728758

>  <m_score__min__rmsd>  (84) 
7.610245143728758

>  <meeko>  (84) 
{"free_energy": -7.98, "intermolecular_energy": -9.48, "internal_energy": -1.74, "cluster_size": 4, "cluster_id": 4, "rank_in_cluster": 4}

>  <energy>  (84) 
-8.19

>  <cluster_rmsd>  (84) 
0.87

>  <cluster>  (84) 
3

$$$$

     RDKit          3D

 51 54  0  0  0  0  0  0  0  0999 V2000
  140.6500   71.8770  221.1060 O   0  0  0  0  0  0  0  0  0  0  0  0
  140.2350   72.3690  222.1830 C   0  0  0  0  0  0  0  0  0  0  0  0
  139.8570   73.7380  222.3150 N   0  0  0  0  0  0  0  0  0  0  0  0
  139.9410   74.6550  221.1550 C   0  0  0  0  0  0  0  0  0  0  0  0
  140.6770   75.8670  221.5380 C   0  0  0  0  0  0  0  0  0  0  0  0
  140.3790   76.3550  222.6920 O   0  0  0  0  0  0  0  0  0  0  0  0
  141.6570   76.5570  220.8190 N   0  0  0  0  0  0  0  0  0  0  0  0
  142.5970   75.7000  220.0480 C   0  0  0  0  0  0  0  0  0  0  0  0
  142.9760   76.4300  218.7800 C   0  0  0  0  0  0  0  0  0  0  0  0
  141.9440   77.3960  218.3110 C   0  0  0  0  0  0  0  0  0  0  0  0
  141.3600   78.3290  219.3040 C   0  0  0  0  0  0  0  0  0  0  0  0
  141.8810   77.9490  220.6790 C   0  0  1  0  0  0  0  0  0  0  0  0
  141.5440   78.8510  221.7560 C   0  0  0  0  0  0  0  0  0  0  0  0
  140.2580   79.2490  222.0830 C   0  0  0  0  0  0  0  0  0  0  0  0
  139.9970   80.1460  223.1010 C   0  0  0  0  0  0  0  0  0  0  0  0
  141.0450   80.6850  223.8420 C   0  0  0  0  0  0  0  0  0  0  0  0
  142.3300   80.2880  223.5180 C   0  0  0  0  0  0  0  0  0  0  0  0
  142.5650   79.4060  222.5130 C   0  0  0  0  0  0  0  0  0  0  0  0
  140.1290   71.5060  223.3710 C   0  0  0  0  0  0  0  0  0  0  0  0
  139.5430   70.2590  223.2680 C   0  0  0  0  0  0  0  0  0  0  0  0
  139.4370   69.4350  224.3920 C   0  0  0  0  0  0  0  0  0  0  0  0
  139.9230   69.8740  225.6080 C   0  0  0  0  0  0  0  0  0  0  0  0
  139.8540   69.1160  226.7550 C   0  0  0  0  0  0  0  0  0  0  0  0
  140.3580   69.6200  227.9260 C   0  0  0  0  0  0  0  0  0  0  0  0
  140.2920   68.8720  229.0740 F   0  0  0  0  0  0  0  0  0  0  0  0
  140.9400   70.8680  228.0070 C   0  0  0  0  0  0  0  0  0  0  0  0
  141.0110   71.6310  226.8600 C   0  0  0  0  0  0  0  0  0  0  0  0
  140.5050   71.1270  225.6790 C   0  0  0  0  0  0  0  0  0  0  0  0
  140.5870   71.8920  224.5720 N   0  0  0  0  0  0  0  0  0  0  0  0
  139.5240   74.0700  223.2410 H   0  0  0  0  0  0  0  0  0  0  0  0
  140.4662   74.1533  220.3289 H   0  0  0  0  0  0  0  0  0  0  0  0
  138.9260   74.9303  220.8324 H   0  0  0  0  0  0  0  0  0  0  0  0
  143.4982   75.5040  220.6475 H   0  0  0  0  0  0  0  0  0  0  0  0
  142.1195   74.7397  219.8034 H   0  0  0  0  0  0  0  0  0  0  0  0
  143.9097   76.9819  218.9635 H   0  0  0  0  0  0  0  0  0  0  0  0
  143.0841   75.6695  217.9927 H   0  0  0  0  0  0  0  0  0  0  0  0
  142.4034   78.0065  217.5196 H   0  0  0  0  0  0  0  0  0  0  0  0
  141.0994   76.7645  217.9983 H   0  0  0  0  0  0  0  0  0  0  0  0
  141.6580   79.3606  219.0653 H   0  0  0  0  0  0  0  0  0  0  0  0
  140.2620   78.2656  219.2838 H   0  0  0  0  0  0  0  0  0  0  0  0
  142.9657   78.1083  220.7692 H   0  0  0  0  0  0  0  0  0  0  0  0
  139.4139   78.8358  221.5113 H   0  0  0  0  0  0  0  0  0  0  0  0
  138.9597   80.4346  223.3262 H   0  0  0  0  0  0  0  0  0  0  0  0
  140.8581   81.4009  224.6560 H   0  0  0  0  0  0  0  0  0  0  0  0
  143.1790   80.6954  224.0865 H   0  0  0  0  0  0  0  0  0  0  0  0
  143.6039   79.1209  222.2908 H   0  0  0  0  0  0  0  0  0  0  0  0
  139.1582   69.9132  222.2972 H   0  0  0  0  0  0  0  0  0  0  0  0
  138.9693   68.4429  224.3086 H   0  0  0  0  0  0  0  0  0  0  0  0
  139.3986   68.1150  226.7321 H   0  0  0  0  0  0  0  0  0  0  0  0
  141.3370   71.2448  228.9611 H   0  0  0  0  0  0  0  0  0  0  0  0
  141.4667   72.6318  226.8864 H   0  0  0  0  0  0  0  0  0  0  0  0
  1  2  2  0
  2  3  1  0
  3  4  1  0
  4  5  1  0
  5  6  2  0
  5  7  1  0
  7  8  1  0
  8  9  1  0
  9 10  1  0
 10 11  1  0
 11 12  1  0
 12 13  1  0
 13 14  2  0
 14 15  1  0
 15 16  2  0
 16 17  1  0
 17 18  2  0
  2 19  1  0
 19 20  2  0
 20 21  1  0
 21 22  2  0
 22 23  1  0
 23 24  2  0
 24 25  1  0
 24 26  1  0
 26 27  2  0
 27 28  1  0
 28 29  2  0
 12  7  1  0
 18 13  1  0
 29 19  1  0
 28 22  1  0
  3 30  1  0
  4 31  1  0
  4 32  1  0
  8 33  1  0
  8 34  1  0
  9 35  1  0
  9 36  1  0
 10 37  1  0
 10 38  1  0
 11 39  1  0
 11 40  1  0
 12 41  1  6
 14 42  1  0
 15 43  1  0
 16 44  1  0
 17 45  1  0
 18 46  1  0
 20 47  1  0
 21 48  1  0
 23 49  1  0
 26 50  1  0
 27 51  1  0
M  END
>  <smiles>  (85) 
O=C(NCC(=O)N1CCCCC1c1ccccc1)c1ccc2cc(F)ccc2n1

>  <score_type>  (85) 
oracle

>  <origin>  (85) 
autodockgpu

>  <m_score__min__energy>  (85) 
-9.2599999999999998

>  <m_primary>  (85) 
energy

>  <rmsd>  (85) 
2.0666392205035318

>  <m_score__min__rmsd>  (85) 
2.0666392205035318

>  <meeko>  (85) 
{"free_energy": -9.13, "intermolecular_energy": -10.62, "internal_energy": -1.65, "cluster_size": 23, "cluster_id": 1, "rank_in_cluster": 4}

>  <energy>  (85) 
-8.18

>  <cluster_rmsd>  (85) 
0.86

>  <cluster>  (85) 
3

$$$$

     RDKit          3D

 51 54  0  0  0  0  0  0  0  0999 V2000
  133.2920   70.0260  226.5440 O   0  0  0  0  0  0  0  0  0  0  0  0
  133.7900   71.1260  226.2020 C   0  0  0  0  0  0  0  0  0  0  0  0
  134.9520   71.2290  225.3830 N   0  0  0  0  0  0  0  0  0  0  0  0
  135.6340   70.0110  224.8900 C   0  0  0  0  0  0  0  0  0  0  0  0
  136.8660   70.3860  224.1840 C   0  0  0  0  0  0  0  0  0  0  0  0
  137.0080   71.6440  223.9470 O   0  0  0  0  0  0  0  0  0  0  0  0
  137.9030   69.5610  223.7400 N   0  0  0  0  0  0  0  0  0  0  0  0
  137.4960   68.4770  222.8070 C   0  0  0  0  0  0  0  0  0  0  0  0
  138.6170   68.2520  221.8190 C   0  0  0  0  0  0  0  0  0  0  0  0
  139.4650   69.4540  221.5900 C   0  0  0  0  0  0  0  0  0  0  0  0
  139.9480   70.2030  222.7760 C   0  0  0  0  0  0  0  0  0  0  0  0
  139.2930   69.6120  224.0120 C   0  0  1  0  0  0  0  0  0  0  0  0
  139.7680   70.1120  225.2810 C   0  0  0  0  0  0  0  0  0  0  0  0
  139.5060   69.5300  226.5110 C   0  0  0  0  0  0  0  0  0  0  0  0
  139.9550   70.0750  227.6980 C   0  0  0  0  0  0  0  0  0  0  0  0
  140.6990   71.2520  227.6890 C   0  0  0  0  0  0  0  0  0  0  0  0
  140.9620   71.8350  226.4620 C   0  0  0  0  0  0  0  0  0  0  0  0
  140.5110   71.2830  225.3070 C   0  0  0  0  0  0  0  0  0  0  0  0
  133.1560   72.3740  226.6620 C   0  0  0  0  0  0  0  0  0  0  0  0
  131.9440   72.3290  227.3240 C   0  0  0  0  0  0  0  0  0  0  0  0
  131.3350   73.5080  227.7610 C   0  0  0  0  0  0  0  0  0  0  0  0
  131.9530   74.7220  227.5280 C   0  0  0  0  0  0  0  0  0  0  0  0
  131.4120   75.9210  227.9300 C   0  0  0  0  0  0  0  0  0  0  0  0
  132.0850   77.0860  227.6630 C   0  0  0  0  0  0  0  0  0  0  0  0
  131.5530   78.2870  228.0600 F   0  0  0  0  0  0  0  0  0  0  0  0
  133.2950   77.1090  227.0010 C   0  0  0  0  0  0  0  0  0  0  0  0
  133.8400   75.9080  226.5950 C   0  0  0  0  0  0  0  0  0  0  0  0
  133.1660   74.7330  226.8630 C   0  0  0  0  0  0  0  0  0  0  0  0
  133.7200   73.5740  226.4570 N   0  0  0  0  0  0  0  0  0  0  0  0
  135.3040   72.1770  225.1440 H   0  0  0  0  0  0  0  0  0  0  0  0
  135.8838   69.3614  225.7419 H   0  0  0  0  0  0  0  0  0  0  0  0
  134.9671   69.4738  224.1995 H   0  0  0  0  0  0  0  0  0  0  0  0
  137.3074   67.5521  223.3718 H   0  0  0  0  0  0  0  0  0  0  0  0
  136.5756   68.7613  222.2759 H   0  0  0  0  0  0  0  0  0  0  0  0
  139.2576   67.4427  222.1994 H   0  0  0  0  0  0  0  0  0  0  0  0
  138.1498   68.0007  220.8554 H   0  0  0  0  0  0  0  0  0  0  0  0
  140.3514   69.1263  221.0271 H   0  0  0  0  0  0  0  0  0  0  0  0
  138.8029   70.1617  221.0696 H   0  0  0  0  0  0  0  0  0  0  0  0
  141.0413   70.1108  222.8543 H   0  0  0  0  0  0  0  0  0  0  0  0
  139.6898   71.2682  222.6827 H   0  0  0  0  0  0  0  0  0  0  0  0
  139.6189   68.5784  224.2000 H   0  0  0  0  0  0  0  0  0  0  0  0
  138.9191   68.6002  226.5432 H   0  0  0  0  0  0  0  0  0  0  0  0
  139.7245   69.5784  228.6521 H   0  0  0  0  0  0  0  0  0  0  0  0
  141.0645   71.7021  228.6237 H   0  0  0  0  0  0  0  0  0  0  0  0
  141.5485   72.7647  226.4218 H   0  0  0  0  0  0  0  0  0  0  0  0
  140.7435   71.7833  224.3554 H   0  0  0  0  0  0  0  0  0  0  0  0
  131.4563   71.3603  227.5078 H   0  0  0  0  0  0  0  0  0  0  0  0
  130.3698   73.4703  228.2872 H   0  0  0  0  0  0  0  0  0  0  0  0
  130.4487   75.9454  228.4606 H   0  0  0  0  0  0  0  0  0  0  0  0
  133.8117   78.0595  226.8020 H   0  0  0  0  0  0  0  0  0  0  0  0
  134.8024   75.8869  226.0628 H   0  0  0  0  0  0  0  0  0  0  0  0
  1  2  2  0
  2  3  1  0
  3  4  1  0
  4  5  1  0
  5  6  2  0
  5  7  1  0
  7  8  1  0
  8  9  1  0
  9 10  1  0
 10 11  1  0
 11 12  1  0
 12 13  1  0
 13 14  2  0
 14 15  1  0
 15 16  2  0
 16 17  1  0
 17 18  2  0
  2 19  1  0
 19 20  2  0
 20 21  1  0
 21 22  2  0
 22 23  1  0
 23 24  2  0
 24 25  1  0
 24 26  1  0
 26 27  2  0
 27 28  1  0
 28 29  2  0
 12  7  1  0
 18 13  1  0
 29 19  1  0
 28 22  1  0
  3 30  1  0
  4 31  1  0
  4 32  1  0
  8 33  1  0
  8 34  1  0
  9 35  1  0
  9 36  1  0
 10 37  1  0
 10 38  1  0
 11 39  1  0
 11 40  1  0
 12 41  1  1
 14 42  1  0
 15 43  1  0
 16 44  1  0
 17 45  1  0
 18 46  1  0
 20 47  1  0
 21 48  1  0
 23 49  1  0
 26 50  1  0
 27 51  1  0
M  END
>  <smiles>  (86) 
O=C(NCC(=O)N1CCCCC1c1ccccc1)c1ccc2cc(F)ccc2n1

>  <score_type>  (86) 
oracle

>  <origin>  (86) 
autodockgpu

>  <m_score__min__energy>  (86) 
-9.2599999999999998

>  <m_primary>  (86) 
energy

>  <rmsd>  (86) 
8.641611879030792

>  <m_score__min__rmsd>  (86) 
8.641611879030792

>  <meeko>  (86) 
{"free_energy": -8.04, "intermolecular_energy": -9.53, "internal_energy": -2.23, "cluster_size": 4, "cluster_id": 4, "rank_in_cluster": 1}

>  <energy>  (86) 
-8.17

>  <cluster_rmsd>  (86) 
0.83

>  <cluster>  (86) 
3

$$$$

     RDKit          3D

 51 54  0  0  0  0  0  0  0  0999 V2000
  141.1660   72.5270  221.6490 O   0  0  0  0  0  0  0  0  0  0  0  0
  140.2010   72.6230  222.4450 C   0  0  0  0  0  0  0  0  0  0  0  0
  139.2160   73.6500  222.3480 N   0  0  0  0  0  0  0  0  0  0  0  0
  139.2970   74.6690  221.2760 C   0  0  0  0  0  0  0  0  0  0  0  0
  140.2900   75.6890  221.6390 C   0  0  0  0  0  0  0  0  0  0  0  0
  141.4510   75.2390  221.9690 O   0  0  0  0  0  0  0  0  0  0  0  0
  140.1420   77.0780  221.6700 N   0  0  0  0  0  0  0  0  0  0  0  0
  138.9730   77.5740  222.4440 C   0  0  0  0  0  0  0  0  0  0  0  0
  139.3510   78.8860  223.0920 C   0  0  0  0  0  0  0  0  0  0  0  0
  140.8100   79.0280  223.3510 C   0  0  0  0  0  0  0  0  0  0  0  0
  141.7490   78.6900  222.2550 C   0  0  0  0  0  0  0  0  0  0  0  0
  140.9490   78.0970  221.1070 C   0  0  1  0  0  0  0  0  0  0  0  0
  141.6800   77.8540  219.8850 C   0  0  0  0  0  0  0  0  0  0  0  0
  142.5880   76.8260  219.6960 C   0  0  0  0  0  0  0  0  0  0  0  0
  143.2880   76.6640  218.5150 C   0  0  0  0  0  0  0  0  0  0  0  0
  143.0930   77.5520  217.4610 C   0  0  0  0  0  0  0  0  0  0  0  0
  142.1850   78.5800  217.6470 C   0  0  0  0  0  0  0  0  0  0  0  0
  141.5080   78.7220  218.8160 C   0  0  0  0  0  0  0  0  0  0  0  0
  140.0680   71.6380  223.5320 C   0  0  0  0  0  0  0  0  0  0  0  0
  139.4130   70.4430  223.3040 C   0  0  0  0  0  0  0  0  0  0  0  0
  139.2810   69.5050  224.3310 C   0  0  0  0  0  0  0  0  0  0  0  0
  139.8110   69.7780  225.5770 C   0  0  0  0  0  0  0  0  0  0  0  0
  139.7190   68.9020  226.6330 C   0  0  0  0  0  0  0  0  0  0  0  0
  140.2690   69.2440  227.8420 C   0  0  0  0  0  0  0  0  0  0  0  0
  140.1810   68.3760  228.9010 F   0  0  0  0  0  0  0  0  0  0  0  0
  140.9200   70.4420  228.0480 C   0  0  0  0  0  0  0  0  0  0  0  0
  141.0130   71.3240  226.9920 C   0  0  0  0  0  0  0  0  0  0  0  0
  140.4610   70.9840  225.7730 C   0  0  0  0  0  0  0  0  0  0  0  0
  140.5670   71.8620  224.7580 N   0  0  0  0  0  0  0  0  0  0  0  0
  138.4480   73.6630  223.0470 H   0  0  0  0  0  0  0  0  0  0  0  0
  139.5959   74.1862  220.3339 H   0  0  0  0  0  0  0  0  0  0  0  0
  138.3135   75.1454  221.1500 H   0  0  0  0  0  0  0  0  0  0  0  0
  138.1180   77.7260  221.7688 H   0  0  0  0  0  0  0  0  0  0  0  0
  138.6907   76.8403  223.2134 H   0  0  0  0  0  0  0  0  0  0  0  0
  139.0349   79.7046  222.4286 H   0  0  0  0  0  0  0  0  0  0  0  0
  138.8468   78.9186  224.0691 H   0  0  0  0  0  0  0  0  0  0  0  0
  140.9925   80.0774  223.6257 H   0  0  0  0  0  0  0  0  0  0  0  0
  141.0230   78.2847  224.1333 H   0  0  0  0  0  0  0  0  0  0  0  0
  142.2679   79.5988  221.9163 H   0  0  0  0  0  0  0  0  0  0  0  0
  142.4987   77.9665  222.6079 H   0  0  0  0  0  0  0  0  0  0  0  0
  140.2662   78.8309  220.6541 H   0  0  0  0  0  0  0  0  0  0  0  0
  142.7586   76.1122  220.5154 H   0  0  0  0  0  0  0  0  0  0  0  0
  144.0000   75.8323  218.4081 H   0  0  0  0  0  0  0  0  0  0  0  0
  143.6411   77.4407  216.5138 H   0  0  0  0  0  0  0  0  0  0  0  0
  142.0080   79.2966  216.8315 H   0  0  0  0  0  0  0  0  0  0  0  0
  140.7975   79.5554  218.9191 H   0  0  0  0  0  0  0  0  0  0  0  0
  138.9937   70.2292  222.3098 H   0  0  0  0  0  0  0  0  0  0  0  0
  138.7581   68.5546  224.1484 H   0  0  0  0  0  0  0  0  0  0  0  0
  139.2087   67.9354  226.5092 H   0  0  0  0  0  0  0  0  0  0  0  0
  141.3536   70.6876  229.0286 H   0  0  0  0  0  0  0  0  0  0  0  0
  141.5227   72.2904  227.1198 H   0  0  0  0  0  0  0  0  0  0  0  0
  1  2  2  0
  2  3  1  0
  3  4  1  0
  4  5  1  0
  5  6  2  0
  5  7  1  0
  7  8  1  0
  8  9  1  0
  9 10  1  0
 10 11  1  0
 11 12  1  0
 12 13  1  0
 13 14  2  0
 14 15  1  0
 15 16  2  0
 16 17  1  0
 17 18  2  0
  2 19  1  0
 19 20  2  0
 20 21  1  0
 21 22  2  0
 22 23  1  0
 23 24  2  0
 24 25  1  0
 24 26  1  0
 26 27  2  0
 27 28  1  0
 28 29  2  0
 12  7  1  0
 18 13  1  0
 29 19  1  0
 28 22  1  0
  3 30  1  0
  4 31  1  0
  4 32  1  0
  8 33  1  0
  8 34  1  0
  9 35  1  0
  9 36  1  0
 10 37  1  0
 10 38  1  0
 11 39  1  0
 11 40  1  0
 12 41  1  6
 14 42  1  0
 15 43  1  0
 16 44  1  0
 17 45  1  0
 18 46  1  0
 20 47  1  0
 21 48  1  0
 23 49  1  0
 26 50  1  0
 27 51  1  0
M  END
>  <smiles>  (87) 
O=C(NCC(=O)N1CCCCC1c1ccccc1)c1ccc2cc(F)ccc2n1

>  <score_type>  (87) 
oracle

>  <origin>  (87) 
autodockgpu

>  <m_score__min__energy>  (87) 
-9.2599999999999998

>  <m_primary>  (87) 
energy

>  <rmsd>  (87) 
2.9746767815596926

>  <m_score__min__rmsd>  (87) 
2.9746767815596926

>  <meeko>  (87) 
{"free_energy": -8.77, "intermolecular_energy": -10.26, "internal_energy": -1.28, "cluster_size": 3, "cluster_id": 2, "rank_in_cluster": 2}

>  <energy>  (87) 
-8.17

>  <cluster_rmsd>  (87) 
0.87

>  <cluster>  (87) 
3

$$$$

     RDKit          3D

 51 54  0  0  0  0  0  0  0  0999 V2000
  141.0120   71.9820  221.2820 O   0  0  0  0  0  0  0  0  0  0  0  0
  140.3460   72.4110  222.2550 C   0  0  0  0  0  0  0  0  0  0  0  0
  139.7580   73.7100  222.2780 N   0  0  0  0  0  0  0  0  0  0  0  0
  139.9140   74.6250  221.1240 C   0  0  0  0  0  0  0  0  0  0  0  0
  140.6530   75.8240  221.5420 C   0  0  0  0  0  0  0  0  0  0  0  0
  140.3550   76.2810  222.7080 O   0  0  0  0  0  0  0  0  0  0  0  0
  141.6380   76.5280  220.8440 N   0  0  0  0  0  0  0  0  0  0  0  0
  142.6100   75.6870  220.0960 C   0  0  0  0  0  0  0  0  0  0  0  0
  143.0060   76.4210  218.8360 C   0  0  0  0  0  0  0  0  0  0  0  0
  141.9680   77.3670  218.3410 C   0  0  0  0  0  0  0  0  0  0  0  0
  141.3460   78.2920  219.3180 C   0  0  0  0  0  0  0  0  0  0  0  0
  141.8410   77.9240  220.7060 C   0  0  1  0  0  0  0  0  0  0  0  0
  141.4640   78.8220  221.7730 C   0  0  0  0  0  0  0  0  0  0  0  0
  142.3090   79.2550  222.7810 C   0  0  0  0  0  0  0  0  0  0  0  0
  141.8820   80.0860  223.7990 C   0  0  0  0  0  0  0  0  0  0  0  0
  140.5590   80.5170  223.8400 C   0  0  0  0  0  0  0  0  0  0  0  0
  139.7130   80.0860  222.8350 C   0  0  0  0  0  0  0  0  0  0  0  0
  140.1520   79.2690  221.8430 C   0  0  0  0  0  0  0  0  0  0  0  0
  140.1570   71.5460  223.4320 C   0  0  0  0  0  0  0  0  0  0  0  0
  139.4900   70.3430  223.3040 C   0  0  0  0  0  0  0  0  0  0  0  0
  139.3050   69.5190  224.4170 C   0  0  0  0  0  0  0  0  0  0  0  0
  139.7950   69.9120  225.6470 C   0  0  0  0  0  0  0  0  0  0  0  0
  139.6500   69.1510  226.7840 C   0  0  0  0  0  0  0  0  0  0  0  0
  140.1630   69.6090  227.9710 C   0  0  0  0  0  0  0  0  0  0  0  0
  140.0220   68.8560  229.1090 F   0  0  0  0  0  0  0  0  0  0  0  0
  140.8270   70.8120  228.0760 C   0  0  0  0  0  0  0  0  0  0  0  0
  140.9740   71.5790  226.9390 C   0  0  0  0  0  0  0  0  0  0  0  0
  140.4590   71.1220  225.7420 C   0  0  0  0  0  0  0  0  0  0  0  0
  140.6160   71.8890  224.6460 N   0  0  0  0  0  0  0  0  0  0  0  0
  139.2220   73.9930  223.1210 H   0  0  0  0  0  0  0  0  0  0  0  0
  140.4688   74.1135  220.3236 H   0  0  0  0  0  0  0  0  0  0  0  0
  138.9207   74.9187  220.7538 H   0  0  0  0  0  0  0  0  0  0  0  0
  143.5003   75.5073  220.7165 H   0  0  0  0  0  0  0  0  0  0  0  0
  142.1543   74.7187  219.8416 H   0  0  0  0  0  0  0  0  0  0  0  0
  143.9249   76.9901  219.0402 H   0  0  0  0  0  0  0  0  0  0  0  0
  143.1470   75.6612  218.0531 H   0  0  0  0  0  0  0  0  0  0  0  0
  142.4340   77.9833  217.5581 H   0  0  0  0  0  0  0  0  0  0  0  0
  141.1418   76.7199  218.0113 H   0  0  0  0  0  0  0  0  0  0  0  0
  141.6323   79.3279  219.0836 H   0  0  0  0  0  0  0  0  0  0  0  0
  140.2500   78.2098  219.2726 H   0  0  0  0  0  0  0  0  0  0  0  0
  142.9202   78.1029  220.8211 H   0  0  0  0  0  0  0  0  0  0  0  0
  143.3584   78.9254  222.7709 H   0  0  0  0  0  0  0  0  0  0  0  0
  142.5887   80.4075  224.5783 H   0  0  0  0  0  0  0  0  0  0  0  0
  140.1995   81.1769  224.6433 H   0  0  0  0  0  0  0  0  0  0  0  0
  138.6623   80.4117  222.8390 H   0  0  0  0  0  0  0  0  0  0  0  0
  139.4415   78.9498  221.0663 H   0  0  0  0  0  0  0  0  0  0  0  0
  139.1031   70.0327  222.3221 H   0  0  0  0  0  0  0  0  0  0  0  0
  138.7719   68.5623  224.3142 H   0  0  0  0  0  0  0  0  0  0  0  0
  139.1274   68.1840  226.7416 H   0  0  0  0  0  0  0  0  0  0  0  0
  141.2294   71.1518  229.0417 H   0  0  0  0  0  0  0  0  0  0  0  0
  141.4967   72.5458  226.9854 H   0  0  0  0  0  0  0  0  0  0  0  0
  1  2  2  0
  2  3  1  0
  3  4  1  0
  4  5  1  0
  5  6  2  0
  5  7  1  0
  7  8  1  0
  8  9  1  0
  9 10  1  0
 10 11  1  0
 11 12  1  0
 12 13  1  0
 13 14  2  0
 14 15  1  0
 15 16  2  0
 16 17  1  0
 17 18  2  0
  2 19  1  0
 19 20  2  0
 20 21  1  0
 21 22  2  0
 22 23  1  0
 23 24  2  0
 24 25  1  0
 24 26  1  0
 26 27  2  0
 27 28  1  0
 28 29  2  0
 12  7  1  0
 18 13  1  0
 29 19  1  0
 28 22  1  0
  3 30  1  0
  4 31  1  0
  4 32  1  0
  8 33  1  0
  8 34  1  0
  9 35  1  0
  9 36  1  0
 10 37  1  0
 10 38  1  0
 11 39  1  0
 11 40  1  0
 12 41  1  6
 14 42  1  0
 15 43  1  0
 16 44  1  0
 17 45  1  0
 18 46  1  0
 20 47  1  0
 21 48  1  0
 23 49  1  0
 26 50  1  0
 27 51  1  0
M  END
>  <smiles>  (88) 
O=C(NCC(=O)N1CCCCC1c1ccccc1)c1ccc2cc(F)ccc2n1

>  <score_type>  (88) 
oracle

>  <origin>  (88) 
autodockgpu

>  <m_score__min__energy>  (88) 
-9.2599999999999998

>  <m_primary>  (88) 
energy

>  <rmsd>  (88) 
2.0882607976931955

>  <m_score__min__rmsd>  (88) 
2.0882607976931955

>  <meeko>  (88) 
{"free_energy": -9.11, "intermolecular_energy": -10.6, "internal_energy": -1.59, "cluster_size": 23, "cluster_id": 1, "rank_in_cluster": 5}

>  <energy>  (88) 
-8.08

>  <cluster_rmsd>  (88) 
0.88

>  <cluster>  (88) 
3

$$$$

     RDKit          3D

 51 54  0  0  0  0  0  0  0  0999 V2000
  138.7780   71.2350  221.2520 O   0  0  0  0  0  0  0  0  0  0  0  0
  139.1470   71.7830  222.3190 C   0  0  0  0  0  0  0  0  0  0  0  0
  139.3290   73.1920  222.4430 N   0  0  0  0  0  0  0  0  0  0  0  0
  139.0830   74.0860  221.2880 C   0  0  0  0  0  0  0  0  0  0  0  0
  139.1660   75.4870  221.7210 C   0  0  0  0  0  0  0  0  0  0  0  0
  139.9700   75.7170  222.7010 O   0  0  0  0  0  0  0  0  0  0  0  0
  138.4910   76.5990  221.2110 N   0  0  0  0  0  0  0  0  0  0  0  0
  137.4940   76.3030  220.1480 C   0  0  0  0  0  0  0  0  0  0  0  0
  136.3460   77.2760  220.2860 C   0  0  0  0  0  0  0  0  0  0  0  0
  136.1570   77.7890  221.6710 C   0  0  0  0  0  0  0  0  0  0  0  0
  137.3510   78.2720  222.4050 C   0  0  0  0  0  0  0  0  0  0  0  0
  138.5810   77.9670  221.5680 C   0  0  1  0  0  0  0  0  0  0  0  0
  139.8280   78.5110  222.0520 C   0  0  0  0  0  0  0  0  0  0  0  0
  141.0180   78.5210  221.3420 C   0  0  0  0  0  0  0  0  0  0  0  0
  142.1920   79.0220  221.8720 C   0  0  0  0  0  0  0  0  0  0  0  0
  142.2100   79.5400  223.1640 C   0  0  0  0  0  0  0  0  0  0  0  0
  141.0230   79.5310  223.8750 C   0  0  0  0  0  0  0  0  0  0  0  0
  139.8800   79.0350  223.3360 C   0  0  0  0  0  0  0  0  0  0  0  0
  139.4070   70.9460  223.5020 C   0  0  0  0  0  0  0  0  0  0  0  0
  139.0900   69.6020  223.4800 C   0  0  0  0  0  0  0  0  0  0  0  0
  139.3320   68.8020  224.5990 C   0  0  0  0  0  0  0  0  0  0  0  0
  139.8920   69.3630  225.7310 C   0  0  0  0  0  0  0  0  0  0  0  0
  140.1580   68.6360  226.8680 C   0  0  0  0  0  0  0  0  0  0  0  0
  140.7150   69.2640  227.9530 C   0  0  0  0  0  0  0  0  0  0  0  0
  140.9830   68.5470  229.0920 F   0  0  0  0  0  0  0  0  0  0  0  0
  141.0250   70.6080  227.9550 C   0  0  0  0  0  0  0  0  0  0  0  0
  140.7590   71.3400  226.8160 C   0  0  0  0  0  0  0  0  0  0  0  0
  140.1980   70.7120  225.7220 C   0  0  0  0  0  0  0  0  0  0  0  0
  139.9490   71.4500  224.6220 N   0  0  0  0  0  0  0  0  0  0  0  0
  139.6370   73.5700  223.3590 H   0  0  0  0  0  0  0  0  0  0  0  0
  139.8394   73.8975  220.5119 H   0  0  0  0  0  0  0  0  0  0  0  0
  138.0801   73.8888  220.8814 H   0  0  0  0  0  0  0  0  0  0  0  0
  137.9609   76.4173  219.1586 H   0  0  0  0  0  0  0  0  0  0  0  0
  137.1285   75.2705  220.2498 H   0  0  0  0  0  0  0  0  0  0  0  0
  136.5351   78.1321  219.6217 H   0  0  0  0  0  0  0  0  0  0  0  0
  135.4292   76.7303  220.0183 H   0  0  0  0  0  0  0  0  0  0  0  0
  135.4467   78.6271  221.6150 H   0  0  0  0  0  0  0  0  0  0  0  0
  135.8191   76.9129  222.2439 H   0  0  0  0  0  0  0  0  0  0  0  0
  137.2728   79.3568  222.5696 H   0  0  0  0  0  0  0  0  0  0  0  0
  137.4236   77.7714  223.3818 H   0  0  0  0  0  0  0  0  0  0  0  0
  138.5956   78.5410  220.6298 H   0  0  0  0  0  0  0  0  0  0  0  0
  141.0286   78.1155  220.3195 H   0  0  0  0  0  0  0  0  0  0  0  0
  143.1138   79.0114  221.2718 H   0  0  0  0  0  0  0  0  0  0  0  0
  143.1346   79.9420  223.6039 H   0  0  0  0  0  0  0  0  0  0  0  0
  141.0051   79.9341  224.8983 H   0  0  0  0  0  0  0  0  0  0  0  0
  138.9606   79.0490  223.9397 H   0  0  0  0  0  0  0  0  0  0  0  0
  138.6447   69.1594  222.5767 H   0  0  0  0  0  0  0  0  0  0  0  0
  139.0784   67.7318  224.5794 H   0  0  0  0  0  0  0  0  0  0  0  0
  139.9263   67.5614  226.9069 H   0  0  0  0  0  0  0  0  0  0  0  0
  141.4721   71.0834  228.8405 H   0  0  0  0  0  0  0  0  0  0  0  0
  140.9919   72.4145  226.7800 H   0  0  0  0  0  0  0  0  0  0  0  0
  1  2  2  0
  2  3  1  0
  3  4  1  0
  4  5  1  0
  5  6  2  0
  5  7  1  0
  7  8  1  0
  8  9  1  0
  9 10  1  0
 10 11  1  0
 11 12  1  0
 12 13  1  0
 13 14  2  0
 14 15  1  0
 15 16  2  0
 16 17  1  0
 17 18  2  0
  2 19  1  0
 19 20  2  0
 20 21  1  0
 21 22  2  0
 22 23  1  0
 23 24  2  0
 24 25  1  0
 24 26  1  0
 26 27  2  0
 27 28  1  0
 28 29  2  0
 12  7  1  0
 18 13  1  0
 29 19  1  0
 28 22  1  0
  3 30  1  0
  4 31  1  0
  4 32  1  0
  8 33  1  0
  8 34  1  0
  9 35  1  0
  9 36  1  0
 10 37  1  0
 10 38  1  0
 11 39  1  0
 11 40  1  0
 12 41  1  6
 14 42  1  0
 15 43  1  0
 16 44  1  0
 17 45  1  0
 18 46  1  0
 20 47  1  0
 21 48  1  0
 23 49  1  0
 26 50  1  0
 27 51  1  0
M  END
>  <smiles>  (89) 
O=C(NCC(=O)N1CCCCC1c1ccccc1)c1ccc2cc(F)ccc2n1

>  <score_type>  (89) 
oracle

>  <origin>  (89) 
autodockgpu

>  <m_score__min__energy>  (89) 
-9.2599999999999998

>  <m_primary>  (89) 
energy

>  <rmsd>  (89) 
2.6977189302797555

>  <m_score__min__rmsd>  (89) 
2.6977189302797555

>  <meeko>  (89) 
{"free_energy": -7.81, "intermolecular_energy": -9.31, "internal_energy": -2.07, "cluster_size": 23, "cluster_id": 1, "rank_in_cluster": 23}

>  <energy>  (89) 
-8.08

>  <cluster_rmsd>  (89) 
0.79

>  <cluster>  (89) 
3

$$$$

     RDKit          3D

 51 54  0  0  0  0  0  0  0  0999 V2000
  141.4300   72.3340  221.4590 O   0  0  0  0  0  0  0  0  0  0  0  0
  140.5800   72.6200  222.3360 C   0  0  0  0  0  0  0  0  0  0  0  0
  139.8360   73.8360  222.3260 N   0  0  0  0  0  0  0  0  0  0  0  0
  140.0410   74.8340  221.2510 C   0  0  0  0  0  0  0  0  0  0  0  0
  139.2370   76.0310  221.5290 C   0  0  0  0  0  0  0  0  0  0  0  0
  138.6080   76.0280  222.6530 O   0  0  0  0  0  0  0  0  0  0  0  0
  139.0680   77.1710  220.7380 N   0  0  0  0  0  0  0  0  0  0  0  0
  138.4230   76.9370  219.4190 C   0  0  0  0  0  0  0  0  0  0  0  0
  137.5790   78.1440  219.0800 C   0  0  0  0  0  0  0  0  0  0  0  0
  137.0930   78.8910  220.2730 C   0  0  0  0  0  0  0  0  0  0  0  0
  138.0700   79.2120  221.3400 C   0  0  0  0  0  0  0  0  0  0  0  0
  139.3840   78.5260  221.0060 C   0  0  1  0  0  0  0  0  0  0  0  0
  140.5050   78.8570  221.8550 C   0  0  0  0  0  0  0  0  0  0  0  0
  140.7500   78.2970  223.0980 C   0  0  0  0  0  0  0  0  0  0  0  0
  141.8200   78.6810  223.8840 C   0  0  0  0  0  0  0  0  0  0  0  0
  142.6990   79.6630  223.4360 C   0  0  0  0  0  0  0  0  0  0  0  0
  142.4570   80.2230  222.1940 C   0  0  0  0  0  0  0  0  0  0  0  0
  141.3990   79.8320  221.4380 C   0  0  0  0  0  0  0  0  0  0  0  0
  140.3320   71.6670  223.4310 C   0  0  0  0  0  0  0  0  0  0  0  0
  139.6330   70.5010  223.1860 C   0  0  0  0  0  0  0  0  0  0  0  0
  139.3920   69.5930  224.2200 C   0  0  0  0  0  0  0  0  0  0  0  0
  139.8580   69.8670  225.4910 C   0  0  0  0  0  0  0  0  0  0  0  0
  139.6570   69.0190  226.5560 C   0  0  0  0  0  0  0  0  0  0  0  0
  140.1500   69.3600  227.7900 C   0  0  0  0  0  0  0  0  0  0  0  0
  139.9540   68.5210  228.8580 F   0  0  0  0  0  0  0  0  0  0  0  0
  140.8460   70.5290  228.0130 C   0  0  0  0  0  0  0  0  0  0  0  0
  141.0480   71.3830  226.9490 C   0  0  0  0  0  0  0  0  0  0  0  0
  140.5540   71.0430  225.7050 C   0  0  0  0  0  0  0  0  0  0  0  0
  140.7660   71.8930  224.6810 N   0  0  0  0  0  0  0  0  0  0  0  0
  139.1510   74.0010  223.0890 H   0  0  0  0  0  0  0  0  0  0  0  0
  141.1048   75.1101  221.2060 H   0  0  0  0  0  0  0  0  0  0  0  0
  139.7312   74.4019  220.2880 H   0  0  0  0  0  0  0  0  0  0  0  0
  139.1947   76.7949  218.6481 H   0  0  0  0  0  0  0  0  0  0  0  0
  137.7940   76.0355  219.4604 H   0  0  0  0  0  0  0  0  0  0  0  0
  138.1825   78.8276  218.4648 H   0  0  0  0  0  0  0  0  0  0  0  0
  136.6895   77.7743  218.5489 H   0  0  0  0  0  0  0  0  0  0  0  0
  136.6758   79.8436  219.9145 H   0  0  0  0  0  0  0  0  0  0  0  0
  136.3782   78.2062  220.7528 H   0  0  0  0  0  0  0  0  0  0  0  0
  138.2211   80.3004  221.3908 H   0  0  0  0  0  0  0  0  0  0  0  0
  137.6965   78.8619  222.3136 H   0  0  0  0  0  0  0  0  0  0  0  0
  139.8442   78.9328  220.0935 H   0  0  0  0  0  0  0  0  0  0  0  0
  140.0687   77.5190  223.4729 H   0  0  0  0  0  0  0  0  0  0  0  0
  141.9773   78.2097  224.8654 H   0  0  0  0  0  0  0  0  0  0  0  0
  143.5556   79.9825  224.0476 H   0  0  0  0  0  0  0  0  0  0  0  0
  143.1350   81.0002  221.8116 H   0  0  0  0  0  0  0  0  0  0  0  0
  141.2451   80.3065  220.4576 H   0  0  0  0  0  0  0  0  0  0  0  0
  139.2644   70.2864  222.1720 H   0  0  0  0  0  0  0  0  0  0  0  0
  138.8345   68.6654  224.0231 H   0  0  0  0  0  0  0  0  0  0  0  0
  139.1063   68.0767  226.4192 H   0  0  0  0  0  0  0  0  0  0  0  0
  141.2304   70.7743  229.0140 H   0  0  0  0  0  0  0  0  0  0  0  0
  141.5972   72.3256  227.0899 H   0  0  0  0  0  0  0  0  0  0  0  0
  1  2  2  0
  2  3  1  0
  3  4  1  0
  4  5  1  0
  5  6  2  0
  5  7  1  0
  7  8  1  0
  8  9  1  0
  9 10  1  0
 10 11  1  0
 11 12  1  0
 12 13  1  0
 13 14  2  0
 14 15  1  0
 15 16  2  0
 16 17  1  0
 17 18  2  0
  2 19  1  0
 19 20  2  0
 20 21  1  0
 21 22  2  0
 22 23  1  0
 23 24  2  0
 24 25  1  0
 24 26  1  0
 26 27  2  0
 27 28  1  0
 28 29  2  0
 12  7  1  0
 18 13  1  0
 29 19  1  0
 28 22  1  0
  3 30  1  0
  4 31  1  0
  4 32  1  0
  8 33  1  0
  8 34  1  0
  9 35  1  0
  9 36  1  0
 10 37  1  0
 10 38  1  0
 11 39  1  0
 11 40  1  0
 12 41  1  6
 14 42  1  0
 15 43  1  0
 16 44  1  0
 17 45  1  0
 18 46  1  0
 20 47  1  0
 21 48  1  0
 23 49  1  0
 26 50  1  0
 27 51  1  0
M  END
>  <smiles>  (90) 
O=C(NCC(=O)N1CCCCC1c1ccccc1)c1ccc2cc(F)ccc2n1

>  <score_type>  (90) 
oracle

>  <origin>  (90) 
autodockgpu

>  <m_score__min__energy>  (90) 
-9.2599999999999998

>  <m_primary>  (90) 
energy

>  <rmsd>  (90) 
2.574706094171195

>  <m_score__min__rmsd>  (90) 
2.574706094171195

>  <meeko>  (90) 
{"free_energy": -8.04, "intermolecular_energy": -9.53, "internal_energy": -1.87, "cluster_size": 23, "cluster_id": 1, "rank_in_cluster": 21}

>  <energy>  (90) 
-8.04

>  <cluster_rmsd>  (90) 
0.84

>  <cluster>  (90) 
3

$$$$

     RDKit          3D

 51 54  0  0  0  0  0  0  0  0999 V2000
  141.1720   72.5490  221.6560 O   0  0  0  0  0  0  0  0  0  0  0  0
  140.2030   72.6450  222.4480 C   0  0  0  0  0  0  0  0  0  0  0  0
  139.2180   73.6720  222.3450 N   0  0  0  0  0  0  0  0  0  0  0  0
  139.3040   74.6890  221.2720 C   0  0  0  0  0  0  0  0  0  0  0  0
  140.2970   75.7080  221.6370 C   0  0  0  0  0  0  0  0  0  0  0  0
  141.4570   75.2570  221.9690 O   0  0  0  0  0  0  0  0  0  0  0  0
  140.1510   77.0980  221.6670 N   0  0  0  0  0  0  0  0  0  0  0  0
  138.9850   77.5960  222.4430 C   0  0  0  0  0  0  0  0  0  0  0  0
  139.3660   78.9070  223.0890 C   0  0  0  0  0  0  0  0  0  0  0  0
  140.8260   79.0490  223.3440 C   0  0  0  0  0  0  0  0  0  0  0  0
  141.7620   78.7080  222.2460 C   0  0  0  0  0  0  0  0  0  0  0  0
  140.9590   78.1160  221.1010 C   0  0  1  0  0  0  0  0  0  0  0  0
  141.6860   77.8700  219.8770 C   0  0  0  0  0  0  0  0  0  0  0  0
  142.5890   76.8380  219.6850 C   0  0  0  0  0  0  0  0  0  0  0  0
  143.2860   76.6740  218.5030 C   0  0  0  0  0  0  0  0  0  0  0  0
  143.0940   77.5650  217.4510 C   0  0  0  0  0  0  0  0  0  0  0  0
  142.1920   78.5970  217.6400 C   0  0  0  0  0  0  0  0  0  0  0  0
  141.5180   78.7400  218.8100 C   0  0  0  0  0  0  0  0  0  0  0  0
  140.0650   71.6620  223.5360 C   0  0  0  0  0  0  0  0  0  0  0  0
  139.4050   70.4700  223.3090 C   0  0  0  0  0  0  0  0  0  0  0  0
  139.2680   69.5330  224.3360 C   0  0  0  0  0  0  0  0  0  0  0  0
  139.7980   69.8050  225.5830 C   0  0  0  0  0  0  0  0  0  0  0  0
  139.7020   68.9300  226.6400 C   0  0  0  0  0  0  0  0  0  0  0  0
  140.2530   69.2710  227.8480 C   0  0  0  0  0  0  0  0  0  0  0  0
  140.1610   68.4040  228.9080 F   0  0  0  0  0  0  0  0  0  0  0  0
  140.9090   70.4670  228.0540 C   0  0  0  0  0  0  0  0  0  0  0  0
  141.0070   71.3470  226.9970 C   0  0  0  0  0  0  0  0  0  0  0  0
  140.4540   71.0080  225.7780 C   0  0  0  0  0  0  0  0  0  0  0  0
  140.5640   71.8850  224.7620 N   0  0  0  0  0  0  0  0  0  0  0  0
  138.4470   73.6860  223.0400 H   0  0  0  0  0  0  0  0  0  0  0  0
  139.6055   74.2044  220.3317 H   0  0  0  0  0  0  0  0  0  0  0  0
  138.3216   75.1665  221.1418 H   0  0  0  0  0  0  0  0  0  0  0  0
  138.1287   77.7488  221.7696 H   0  0  0  0  0  0  0  0  0  0  0  0
  138.7034   76.8632  223.2135 H   0  0  0  0  0  0  0  0  0  0  0  0
  139.0484   79.7255  222.4263 H   0  0  0  0  0  0  0  0  0  0  0  0
  138.8650   78.9395  224.0678 H   0  0  0  0  0  0  0  0  0  0  0  0
  141.0097   80.0989  223.6158 H   0  0  0  0  0  0  0  0  0  0  0  0
  141.0408   78.3075  224.1276 H   0  0  0  0  0  0  0  0  0  0  0  0
  142.2820   79.6155  221.9053 H   0  0  0  0  0  0  0  0  0  0  0  0
  142.5109   77.9832  222.5980 H   0  0  0  0  0  0  0  0  0  0  0  0
  140.2773   78.8517  220.6494 H   0  0  0  0  0  0  0  0  0  0  0  0
  142.7578   76.1225  220.5033 H   0  0  0  0  0  0  0  0  0  0  0  0
  143.9932   75.8386  218.3934 H   0  0  0  0  0  0  0  0  0  0  0  0
  143.6401   77.4526  216.5028 H   0  0  0  0  0  0  0  0  0  0  0  0
  142.0174   79.3161  216.8261 H   0  0  0  0  0  0  0  0  0  0  0  0
  140.8123   79.5772  218.9156 H   0  0  0  0  0  0  0  0  0  0  0  0
  138.9852   70.2575  222.3147 H   0  0  0  0  0  0  0  0  0  0  0  0
  138.7416   68.5846  224.1533 H   0  0  0  0  0  0  0  0  0  0  0  0
  139.1877   67.9654  226.5170 H   0  0  0  0  0  0  0  0  0  0  0  0
  141.3422   70.7120  229.0350 H   0  0  0  0  0  0  0  0  0  0  0  0
  141.5214   72.3110  227.1238 H   0  0  0  0  0  0  0  0  0  0  0  0
  1  2  2  0
  2  3  1  0
  3  4  1  0
  4  5  1  0
  5  6  2  0
  5  7  1  0
  7  8  1  0
  8  9  1  0
  9 10  1  0
 10 11  1  0
 11 12  1  0
 12 13  1  0
 13 14  2  0
 14 15  1  0
 15 16  2  0
 16 17  1  0
 17 18  2  0
  2 19  1  0
 19 20  2  0
 20 21  1  0
 21 22  2  0
 22 23  1  0
 23 24  2  0
 24 25  1  0
 24 26  1  0
 26 27  2  0
 27 28  1  0
 28 29  2  0
 12  7  1  0
 18 13  1  0
 29 19  1  0
 28 22  1  0
  3 30  1  0
  4 31  1  0
  4 32  1  0
  8 33  1  0
  8 34  1  0
  9 35  1  0
  9 36  1  0
 10 37  1  0
 10 38  1  0
 11 39  1  0
 11 40  1  0
 12 41  1  6
 14 42  1  0
 15 43  1  0
 16 44  1  0
 17 45  1  0
 18 46  1  0
 20 47  1  0
 21 48  1  0
 23 49  1  0
 26 50  1  0
 27 51  1  0
M  END
>  <smiles>  (91) 
O=C(NCC(=O)N1CCCCC1c1ccccc1)c1ccc2cc(F)ccc2n1

>  <score_type>  (91) 
oracle

>  <origin>  (91) 
autodockgpu

>  <m_score__min__energy>  (91) 
-9.2599999999999998

>  <m_primary>  (91) 
energy

>  <rmsd>  (91) 
2.9825429030638717

>  <m_score__min__rmsd>  (91) 
2.9825429030638717

>  <meeko>  (91) 
{"free_energy": -8.78, "intermolecular_energy": -10.27, "internal_energy": -1.28, "cluster_size": 3, "cluster_id": 2, "rank_in_cluster": 1}

>  <energy>  (91) 
-7.95

>  <cluster_rmsd>  (91) 
0.44

>  <cluster>  (91) 
3

$$$$

     RDKit          3D

 51 54  0  0  0  0  0  0  0  0999 V2000
  140.8550   71.8300  221.1720 O   0  0  0  0  0  0  0  0  0  0  0  0
  140.3030   72.3220  222.1850 C   0  0  0  0  0  0  0  0  0  0  0  0
  139.8510   73.6740  222.2420 N   0  0  0  0  0  0  0  0  0  0  0  0
  140.0210   74.5710  221.0760 C   0  0  0  0  0  0  0  0  0  0  0  0
  140.7180   75.7950  221.4930 C   0  0  0  0  0  0  0  0  0  0  0  0
  140.3830   76.2580  222.6470 O   0  0  0  0  0  0  0  0  0  0  0  0
  141.6970   76.5180  220.8060 N   0  0  0  0  0  0  0  0  0  0  0  0
  142.6830   75.6950  220.0560 C   0  0  0  0  0  0  0  0  0  0  0  0
  143.0760   76.4450  218.8040 C   0  0  0  0  0  0  0  0  0  0  0  0
  142.0290   77.3830  218.3130 C   0  0  0  0  0  0  0  0  0  0  0  0
  141.3900   78.2910  219.2950 C   0  0  0  0  0  0  0  0  0  0  0  0
  141.8840   77.9170  220.6820 C   0  0  1  0  0  0  0  0  0  0  0  0
  141.4900   78.8010  221.7540 C   0  0  0  0  0  0  0  0  0  0  0  0
  142.3460   79.3080  222.7180 C   0  0  0  0  0  0  0  0  0  0  0  0
  141.9050   80.1200  223.7460 C   0  0  0  0  0  0  0  0  0  0  0  0
  140.5580   80.4560  223.8420 C   0  0  0  0  0  0  0  0  0  0  0  0
  139.7010   79.9500  222.8800 C   0  0  0  0  0  0  0  0  0  0  0  0
  140.1540   79.1530  221.8790 C   0  0  0  0  0  0  0  0  0  0  0  0
  140.1070   71.4780  223.3760 C   0  0  0  0  0  0  0  0  0  0  0  0
  139.4300   70.2790  223.2680 C   0  0  0  0  0  0  0  0  0  0  0  0
  139.2380   69.4740  224.3940 C   0  0  0  0  0  0  0  0  0  0  0  0
  139.7320   69.8830  225.6170 C   0  0  0  0  0  0  0  0  0  0  0  0
  139.5810   69.1410  226.7660 C   0  0  0  0  0  0  0  0  0  0  0  0
  140.0990   69.6140  227.9450 C   0  0  0  0  0  0  0  0  0  0  0  0
  139.9520   68.8810  229.0960 F   0  0  0  0  0  0  0  0  0  0  0  0
  140.7730   70.8140  228.0310 C   0  0  0  0  0  0  0  0  0  0  0  0
  140.9250   71.5610  226.8810 C   0  0  0  0  0  0  0  0  0  0  0  0
  140.4060   71.0890  225.6930 C   0  0  0  0  0  0  0  0  0  0  0  0
  140.5690   71.8370  224.5840 N   0  0  0  0  0  0  0  0  0  0  0  0
  139.4050   74.0080  223.1180 H   0  0  0  0  0  0  0  0  0  0  0  0
  140.6123   74.0584  220.3030 H   0  0  0  0  0  0  0  0  0  0  0  0
  139.0329   74.8337  220.6702 H   0  0  0  0  0  0  0  0  0  0  0  0
  143.5724   75.5210  220.6795 H   0  0  0  0  0  0  0  0  0  0  0  0
  142.2408   74.7232  219.7914 H   0  0  0  0  0  0  0  0  0  0  0  0
  143.9873   77.0230  219.0174 H   0  0  0  0  0  0  0  0  0  0  0  0
  143.2295   75.6940  218.0150 H   0  0  0  0  0  0  0  0  0  0  0  0
  142.4915   78.0126  217.5386 H   0  0  0  0  0  0  0  0  0  0  0  0
  141.2126   76.7288  217.9732 H   0  0  0  0  0  0  0  0  0  0  0  0
  141.6633   79.3327  219.0711 H   0  0  0  0  0  0  0  0  0  0  0  0
  140.2954   78.1949  219.2438 H   0  0  0  0  0  0  0  0  0  0  0  0
  142.9604   78.1074  220.8048 H   0  0  0  0  0  0  0  0  0  0  0  0
  143.4152   79.0553  222.6634 H   0  0  0  0  0  0  0  0  0  0  0  0
  142.6202   80.5014  224.4897 H   0  0  0  0  0  0  0  0  0  0  0  0
  140.1877   81.1004  224.6530 H   0  0  0  0  0  0  0  0  0  0  0  0
  138.6306   80.1989  222.9277 H   0  0  0  0  0  0  0  0  0  0  0  0
  139.4347   78.7719  221.1391 H   0  0  0  0  0  0  0  0  0  0  0  0
  139.0402   69.9563  222.2913 H   0  0  0  0  0  0  0  0  0  0  0  0
  138.6967   68.5204  224.3067 H   0  0  0  0  0  0  0  0  0  0  0  0
  139.0501   68.1780  226.7394 H   0  0  0  0  0  0  0  0  0  0  0  0
  141.1786   71.1663  228.9909 H   0  0  0  0  0  0  0  0  0  0  0  0
  141.4553   72.5243  226.9111 H   0  0  0  0  0  0  0  0  0  0  0  0
  1  2  2  0
  2  3  1  0
  3  4  1  0
  4  5  1  0
  5  6  2  0
  5  7  1  0
  7  8  1  0
  8  9  1  0
  9 10  1  0
 10 11  1  0
 11 12  1  0
 12 13  1  0
 13 14  2  0
 14 15  1  0
 15 16  2  0
 16 17  1  0
 17 18  2  0
  2 19  1  0
 19 20  2  0
 20 21  1  0
 21 22  2  0
 22 23  1  0
 23 24  2  0
 24 25  1  0
 24 26  1  0
 26 27  2  0
 27 28  1  0
 28 29  2  0
 12  7  1  0
 18 13  1  0
 29 19  1  0
 28 22  1  0
  3 30  1  0
  4 31  1  0
  4 32  1  0
  8 33  1  0
  8 34  1  0
  9 35  1  0
  9 36  1  0
 10 37  1  0
 10 38  1  0
 11 39  1  0
 11 40  1  0
 12 41  1  6
 14 42  1  0
 15 43  1  0
 16 44  1  0
 17 45  1  0
 18 46  1  0
 20 47  1  0
 21 48  1  0
 23 49  1  0
 26 50  1  0
 27 51  1  0
M  END
>  <smiles>  (92) 
O=C(NCC(=O)N1CCCCC1c1ccccc1)c1ccc2cc(F)ccc2n1

>  <score_type>  (92) 
oracle

>  <origin>  (92) 
autodockgpu

>  <m_score__min__energy>  (92) 
-9.2599999999999998

>  <m_primary>  (92) 
energy

>  <rmsd>  (92) 
2.0957996478127887

>  <m_score__min__rmsd>  (92) 
2.0957996478127887

>  <meeko>  (92) 
{"free_energy": -9.06, "intermolecular_energy": -10.55, "internal_energy": -1.64, "cluster_size": 23, "cluster_id": 1, "rank_in_cluster": 11}

>  <energy>  (92) 
-8.04

>  <cluster_rmsd>  (92) 
0.0

>  <cluster>  (92) 
4

$$$$

     RDKit          3D

 51 54  0  0  0  0  0  0  0  0999 V2000
  138.9800   71.0140  221.1560 O   0  0  0  0  0  0  0  0  0  0  0  0
  139.2480   71.5920  222.2370 C   0  0  0  0  0  0  0  0  0  0  0  0
  139.3680   73.0090  222.3490 N   0  0  0  0  0  0  0  0  0  0  0  0
  139.1730   73.8740  221.1640 C   0  0  0  0  0  0  0  0  0  0  0  0
  140.2160   74.9080  221.1320 C   0  0  0  0  0  0  0  0  0  0  0  0
  140.6420   75.3020  222.2820 O   0  0  0  0  0  0  0  0  0  0  0  0
  140.8080   75.5160  220.0220 N   0  0  0  0  0  0  0  0  0  0  0  0
  139.8630   76.1730  219.0800 C   0  0  0  0  0  0  0  0  0  0  0  0
  140.5400   77.3930  218.4990 C   0  0  0  0  0  0  0  0  0  0  0  0
  141.5830   77.9800  219.3850 C   0  0  0  0  0  0  0  0  0  0  0  0
  142.5770   77.0630  219.9930 C   0  0  0  0  0  0  0  0  0  0  0  0
  142.1740   75.6360  219.6640 C   0  0  1  0  0  0  0  0  0  0  0  0
  143.1170   74.6080  220.0390 C   0  0  0  0  0  0  0  0  0  0  0  0
  142.7890   73.2870  220.2950 C   0  0  0  0  0  0  0  0  0  0  0  0
  143.7290   72.3540  220.6900 C   0  0  0  0  0  0  0  0  0  0  0  0
  145.0610   72.7280  220.8440 C   0  0  0  0  0  0  0  0  0  0  0  0
  145.3910   74.0470  220.5890 C   0  0  0  0  0  0  0  0  0  0  0  0
  144.4520   74.9480  220.2030 C   0  0  0  0  0  0  0  0  0  0  0  0
  139.4530   70.7830  223.4510 C   0  0  0  0  0  0  0  0  0  0  0  0
  139.0490   69.4620  223.4760 C   0  0  0  0  0  0  0  0  0  0  0  0
  139.2380   68.6890  224.6240 C   0  0  0  0  0  0  0  0  0  0  0  0
  139.8330   69.2530  225.7370 C   0  0  0  0  0  0  0  0  0  0  0  0
  140.0510   68.5520  226.9000 C   0  0  0  0  0  0  0  0  0  0  0  0
  140.6470   69.1810  227.9630 C   0  0  0  0  0  0  0  0  0  0  0  0
  140.8680   68.4900  229.1280 F   0  0  0  0  0  0  0  0  0  0  0  0
  141.0440   70.5010  227.9170 C   0  0  0  0  0  0  0  0  0  0  0  0
  140.8260   71.2080  226.7520 C   0  0  0  0  0  0  0  0  0  0  0  0
  140.2270   70.5790  225.6800 C   0  0  0  0  0  0  0  0  0  0  0  0
  140.0260   71.2900  224.5530 N   0  0  0  0  0  0  0  0  0  0  0  0
  139.5930   73.4120  223.2790 H   0  0  0  0  0  0  0  0  0  0  0  0
  139.2345   73.2636  220.2510 H   0  0  0  0  0  0  0  0  0  0  0  0
  138.1846   74.3536  221.2203 H   0  0  0  0  0  0  0  0  0  0  0  0
  139.5982   75.4749  218.2722 H   0  0  0  0  0  0  0  0  0  0  0  0
  138.9444   76.4664  219.6092 H   0  0  0  0  0  0  0  0  0  0  0  0
  141.0133   77.1072  217.5480 H   0  0  0  0  0  0  0  0  0  0  0  0
  139.7620   78.1596  218.3681 H   0  0  0  0  0  0  0  0  0  0  0  0
  142.1403   78.7181  218.7895 H   0  0  0  0  0  0  0  0  0  0  0  0
  141.0214   78.3826  220.2408 H   0  0  0  0  0  0  0  0  0  0  0  0
  143.5757   77.2716  219.5817 H   0  0  0  0  0  0  0  0  0  0  0  0
  142.6073   77.2062  221.0832 H   0  0  0  0  0  0  0  0  0  0  0  0
  142.2416   75.4243  218.5867 H   0  0  0  0  0  0  0  0  0  0  0  0
  141.7423   72.9688  220.1798 H   0  0  0  0  0  0  0  0  0  0  0  0
  143.4243   71.3148  220.8829 H   0  0  0  0  0  0  0  0  0  0  0  0
  145.8242   72.0004  221.1574 H   0  0  0  0  0  0  0  0  0  0  0  0
  146.4358   74.3723  220.7014 H   0  0  0  0  0  0  0  0  0  0  0  0
  144.7611   75.9865  220.0131 H   0  0  0  0  0  0  0  0  0  0  0  0
  138.5764   69.0170  222.5879 H   0  0  0  0  0  0  0  0  0  0  0  0
  138.9153   67.6376  224.6423 H   0  0  0  0  0  0  0  0  0  0  0  0
  139.7501   67.4967  226.9768 H   0  0  0  0  0  0  0  0  0  0  0  0
  141.5217   70.9776  228.7857 H   0  0  0  0  0  0  0  0  0  0  0  0
  141.1271   72.2635  226.6788 H   0  0  0  0  0  0  0  0  0  0  0  0
  1  2  2  0
  2  3  1  0
  3  4  1  0
  4  5  1  0
  5  6  2  0
  5  7  1  0
  7  8  1  0
  8  9  1  0
  9 10  1  0
 10 11  1  0
 11 12  1  0
 12 13  1  0
 13 14  2  0
 14 15  1  0
 15 16  2  0
 16 17  1  0
 17 18  2  0
  2 19  1  0
 19 20  2  0
 20 21  1  0
 21 22  2  0
 22 23  1  0
 23 24  2  0
 24 25  1  0
 24 26  1  0
 26 27  2  0
 27 28  1  0
 28 29  2  0
 12  7  1  0
 18 13  1  0
 29 19  1  0
 28 22  1  0
  3 30  1  0
  4 31  1  0
  4 32  1  0
  8 33  1  0
  8 34  1  0
  9 35  1  0
  9 36  1  0
 10 37  1  0
 10 38  1  0
 11 39  1  0
 11 40  1  0
 12 41  1  6
 14 42  1  0
 15 43  1  0
 16 44  1  0
 17 45  1  0
 18 46  1  0
 20 47  1  0
 21 48  1  0
 23 49  1  0
 26 50  1  0
 27 51  1  0
M  END
>  <smiles>  (93) 
O=C(NCC(=O)N1CCCCC1c1ccccc1)c1ccc2cc(F)ccc2n1

>  <score_type>  (93) 
oracle

>  <origin>  (93) 
autodockgpu

>  <m_score__min__energy>  (93) 
-9.2599999999999998

>  <m_primary>  (93) 
energy

>  <rmsd>  (93) 
1.5264185887994575

>  <m_score__min__rmsd>  (93) 
1.5264185887994575

>  <meeko>  (93) 
{"free_energy": -8.19, "intermolecular_energy": -9.69, "internal_energy": -2.1, "cluster_size": 15, "cluster_id": 3, "rank_in_cluster": 6}

>  <energy>  (93) 
-8.01

>  <cluster_rmsd>  (93) 
0.2

>  <cluster>  (93) 
4

$$$$

     RDKit          3D

 51 54  0  0  0  0  0  0  0  0999 V2000
  139.0020   70.9160  221.1230 O   0  0  0  0  0  0  0  0  0  0  0  0
  139.2600   71.5090  222.1980 C   0  0  0  0  0  0  0  0  0  0  0  0
  139.3770   72.9280  222.2920 N   0  0  0  0  0  0  0  0  0  0  0  0
  139.1930   73.7770  221.0930 C   0  0  0  0  0  0  0  0  0  0  0  0
  140.1700   74.8740  221.1100 C   0  0  0  0  0  0  0  0  0  0  0  0
  140.4970   75.3060  222.2790 O   0  0  0  0  0  0  0  0  0  0  0  0
  140.7930   75.5050  220.0300 N   0  0  0  0  0  0  0  0  0  0  0  0
  139.8750   76.1980  219.0870 C   0  0  0  0  0  0  0  0  0  0  0  0
  140.5770   77.4270  218.5560 C   0  0  0  0  0  0  0  0  0  0  0  0
  141.6060   77.9770  219.4790 C   0  0  0  0  0  0  0  0  0  0  0  0
  142.5780   77.0330  220.0830 C   0  0  0  0  0  0  0  0  0  0  0  0
  142.1670   75.6200  219.7050 C   0  0  1  0  0  0  0  0  0  0  0  0
  143.0910   74.5720  220.0720 C   0  0  0  0  0  0  0  0  0  0  0  0
  142.7320   73.2680  220.3720 C   0  0  0  0  0  0  0  0  0  0  0  0
  143.6570   72.3160  220.7550 C   0  0  0  0  0  0  0  0  0  0  0  0
  145.0040   72.6500  220.8530 C   0  0  0  0  0  0  0  0  0  0  0  0
  145.3650   73.9520  220.5540 C   0  0  0  0  0  0  0  0  0  0  0  0
  144.4410   74.8740  220.1800 C   0  0  0  0  0  0  0  0  0  0  0  0
  139.4540   70.7180  223.4250 C   0  0  0  0  0  0  0  0  0  0  0  0
  139.0320   69.4030  223.4710 C   0  0  0  0  0  0  0  0  0  0  0  0
  139.2110   68.6460  224.6320 C   0  0  0  0  0  0  0  0  0  0  0  0
  139.8130   69.2200  225.7350 C   0  0  0  0  0  0  0  0  0  0  0  0
  140.0210   68.5350  226.9100 C   0  0  0  0  0  0  0  0  0  0  0  0
  140.6260   69.1730  227.9630 C   0  0  0  0  0  0  0  0  0  0  0  0
  140.8370   68.4980  229.1380 F   0  0  0  0  0  0  0  0  0  0  0  0
  141.0400   70.4870  227.8950 C   0  0  0  0  0  0  0  0  0  0  0  0
  140.8320   71.1770  226.7190 C   0  0  0  0  0  0  0  0  0  0  0  0
  140.2240   70.5390  225.6570 C   0  0  0  0  0  0  0  0  0  0  0  0
  140.0330   71.2350  224.5190 N   0  0  0  0  0  0  0  0  0  0  0  0
  139.5940   73.3440  223.2180 H   0  0  0  0  0  0  0  0  0  0  0  0
  139.3409   73.1693  220.1881 H   0  0  0  0  0  0  0  0  0  0  0  0
  138.1754   74.1947  221.0944 H   0  0  0  0  0  0  0  0  0  0  0  0
  139.6211   75.5259  218.2540 H   0  0  0  0  0  0  0  0  0  0  0  0
  138.9478   76.4856  219.6042 H   0  0  0  0  0  0  0  0  0  0  0  0
  141.0675   77.1635  217.6073 H   0  0  0  0  0  0  0  0  0  0  0  0
  139.8097   78.2053  218.4315 H   0  0  0  0  0  0  0  0  0  0  0  0
  142.1836   78.7250  218.9161 H   0  0  0  0  0  0  0  0  0  0  0  0
  141.0300   78.3613  220.3337 H   0  0  0  0  0  0  0  0  0  0  0  0
  143.5875   77.2421  219.6993 H   0  0  0  0  0  0  0  0  0  0  0  0
  142.5867   77.1458  221.1772 H   0  0  0  0  0  0  0  0  0  0  0  0
  142.2553   75.4379  218.6238 H   0  0  0  0  0  0  0  0  0  0  0  0
  141.6725   72.9803  220.3027 H   0  0  0  0  0  0  0  0  0  0  0  0
  143.3277   71.2915  220.9830 H   0  0  0  0  0  0  0  0  0  0  0  0
  145.7549   71.9060  221.1572 H   0  0  0  0  0  0  0  0  0  0  0  0
  146.4228   74.2463  220.6207 H   0  0  0  0  0  0  0  0  0  0  0  0
  144.7748   75.8976  219.9544 H   0  0  0  0  0  0  0  0  0  0  0  0
  138.5532   68.9502  222.5902 H   0  0  0  0  0  0  0  0  0  0  0  0
  138.8745   67.5993  224.6674 H   0  0  0  0  0  0  0  0  0  0  0  0
  139.7051   67.4856  227.0042 H   0  0  0  0  0  0  0  0  0  0  0  0
  141.5233   70.9718  228.7560 H   0  0  0  0  0  0  0  0  0  0  0  0
  141.1480   72.2267  226.6284 H   0  0  0  0  0  0  0  0  0  0  0  0
  1  2  2  0
  2  3  1  0
  3  4  1  0
  4  5  1  0
  5  6  2  0
  5  7  1  0
  7  8  1  0
  8  9  1  0
  9 10  1  0
 10 11  1  0
 11 12  1  0
 12 13  1  0
 13 14  2  0
 14 15  1  0
 15 16  2  0
 16 17  1  0
 17 18  2  0
  2 19  1  0
 19 20  2  0
 20 21  1  0
 21 22  2  0
 22 23  1  0
 23 24  2  0
 24 25  1  0
 24 26  1  0
 26 27  2  0
 27 28  1  0
 28 29  2  0
 12  7  1  0
 18 13  1  0
 29 19  1  0
 28 22  1  0
  3 30  1  0
  4 31  1  0
  4 32  1  0
  8 33  1  0
  8 34  1  0
  9 35  1  0
  9 36  1  0
 10 37  1  0
 10 38  1  0
 11 39  1  0
 11 40  1  0
 12 41  1  6
 14 42  1  0
 15 43  1  0
 16 44  1  0
 17 45  1  0
 18 46  1  0
 20 47  1  0
 21 48  1  0
 23 49  1  0
 26 50  1  0
 27 51  1  0
M  END
>  <smiles>  (94) 
O=C(NCC(=O)N1CCCCC1c1ccccc1)c1ccc2cc(F)ccc2n1

>  <score_type>  (94) 
oracle

>  <origin>  (94) 
autodockgpu

>  <m_score__min__energy>  (94) 
-9.2599999999999998

>  <m_primary>  (94) 
energy

>  <rmsd>  (94) 
1.5441685744238645

>  <m_score__min__rmsd>  (94) 
1.5441685744238645

>  <meeko>  (94) 
{"free_energy": -8.18, "intermolecular_energy": -9.67, "internal_energy": -2.11, "cluster_size": 15, "cluster_id": 3, "rank_in_cluster": 9}

>  <energy>  (94) 
-7.99

>  <cluster_rmsd>  (94) 
0.21

>  <cluster>  (94) 
4

$$$$

     RDKit          3D

 51 54  0  0  0  0  0  0  0  0999 V2000
  133.2760   69.9890  226.5220 O   0  0  0  0  0  0  0  0  0  0  0  0
  133.7900   71.0880  226.2040 C   0  0  0  0  0  0  0  0  0  0  0  0
  134.9780   71.1900  225.4210 N   0  0  0  0  0  0  0  0  0  0  0  0
  135.6660   69.9710  224.9390 C   0  0  0  0  0  0  0  0  0  0  0  0
  136.7980   70.3490  224.0830 C   0  0  0  0  0  0  0  0  0  0  0  0
  136.7910   71.5670  223.6610 O   0  0  0  0  0  0  0  0  0  0  0  0
  137.8800   69.5670  223.6710 N   0  0  0  0  0  0  0  0  0  0  0  0
  137.5540   68.5070  222.6800 C   0  0  0  0  0  0  0  0  0  0  0  0
  138.7340   68.3450  221.7490 C   0  0  0  0  0  0  0  0  0  0  0  0
  139.5610   69.5750  221.6090 C   0  0  0  0  0  0  0  0  0  0  0  0
  139.9570   70.2930  222.8440 C   0  0  0  0  0  0  0  0  0  0  0  0
  139.2510   69.6430  224.0210 C   0  0  1  0  0  0  0  0  0  0  0  0
  139.6410   70.1100  225.3310 C   0  0  0  0  0  0  0  0  0  0  0  0
  140.3750   71.2590  225.5770 C   0  0  0  0  0  0  0  0  0  0  0  0
  140.7540   71.6370  226.8510 C   0  0  0  0  0  0  0  0  0  0  0  0
  140.3990   70.8540  227.9460 C   0  0  0  0  0  0  0  0  0  0  0  0
  139.6650   69.7070  227.7030 C   0  0  0  0  0  0  0  0  0  0  0  0
  139.3040   69.3520  226.4440 C   0  0  0  0  0  0  0  0  0  0  0  0
  133.1510   72.3360  226.6550 C   0  0  0  0  0  0  0  0  0  0  0  0
  131.9270   72.2930  227.2940 C   0  0  0  0  0  0  0  0  0  0  0  0
  131.3130   73.4720  227.7230 C   0  0  0  0  0  0  0  0  0  0  0  0
  131.9380   74.6850  227.5040 C   0  0  0  0  0  0  0  0  0  0  0  0
  131.3930   75.8850  227.8990 C   0  0  0  0  0  0  0  0  0  0  0  0
  132.0740   77.0490  227.6470 C   0  0  0  0  0  0  0  0  0  0  0  0
  131.5370   78.2500  228.0370 F   0  0  0  0  0  0  0  0  0  0  0  0
  133.2950   77.0700  227.0080 C   0  0  0  0  0  0  0  0  0  0  0  0
  133.8450   75.8690  226.6100 C   0  0  0  0  0  0  0  0  0  0  0  0
  133.1640   74.6950  226.8620 C   0  0  0  0  0  0  0  0  0  0  0  0
  133.7220   73.5360  226.4640 N   0  0  0  0  0  0  0  0  0  0  0  0
  135.3430   72.1370  225.2010 H   0  0  0  0  0  0  0  0  0  0  0  0
  136.0349   69.3943  225.8000 H   0  0  0  0  0  0  0  0  0  0  0  0
  134.9595   69.3580  224.3601 H   0  0  0  0  0  0  0  0  0  0  0  0
  137.3592   67.5582  223.2014 H   0  0  0  0  0  0  0  0  0  0  0  0
  136.6571   68.7872  222.1081 H   0  0  0  0  0  0  0  0  0  0  0  0
  139.3740   67.5389  222.1370 H   0  0  0  0  0  0  0  0  0  0  0  0
  138.3275   68.1166  220.7527 H   0  0  0  0  0  0  0  0  0  0  0  0
  140.4857   69.2894  221.0862 H   0  0  0  0  0  0  0  0  0  0  0  0
  138.9101   70.2840  221.0764 H   0  0  0  0  0  0  0  0  0  0  0  0
  141.0464   70.2255  222.9803 H   0  0  0  0  0  0  0  0  0  0  0  0
  139.6755   71.3539  222.7722 H   0  0  0  0  0  0  0  0  0  0  0  0
  139.5948   68.6120  224.1910 H   0  0  0  0  0  0  0  0  0  0  0  0
  140.6667   71.8936  224.7272 H   0  0  0  0  0  0  0  0  0  0  0  0
  141.3370   72.5578  227.0001 H   0  0  0  0  0  0  0  0  0  0  0  0
  140.6917   71.1373  228.9678 H   0  0  0  0  0  0  0  0  0  0  0  0
  139.3676   69.0691  228.5483 H   0  0  0  0  0  0  0  0  0  0  0  0
  138.7227   68.4293  226.3001 H   0  0  0  0  0  0  0  0  0  0  0  0
  131.4333   71.3252  227.4659 H   0  0  0  0  0  0  0  0  0  0  0  0
  130.3384   73.4352  228.2318 H   0  0  0  0  0  0  0  0  0  0  0  0
  130.4203   75.9109  228.4121 H   0  0  0  0  0  0  0  0  0  0  0  0
  133.8174   78.0197  226.8202 H   0  0  0  0  0  0  0  0  0  0  0  0
  134.8175   75.8471  226.0964 H   0  0  0  0  0  0  0  0  0  0  0  0
  1  2  2  0
  2  3  1  0
  3  4  1  0
  4  5  1  0
  5  6  2  0
  5  7  1  0
  7  8  1  0
  8  9  1  0
  9 10  1  0
 10 11  1  0
 11 12  1  0
 12 13  1  0
 13 14  2  0
 14 15  1  0
 15 16  2  0
 16 17  1  0
 17 18  2  0
  2 19  1  0
 19 20  2  0
 20 21  1  0
 21 22  2  0
 22 23  1  0
 23 24  2  0
 24 25  1  0
 24 26  1  0
 26 27  2  0
 27 28  1  0
 28 29  2  0
 12  7  1  0
 18 13  1  0
 29 19  1  0
 28 22  1  0
  3 30  1  0
  4 31  1  0
  4 32  1  0
  8 33  1  0
  8 34  1  0
  9 35  1  0
  9 36  1  0
 10 37  1  0
 10 38  1  0
 11 39  1  0
 11 40  1  0
 12 41  1  1
 14 42  1  0
 15 43  1  0
 16 44  1  0
 17 45  1  0
 18 46  1  0
 20 47  1  0
 21 48  1  0
 23 49  1  0
 26 50  1  0
 27 51  1  0
M  END
>  <smiles>  (95) 
O=C(NCC(=O)N1CCCCC1c1ccccc1)c1ccc2cc(F)ccc2n1

>  <score_type>  (95) 
oracle

>  <origin>  (95) 
autodockgpu

>  <m_score__min__energy>  (95) 
-9.2599999999999998

>  <m_primary>  (95) 
energy

>  <rmsd>  (95) 
8.617990608212715

>  <m_score__min__rmsd>  (95) 
8.617990608212715

>  <meeko>  (95) 
{"free_energy": -8.01, "intermolecular_energy": -9.5, "internal_energy": -2.22, "cluster_size": 4, "cluster_id": 4, "rank_in_cluster": 2}

>  <energy>  (95) 
-7.98

>  <cluster_rmsd>  (95) 
1.58

>  <cluster>  (95) 
4

$$$$

     RDKit          3D

 51 54  0  0  0  0  0  0  0  0999 V2000
  141.1720   72.4190  221.6150 O   0  0  0  0  0  0  0  0  0  0  0  0
  140.2360   72.5870  222.4340 C   0  0  0  0  0  0  0  0  0  0  0  0
  139.3070   73.6650  222.3380 N   0  0  0  0  0  0  0  0  0  0  0  0
  139.4140   74.6530  221.2410 C   0  0  0  0  0  0  0  0  0  0  0  0
  140.3780   75.6990  221.6110 C   0  0  0  0  0  0  0  0  0  0  0  0
  141.5450   75.2790  221.9580 O   0  0  0  0  0  0  0  0  0  0  0  0
  140.1970   77.0840  221.6310 N   0  0  0  0  0  0  0  0  0  0  0  0
  139.0390   77.5600  222.4340 C   0  0  0  0  0  0  0  0  0  0  0  0
  139.4040   78.8880  223.0570 C   0  0  0  0  0  0  0  0  0  0  0  0
  140.8660   79.0690  223.2710 C   0  0  0  0  0  0  0  0  0  0  0  0
  141.7810   78.7410  222.1510 C   0  0  0  0  0  0  0  0  0  0  0  0
  140.9630   78.1160  221.0340 C   0  0  1  0  0  0  0  0  0  0  0  0
  141.6620   77.8770  219.7940 C   0  0  0  0  0  0  0  0  0  0  0  0
  141.3800   78.5040  218.5910 C   0  0  0  0  0  0  0  0  0  0  0  0
  142.0590   78.2070  217.4240 C   0  0  0  0  0  0  0  0  0  0  0  0
  143.0670   77.2470  217.4280 C   0  0  0  0  0  0  0  0  0  0  0  0
  143.3510   76.6200  218.6280 C   0  0  0  0  0  0  0  0  0  0  0  0
  142.6720   76.9260  219.7630 C   0  0  0  0  0  0  0  0  0  0  0  0
  140.0780   71.6360  223.5470 C   0  0  0  0  0  0  0  0  0  0  0  0
  139.3950   70.4510  223.3510 C   0  0  0  0  0  0  0  0  0  0  0  0
  139.2400   69.5450  224.4030 C   0  0  0  0  0  0  0  0  0  0  0  0
  139.7750   69.8400  225.6430 C   0  0  0  0  0  0  0  0  0  0  0  0
  139.6610   68.9950  226.7220 C   0  0  0  0  0  0  0  0  0  0  0  0
  140.2180   69.3570  227.9220 C   0  0  0  0  0  0  0  0  0  0  0  0
  140.1090   68.5210  229.0040 F   0  0  0  0  0  0  0  0  0  0  0  0
  140.8960   70.5450  228.0960 C   0  0  0  0  0  0  0  0  0  0  0  0
  141.0120   71.3950  227.0160 C   0  0  0  0  0  0  0  0  0  0  0  0
  140.4530   71.0350  225.8070 C   0  0  0  0  0  0  0  0  0  0  0  0
  140.5810   71.8820  224.7670 N   0  0  0  0  0  0  0  0  0  0  0  0
  138.5600   73.7370  223.0560 H   0  0  0  0  0  0  0  0  0  0  0  0
  139.7555   74.1478  220.3255 H   0  0  0  0  0  0  0  0  0  0  0  0
  138.4293   75.1102  221.0641 H   0  0  0  0  0  0  0  0  0  0  0  0
  138.1612   77.6839  221.7828 H   0  0  0  0  0  0  0  0  0  0  0  0
  138.7969   76.8282  223.2188 H   0  0  0  0  0  0  0  0  0  0  0  0
  139.0482   79.6912  222.3950 H   0  0  0  0  0  0  0  0  0  0  0  0
  138.9286   78.9185  224.0485 H   0  0  0  0  0  0  0  0  0  0  0  0
  141.0302   80.1258  223.5283 H   0  0  0  0  0  0  0  0  0  0  0  0
  141.1204   78.3405  224.0550 H   0  0  0  0  0  0  0  0  0  0  0  0
  142.2675   79.6581  221.7874 H   0  0  0  0  0  0  0  0  0  0  0  0
  142.5581   78.0399  222.4895 H   0  0  0  0  0  0  0  0  0  0  0  0
  140.2501   78.8290  220.5942 H   0  0  0  0  0  0  0  0  0  0  0  0
  140.5870   79.2658  218.5635 H   0  0  0  0  0  0  0  0  0  0  0  0
  141.8024   78.7300  216.4910 H   0  0  0  0  0  0  0  0  0  0  0  0
  143.6181   76.9959  216.5097 H   0  0  0  0  0  0  0  0  0  0  0  0
  144.1433   75.8578  218.6632 H   0  0  0  0  0  0  0  0  0  0  0  0
  142.9323   76.4001  220.6934 H   0  0  0  0  0  0  0  0  0  0  0  0
  138.9715   70.2200  222.3624 H   0  0  0  0  0  0  0  0  0  0  0  0
  138.6954   68.6023  224.2455 H   0  0  0  0  0  0  0  0  0  0  0  0
  139.1281   68.0378  226.6236 H   0  0  0  0  0  0  0  0  0  0  0  0
  141.3329   70.8079  229.0706 H   0  0  0  0  0  0  0  0  0  0  0  0
  141.5455   72.3516  227.1177 H   0  0  0  0  0  0  0  0  0  0  0  0
  1  2  2  0
  2  3  1  0
  3  4  1  0
  4  5  1  0
  5  6  2  0
  5  7  1  0
  7  8  1  0
  8  9  1  0
  9 10  1  0
 10 11  1  0
 11 12  1  0
 12 13  1  0
 13 14  2  0
 14 15  1  0
 15 16  2  0
 16 17  1  0
 17 18  2  0
  2 19  1  0
 19 20  2  0
 20 21  1  0
 21 22  2  0
 22 23  1  0
 23 24  2  0
 24 25  1  0
 24 26  1  0
 26 27  2  0
 27 28  1  0
 28 29  2  0
 12  7  1  0
 18 13  1  0
 29 19  1  0
 28 22  1  0
  3 30  1  0
  4 31  1  0
  4 32  1  0
  8 33  1  0
  8 34  1  0
  9 35  1  0
  9 36  1  0
 10 37  1  0
 10 38  1  0
 11 39  1  0
 11 40  1  0
 12 41  1  6
 14 42  1  0
 15 43  1  0
 16 44  1  0
 17 45  1  0
 18 46  1  0
 20 47  1  0
 21 48  1  0
 23 49  1  0
 26 50  1  0
 27 51  1  0
M  END
>  <smiles>  (96) 
O=C(NCC(=O)N1CCCCC1c1ccccc1)c1ccc2cc(F)ccc2n1

>  <score_type>  (96) 
oracle

>  <origin>  (96) 
autodockgpu

>  <m_score__min__energy>  (96) 
-9.2599999999999998

>  <m_primary>  (96) 
energy

>  <rmsd>  (96) 
2.96324993492004

>  <m_score__min__rmsd>  (96) 
2.96324993492004

>  <meeko>  (96) 
{"free_energy": -8.66, "intermolecular_energy": -10.15, "internal_energy": -1.3, "cluster_size": 3, "cluster_id": 2, "rank_in_cluster": 3}

>  <energy>  (96) 
-7.98

>  <cluster_rmsd>  (96) 
0.0

>  <cluster>  (96) 
5

$$$$

     RDKit          3D

 51 54  0  0  0  0  0  0  0  0999 V2000
  140.9140   71.9470  221.1930 O   0  0  0  0  0  0  0  0  0  0  0  0
  140.3340   72.4190  222.2000 C   0  0  0  0  0  0  0  0  0  0  0  0
  139.8540   73.7610  222.2590 N   0  0  0  0  0  0  0  0  0  0  0  0
  140.0260   74.6720  221.1050 C   0  0  0  0  0  0  0  0  0  0  0  0
  140.8210   75.8380  221.5110 C   0  0  0  0  0  0  0  0  0  0  0  0
  140.6090   76.2640  222.7080 O   0  0  0  0  0  0  0  0  0  0  0  0
  141.7780   76.5420  220.7740 N   0  0  0  0  0  0  0  0  0  0  0  0
  142.7130   75.7000  219.9830 C   0  0  0  0  0  0  0  0  0  0  0  0
  143.0580   76.4370  218.7090 C   0  0  0  0  0  0  0  0  0  0  0  0
  142.0040   77.3880  218.2630 C   0  0  0  0  0  0  0  0  0  0  0  0
  141.4270   78.3120  219.2680 C   0  0  0  0  0  0  0  0  0  0  0  0
  141.9800   77.9370  220.6330 C   0  0  1  0  0  0  0  0  0  0  0  0
  141.6510   78.8330  221.7170 C   0  0  0  0  0  0  0  0  0  0  0  0
  142.5700   79.3900  222.5910 C   0  0  0  0  0  0  0  0  0  0  0  0
  142.1940   80.2110  223.6370 C   0  0  0  0  0  0  0  0  0  0  0  0
  140.8490   80.5060  223.8440 C   0  0  0  0  0  0  0  0  0  0  0  0
  139.9290   79.9510  222.9720 C   0  0  0  0  0  0  0  0  0  0  0  0
  140.3200   79.1460  221.9510 C   0  0  0  0  0  0  0  0  0  0  0  0
  140.1330   71.5610  223.3800 C   0  0  0  0  0  0  0  0  0  0  0  0
  139.4390   70.3720  223.2580 C   0  0  0  0  0  0  0  0  0  0  0  0
  139.2430   69.5530  224.3730 C   0  0  0  0  0  0  0  0  0  0  0  0
  139.7480   69.9390  225.6000 C   0  0  0  0  0  0  0  0  0  0  0  0
  139.5940   69.1830  226.7390 C   0  0  0  0  0  0  0  0  0  0  0  0
  140.1240   69.6320  227.9220 C   0  0  0  0  0  0  0  0  0  0  0  0
  139.9730   68.8850  229.0630 F   0  0  0  0  0  0  0  0  0  0  0  0
  140.8130   70.8220  228.0210 C   0  0  0  0  0  0  0  0  0  0  0  0
  140.9700   71.5830  226.8810 C   0  0  0  0  0  0  0  0  0  0  0  0
  140.4380   71.1350  225.6890 C   0  0  0  0  0  0  0  0  0  0  0  0
  140.6060   71.8960  224.5900 N   0  0  0  0  0  0  0  0  0  0  0  0
  139.3840   74.0780  223.1300 H   0  0  0  0  0  0  0  0  0  0  0  0
  140.5442   74.1405  220.2932 H   0  0  0  0  0  0  0  0  0  0  0  0
  139.0388   75.0075  220.7546 H   0  0  0  0  0  0  0  0  0  0  0  0
  143.6282   75.5146  220.5643 H   0  0  0  0  0  0  0  0  0  0  0  0
  142.2428   74.7344  219.7453 H   0  0  0  0  0  0  0  0  0  0  0  0
  143.9872   77.0017  218.8754 H   0  0  0  0  0  0  0  0  0  0  0  0
  143.1626   75.6796  217.9182 H   0  0  0  0  0  0  0  0  0  0  0  0
  142.4385   78.0055  217.4630 H   0  0  0  0  0  0  0  0  0  0  0  0
  141.1621   76.7446  217.9676 H   0  0  0  0  0  0  0  0  0  0  0  0
  141.7066   79.3477  219.0250 H   0  0  0  0  0  0  0  0  0  0  0  0
  140.3298   78.2342  219.2689 H   0  0  0  0  0  0  0  0  0  0  0  0
  143.0639   78.1107  220.7040 H   0  0  0  0  0  0  0  0  0  0  0  0
  143.6383   79.1707  222.4472 H   0  0  0  0  0  0  0  0  0  0  0  0
  142.9581   80.6320  224.3069 H   0  0  0  0  0  0  0  0  0  0  0  0
  140.5293   81.1569  224.6711 H   0  0  0  0  0  0  0  0  0  0  0  0
  138.8590   80.1664  223.1088 H   0  0  0  0  0  0  0  0  0  0  0  0
  139.5524   78.7262  221.2842 H   0  0  0  0  0  0  0  0  0  0  0  0
  139.0393   70.0692  222.2790 H   0  0  0  0  0  0  0  0  0  0  0  0
  138.6903   68.6071  224.2747 H   0  0  0  0  0  0  0  0  0  0  0  0
  139.0508   68.2272  226.7015 H   0  0  0  0  0  0  0  0  0  0  0  0
  141.2268   71.1560  228.9839 H   0  0  0  0  0  0  0  0  0  0  0  0
  141.5142   72.5381  226.9218 H   0  0  0  0  0  0  0  0  0  0  0  0
  1  2  2  0
  2  3  1  0
  3  4  1  0
  4  5  1  0
  5  6  2  0
  5  7  1  0
  7  8  1  0
  8  9  1  0
  9 10  1  0
 10 11  1  0
 11 12  1  0
 12 13  1  0
 13 14  2  0
 14 15  1  0
 15 16  2  0
 16 17  1  0
 17 18  2  0
  2 19  1  0
 19 20  2  0
 20 21  1  0
 21 22  2  0
 22 23  1  0
 23 24  2  0
 24 25  1  0
 24 26  1  0
 26 27  2  0
 27 28  1  0
 28 29  2  0
 12  7  1  0
 18 13  1  0
 29 19  1  0
 28 22  1  0
  3 30  1  0
  4 31  1  0
  4 32  1  0
  8 33  1  0
  8 34  1  0
  9 35  1  0
  9 36  1  0
 10 37  1  0
 10 38  1  0
 11 39  1  0
 11 40  1  0
 12 41  1  6
 14 42  1  0
 15 43  1  0
 16 44  1  0
 17 45  1  0
 18 46  1  0
 20 47  1  0
 21 48  1  0
 23 49  1  0
 26 50  1  0
 27 51  1  0
M  END
>  <smiles>  (97) 
O=C(NCC(=O)N1CCCCC1c1ccccc1)c1ccc2cc(F)ccc2n1

>  <score_type>  (97) 
oracle

>  <origin>  (97) 
autodockgpu

>  <m_score__min__energy>  (97) 
-9.2599999999999998

>  <m_primary>  (97) 
energy

>  <rmsd>  (97) 
2.1158880044637605

>  <m_score__min__rmsd>  (97) 
2.1158880044637605

>  <meeko>  (97) 
{"free_energy": -9.09, "intermolecular_energy": -10.58, "internal_energy": -1.61, "cluster_size": 23, "cluster_id": 1, "rank_in_cluster": 6}

>  <energy>  (97) 
-7.84

>  <cluster_rmsd>  (97) 
0.4

>  <cluster>  (97) 
5

$$$$

     RDKit          3D

 51 54  0  0  0  0  0  0  0  0999 V2000
  140.5580   71.7280  221.0260 O   0  0  0  0  0  0  0  0  0  0  0  0
  140.1740   72.2570  222.0970 C   0  0  0  0  0  0  0  0  0  0  0  0
  139.8680   73.6460  222.2090 N   0  0  0  0  0  0  0  0  0  0  0  0
  139.9940   74.5390  221.0350 C   0  0  0  0  0  0  0  0  0  0  0  0
  140.6520   75.7900  221.4360 C   0  0  0  0  0  0  0  0  0  0  0  0
  140.2480   76.2960  222.5490 O   0  0  0  0  0  0  0  0  0  0  0  0
  141.6570   76.4990  220.7720 N   0  0  0  0  0  0  0  0  0  0  0  0
  142.6440   75.6630  220.0390 C   0  0  0  0  0  0  0  0  0  0  0  0
  143.0750   76.4110  218.7980 C   0  0  0  0  0  0  0  0  0  0  0  0
  142.0550   77.3690  218.2900 C   0  0  0  0  0  0  0  0  0  0  0  0
  141.4120   78.2840  219.2630 C   0  0  0  0  0  0  0  0  0  0  0  0
  141.8700   77.8950  220.6580 C   0  0  1  0  0  0  0  0  0  0  0  0
  141.4690   78.7810  221.7270 C   0  0  0  0  0  0  0  0  0  0  0  0
  140.2300   79.3920  221.8270 C   0  0  0  0  0  0  0  0  0  0  0  0
  139.9150   80.2620  222.8540 C   0  0  0  0  0  0  0  0  0  0  0  0
  140.8580   80.5550  223.8350 C   0  0  0  0  0  0  0  0  0  0  0  0
  142.0960   79.9460  223.7370 C   0  0  0  0  0  0  0  0  0  0  0  0
  142.3860   79.0940  222.7200 C   0  0  0  0  0  0  0  0  0  0  0  0
  140.0290   71.4190  223.2990 C   0  0  0  0  0  0  0  0  0  0  0  0
  139.4290   70.1780  223.2070 C   0  0  0  0  0  0  0  0  0  0  0  0
  139.2860   69.3780  224.3430 C   0  0  0  0  0  0  0  0  0  0  0  0
  139.7500   69.8340  225.5620 C   0  0  0  0  0  0  0  0  0  0  0  0
  139.6430   69.1010  226.7210 C   0  0  0  0  0  0  0  0  0  0  0  0
  140.1270   69.6210  227.8940 C   0  0  0  0  0  0  0  0  0  0  0  0
  140.0240   68.8970  229.0540 F   0  0  0  0  0  0  0  0  0  0  0  0
  140.7230   70.8620  227.9640 C   0  0  0  0  0  0  0  0  0  0  0  0
  140.8310   71.6020  226.8040 C   0  0  0  0  0  0  0  0  0  0  0  0
  140.3460   71.0810  225.6210 C   0  0  0  0  0  0  0  0  0  0  0  0
  140.4640   71.8230  224.5030 N   0  0  0  0  0  0  0  0  0  0  0  0
  139.5570   74.0090  223.1310 H   0  0  0  0  0  0  0  0  0  0  0  0
  140.5949   74.0416  220.2594 H   0  0  0  0  0  0  0  0  0  0  0  0
  138.9932   74.7636  220.6376 H   0  0  0  0  0  0  0  0  0  0  0  0
  143.5175   75.4719  220.6797 H   0  0  0  0  0  0  0  0  0  0  0  0
  142.1911   74.6997  219.7614 H   0  0  0  0  0  0  0  0  0  0  0  0
  143.9918   76.9721  219.0320 H   0  0  0  0  0  0  0  0  0  0  0  0
  143.2309   75.6604  218.0091 H   0  0  0  0  0  0  0  0  0  0  0  0
  142.5441   77.9936  217.5280 H   0  0  0  0  0  0  0  0  0  0  0  0
  141.2345   76.7306  217.9306 H   0  0  0  0  0  0  0  0  0  0  0  0
  141.7086   79.3216  219.0500 H   0  0  0  0  0  0  0  0  0  0  0  0
  140.3172   78.2078  219.1885 H   0  0  0  0  0  0  0  0  0  0  0  0
  142.9468   78.0665  220.8031 H   0  0  0  0  0  0  0  0  0  0  0  0
  139.4695   79.1773  221.0618 H   0  0  0  0  0  0  0  0  0  0  0  0
  138.9174   80.7235  222.8961 H   0  0  0  0  0  0  0  0  0  0  0  0
  140.6269   81.2463  224.6589 H   0  0  0  0  0  0  0  0  0  0  0  0
  142.8614   80.1561  224.4985 H   0  0  0  0  0  0  0  0  0  0  0  0
  143.3850   78.6351  222.6821 H   0  0  0  0  0  0  0  0  0  0  0  0
  139.0621   69.8182  222.2344 H   0  0  0  0  0  0  0  0  0  0  0  0
  138.8068   68.3907  224.2676 H   0  0  0  0  0  0  0  0  0  0  0  0
  139.1733   68.1064  226.7071 H   0  0  0  0  0  0  0  0  0  0  0  0
  141.1027   71.2524  228.9197 H   0  0  0  0  0  0  0  0  0  0  0  0
  141.2990   72.5973  226.8218 H   0  0  0  0  0  0  0  0  0  0  0  0
  1  2  2  0
  2  3  1  0
  3  4  1  0
  4  5  1  0
  5  6  2  0
  5  7  1  0
  7  8  1  0
  8  9  1  0
  9 10  1  0
 10 11  1  0
 11 12  1  0
 12 13  1  0
 13 14  2  0
 14 15  1  0
 15 16  2  0
 16 17  1  0
 17 18  2  0
  2 19  1  0
 19 20  2  0
 20 21  1  0
 21 22  2  0
 22 23  1  0
 23 24  2  0
 24 25  1  0
 24 26  1  0
 26 27  2  0
 27 28  1  0
 28 29  2  0
 12  7  1  0
 18 13  1  0
 29 19  1  0
 28 22  1  0
  3 30  1  0
  4 31  1  0
  4 32  1  0
  8 33  1  0
  8 34  1  0
  9 35  1  0
  9 36  1  0
 10 37  1  0
 10 38  1  0
 11 39  1  0
 11 40  1  0
 12 41  1  6
 14 42  1  0
 15 43  1  0
 16 44  1  0
 17 45  1  0
 18 46  1  0
 20 47  1  0
 21 48  1  0
 23 49  1  0
 26 50  1  0
 27 51  1  0
M  END
>  <smiles>  (98) 
O=C(NCC(=O)N1CCCCC1c1ccccc1)c1ccc2cc(F)ccc2n1

>  <score_type>  (98) 
oracle

>  <origin>  (98) 
autodockgpu

>  <m_score__min__energy>  (98) 
-9.2599999999999998

>  <m_primary>  (98) 
energy

>  <rmsd>  (98) 
2.053466651061824

>  <m_score__min__rmsd>  (98) 
2.053466651061824

>  <meeko>  (98) 
{"free_energy": -8.98, "intermolecular_energy": -10.47, "internal_energy": -1.72, "cluster_size": 23, "cluster_id": 1, "rank_in_cluster": 14}

>  <energy>  (98) 
-7.57

>  <cluster_rmsd>  (98) 
0.88

>  <cluster>  (98) 
5

$$$$

     RDKit          3D

 51 54  0  0  0  0  0  0  0  0999 V2000
  133.4290   70.0160  226.6430 O   0  0  0  0  0  0  0  0  0  0  0  0
  133.8560   71.1210  226.2300 C   0  0  0  0  0  0  0  0  0  0  0  0
  134.9730   71.2410  225.3500 N   0  0  0  0  0  0  0  0  0  0  0  0
  135.6890   70.0340  224.8790 C   0  0  0  0  0  0  0  0  0  0  0  0
  136.8080   70.4310  224.0130 C   0  0  0  0  0  0  0  0  0  0  0  0
  136.7680   71.6430  223.5770 O   0  0  0  0  0  0  0  0  0  0  0  0
  137.9070   69.6720  223.6040 N   0  0  0  0  0  0  0  0  0  0  0  0
  137.6060   68.6020  222.6160 C   0  0  0  0  0  0  0  0  0  0  0  0
  138.7900   68.4640  221.6870 C   0  0  0  0  0  0  0  0  0  0  0  0
  139.5910   69.7110  221.5450 C   0  0  0  0  0  0  0  0  0  0  0  0
  139.9690   70.4410  222.7790 C   0  0  0  0  0  0  0  0  0  0  0  0
  139.2760   69.7790  223.9570 C   0  0  1  0  0  0  0  0  0  0  0  0
  139.6530   70.2580  225.2660 C   0  0  0  0  0  0  0  0  0  0  0  0
  140.3890   71.4060  225.5080 C   0  0  0  0  0  0  0  0  0  0  0  0
  140.7550   71.7970  226.7820 C   0  0  0  0  0  0  0  0  0  0  0  0
  140.3850   71.0260  227.8810 C   0  0  0  0  0  0  0  0  0  0  0  0
  139.6510   69.8780  227.6420 C   0  0  0  0  0  0  0  0  0  0  0  0
  139.3010   69.5120  226.3820 C   0  0  0  0  0  0  0  0  0  0  0  0
  133.1840   72.3570  226.6650 C   0  0  0  0  0  0  0  0  0  0  0  0
  131.9630   72.2890  227.3080 C   0  0  0  0  0  0  0  0  0  0  0  0
  131.3190   73.4580  227.7220 C   0  0  0  0  0  0  0  0  0  0  0  0
  131.9100   74.6840  227.4860 C   0  0  0  0  0  0  0  0  0  0  0  0
  131.3340   75.8740  227.8660 C   0  0  0  0  0  0  0  0  0  0  0  0
  131.9820   77.0520  227.5960 C   0  0  0  0  0  0  0  0  0  0  0  0
  131.4140   78.2430  227.9710 F   0  0  0  0  0  0  0  0  0  0  0  0
  133.2010   77.0970  226.9530 C   0  0  0  0  0  0  0  0  0  0  0  0
  133.7820   75.9060  226.5700 C   0  0  0  0  0  0  0  0  0  0  0  0
  133.1330   74.7180  226.8400 C   0  0  0  0  0  0  0  0  0  0  0  0
  133.7220   73.5690  226.4560 N   0  0  0  0  0  0  0  0  0  0  0  0
  135.2670   72.1910  225.0540 H   0  0  0  0  0  0  0  0  0  0  0  0
  136.0760   69.4767  225.7448 H   0  0  0  0  0  0  0  0  0  0  0  0
  134.9957   69.3965  224.3107 H   0  0  0  0  0  0  0  0  0  0  0  0
  137.4321   67.6506  223.1401 H   0  0  0  0  0  0  0  0  0  0  0  0
  136.7035   68.8601  222.0424 H   0  0  0  0  0  0  0  0  0  0  0  0
  139.4467   67.6726  222.0773 H   0  0  0  0  0  0  0  0  0  0  0  0
  138.3894   68.2254  220.6907 H   0  0  0  0  0  0  0  0  0  0  0  0
  140.5227   69.4436  221.0250 H   0  0  0  0  0  0  0  0  0  0  0  0
  138.9263   70.4044  221.0089 H   0  0  0  0  0  0  0  0  0  0  0  0
  141.0594   70.3981  222.9171 H   0  0  0  0  0  0  0  0  0  0  0  0
  139.6638   71.4951  222.7038 H   0  0  0  0  0  0  0  0  0  0  0  0
  139.6425   68.7566  224.1315 H   0  0  0  0  0  0  0  0  0  0  0  0
  140.6935   72.0296  224.6546 H   0  0  0  0  0  0  0  0  0  0  0  0
  141.3389   72.7177  226.9280 H   0  0  0  0  0  0  0  0  0  0  0  0
  140.6664   71.3194  228.9031 H   0  0  0  0  0  0  0  0  0  0  0  0
  139.3445   69.2485  228.4904 H   0  0  0  0  0  0  0  0  0  0  0  0
  138.7171   68.5905  226.2408 H   0  0  0  0  0  0  0  0  0  0  0  0
  131.4960   71.3107  227.4948 H   0  0  0  0  0  0  0  0  0  0  0  0
  130.3466   73.4022  228.2331 H   0  0  0  0  0  0  0  0  0  0  0  0
  130.3624   75.8806  228.3818 H   0  0  0  0  0  0  0  0  0  0  0  0
  133.6972   78.0577  226.7508 H   0  0  0  0  0  0  0  0  0  0  0  0
  134.7536   75.9030  226.0542 H   0  0  0  0  0  0  0  0  0  0  0  0
  1  2  2  0
  2  3  1  0
  3  4  1  0
  4  5  1  0
  5  6  2  0
  5  7  1  0
  7  8  1  0
  8  9  1  0
  9 10  1  0
 10 11  1  0
 11 12  1  0
 12 13  1  0
 13 14  2  0
 14 15  1  0
 15 16  2  0
 16 17  1  0
 17 18  2  0
  2 19  1  0
 19 20  2  0
 20 21  1  0
 21 22  2  0
 22 23  1  0
 23 24  2  0
 24 25  1  0
 24 26  1  0
 26 27  2  0
 27 28  1  0
 28 29  2  0
 12  7  1  0
 18 13  1  0
 29 19  1  0
 28 22  1  0
  3 30  1  0
  4 31  1  0
  4 32  1  0
  8 33  1  0
  8 34  1  0
  9 35  1  0
  9 36  1  0
 10 37  1  0
 10 38  1  0
 11 39  1  0
 11 40  1  0
 12 41  1  1
 14 42  1  0
 15 43  1  0
 16 44  1  0
 17 45  1  0
 18 46  1  0
 20 47  1  0
 21 48  1  0
 23 49  1  0
 26 50  1  0
 27 51  1  0
M  END
>  <smiles>  (99) 
O=C(NCC(=O)N1CCCCC1c1ccccc1)c1ccc2cc(F)ccc2n1

>  <score_type>  (99) 
oracle

>  <origin>  (99) 
autodockgpu

>  <m_score__min__energy>  (99) 
-9.2599999999999998

>  <m_primary>  (99) 
energy

>  <rmsd>  (99) 
8.576829943044878

>  <m_score__min__rmsd>  (99) 
8.576829943044878

>  <meeko>  (99) 
{"free_energy": -7.99, "intermolecular_energy": -9.48, "internal_energy": -2.22, "cluster_size": 4, "cluster_id": 4, "rank_in_cluster": 3}

>  <energy>  (99) 
-7.4

>  <cluster_rmsd>  (99) 
0.86

>  <cluster>  (99) 
5

$$$$

     RDKit          3D

 51 54  0  0  0  0  0  0  0  0999 V2000
  140.0840   71.7480  221.0420 O   0  0  0  0  0  0  0  0  0  0  0  0
  139.9090   72.2710  222.1690 C   0  0  0  0  0  0  0  0  0  0  0  0
  139.6660   73.6650  222.3480 N   0  0  0  0  0  0  0  0  0  0  0  0
  139.6090   74.5720  221.1790 C   0  0  0  0  0  0  0  0  0  0  0  0
  140.3070   75.8260  221.4940 C   0  0  0  0  0  0  0  0  0  0  0  0
  139.7630   76.5480  222.4120 O   0  0  0  0  0  0  0  0  0  0  0  0
  141.4810   76.3360  220.9330 N   0  0  0  0  0  0  0  0  0  0  0  0
  142.4460   75.3150  220.4450 C   0  0  0  0  0  0  0  0  0  0  0  0
  143.1450   75.8640  219.2240 C   0  0  0  0  0  0  0  0  0  0  0  0
  142.3430   76.8690  218.4740 C   0  0  0  0  0  0  0  0  0  0  0  0
  141.6910   77.9560  219.2430 C   0  0  0  0  0  0  0  0  0  0  0  0
  141.8890   77.6770  220.7230 C   0  0  1  0  0  0  0  0  0  0  0  0
  141.4570   78.7170  221.6270 C   0  0  0  0  0  0  0  0  0  0  0  0
  140.7140   79.8270  221.2610 C   0  0  0  0  0  0  0  0  0  0  0  0
  140.3610   80.8130  222.1640 C   0  0  0  0  0  0  0  0  0  0  0  0
  140.7540   80.7120  223.4960 C   0  0  0  0  0  0  0  0  0  0  0  0
  141.4960   79.6040  223.8640 C   0  0  0  0  0  0  0  0  0  0  0  0
  141.8330   78.6470  222.9610 C   0  0  0  0  0  0  0  0  0  0  0  0
  139.9540   71.4190  223.3700 C   0  0  0  0  0  0  0  0  0  0  0  0
  139.5240   70.1070  223.3020 C   0  0  0  0  0  0  0  0  0  0  0  0
  139.5620   69.2930  224.4360 C   0  0  0  0  0  0  0  0  0  0  0  0
  140.0340   69.8070  225.6290 C   0  0  0  0  0  0  0  0  0  0  0  0
  140.1000   69.0640  226.7850 C   0  0  0  0  0  0  0  0  0  0  0  0
  140.5810   69.6440  227.9320 C   0  0  0  0  0  0  0  0  0  0  0  0
  140.6490   68.9100  229.0890 F   0  0  0  0  0  0  0  0  0  0  0  0
  141.0050   70.9540  227.9780 C   0  0  0  0  0  0  0  0  0  0  0  0
  140.9400   71.7030  226.8210 C   0  0  0  0  0  0  0  0  0  0  0  0
  140.4570   71.1240  225.6650 C   0  0  0  0  0  0  0  0  0  0  0  0
  140.4040   71.8760  224.5490 N   0  0  0  0  0  0  0  0  0  0  0  0
  139.5330   74.0220  223.3140 H   0  0  0  0  0  0  0  0  0  0  0  0
  140.0937   74.0896  220.3174 H   0  0  0  0  0  0  0  0  0  0  0  0
  138.5584   74.7896  220.9362 H   0  0  0  0  0  0  0  0  0  0  0  0
  143.1854   75.0977  221.2299 H   0  0  0  0  0  0  0  0  0  0  0  0
  141.9159   74.3853  220.1907 H   0  0  0  0  0  0  0  0  0  0  0  0
  144.0834   76.3393  219.5459 H   0  0  0  0  0  0  0  0  0  0  0  0
  143.3143   75.0165  218.5435 H   0  0  0  0  0  0  0  0  0  0  0  0
  143.0144   77.3432  217.7430 H   0  0  0  0  0  0  0  0  0  0  0  0
  141.5067   76.2924  218.0519 H   0  0  0  0  0  0  0  0  0  0  0  0
  142.1477   78.9221  218.9821 H   0  0  0  0  0  0  0  0  0  0  0  0
  140.6178   77.9980  219.0051 H   0  0  0  0  0  0  0  0  0  0  0  0
  142.9468   77.7394  221.0182 H   0  0  0  0  0  0  0  0  0  0  0  0
  140.3930   79.9280  220.2137 H   0  0  0  0  0  0  0  0  0  0  0  0
  139.7692   81.6779  221.8298 H   0  0  0  0  0  0  0  0  0  0  0  0
  140.4840   81.4859  224.2297 H   0  0  0  0  0  0  0  0  0  0  0  0
  141.8198   79.4957  224.9097 H   0  0  0  0  0  0  0  0  0  0  0  0
  142.4259   77.7846  223.2996 H   0  0  0  0  0  0  0  0  0  0  0  0
  139.1501   69.7022  222.3500 H   0  0  0  0  0  0  0  0  0  0  0  0
  139.2185   68.2495  224.3802 H   0  0  0  0  0  0  0  0  0  0  0  0
  139.7703   68.0146  226.7899 H   0  0  0  0  0  0  0  0  0  0  0  0
  141.3855   71.3915  228.9128 H   0  0  0  0  0  0  0  0  0  0  0  0
  141.2702   72.7523  226.8200 H   0  0  0  0  0  0  0  0  0  0  0  0
  1  2  2  0
  2  3  1  0
  3  4  1  0
  4  5  1  0
  5  6  2  0
  5  7  1  0
  7  8  1  0
  8  9  1  0
  9 10  1  0
 10 11  1  0
 11 12  1  0
 12 13  1  0
 13 14  2  0
 14 15  1  0
 15 16  2  0
 16 17  1  0
 17 18  2  0
  2 19  1  0
 19 20  2  0
 20 21  1  0
 21 22  2  0
 22 23  1  0
 23 24  2  0
 24 25  1  0
 24 26  1  0
 26 27  2  0
 27 28  1  0
 28 29  2  0
 12  7  1  0
 18 13  1  0
 29 19  1  0
 28 22  1  0
  3 30  1  0
  4 31  1  0
  4 32  1  0
  8 33  1  0
  8 34  1  0
  9 35  1  0
  9 36  1  0
 10 37  1  0
 10 38  1  0
 11 39  1  0
 11 40  1  0
 12 41  1  6
 14 42  1  0
 15 43  1  0
 16 44  1  0
 17 45  1  0
 18 46  1  0
 20 47  1  0
 21 48  1  0
 23 49  1  0
 26 50  1  0
 27 51  1  0
M  END
>  <smiles>  (100) 
O=C(NCC(=O)N1CCCCC1c1ccccc1)c1ccc2cc(F)ccc2n1

>  <score_type>  (100) 
oracle

>  <origin>  (100) 
autodockgpu

>  <m_score__min__energy>  (100) 
-9.2599999999999998

>  <m_primary>  (100) 
energy

>  <rmsd>  (100) 
1.997871495529237

>  <m_score__min__rmsd>  (100) 
1.997871495529237

>  <meeko>  (100) 
{"free_energy": -8.8, "intermolecular_energy": -10.29, "internal_energy": -1.62, "cluster_size": 23, "cluster_id": 1, "rank_in_cluster": 19}

>  <energy>  (100) 
-7.27

>  <cluster_rmsd>  (100) 
0.0

>  <cluster>  (100) 
6

$$$$
