
     RDKit          3D

 53 56  0  0  0  0  0  0  0  0999 V2000
  141.6160   76.3310  218.1870 O   0  0  0  0  0  0  0  0  0  0  0  0
  141.8060   77.0840  219.1880 C   0  0  0  0  0  0  0  0  0  0  0  0
  142.0650   76.4850  220.4620 N   0  0  0  0  0  0  0  0  0  0  0  0
  142.0960   75.0550  220.5440 C   0  0  0  0  0  0  0  0  0  0  0  0
  140.9120   74.5080  221.2590 C   0  0  0  0  0  0  0  0  0  0  0  0
  141.0350   73.4680  221.9740 O   0  0  0  0  0  0  0  0  0  0  0  0
  139.6810   75.1640  221.1200 N   0  0  0  0  0  0  0  0  0  0  0  0
  138.3720   74.5800  220.8800 C   0  0  0  0  0  0  0  0  0  0  0  0
  137.8260   75.5940  219.8670 C   0  0  0  0  0  0  0  0  0  0  0  0
  138.1110   76.8800  220.6090 C   0  0  2  0  0  0  0  0  0  0  0  0
  138.1590   77.9790  219.7620 O   0  0  0  0  0  0  0  0  0  0  0  0
  139.4790   76.5980  221.1940 C   0  0  1  0  0  0  0  0  0  0  0  0
  139.4750   77.0820  222.6300 C   0  0  0  0  0  0  0  0  0  0  0  0
  140.8400   77.3950  222.9230 O   0  0  0  0  0  0  0  0  0  0  0  0
  141.2500   78.6920  223.0910 C   0  0  0  0  0  0  0  0  0  0  0  0
  140.4190   79.6640  223.6150 C   0  0  0  0  0  0  0  0  0  0  0  0
  140.8490   80.9500  223.7720 C   0  0  0  0  0  0  0  0  0  0  0  0
  142.1450   81.2920  223.4000 C   0  0  0  0  0  0  0  0  0  0  0  0
  142.9870   80.3110  222.8700 C   0  0  0  0  0  0  0  0  0  0  0  0
  142.5340   79.0220  222.7190 C   0  0  0  0  0  0  0  0  0  0  0  0
  141.7670   78.5400  219.0670 C   0  0  0  0  0  0  0  0  0  0  0  0
  142.5880   79.1370  218.1210 C   0  0  0  0  0  0  0  0  0  0  0  0
  142.5860   80.5230  217.9670 C   0  0  0  0  0  0  0  0  0  0  0  0
  141.7590   81.2720  218.7680 C   0  0  0  0  0  0  0  0  0  0  0  0
  141.7640   82.6520  218.6080 C   0  0  0  0  0  0  0  0  0  0  0  0
  140.9230   83.3980  219.4230 C   0  0  0  0  0  0  0  0  0  0  0  0
  140.8830   85.1300  219.2720 Cl  0  0  0  0  0  0  0  0  0  0  0  0
  140.1240   82.7800  220.3470 C   0  0  0  0  0  0  0  0  0  0  0  0
  140.1150   81.4110  220.5100 C   0  0  0  0  0  0  0  0  0  0  0  0
  140.9530   80.6620  219.6980 C   0  0  0  0  0  0  0  0  0  0  0  0
  140.9760   79.3190  219.8240 N   0  0  0  0  0  0  0  0  0  0  0  0
  142.2180   77.1310  221.2690 H   0  0  0  0  0  0  0  0  0  0  0  0
  142.1164   74.6420  219.5247 H   0  0  0  0  0  0  0  0  0  0  0  0
  142.9947   74.7684  221.1099 H   0  0  0  0  0  0  0  0  0  0  0  0
  138.4455   73.5698  220.4509 H   0  0  0  0  0  0  0  0  0  0  0  0
  137.7524   74.4335  221.7770 H   0  0  0  0  0  0  0  0  0  0  0  0
  138.3654   75.5463  218.9095 H   0  0  0  0  0  0  0  0  0  0  0  0
  136.7741   75.4454  219.5816 H   0  0  0  0  0  0  0  0  0  0  0  0
  137.3363   77.1335  221.3476 H   0  0  0  0  0  0  0  0  0  0  0  0
  139.0430   78.3680  219.6340 H   0  0  0  0  0  0  0  0  0  0  0  0
  140.2899   77.1092  220.6543 H   0  0  0  0  0  0  0  0  0  0  0  0
  138.8431   77.9763  222.7341 H   0  0  0  0  0  0  0  0  0  0  0  0
  139.0693   76.3258  223.3181 H   0  0  0  0  0  0  0  0  0  0  0  0
  139.3937   79.3968  223.9106 H   0  0  0  0  0  0  0  0  0  0  0  0
  140.1745   81.7116  224.1903 H   0  0  0  0  0  0  0  0  0  0  0  0
  142.5035   82.3248  223.5219 H   0  0  0  0  0  0  0  0  0  0  0  0
  144.0139   80.5706  222.5731 H   0  0  0  0  0  0  0  0  0  0  0  0
  143.1988   78.2523  222.3000 H   0  0  0  0  0  0  0  0  0  0  0  0
  143.2418   78.5157  217.4912 H   0  0  0  0  0  0  0  0  0  0  0  0
  143.2329   81.0061  217.2200 H   0  0  0  0  0  0  0  0  0  0  0  0
  142.4113   83.1365  217.8621 H   0  0  0  0  0  0  0  0  0  0  0  0
  139.4679   83.3956  220.9799 H   0  0  0  0  0  0  0  0  0  0  0  0
  139.4665   80.9303  221.2572 H   0  0  0  0  0  0  0  0  0  0  0  0
  1  2  2  0
  2  3  1  0
  3  4  1  0
  4  5  1  0
  5  6  2  0
  5  7  1  0
  7  8  1  0
  8  9  1  0
  9 10  1  0
 10 11  1  0
 10 12  1  0
 12 13  1  0
 13 14  1  0
 14 15  1  0
 15 16  2  0
 16 17  1  0
 17 18  2  0
 18 19  1  0
 19 20  2  0
  2 21  1  0
 21 22  2  0
 22 23  1  0
 23 24  2  0
 24 25  1  0
 25 26  2  0
 26 27  1  0
 26 28  1  0
 28 29  2  0
 29 30  1  0
 30 31  2  0
 12  7  1  0
 20 15  1  0
 31 21  1  0
 30 24  1  0
  3 32  1  0
  4 33  1  0
  4 34  1  0
  8 35  1  0
  8 36  1  0
  9 37  1  0
  9 38  1  0
 10 39  1  1
 11 40  1  0
 12 41  1  6
 13 42  1  0
 13 43  1  0
 16 44  1  0
 17 45  1  0
 18 46  1  0
 19 47  1  0
 20 48  1  0
 22 49  1  0
 23 50  1  0
 25 51  1  0
 28 52  1  0
 29 53  1  0
M  END
>  <smiles>  (1) 
O=C(NCC(=O)N1CC[C@H](O)[C@H]1COc1ccccc1)c1ccc2cc(Cl)ccc2n1

>  <score_type>  (1) 
oracle

>  <origin>  (1) 
autodockgpu

>  <m_score__min__energy>  (1) 
-8.7100000000000009

>  <m_primary>  (1) 
energy

>  <rmsd>  (1) 
9.197818511311189

>  <m_score__min__rmsd>  (1) 
9.197818511311189

>  <meeko>  (1) 
{"free_energy": -5.64, "intermolecular_energy": -8.03, "internal_energy": -4.28, "cluster_size": 5, "cluster_id": 12, "rank_in_cluster": 5}

>  <energy>  (1) 
-8.71

>  <cluster_rmsd>  (1) 
0.0

>  <cluster>  (1) 
1

$$$$

     RDKit          3D

 53 56  0  0  0  0  0  0  0  0999 V2000
  141.6140   76.3470  218.1990 O   0  0  0  0  0  0  0  0  0  0  0  0
  141.8040   77.0990  219.2000 C   0  0  0  0  0  0  0  0  0  0  0  0
  142.0650   76.4970  220.4730 N   0  0  0  0  0  0  0  0  0  0  0  0
  142.0990   75.0670  220.5520 C   0  0  0  0  0  0  0  0  0  0  0  0
  140.9110   74.5160  221.2590 C   0  0  0  0  0  0  0  0  0  0  0  0
  141.0320   73.4750  221.9710 O   0  0  0  0  0  0  0  0  0  0  0  0
  139.6800   75.1700  221.1130 N   0  0  0  0  0  0  0  0  0  0  0  0
  138.3730   74.5840  220.8660 C   0  0  0  0  0  0  0  0  0  0  0  0
  137.8310   75.5970  219.8510 C   0  0  0  0  0  0  0  0  0  0  0  0
  138.1090   76.8830  220.5930 C   0  0  2  0  0  0  0  0  0  0  0  0
  138.1600   77.9820  219.7460 O   0  0  0  0  0  0  0  0  0  0  0  0
  139.4750   76.6040  221.1850 C   0  0  1  0  0  0  0  0  0  0  0  0
  139.4630   77.0880  222.6210 C   0  0  0  0  0  0  0  0  0  0  0  0
  140.8310   77.3690  222.9320 O   0  0  0  0  0  0  0  0  0  0  0  0
  141.2750   78.6570  223.0790 C   0  0  0  0  0  0  0  0  0  0  0  0
  142.5490   79.0430  222.7080 C   0  0  0  0  0  0  0  0  0  0  0  0
  142.9690   80.3330  222.8640 C   0  0  0  0  0  0  0  0  0  0  0  0
  142.1030   81.2780  223.4060 C   0  0  0  0  0  0  0  0  0  0  0  0
  140.8140   80.8900  223.7810 C   0  0  0  0  0  0  0  0  0  0  0  0
  140.4120   79.5860  223.6160 C   0  0  0  0  0  0  0  0  0  0  0  0
  141.7620   78.5550  219.0820 C   0  0  0  0  0  0  0  0  0  0  0  0
  142.5880   79.1550  218.1430 C   0  0  0  0  0  0  0  0  0  0  0  0
  142.5840   80.5420  217.9920 C   0  0  0  0  0  0  0  0  0  0  0  0
  141.7500   81.2870  218.7880 C   0  0  0  0  0  0  0  0  0  0  0  0
  141.7520   82.6680  218.6310 C   0  0  0  0  0  0  0  0  0  0  0  0
  140.9040   83.4100  219.4420 C   0  0  0  0  0  0  0  0  0  0  0  0
  140.8610   85.1410  219.2950 Cl  0  0  0  0  0  0  0  0  0  0  0  0
  140.1000   82.7880  220.3590 C   0  0  0  0  0  0  0  0  0  0  0  0
  140.0940   81.4180  220.5200 C   0  0  0  0  0  0  0  0  0  0  0  0
  140.9390   80.6730  219.7120 C   0  0  0  0  0  0  0  0  0  0  0  0
  140.9640   79.3300  219.8350 N   0  0  0  0  0  0  0  0  0  0  0  0
  142.2190   77.1420  221.2810 H   0  0  0  0  0  0  0  0  0  0  0  0
  142.1266   74.6562  219.5320 H   0  0  0  0  0  0  0  0  0  0  0  0
  142.9950   74.7809  221.1224 H   0  0  0  0  0  0  0  0  0  0  0  0
  138.4503   73.5741  220.4369 H   0  0  0  0  0  0  0  0  0  0  0  0
  137.7490   74.4362  221.7598 H   0  0  0  0  0  0  0  0  0  0  0  0
  138.3755   75.5502  218.8964 H   0  0  0  0  0  0  0  0  0  0  0  0
  136.7807   75.4465  219.5606 H   0  0  0  0  0  0  0  0  0  0  0  0
  137.3294   77.1351  221.3270 H   0  0  0  0  0  0  0  0  0  0  0  0
  139.0440   78.3720  219.6230 H   0  0  0  0  0  0  0  0  0  0  0  0
  140.2872   77.1168  220.6490 H   0  0  0  0  0  0  0  0  0  0  0  0
  138.8508   77.9968  222.7169 H   0  0  0  0  0  0  0  0  0  0  0  0
  139.0305   76.3416  223.3035 H   0  0  0  0  0  0  0  0  0  0  0  0
  143.2364   78.2986  222.2798 H   0  0  0  0  0  0  0  0  0  0  0  0
  143.9863   80.6236  222.5629 H   0  0  0  0  0  0  0  0  0  0  0  0
  142.4299   82.3200  223.5379 H   0  0  0  0  0  0  0  0  0  0  0  0
  140.1203   81.6289  224.2087 H   0  0  0  0  0  0  0  0  0  0  0  0
  139.3973   79.2834  223.9140 H   0  0  0  0  0  0  0  0  0  0  0  0
  143.2472   78.5363  217.5164 H   0  0  0  0  0  0  0  0  0  0  0  0
  143.2354   81.0282  217.2508 H   0  0  0  0  0  0  0  0  0  0  0  0
  142.4026   83.1559  217.8902 H   0  0  0  0  0  0  0  0  0  0  0  0
  139.4372   83.4006  220.9878 H   0  0  0  0  0  0  0  0  0  0  0  0
  139.4424   80.9342  221.2625 H   0  0  0  0  0  0  0  0  0  0  0  0
  1  2  2  0
  2  3  1  0
  3  4  1  0
  4  5  1  0
  5  6  2  0
  5  7  1  0
  7  8  1  0
  8  9  1  0
  9 10  1  0
 10 11  1  0
 10 12  1  0
 12 13  1  0
 13 14  1  0
 14 15  1  0
 15 16  2  0
 16 17  1  0
 17 18  2  0
 18 19  1  0
 19 20  2  0
  2 21  1  0
 21 22  2  0
 22 23  1  0
 23 24  2  0
 24 25  1  0
 25 26  2  0
 26 27  1  0
 26 28  1  0
 28 29  2  0
 29 30  1  0
 30 31  2  0
 12  7  1  0
 20 15  1  0
 31 21  1  0
 30 24  1  0
  3 32  1  0
  4 33  1  0
  4 34  1  0
  8 35  1  0
  8 36  1  0
  9 37  1  0
  9 38  1  0
 10 39  1  1
 11 40  1  0
 12 41  1  6
 13 42  1  0
 13 43  1  0
 16 44  1  0
 17 45  1  0
 18 46  1  0
 19 47  1  0
 20 48  1  0
 22 49  1  0
 23 50  1  0
 25 51  1  0
 28 52  1  0
 29 53  1  0
M  END
>  <smiles>  (2) 
O=C(NCC(=O)N1CC[C@H](O)[C@H]1COc1ccccc1)c1ccc2cc(Cl)ccc2n1

>  <score_type>  (2) 
oracle

>  <origin>  (2) 
autodockgpu

>  <m_score__min__energy>  (2) 
-8.7100000000000009

>  <m_primary>  (2) 
energy

>  <rmsd>  (2) 
9.19898350989157

>  <m_score__min__rmsd>  (2) 
9.19898350989157

>  <meeko>  (2) 
{"free_energy": -5.65, "intermolecular_energy": -8.04, "internal_energy": -4.29, "cluster_size": 5, "cluster_id": 12, "rank_in_cluster": 3}

>  <energy>  (2) 
-8.55

>  <cluster_rmsd>  (2) 
1.46

>  <cluster>  (2) 
1

$$$$

     RDKit          3D

 53 56  0  0  0  0  0  0  0  0999 V2000
  138.7250   73.4260  220.4780 O   0  0  0  0  0  0  0  0  0  0  0  0
  138.4760   74.2110  221.4390 C   0  0  0  0  0  0  0  0  0  0  0  0
  137.3550   73.9300  222.2860 N   0  0  0  0  0  0  0  0  0  0  0  0
  136.5670   72.7670  222.0020 C   0  0  0  0  0  0  0  0  0  0  0  0
  136.6210   71.7710  223.1060 C   0  0  0  0  0  0  0  0  0  0  0  0
  135.9950   71.9950  224.1850 O   0  0  0  0  0  0  0  0  0  0  0  0
  137.3700   70.6000  222.9190 N   0  0  0  0  0  0  0  0  0  0  0  0
  137.2460   69.6120  221.8610 C   0  0  0  0  0  0  0  0  0  0  0  0
  137.4280   68.3330  222.6890 C   0  0  0  0  0  0  0  0  0  0  0  0
  138.6900   68.6880  223.4410 C   0  0  2  0  0  0  0  0  0  0  0  0
  138.8440   67.9370  224.5980 O   0  0  0  0  0  0  0  0  0  0  0  0
  138.4440   70.1430  223.7800 C   0  0  1  0  0  0  0  0  0  0  0  0
  139.7280   70.9030  223.5090 C   0  0  0  0  0  0  0  0  0  0  0  0
  140.7050   70.3010  224.3640 O   0  0  0  0  0  0  0  0  0  0  0  0
  140.8300   70.6810  225.6750 C   0  0  0  0  0  0  0  0  0  0  0  0
  141.3390   71.9130  226.0390 C   0  0  0  0  0  0  0  0  0  0  0  0
  141.4540   72.2690  227.3520 C   0  0  0  0  0  0  0  0  0  0  0  0
  141.0520   71.3800  228.3440 C   0  0  0  0  0  0  0  0  0  0  0  0
  140.5370   70.1340  227.9790 C   0  0  0  0  0  0  0  0  0  0  0  0
  140.4310   69.7950  226.6500 C   0  0  0  0  0  0  0  0  0  0  0  0
  139.3020   75.3880  221.6990 C   0  0  0  0  0  0  0  0  0  0  0  0
  140.6070   75.3830  221.2290 C   0  0  0  0  0  0  0  0  0  0  0  0
  141.4350   76.4840  221.4510 C   0  0  0  0  0  0  0  0  0  0  0  0
  140.9300   77.5580  222.1400 C   0  0  0  0  0  0  0  0  0  0  0  0
  141.7610   78.6490  222.3580 C   0  0  0  0  0  0  0  0  0  0  0  0
  141.2380   79.7300  223.0550 C   0  0  0  0  0  0  0  0  0  0  0  0
  142.2280   81.1260  223.3600 Cl  0  0  0  0  0  0  0  0  0  0  0  0
  139.9460   79.7040  223.5060 C   0  0  0  0  0  0  0  0  0  0  0  0
  139.1160   78.6240  223.2940 C   0  0  0  0  0  0  0  0  0  0  0  0
  139.6340   77.5430  222.5980 C   0  0  0  0  0  0  0  0  0  0  0  0
  138.8560   76.4650  222.3670 N   0  0  0  0  0  0  0  0  0  0  0  0
  137.1740   74.5940  223.0710 H   0  0  0  0  0  0  0  0  0  0  0  0
  135.5215   73.0747  221.8528 H   0  0  0  0  0  0  0  0  0  0  0  0
  136.9765   72.2929  221.0978 H   0  0  0  0  0  0  0  0  0  0  0  0
  136.2592   69.6507  221.3766 H   0  0  0  0  0  0  0  0  0  0  0  0
  137.9482   69.7319  221.0228 H   0  0  0  0  0  0  0  0  0  0  0  0
  136.5808   68.1628  223.3697 H   0  0  0  0  0  0  0  0  0  0  0  0
  137.4826   67.4040  222.1025 H   0  0  0  0  0  0  0  0  0  0  0  0
  139.6059   68.4969  222.8625 H   0  0  0  0  0  0  0  0  0  0  0  0
  139.6480   68.1290  225.1150 H   0  0  0  0  0  0  0  0  0  0  0  0
  138.1603   70.2958  224.8318 H   0  0  0  0  0  0  0  0  0  0  0  0
  140.0222   70.8003  222.4541 H   0  0  0  0  0  0  0  0  0  0  0  0
  139.6182   71.9802  223.7030 H   0  0  0  0  0  0  0  0  0  0  0  0
  141.6570   72.6189  225.2576 H   0  0  0  0  0  0  0  0  0  0  0  0
  141.8623   73.2535  227.6242 H   0  0  0  0  0  0  0  0  0  0  0  0
  141.1389   71.6557  229.4053 H   0  0  0  0  0  0  0  0  0  0  0  0
  140.2160   69.4233  228.7548 H   0  0  0  0  0  0  0  0  0  0  0  0
  140.0260   68.8126  226.3655 H   0  0  0  0  0  0  0  0  0  0  0  0
  140.9898   74.5098  220.6804 H   0  0  0  0  0  0  0  0  0  0  0  0
  142.4710   76.4909  221.0814 H   0  0  0  0  0  0  0  0  0  0  0  0
  142.7980   78.6566  221.9911 H   0  0  0  0  0  0  0  0  0  0  0  0
  139.5571   80.5737  224.0558 H   0  0  0  0  0  0  0  0  0  0  0  0
  138.0800   78.6202  223.6638 H   0  0  0  0  0  0  0  0  0  0  0  0
  1  2  2  0
  2  3  1  0
  3  4  1  0
  4  5  1  0
  5  6  2  0
  5  7  1  0
  7  8  1  0
  8  9  1  0
  9 10  1  0
 10 11  1  0
 10 12  1  0
 12 13  1  0
 13 14  1  0
 14 15  1  0
 15 16  2  0
 16 17  1  0
 17 18  2  0
 18 19  1  0
 19 20  2  0
  2 21  1  0
 21 22  2  0
 22 23  1  0
 23 24  2  0
 24 25  1  0
 25 26  2  0
 26 27  1  0
 26 28  1  0
 28 29  2  0
 29 30  1  0
 30 31  2  0
 12  7  1  0
 20 15  1  0
 31 21  1  0
 30 24  1  0
  3 32  1  0
  4 33  1  0
  4 34  1  0
  8 35  1  0
  8 36  1  0
  9 37  1  0
  9 38  1  0
 10 39  1  6
 11 40  1  0
 12 41  1  1
 13 42  1  0
 13 43  1  0
 16 44  1  0
 17 45  1  0
 18 46  1  0
 19 47  1  0
 20 48  1  0
 22 49  1  0
 23 50  1  0
 25 51  1  0
 28 52  1  0
 29 53  1  0
M  END
>  <smiles>  (3) 
O=C(NCC(=O)N1CC[C@H](O)[C@H]1COc1ccccc1)c1ccc2cc(Cl)ccc2n1

>  <score_type>  (3) 
oracle

>  <origin>  (3) 
autodockgpu

>  <m_score__min__energy>  (3) 
-8.7100000000000009

>  <m_primary>  (3) 
energy

>  <rmsd>  (3) 
7.945316695190712

>  <m_score__min__rmsd>  (3) 
7.945316695190712

>  <meeko>  (3) 
{"free_energy": -7.84, "intermolecular_energy": -10.23, "internal_energy": -1.93, "cluster_size": 5, "cluster_id": 2, "rank_in_cluster": 1}

>  <energy>  (3) 
-8.52

>  <cluster_rmsd>  (3) 
1.45

>  <cluster>  (3) 
1

$$$$

     RDKit          3D

 53 56  0  0  0  0  0  0  0  0999 V2000
  137.0990   77.3560  222.4450 O   0  0  0  0  0  0  0  0  0  0  0  0
  137.0480   76.1900  222.9360 C   0  0  0  0  0  0  0  0  0  0  0  0
  138.1010   75.2690  222.6320 N   0  0  0  0  0  0  0  0  0  0  0  0
  139.1660   75.7130  221.7820 C   0  0  0  0  0  0  0  0  0  0  0  0
  140.2110   74.6690  221.6010 C   0  0  0  0  0  0  0  0  0  0  0  0
  140.1750   73.6160  222.3050 O   0  0  0  0  0  0  0  0  0  0  0  0
  141.2170   74.8830  220.6490 N   0  0  0  0  0  0  0  0  0  0  0  0
  141.8020   73.9250  219.7260 C   0  0  0  0  0  0  0  0  0  0  0  0
  143.2730   74.3470  219.8240 C   0  0  0  0  0  0  0  0  0  0  0  0
  143.1320   75.8350  219.5990 C   0  0  2  0  0  0  0  0  0  0  0  0
  144.2170   76.5490  220.0880 O   0  0  0  0  0  0  0  0  0  0  0  0
  141.8850   76.1470  220.4000 C   0  0  1  0  0  0  0  0  0  0  0  0
  141.0210   77.0720  219.5650 C   0  0  0  0  0  0  0  0  0  0  0  0
  141.3270   78.3900  220.0310 O   0  0  0  0  0  0  0  0  0  0  0  0
  141.1710   78.7300  221.3490 C   0  0  0  0  0  0  0  0  0  0  0  0
  139.9290   78.7820  221.9540 C   0  0  0  0  0  0  0  0  0  0  0  0
  139.7990   79.1240  223.2690 C   0  0  0  0  0  0  0  0  0  0  0  0
  140.9320   79.4260  224.0180 C   0  0  0  0  0  0  0  0  0  0  0  0
  142.1890   79.3730  223.4090 C   0  0  0  0  0  0  0  0  0  0  0  0
  142.2980   79.0280  222.0820 C   0  0  0  0  0  0  0  0  0  0  0  0
  135.9470   75.7720  223.8000 C   0  0  0  0  0  0  0  0  0  0  0  0
  135.0600   76.7440  224.2400 C   0  0  0  0  0  0  0  0  0  0  0  0
  133.9910   76.3940  225.0660 C   0  0  0  0  0  0  0  0  0  0  0  0
  133.8440   75.0780  225.4280 C   0  0  0  0  0  0  0  0  0  0  0  0
  132.7780   74.7380  226.2510 C   0  0  0  0  0  0  0  0  0  0  0  0
  132.6400   73.4040  226.6100 C   0  0  0  0  0  0  0  0  0  0  0  0
  131.3260   72.9150  227.6380 Cl  0  0  0  0  0  0  0  0  0  0  0  0
  133.5320   72.4680  226.1590 C   0  0  0  0  0  0  0  0  0  0  0  0
  134.5920   72.7990  225.3430 C   0  0  0  0  0  0  0  0  0  0  0  0
  134.7340   74.1300  224.9820 C   0  0  0  0  0  0  0  0  0  0  0  0
  135.7570   74.4980  224.1830 N   0  0  0  0  0  0  0  0  0  0  0  0
  138.0340   74.3140  223.0520 H   0  0  0  0  0  0  0  0  0  0  0  0
  138.7493   75.9721  220.7975 H   0  0  0  0  0  0  0  0  0  0  0  0
  139.6378   76.5852  222.2581 H   0  0  0  0  0  0  0  0  0  0  0  0
  141.6493   72.8879  220.0593 H   0  0  0  0  0  0  0  0  0  0  0  0
  141.3786   73.9336  218.7108 H   0  0  0  0  0  0  0  0  0  0  0  0
  143.6977   74.1217  220.8134 H   0  0  0  0  0  0  0  0  0  0  0  0
  143.9507   73.8340  219.1257 H   0  0  0  0  0  0  0  0  0  0  0  0
  143.0786   76.1078  218.5347 H   0  0  0  0  0  0  0  0  0  0  0  0
  144.0050   77.4240  220.4620 H   0  0  0  0  0  0  0  0  0  0  0  0
  142.1033   76.6401  221.3587 H   0  0  0  0  0  0  0  0  0  0  0  0
  141.2683   76.9727  218.4978 H   0  0  0  0  0  0  0  0  0  0  0  0
  139.9508   76.8378  219.6646 H   0  0  0  0  0  0  0  0  0  0  0  0
  139.0305   78.5438  221.3658 H   0  0  0  0  0  0  0  0  0  0  0  0
  138.8030   79.1607  223.7345 H   0  0  0  0  0  0  0  0  0  0  0  0
  140.8395   79.7036  225.0784 H   0  0  0  0  0  0  0  0  0  0  0  0
  143.0921   79.6075  223.9916 H   0  0  0  0  0  0  0  0  0  0  0  0
  143.2884   78.9900  221.6049 H   0  0  0  0  0  0  0  0  0  0  0  0
  135.1996   77.7923  223.9373 H   0  0  0  0  0  0  0  0  0  0  0  0
  133.2812   77.1564  225.4195 H   0  0  0  0  0  0  0  0  0  0  0  0
  132.0678   75.4993  226.6060 H   0  0  0  0  0  0  0  0  0  0  0  0
  133.3981   71.4179  226.4577 H   0  0  0  0  0  0  0  0  0  0  0  0
  135.3001   72.0345  224.9907 H   0  0  0  0  0  0  0  0  0  0  0  0
  1  2  2  0
  2  3  1  0
  3  4  1  0
  4  5  1  0
  5  6  2  0
  5  7  1  0
  7  8  1  0
  8  9  1  0
  9 10  1  0
 10 11  1  0
 10 12  1  0
 12 13  1  0
 13 14  1  0
 14 15  1  0
 15 16  2  0
 16 17  1  0
 17 18  2  0
 18 19  1  0
 19 20  2  0
  2 21  1  0
 21 22  2  0
 22 23  1  0
 23 24  2  0
 24 25  1  0
 25 26  2  0
 26 27  1  0
 26 28  1  0
 28 29  2  0
 29 30  1  0
 30 31  2  0
 12  7  1  0
 20 15  1  0
 31 21  1  0
 30 24  1  0
  3 32  1  0
  4 33  1  0
  4 34  1  0
  8 35  1  0
  8 36  1  0
  9 37  1  0
  9 38  1  0
 10 39  1  6
 11 40  1  0
 12 41  1  1
 13 42  1  0
 13 43  1  0
 16 44  1  0
 17 45  1  0
 18 46  1  0
 19 47  1  0
 20 48  1  0
 22 49  1  0
 23 50  1  0
 25 51  1  0
 28 52  1  0
 29 53  1  0
M  END
>  <smiles>  (4) 
O=C(NCC(=O)N1CC[C@H](O)[C@H]1COc1ccccc1)c1ccc2cc(Cl)ccc2n1

>  <score_type>  (4) 
oracle

>  <origin>  (4) 
autodockgpu

>  <m_score__min__energy>  (4) 
-8.7100000000000009

>  <m_primary>  (4) 
energy

>  <rmsd>  (4) 
5.9217005506839655

>  <m_score__min__rmsd>  (4) 
5.9217005506839655

>  <meeko>  (4) 
{"free_energy": -7.09, "intermolecular_energy": -9.48, "internal_energy": -2.34, "cluster_size": 2, "cluster_id": 5, "rank_in_cluster": 2}

>  <energy>  (4) 
-8.51

>  <cluster_rmsd>  (4) 
0.71

>  <cluster>  (4) 
1

$$$$

     RDKit          3D

 53 56  0  0  0  0  0  0  0  0999 V2000
  140.7660   75.7320  220.7140 O   0  0  0  0  0  0  0  0  0  0  0  0
  141.2450   76.8750  220.9720 C   0  0  0  0  0  0  0  0  0  0  0  0
  142.4700   77.2680  220.3430 N   0  0  0  0  0  0  0  0  0  0  0  0
  143.0970   76.3430  219.4470 C   0  0  0  0  0  0  0  0  0  0  0  0
  143.0220   76.7950  218.0310 C   0  0  0  0  0  0  0  0  0  0  0  0
  143.8760   76.3780  217.1930 O   0  0  0  0  0  0  0  0  0  0  0  0
  142.0000   77.6810  217.6620 N   0  0  0  0  0  0  0  0  0  0  0  0
  140.5680   77.5370  217.8640 C   0  0  0  0  0  0  0  0  0  0  0  0
  140.0690   78.0660  216.5140 C   0  0  0  0  0  0  0  0  0  0  0  0
  140.8380   79.3650  216.4440 C   0  0  2  0  0  0  0  0  0  0  0  0
  140.9570   79.8400  215.1450 O   0  0  0  0  0  0  0  0  0  0  0  0
  142.1900   78.9490  216.9840 C   0  0  1  0  0  0  0  0  0  0  0  0
  142.6520   80.0240  217.9470 C   0  0  0  0  0  0  0  0  0  0  0  0
  142.1460   79.6250  219.2250 O   0  0  0  0  0  0  0  0  0  0  0  0
  141.5340   80.5240  220.0580 C   0  0  0  0  0  0  0  0  0  0  0  0
  140.2940   81.0660  219.7730 C   0  0  0  0  0  0  0  0  0  0  0  0
  139.7050   81.9610  220.6180 C   0  0  0  0  0  0  0  0  0  0  0  0
  140.3580   82.3370  221.7880 C   0  0  0  0  0  0  0  0  0  0  0  0
  141.6100   81.7900  222.0780 C   0  0  0  0  0  0  0  0  0  0  0  0
  142.1870   80.8910  221.2130 C   0  0  0  0  0  0  0  0  0  0  0  0
  140.5760   77.7940  221.8920 C   0  0  0  0  0  0  0  0  0  0  0  0
  141.3160   78.3120  222.9450 C   0  0  0  0  0  0  0  0  0  0  0  0
  140.7230   79.1930  223.8500 C   0  0  0  0  0  0  0  0  0  0  0  0
  139.4030   79.5290  223.6720 C   0  0  0  0  0  0  0  0  0  0  0  0
  138.8210   80.4070  224.5770 C   0  0  0  0  0  0  0  0  0  0  0  0
  137.4860   80.7390  224.3850 C   0  0  0  0  0  0  0  0  0  0  0  0
  136.7000   81.8320  225.4840 Cl  0  0  0  0  0  0  0  0  0  0  0  0
  136.7840   80.2110  223.3360 C   0  0  0  0  0  0  0  0  0  0  0  0
  137.3560   79.3390  222.4350 C   0  0  0  0  0  0  0  0  0  0  0  0
  138.6890   79.0040  222.6210 C   0  0  0  0  0  0  0  0  0  0  0  0
  139.2890   78.1550  221.7620 N   0  0  0  0  0  0  0  0  0  0  0  0
  142.8410   78.2170  220.5750 H   0  0  0  0  0  0  0  0  0  0  0  0
  144.1548   76.2372  219.7298 H   0  0  0  0  0  0  0  0  0  0  0  0
  142.5646   75.3835  219.5244 H   0  0  0  0  0  0  0  0  0  0  0  0
  140.2796   76.4879  218.0258 H   0  0  0  0  0  0  0  0  0  0  0  0
  140.1650   78.0534  218.7477 H   0  0  0  0  0  0  0  0  0  0  0  0
  140.3327   77.3899  215.6874 H   0  0  0  0  0  0  0  0  0  0  0  0
  138.9769   78.1677  216.4300 H   0  0  0  0  0  0  0  0  0  0  0  0
  140.3523   80.1840  216.9948 H   0  0  0  0  0  0  0  0  0  0  0  0
  140.4640   79.3370  214.4710 H   0  0  0  0  0  0  0  0  0  0  0  0
  142.9490   78.8330  216.1963 H   0  0  0  0  0  0  0  0  0  0  0  0
  143.7505   80.0781  217.9667 H   0  0  0  0  0  0  0  0  0  0  0  0
  142.2907   81.0210  217.6546 H   0  0  0  0  0  0  0  0  0  0  0  0
  139.7739   80.7707  218.8498 H   0  0  0  0  0  0  0  0  0  0  0  0
  138.7187   82.3833  220.3755 H   0  0  0  0  0  0  0  0  0  0  0  0
  139.8930   83.0574  222.4771 H   0  0  0  0  0  0  0  0  0  0  0  0
  142.1352   82.0792  223.0003 H   0  0  0  0  0  0  0  0  0  0  0  0
  143.1737   80.4634  221.4444 H   0  0  0  0  0  0  0  0  0  0  0  0
  142.3717   78.0278  223.0666 H   0  0  0  0  0  0  0  0  0  0  0  0
  141.3004   79.6097  224.6884 H   0  0  0  0  0  0  0  0  0  0  0  0
  139.3968   80.8247  225.4161 H   0  0  0  0  0  0  0  0  0  0  0  0
  135.7282   80.4918  223.2075 H   0  0  0  0  0  0  0  0  0  0  0  0
  136.7759   78.9234  221.5979 H   0  0  0  0  0  0  0  0  0  0  0  0
  1  2  2  0
  2  3  1  0
  3  4  1  0
  4  5  1  0
  5  6  2  0
  5  7  1  0
  7  8  1  0
  8  9  1  0
  9 10  1  0
 10 11  1  0
 10 12  1  0
 12 13  1  0
 13 14  1  0
 14 15  1  0
 15 16  2  0
 16 17  1  0
 17 18  2  0
 18 19  1  0
 19 20  2  0
  2 21  1  0
 21 22  2  0
 22 23  1  0
 23 24  2  0
 24 25  1  0
 25 26  2  0
 26 27  1  0
 26 28  1  0
 28 29  2  0
 29 30  1  0
 30 31  2  0
 12  7  1  0
 20 15  1  0
 31 21  1  0
 30 24  1  0
  3 32  1  0
  4 33  1  0
  4 34  1  0
  8 35  1  0
  8 36  1  0
  9 37  1  0
  9 38  1  0
 10 39  1  1
 11 40  1  0
 12 41  1  6
 13 42  1  0
 13 43  1  0
 16 44  1  0
 17 45  1  0
 18 46  1  0
 19 47  1  0
 20 48  1  0
 22 49  1  0
 23 50  1  0
 25 51  1  0
 28 52  1  0
 29 53  1  0
M  END
>  <smiles>  (5) 
O=C(NCC(=O)N1CC[C@H](O)[C@H]1COc1ccccc1)c1ccc2cc(Cl)ccc2n1

>  <score_type>  (5) 
oracle

>  <origin>  (5) 
autodockgpu

>  <m_score__min__energy>  (5) 
-8.7100000000000009

>  <m_primary>  (5) 
energy

>  <rmsd>  (5) 
7.639121652148876

>  <m_score__min__rmsd>  (5) 
7.639121652148876

>  <meeko>  (5) 
{"free_energy": -4.83, "intermolecular_energy": -7.22, "internal_energy": -3.82, "cluster_size": 4, "cluster_id": 11, "rank_in_cluster": 4}

>  <energy>  (5) 
-8.49

>  <cluster_rmsd>  (5) 
1.38

>  <cluster>  (5) 
1

$$$$

     RDKit          3D

 53 56  0  0  0  0  0  0  0  0999 V2000
  139.1420   72.0420  220.6050 O   0  0  0  0  0  0  0  0  0  0  0  0
  139.8110   72.3820  221.6240 C   0  0  0  0  0  0  0  0  0  0  0  0
  140.5350   73.6170  221.5930 N   0  0  0  0  0  0  0  0  0  0  0  0
  140.4660   74.4120  220.4030 C   0  0  0  0  0  0  0  0  0  0  0  0
  141.1170   75.7390  220.5770 C   0  0  0  0  0  0  0  0  0  0  0  0
  141.4560   76.1240  221.7360 O   0  0  0  0  0  0  0  0  0  0  0  0
  141.3370   76.5340  219.4440 N   0  0  0  0  0  0  0  0  0  0  0  0
  141.4110   76.1180  218.0530 C   0  0  0  0  0  0  0  0  0  0  0  0
  142.5820   76.9930  217.5910 C   0  0  0  0  0  0  0  0  0  0  0  0
  142.1190   78.3380  218.1000 C   0  0  2  0  0  0  0  0  0  0  0  0
  143.1670   79.2380  218.2470 O   0  0  0  0  0  0  0  0  0  0  0  0
  141.5400   77.9700  219.4500 C   0  0  1  0  0  0  0  0  0  0  0  0
  140.2280   78.7120  219.6070 C   0  0  0  0  0  0  0  0  0  0  0  0
  139.9310   78.6540  221.0060 O   0  0  0  0  0  0  0  0  0  0  0  0
  140.7940   79.1710  221.9360 C   0  0  0  0  0  0  0  0  0  0  0  0
  140.9810   78.5840  223.1730 C   0  0  0  0  0  0  0  0  0  0  0  0
  141.8470   79.1180  224.0830 C   0  0  0  0  0  0  0  0  0  0  0  0
  142.5560   80.2710  223.7650 C   0  0  0  0  0  0  0  0  0  0  0  0
  142.3700   80.8660  222.5150 C   0  0  0  0  0  0  0  0  0  0  0  0
  141.4920   80.3130  221.6120 C   0  0  0  0  0  0  0  0  0  0  0  0
  139.8580   71.5450  222.8220 C   0  0  0  0  0  0  0  0  0  0  0  0
  139.2840   70.2840  222.7570 C   0  0  0  0  0  0  0  0  0  0  0  0
  139.3040   69.4480  223.8730 C   0  0  0  0  0  0  0  0  0  0  0  0
  139.8990   69.9020  225.0240 C   0  0  0  0  0  0  0  0  0  0  0  0
  139.9140   69.0630  226.1310 C   0  0  0  0  0  0  0  0  0  0  0  0
  140.5190   69.5340  227.2890 C   0  0  0  0  0  0  0  0  0  0  0  0
  140.5700   68.5320  228.7090 Cl  0  0  0  0  0  0  0  0  0  0  0  0
  141.0770   70.7840  227.3210 C   0  0  0  0  0  0  0  0  0  0  0  0
  141.0650   71.6210  226.2260 C   0  0  0  0  0  0  0  0  0  0  0  0
  140.4620   71.1550  225.0680 C   0  0  0  0  0  0  0  0  0  0  0  0
  140.4290   71.9410  223.9720 N   0  0  0  0  0  0  0  0  0  0  0  0
  141.0780   73.8720  222.4490 H   0  0  0  0  0  0  0  0  0  0  0  0
  140.9707   73.8737  219.5872 H   0  0  0  0  0  0  0  0  0  0  0  0
  139.4044   74.5835  220.1716 H   0  0  0  0  0  0  0  0  0  0  0  0
  141.6366   75.0457  217.9565 H   0  0  0  0  0  0  0  0  0  0  0  0
  140.4810   76.2374  217.4778 H   0  0  0  0  0  0  0  0  0  0  0  0
  143.5303   76.6848  218.0554 H   0  0  0  0  0  0  0  0  0  0  0  0
  142.7937   76.9530  216.5123 H   0  0  0  0  0  0  0  0  0  0  0  0
  141.4176   78.8399  217.4173 H   0  0  0  0  0  0  0  0  0  0  0  0
  143.7090   79.3790  217.4500 H   0  0  0  0  0  0  0  0  0  0  0  0
  142.1991   78.2423  220.2875 H   0  0  0  0  0  0  0  0  0  0  0  0
  140.3333   79.7563  219.2777 H   0  0  0  0  0  0  0  0  0  0  0  0
  139.4278   78.2671  218.9973 H   0  0  0  0  0  0  0  0  0  0  0  0
  140.4227   77.6713  223.4285 H   0  0  0  0  0  0  0  0  0  0  0  0
  141.9833   78.6383  225.0635 H   0  0  0  0  0  0  0  0  0  0  0  0
  143.2564   80.7103  224.4906 H   0  0  0  0  0  0  0  0  0  0  0  0
  142.9263   81.7779  222.2524 H   0  0  0  0  0  0  0  0  0  0  0  0
  141.3471   80.7842  220.6286 H   0  0  0  0  0  0  0  0  0  0  0  0
  138.8123   69.9428  221.8237 H   0  0  0  0  0  0  0  0  0  0  0  0
  138.8525   68.4458  223.8320 H   0  0  0  0  0  0  0  0  0  0  0  0
  139.4625   68.0607  226.0918 H   0  0  0  0  0  0  0  0  0  0  0  0
  141.5504   71.1316  228.2511 H   0  0  0  0  0  0  0  0  0  0  0  0
  141.5176   72.6226  226.2694 H   0  0  0  0  0  0  0  0  0  0  0  0
  1  2  2  0
  2  3  1  0
  3  4  1  0
  4  5  1  0
  5  6  2  0
  5  7  1  0
  7  8  1  0
  8  9  1  0
  9 10  1  0
 10 11  1  0
 10 12  1  0
 12 13  1  0
 13 14  1  0
 14 15  1  0
 15 16  2  0
 16 17  1  0
 17 18  2  0
 18 19  1  0
 19 20  2  0
  2 21  1  0
 21 22  2  0
 22 23  1  0
 23 24  2  0
 24 25  1  0
 25 26  2  0
 26 27  1  0
 26 28  1  0
 28 29  2  0
 29 30  1  0
 30 31  2  0
 12  7  1  0
 20 15  1  0
 31 21  1  0
 30 24  1  0
  3 32  1  0
  4 33  1  0
  4 34  1  0
  8 35  1  0
  8 36  1  0
  9 37  1  0
  9 38  1  0
 10 39  1  6
 11 40  1  0
 12 41  1  1
 13 42  1  0
 13 43  1  0
 16 44  1  0
 17 45  1  0
 18 46  1  0
 19 47  1  0
 20 48  1  0
 22 49  1  0
 23 50  1  0
 25 51  1  0
 28 52  1  0
 29 53  1  0
M  END
>  <smiles>  (6) 
O=C(NCC(=O)N1CC[C@H](O)[C@H]1COc1ccccc1)c1ccc2cc(Cl)ccc2n1

>  <score_type>  (6) 
oracle

>  <origin>  (6) 
autodockgpu

>  <m_score__min__energy>  (6) 
-8.7100000000000009

>  <m_primary>  (6) 
energy

>  <rmsd>  (6) 
2.1707671758501617

>  <m_score__min__rmsd>  (6) 
2.1707671758501617

>  <meeko>  (6) 
{"free_energy": -7.94, "intermolecular_energy": -10.33, "internal_energy": -2.01, "cluster_size": 22, "cluster_id": 1, "rank_in_cluster": 15}

>  <energy>  (6) 
-8.25

>  <cluster_rmsd>  (6) 
0.88

>  <cluster>  (6) 
1

$$$$

     RDKit          3D

 53 56  0  0  0  0  0  0  0  0999 V2000
  136.2110   78.4520  223.2740 O   0  0  0  0  0  0  0  0  0  0  0  0
  136.9890   78.7250  222.3140 C   0  0  0  0  0  0  0  0  0  0  0  0
  136.7190   79.8820  221.5150 N   0  0  0  0  0  0  0  0  0  0  0  0
  135.5750   80.6800  221.8440 C   0  0  0  0  0  0  0  0  0  0  0  0
  135.9120   81.7810  222.7870 C   0  0  0  0  0  0  0  0  0  0  0  0
  136.1560   82.9400  222.3360 O   0  0  0  0  0  0  0  0  0  0  0  0
  135.9510   81.5010  224.1600 N   0  0  0  0  0  0  0  0  0  0  0  0
  134.8990   80.9510  224.9970 C   0  0  0  0  0  0  0  0  0  0  0  0
  135.0880   81.8220  226.2450 C   0  0  0  0  0  0  0  0  0  0  0  0
  136.5760   81.6580  226.4530 C   0  0  2  0  0  0  0  0  0  0  0  0
  137.1200   82.6850  227.2130 O   0  0  0  0  0  0  0  0  0  0  0  0
  137.0910   81.7190  225.0300 C   0  0  1  0  0  0  0  0  0  0  0  0
  138.1260   80.6240  224.8670 C   0  0  0  0  0  0  0  0  0  0  0  0
  138.7950   80.9220  223.6370 O   0  0  0  0  0  0  0  0  0  0  0  0
  140.0730   80.4900  223.4020 C   0  0  0  0  0  0  0  0  0  0  0  0
  140.5480   79.2900  223.8990 C   0  0  0  0  0  0  0  0  0  0  0  0
  141.8260   78.8810  223.6520 C   0  0  0  0  0  0  0  0  0  0  0  0
  142.6700   79.6810  222.8880 C   0  0  0  0  0  0  0  0  0  0  0  0
  142.1930   80.8930  222.3840 C   0  0  0  0  0  0  0  0  0  0  0  0
  140.9020   81.2880  222.6460 C   0  0  0  0  0  0  0  0  0  0  0  0
  138.1480   77.8880  222.0080 C   0  0  0  0  0  0  0  0  0  0  0  0
  138.2330   76.6460  222.6180 C   0  0  0  0  0  0  0  0  0  0  0  0
  139.3190   75.8100  222.3580 C   0  0  0  0  0  0  0  0  0  0  0  0
  140.2910   76.2460  221.4910 C   0  0  0  0  0  0  0  0  0  0  0  0
  141.3690   75.4080  221.2380 C   0  0  0  0  0  0  0  0  0  0  0  0
  142.3450   75.8610  220.3590 C   0  0  0  0  0  0  0  0  0  0  0  0
  143.7190   74.8590  220.0010 Cl  0  0  0  0  0  0  0  0  0  0  0  0
  142.2320   77.0920  219.7720 C   0  0  0  0  0  0  0  0  0  0  0  0
  141.1640   77.9280  220.0200 C   0  0  0  0  0  0  0  0  0  0  0  0
  140.1880   77.4810  220.8960 C   0  0  0  0  0  0  0  0  0  0  0  0
  139.1250   78.2670  221.1670 N   0  0  0  0  0  0  0  0  0  0  0  0
  137.3790   80.0830  220.7300 H   0  0  0  0  0  0  0  0  0  0  0  0
  135.1696   81.1167  220.9194 H   0  0  0  0  0  0  0  0  0  0  0  0
  134.8374   80.0280  222.3347 H   0  0  0  0  0  0  0  0  0  0  0  0
  133.9040   81.0872  224.5482 H   0  0  0  0  0  0  0  0  0  0  0  0
  134.9568   79.8662  225.1697 H   0  0  0  0  0  0  0  0  0  0  0  0
  134.8148   82.8708  226.0567 H   0  0  0  0  0  0  0  0  0  0  0  0
  134.4648   81.5404  227.1066 H   0  0  0  0  0  0  0  0  0  0  0  0
  136.8371   80.7403  227.0004 H   0  0  0  0  0  0  0  0  0  0  0  0
  136.6390   82.8930  228.0350 H   0  0  0  0  0  0  0  0  0  0  0  0
  137.5591   82.6837  224.7846 H   0  0  0  0  0  0  0  0  0  0  0  0
  138.8371   80.6370  225.7062 H   0  0  0  0  0  0  0  0  0  0  0  0
  137.6687   79.6236  224.8551 H   0  0  0  0  0  0  0  0  0  0  0  0
  139.8843   78.6545  224.5037 H   0  0  0  0  0  0  0  0  0  0  0  0
  142.1874   77.9234  224.0549 H   0  0  0  0  0  0  0  0  0  0  0  0
  143.7026   79.3620  222.6830 H   0  0  0  0  0  0  0  0  0  0  0  0
  142.8506   81.5324  221.7768 H   0  0  0  0  0  0  0  0  0  0  0  0
  140.5305   82.2447  222.2502 H   0  0  0  0  0  0  0  0  0  0  0  0
  137.4420   76.3189  223.3089 H   0  0  0  0  0  0  0  0  0  0  0  0
  139.3953   74.8227  222.8371 H   0  0  0  0  0  0  0  0  0  0  0  0
  141.4474   74.4206  221.7165 H   0  0  0  0  0  0  0  0  0  0  0  0
  143.0190   77.4255  219.0796 H   0  0  0  0  0  0  0  0  0  0  0  0
  141.0895   78.9147  219.5395 H   0  0  0  0  0  0  0  0  0  0  0  0
  1  2  2  0
  2  3  1  0
  3  4  1  0
  4  5  1  0
  5  6  2  0
  5  7  1  0
  7  8  1  0
  8  9  1  0
  9 10  1  0
 10 11  1  0
 10 12  1  0
 12 13  1  0
 13 14  1  0
 14 15  1  0
 15 16  2  0
 16 17  1  0
 17 18  2  0
 18 19  1  0
 19 20  2  0
  2 21  1  0
 21 22  2  0
 22 23  1  0
 23 24  2  0
 24 25  1  0
 25 26  2  0
 26 27  1  0
 26 28  1  0
 28 29  2  0
 29 30  1  0
 30 31  2  0
 12  7  1  0
 20 15  1  0
 31 21  1  0
 30 24  1  0
  3 32  1  0
  4 33  1  0
  4 34  1  0
  8 35  1  0
  8 36  1  0
  9 37  1  0
  9 38  1  0
 10 39  1  1
 11 40  1  0
 12 41  1  6
 13 42  1  0
 13 43  1  0
 16 44  1  0
 17 45  1  0
 18 46  1  0
 19 47  1  0
 20 48  1  0
 22 49  1  0
 23 50  1  0
 25 51  1  0
 28 52  1  0
 29 53  1  0
M  END
>  <smiles>  (7) 
O=C(NCC(=O)N1CC[C@H](O)[C@H]1COc1ccccc1)c1ccc2cc(Cl)ccc2n1

>  <score_type>  (7) 
oracle

>  <origin>  (7) 
autodockgpu

>  <m_score__min__energy>  (7) 
-8.7100000000000009

>  <m_primary>  (7) 
energy

>  <rmsd>  (7) 
9.351985236771139

>  <m_score__min__rmsd>  (7) 
9.351985236771139

>  <meeko>  (7) 
{"free_energy": -5.84, "intermolecular_energy": -8.23, "internal_energy": -3.22, "cluster_size": 1, "cluster_id": 13, "rank_in_cluster": 1}

>  <energy>  (7) 
-8.25

>  <cluster_rmsd>  (7) 
1.28

>  <cluster>  (7) 
1

$$$$

     RDKit          3D

 53 56  0  0  0  0  0  0  0  0999 V2000
  141.7970   73.1350  220.9280 O   0  0  0  0  0  0  0  0  0  0  0  0
  141.0430   73.9460  221.5420 C   0  0  0  0  0  0  0  0  0  0  0  0
  139.9980   73.4230  222.3710 N   0  0  0  0  0  0  0  0  0  0  0  0
  139.8570   72.0000  222.4650 C   0  0  0  0  0  0  0  0  0  0  0  0
  138.4510   71.5610  222.2540 C   0  0  0  0  0  0  0  0  0  0  0  0
  137.5640   72.4170  221.9570 O   0  0  0  0  0  0  0  0  0  0  0  0
  138.1430   70.2010  222.3940 N   0  0  0  0  0  0  0  0  0  0  0  0
  138.7600   69.0660  221.7290 C   0  0  0  0  0  0  0  0  0  0  0  0
  137.5060   68.2330  221.4360 C   0  0  0  0  0  0  0  0  0  0  0  0
  136.8690   68.2310  222.8060 C   0  0  2  0  0  0  0  0  0  0  0  0
  135.5080   67.9610  222.7560 O   0  0  0  0  0  0  0  0  0  0  0  0
  137.1130   69.6560  223.2580 C   0  0  1  0  0  0  0  0  0  0  0  0
  137.5720   69.6090  224.7010 C   0  0  0  0  0  0  0  0  0  0  0  0
  138.9930   69.7710  224.6460 O   0  0  0  0  0  0  0  0  0  0  0  0
  139.6910   70.2730  225.7130 C   0  0  0  0  0  0  0  0  0  0  0  0
  140.4310   71.4380  225.6270 C   0  0  0  0  0  0  0  0  0  0  0  0
  141.1180   71.9180  226.7040 C   0  0  0  0  0  0  0  0  0  0  0  0
  141.0770   71.2270  227.9110 C   0  0  0  0  0  0  0  0  0  0  0  0
  140.3310   70.0500  228.0010 C   0  0  0  0  0  0  0  0  0  0  0  0
  139.6460   69.5830  226.9040 C   0  0  0  0  0  0  0  0  0  0  0  0
  141.2170   75.3920  221.4230 C   0  0  0  0  0  0  0  0  0  0  0  0
  141.9660   75.8710  220.3590 C   0  0  0  0  0  0  0  0  0  0  0  0
  142.1590   77.2440  220.2020 C   0  0  0  0  0  0  0  0  0  0  0  0
  141.5970   78.0970  221.1190 C   0  0  0  0  0  0  0  0  0  0  0  0
  141.7950   79.4620  220.9550 C   0  0  0  0  0  0  0  0  0  0  0  0
  141.2200   80.3140  221.8890 C   0  0  0  0  0  0  0  0  0  0  0  0
  141.4320   82.0330  221.7390 Cl  0  0  0  0  0  0  0  0  0  0  0  0
  140.4860   79.8090  222.9280 C   0  0  0  0  0  0  0  0  0  0  0  0
  140.2860   78.4560  223.0960 C   0  0  0  0  0  0  0  0  0  0  0  0
  140.8580   77.6010  222.1660 C   0  0  0  0  0  0  0  0  0  0  0  0
  140.6860   76.2690  222.2920 N   0  0  0  0  0  0  0  0  0  0  0  0
  139.3920   74.1150  222.8660 H   0  0  0  0  0  0  0  0  0  0  0  0
  140.4938   71.5294  221.7014 H   0  0  0  0  0  0  0  0  0  0  0  0
  140.1579   71.6963  223.4785 H   0  0  0  0  0  0  0  0  0  0  0  0
  139.2799   69.3637  220.8064 H   0  0  0  0  0  0  0  0  0  0  0  0
  139.5399   68.5506  222.3087 H   0  0  0  0  0  0  0  0  0  0  0  0
  136.8613   68.7150  220.6863 H   0  0  0  0  0  0  0  0  0  0  0  0
  137.6993   67.2363  221.0126 H   0  0  0  0  0  0  0  0  0  0  0  0
  137.2800   67.4581  223.4722 H   0  0  0  0  0  0  0  0  0  0  0  0
  134.9710   68.6180  222.2760 H   0  0  0  0  0  0  0  0  0  0  0  0
  136.2131   70.2856  223.1962 H   0  0  0  0  0  0  0  0  0  0  0  0
  137.1125   70.4243  225.2791 H   0  0  0  0  0  0  0  0  0  0  0  0
  137.2832   68.6695  225.1949 H   0  0  0  0  0  0  0  0  0  0  0  0
  140.4665   71.9870  224.6745 H   0  0  0  0  0  0  0  0  0  0  0  0
  141.7013   72.8467  226.6183 H   0  0  0  0  0  0  0  0  0  0  0  0
  141.6269   71.6042  228.7858 H   0  0  0  0  0  0  0  0  0  0  0  0
  140.2913   69.4959  228.9504 H   0  0  0  0  0  0  0  0  0  0  0  0
  139.0600   68.6550  226.9780 H   0  0  0  0  0  0  0  0  0  0  0  0
  142.4085   75.1679  219.6379 H   0  0  0  0  0  0  0  0  0  0  0  0
  142.7496   77.6350  219.3604 H   0  0  0  0  0  0  0  0  0  0  0  0
  142.3865   79.8545  220.1147 H   0  0  0  0  0  0  0  0  0  0  0  0
  140.0409   80.5064  223.6530 H   0  0  0  0  0  0  0  0  0  0  0  0
  139.6937   78.0680  223.9378 H   0  0  0  0  0  0  0  0  0  0  0  0
  1  2  2  0
  2  3  1  0
  3  4  1  0
  4  5  1  0
  5  6  2  0
  5  7  1  0
  7  8  1  0
  8  9  1  0
  9 10  1  0
 10 11  1  0
 10 12  1  0
 12 13  1  0
 13 14  1  0
 14 15  1  0
 15 16  2  0
 16 17  1  0
 17 18  2  0
 18 19  1  0
 19 20  2  0
  2 21  1  0
 21 22  2  0
 22 23  1  0
 23 24  2  0
 24 25  1  0
 25 26  2  0
 26 27  1  0
 26 28  1  0
 28 29  2  0
 29 30  1  0
 30 31  2  0
 12  7  1  0
 20 15  1  0
 31 21  1  0
 30 24  1  0
  3 32  1  0
  4 33  1  0
  4 34  1  0
  8 35  1  0
  8 36  1  0
  9 37  1  0
  9 38  1  0
 10 39  1  1
 11 40  1  0
 12 41  1  1
 13 42  1  0
 13 43  1  0
 16 44  1  0
 17 45  1  0
 18 46  1  0
 19 47  1  0
 20 48  1  0
 22 49  1  0
 23 50  1  0
 25 51  1  0
 28 52  1  0
 29 53  1  0
M  END
>  <smiles>  (8) 
O=C(NCC(=O)N1CC[C@H](O)[C@H]1COc1ccccc1)c1ccc2cc(Cl)ccc2n1

>  <score_type>  (8) 
oracle

>  <origin>  (8) 
autodockgpu

>  <m_score__min__energy>  (8) 
-8.7100000000000009

>  <m_primary>  (8) 
energy

>  <rmsd>  (8) 
8.517390473647488

>  <m_score__min__rmsd>  (8) 
8.517390473647488

>  <meeko>  (8) 
{"free_energy": -7.39, "intermolecular_energy": -9.77, "internal_energy": -1.86, "cluster_size": 5, "cluster_id": 2, "rank_in_cluster": 4}

>  <energy>  (8) 
-8.23

>  <cluster_rmsd>  (8) 
0.97

>  <cluster>  (8) 
1

$$$$

     RDKit          3D

 53 56  0  0  0  0  0  0  0  0999 V2000
  142.3910   80.3700  219.4870 O   0  0  0  0  0  0  0  0  0  0  0  0
  141.5860   79.4330  219.7690 C   0  0  0  0  0  0  0  0  0  0  0  0
  140.2560   79.7680  220.1800 N   0  0  0  0  0  0  0  0  0  0  0  0
  139.8980   81.1530  220.2540 C   0  0  0  0  0  0  0  0  0  0  0  0
  140.4670   81.8160  221.4580 C   0  0  0  0  0  0  0  0  0  0  0  0
  140.5010   83.0820  221.5210 O   0  0  0  0  0  0  0  0  0  0  0  0
  140.9560   81.0140  222.4990 N   0  0  0  0  0  0  0  0  0  0  0  0
  142.1180   81.2430  223.3420 C   0  0  0  0  0  0  0  0  0  0  0  0
  142.6720   79.8150  223.4010 C   0  0  0  0  0  0  0  0  0  0  0  0
  141.4170   79.0650  223.7880 C   0  0  2  0  0  0  0  0  0  0  0  0
  141.4860   77.7170  223.4650 O   0  0  0  0  0  0  0  0  0  0  0  0
  140.3730   79.7620  222.9420 C   0  0  1  0  0  0  0  0  0  0  0  0
  139.1560   80.0000  223.8150 C   0  0  0  0  0  0  0  0  0  0  0  0
  138.0390   79.5940  223.0170 O   0  0  0  0  0  0  0  0  0  0  0  0
  138.0270   78.3810  222.3790 C   0  0  0  0  0  0  0  0  0  0  0  0
  138.4390   77.2180  223.0020 C   0  0  0  0  0  0  0  0  0  0  0  0
  138.4180   76.0210  222.3470 C   0  0  0  0  0  0  0  0  0  0  0  0
  137.9740   75.9660  221.0290 C   0  0  0  0  0  0  0  0  0  0  0  0
  137.5560   77.1400  220.3980 C   0  0  0  0  0  0  0  0  0  0  0  0
  137.5860   78.3350  221.0760 C   0  0  0  0  0  0  0  0  0  0  0  0
  141.9860   78.0300  219.6820 C   0  0  0  0  0  0  0  0  0  0  0  0
  142.8870   77.6710  218.6900 C   0  0  0  0  0  0  0  0  0  0  0  0
  143.3000   76.3440  218.5680 C   0  0  0  0  0  0  0  0  0  0  0  0
  142.7960   75.4150  219.4430 C   0  0  0  0  0  0  0  0  0  0  0  0
  143.2120   74.0960  219.3130 C   0  0  0  0  0  0  0  0  0  0  0  0
  142.6950   73.1660  220.2050 C   0  0  0  0  0  0  0  0  0  0  0  0
  143.1760   71.4990  220.0950 Cl  0  0  0  0  0  0  0  0  0  0  0  0
  141.8070   73.5520  221.1730 C   0  0  0  0  0  0  0  0  0  0  0  0
  141.3900   74.8590  221.3070 C   0  0  0  0  0  0  0  0  0  0  0  0
  141.9040   75.7920  220.4180 C   0  0  0  0  0  0  0  0  0  0  0  0
  141.5230   77.0820  220.5140 N   0  0  0  0  0  0  0  0  0  0  0  0
  139.6140   78.9740  220.4060 H   0  0  0  0  0  0  0  0  0  0  0  0
  140.2747   81.6649  219.3562 H   0  0  0  0  0  0  0  0  0  0  0  0
  138.8018   81.2158  220.3198 H   0  0  0  0  0  0  0  0  0  0  0  0
  142.8306   81.9409  222.8781 H   0  0  0  0  0  0  0  0  0  0  0  0
  141.9053   81.7037  224.3180 H   0  0  0  0  0  0  0  0  0  0  0  0
  143.0599   79.4865  222.4255 H   0  0  0  0  0  0  0  0  0  0  0  0
  143.5247   79.6756  224.0817 H   0  0  0  0  0  0  0  0  0  0  0  0
  141.2209   79.0804  224.8703 H   0  0  0  0  0  0  0  0  0  0  0  0
  141.8630   77.5170  222.5900 H   0  0  0  0  0  0  0  0  0  0  0  0
  140.0676   79.1707  222.0662 H   0  0  0  0  0  0  0  0  0  0  0  0
  139.2149   79.3960  224.7325 H   0  0  0  0  0  0  0  0  0  0  0  0
  139.0756   81.0502  224.1323 H   0  0  0  0  0  0  0  0  0  0  0  0
  138.7899   77.2580  224.0438 H   0  0  0  0  0  0  0  0  0  0  0  0
  138.7500   75.1050  222.8576 H   0  0  0  0  0  0  0  0  0  0  0  0
  137.9525   75.0075  220.4897 H   0  0  0  0  0  0  0  0  0  0  0  0
  137.2023   77.1080  219.3569 H   0  0  0  0  0  0  0  0  0  0  0  0
  137.2565   79.2576  220.5758 H   0  0  0  0  0  0  0  0  0  0  0  0
  143.2761   78.4333  217.9990 H   0  0  0  0  0  0  0  0  0  0  0  0
  144.0152   76.0485  217.7862 H   0  0  0  0  0  0  0  0  0  0  0  0
  143.9260   73.7987  218.5308 H   0  0  0  0  0  0  0  0  0  0  0  0
  141.4134   72.7943  221.8665 H   0  0  0  0  0  0  0  0  0  0  0  0
  140.6755   75.1517  222.0905 H   0  0  0  0  0  0  0  0  0  0  0  0
  1  2  2  0
  2  3  1  0
  3  4  1  0
  4  5  1  0
  5  6  2  0
  5  7  1  0
  7  8  1  0
  8  9  1  0
  9 10  1  0
 10 11  1  0
 10 12  1  0
 12 13  1  0
 13 14  1  0
 14 15  1  0
 15 16  2  0
 16 17  1  0
 17 18  2  0
 18 19  1  0
 19 20  2  0
  2 21  1  0
 21 22  2  0
 22 23  1  0
 23 24  2  0
 24 25  1  0
 25 26  2  0
 26 27  1  0
 26 28  1  0
 28 29  2  0
 29 30  1  0
 30 31  2  0
 12  7  1  0
 20 15  1  0
 31 21  1  0
 30 24  1  0
  3 32  1  0
  4 33  1  0
  4 34  1  0
  8 35  1  0
  8 36  1  0
  9 37  1  0
  9 38  1  0
 10 39  1  1
 11 40  1  0
 12 41  1  6
 13 42  1  0
 13 43  1  0
 16 44  1  0
 17 45  1  0
 18 46  1  0
 19 47  1  0
 20 48  1  0
 22 49  1  0
 23 50  1  0
 25 51  1  0
 28 52  1  0
 29 53  1  0
M  END
>  <smiles>  (9) 
O=C(NCC(=O)N1CC[C@H](O)[C@H]1COc1ccccc1)c1ccc2cc(Cl)ccc2n1

>  <score_type>  (9) 
oracle

>  <origin>  (9) 
autodockgpu

>  <m_score__min__energy>  (9) 
-8.7100000000000009

>  <m_primary>  (9) 
energy

>  <rmsd>  (9) 
8.24437846673625

>  <m_score__min__rmsd>  (9) 
8.24437846673625

>  <meeko>  (9) 
{"free_energy": -5.4, "intermolecular_energy": -7.78, "internal_energy": -3.81, "cluster_size": 1, "cluster_id": 14, "rank_in_cluster": 1}

>  <energy>  (9) 
-8.17

>  <cluster_rmsd>  (9) 
0.99

>  <cluster>  (9) 
1

$$$$

     RDKit          3D

 53 56  0  0  0  0  0  0  0  0999 V2000
  139.4880   74.9080  220.7410 O   0  0  0  0  0  0  0  0  0  0  0  0
  139.9630   75.8500  221.4410 C   0  0  0  0  0  0  0  0  0  0  0  0
  141.3770   75.8980  221.6630 N   0  0  0  0  0  0  0  0  0  0  0  0
  142.1890   74.8720  221.0790 C   0  0  0  0  0  0  0  0  0  0  0  0
  143.0510   75.3940  219.9840 C   0  0  0  0  0  0  0  0  0  0  0  0
  144.3050   75.2160  220.0330 O   0  0  0  0  0  0  0  0  0  0  0  0
  142.4450   76.0770  218.9200 N   0  0  0  0  0  0  0  0  0  0  0  0
  141.6380   75.5290  217.8430 C   0  0  0  0  0  0  0  0  0  0  0  0
  142.1860   76.3550  216.6720 C   0  0  0  0  0  0  0  0  0  0  0  0
  142.0740   77.7430  217.2590 C   0  0  2  0  0  0  0  0  0  0  0  0
  142.9160   78.6520  216.6320 O   0  0  0  0  0  0  0  0  0  0  0  0
  142.5170   77.5070  218.6880 C   0  0  1  0  0  0  0  0  0  0  0  0
  141.5660   78.2600  219.5960 C   0  0  0  0  0  0  0  0  0  0  0  0
  142.2000   78.2660  220.8790 O   0  0  0  0  0  0  0  0  0  0  0  0
  142.1620   79.3740  221.6840 C   0  0  0  0  0  0  0  0  0  0  0  0
  141.6710   80.5890  221.2420 C   0  0  0  0  0  0  0  0  0  0  0  0
  141.6440   81.6790  222.0620 C   0  0  0  0  0  0  0  0  0  0  0  0
  142.1170   81.5720  223.3670 C   0  0  0  0  0  0  0  0  0  0  0  0
  142.6130   80.3450  223.8160 C   0  0  0  0  0  0  0  0  0  0  0  0
  142.6320   79.2590  222.9730 C   0  0  0  0  0  0  0  0  0  0  0  0
  139.1030   76.8800  222.0200 C   0  0  0  0  0  0  0  0  0  0  0  0
  137.7320   76.7440  221.8670 C   0  0  0  0  0  0  0  0  0  0  0  0
  136.8700   77.7010  222.4040 C   0  0  0  0  0  0  0  0  0  0  0  0
  137.4100   78.7680  223.0780 C   0  0  0  0  0  0  0  0  0  0  0  0
  136.5440   79.7170  223.6080 C   0  0  0  0  0  0  0  0  0  0  0  0
  137.1030   80.7910  224.2890 C   0  0  0  0  0  0  0  0  0  0  0  0
  136.0730   82.0120  224.9750 Cl  0  0  0  0  0  0  0  0  0  0  0  0
  138.4620   80.8960  224.4230 C   0  0  0  0  0  0  0  0  0  0  0  0
  139.3250   79.9580  223.8980 C   0  0  0  0  0  0  0  0  0  0  0  0
  138.7720   78.8840  223.2190 C   0  0  0  0  0  0  0  0  0  0  0  0
  139.5810   77.9430  222.6900 N   0  0  0  0  0  0  0  0  0  0  0  0
  141.7410   76.6860  222.2430 H   0  0  0  0  0  0  0  0  0  0  0  0
  142.8314   74.4405  221.8607 H   0  0  0  0  0  0  0  0  0  0  0  0
  141.5182   74.1136  220.6490 H   0  0  0  0  0  0  0  0  0  0  0  0
  141.8151   74.4523  217.7043 H   0  0  0  0  0  0  0  0  0  0  0  0
  140.5502   75.5932  217.9932 H   0  0  0  0  0  0  0  0  0  0  0  0
  143.2286   76.0925  216.4392 H   0  0  0  0  0  0  0  0  0  0  0  0
  141.6609   76.2111  215.7162 H   0  0  0  0  0  0  0  0  0  0  0  0
  141.0688   78.1766  217.1520 H   0  0  0  0  0  0  0  0  0  0  0  0
  143.6580   78.9750  217.1740 H   0  0  0  0  0  0  0  0  0  0  0  0
  143.5409   77.8587  218.8826 H   0  0  0  0  0  0  0  0  0  0  0  0
  141.4188   79.2880  219.2334 H   0  0  0  0  0  0  0  0  0  0  0  0
  140.5716   77.7910  219.6304 H   0  0  0  0  0  0  0  0  0  0  0  0
  141.2959   80.6780  220.2118 H   0  0  0  0  0  0  0  0  0  0  0  0
  141.2503   82.6379  221.6938 H   0  0  0  0  0  0  0  0  0  0  0  0
  142.1005   82.4439  224.0375 H   0  0  0  0  0  0  0  0  0  0  0  0
  142.9887   80.2480  224.8453 H   0  0  0  0  0  0  0  0  0  0  0  0
  143.0240   78.2951  223.3296 H   0  0  0  0  0  0  0  0  0  0  0  0
  137.3231   75.8807  221.3216 H   0  0  0  0  0  0  0  0  0  0  0  0
  135.7804   77.6024  222.2896 H   0  0  0  0  0  0  0  0  0  0  0  0
  135.4543   79.6211  223.4923 H   0  0  0  0  0  0  0  0  0  0  0  0
  138.8783   81.7566  224.9671 H   0  0  0  0  0  0  0  0  0  0  0  0
  140.4142   80.0585  224.0140 H   0  0  0  0  0  0  0  0  0  0  0  0
  1  2  2  0
  2  3  1  0
  3  4  1  0
  4  5  1  0
  5  6  2  0
  5  7  1  0
  7  8  1  0
  8  9  1  0
  9 10  1  0
 10 11  1  0
 10 12  1  0
 12 13  1  0
 13 14  1  0
 14 15  1  0
 15 16  2  0
 16 17  1  0
 17 18  2  0
 18 19  1  0
 19 20  2  0
  2 21  1  0
 21 22  2  0
 22 23  1  0
 23 24  2  0
 24 25  1  0
 25 26  2  0
 26 27  1  0
 26 28  1  0
 28 29  2  0
 29 30  1  0
 30 31  2  0
 12  7  1  0
 20 15  1  0
 31 21  1  0
 30 24  1  0
  3 32  1  0
  4 33  1  0
  4 34  1  0
  8 35  1  0
  8 36  1  0
  9 37  1  0
  9 38  1  0
 10 39  1  1
 11 40  1  0
 12 41  1  6
 13 42  1  0
 13 43  1  0
 16 44  1  0
 17 45  1  0
 18 46  1  0
 19 47  1  0
 20 48  1  0
 22 49  1  0
 23 50  1  0
 25 51  1  0
 28 52  1  0
 29 53  1  0
M  END
>  <smiles>  (10) 
O=C(NCC(=O)N1CC[C@H](O)[C@H]1COc1ccccc1)c1ccc2cc(Cl)ccc2n1

>  <score_type>  (10) 
oracle

>  <origin>  (10) 
autodockgpu

>  <m_score__min__energy>  (10) 
-8.7100000000000009

>  <m_primary>  (10) 
energy

>  <rmsd>  (10) 
6.812165850622938

>  <m_score__min__rmsd>  (10) 
6.812165850622938

>  <meeko>  (10) 
{"free_energy": -6.24, "intermolecular_energy": -8.63, "internal_energy": -3.47, "cluster_size": 4, "cluster_id": 11, "rank_in_cluster": 2}

>  <energy>  (10) 
-8.11

>  <cluster_rmsd>  (10) 
1.38

>  <cluster>  (10) 
1

$$$$

     RDKit          3D

 53 56  0  0  0  0  0  0  0  0999 V2000
  139.6960   72.0320  220.7600 O   0  0  0  0  0  0  0  0  0  0  0  0
  139.6980   72.4490  221.9550 C   0  0  0  0  0  0  0  0  0  0  0  0
  139.5600   73.8540  222.1950 N   0  0  0  0  0  0  0  0  0  0  0  0
  139.4260   74.7240  221.0640 C   0  0  0  0  0  0  0  0  0  0  0  0
  139.4520   76.1590  221.4550 C   0  0  0  0  0  0  0  0  0  0  0  0
  139.3490   76.4790  222.6770 O   0  0  0  0  0  0  0  0  0  0  0  0
  139.5900   77.1280  220.4500 N   0  0  0  0  0  0  0  0  0  0  0  0
  138.8360   78.3570  220.2750 C   0  0  0  0  0  0  0  0  0  0  0  0
  138.6580   78.3290  218.7530 C   0  0  0  0  0  0  0  0  0  0  0  0
  140.0880   78.0870  218.3280 C   0  0  2  0  0  0  0  0  0  0  0  0
  140.1770   77.5530  217.0500 O   0  0  0  0  0  0  0  0  0  0  0  0
  140.5460   77.0780  219.3600 C   0  0  1  0  0  0  0  0  0  0  0  0
  141.9300   77.4860  219.8220 C   0  0  0  0  0  0  0  0  0  0  0  0
  141.8270   77.6140  221.2440 O   0  0  0  0  0  0  0  0  0  0  0  0
  141.8510   78.8440  221.8480 C   0  0  0  0  0  0  0  0  0  0  0  0
  141.8270   80.0210  221.1240 C   0  0  0  0  0  0  0  0  0  0  0  0
  141.8520   81.2340  221.7480 C   0  0  0  0  0  0  0  0  0  0  0  0
  141.9020   81.2930  223.1380 C   0  0  0  0  0  0  0  0  0  0  0  0
  141.9260   80.1040  223.8720 C   0  0  0  0  0  0  0  0  0  0  0  0
  141.9010   78.8920  223.2230 C   0  0  0  0  0  0  0  0  0  0  0  0
  139.8360   71.5320  223.0850 C   0  0  0  0  0  0  0  0  0  0  0  0
  139.4490   70.2130  222.9030 C   0  0  0  0  0  0  0  0  0  0  0  0
  139.5630   69.2990  223.9510 C   0  0  0  0  0  0  0  0  0  0  0  0
  140.0610   69.7360  225.1530 C   0  0  0  0  0  0  0  0  0  0  0  0
  140.1710   68.8200  226.1910 C   0  0  0  0  0  0  0  0  0  0  0  0
  140.6770   69.2750  227.4020 C   0  0  0  0  0  0  0  0  0  0  0  0
  140.8390   68.1770  228.7400 Cl  0  0  0  0  0  0  0  0  0  0  0  0
  141.0510   70.5830  227.5500 C   0  0  0  0  0  0  0  0  0  0  0  0
  140.9440   71.4970  226.5230 C   0  0  0  0  0  0  0  0  0  0  0  0
  140.4400   71.0480  225.3130 C   0  0  0  0  0  0  0  0  0  0  0  0
  140.3190   71.9090  224.2810 N   0  0  0  0  0  0  0  0  0  0  0  0
  139.5640   74.1700  223.1910 H   0  0  0  0  0  0  0  0  0  0  0  0
  140.2556   74.5311  220.3679 H   0  0  0  0  0  0  0  0  0  0  0  0
  138.4534   74.5191  220.5927 H   0  0  0  0  0  0  0  0  0  0  0  0
  137.8709   78.3250  220.8018 H   0  0  0  0  0  0  0  0  0  0  0  0
  139.3167   79.2624  220.6739 H   0  0  0  0  0  0  0  0  0  0  0  0
  137.9933   77.5125  218.4343 H   0  0  0  0  0  0  0  0  0  0  0  0
  138.1921   79.2282  218.3236 H   0  0  0  0  0  0  0  0  0  0  0  0
  140.6874   79.0083  218.2846 H   0  0  0  0  0  0  0  0  0  0  0  0
  140.9970   77.0620  216.8600 H   0  0  0  0  0  0  0  0  0  0  0  0
  140.5967   76.0530  218.9640 H   0  0  0  0  0  0  0  0  0  0  0  0
  142.6684   76.7152  219.5563 H   0  0  0  0  0  0  0  0  0  0  0  0
  142.2635   78.4207  219.3476 H   0  0  0  0  0  0  0  0  0  0  0  0
  141.7870   79.9791  220.0255 H   0  0  0  0  0  0  0  0  0  0  0  0
  141.8328   82.1608  221.1558 H   0  0  0  0  0  0  0  0  0  0  0  0
  141.9224   82.2648  223.6529 H   0  0  0  0  0  0  0  0  0  0  0  0
  141.9649   80.1377  224.9708 H   0  0  0  0  0  0  0  0  0  0  0  0
  141.9210   77.9582  223.8040 H   0  0  0  0  0  0  0  0  0  0  0  0
  139.0514   69.8866  221.9307 H   0  0  0  0  0  0  0  0  0  0  0  0
  139.2601   68.2501  223.8167 H   0  0  0  0  0  0  0  0  0  0  0  0
  139.8680   67.7708  226.0588 H   0  0  0  0  0  0  0  0  0  0  0  0
  141.4499   70.9161  228.5195 H   0  0  0  0  0  0  0  0  0  0  0  0
  141.2480   72.5453  226.6595 H   0  0  0  0  0  0  0  0  0  0  0  0
  1  2  2  0
  2  3  1  0
  3  4  1  0
  4  5  1  0
  5  6  2  0
  5  7  1  0
  7  8  1  0
  8  9  1  0
  9 10  1  0
 10 11  1  0
 10 12  1  0
 12 13  1  0
 13 14  1  0
 14 15  1  0
 15 16  2  0
 16 17  1  0
 17 18  2  0
 18 19  1  0
 19 20  2  0
  2 21  1  0
 21 22  2  0
 22 23  1  0
 23 24  2  0
 24 25  1  0
 25 26  2  0
 26 27  1  0
 26 28  1  0
 28 29  2  0
 29 30  1  0
 30 31  2  0
 12  7  1  0
 20 15  1  0
 31 21  1  0
 30 24  1  0
  3 32  1  0
  4 33  1  0
  4 34  1  0
  8 35  1  0
  8 36  1  0
  9 37  1  0
  9 38  1  0
 10 39  1  6
 11 40  1  0
 12 41  1  6
 13 42  1  0
 13 43  1  0
 16 44  1  0
 17 45  1  0
 18 46  1  0
 19 47  1  0
 20 48  1  0
 22 49  1  0
 23 50  1  0
 25 51  1  0
 28 52  1  0
 29 53  1  0
M  END
>  <smiles>  (11) 
O=C(NCC(=O)N1CC[C@H](O)[C@H]1COc1ccccc1)c1ccc2cc(Cl)ccc2n1

>  <score_type>  (11) 
oracle

>  <origin>  (11) 
autodockgpu

>  <m_score__min__energy>  (11) 
-8.7100000000000009

>  <m_primary>  (11) 
energy

>  <rmsd>  (11) 
2.0814379262761378

>  <m_score__min__rmsd>  (11) 
2.0814379262761378

>  <meeko>  (11) 
{"free_energy": -7.41, "intermolecular_energy": -9.79, "internal_energy": -2.06, "cluster_size": 22, "cluster_id": 1, "rank_in_cluster": 20}

>  <energy>  (11) 
-8.1

>  <cluster_rmsd>  (11) 
1.69

>  <cluster>  (11) 
1

$$$$

     RDKit          3D

 53 56  0  0  0  0  0  0  0  0999 V2000
  139.9800   72.0210  220.7090 O   0  0  0  0  0  0  0  0  0  0  0  0
  139.8710   72.4370  221.9000 C   0  0  0  0  0  0  0  0  0  0  0  0
  139.6670   73.8360  222.1260 N   0  0  0  0  0  0  0  0  0  0  0  0
  139.5960   74.7020  220.9860 C   0  0  0  0  0  0  0  0  0  0  0  0
  139.7000   76.1370  221.3660 C   0  0  0  0  0  0  0  0  0  0  0  0
  139.4600   76.4900  222.5590 O   0  0  0  0  0  0  0  0  0  0  0  0
  140.0640   77.0680  220.3820 N   0  0  0  0  0  0  0  0  0  0  0  0
  140.2000   76.8580  218.9510 C   0  0  0  0  0  0  0  0  0  0  0  0
  141.4690   77.6800  218.6950 C   0  0  0  0  0  0  0  0  0  0  0  0
  141.0830   78.9720  219.3790 C   0  0  2  0  0  0  0  0  0  0  0  0
  142.1880   79.7400  219.7210 O   0  0  0  0  0  0  0  0  0  0  0  0
  140.3830   78.4620  220.6210 C   0  0  1  0  0  0  0  0  0  0  0  0
  139.1280   79.2900  220.8160 C   0  0  0  0  0  0  0  0  0  0  0  0
  139.1710   79.7180  222.1810 O   0  0  0  0  0  0  0  0  0  0  0  0
  140.3620   79.9920  222.8010 C   0  0  0  0  0  0  0  0  0  0  0  0
  141.0090   79.0630  223.5940 C   0  0  0  0  0  0  0  0  0  0  0  0
  142.1950   79.3580  224.2020 C   0  0  0  0  0  0  0  0  0  0  0  0
  142.7660   80.6150  224.0230 C   0  0  0  0  0  0  0  0  0  0  0  0
  142.1140   81.5550  223.2220 C   0  0  0  0  0  0  0  0  0  0  0  0
  140.9190   81.2370  222.6190 C   0  0  0  0  0  0  0  0  0  0  0  0
  139.9490   71.5230  223.0390 C   0  0  0  0  0  0  0  0  0  0  0  0
  139.4790   70.2300  222.8680 C   0  0  0  0  0  0  0  0  0  0  0  0
  139.5330   69.3210  223.9240 C   0  0  0  0  0  0  0  0  0  0  0  0
  140.0550   69.7370  225.1240 C   0  0  0  0  0  0  0  0  0  0  0  0
  140.1040   68.8250  226.1710 C   0  0  0  0  0  0  0  0  0  0  0  0
  140.6350   69.2580  227.3790 C   0  0  0  0  0  0  0  0  0  0  0  0
  140.7230   68.1650  228.7280 Cl  0  0  0  0  0  0  0  0  0  0  0  0
  141.0900   70.5420  227.5160 C   0  0  0  0  0  0  0  0  0  0  0  0
  141.0440   71.4510  226.4800 C   0  0  0  0  0  0  0  0  0  0  0  0
  140.5150   71.0230  225.2730 C   0  0  0  0  0  0  0  0  0  0  0  0
  140.4510   71.8800  224.2330 N   0  0  0  0  0  0  0  0  0  0  0  0
  139.5800   74.1500  223.1180 H   0  0  0  0  0  0  0  0  0  0  0  0
  140.4210   74.4556  220.3014 H   0  0  0  0  0  0  0  0  0  0  0  0
  138.6188   74.5490  220.5046 H   0  0  0  0  0  0  0  0  0  0  0  0
  140.3422   75.7956  218.7037 H   0  0  0  0  0  0  0  0  0  0  0  0
  139.3253   77.1470  218.3498 H   0  0  0  0  0  0  0  0  0  0  0  0
  142.3542   77.2205  219.1589 H   0  0  0  0  0  0  0  0  0  0  0  0
  141.7516   77.7809  217.6367 H   0  0  0  0  0  0  0  0  0  0  0  0
  140.4740   79.6320  218.7438 H   0  0  0  0  0  0  0  0  0  0  0  0
  142.7010   79.4140  220.4830 H   0  0  0  0  0  0  0  0  0  0  0  0
  141.0020   78.5450  221.5265 H   0  0  0  0  0  0  0  0  0  0  0  0
  139.1287   80.1572  220.1393 H   0  0  0  0  0  0  0  0  0  0  0  0
  138.2168   78.7154  220.5931 H   0  0  0  0  0  0  0  0  0  0  0  0
  140.5605   78.0689  223.7376 H   0  0  0  0  0  0  0  0  0  0  0  0
  142.6967   78.6069  224.8298 H   0  0  0  0  0  0  0  0  0  0  0  0
  143.7212   80.8653  224.5077 H   0  0  0  0  0  0  0  0  0  0  0  0
  142.5565   82.5510  223.0730 H   0  0  0  0  0  0  0  0  0  0  0  0
  140.4074   81.9801  221.9896 H   0  0  0  0  0  0  0  0  0  0  0  0
  139.0629   69.9207  221.8979 H   0  0  0  0  0  0  0  0  0  0  0  0
  139.1651   68.2920  223.7984 H   0  0  0  0  0  0  0  0  0  0  0  0
  139.7352   67.7961  226.0475 H   0  0  0  0  0  0  0  0  0  0  0  0
  141.5057   70.8588  228.4839 H   0  0  0  0  0  0  0  0  0  0  0  0
  141.4140   72.4790  226.6073 H   0  0  0  0  0  0  0  0  0  0  0  0
  1  2  2  0
  2  3  1  0
  3  4  1  0
  4  5  1  0
  5  6  2  0
  5  7  1  0
  7  8  1  0
  8  9  1  0
  9 10  1  0
 10 11  1  0
 10 12  1  0
 12 13  1  0
 13 14  1  0
 14 15  1  0
 15 16  2  0
 16 17  1  0
 17 18  2  0
 18 19  1  0
 19 20  2  0
  2 21  1  0
 21 22  2  0
 22 23  1  0
 23 24  2  0
 24 25  1  0
 25 26  2  0
 26 27  1  0
 26 28  1  0
 28 29  2  0
 29 30  1  0
 30 31  2  0
 12  7  1  0
 20 15  1  0
 31 21  1  0
 30 24  1  0
  3 32  1  0
  4 33  1  0
  4 34  1  0
  8 35  1  0
  8 36  1  0
  9 37  1  0
  9 38  1  0
 10 39  1  6
 11 40  1  0
 12 41  1  1
 13 42  1  0
 13 43  1  0
 16 44  1  0
 17 45  1  0
 18 46  1  0
 19 47  1  0
 20 48  1  0
 22 49  1  0
 23 50  1  0
 25 51  1  0
 28 52  1  0
 29 53  1  0
M  END
>  <smiles>  (12) 
O=C(NCC(=O)N1CC[C@H](O)[C@H]1COc1ccccc1)c1ccc2cc(Cl)ccc2n1

>  <score_type>  (12) 
oracle

>  <origin>  (12) 
autodockgpu

>  <m_score__min__energy>  (12) 
-8.7100000000000009

>  <m_primary>  (12) 
energy

>  <rmsd>  (12) 
2.431323252123761

>  <m_score__min__rmsd>  (12) 
2.431323252123761

>  <meeko>  (12) 
{"free_energy": -8.02, "intermolecular_energy": -10.41, "internal_energy": -1.95, "cluster_size": 22, "cluster_id": 1, "rank_in_cluster": 13}

>  <energy>  (12) 
-8.06

>  <cluster_rmsd>  (12) 
1.13

>  <cluster>  (12) 
1

$$$$

     RDKit          3D

 53 56  0  0  0  0  0  0  0  0999 V2000
  139.3240   74.8020  220.6320 O   0  0  0  0  0  0  0  0  0  0  0  0
  139.7850   75.6940  221.4020 C   0  0  0  0  0  0  0  0  0  0  0  0
  141.1890   75.7010  221.6860 N   0  0  0  0  0  0  0  0  0  0  0  0
  142.0070   74.6910  221.0820 C   0  0  0  0  0  0  0  0  0  0  0  0
  142.9630   75.2610  220.0950 C   0  0  0  0  0  0  0  0  0  0  0  0
  144.1940   74.9660  220.1710 O   0  0  0  0  0  0  0  0  0  0  0  0
  142.4720   76.1190  219.1010 N   0  0  0  0  0  0  0  0  0  0  0  0
  141.8830   75.7670  217.8200 C   0  0  0  0  0  0  0  0  0  0  0  0
  142.5320   76.8420  216.9400 C   0  0  0  0  0  0  0  0  0  0  0  0
  142.2210   78.0720  217.7610 C   0  0  2  0  0  0  0  0  0  0  0  0
  143.0710   79.1300  217.4700 O   0  0  0  0  0  0  0  0  0  0  0  0
  142.4620   77.5670  219.1690 C   0  0  1  0  0  0  0  0  0  0  0  0
  141.3270   78.0700  220.0390 C   0  0  0  0  0  0  0  0  0  0  0  0
  141.8680   78.1260  221.3630 O   0  0  0  0  0  0  0  0  0  0  0  0
  141.9360   79.3090  222.0520 C   0  0  0  0  0  0  0  0  0  0  0  0
  141.4110   80.4850  221.5490 C   0  0  0  0  0  0  0  0  0  0  0  0
  141.4900   81.6510  222.2540 C   0  0  0  0  0  0  0  0  0  0  0  0
  142.1090   81.6610  223.5000 C   0  0  0  0  0  0  0  0  0  0  0  0
  142.6400   80.4740  224.0100 C   0  0  0  0  0  0  0  0  0  0  0  0
  142.5500   79.3100  223.2840 C   0  0  0  0  0  0  0  0  0  0  0  0
  138.9200   76.7100  222.0000 C   0  0  0  0  0  0  0  0  0  0  0  0
  137.5490   76.5580  221.8620 C   0  0  0  0  0  0  0  0  0  0  0  0
  136.6820   77.5010  222.4160 C   0  0  0  0  0  0  0  0  0  0  0  0
  137.2170   78.5690  223.0930 C   0  0  0  0  0  0  0  0  0  0  0  0
  136.3460   79.5020  223.6410 C   0  0  0  0  0  0  0  0  0  0  0  0
  136.9000   80.5770  224.3230 C   0  0  0  0  0  0  0  0  0  0  0  0
  135.8640   81.7800  225.0310 Cl  0  0  0  0  0  0  0  0  0  0  0  0
  138.2590   80.6980  224.4420 C   0  0  0  0  0  0  0  0  0  0  0  0
  139.1270   79.7750  223.9000 C   0  0  0  0  0  0  0  0  0  0  0  0
  138.5790   78.7000  223.2180 C   0  0  0  0  0  0  0  0  0  0  0  0
  139.3930   77.7730  222.6730 N   0  0  0  0  0  0  0  0  0  0  0  0
  141.5410   76.4500  222.3240 H   0  0  0  0  0  0  0  0  0  0  0  0
  142.5759   74.1769  221.8707 H   0  0  0  0  0  0  0  0  0  0  0  0
  141.3448   73.9935  220.5481 H   0  0  0  0  0  0  0  0  0  0  0  0
  142.1652   74.7520  217.5035 H   0  0  0  0  0  0  0  0  0  0  0  0
  140.7834   75.7461  217.7999 H   0  0  0  0  0  0  0  0  0  0  0  0
  143.6155   76.6844  216.8344 H   0  0  0  0  0  0  0  0  0  0  0  0
  142.1701   76.8730  215.9017 H   0  0  0  0  0  0  0  0  0  0  0  0
  141.2117   78.4696  217.5789 H   0  0  0  0  0  0  0  0  0  0  0  0
  143.7020   78.9700  216.7450 H   0  0  0  0  0  0  0  0  0  0  0  0
  143.4134   77.9195  219.5939 H   0  0  0  0  0  0  0  0  0  0  0  0
  141.0031   79.0690  219.7117 H   0  0  0  0  0  0  0  0  0  0  0  0
  140.4438   77.4168  219.9822 H   0  0  0  0  0  0  0  0  0  0  0  0
  140.9214   80.4808  220.5640 H   0  0  0  0  0  0  0  0  0  0  0  0
  141.0666   82.5777  221.8394 H   0  0  0  0  0  0  0  0  0  0  0  0
  142.1795   82.5944  224.0777 H   0  0  0  0  0  0  0  0  0  0  0  0
  143.1311   80.4705  224.9943 H   0  0  0  0  0  0  0  0  0  0  0  0
  142.9697   78.3772  223.6886 H   0  0  0  0  0  0  0  0  0  0  0  0
  137.1441   75.6935  221.3154 H   0  0  0  0  0  0  0  0  0  0  0  0
  135.5924   77.3909  222.3124 H   0  0  0  0  0  0  0  0  0  0  0  0
  135.2562   79.3930  223.5383 H   0  0  0  0  0  0  0  0  0  0  0  0
  138.6709   81.5596  224.9878 H   0  0  0  0  0  0  0  0  0  0  0  0
  140.2162   79.8874  224.0049 H   0  0  0  0  0  0  0  0  0  0  0  0
  1  2  2  0
  2  3  1  0
  3  4  1  0
  4  5  1  0
  5  6  2  0
  5  7  1  0
  7  8  1  0
  8  9  1  0
  9 10  1  0
 10 11  1  0
 10 12  1  0
 12 13  1  0
 13 14  1  0
 14 15  1  0
 15 16  2  0
 16 17  1  0
 17 18  2  0
 18 19  1  0
 19 20  2  0
  2 21  1  0
 21 22  2  0
 22 23  1  0
 23 24  2  0
 24 25  1  0
 25 26  2  0
 26 27  1  0
 26 28  1  0
 28 29  2  0
 29 30  1  0
 30 31  2  0
 12  7  1  0
 20 15  1  0
 31 21  1  0
 30 24  1  0
  3 32  1  0
  4 33  1  0
  4 34  1  0
  8 35  1  0
  8 36  1  0
  9 37  1  0
  9 38  1  0
 10 39  1  1
 11 40  1  0
 12 41  1  1
 13 42  1  0
 13 43  1  0
 16 44  1  0
 17 45  1  0
 18 46  1  0
 19 47  1  0
 20 48  1  0
 22 49  1  0
 23 50  1  0
 25 51  1  0
 28 52  1  0
 29 53  1  0
M  END
>  <smiles>  (13) 
O=C(NCC(=O)N1CC[C@H](O)[C@H]1COc1ccccc1)c1ccc2cc(Cl)ccc2n1

>  <score_type>  (13) 
oracle

>  <origin>  (13) 
autodockgpu

>  <m_score__min__energy>  (13) 
-8.7100000000000009

>  <m_primary>  (13) 
energy

>  <rmsd>  (13) 
6.730170816316849

>  <m_score__min__rmsd>  (13) 
6.730170816316849

>  <meeko>  (13) 
{"free_energy": -6.44, "intermolecular_energy": -8.83, "internal_energy": -3.24, "cluster_size": 4, "cluster_id": 11, "rank_in_cluster": 1}

>  <energy>  (13) 
-8.02

>  <cluster_rmsd>  (13) 
1.21

>  <cluster>  (13) 
1

$$$$

     RDKit          3D

 53 56  0  0  0  0  0  0  0  0999 V2000
  140.5680   72.5040  220.7560 O   0  0  0  0  0  0  0  0  0  0  0  0
  140.2200   72.8820  221.9130 C   0  0  0  0  0  0  0  0  0  0  0  0
  139.8620   74.2540  222.1110 N   0  0  0  0  0  0  0  0  0  0  0  0
  139.9160   75.1370  220.9840 C   0  0  0  0  0  0  0  0  0  0  0  0
  141.3120   75.3990  220.5420 C   0  0  0  0  0  0  0  0  0  0  0  0
  142.2800   74.9140  221.2010 O   0  0  0  0  0  0  0  0  0  0  0  0
  141.5200   76.1850  219.4000 N   0  0  0  0  0  0  0  0  0  0  0  0
  141.6760   75.7480  218.0230 C   0  0  0  0  0  0  0  0  0  0  0  0
  142.8020   76.6930  217.5850 C   0  0  0  0  0  0  0  0  0  0  0  0
  142.2270   78.0130  218.0460 C   0  0  2  0  0  0  0  0  0  0  0  0
  143.2030   78.9860  218.2110 O   0  0  0  0  0  0  0  0  0  0  0  0
  141.6230   77.6320  219.3820 C   0  0  1  0  0  0  0  0  0  0  0  0
  140.2570   78.2820  219.4720 C   0  0  0  0  0  0  0  0  0  0  0  0
  139.9400   78.2930  220.8680 O   0  0  0  0  0  0  0  0  0  0  0  0
  140.7900   78.8580  221.7830 C   0  0  0  0  0  0  0  0  0  0  0  0
  141.0750   78.2530  222.9930 C   0  0  0  0  0  0  0  0  0  0  0  0
  141.9240   78.8350  223.8890 C   0  0  0  0  0  0  0  0  0  0  0  0
  142.5170   80.0570  223.5840 C   0  0  0  0  0  0  0  0  0  0  0  0
  142.2300   80.6690  222.3610 C   0  0  0  0  0  0  0  0  0  0  0  0
  141.3710   80.0670  221.4730 C   0  0  0  0  0  0  0  0  0  0  0  0
  140.1770   71.9520  223.0400 C   0  0  0  0  0  0  0  0  0  0  0  0
  139.6030   70.7070  222.8330 C   0  0  0  0  0  0  0  0  0  0  0  0
  139.5380   69.7840  223.8780 C   0  0  0  0  0  0  0  0  0  0  0  0
  140.0510   70.1390  225.1010 C   0  0  0  0  0  0  0  0  0  0  0  0
  139.9830   69.2140  226.1350 C   0  0  0  0  0  0  0  0  0  0  0  0
  140.5060   69.5850  227.3670 C   0  0  0  0  0  0  0  0  0  0  0  0
  140.4500   68.4730  228.7020 Cl  0  0  0  0  0  0  0  0  0  0  0  0
  141.0670   70.8220  227.5390 C   0  0  0  0  0  0  0  0  0  0  0  0
  141.1370   71.7440  226.5160 C   0  0  0  0  0  0  0  0  0  0  0  0
  140.6160   71.3780  225.2840 C   0  0  0  0  0  0  0  0  0  0  0  0
  140.6660   72.2490  224.2560 N   0  0  0  0  0  0  0  0  0  0  0  0
  139.5780   74.5370  223.0760 H   0  0  0  0  0  0  0  0  0  0  0  0
  139.3600   74.6824  220.1508 H   0  0  0  0  0  0  0  0  0  0  0  0
  139.4714   76.0969  221.2854 H   0  0  0  0  0  0  0  0  0  0  0  0
  141.9779   74.6922  217.9590 H   0  0  0  0  0  0  0  0  0  0  0  0
  140.7629   75.7916  217.4111 H   0  0  0  0  0  0  0  0  0  0  0  0
  143.7505   76.4611  218.0916 H   0  0  0  0  0  0  0  0  0  0  0  0
  143.0584   76.6460  216.5163 H   0  0  0  0  0  0  0  0  0  0  0  0
  141.5192   78.4509  217.3268 H   0  0  0  0  0  0  0  0  0  0  0  0
  143.7190   79.1980  217.4120 H   0  0  0  0  0  0  0  0  0  0  0  0
  142.2286   77.9666  220.2372 H   0  0  0  0  0  0  0  0  0  0  0  0
  140.2905   79.3075  219.0756 H   0  0  0  0  0  0  0  0  0  0  0  0
  139.5031   77.7396  218.8826 H   0  0  0  0  0  0  0  0  0  0  0  0
  140.6098   77.2867  223.2375 H   0  0  0  0  0  0  0  0  0  0  0  0
  142.1388   78.3407  224.8480 H   0  0  0  0  0  0  0  0  0  0  0  0
  143.2038   80.5355  224.2977 H   0  0  0  0  0  0  0  0  0  0  0  0
  142.6925   81.6346  222.1085 H   0  0  0  0  0  0  0  0  0  0  0  0
  141.1470   80.5526  220.5117 H   0  0  0  0  0  0  0  0  0  0  0  0
  139.1983   70.4463  221.8439 H   0  0  0  0  0  0  0  0  0  0  0  0
  139.0854   68.7932  223.7249 H   0  0  0  0  0  0  0  0  0  0  0  0
  139.5309   68.2227  225.9834 H   0  0  0  0  0  0  0  0  0  0  0  0
  141.4751   71.0890  228.5250 H   0  0  0  0  0  0  0  0  0  0  0  0
  141.5898   72.7343  226.6716 H   0  0  0  0  0  0  0  0  0  0  0  0
  1  2  2  0
  2  3  1  0
  3  4  1  0
  4  5  1  0
  5  6  2  0
  5  7  1  0
  7  8  1  0
  8  9  1  0
  9 10  1  0
 10 11  1  0
 10 12  1  0
 12 13  1  0
 13 14  1  0
 14 15  1  0
 15 16  2  0
 16 17  1  0
 17 18  2  0
 18 19  1  0
 19 20  2  0
  2 21  1  0
 21 22  2  0
 22 23  1  0
 23 24  2  0
 24 25  1  0
 25 26  2  0
 26 27  1  0
 26 28  1  0
 28 29  2  0
 29 30  1  0
 30 31  2  0
 12  7  1  0
 20 15  1  0
 31 21  1  0
 30 24  1  0
  3 32  1  0
  4 33  1  0
  4 34  1  0
  8 35  1  0
  8 36  1  0
  9 37  1  0
  9 38  1  0
 10 39  1  6
 11 40  1  0
 12 41  1  1
 13 42  1  0
 13 43  1  0
 16 44  1  0
 17 45  1  0
 18 46  1  0
 19 47  1  0
 20 48  1  0
 22 49  1  0
 23 50  1  0
 25 51  1  0
 28 52  1  0
 29 53  1  0
M  END
>  <smiles>  (14) 
O=C(NCC(=O)N1CC[C@H](O)[C@H]1COc1ccccc1)c1ccc2cc(Cl)ccc2n1

>  <score_type>  (14) 
oracle

>  <origin>  (14) 
autodockgpu

>  <m_score__min__energy>  (14) 
-8.7100000000000009

>  <m_primary>  (14) 
energy

>  <rmsd>  (14) 
2.1738318783587687

>  <m_score__min__rmsd>  (14) 
2.1738318783587687

>  <meeko>  (14) 
{"free_energy": -8.49, "intermolecular_energy": -10.87, "internal_energy": -1.73, "cluster_size": 22, "cluster_id": 1, "rank_in_cluster": 5}

>  <energy>  (14) 
-7.95

>  <cluster_rmsd>  (14) 
0.97

>  <cluster>  (14) 
1

$$$$

     RDKit          3D

 53 56  0  0  0  0  0  0  0  0999 V2000
  137.9860   71.4760  221.5580 O   0  0  0  0  0  0  0  0  0  0  0  0
  137.7630   71.7310  222.7770 C   0  0  0  0  0  0  0  0  0  0  0  0
  136.9130   72.8370  223.1060 N   0  0  0  0  0  0  0  0  0  0  0  0
  136.3550   73.6040  222.0320 C   0  0  0  0  0  0  0  0  0  0  0  0
  136.9310   74.9730  221.9630 C   0  0  0  0  0  0  0  0  0  0  0  0
  136.2880   75.9510  222.4500 O   0  0  0  0  0  0  0  0  0  0  0  0
  138.1820   75.1470  221.3530 N   0  0  0  0  0  0  0  0  0  0  0  0
  138.6340   74.6420  220.0680 C   0  0  0  0  0  0  0  0  0  0  0  0
  140.0590   74.2240  220.4490 C   0  0  0  0  0  0  0  0  0  0  0  0
  140.5280   75.4890  221.1300 C   0  0  2  0  0  0  0  0  0  0  0  0
  141.5990   75.2650  221.9850 O   0  0  0  0  0  0  0  0  0  0  0  0
  139.2950   75.8880  221.9140 C   0  0  1  0  0  0  0  0  0  0  0  0
  139.1040   77.3820  221.7450 C   0  0  0  0  0  0  0  0  0  0  0  0
  139.6510   77.9650  222.9320 O   0  0  0  0  0  0  0  0  0  0  0  0
  140.7410   78.7940  222.8780 C   0  0  0  0  0  0  0  0  0  0  0  0
  141.4720   79.1230  224.0040 C   0  0  0  0  0  0  0  0  0  0  0  0
  142.5550   79.9510  223.9240 C   0  0  0  0  0  0  0  0  0  0  0  0
  142.9320   80.4740  222.6920 C   0  0  0  0  0  0  0  0  0  0  0  0
  142.1950   80.1430  221.5520 C   0  0  0  0  0  0  0  0  0  0  0  0
  141.1070   79.3080  221.6540 C   0  0  0  0  0  0  0  0  0  0  0  0
  138.3500   70.9260  223.8470 C   0  0  0  0  0  0  0  0  0  0  0  0
  138.0630   69.5700  223.8720 C   0  0  0  0  0  0  0  0  0  0  0  0
  138.6000   68.7590  224.8720 C   0  0  0  0  0  0  0  0  0  0  0  0
  139.4090   69.3340  225.8200 C   0  0  0  0  0  0  0  0  0  0  0  0
  139.9400   68.5200  226.8130 C   0  0  0  0  0  0  0  0  0  0  0  0
  140.7580   69.1140  227.7650 C   0  0  0  0  0  0  0  0  0  0  0  0
  141.4510   68.1480  229.0340 Cl  0  0  0  0  0  0  0  0  0  0  0  0
  141.0220   70.4560  227.7130 C   0  0  0  0  0  0  0  0  0  0  0  0
  140.4980   71.2690  226.7310 C   0  0  0  0  0  0  0  0  0  0  0  0
  139.6810   70.6810  225.7770 C   0  0  0  0  0  0  0  0  0  0  0  0
  139.1490   71.4390  224.7980 N   0  0  0  0  0  0  0  0  0  0  0  0
  136.7460   73.0230  224.1200 H   0  0  0  0  0  0  0  0  0  0  0  0
  136.5582   73.0857  221.0833 H   0  0  0  0  0  0  0  0  0  0  0  0
  135.2740   73.7004  222.2111 H   0  0  0  0  0  0  0  0  0  0  0  0
  138.0321   73.7862  219.7284 H   0  0  0  0  0  0  0  0  0  0  0  0
  138.5620   75.3543  219.2328 H   0  0  0  0  0  0  0  0  0  0  0  0
  140.0629   73.3647  221.1358 H   0  0  0  0  0  0  0  0  0  0  0  0
  140.6851   73.8899  219.6085 H   0  0  0  0  0  0  0  0  0  0  0  0
  140.8932   76.2492  220.4238 H   0  0  0  0  0  0  0  0  0  0  0  0
  142.1010   76.0600  222.2410 H   0  0  0  0  0  0  0  0  0  0  0  0
  139.3791   75.6647  222.9878 H   0  0  0  0  0  0  0  0  0  0  0  0
  139.6415   77.7417  220.8552 H   0  0  0  0  0  0  0  0  0  0  0  0
  138.0461   77.6488  221.6049 H   0  0  0  0  0  0  0  0  0  0  0  0
  141.1766   78.7112  224.9803 H   0  0  0  0  0  0  0  0  0  0  0  0
  143.1262   80.2030  224.8296 H   0  0  0  0  0  0  0  0  0  0  0  0
  143.8025   81.1422  222.6156 H   0  0  0  0  0  0  0  0  0  0  0  0
  142.4852   80.5505  220.5724 H   0  0  0  0  0  0  0  0  0  0  0  0
  140.5275   79.0500  220.7553 H   0  0  0  0  0  0  0  0  0  0  0  0
  137.4106   69.1327  223.1019 H   0  0  0  0  0  0  0  0  0  0  0  0
  138.3798   67.6816  224.9001 H   0  0  0  0  0  0  0  0  0  0  0  0
  139.7201   67.4426  226.8439 H   0  0  0  0  0  0  0  0  0  0  0  0
  141.6736   70.9002  228.4799 H   0  0  0  0  0  0  0  0  0  0  0  0
  140.7200   72.3461  226.7049 H   0  0  0  0  0  0  0  0  0  0  0  0
  1  2  2  0
  2  3  1  0
  3  4  1  0
  4  5  1  0
  5  6  2  0
  5  7  1  0
  7  8  1  0
  8  9  1  0
  9 10  1  0
 10 11  1  0
 10 12  1  0
 12 13  1  0
 13 14  1  0
 14 15  1  0
 15 16  2  0
 16 17  1  0
 17 18  2  0
 18 19  1  0
 19 20  2  0
  2 21  1  0
 21 22  2  0
 22 23  1  0
 23 24  2  0
 24 25  1  0
 25 26  2  0
 26 27  1  0
 26 28  1  0
 28 29  2  0
 29 30  1  0
 30 31  2  0
 12  7  1  0
 20 15  1  0
 31 21  1  0
 30 24  1  0
  3 32  1  0
  4 33  1  0
  4 34  1  0
  8 35  1  0
  8 36  1  0
  9 37  1  0
  9 38  1  0
 10 39  1  6
 11 40  1  0
 12 41  1  1
 13 42  1  0
 13 43  1  0
 16 44  1  0
 17 45  1  0
 18 46  1  0
 19 47  1  0
 20 48  1  0
 22 49  1  0
 23 50  1  0
 25 51  1  0
 28 52  1  0
 29 53  1  0
M  END
>  <smiles>  (15) 
O=C(NCC(=O)N1CC[C@H](O)[C@H]1COc1ccccc1)c1ccc2cc(Cl)ccc2n1

>  <score_type>  (15) 
oracle

>  <origin>  (15) 
autodockgpu

>  <m_score__min__energy>  (15) 
-8.7100000000000009

>  <m_primary>  (15) 
energy

>  <rmsd>  (15) 
2.7224386510117213

>  <m_score__min__rmsd>  (15) 
2.7224386510117213

>  <meeko>  (15) 
{"free_energy": -8.1, "intermolecular_energy": -10.49, "internal_energy": -1.53, "cluster_size": 22, "cluster_id": 1, "rank_in_cluster": 11}

>  <energy>  (15) 
-7.94

>  <cluster_rmsd>  (15) 
1.47

>  <cluster>  (15) 
1

$$$$

     RDKit          3D

 53 56  0  0  0  0  0  0  0  0999 V2000
  140.2950   74.1220  221.8790 O   0  0  0  0  0  0  0  0  0  0  0  0
  140.3480   72.8690  221.7040 C   0  0  0  0  0  0  0  0  0  0  0  0
  140.4690   72.3640  220.3700 N   0  0  0  0  0  0  0  0  0  0  0  0
  140.5240   73.3060  219.2910 C   0  0  0  0  0  0  0  0  0  0  0  0
  141.9120   73.5080  218.7940 C   0  0  0  0  0  0  0  0  0  0  0  0
  142.1080   73.7680  217.5690 O   0  0  0  0  0  0  0  0  0  0  0  0
  142.9740   73.4030  219.7040 N   0  0  0  0  0  0  0  0  0  0  0  0
  143.4090   74.3730  220.6950 C   0  0  0  0  0  0  0  0  0  0  0  0
  144.9270   74.2370  220.5310 C   0  0  0  0  0  0  0  0  0  0  0  0
  145.0650   72.7340  220.6260 C   0  0  2  0  0  0  0  0  0  0  0  0
  146.2440   72.2740  220.0540 O   0  0  0  0  0  0  0  0  0  0  0  0
  143.8670   72.2670  219.8260 C   0  0  1  0  0  0  0  0  0  0  0  0
  143.2150   71.1340  220.5930 C   0  0  0  0  0  0  0  0  0  0  0  0
  143.0640   70.0760  219.6400 O   0  0  0  0  0  0  0  0  0  0  0  0
  144.1330   69.3100  219.2570 C   0  0  0  0  0  0  0  0  0  0  0  0
  144.8740   69.5930  218.1240 C   0  0  0  0  0  0  0  0  0  0  0  0
  145.9350   68.8150  217.7630 C   0  0  0  0  0  0  0  0  0  0  0  0
  146.2810   67.7160  218.5440 C   0  0  0  0  0  0  0  0  0  0  0  0
  145.5350   67.4290  219.6890 C   0  0  0  0  0  0  0  0  0  0  0  0
  144.4690   68.2250  220.0360 C   0  0  0  0  0  0  0  0  0  0  0  0
  140.2890   71.9370  222.8290 C   0  0  0  0  0  0  0  0  0  0  0  0
  139.7750   70.6700  222.5970 C   0  0  0  0  0  0  0  0  0  0  0  0
  139.6990   69.7450  223.6380 C   0  0  0  0  0  0  0  0  0  0  0  0
  140.1410   70.1180  224.8830 C   0  0  0  0  0  0  0  0  0  0  0  0
  140.0620   69.1900  225.9140 C   0  0  0  0  0  0  0  0  0  0  0  0
  140.5140   69.5800  227.1680 C   0  0  0  0  0  0  0  0  0  0  0  0
  140.4400   68.4650  228.5000 Cl  0  0  0  0  0  0  0  0  0  0  0  0
  141.0170   70.8380  227.3650 C   0  0  0  0  0  0  0  0  0  0  0  0
  141.0980   71.7620  226.3450 C   0  0  0  0  0  0  0  0  0  0  0  0
  140.6480   71.3780  225.0910 C   0  0  0  0  0  0  0  0  0  0  0  0
  140.7100   72.2520  224.0660 N   0  0  0  0  0  0  0  0  0  0  0  0
  140.5110   71.3260  220.2560 H   0  0  0  0  0  0  0  0  0  0  0  0
  139.9017   72.9343  218.4636 H   0  0  0  0  0  0  0  0  0  0  0  0
  140.1546   74.2720  219.6657 H   0  0  0  0  0  0  0  0  0  0  0  0
  143.0596   75.3884  220.4565 H   0  0  0  0  0  0  0  0  0  0  0  0
  143.0307   74.2038  221.7140 H   0  0  0  0  0  0  0  0  0  0  0  0
  145.2686   74.6180  219.5573 H   0  0  0  0  0  0  0  0  0  0  0  0
  145.5254   74.8051  221.2584 H   0  0  0  0  0  0  0  0  0  0  0  0
  145.0995   72.3678  221.6627 H   0  0  0  0  0  0  0  0  0  0  0  0
  146.6680   71.5300  220.5180 H   0  0  0  0  0  0  0  0  0  0  0  0
  144.1360   71.9037  218.8232 H   0  0  0  0  0  0  0  0  0  0  0  0
  143.8561   70.8134  221.4274 H   0  0  0  0  0  0  0  0  0  0  0  0
  142.2518   71.4341  221.0314 H   0  0  0  0  0  0  0  0  0  0  0  0
  144.6033   70.4600  217.5035 H   0  0  0  0  0  0  0  0  0  0  0  0
  146.5142   69.0551  216.8592 H   0  0  0  0  0  0  0  0  0  0  0  0
  147.1332   67.0802  218.2622 H   0  0  0  0  0  0  0  0  0  0  0  0
  145.8008   66.5642  220.3147 H   0  0  0  0  0  0  0  0  0  0  0  0
  143.8830   67.9947  220.9380 H   0  0  0  0  0  0  0  0  0  0  0  0
  139.4268   70.3943  221.5907 H   0  0  0  0  0  0  0  0  0  0  0  0
  139.2933   68.7373  223.4650 H   0  0  0  0  0  0  0  0  0  0  0  0
  139.6558   68.1821  225.7431 H   0  0  0  0  0  0  0  0  0  0  0  0
  141.3675   71.1204  228.3687 H   0  0  0  0  0  0  0  0  0  0  0  0
  141.5054   72.7687  226.5199 H   0  0  0  0  0  0  0  0  0  0  0  0
  1  2  2  0
  2  3  1  0
  3  4  1  0
  4  5  1  0
  5  6  2  0
  5  7  1  0
  7  8  1  0
  8  9  1  0
  9 10  1  0
 10 11  1  0
 10 12  1  0
 12 13  1  0
 13 14  1  0
 14 15  1  0
 15 16  2  0
 16 17  1  0
 17 18  2  0
 18 19  1  0
 19 20  2  0
  2 21  1  0
 21 22  2  0
 22 23  1  0
 23 24  2  0
 24 25  1  0
 25 26  2  0
 26 27  1  0
 26 28  1  0
 28 29  2  0
 29 30  1  0
 30 31  2  0
 12  7  1  0
 20 15  1  0
 31 21  1  0
 30 24  1  0
  3 32  1  0
  4 33  1  0
  4 34  1  0
  8 35  1  0
  8 36  1  0
  9 37  1  0
  9 38  1  0
 10 39  1  1
 11 40  1  0
 12 41  1  6
 13 42  1  0
 13 43  1  0
 16 44  1  0
 17 45  1  0
 18 46  1  0
 19 47  1  0
 20 48  1  0
 22 49  1  0
 23 50  1  0
 25 51  1  0
 28 52  1  0
 29 53  1  0
M  END
>  <smiles>  (16) 
O=C(NCC(=O)N1CC[C@H](O)[C@H]1COc1ccccc1)c1ccc2cc(Cl)ccc2n1

>  <score_type>  (16) 
oracle

>  <origin>  (16) 
autodockgpu

>  <m_score__min__energy>  (16) 
-8.7100000000000009

>  <m_primary>  (16) 
energy

>  <rmsd>  (16) 
4.130386219137349

>  <m_score__min__rmsd>  (16) 
4.130386219137349

>  <meeko>  (16) 
{"free_energy": -7.79, "intermolecular_energy": -10.17, "internal_energy": -1.91, "cluster_size": 1, "cluster_id": 3, "rank_in_cluster": 1}

>  <energy>  (16) 
-7.74

>  <cluster_rmsd>  (16) 
1.54

>  <cluster>  (16) 
1

$$$$

     RDKit          3D

 53 56  0  0  0  0  0  0  0  0999 V2000
  139.6670   71.9890  220.7080 O   0  0  0  0  0  0  0  0  0  0  0  0
  139.6690   72.4150  221.9010 C   0  0  0  0  0  0  0  0  0  0  0  0
  139.5260   73.8210  222.1300 N   0  0  0  0  0  0  0  0  0  0  0  0
  139.3870   74.6820  220.9940 C   0  0  0  0  0  0  0  0  0  0  0  0
  139.4120   76.1210  221.3740 C   0  0  0  0  0  0  0  0  0  0  0  0
  139.1870   76.4570  222.5750 O   0  0  0  0  0  0  0  0  0  0  0  0
  139.6870   77.0730  220.3820 N   0  0  0  0  0  0  0  0  0  0  0  0
  138.9280   78.2660  220.0460 C   0  0  0  0  0  0  0  0  0  0  0  0
  139.0190   78.2000  218.5170 C   0  0  0  0  0  0  0  0  0  0  0  0
  140.5100   78.0100  218.3540 C   0  0  2  0  0  0  0  0  0  0  0  0
  140.8410   77.4550  217.1250 O   0  0  0  0  0  0  0  0  0  0  0  0
  140.8190   77.0420  219.4770 C   0  0  1  0  0  0  0  0  0  0  0  0
  142.0850   77.5190  220.1600 C   0  0  0  0  0  0  0  0  0  0  0  0
  141.7160   77.7250  221.5280 O   0  0  0  0  0  0  0  0  0  0  0  0
  141.8610   78.9500  222.1240 C   0  0  0  0  0  0  0  0  0  0  0  0
  142.1900   79.0850  223.4600 C   0  0  0  0  0  0  0  0  0  0  0  0
  142.3290   80.3170  224.0310 C   0  0  0  0  0  0  0  0  0  0  0  0
  142.1360   81.4590  223.2600 C   0  0  0  0  0  0  0  0  0  0  0  0
  141.8030   81.3260  221.9100 C   0  0  0  0  0  0  0  0  0  0  0  0
  141.6670   80.0760  221.3540 C   0  0  0  0  0  0  0  0  0  0  0  0
  139.8130   71.5060  223.0370 C   0  0  0  0  0  0  0  0  0  0  0  0
  139.4040   70.1920  222.8740 C   0  0  0  0  0  0  0  0  0  0  0  0
  139.5220   69.2860  223.9280 C   0  0  0  0  0  0  0  0  0  0  0  0
  140.0470   69.7270  225.1180 C   0  0  0  0  0  0  0  0  0  0  0  0
  140.1600   68.8190  226.1630 C   0  0  0  0  0  0  0  0  0  0  0  0
  140.6940   69.2770  227.3600 C   0  0  0  0  0  0  0  0  0  0  0  0
  140.8610   68.1900  228.7060 Cl  0  0  0  0  0  0  0  0  0  0  0  0
  141.0890   70.5810  227.4900 C   0  0  0  0  0  0  0  0  0  0  0  0
  140.9790   71.4870  226.4560 C   0  0  0  0  0  0  0  0  0  0  0  0
  140.4470   71.0340  225.2580 C   0  0  0  0  0  0  0  0  0  0  0  0
  140.3220   71.8870  224.2210 N   0  0  0  0  0  0  0  0  0  0  0  0
  139.5310   74.1440  223.1240 H   0  0  0  0  0  0  0  0  0  0  0  0
  140.2146   74.4851  220.2967 H   0  0  0  0  0  0  0  0  0  0  0  0
  138.4130   74.4722  220.5279 H   0  0  0  0  0  0  0  0  0  0  0  0
  137.8878   78.2036  220.3984 H   0  0  0  0  0  0  0  0  0  0  0  0
  139.2968   79.1988  220.4976 H   0  0  0  0  0  0  0  0  0  0  0  0
  138.4517   77.3499  218.1101 H   0  0  0  0  0  0  0  0  0  0  0  0
  138.6010   79.0696  217.9888 H   0  0  0  0  0  0  0  0  0  0  0  0
  141.0725   78.9546  218.3910 H   0  0  0  0  0  0  0  0  0  0  0  0
  141.6330   77.8300  216.6980 H   0  0  0  0  0  0  0  0  0  0  0  0
  140.9770   76.0119  219.1248 H   0  0  0  0  0  0  0  0  0  0  0  0
  142.8753   76.7577  220.0837 H   0  0  0  0  0  0  0  0  0  0  0  0
  142.4825   78.4347  219.6980 H   0  0  0  0  0  0  0  0  0  0  0  0
  142.3423   78.1845  224.0731 H   0  0  0  0  0  0  0  0  0  0  0  0
  142.5922   80.4065  225.0953 H   0  0  0  0  0  0  0  0  0  0  0  0
  142.2446   82.4572  223.7093 H   0  0  0  0  0  0  0  0  0  0  0  0
  141.6494   82.2223  221.2911 H   0  0  0  0  0  0  0  0  0  0  0  0
  141.4025   79.9745  220.2911 H   0  0  0  0  0  0  0  0  0  0  0  0
  138.9855   69.8628  221.9115 H   0  0  0  0  0  0  0  0  0  0  0  0
  139.2014   68.2406  223.8086 H   0  0  0  0  0  0  0  0  0  0  0  0
  139.8377   67.7738  226.0463 H   0  0  0  0  0  0  0  0  0  0  0  0
  141.5077   70.9172  228.4501 H   0  0  0  0  0  0  0  0  0  0  0  0
  141.3017   72.5316  226.5771 H   0  0  0  0  0  0  0  0  0  0  0  0
  1  2  2  0
  2  3  1  0
  3  4  1  0
  4  5  1  0
  5  6  2  0
  5  7  1  0
  7  8  1  0
  8  9  1  0
  9 10  1  0
 10 11  1  0
 10 12  1  0
 12 13  1  0
 13 14  1  0
 14 15  1  0
 15 16  2  0
 16 17  1  0
 17 18  2  0
 18 19  1  0
 19 20  2  0
  2 21  1  0
 21 22  2  0
 22 23  1  0
 23 24  2  0
 24 25  1  0
 25 26  2  0
 26 27  1  0
 26 28  1  0
 28 29  2  0
 29 30  1  0
 30 31  2  0
 12  7  1  0
 20 15  1  0
 31 21  1  0
 30 24  1  0
  3 32  1  0
  4 33  1  0
  4 34  1  0
  8 35  1  0
  8 36  1  0
  9 37  1  0
  9 38  1  0
 10 39  1  1
 11 40  1  0
 12 41  1  6
 13 42  1  0
 13 43  1  0
 16 44  1  0
 17 45  1  0
 18 46  1  0
 19 47  1  0
 20 48  1  0
 22 49  1  0
 23 50  1  0
 25 51  1  0
 28 52  1  0
 29 53  1  0
M  END
>  <smiles>  (17) 
O=C(NCC(=O)N1CC[C@H](O)[C@H]1COc1ccccc1)c1ccc2cc(Cl)ccc2n1

>  <score_type>  (17) 
oracle

>  <origin>  (17) 
autodockgpu

>  <m_score__min__energy>  (17) 
-8.7100000000000009

>  <m_primary>  (17) 
energy

>  <rmsd>  (17) 
2.020657028235372

>  <m_score__min__rmsd>  (17) 
2.020657028235372

>  <meeko>  (17) 
{"free_energy": -7.47, "intermolecular_energy": -9.85, "internal_energy": -1.97, "cluster_size": 22, "cluster_id": 1, "rank_in_cluster": 19}

>  <energy>  (17) 
-7.63

>  <cluster_rmsd>  (17) 
1.6

>  <cluster>  (17) 
1

$$$$

     RDKit          3D

 53 56  0  0  0  0  0  0  0  0999 V2000
  140.3480   71.8560  221.9990 O   0  0  0  0  0  0  0  0  0  0  0  0
  140.3640   72.8480  221.2120 C   0  0  0  0  0  0  0  0  0  0  0  0
  140.8660   72.6650  219.8830 N   0  0  0  0  0  0  0  0  0  0  0  0
  141.3300   71.3620  219.5080 C   0  0  0  0  0  0  0  0  0  0  0  0
  142.6810   71.0680  220.0560 C   0  0  0  0  0  0  0  0  0  0  0  0
  143.1680   71.8140  220.9590 O   0  0  0  0  0  0  0  0  0  0  0  0
  143.3850   69.9650  219.5540 N   0  0  0  0  0  0  0  0  0  0  0  0
  142.8590   68.6770  219.1350 C   0  0  0  0  0  0  0  0  0  0  0  0
  143.9400   67.7600  219.7210 C   0  0  0  0  0  0  0  0  0  0  0  0
  145.1780   68.4410  219.1830 C   0  0  2  0  0  0  0  0  0  0  0  0
  146.3150   68.1280  219.9150 O   0  0  0  0  0  0  0  0  0  0  0  0
  144.8200   69.9030  219.3540 C   0  0  1  0  0  0  0  0  0  0  0  0
  145.2330   70.6300  218.0900 C   0  0  0  0  0  0  0  0  0  0  0  0
  145.9430   71.7880  218.5390 O   0  0  0  0  0  0  0  0  0  0  0  0
  145.2790   72.8770  219.0400 C   0  0  0  0  0  0  0  0  0  0  0  0
  144.2440   73.4860  218.3560 C   0  0  0  0  0  0  0  0  0  0  0  0
  143.5970   74.5700  218.8760 C   0  0  0  0  0  0  0  0  0  0  0  0
  143.9830   75.0740  220.1140 C   0  0  0  0  0  0  0  0  0  0  0  0
  145.0290   74.4590  220.8070 C   0  0  0  0  0  0  0  0  0  0  0  0
  145.6670   73.3690  220.2660 C   0  0  0  0  0  0  0  0  0  0  0  0
  139.8820   74.1630  221.6290 C   0  0  0  0  0  0  0  0  0  0  0  0
  138.5110   74.3680  221.6780 C   0  0  0  0  0  0  0  0  0  0  0  0
  138.0020   75.6060  222.0720 C   0  0  0  0  0  0  0  0  0  0  0  0
  138.8850   76.6040  222.4040 C   0  0  0  0  0  0  0  0  0  0  0  0
  138.3700   77.8340  222.7940 C   0  0  0  0  0  0  0  0  0  0  0  0
  139.2730   78.8340  223.1280 C   0  0  0  0  0  0  0  0  0  0  0  0
  138.6910   80.3960  223.6230 Cl  0  0  0  0  0  0  0  0  0  0  0  0
  140.6200   78.6010  223.0690 C   0  0  0  0  0  0  0  0  0  0  0  0
  141.1370   77.3820  222.6830 C   0  0  0  0  0  0  0  0  0  0  0  0
  140.2400   76.3800  222.3480 C   0  0  0  0  0  0  0  0  0  0  0  0
  140.7030   75.1720  221.9650 N   0  0  0  0  0  0  0  0  0  0  0  0
  140.8660   73.5010  219.2560 H   0  0  0  0  0  0  0  0  0  0  0  0
  140.6222   70.6108  219.8883 H   0  0  0  0  0  0  0  0  0  0  0  0
  141.3962   71.3298  218.4105 H   0  0  0  0  0  0  0  0  0  0  0  0
  141.8695   68.4761  219.5715 H   0  0  0  0  0  0  0  0  0  0  0  0
  142.6895   68.5696  218.0534 H   0  0  0  0  0  0  0  0  0  0  0  0
  143.9208   67.7566  220.8208 H   0  0  0  0  0  0  0  0  0  0  0  0
  143.8418   66.6973  219.4546 H   0  0  0  0  0  0  0  0  0  0  0  0
  145.4220   68.1420  218.1529 H   0  0  0  0  0  0  0  0  0  0  0  0
  146.4240   67.1830  220.1300 H   0  0  0  0  0  0  0  0  0  0  0  0
  145.3285   70.3712  220.2097 H   0  0  0  0  0  0  0  0  0  0  0  0
  145.8844   69.9929  217.4738 H   0  0  0  0  0  0  0  0  0  0  0  0
  144.3667   70.8949  217.4660 H   0  0  0  0  0  0  0  0  0  0  0  0
  143.9364   73.0909  217.3766 H   0  0  0  0  0  0  0  0  0  0  0  0
  142.7746   75.0425  218.3189 H   0  0  0  0  0  0  0  0  0  0  0  0
  143.4701   75.9475  220.5428 H   0  0  0  0  0  0  0  0  0  0  0  0
  145.3421   74.8481  221.7871 H   0  0  0  0  0  0  0  0  0  0  0  0
  146.4904   72.8879  220.8142 H   0  0  0  0  0  0  0  0  0  0  0  0
  137.8239   73.5533  221.4058 H   0  0  0  0  0  0  0  0  0  0  0  0
  136.9166   75.7789  222.1158 H   0  0  0  0  0  0  0  0  0  0  0  0
  137.2849   78.0093  222.8366 H   0  0  0  0  0  0  0  0  0  0  0  0
  141.3128   79.4119  223.3381 H   0  0  0  0  0  0  0  0  0  0  0  0
  142.2229   77.2111  222.6425 H   0  0  0  0  0  0  0  0  0  0  0  0
  1  2  2  0
  2  3  1  0
  3  4  1  0
  4  5  1  0
  5  6  2  0
  5  7  1  0
  7  8  1  0
  8  9  1  0
  9 10  1  0
 10 11  1  0
 10 12  1  0
 12 13  1  0
 13 14  1  0
 14 15  1  0
 15 16  2  0
 16 17  1  0
 17 18  2  0
 18 19  1  0
 19 20  2  0
  2 21  1  0
 21 22  2  0
 22 23  1  0
 23 24  2  0
 24 25  1  0
 25 26  2  0
 26 27  1  0
 26 28  1  0
 28 29  2  0
 29 30  1  0
 30 31  2  0
 12  7  1  0
 20 15  1  0
 31 21  1  0
 30 24  1  0
  3 32  1  0
  4 33  1  0
  4 34  1  0
  8 35  1  0
  8 36  1  0
  9 37  1  0
  9 38  1  0
 10 39  1  6
 11 40  1  0
 12 41  1  1
 13 42  1  0
 13 43  1  0
 16 44  1  0
 17 45  1  0
 18 46  1  0
 19 47  1  0
 20 48  1  0
 22 49  1  0
 23 50  1  0
 25 51  1  0
 28 52  1  0
 29 53  1  0
M  END
>  <smiles>  (18) 
O=C(NCC(=O)N1CC[C@H](O)[C@H]1COc1ccccc1)c1ccc2cc(Cl)ccc2n1

>  <score_type>  (18) 
oracle

>  <origin>  (18) 
autodockgpu

>  <m_score__min__energy>  (18) 
-8.7100000000000009

>  <m_primary>  (18) 
energy

>  <rmsd>  (18) 
7.390014362256372

>  <m_score__min__rmsd>  (18) 
7.390014362256372

>  <meeko>  (18) 
{"free_energy": -7.41, "intermolecular_energy": -9.8, "internal_energy": -2.13, "cluster_size": 1, "cluster_id": 6, "rank_in_cluster": 1}

>  <energy>  (18) 
-7.52

>  <cluster_rmsd>  (18) 
1.44

>  <cluster>  (18) 
1

$$$$

     RDKit          3D

 53 56  0  0  0  0  0  0  0  0999 V2000
  141.4740   76.1510  218.4200 O   0  0  0  0  0  0  0  0  0  0  0  0
  141.7000   76.9490  219.3770 C   0  0  0  0  0  0  0  0  0  0  0  0
  141.9400   76.4090  220.6820 N   0  0  0  0  0  0  0  0  0  0  0  0
  141.9130   74.9860  220.8420 C   0  0  0  0  0  0  0  0  0  0  0  0
  140.6850   74.5240  221.5440 C   0  0  0  0  0  0  0  0  0  0  0  0
  140.7440   73.5220  222.3180 O   0  0  0  0  0  0  0  0  0  0  0  0
  139.4850   75.2160  221.3260 N   0  0  0  0  0  0  0  0  0  0  0  0
  138.1600   74.6680  221.0890 C   0  0  0  0  0  0  0  0  0  0  0  0
  137.6820   75.6300  219.9940 C   0  0  0  0  0  0  0  0  0  0  0  0
  138.0000   76.9520  220.6540 C   0  0  2  0  0  0  0  0  0  0  0  0
  138.1140   77.9870  219.7360 O   0  0  0  0  0  0  0  0  0  0  0  0
  139.3400   76.6590  221.2950 C   0  0  1  0  0  0  0  0  0  0  0  0
  139.3190   77.2410  222.6940 C   0  0  0  0  0  0  0  0  0  0  0  0
  140.6900   77.5030  223.0100 O   0  0  0  0  0  0  0  0  0  0  0  0
  141.1600   78.7860  223.1190 C   0  0  0  0  0  0  0  0  0  0  0  0
  140.3500   79.8360  223.5090 C   0  0  0  0  0  0  0  0  0  0  0  0
  140.8400   81.1050  223.6100 C   0  0  0  0  0  0  0  0  0  0  0  0
  142.1780   81.3520  223.3160 C   0  0  0  0  0  0  0  0  0  0  0  0
  142.9990   80.2930  222.9220 C   0  0  0  0  0  0  0  0  0  0  0  0
  142.4840   79.0210  222.8260 C   0  0  0  0  0  0  0  0  0  0  0  0
  141.7210   78.3960  219.1770 C   0  0  0  0  0  0  0  0  0  0  0  0
  142.6080   78.9110  218.2440 C   0  0  0  0  0  0  0  0  0  0  0  0
  142.6640   80.2860  218.0160 C   0  0  0  0  0  0  0  0  0  0  0  0
  141.8290   81.1060  218.7330 C   0  0  0  0  0  0  0  0  0  0  0  0
  141.8920   82.4740  218.5000 C   0  0  0  0  0  0  0  0  0  0  0  0
  141.0410   83.2920  219.2320 C   0  0  0  0  0  0  0  0  0  0  0  0
  141.0720   85.0130  218.9870 Cl  0  0  0  0  0  0  0  0  0  0  0  0
  140.1760   82.7540  220.1460 C   0  0  0  0  0  0  0  0  0  0  0  0
  140.1090   81.3970  220.3810 C   0  0  0  0  0  0  0  0  0  0  0  0
  140.9570   80.5760  219.6540 C   0  0  0  0  0  0  0  0  0  0  0  0
  140.9230   79.2420  219.8520 N   0  0  0  0  0  0  0  0  0  0  0  0
  142.1240   77.0910  221.4520 H   0  0  0  0  0  0  0  0  0  0  0  0
  141.9508   74.5167  219.8479 H   0  0  0  0  0  0  0  0  0  0  0  0
  142.7809   74.6977  221.4532 H   0  0  0  0  0  0  0  0  0  0  0  0
  138.2035   73.6285  220.7320 H   0  0  0  0  0  0  0  0  0  0  0  0
  137.5120   74.6080  221.9759 H   0  0  0  0  0  0  0  0  0  0  0  0
  138.2434   75.4950  219.0577 H   0  0  0  0  0  0  0  0  0  0  0  0
  136.6326   75.5031  219.6897 H   0  0  0  0  0  0  0  0  0  0  0  0
  137.2176   77.2856  221.3515 H   0  0  0  0  0  0  0  0  0  0  0  0
  139.0260   78.2600  219.5270 H   0  0  0  0  0  0  0  0  0  0  0  0
  140.1841   77.0997  220.7443 H   0  0  0  0  0  0  0  0  0  0  0  0
  138.7330   78.1717  222.7162 H   0  0  0  0  0  0  0  0  0  0  0  0
  138.8530   76.5564  223.4180 H   0  0  0  0  0  0  0  0  0  0  0  0
  139.2921   79.6449  223.7419 H   0  0  0  0  0  0  0  0  0  0  0  0
  140.1813   81.9288  223.9221 H   0  0  0  0  0  0  0  0  0  0  0  0
  142.5847   82.3711  223.3932 H   0  0  0  0  0  0  0  0  0  0  0  0
  144.0582   80.4762  222.6883 H   0  0  0  0  0  0  0  0  0  0  0  0
  143.1325   78.1891  222.5141 H   0  0  0  0  0  0  0  0  0  0  0  0
  143.2687   78.2340  217.6826 H   0  0  0  0  0  0  0  0  0  0  0  0
  143.3629   80.7045  217.2768 H   0  0  0  0  0  0  0  0  0  0  0  0
  142.5910   82.8945  217.7620 H   0  0  0  0  0  0  0  0  0  0  0  0
  139.5130   83.4256  220.7112 H   0  0  0  0  0  0  0  0  0  0  0  0
  139.4076   80.9807  221.1191 H   0  0  0  0  0  0  0  0  0  0  0  0
  1  2  2  0
  2  3  1  0
  3  4  1  0
  4  5  1  0
  5  6  2  0
  5  7  1  0
  7  8  1  0
  8  9  1  0
  9 10  1  0
 10 11  1  0
 10 12  1  0
 12 13  1  0
 13 14  1  0
 14 15  1  0
 15 16  2  0
 16 17  1  0
 17 18  2  0
 18 19  1  0
 19 20  2  0
  2 21  1  0
 21 22  2  0
 22 23  1  0
 23 24  2  0
 24 25  1  0
 25 26  2  0
 26 27  1  0
 26 28  1  0
 28 29  2  0
 29 30  1  0
 30 31  2  0
 12  7  1  0
 20 15  1  0
 31 21  1  0
 30 24  1  0
  3 32  1  0
  4 33  1  0
  4 34  1  0
  8 35  1  0
  8 36  1  0
  9 37  1  0
  9 38  1  0
 10 39  1  1
 11 40  1  0
 12 41  1  6
 13 42  1  0
 13 43  1  0
 16 44  1  0
 17 45  1  0
 18 46  1  0
 19 47  1  0
 20 48  1  0
 22 49  1  0
 23 50  1  0
 25 51  1  0
 28 52  1  0
 29 53  1  0
M  END
>  <smiles>  (19) 
O=C(NCC(=O)N1CC[C@H](O)[C@H]1COc1ccccc1)c1ccc2cc(Cl)ccc2n1

>  <score_type>  (19) 
oracle

>  <origin>  (19) 
autodockgpu

>  <m_score__min__energy>  (19) 
-8.7100000000000009

>  <m_primary>  (19) 
energy

>  <rmsd>  (19) 
9.144607000603019

>  <m_score__min__rmsd>  (19) 
9.144607000603019

>  <meeko>  (19) 
{"free_energy": -5.65, "intermolecular_energy": -8.03, "internal_energy": -4.25, "cluster_size": 5, "cluster_id": 12, "rank_in_cluster": 4}

>  <energy>  (19) 
-7.47

>  <cluster_rmsd>  (19) 
1.52

>  <cluster>  (19) 
1

$$$$

     RDKit          3D

 53 56  0  0  0  0  0  0  0  0999 V2000
  138.8410   71.7110  220.6650 O   0  0  0  0  0  0  0  0  0  0  0  0
  138.9570   72.2190  221.8190 C   0  0  0  0  0  0  0  0  0  0  0  0
  138.7740   73.6310  221.9720 N   0  0  0  0  0  0  0  0  0  0  0  0
  138.4670   74.4040  220.8050 C   0  0  0  0  0  0  0  0  0  0  0  0
  138.4260   75.8630  221.0950 C   0  0  0  0  0  0  0  0  0  0  0  0
  137.3780   76.3750  221.5900 O   0  0  0  0  0  0  0  0  0  0  0  0
  139.5580   76.6380  220.8070 N   0  0  0  0  0  0  0  0  0  0  0  0
  139.6430   77.8420  219.9990 C   0  0  0  0  0  0  0  0  0  0  0  0
  140.9560   77.5560  219.2590 C   0  0  0  0  0  0  0  0  0  0  0  0
  141.8420   77.1990  220.4310 C   0  0  2  0  0  0  0  0  0  0  0  0
  142.9460   76.4490  220.0490 O   0  0  0  0  0  0  0  0  0  0  0  0
  140.9030   76.3700  221.2810 C   0  0  1  0  0  0  0  0  0  0  0  0
  141.0770   76.8080  222.7220 C   0  0  0  0  0  0  0  0  0  0  0  0
  140.3170   78.0150  222.8400 O   0  0  0  0  0  0  0  0  0  0  0  0
  140.9310   79.2220  223.0490 C   0  0  0  0  0  0  0  0  0  0  0  0
  140.3220   80.4220  222.7320 C   0  0  0  0  0  0  0  0  0  0  0  0
  140.9540   81.6120  222.9500 C   0  0  0  0  0  0  0  0  0  0  0  0
  142.2320   81.6230  223.5000 C   0  0  0  0  0  0  0  0  0  0  0  0
  142.8490   80.4110  223.8220 C   0  0  0  0  0  0  0  0  0  0  0  0
  142.1950   79.2230  223.5930 C   0  0  0  0  0  0  0  0  0  0  0  0
  139.2710   71.3980  222.9870 C   0  0  0  0  0  0  0  0  0  0  0  0
  138.9150   70.0590  222.9550 C   0  0  0  0  0  0  0  0  0  0  0  0
  139.1950   69.2340  224.0460 C   0  0  0  0  0  0  0  0  0  0  0  0
  139.8230   69.7800  225.1380 C   0  0  0  0  0  0  0  0  0  0  0  0
  140.0970   68.9520  226.2200 C   0  0  0  0  0  0  0  0  0  0  0  0
  140.7340   69.5150  227.3180 C   0  0  0  0  0  0  0  0  0  0  0  0
  141.1030   68.5320  228.7030 Cl  0  0  0  0  0  0  0  0  0  0  0  0
  141.0730   70.8420  227.3180 C   0  0  0  0  0  0  0  0  0  0  0  0
  140.8030   71.6680  226.2480 C   0  0  0  0  0  0  0  0  0  0  0  0
  140.1680   71.1100  225.1490 C   0  0  0  0  0  0  0  0  0  0  0  0
  139.8860   71.8820  224.0800 N   0  0  0  0  0  0  0  0  0  0  0  0
  138.8760   74.0220  222.9350 H   0  0  0  0  0  0  0  0  0  0  0  0
  139.2367   74.2155  220.0420 H   0  0  0  0  0  0  0  0  0  0  0  0
  137.4708   74.1009  220.4503 H   0  0  0  0  0  0  0  0  0  0  0  0
  138.7929   77.9329  219.3068 H   0  0  0  0  0  0  0  0  0  0  0  0
  139.6181   78.7869  220.5616 H   0  0  0  0  0  0  0  0  0  0  0  0
  140.8536   76.7180  218.5539 H   0  0  0  0  0  0  0  0  0  0  0  0
  141.3251   78.3811  218.6322 H   0  0  0  0  0  0  0  0  0  0  0  0
  142.2667   78.0791  220.9360 H   0  0  0  0  0  0  0  0  0  0  0  0
  143.4330   76.0250  220.7790 H   0  0  0  0  0  0  0  0  0  0  0  0
  141.1057   75.2908  221.2152 H   0  0  0  0  0  0  0  0  0  0  0  0
  140.6907   76.0400  223.4082 H   0  0  0  0  0  0  0  0  0  0  0  0
  142.1351   76.9606  222.9811 H   0  0  0  0  0  0  0  0  0  0  0  0
  139.3117   80.4177  222.2970 H   0  0  0  0  0  0  0  0  0  0  0  0
  140.4553   82.5579  222.6921 H   0  0  0  0  0  0  0  0  0  0  0  0
  142.7514   82.5759  223.6796 H   0  0  0  0  0  0  0  0  0  0  0  0
  143.8585   80.4073  224.2589 H   0  0  0  0  0  0  0  0  0  0  0  0
  142.6839   78.2705  223.8455 H   0  0  0  0  0  0  0  0  0  0  0  0
  138.4111   69.6456  222.0688 H   0  0  0  0  0  0  0  0  0  0  0  0
  138.9184   68.1694  224.0310 H   0  0  0  0  0  0  0  0  0  0  0  0
  139.8190   67.8878  226.2071 H   0  0  0  0  0  0  0  0  0  0  0  0
  141.5772   71.2623  228.2007 H   0  0  0  0  0  0  0  0  0  0  0  0
  141.0814   72.7320  226.2654 H   0  0  0  0  0  0  0  0  0  0  0  0
  1  2  2  0
  2  3  1  0
  3  4  1  0
  4  5  1  0
  5  6  2  0
  5  7  1  0
  7  8  1  0
  8  9  1  0
  9 10  1  0
 10 11  1  0
 10 12  1  0
 12 13  1  0
 13 14  1  0
 14 15  1  0
 15 16  2  0
 16 17  1  0
 17 18  2  0
 18 19  1  0
 19 20  2  0
  2 21  1  0
 21 22  2  0
 22 23  1  0
 23 24  2  0
 24 25  1  0
 25 26  2  0
 26 27  1  0
 26 28  1  0
 28 29  2  0
 29 30  1  0
 30 31  2  0
 12  7  1  0
 20 15  1  0
 31 21  1  0
 30 24  1  0
  3 32  1  0
  4 33  1  0
  4 34  1  0
  8 35  1  0
  8 36  1  0
  9 37  1  0
  9 38  1  0
 10 39  1  1
 11 40  1  0
 12 41  1  1
 13 42  1  0
 13 43  1  0
 16 44  1  0
 17 45  1  0
 18 46  1  0
 19 47  1  0
 20 48  1  0
 22 49  1  0
 23 50  1  0
 25 51  1  0
 28 52  1  0
 29 53  1  0
M  END
>  <smiles>  (20) 
O=C(NCC(=O)N1CC[C@H](O)[C@H]1COc1ccccc1)c1ccc2cc(Cl)ccc2n1

>  <score_type>  (20) 
oracle

>  <origin>  (20) 
autodockgpu

>  <m_score__min__energy>  (20) 
-8.7100000000000009

>  <m_primary>  (20) 
energy

>  <rmsd>  (20) 
2.4857926608291776

>  <m_score__min__rmsd>  (20) 
2.4857926608291776

>  <meeko>  (20) 
{"free_energy": -8.06, "intermolecular_energy": -10.44, "internal_energy": -1.66, "cluster_size": 22, "cluster_id": 1, "rank_in_cluster": 12}

>  <energy>  (20) 
-7.41

>  <cluster_rmsd>  (20) 
1.59

>  <cluster>  (20) 
1

$$$$

     RDKit          3D

 53 56  0  0  0  0  0  0  0  0999 V2000
  135.0130   68.5360  224.2310 O   0  0  0  0  0  0  0  0  0  0  0  0
  135.5220   69.6420  224.5780 C   0  0  0  0  0  0  0  0  0  0  0  0
  136.9060   69.8810  224.3010 N   0  0  0  0  0  0  0  0  0  0  0  0
  137.6520   68.8520  223.6400 C   0  0  0  0  0  0  0  0  0  0  0  0
  138.7400   69.4060  222.7900 C   0  0  0  0  0  0  0  0  0  0  0  0
  139.5160   68.6180  222.1700 O   0  0  0  0  0  0  0  0  0  0  0  0
  138.8790   70.7980  222.6990 N   0  0  0  0  0  0  0  0  0  0  0  0
  137.8750   71.7800  222.3270 C   0  0  0  0  0  0  0  0  0  0  0  0
  138.7330   72.6980  221.4490 C   0  0  0  0  0  0  0  0  0  0  0  0
  139.9060   72.9230  222.3760 C   0  0  2  0  0  0  0  0  0  0  0  0
  141.0480   73.3240  221.6960 O   0  0  0  0  0  0  0  0  0  0  0  0
  140.0960   71.5410  222.9670 C   0  0  1  0  0  0  0  0  0  0  0  0
  140.3240   71.7050  224.4560 C   0  0  0  0  0  0  0  0  0  0  0  0
  139.4170   70.7870  225.0760 O   0  0  0  0  0  0  0  0  0  0  0  0
  139.8120   70.0020  226.1270 C   0  0  0  0  0  0  0  0  0  0  0  0
  139.6760   68.6260  226.1100 C   0  0  0  0  0  0  0  0  0  0  0  0
  140.0760   67.8640  227.1690 C   0  0  0  0  0  0  0  0  0  0  0  0
  140.6320   68.4780  228.2880 C   0  0  0  0  0  0  0  0  0  0  0  0
  140.7720   69.8680  228.3070 C   0  0  0  0  0  0  0  0  0  0  0  0
  140.3610   70.6170  227.2300 C   0  0  0  0  0  0  0  0  0  0  0  0
  134.7300   70.6700  225.2510 C   0  0  0  0  0  0  0  0  0  0  0  0
  133.7760   70.2580  226.1690 C   0  0  0  0  0  0  0  0  0  0  0  0
  132.9950   71.2020  226.8380 C   0  0  0  0  0  0  0  0  0  0  0  0
  133.1940   72.5320  226.5640 C   0  0  0  0  0  0  0  0  0  0  0  0
  132.4130   73.4650  227.2340 C   0  0  0  0  0  0  0  0  0  0  0  0
  132.6250   74.8080  226.9490 C   0  0  0  0  0  0  0  0  0  0  0  0
  131.6780   76.0240  227.7540 Cl  0  0  0  0  0  0  0  0  0  0  0  0
  133.5750   75.1820  226.0370 C   0  0  0  0  0  0  0  0  0  0  0  0
  134.3530   74.2610  225.3700 C   0  0  0  0  0  0  0  0  0  0  0  0
  134.1460   72.9190  225.6510 C   0  0  0  0  0  0  0  0  0  0  0  0
  134.8860   71.9840  225.0200 N   0  0  0  0  0  0  0  0  0  0  0  0
  137.2990   70.8030  224.5990 H   0  0  0  0  0  0  0  0  0  0  0  0
  138.0967   68.1928  224.4000 H   0  0  0  0  0  0  0  0  0  0  0  0
  136.9606   68.2995  222.9868 H   0  0  0  0  0  0  0  0  0  0  0  0
  137.0475   71.3269  221.7613 H   0  0  0  0  0  0  0  0  0  0  0  0
  137.3698   72.2755  223.1691 H   0  0  0  0  0  0  0  0  0  0  0  0
  139.0388   72.2021  220.5160 H   0  0  0  0  0  0  0  0  0  0  0  0
  138.2305   73.6142  221.1056 H   0  0  0  0  0  0  0  0  0  0  0  0
  139.7282   73.7206  223.1123 H   0  0  0  0  0  0  0  0  0  0  0  0
  141.4570   72.6430  221.1310 H   0  0  0  0  0  0  0  0  0  0  0  0
  140.9546   71.0047  222.5367 H   0  0  0  0  0  0  0  0  0  0  0  0
  141.3633   71.4567  224.7171 H   0  0  0  0  0  0  0  0  0  0  0  0
  140.1533   72.7399  224.7874 H   0  0  0  0  0  0  0  0  0  0  0  0
  139.2377   68.1371  225.2274 H   0  0  0  0  0  0  0  0  0  0  0  0
  139.9598   66.7706  227.1387 H   0  0  0  0  0  0  0  0  0  0  0  0
  140.9577   67.8749  229.1483 H   0  0  0  0  0  0  0  0  0  0  0  0
  141.2117   70.3637  229.1850 H   0  0  0  0  0  0  0  0  0  0  0  0
  140.4710   71.7113  227.2494 H   0  0  0  0  0  0  0  0  0  0  0  0
  133.6344   69.1859  226.3704 H   0  0  0  0  0  0  0  0  0  0  0  0
  132.2362   70.8866  227.5692 H   0  0  0  0  0  0  0  0  0  0  0  0
  131.6531   73.1513  227.9648 H   0  0  0  0  0  0  0  0  0  0  0  0
  133.7220   76.2523  225.8300 H   0  0  0  0  0  0  0  0  0  0  0  0
  135.1119   74.5792  224.6400 H   0  0  0  0  0  0  0  0  0  0  0  0
  1  2  2  0
  2  3  1  0
  3  4  1  0
  4  5  1  0
  5  6  2  0
  5  7  1  0
  7  8  1  0
  8  9  1  0
  9 10  1  0
 10 11  1  0
 10 12  1  0
 12 13  1  0
 13 14  1  0
 14 15  1  0
 15 16  2  0
 16 17  1  0
 17 18  2  0
 18 19  1  0
 19 20  2  0
  2 21  1  0
 21 22  2  0
 22 23  1  0
 23 24  2  0
 24 25  1  0
 25 26  2  0
 26 27  1  0
 26 28  1  0
 28 29  2  0
 29 30  1  0
 30 31  2  0
 12  7  1  0
 20 15  1  0
 31 21  1  0
 30 24  1  0
  3 32  1  0
  4 33  1  0
  4 34  1  0
  8 35  1  0
  8 36  1  0
  9 37  1  0
  9 38  1  0
 10 39  1  1
 11 40  1  0
 12 41  1  6
 13 42  1  0
 13 43  1  0
 16 44  1  0
 17 45  1  0
 18 46  1  0
 19 47  1  0
 20 48  1  0
 22 49  1  0
 23 50  1  0
 25 51  1  0
 28 52  1  0
 29 53  1  0
M  END
>  <smiles>  (21) 
O=C(NCC(=O)N1CC[C@H](O)[C@H]1COc1ccccc1)c1ccc2cc(Cl)ccc2n1

>  <score_type>  (21) 
oracle

>  <origin>  (21) 
autodockgpu

>  <m_score__min__energy>  (21) 
-8.7100000000000009

>  <m_primary>  (21) 
energy

>  <rmsd>  (21) 
6.713528306505693

>  <m_score__min__rmsd>  (21) 
6.713528306505693

>  <meeko>  (21) 
{"free_energy": -7.18, "intermolecular_energy": -9.57, "internal_energy": -2.51, "cluster_size": 1, "cluster_id": 8, "rank_in_cluster": 1}

>  <energy>  (21) 
-7.2

>  <cluster_rmsd>  (21) 
1.56

>  <cluster>  (21) 
1

$$$$

     RDKit          3D

 53 56  0  0  0  0  0  0  0  0999 V2000
  140.6100   73.3900  221.7620 O   0  0  0  0  0  0  0  0  0  0  0  0
  139.6130   72.9050  222.3740 C   0  0  0  0  0  0  0  0  0  0  0  0
  138.3000   73.3480  222.0120 N   0  0  0  0  0  0  0  0  0  0  0  0
  138.1770   74.3240  220.9710 C   0  0  0  0  0  0  0  0  0  0  0  0
  137.9610   75.6940  221.5100 C   0  0  0  0  0  0  0  0  0  0  0  0
  137.0280   75.9010  222.3420 O   0  0  0  0  0  0  0  0  0  0  0  0
  138.8030   76.7280  221.0760 N   0  0  0  0  0  0  0  0  0  0  0  0
  138.4710   78.1250  220.8510 C   0  0  0  0  0  0  0  0  0  0  0  0
  139.2640   78.3670  219.5610 C   0  0  0  0  0  0  0  0  0  0  0  0
  140.6110   77.8220  219.9770 C   0  0  2  0  0  0  0  0  0  0  0  0
  141.4010   77.4770  218.8890 O   0  0  0  0  0  0  0  0  0  0  0  0
  140.2120   76.5880  220.7590 C   0  0  1  0  0  0  0  0  0  0  0  0
  141.0580   76.5460  222.0170 C   0  0  0  0  0  0  0  0  0  0  0  0
  140.4240   77.4540  222.9240 O   0  0  0  0  0  0  0  0  0  0  0  0
  140.9180   78.7170  223.1230 C   0  0  0  0  0  0  0  0  0  0  0  0
  142.2620   79.0110  222.9880 C   0  0  0  0  0  0  0  0  0  0  0  0
  142.7300   80.2770  223.1920 C   0  0  0  0  0  0  0  0  0  0  0  0
  141.8440   81.2910  223.5420 C   0  0  0  0  0  0  0  0  0  0  0  0
  140.4850   80.9960  223.6790 C   0  0  0  0  0  0  0  0  0  0  0  0
  140.0340   79.7140  223.4690 C   0  0  0  0  0  0  0  0  0  0  0  0
  139.7760   71.9090  223.4310 C   0  0  0  0  0  0  0  0  0  0  0  0
  139.3530   70.6130  223.1750 C   0  0  0  0  0  0  0  0  0  0  0  0
  139.4880   69.6270  224.1530 C   0  0  0  0  0  0  0  0  0  0  0  0
  140.0430   69.9700  225.3600 C   0  0  0  0  0  0  0  0  0  0  0  0
  140.1740   68.9820  226.3280 C   0  0  0  0  0  0  0  0  0  0  0  0
  140.7380   69.3420  227.5450 C   0  0  0  0  0  0  0  0  0  0  0  0
  140.9280   68.1510  228.7970 Cl  0  0  0  0  0  0  0  0  0  0  0  0
  141.1460   70.6290  227.7670 C   0  0  0  0  0  0  0  0  0  0  0  0
  141.0190   71.6140  226.8100 C   0  0  0  0  0  0  0  0  0  0  0  0
  140.4570   71.2600  225.5940 C   0  0  0  0  0  0  0  0  0  0  0  0
  140.3140   72.1920  224.6290 N   0  0  0  0  0  0  0  0  0  0  0  0
  137.4970   72.9290  222.5330 H   0  0  0  0  0  0  0  0  0  0  0  0
  139.0988   74.3204  220.3708 H   0  0  0  0  0  0  0  0  0  0  0  0
  137.3016   74.0587  220.3601 H   0  0  0  0  0  0  0  0  0  0  0  0
  137.3909   78.2717  220.7027 H   0  0  0  0  0  0  0  0  0  0  0  0
  138.7104   78.8037  221.6829 H   0  0  0  0  0  0  0  0  0  0  0  0
  138.8424   77.8095  218.7116 H   0  0  0  0  0  0  0  0  0  0  0  0
  139.2734   79.4097  219.2108 H   0  0  0  0  0  0  0  0  0  0  0  0
  141.2166   78.5488  220.5382 H   0  0  0  0  0  0  0  0  0  0  0  0
  140.9730   77.5690  218.0190 H   0  0  0  0  0  0  0  0  0  0  0  0
  140.3701   75.6552  220.1978 H   0  0  0  0  0  0  0  0  0  0  0  0
  141.0749   75.5295  222.4371 H   0  0  0  0  0  0  0  0  0  0  0  0
  142.1038   76.8241  221.8195 H   0  0  0  0  0  0  0  0  0  0  0  0
  142.9656   78.2119  222.7118 H   0  0  0  0  0  0  0  0  0  0  0  0
  143.8025   80.4944  223.0802 H   0  0  0  0  0  0  0  0  0  0  0  0
  142.2097   82.3149  223.7093 H   0  0  0  0  0  0  0  0  0  0  0  0
  139.7754   81.7899  223.9550 H   0  0  0  0  0  0  0  0  0  0  0  0
  138.9637   79.4845  223.5778 H   0  0  0  0  0  0  0  0  0  0  0  0
  138.9105   70.3622  222.1996 H   0  0  0  0  0  0  0  0  0  0  0  0
  139.1564   68.5960  223.9603 H   0  0  0  0  0  0  0  0  0  0  0  0
  139.8426   67.9506  226.1371 H   0  0  0  0  0  0  0  0  0  0  0  0
  141.5896   70.8864  228.7401 H   0  0  0  0  0  0  0  0  0  0  0  0
  141.3520   72.6440  227.0052 H   0  0  0  0  0  0  0  0  0  0  0  0
  1  2  2  0
  2  3  1  0
  3  4  1  0
  4  5  1  0
  5  6  2  0
  5  7  1  0
  7  8  1  0
  8  9  1  0
  9 10  1  0
 10 11  1  0
 10 12  1  0
 12 13  1  0
 13 14  1  0
 14 15  1  0
 15 16  2  0
 16 17  1  0
 17 18  2  0
 18 19  1  0
 19 20  2  0
  2 21  1  0
 21 22  2  0
 22 23  1  0
 23 24  2  0
 24 25  1  0
 25 26  2  0
 26 27  1  0
 26 28  1  0
 28 29  2  0
 29 30  1  0
 30 31  2  0
 12  7  1  0
 20 15  1  0
 31 21  1  0
 30 24  1  0
  3 32  1  0
  4 33  1  0
  4 34  1  0
  8 35  1  0
  8 36  1  0
  9 37  1  0
  9 38  1  0
 10 39  1  1
 11 40  1  0
 12 41  1  6
 13 42  1  0
 13 43  1  0
 16 44  1  0
 17 45  1  0
 18 46  1  0
 19 47  1  0
 20 48  1  0
 22 49  1  0
 23 50  1  0
 25 51  1  0
 28 52  1  0
 29 53  1  0
M  END
>  <smiles>  (22) 
O=C(NCC(=O)N1CC[C@H](O)[C@H]1COc1ccccc1)c1ccc2cc(Cl)ccc2n1

>  <score_type>  (22) 
oracle

>  <origin>  (22) 
autodockgpu

>  <m_score__min__energy>  (22) 
-8.7100000000000009

>  <m_primary>  (22) 
energy

>  <rmsd>  (22) 
2.4895251288014437

>  <m_score__min__rmsd>  (22) 
2.4895251288014437

>  <meeko>  (22) 
{"free_energy": -7.52, "intermolecular_energy": -9.9, "internal_energy": -1.71, "cluster_size": 22, "cluster_id": 1, "rank_in_cluster": 18}

>  <energy>  (22) 
-7.08

>  <cluster_rmsd>  (22) 
1.99

>  <cluster>  (22) 
1

$$$$

     RDKit          3D

 53 56  0  0  0  0  0  0  0  0999 V2000
  140.6070   72.6240  220.8840 O   0  0  0  0  0  0  0  0  0  0  0  0
  139.9270   72.9430  221.9040 C   0  0  0  0  0  0  0  0  0  0  0  0
  139.2470   74.2030  221.9110 N   0  0  0  0  0  0  0  0  0  0  0  0
  139.3700   75.0460  220.7590 C   0  0  0  0  0  0  0  0  0  0  0  0
  140.7570   75.5540  220.5810 C   0  0  0  0  0  0  0  0  0  0  0  0
  141.6510   75.2460  221.4250 O   0  0  0  0  0  0  0  0  0  0  0  0
  141.0390   76.3670  219.4740 N   0  0  0  0  0  0  0  0  0  0  0  0
  140.8740   76.0560  218.0640 C   0  0  0  0  0  0  0  0  0  0  0  0
  142.1630   76.6820  217.5160 C   0  0  0  0  0  0  0  0  0  0  0  0
  142.0750   78.0520  218.1480 C   0  0  2  0  0  0  0  0  0  0  0  0
  143.3100   78.6810  218.2200 O   0  0  0  0  0  0  0  0  0  0  0  0
  141.5660   77.7170  219.5340 C   0  0  1  0  0  0  0  0  0  0  0  0
  140.4810   78.7170  219.8820 C   0  0  0  0  0  0  0  0  0  0  0  0
  141.1790   79.8980  220.2900 O   0  0  0  0  0  0  0  0  0  0  0  0
  141.5780   80.0720  221.5900 C   0  0  0  0  0  0  0  0  0  0  0  0
  141.7760   81.3250  222.1370 C   0  0  0  0  0  0  0  0  0  0  0  0
  142.1730   81.4730  223.4350 C   0  0  0  0  0  0  0  0  0  0  0  0
  142.3840   80.3460  224.2230 C   0  0  0  0  0  0  0  0  0  0  0  0
  142.1840   79.0780  223.6720 C   0  0  0  0  0  0  0  0  0  0  0  0
  141.7840   78.9510  222.3630 C   0  0  0  0  0  0  0  0  0  0  0  0
  139.8240   72.0570  223.0620 C   0  0  0  0  0  0  0  0  0  0  0  0
  138.7790   71.1460  223.0920 C   0  0  0  0  0  0  0  0  0  0  0  0
  138.6390   70.2780  224.1750 C   0  0  0  0  0  0  0  0  0  0  0  0
  139.5510   70.3510  225.1990 C   0  0  0  0  0  0  0  0  0  0  0  0
  139.4030   69.4840  226.2740 C   0  0  0  0  0  0  0  0  0  0  0  0
  140.3330   69.5670  227.3020 C   0  0  0  0  0  0  0  0  0  0  0  0
  140.2030   68.5100  228.6750 Cl  0  0  0  0  0  0  0  0  0  0  0  0
  141.3540   70.4780  227.2420 C   0  0  0  0  0  0  0  0  0  0  0  0
  141.5050   71.3410  226.1780 C   0  0  0  0  0  0  0  0  0  0  0  0
  140.5790   71.2620  225.1490 C   0  0  0  0  0  0  0  0  0  0  0  0
  140.6910   72.0870  224.0880 N   0  0  0  0  0  0  0  0  0  0  0  0
  138.6930   74.4400  222.7650 H   0  0  0  0  0  0  0  0  0  0  0  0
  139.0863   74.4696  219.8661 H   0  0  0  0  0  0  0  0  0  0  0  0
  138.7082   75.9129  220.9022 H   0  0  0  0  0  0  0  0  0  0  0  0
  140.8356   74.9714  217.8845 H   0  0  0  0  0  0  0  0  0  0  0  0
  139.9432   76.4247  217.6083 H   0  0  0  0  0  0  0  0  0  0  0  0
  143.0570   76.1347  217.8495 H   0  0  0  0  0  0  0  0  0  0  0  0
  142.2501   76.6811  216.4195 H   0  0  0  0  0  0  0  0  0  0  0  0
  141.4421   78.7497  217.5800 H   0  0  0  0  0  0  0  0  0  0  0  0
  143.5310   79.2530  217.4630 H   0  0  0  0  0  0  0  0  0  0  0  0
  142.3511   77.7697  220.3026 H   0  0  0  0  0  0  0  0  0  0  0  0
  139.8512   78.9245  219.0043 H   0  0  0  0  0  0  0  0  0  0  0  0
  139.8116   78.3412  220.6698 H   0  0  0  0  0  0  0  0  0  0  0  0
  141.6111   82.2183  221.5166 H   0  0  0  0  0  0  0  0  0  0  0  0
  142.3252   82.4780  223.8554 H   0  0  0  0  0  0  0  0  0  0  0  0
  142.7052   80.4524  225.2697 H   0  0  0  0  0  0  0  0  0  0  0  0
  142.3468   78.1801  224.2863 H   0  0  0  0  0  0  0  0  0  0  0  0
  141.6280   77.9512  221.9317 H   0  0  0  0  0  0  0  0  0  0  0  0
  138.0596   71.1078  222.2608 H   0  0  0  0  0  0  0  0  0  0  0  0
  137.8150   69.5500  224.2080 H   0  0  0  0  0  0  0  0  0  0  0  0
  138.5781   68.7572  226.3098 H   0  0  0  0  0  0  0  0  0  0  0  0
  142.0770   70.5223  228.0699 H   0  0  0  0  0  0  0  0  0  0  0  0
  142.3310   72.0668  226.1463 H   0  0  0  0  0  0  0  0  0  0  0  0
  1  2  2  0
  2  3  1  0
  3  4  1  0
  4  5  1  0
  5  6  2  0
  5  7  1  0
  7  8  1  0
  8  9  1  0
  9 10  1  0
 10 11  1  0
 10 12  1  0
 12 13  1  0
 13 14  1  0
 14 15  1  0
 15 16  2  0
 16 17  1  0
 17 18  2  0
 18 19  1  0
 19 20  2  0
  2 21  1  0
 21 22  2  0
 22 23  1  0
 23 24  2  0
 24 25  1  0
 25 26  2  0
 26 27  1  0
 26 28  1  0
 28 29  2  0
 29 30  1  0
 30 31  2  0
 12  7  1  0
 20 15  1  0
 31 21  1  0
 30 24  1  0
  3 32  1  0
  4 33  1  0
  4 34  1  0
  8 35  1  0
  8 36  1  0
  9 37  1  0
  9 38  1  0
 10 39  1  6
 11 40  1  0
 12 41  1  1
 13 42  1  0
 13 43  1  0
 16 44  1  0
 17 45  1  0
 18 46  1  0
 19 47  1  0
 20 48  1  0
 22 49  1  0
 23 50  1  0
 25 51  1  0
 28 52  1  0
 29 53  1  0
M  END
>  <smiles>  (23) 
O=C(NCC(=O)N1CC[C@H](O)[C@H]1COc1ccccc1)c1ccc2cc(Cl)ccc2n1

>  <score_type>  (23) 
oracle

>  <origin>  (23) 
autodockgpu

>  <m_score__min__energy>  (23) 
-8.7100000000000009

>  <m_primary>  (23) 
energy

>  <rmsd>  (23) 
2.095259681470154

>  <m_score__min__rmsd>  (23) 
2.095259681470154

>  <meeko>  (23) 
{"free_energy": -8.11, "intermolecular_energy": -10.5, "internal_energy": -1.19, "cluster_size": 22, "cluster_id": 1, "rank_in_cluster": 10}

>  <energy>  (23) 
-7.84

>  <cluster_rmsd>  (23) 
0.0

>  <cluster>  (23) 
2

$$$$

     RDKit          3D

 53 56  0  0  0  0  0  0  0  0999 V2000
  138.9010   71.5800  220.8090 O   0  0  0  0  0  0  0  0  0  0  0  0
  139.1040   72.0720  221.9570 C   0  0  0  0  0  0  0  0  0  0  0  0
  139.0560   73.4940  222.1160 N   0  0  0  0  0  0  0  0  0  0  0  0
  138.7790   74.2960  220.9610 C   0  0  0  0  0  0  0  0  0  0  0  0
  139.5890   75.5440  220.9370 C   0  0  0  0  0  0  0  0  0  0  0  0
  139.2400   76.5320  221.6500 O   0  0  0  0  0  0  0  0  0  0  0  0
  140.7260   75.5920  220.1180 N   0  0  0  0  0  0  0  0  0  0  0  0
  141.1310   74.6560  219.0840 C   0  0  0  0  0  0  0  0  0  0  0  0
  142.6370   74.6030  219.3670 C   0  0  0  0  0  0  0  0  0  0  0  0
  142.9460   76.0820  219.4070 C   0  0  2  0  0  0  0  0  0  0  0  0
  144.1170   76.3600  220.0990 O   0  0  0  0  0  0  0  0  0  0  0  0
  141.7450   76.6240  220.1550 C   0  0  1  0  0  0  0  0  0  0  0  0
  141.2850   77.8790  219.4400 C   0  0  0  0  0  0  0  0  0  0  0  0
  140.6350   78.6640  220.4450 O   0  0  0  0  0  0  0  0  0  0  0  0
  141.3110   79.0910  221.5580 C   0  0  0  0  0  0  0  0  0  0  0  0
  142.2210   80.1300  221.5130 C   0  0  0  0  0  0  0  0  0  0  0  0
  142.8820   80.5380  222.6360 C   0  0  0  0  0  0  0  0  0  0  0  0
  142.6400   79.8990  223.8480 C   0  0  0  0  0  0  0  0  0  0  0  0
  141.7200   78.8480  223.8960 C   0  0  0  0  0  0  0  0  0  0  0  0
  141.0650   78.4530  222.7530 C   0  0  0  0  0  0  0  0  0  0  0  0
  139.3820   71.2230  223.1140 C   0  0  0  0  0  0  0  0  0  0  0  0
  139.0260   69.8850  223.0400 C   0  0  0  0  0  0  0  0  0  0  0  0
  139.2730   69.0340  224.1180 C   0  0  0  0  0  0  0  0  0  0  0  0
  139.8690   69.5520  225.2410 C   0  0  0  0  0  0  0  0  0  0  0  0
  140.1100   68.6980  226.3100 C   0  0  0  0  0  0  0  0  0  0  0  0
  140.7150   69.2340  227.4390 C   0  0  0  0  0  0  0  0  0  0  0  0
  141.0430   68.2170  228.8100 Cl  0  0  0  0  0  0  0  0  0  0  0  0
  141.0550   70.5590  227.4810 C   0  0  0  0  0  0  0  0  0  0  0  0
  140.8180   71.4110  226.4240 C   0  0  0  0  0  0  0  0  0  0  0  0
  140.2150   70.8810  225.2940 C   0  0  0  0  0  0  0  0  0  0  0  0
  139.9650   71.6800  224.2360 N   0  0  0  0  0  0  0  0  0  0  0  0
  139.2260   73.8720  223.0750 H   0  0  0  0  0  0  0  0  0  0  0  0
  139.0060   73.7087  220.0590 H   0  0  0  0  0  0  0  0  0  0  0  0
  137.7175   74.5825  220.9950 H   0  0  0  0  0  0  0  0  0  0  0  0
  140.6547   73.6727  219.2111 H   0  0  0  0  0  0  0  0  0  0  0  0
  140.8570   74.9438  218.0583 H   0  0  0  0  0  0  0  0  0  0  0  0
  142.8553   74.1138  220.3277 H   0  0  0  0  0  0  0  0  0  0  0  0
  143.2261   74.0251  218.6397 H   0  0  0  0  0  0  0  0  0  0  0  0
  143.1048   76.5166  218.4090 H   0  0  0  0  0  0  0  0  0  0  0  0
  144.0850   77.1470  220.6720 H   0  0  0  0  0  0  0  0  0  0  0  0
  141.9701   76.8786  221.2012 H   0  0  0  0  0  0  0  0  0  0  0  0
  142.1451   78.4224  219.0219 H   0  0  0  0  0  0  0  0  0  0  0  0
  140.6151   77.6513  218.5977 H   0  0  0  0  0  0  0  0  0  0  0  0
  142.4161   80.6369  220.5565 H   0  0  0  0  0  0  0  0  0  0  0  0
  143.6022   81.3677  222.5827 H   0  0  0  0  0  0  0  0  0  0  0  0
  143.1674   80.2178  224.7592 H   0  0  0  0  0  0  0  0  0  0  0  0
  141.5196   78.3362  224.8489 H   0  0  0  0  0  0  0  0  0  0  0  0
  140.3423   77.6247  222.7937 H   0  0  0  0  0  0  0  0  0  0  0  0
  138.5480   69.4936  222.1299 H   0  0  0  0  0  0  0  0  0  0  0  0
  138.9960   67.9706  224.0690 H   0  0  0  0  0  0  0  0  0  0  0  0
  139.8314   67.6349  226.2636 H   0  0  0  0  0  0  0  0  0  0  0  0
  141.5331   70.9570  228.3882 H   0  0  0  0  0  0  0  0  0  0  0  0
  141.0974   72.4737  226.4752 H   0  0  0  0  0  0  0  0  0  0  0  0
  1  2  2  0
  2  3  1  0
  3  4  1  0
  4  5  1  0
  5  6  2  0
  5  7  1  0
  7  8  1  0
  8  9  1  0
  9 10  1  0
 10 11  1  0
 10 12  1  0
 12 13  1  0
 13 14  1  0
 14 15  1  0
 15 16  2  0
 16 17  1  0
 17 18  2  0
 18 19  1  0
 19 20  2  0
  2 21  1  0
 21 22  2  0
 22 23  1  0
 23 24  2  0
 24 25  1  0
 25 26  2  0
 26 27  1  0
 26 28  1  0
 28 29  2  0
 29 30  1  0
 30 31  2  0
 12  7  1  0
 20 15  1  0
 31 21  1  0
 30 24  1  0
  3 32  1  0
  4 33  1  0
  4 34  1  0
  8 35  1  0
  8 36  1  0
  9 37  1  0
  9 38  1  0
 10 39  1  6
 11 40  1  0
 12 41  1  1
 13 42  1  0
 13 43  1  0
 16 44  1  0
 17 45  1  0
 18 46  1  0
 19 47  1  0
 20 48  1  0
 22 49  1  0
 23 50  1  0
 25 51  1  0
 28 52  1  0
 29 53  1  0
M  END
>  <smiles>  (24) 
O=C(NCC(=O)N1CC[C@H](O)[C@H]1COc1ccccc1)c1ccc2cc(Cl)ccc2n1

>  <score_type>  (24) 
oracle

>  <origin>  (24) 
autodockgpu

>  <m_score__min__energy>  (24) 
-8.7100000000000009

>  <m_primary>  (24) 
energy

>  <rmsd>  (24) 
1.9476241536572423

>  <m_score__min__rmsd>  (24) 
1.9476241536572423

>  <meeko>  (24) 
{"free_energy": -8.51, "intermolecular_energy": -10.89, "internal_energy": -1.67, "cluster_size": 22, "cluster_id": 1, "rank_in_cluster": 4}

>  <energy>  (24) 
-7.72

>  <cluster_rmsd>  (24) 
0.49

>  <cluster>  (24) 
2

$$$$

     RDKit          3D

 53 56  0  0  0  0  0  0  0  0999 V2000
  139.6660   71.9860  220.6470 O   0  0  0  0  0  0  0  0  0  0  0  0
  139.4560   72.3850  221.8300 C   0  0  0  0  0  0  0  0  0  0  0  0
  139.0170   73.7330  222.0340 N   0  0  0  0  0  0  0  0  0  0  0  0
  138.8360   74.5690  220.8850 C   0  0  0  0  0  0  0  0  0  0  0  0
  138.8380   76.0140  221.2360 C   0  0  0  0  0  0  0  0  0  0  0  0
  137.7380   76.6310  221.3630 O   0  0  0  0  0  0  0  0  0  0  0  0
  140.0690   76.6600  221.4190 N   0  0  0  0  0  0  0  0  0  0  0  0
  140.8620   76.7600  222.6320 C   0  0  0  0  0  0  0  0  0  0  0  0
  141.3120   78.2210  222.5200 C   0  0  0  0  0  0  0  0  0  0  0  0
  141.8380   78.2230  221.1030 C   0  0  2  0  0  0  0  0  0  0  0  0
  141.8830   79.4980  220.5570 O   0  0  0  0  0  0  0  0  0  0  0  0
  140.8030   77.3750  220.3930 C   0  0  1  0  0  0  0  0  0  0  0  0
  141.5410   76.4200  219.4760 C   0  0  0  0  0  0  0  0  0  0  0  0
  142.8010   76.1870  220.1140 O   0  0  0  0  0  0  0  0  0  0  0  0
  143.2520   74.9150  220.3480 C   0  0  0  0  0  0  0  0  0  0  0  0
  144.6000   74.6110  220.4090 C   0  0  0  0  0  0  0  0  0  0  0  0
  145.0260   73.3360  220.6430 C   0  0  0  0  0  0  0  0  0  0  0  0
  144.0920   72.3200  220.8240 C   0  0  0  0  0  0  0  0  0  0  0  0
  142.7300   72.6240  220.7640 C   0  0  0  0  0  0  0  0  0  0  0  0
  142.3220   73.9160  220.5260 C   0  0  0  0  0  0  0  0  0  0  0  0
  139.6500   71.5040  222.9800 C   0  0  0  0  0  0  0  0  0  0  0  0
  139.2490   70.1820  222.8600 C   0  0  0  0  0  0  0  0  0  0  0  0
  139.4150   69.3020  223.9300 C   0  0  0  0  0  0  0  0  0  0  0  0
  139.9770   69.7750  225.0900 C   0  0  0  0  0  0  0  0  0  0  0  0
  140.1380   68.8910  226.1500 C   0  0  0  0  0  0  0  0  0  0  0  0
  140.7080   69.3820  227.3170 C   0  0  0  0  0  0  0  0  0  0  0  0
  140.9350   68.3270  228.6800 Cl  0  0  0  0  0  0  0  0  0  0  0  0
  141.0930   70.6930  227.4030 C   0  0  0  0  0  0  0  0  0  0  0  0
  140.9360   71.5740  226.3550 C   0  0  0  0  0  0  0  0  0  0  0  0
  140.3670   71.0890  225.1870 C   0  0  0  0  0  0  0  0  0  0  0  0
  140.1960   71.9170  224.1360 N   0  0  0  0  0  0  0  0  0  0  0  0
  138.8500   74.0340  223.0210 H   0  0  0  0  0  0  0  0  0  0  0  0
  139.6530   74.3760  220.1742 H   0  0  0  0  0  0  0  0  0  0  0  0
  137.8570   74.3299  220.4441 H   0  0  0  0  0  0  0  0  0  0  0  0
  140.2567   76.5850  223.5336 H   0  0  0  0  0  0  0  0  0  0  0  0
  141.6755   76.0250  222.7216 H   0  0  0  0  0  0  0  0  0  0  0  0
  140.4705   78.9185  222.6445 H   0  0  0  0  0  0  0  0  0  0  0  0
  142.0345   78.5441  223.2839 H   0  0  0  0  0  0  0  0  0  0  0  0
  142.8710   77.8531  221.0251 H   0  0  0  0  0  0  0  0  0  0  0  0
  142.7730   79.8240  220.3330 H   0  0  0  0  0  0  0  0  0  0  0  0
  140.1017   77.9700  219.7896 H   0  0  0  0  0  0  0  0  0  0  0  0
  140.9825   75.4784  219.3693 H   0  0  0  0  0  0  0  0  0  0  0  0
  141.6624   76.8327  218.4636 H   0  0  0  0  0  0  0  0  0  0  0  0
  145.3414   75.4110  220.2664 H   0  0  0  0  0  0  0  0  0  0  0  0
  146.1020   73.1122  220.6884 H   0  0  0  0  0  0  0  0  0  0  0  0
  144.4231   71.2881  221.0124 H   0  0  0  0  0  0  0  0  0  0  0  0
  141.9829   71.8295  220.9072 H   0  0  0  0  0  0  0  0  0  0  0  0
  141.2486   74.1516  220.4778 H   0  0  0  0  0  0  0  0  0  0  0  0
  138.7998   69.8269  221.9208 H   0  0  0  0  0  0  0  0  0  0  0  0
  139.1020   68.2508  223.8459 H   0  0  0  0  0  0  0  0  0  0  0  0
  139.8250   67.8397  226.0675 H   0  0  0  0  0  0  0  0  0  0  0  0
  141.5425   71.0550  228.3394 H   0  0  0  0  0  0  0  0  0  0  0  0
  141.2508   72.6244  226.4418 H   0  0  0  0  0  0  0  0  0  0  0  0
  1  2  2  0
  2  3  1  0
  3  4  1  0
  4  5  1  0
  5  6  2  0
  5  7  1  0
  7  8  1  0
  8  9  1  0
  9 10  1  0
 10 11  1  0
 10 12  1  0
 12 13  1  0
 13 14  1  0
 14 15  1  0
 15 16  2  0
 16 17  1  0
 17 18  2  0
 18 19  1  0
 19 20  2  0
  2 21  1  0
 21 22  2  0
 22 23  1  0
 23 24  2  0
 24 25  1  0
 25 26  2  0
 26 27  1  0
 26 28  1  0
 28 29  2  0
 29 30  1  0
 30 31  2  0
 12  7  1  0
 20 15  1  0
 31 21  1  0
 30 24  1  0
  3 32  1  0
  4 33  1  0
  4 34  1  0
  8 35  1  0
  8 36  1  0
  9 37  1  0
  9 38  1  0
 10 39  1  1
 11 40  1  0
 12 41  1  6
 13 42  1  0
 13 43  1  0
 16 44  1  0
 17 45  1  0
 18 46  1  0
 19 47  1  0
 20 48  1  0
 22 49  1  0
 23 50  1  0
 25 51  1  0
 28 52  1  0
 29 53  1  0
M  END
>  <smiles>  (25) 
O=C(NCC(=O)N1CC[C@H](O)[C@H]1COc1ccccc1)c1ccc2cc(Cl)ccc2n1

>  <score_type>  (25) 
oracle

>  <origin>  (25) 
autodockgpu

>  <m_score__min__energy>  (25) 
-8.7100000000000009

>  <m_primary>  (25) 
energy

>  <rmsd>  (25) 
2.9052555816331873

>  <m_score__min__rmsd>  (25) 
2.9052555816331873

>  <meeko>  (25) 
{"free_energy": -7.71, "intermolecular_energy": -10.09, "internal_energy": -2.08, "cluster_size": 4, "cluster_id": 4, "rank_in_cluster": 2}

>  <energy>  (25) 
-7.45

>  <cluster_rmsd>  (25) 
1.96

>  <cluster>  (25) 
2

$$$$

     RDKit          3D

 53 56  0  0  0  0  0  0  0  0999 V2000
  136.3770   71.5090  221.9500 O   0  0  0  0  0  0  0  0  0  0  0  0
  137.3800   71.8950  222.6200 C   0  0  0  0  0  0  0  0  0  0  0  0
  137.9670   73.1650  222.3130 N   0  0  0  0  0  0  0  0  0  0  0  0
  137.3870   73.9400  221.2560 C   0  0  0  0  0  0  0  0  0  0  0  0
  138.3820   74.8400  220.6110 C   0  0  0  0  0  0  0  0  0  0  0  0
  138.4790   74.8650  219.3480 O   0  0  0  0  0  0  0  0  0  0  0  0
  139.1920   75.6410  221.4270 N   0  0  0  0  0  0  0  0  0  0  0  0
  138.8550   76.2650  222.6960 C   0  0  0  0  0  0  0  0  0  0  0  0
  139.5340   77.6250  222.4960 C   0  0  0  0  0  0  0  0  0  0  0  0
  140.9070   77.1690  222.0590 C   0  0  2  0  0  0  0  0  0  0  0  0
  141.5950   78.1530  221.3630 O   0  0  0  0  0  0  0  0  0  0  0  0
  140.5660   76.0100  221.1450 C   0  0  1  0  0  0  0  0  0  0  0  0
  141.5180   74.8750  221.4660 C   0  0  0  0  0  0  0  0  0  0  0  0
  140.6850   73.8110  221.9380 O   0  0  0  0  0  0  0  0  0  0  0  0
  140.6030   72.6220  221.2620 C   0  0  0  0  0  0  0  0  0  0  0  0
  140.4440   71.4140  221.9150 C   0  0  0  0  0  0  0  0  0  0  0  0
  140.3650   70.2420  221.2200 C   0  0  0  0  0  0  0  0  0  0  0  0
  140.4460   70.2580  219.8310 C   0  0  0  0  0  0  0  0  0  0  0  0
  140.6070   71.4780  219.1690 C   0  0  0  0  0  0  0  0  0  0  0  0
  140.6850   72.6470  219.8880 C   0  0  0  0  0  0  0  0  0  0  0  0
  137.9440   71.0770  223.6920 C   0  0  0  0  0  0  0  0  0  0  0  0
  137.3630   69.8430  223.9430 C   0  0  0  0  0  0  0  0  0  0  0  0
  137.8660   69.0260  224.9550 C   0  0  0  0  0  0  0  0  0  0  0  0
  138.9390   69.4710  225.6870 C   0  0  0  0  0  0  0  0  0  0  0  0
  139.4330   68.6500  226.6930 C   0  0  0  0  0  0  0  0  0  0  0  0
  140.5190   69.1120  227.4260 C   0  0  0  0  0  0  0  0  0  0  0  0
  141.1840   68.1320  228.6990 Cl  0  0  0  0  0  0  0  0  0  0  0  0
  141.0710   70.3340  227.1530 C   0  0  0  0  0  0  0  0  0  0  0  0
  140.5840   71.1530  226.1560 C   0  0  0  0  0  0  0  0  0  0  0  0
  139.5010   70.6960  225.4220 C   0  0  0  0  0  0  0  0  0  0  0  0
  138.9930   71.4650  224.4370 N   0  0  0  0  0  0  0  0  0  0  0  0
  138.7920   73.4580  222.8820 H   0  0  0  0  0  0  0  0  0  0  0  0
  136.9820   73.2560  220.4956 H   0  0  0  0  0  0  0  0  0  0  0  0
  136.5948   74.5671  221.6910 H   0  0  0  0  0  0  0  0  0  0  0  0
  137.7676   76.3646  222.8286 H   0  0  0  0  0  0  0  0  0  0  0  0
  139.1730   75.7094  223.5905 H   0  0  0  0  0  0  0  0  0  0  0  0
  139.0344   78.2205  221.7177 H   0  0  0  0  0  0  0  0  0  0  0  0
  139.5224   78.2835  223.3771 H   0  0  0  0  0  0  0  0  0  0  0  0
  141.5663   76.9150  222.9021 H   0  0  0  0  0  0  0  0  0  0  0  0
  142.5670   78.0830  221.3950 H   0  0  0  0  0  0  0  0  0  0  0  0
  140.6655   76.2615  220.0788 H   0  0  0  0  0  0  0  0  0  0  0  0
  142.0668   74.5648  220.5646 H   0  0  0  0  0  0  0  0  0  0  0  0
  142.2727   75.1685  222.2105 H   0  0  0  0  0  0  0  0  0  0  0  0
  140.3801   71.3970  223.0130 H   0  0  0  0  0  0  0  0  0  0  0  0
  140.2379   69.2895  221.7553 H   0  0  0  0  0  0  0  0  0  0  0  0
  140.3839   69.3199  219.2599 H   0  0  0  0  0  0  0  0  0  0  0  0
  140.6714   71.5030  218.0712 H   0  0  0  0  0  0  0  0  0  0  0  0
  140.8133   73.6055  219.3638 H   0  0  0  0  0  0  0  0  0  0  0  0
  136.5041   69.5082  223.3429 H   0  0  0  0  0  0  0  0  0  0  0  0
  137.4126   68.0455  225.1625 H   0  0  0  0  0  0  0  0  0  0  0  0
  138.9805   67.6693  226.9017 H   0  0  0  0  0  0  0  0  0  0  0  0
  141.9312   70.6742  227.7482 H   0  0  0  0  0  0  0  0  0  0  0  0
  141.0387   72.1334  225.9509 H   0  0  0  0  0  0  0  0  0  0  0  0
  1  2  2  0
  2  3  1  0
  3  4  1  0
  4  5  1  0
  5  6  2  0
  5  7  1  0
  7  8  1  0
  8  9  1  0
  9 10  1  0
 10 11  1  0
 10 12  1  0
 12 13  1  0
 13 14  1  0
 14 15  1  0
 15 16  2  0
 16 17  1  0
 17 18  2  0
 18 19  1  0
 19 20  2  0
  2 21  1  0
 21 22  2  0
 22 23  1  0
 23 24  2  0
 24 25  1  0
 25 26  2  0
 26 27  1  0
 26 28  1  0
 28 29  2  0
 29 30  1  0
 30 31  2  0
 12  7  1  0
 20 15  1  0
 31 21  1  0
 30 24  1  0
  3 32  1  0
  4 33  1  0
  4 34  1  0
  8 35  1  0
  8 36  1  0
  9 37  1  0
  9 38  1  0
 10 39  1  1
 11 40  1  0
 12 41  1  6
 13 42  1  0
 13 43  1  0
 16 44  1  0
 17 45  1  0
 18 46  1  0
 19 47  1  0
 20 48  1  0
 22 49  1  0
 23 50  1  0
 25 51  1  0
 28 52  1  0
 29 53  1  0
M  END
>  <smiles>  (26) 
O=C(NCC(=O)N1CC[C@H](O)[C@H]1COc1ccccc1)c1ccc2cc(Cl)ccc2n1

>  <score_type>  (26) 
oracle

>  <origin>  (26) 
autodockgpu

>  <m_score__min__energy>  (26) 
-8.7100000000000009

>  <m_primary>  (26) 
energy

>  <rmsd>  (26) 
3.063312963045267

>  <m_score__min__rmsd>  (26) 
3.063312963045267

>  <meeko>  (26) 
{"free_energy": -6.36, "intermolecular_energy": -8.75, "internal_energy": -3.12, "cluster_size": 4, "cluster_id": 4, "rank_in_cluster": 4}

>  <energy>  (26) 
-7.39

>  <cluster_rmsd>  (26) 
1.91

>  <cluster>  (26) 
2

$$$$

     RDKit          3D

 53 56  0  0  0  0  0  0  0  0999 V2000
  139.7910   74.0860  222.2220 O   0  0  0  0  0  0  0  0  0  0  0  0
  140.3210   72.9410  222.1200 C   0  0  0  0  0  0  0  0  0  0  0  0
  140.9980   72.6000  220.9050 N   0  0  0  0  0  0  0  0  0  0  0  0
  141.0430   73.5760  219.8580 C   0  0  0  0  0  0  0  0  0  0  0  0
  141.8920   74.7440  220.2160 C   0  0  0  0  0  0  0  0  0  0  0  0
  143.0150   74.5560  220.7720 O   0  0  0  0  0  0  0  0  0  0  0  0
  141.4200   76.0320  219.9270 N   0  0  0  0  0  0  0  0  0  0  0  0
  140.8270   76.5180  218.6930 C   0  0  0  0  0  0  0  0  0  0  0  0
  141.5000   77.8940  218.6150 C   0  0  0  0  0  0  0  0  0  0  0  0
  141.2110   78.4040  220.0080 C   0  0  2  0  0  0  0  0  0  0  0  0
  142.0820   79.4140  220.3930 O   0  0  0  0  0  0  0  0  0  0  0  0
  141.4370   77.1590  220.8410 C   0  0  1  0  0  0  0  0  0  0  0  0
  140.3100   77.0680  221.8500 C   0  0  0  0  0  0  0  0  0  0  0  0
  140.8780   77.5140  223.0860 O   0  0  0  0  0  0  0  0  0  0  0  0
  141.2270   78.8260  223.2720 C   0  0  0  0  0  0  0  0  0  0  0  0
  142.5410   79.2190  223.4480 C   0  0  0  0  0  0  0  0  0  0  0  0
  142.8650   80.5320  223.6330 C   0  0  0  0  0  0  0  0  0  0  0  0
  141.8600   81.4940  223.6450 C   0  0  0  0  0  0  0  0  0  0  0  0
  140.5310   81.0990  223.4670 C   0  0  0  0  0  0  0  0  0  0  0  0
  140.2270   79.7710  223.2840 C   0  0  0  0  0  0  0  0  0  0  0  0
  140.2560   71.9700  223.2110 C   0  0  0  0  0  0  0  0  0  0  0  0
  139.7030   70.7260  222.9420 C   0  0  0  0  0  0  0  0  0  0  0  0
  139.6200   69.7650  223.9490 C   0  0  0  0  0  0  0  0  0  0  0  0
  140.0930   70.0800  225.1990 C   0  0  0  0  0  0  0  0  0  0  0  0
  140.0050   69.1170  226.1960 C   0  0  0  0  0  0  0  0  0  0  0  0
  140.4880   69.4470  227.4560 C   0  0  0  0  0  0  0  0  0  0  0  0
  140.4060   68.2850  228.7460 Cl  0  0  0  0  0  0  0  0  0  0  0  0
  141.0280   70.6830  227.6890 C   0  0  0  0  0  0  0  0  0  0  0  0
  141.1170   71.6430  226.7040 C   0  0  0  0  0  0  0  0  0  0  0  0
  140.6370   71.3170  225.4440 C   0  0  0  0  0  0  0  0  0  0  0  0
  140.7060   72.2270  224.4510 N   0  0  0  0  0  0  0  0  0  0  0  0
  141.4260   71.6480  220.8510 H   0  0  0  0  0  0  0  0  0  0  0  0
  141.4518   73.1051  218.9518 H   0  0  0  0  0  0  0  0  0  0  0  0
  140.0187   73.9409  219.6916 H   0  0  0  0  0  0  0  0  0  0  0  0
  141.0893   75.8834  217.8337 H   0  0  0  0  0  0  0  0  0  0  0  0
  139.7272   76.5325  218.6754 H   0  0  0  0  0  0  0  0  0  0  0  0
  142.5805   77.8103  218.4265 H   0  0  0  0  0  0  0  0  0  0  0  0
  141.1418   78.5405  217.8003 H   0  0  0  0  0  0  0  0  0  0  0  0
  140.2104   78.8503  220.1057 H   0  0  0  0  0  0  0  0  0  0  0  0
  142.8480   79.1240  220.9210 H   0  0  0  0  0  0  0  0  0  0  0  0
  142.3933   77.1747  221.3843 H   0  0  0  0  0  0  0  0  0  0  0  0
  139.4729   77.7171  221.5534 H   0  0  0  0  0  0  0  0  0  0  0  0
  139.9072   76.0473  221.9265 H   0  0  0  0  0  0  0  0  0  0  0  0
  143.3382   78.4611  223.4388 H   0  0  0  0  0  0  0  0  0  0  0  0
  143.9153   80.8280  223.7719 H   0  0  0  0  0  0  0  0  0  0  0  0
  142.1088   82.5552  223.7931 H   0  0  0  0  0  0  0  0  0  0  0  0
  139.7283   81.8510  223.4734 H   0  0  0  0  0  0  0  0  0  0  0  0
  139.1801   79.4626  223.1466 H   0  0  0  0  0  0  0  0  0  0  0  0
  139.3296   70.4976  221.9328 H   0  0  0  0  0  0  0  0  0  0  0  0
  139.1847   68.7753  223.7463 H   0  0  0  0  0  0  0  0  0  0  0  0
  139.5682   68.1277  225.9949 H   0  0  0  0  0  0  0  0  0  0  0  0
  141.4034   70.9180  228.6959 H   0  0  0  0  0  0  0  0  0  0  0  0
  141.5529   72.6318  226.9096 H   0  0  0  0  0  0  0  0  0  0  0  0
  1  2  2  0
  2  3  1  0
  3  4  1  0
  4  5  1  0
  5  6  2  0
  5  7  1  0
  7  8  1  0
  8  9  1  0
  9 10  1  0
 10 11  1  0
 10 12  1  0
 12 13  1  0
 13 14  1  0
 14 15  1  0
 15 16  2  0
 16 17  1  0
 17 18  2  0
 18 19  1  0
 19 20  2  0
  2 21  1  0
 21 22  2  0
 22 23  1  0
 23 24  2  0
 24 25  1  0
 25 26  2  0
 26 27  1  0
 26 28  1  0
 28 29  2  0
 29 30  1  0
 30 31  2  0
 12  7  1  0
 20 15  1  0
 31 21  1  0
 30 24  1  0
  3 32  1  0
  4 33  1  0
  4 34  1  0
  8 35  1  0
  8 36  1  0
  9 37  1  0
  9 38  1  0
 10 39  1  6
 11 40  1  0
 12 41  1  1
 13 42  1  0
 13 43  1  0
 16 44  1  0
 17 45  1  0
 18 46  1  0
 19 47  1  0
 20 48  1  0
 22 49  1  0
 23 50  1  0
 25 51  1  0
 28 52  1  0
 29 53  1  0
M  END
>  <smiles>  (27) 
O=C(NCC(=O)N1CC[C@H](O)[C@H]1COc1ccccc1)c1ccc2cc(Cl)ccc2n1

>  <score_type>  (27) 
oracle

>  <origin>  (27) 
autodockgpu

>  <m_score__min__energy>  (27) 
-8.7100000000000009

>  <m_primary>  (27) 
energy

>  <rmsd>  (27) 
2.7626942879250085

>  <m_score__min__rmsd>  (27) 
2.7626942879250085

>  <meeko>  (27) 
{"free_energy": -8.55, "intermolecular_energy": -10.94, "internal_energy": -1.58, "cluster_size": 22, "cluster_id": 1, "rank_in_cluster": 2}

>  <energy>  (27) 
-6.7

>  <cluster_rmsd>  (27) 
2.0

>  <cluster>  (27) 
2

$$$$

     RDKit          3D

 53 56  0  0  0  0  0  0  0  0999 V2000
  136.4770   71.3810  221.3080 O   0  0  0  0  0  0  0  0  0  0  0  0
  136.8400   71.9070  222.4010 C   0  0  0  0  0  0  0  0  0  0  0  0
  136.6220   73.3090  222.5970 N   0  0  0  0  0  0  0  0  0  0  0  0
  136.0010   74.0520  221.5400 C   0  0  0  0  0  0  0  0  0  0  0  0
  136.9080   74.2300  220.3730 C   0  0  0  0  0  0  0  0  0  0  0  0
  136.4530   74.7130  219.2930 O   0  0  0  0  0  0  0  0  0  0  0  0
  138.2520   73.8550  220.5030 N   0  0  0  0  0  0  0  0  0  0  0  0
  139.0240   72.9670  219.6500 C   0  0  0  0  0  0  0  0  0  0  0  0
  139.8070   72.2030  220.7260 C   0  0  0  0  0  0  0  0  0  0  0  0
  140.3440   73.3650  221.5300 C   0  0  2  0  0  0  0  0  0  0  0  0
  140.6970   72.9960  222.8210 O   0  0  0  0  0  0  0  0  0  0  0  0
  139.1530   74.2990  221.5500 C   0  0  1  0  0  0  0  0  0  0  0  0
  139.6620   75.7010  221.2800 C   0  0  0  0  0  0  0  0  0  0  0  0
  139.0900   76.5100  222.3130 O   0  0  0  0  0  0  0  0  0  0  0  0
  139.6930   77.6730  222.7180 C   0  0  0  0  0  0  0  0  0  0  0  0
  138.9660   78.7820  223.1080 C   0  0  0  0  0  0  0  0  0  0  0  0
  139.5890   79.9290  223.5070 C   0  0  0  0  0  0  0  0  0  0  0  0
  140.9790   79.9880  223.5230 C   0  0  0  0  0  0  0  0  0  0  0  0
  141.7160   78.8680  223.1300 C   0  0  0  0  0  0  0  0  0  0  0  0
  141.0690   77.7220  222.7310 C   0  0  0  0  0  0  0  0  0  0  0  0
  137.4690   71.1180  223.4580 C   0  0  0  0  0  0  0  0  0  0  0  0
  136.8480   69.9410  223.8480 C   0  0  0  0  0  0  0  0  0  0  0  0
  137.4110   69.1520  224.8520 C   0  0  0  0  0  0  0  0  0  0  0  0
  138.5810   69.5690  225.4370 C   0  0  0  0  0  0  0  0  0  0  0  0
  139.1350   68.7780  226.4360 C   0  0  0  0  0  0  0  0  0  0  0  0
  140.3190   69.2100  227.0190 C   0  0  0  0  0  0  0  0  0  0  0  0
  141.0610   68.2640  228.2750 Cl  0  0  0  0  0  0  0  0  0  0  0  0
  140.9070   70.3760  226.6110 C   0  0  0  0  0  0  0  0  0  0  0  0
  140.3630   71.1650  225.6200 C   0  0  0  0  0  0  0  0  0  0  0  0
  139.1810   70.7380  225.0350 C   0  0  0  0  0  0  0  0  0  0  0  0
  138.6140   71.4800  224.0610 N   0  0  0  0  0  0  0  0  0  0  0  0
  136.9300   73.7160  223.5090 H   0  0  0  0  0  0  0  0  0  0  0  0
  135.1000   73.5141  221.2102 H   0  0  0  0  0  0  0  0  0  0  0  0
  135.7500   75.0497  221.9293 H   0  0  0  0  0  0  0  0  0  0  0  0
  138.3781   72.2997  219.0605 H   0  0  0  0  0  0  0  0  0  0  0  0
  139.6399   73.4670  218.8880 H   0  0  0  0  0  0  0  0  0  0  0  0
  139.1507   71.5578  221.3284 H   0  0  0  0  0  0  0  0  0  0  0  0
  140.5713   71.5116  220.3414 H   0  0  0  0  0  0  0  0  0  0  0  0
  141.2620   73.7967  221.1047 H   0  0  0  0  0  0  0  0  0  0  0  0
  139.9760   73.0350  223.4760 H   0  0  0  0  0  0  0  0  0  0  0  0
  138.6233   74.2970  222.5141 H   0  0  0  0  0  0  0  0  0  0  0  0
  140.7605   75.7296  221.3306 H   0  0  0  0  0  0  0  0  0  0  0  0
  139.3828   76.0550  220.2766 H   0  0  0  0  0  0  0  0  0  0  0  0
  137.8669   78.7395  223.0966 H   0  0  0  0  0  0  0  0  0  0  0  0
  138.9951   80.8024  223.8144 H   0  0  0  0  0  0  0  0  0  0  0  0
  141.4925   80.9071  223.8418 H   0  0  0  0  0  0  0  0  0  0  0  0
  142.8154   78.9029  223.1398 H   0  0  0  0  0  0  0  0  0  0  0  0
  141.6522   76.8422  222.4214 H   0  0  0  0  0  0  0  0  0  0  0  0
  135.9102   69.6288  223.3652 H   0  0  0  0  0  0  0  0  0  0  0  0
  136.9276   68.2158  225.1680 H   0  0  0  0  0  0  0  0  0  0  0  0
  138.6524   67.8421  226.7540 H   0  0  0  0  0  0  0  0  0  0  0  0
  141.8449   70.6945  227.0895 H   0  0  0  0  0  0  0  0  0  0  0  0
  140.8494   72.0999  225.3048 H   0  0  0  0  0  0  0  0  0  0  0  0
  1  2  2  0
  2  3  1  0
  3  4  1  0
  4  5  1  0
  5  6  2  0
  5  7  1  0
  7  8  1  0
  8  9  1  0
  9 10  1  0
 10 11  1  0
 10 12  1  0
 12 13  1  0
 13 14  1  0
 14 15  1  0
 15 16  2  0
 16 17  1  0
 17 18  2  0
 18 19  1  0
 19 20  2  0
  2 21  1  0
 21 22  2  0
 22 23  1  0
 23 24  2  0
 24 25  1  0
 25 26  2  0
 26 27  1  0
 26 28  1  0
 28 29  2  0
 29 30  1  0
 30 31  2  0
 12  7  1  0
 20 15  1  0
 31 21  1  0
 30 24  1  0
  3 32  1  0
  4 33  1  0
  4 34  1  0
  8 35  1  0
  8 36  1  0
  9 37  1  0
  9 38  1  0
 10 39  1  6
 11 40  1  0
 12 41  1  1
 13 42  1  0
 13 43  1  0
 16 44  1  0
 17 45  1  0
 18 46  1  0
 19 47  1  0
 20 48  1  0
 22 49  1  0
 23 50  1  0
 25 51  1  0
 28 52  1  0
 29 53  1  0
M  END
>  <smiles>  (28) 
O=C(NCC(=O)N1CC[C@H](O)[C@H]1COc1ccccc1)c1ccc2cc(Cl)ccc2n1

>  <score_type>  (28) 
oracle

>  <origin>  (28) 
autodockgpu

>  <m_score__min__energy>  (28) 
-8.7100000000000009

>  <m_primary>  (28) 
energy

>  <rmsd>  (28) 
3.315953331020768

>  <m_score__min__rmsd>  (28) 
3.315953331020768

>  <meeko>  (28) 
{"free_energy": -7.08, "intermolecular_energy": -9.47, "internal_energy": -2.62, "cluster_size": 22, "cluster_id": 1, "rank_in_cluster": 22}

>  <energy>  (28) 
-7.79

>  <cluster_rmsd>  (28) 
0.0

>  <cluster>  (28) 
3

$$$$

     RDKit          3D

 53 56  0  0  0  0  0  0  0  0999 V2000
  139.3250   72.2960  220.3870 O   0  0  0  0  0  0  0  0  0  0  0  0
  139.7760   72.7040  221.4970 C   0  0  0  0  0  0  0  0  0  0  0  0
  140.2360   74.0560  221.5990 N   0  0  0  0  0  0  0  0  0  0  0  0
  140.1640   74.8860  220.4330 C   0  0  0  0  0  0  0  0  0  0  0  0
  140.9690   76.1280  220.5790 C   0  0  0  0  0  0  0  0  0  0  0  0
  141.4380   76.4430  221.7140 O   0  0  0  0  0  0  0  0  0  0  0  0
  141.1870   76.9260  219.4460 N   0  0  0  0  0  0  0  0  0  0  0  0
  141.2360   76.5150  218.0530 C   0  0  0  0  0  0  0  0  0  0  0  0
  142.4140   77.3740  217.5790 C   0  0  0  0  0  0  0  0  0  0  0  0
  141.9790   78.7240  218.1010 C   0  0  2  0  0  0  0  0  0  0  0  0
  143.0420   79.6060  218.2380 O   0  0  0  0  0  0  0  0  0  0  0  0
  141.4120   78.3580  219.4570 C   0  0  1  0  0  0  0  0  0  0  0  0
  140.1130   79.1190  219.6340 C   0  0  0  0  0  0  0  0  0  0  0  0
  140.4470   80.2390  220.4610 O   0  0  0  0  0  0  0  0  0  0  0  0
  141.0570   80.0670  221.6760 C   0  0  0  0  0  0  0  0  0  0  0  0
  142.2710   80.6540  221.9800 C   0  0  0  0  0  0  0  0  0  0  0  0
  142.8590   80.4680  223.1970 C   0  0  0  0  0  0  0  0  0  0  0  0
  142.2310   79.6730  224.1510 C   0  0  0  0  0  0  0  0  0  0  0  0
  141.0050   79.0780  223.8460 C   0  0  0  0  0  0  0  0  0  0  0  0
  140.4290   79.2790  222.6140 C   0  0  0  0  0  0  0  0  0  0  0  0
  139.8340   71.8290  222.6670 C   0  0  0  0  0  0  0  0  0  0  0  0
  139.2730   70.5650  222.5610 C   0  0  0  0  0  0  0  0  0  0  0  0
  139.3040   69.6930  223.6500 C   0  0  0  0  0  0  0  0  0  0  0  0
  139.8970   70.1150  224.8140 C   0  0  0  0  0  0  0  0  0  0  0  0
  139.9230   69.2400  225.8930 C   0  0  0  0  0  0  0  0  0  0  0  0
  140.5260   69.6800  227.0640 C   0  0  0  0  0  0  0  0  0  0  0  0
  140.5910   68.6320  228.4500 Cl  0  0  0  0  0  0  0  0  0  0  0  0
  141.0710   70.9330  227.1360 C   0  0  0  0  0  0  0  0  0  0  0  0
  141.0480   71.8050  226.0690 C   0  0  0  0  0  0  0  0  0  0  0  0
  140.4470   71.3720  224.8970 C   0  0  0  0  0  0  0  0  0  0  0  0
  140.4030   72.1930  223.8280 N   0  0  0  0  0  0  0  0  0  0  0  0
  140.6020   74.3650  222.5280 H   0  0  0  0  0  0  0  0  0  0  0  0
  140.5415   74.3182  219.5698 H   0  0  0  0  0  0  0  0  0  0  0  0
  139.1133   75.1785  220.2902 H   0  0  0  0  0  0  0  0  0  0  0  0
  141.4438   75.4398  217.9491 H   0  0  0  0  0  0  0  0  0  0  0  0
  140.3004   76.6510  217.4908 H   0  0  0  0  0  0  0  0  0  0  0  0
  143.3637   77.0488  218.0287 H   0  0  0  0  0  0  0  0  0  0  0  0
  142.6102   77.3361  216.4973 H   0  0  0  0  0  0  0  0  0  0  0  0
  141.2765   79.2405  217.4303 H   0  0  0  0  0  0  0  0  0  0  0  0
  143.6590   79.6350  217.4840 H   0  0  0  0  0  0  0  0  0  0  0  0
  142.0858   78.6160  220.2874 H   0  0  0  0  0  0  0  0  0  0  0  0
  139.7285   79.4585  218.6609 H   0  0  0  0  0  0  0  0  0  0  0  0
  139.3272   78.4943  220.0836 H   0  0  0  0  0  0  0  0  0  0  0  0
  142.7715   81.2817  221.2280 H   0  0  0  0  0  0  0  0  0  0  0  0
  143.8246   80.9440  223.4230 H   0  0  0  0  0  0  0  0  0  0  0  0
  142.6956   79.5148  225.1354 H   0  0  0  0  0  0  0  0  0  0  0  0
  140.4995   78.4477  224.5925 H   0  0  0  0  0  0  0  0  0  0  0  0
  139.4633   78.8087  222.3770 H   0  0  0  0  0  0  0  0  0  0  0  0
  138.8032   70.2496  221.6177 H   0  0  0  0  0  0  0  0  0  0  0  0
  138.8624   68.6882  223.5772 H   0  0  0  0  0  0  0  0  0  0  0  0
  139.4818   68.2349  225.8222 H   0  0  0  0  0  0  0  0  0  0  0  0
  141.5428   71.2548  228.0761 H   0  0  0  0  0  0  0  0  0  0  0  0
  141.4908   72.8091  226.1446 H   0  0  0  0  0  0  0  0  0  0  0  0
  1  2  2  0
  2  3  1  0
  3  4  1  0
  4  5  1  0
  5  6  2  0
  5  7  1  0
  7  8  1  0
  8  9  1  0
  9 10  1  0
 10 11  1  0
 10 12  1  0
 12 13  1  0
 13 14  1  0
 14 15  1  0
 15 16  2  0
 16 17  1  0
 17 18  2  0
 18 19  1  0
 19 20  2  0
  2 21  1  0
 21 22  2  0
 22 23  1  0
 23 24  2  0
 24 25  1  0
 25 26  2  0
 26 27  1  0
 26 28  1  0
 28 29  2  0
 29 30  1  0
 30 31  2  0
 12  7  1  0
 20 15  1  0
 31 21  1  0
 30 24  1  0
  3 32  1  0
  4 33  1  0
  4 34  1  0
  8 35  1  0
  8 36  1  0
  9 37  1  0
  9 38  1  0
 10 39  1  6
 11 40  1  0
 12 41  1  1
 13 42  1  0
 13 43  1  0
 16 44  1  0
 17 45  1  0
 18 46  1  0
 19 47  1  0
 20 48  1  0
 22 49  1  0
 23 50  1  0
 25 51  1  0
 28 52  1  0
 29 53  1  0
M  END
>  <smiles>  (29) 
O=C(NCC(=O)N1CC[C@H](O)[C@H]1COc1ccccc1)c1ccc2cc(Cl)ccc2n1

>  <score_type>  (29) 
oracle

>  <origin>  (29) 
autodockgpu

>  <m_score__min__energy>  (29) 
-8.7100000000000009

>  <m_primary>  (29) 
energy

>  <rmsd>  (29) 
2.307477919824624

>  <m_score__min__rmsd>  (29) 
2.307477919824624

>  <meeko>  (29) 
{"free_energy": -7.74, "intermolecular_energy": -10.13, "internal_energy": -2.1, "cluster_size": 22, "cluster_id": 1, "rank_in_cluster": 16}

>  <energy>  (29) 
-7.72

>  <cluster_rmsd>  (29) 
0.0

>  <cluster>  (29) 
4

$$$$

     RDKit          3D

 53 56  0  0  0  0  0  0  0  0999 V2000
  139.6340   73.9840  222.0680 O   0  0  0  0  0  0  0  0  0  0  0  0
  140.2660   72.8870  222.0300 C   0  0  0  0  0  0  0  0  0  0  0  0
  141.0420   72.5790  220.8680 N   0  0  0  0  0  0  0  0  0  0  0  0
  141.0670   73.5310  219.7970 C   0  0  0  0  0  0  0  0  0  0  0  0
  141.9600   74.6840  220.0940 C   0  0  0  0  0  0  0  0  0  0  0  0
  143.1320   74.4750  220.5280 O   0  0  0  0  0  0  0  0  0  0  0  0
  141.4730   75.9820  219.8830 N   0  0  0  0  0  0  0  0  0  0  0  0
  140.8690   76.5330  218.6820 C   0  0  0  0  0  0  0  0  0  0  0  0
  141.5270   77.9180  218.6810 C   0  0  0  0  0  0  0  0  0  0  0  0
  141.2410   78.3420  220.1030 C   0  0  2  0  0  0  0  0  0  0  0  0
  142.1040   79.3370  220.5420 O   0  0  0  0  0  0  0  0  0  0  0  0
  141.4850   77.0530  220.8600 C   0  0  1  0  0  0  0  0  0  0  0  0
  140.3640   76.8920  221.8680 C   0  0  0  0  0  0  0  0  0  0  0  0
  140.9070   77.3600  223.1080 O   0  0  0  0  0  0  0  0  0  0  0  0
  141.2330   78.6790  223.2860 C   0  0  0  0  0  0  0  0  0  0  0  0
  142.5410   79.1000  223.4360 C   0  0  0  0  0  0  0  0  0  0  0  0
  142.8410   80.4190  223.6130 C   0  0  0  0  0  0  0  0  0  0  0  0
  141.8170   81.3610  223.6420 C   0  0  0  0  0  0  0  0  0  0  0  0
  140.4940   80.9380  223.4890 C   0  0  0  0  0  0  0  0  0  0  0  0
  140.2130   79.6040  223.3140 C   0  0  0  0  0  0  0  0  0  0  0  0
  140.2170   71.9400  223.1420 C   0  0  0  0  0  0  0  0  0  0  0  0
  139.6590   70.6920  222.9080 C   0  0  0  0  0  0  0  0  0  0  0  0
  139.5920   69.7520  223.9370 C   0  0  0  0  0  0  0  0  0  0  0  0
  140.0850   70.0930  225.1720 C   0  0  0  0  0  0  0  0  0  0  0  0
  140.0130   69.1510  226.1910 C   0  0  0  0  0  0  0  0  0  0  0  0
  140.5170   69.5080  227.4350 C   0  0  0  0  0  0  0  0  0  0  0  0
  140.4550   68.3740  228.7520 Cl  0  0  0  0  0  0  0  0  0  0  0  0
  141.0620   70.7480  227.6340 C   0  0  0  0  0  0  0  0  0  0  0  0
  141.1350   71.6860  226.6270 C   0  0  0  0  0  0  0  0  0  0  0  0
  140.6340   71.3350  225.3830 C   0  0  0  0  0  0  0  0  0  0  0  0
  140.6880   72.2230  224.3690 N   0  0  0  0  0  0  0  0  0  0  0  0
  141.5530   71.6670  220.8650 H   0  0  0  0  0  0  0  0  0  0  0  0
  141.4254   73.0302  218.8855 H   0  0  0  0  0  0  0  0  0  0  0  0
  140.0461   73.9185  219.6641 H   0  0  0  0  0  0  0  0  0  0  0  0
  141.1335   75.9523  217.7860 H   0  0  0  0  0  0  0  0  0  0  0  0
  139.7691   76.5370  218.6704 H   0  0  0  0  0  0  0  0  0  0  0  0
  142.6071   77.8572  218.4820 H   0  0  0  0  0  0  0  0  0  0  0  0
  141.1573   78.6073  217.9075 H   0  0  0  0  0  0  0  0  0  0  0  0
  140.2363   78.7709  220.2322 H   0  0  0  0  0  0  0  0  0  0  0  0
  142.9390   79.0210  220.9330 H   0  0  0  0  0  0  0  0  0  0  0  0
  142.4448   77.0466  221.3974 H   0  0  0  0  0  0  0  0  0  0  0  0
  139.4922   77.4959  221.5758 H   0  0  0  0  0  0  0  0  0  0  0  0
  140.0181   75.8501  221.9367 H   0  0  0  0  0  0  0  0  0  0  0  0
  143.3537   78.3590  223.4123 H   0  0  0  0  0  0  0  0  0  0  0  0
  143.8874   80.7365  223.7323 H   0  0  0  0  0  0  0  0  0  0  0  0
  142.0467   82.4274  223.7839 H   0  0  0  0  0  0  0  0  0  0  0  0
  139.6764   81.6736  223.5086 H   0  0  0  0  0  0  0  0  0  0  0  0
  139.1703   79.2742  223.1959 H   0  0  0  0  0  0  0  0  0  0  0  0
  139.2688   70.4430  221.9101 H   0  0  0  0  0  0  0  0  0  0  0  0
  139.1533   68.7585  223.7623 H   0  0  0  0  0  0  0  0  0  0  0  0
  139.5725   68.1579  226.0185 H   0  0  0  0  0  0  0  0  0  0  0  0
  141.4541   71.0038  228.6294 H   0  0  0  0  0  0  0  0  0  0  0  0
  141.5753   72.6783  226.8041 H   0  0  0  0  0  0  0  0  0  0  0  0
  1  2  2  0
  2  3  1  0
  3  4  1  0
  4  5  1  0
  5  6  2  0
  5  7  1  0
  7  8  1  0
  8  9  1  0
  9 10  1  0
 10 11  1  0
 10 12  1  0
 12 13  1  0
 13 14  1  0
 14 15  1  0
 15 16  2  0
 16 17  1  0
 17 18  2  0
 18 19  1  0
 19 20  2  0
  2 21  1  0
 21 22  2  0
 22 23  1  0
 23 24  2  0
 24 25  1  0
 25 26  2  0
 26 27  1  0
 26 28  1  0
 28 29  2  0
 29 30  1  0
 30 31  2  0
 12  7  1  0
 20 15  1  0
 31 21  1  0
 30 24  1  0
  3 32  1  0
  4 33  1  0
  4 34  1  0
  8 35  1  0
  8 36  1  0
  9 37  1  0
  9 38  1  0
 10 39  1  6
 11 40  1  0
 12 41  1  1
 13 42  1  0
 13 43  1  0
 16 44  1  0
 17 45  1  0
 18 46  1  0
 19 47  1  0
 20 48  1  0
 22 49  1  0
 23 50  1  0
 25 51  1  0
 28 52  1  0
 29 53  1  0
M  END
>  <smiles>  (30) 
O=C(NCC(=O)N1CC[C@H](O)[C@H]1COc1ccccc1)c1ccc2cc(Cl)ccc2n1

>  <score_type>  (30) 
oracle

>  <origin>  (30) 
autodockgpu

>  <m_score__min__energy>  (30) 
-8.7100000000000009

>  <m_primary>  (30) 
energy

>  <rmsd>  (30) 
2.781939391031514

>  <m_score__min__rmsd>  (30) 
2.781939391031514

>  <meeko>  (30) 
{"free_energy": -8.52, "intermolecular_energy": -10.91, "internal_energy": -1.53, "cluster_size": 22, "cluster_id": 1, "rank_in_cluster": 3}

>  <energy>  (30) 
-7.71

>  <cluster_rmsd>  (30) 
0.4

>  <cluster>  (30) 
4

$$$$

     RDKit          3D

 53 56  0  0  0  0  0  0  0  0999 V2000
  136.9600   71.1290  221.2650 O   0  0  0  0  0  0  0  0  0  0  0  0
  137.6640   71.7060  222.1440 C   0  0  0  0  0  0  0  0  0  0  0  0
  137.9380   73.1040  222.0000 N   0  0  0  0  0  0  0  0  0  0  0  0
  137.3980   73.7860  220.8620 C   0  0  0  0  0  0  0  0  0  0  0  0
  138.1330   75.0450  220.5620 C   0  0  0  0  0  0  0  0  0  0  0  0
  138.5830   75.2470  219.3950 O   0  0  0  0  0  0  0  0  0  0  0  0
  138.3080   75.9820  221.5910 N   0  0  0  0  0  0  0  0  0  0  0  0
  137.4170   76.2780  222.7000 C   0  0  0  0  0  0  0  0  0  0  0  0
  137.5440   77.8060  222.7240 C   0  0  0  0  0  0  0  0  0  0  0  0
  139.0500   77.9420  222.7230 C   0  0  2  0  0  0  0  0  0  0  0  0
  139.4680   79.1870  222.2740 O   0  0  0  0  0  0  0  0  0  0  0  0
  139.4520   76.8600  221.7420 C   0  0  1  0  0  0  0  0  0  0  0  0
  140.6390   76.1230  222.3310 C   0  0  0  0  0  0  0  0  0  0  0  0
  140.2950   74.7360  222.2480 O   0  0  0  0  0  0  0  0  0  0  0  0
  141.1200   73.8370  221.6260 C   0  0  0  0  0  0  0  0  0  0  0  0
  140.9640   72.4710  221.7700 C   0  0  0  0  0  0  0  0  0  0  0  0
  141.7990   71.5950  221.1400 C   0  0  0  0  0  0  0  0  0  0  0  0
  142.8270   72.0790  220.3370 C   0  0  0  0  0  0  0  0  0  0  0  0
  142.9870   73.4590  220.1890 C   0  0  0  0  0  0  0  0  0  0  0  0
  142.1350   74.3250  220.8330 C   0  0  0  0  0  0  0  0  0  0  0  0
  138.1980   70.9780  223.2940 C   0  0  0  0  0  0  0  0  0  0  0  0
  137.7340   69.6910  223.5210 C   0  0  0  0  0  0  0  0  0  0  0  0
  138.2140   68.9550  224.6050 C   0  0  0  0  0  0  0  0  0  0  0  0
  139.1470   69.5330  225.4310 C   0  0  0  0  0  0  0  0  0  0  0  0
  139.6190   68.7940  226.5080 C   0  0  0  0  0  0  0  0  0  0  0  0
  140.5620   69.3890  227.3340 C   0  0  0  0  0  0  0  0  0  0  0  0
  141.1920   68.5160  228.6990 Cl  0  0  0  0  0  0  0  0  0  0  0  0
  141.0010   70.6610  227.0830 C   0  0  0  0  0  0  0  0  0  0  0  0
  140.5360   71.4000  226.0160 C   0  0  0  0  0  0  0  0  0  0  0  0
  139.5940   70.8100  225.1870 C   0  0  0  0  0  0  0  0  0  0  0  0
  139.1120   71.4970  224.1310 N   0  0  0  0  0  0  0  0  0  0  0  0
  138.5220   73.5530  222.7420 H   0  0  0  0  0  0  0  0  0  0  0  0
  137.4612   73.1216  219.9876 H   0  0  0  0  0  0  0  0  0  0  0  0
  136.3544   74.0493  221.0891 H   0  0  0  0  0  0  0  0  0  0  0  0
  136.3856   75.9549  222.4955 H   0  0  0  0  0  0  0  0  0  0  0  0
  137.6618   75.7724  223.6458 H   0  0  0  0  0  0  0  0  0  0  0  0
  137.0915   78.2677  221.8340 H   0  0  0  0  0  0  0  0  0  0  0  0
  137.0338   78.3011  223.5634 H   0  0  0  0  0  0  0  0  0  0  0  0
  139.4934   77.8462  223.7251 H   0  0  0  0  0  0  0  0  0  0  0  0
  139.7800   79.2140  221.3520 H   0  0  0  0  0  0  0  0  0  0  0  0
  139.7388   77.2585  220.7577 H   0  0  0  0  0  0  0  0  0  0  0  0
  141.5496   76.3305  221.7498 H   0  0  0  0  0  0  0  0  0  0  0  0
  140.8463   76.4352  223.3652 H   0  0  0  0  0  0  0  0  0  0  0  0
  140.1525   72.0836  222.4036 H   0  0  0  0  0  0  0  0  0  0  0  0
  141.6601   70.5111  221.2663 H   0  0  0  0  0  0  0  0  0  0  0  0
  143.5066   71.3825  219.8241 H   0  0  0  0  0  0  0  0  0  0  0  0
  143.7958   73.8533  219.5563 H   0  0  0  0  0  0  0  0  0  0  0  0
  142.2644   75.4109  220.7145 H   0  0  0  0  0  0  0  0  0  0  0  0
  136.9864   69.2497  222.8455 H   0  0  0  0  0  0  0  0  0  0  0  0
  137.8528   67.9333  224.7941 H   0  0  0  0  0  0  0  0  0  0  0  0
  139.2580   67.7727  226.6995 H   0  0  0  0  0  0  0  0  0  0  0  0
  141.7490   71.1080  227.7543 H   0  0  0  0  0  0  0  0  0  0  0  0
  140.8993   72.4213  225.8290 H   0  0  0  0  0  0  0  0  0  0  0  0
  1  2  2  0
  2  3  1  0
  3  4  1  0
  4  5  1  0
  5  6  2  0
  5  7  1  0
  7  8  1  0
  8  9  1  0
  9 10  1  0
 10 11  1  0
 10 12  1  0
 12 13  1  0
 13 14  1  0
 14 15  1  0
 15 16  2  0
 16 17  1  0
 17 18  2  0
 18 19  1  0
 19 20  2  0
  2 21  1  0
 21 22  2  0
 22 23  1  0
 23 24  2  0
 24 25  1  0
 25 26  2  0
 26 27  1  0
 26 28  1  0
 28 29  2  0
 29 30  1  0
 30 31  2  0
 12  7  1  0
 20 15  1  0
 31 21  1  0
 30 24  1  0
  3 32  1  0
  4 33  1  0
  4 34  1  0
  8 35  1  0
  8 36  1  0
  9 37  1  0
  9 38  1  0
 10 39  1  1
 11 40  1  0
 12 41  1  6
 13 42  1  0
 13 43  1  0
 16 44  1  0
 17 45  1  0
 18 46  1  0
 19 47  1  0
 20 48  1  0
 22 49  1  0
 23 50  1  0
 25 51  1  0
 28 52  1  0
 29 53  1  0
M  END
>  <smiles>  (31) 
O=C(NCC(=O)N1CC[C@H](O)[C@H]1COc1ccccc1)c1ccc2cc(Cl)ccc2n1

>  <score_type>  (31) 
oracle

>  <origin>  (31) 
autodockgpu

>  <m_score__min__energy>  (31) 
-8.7100000000000009

>  <m_primary>  (31) 
energy

>  <rmsd>  (31) 
3.3606250032280984

>  <m_score__min__rmsd>  (31) 
3.3606250032280984

>  <meeko>  (31) 
{"free_energy": -6.54, "intermolecular_energy": -8.92, "internal_energy": -3.07, "cluster_size": 4, "cluster_id": 4, "rank_in_cluster": 3}

>  <energy>  (31) 
-6.54

>  <cluster_rmsd>  (31) 
1.68

>  <cluster>  (31) 
4

$$$$

     RDKit          3D

 53 56  0  0  0  0  0  0  0  0999 V2000
  139.7460   71.8970  220.9250 O   0  0  0  0  0  0  0  0  0  0  0  0
  139.7240   72.3300  222.1140 C   0  0  0  0  0  0  0  0  0  0  0  0
  139.5690   73.7360  222.3340 N   0  0  0  0  0  0  0  0  0  0  0  0
  139.4440   74.5900  221.1900 C   0  0  0  0  0  0  0  0  0  0  0  0
  140.5110   75.6260  221.1450 C   0  0  0  0  0  0  0  0  0  0  0  0
  141.0520   76.0170  222.2230 O   0  0  0  0  0  0  0  0  0  0  0  0
  140.8920   76.1470  219.9000 N   0  0  0  0  0  0  0  0  0  0  0  0
  140.8130   75.5100  218.5970 C   0  0  0  0  0  0  0  0  0  0  0  0
  142.1540   75.9680  218.0110 C   0  0  0  0  0  0  0  0  0  0  0  0
  142.0660   77.4510  218.2910 C   0  0  2  0  0  0  0  0  0  0  0  0
  143.3130   78.0620  218.3010 O   0  0  0  0  0  0  0  0  0  0  0  0
  141.4550   77.4640  219.6760 C   0  0  1  0  0  0  0  0  0  0  0  0
  140.3810   78.5340  219.6960 C   0  0  0  0  0  0  0  0  0  0  0  0
  141.0090   79.6830  220.2730 O   0  0  0  0  0  0  0  0  0  0  0  0
  141.4000   79.6930  221.5860 C   0  0  0  0  0  0  0  0  0  0  0  0
  140.7130   78.9990  222.5640 C   0  0  0  0  0  0  0  0  0  0  0  0
  141.1220   79.0250  223.8660 C   0  0  0  0  0  0  0  0  0  0  0  0
  142.2490   79.7590  224.2200 C   0  0  0  0  0  0  0  0  0  0  0  0
  142.9460   80.4610  223.2330 C   0  0  0  0  0  0  0  0  0  0  0  0
  142.5170   80.4230  221.9270 C   0  0  0  0  0  0  0  0  0  0  0  0
  139.8530   71.4280  223.2580 C   0  0  0  0  0  0  0  0  0  0  0  0
  139.4600   70.1090  223.0930 C   0  0  0  0  0  0  0  0  0  0  0  0
  139.5650   69.2100  224.1550 C   0  0  0  0  0  0  0  0  0  0  0  0
  140.0610   69.6620  225.3530 C   0  0  0  0  0  0  0  0  0  0  0  0
  140.1610   68.7600  226.4050 C   0  0  0  0  0  0  0  0  0  0  0  0
  140.6660   69.2300  227.6100 C   0  0  0  0  0  0  0  0  0  0  0  0
  140.8160   68.1500  228.9650 Cl  0  0  0  0  0  0  0  0  0  0  0  0
  141.0460   70.5380  227.7410 C   0  0  0  0  0  0  0  0  0  0  0  0
  140.9480   71.4370  226.7010 C   0  0  0  0  0  0  0  0  0  0  0  0
  140.4450   70.9730  225.4950 C   0  0  0  0  0  0  0  0  0  0  0  0
  140.3340   71.8200  224.4500 N   0  0  0  0  0  0  0  0  0  0  0  0
  139.5540   74.0640  223.3260 H   0  0  0  0  0  0  0  0  0  0  0  0
  139.5080   73.9753  220.2800 H   0  0  0  0  0  0  0  0  0  0  0  0
  138.4745   75.1053  221.2566 H   0  0  0  0  0  0  0  0  0  0  0  0
  140.7533   74.4147  218.6785 H   0  0  0  0  0  0  0  0  0  0  0  0
  139.9269   75.7720  218.0002 H   0  0  0  0  0  0  0  0  0  0  0  0
  143.0063   75.5040  218.5290 H   0  0  0  0  0  0  0  0  0  0  0  0
  142.3145   75.7032  216.9555 H   0  0  0  0  0  0  0  0  0  0  0  0
  141.4946   78.0015  217.5291 H   0  0  0  0  0  0  0  0  0  0  0  0
  143.6980   78.2070  219.1840 H   0  0  0  0  0  0  0  0  0  0  0  0
  142.1875   77.6873  220.4656 H   0  0  0  0  0  0  0  0  0  0  0  0
  140.0366   78.7543  218.6748 H   0  0  0  0  0  0  0  0  0  0  0  0
  139.4957   78.2182  220.2674 H   0  0  0  0  0  0  0  0  0  0  0  0
  139.8218   78.4160  222.2886 H   0  0  0  0  0  0  0  0  0  0  0  0
  140.5626   78.4678  224.6319 H   0  0  0  0  0  0  0  0  0  0  0  0
  142.5882   79.7867  225.2660 H   0  0  0  0  0  0  0  0  0  0  0  0
  143.8390   81.0447  223.5011 H   0  0  0  0  0  0  0  0  0  0  0  0
  143.0675   80.9772  221.1525 H   0  0  0  0  0  0  0  0  0  0  0  0
  139.0649   69.7706  222.1238 H   0  0  0  0  0  0  0  0  0  0  0  0
  139.2568   68.1609  224.0350 H   0  0  0  0  0  0  0  0  0  0  0  0
  139.8512   67.7111  226.2875 H   0  0  0  0  0  0  0  0  0  0  0  0
  141.4424   70.8830  228.7074 H   0  0  0  0  0  0  0  0  0  0  0  0
  141.2578   72.4854  226.8233 H   0  0  0  0  0  0  0  0  0  0  0  0
  1  2  2  0
  2  3  1  0
  3  4  1  0
  4  5  1  0
  5  6  2  0
  5  7  1  0
  7  8  1  0
  8  9  1  0
  9 10  1  0
 10 11  1  0
 10 12  1  0
 12 13  1  0
 13 14  1  0
 14 15  1  0
 15 16  2  0
 16 17  1  0
 17 18  2  0
 18 19  1  0
 19 20  2  0
  2 21  1  0
 21 22  2  0
 22 23  1  0
 23 24  2  0
 24 25  1  0
 25 26  2  0
 26 27  1  0
 26 28  1  0
 28 29  2  0
 29 30  1  0
 30 31  2  0
 12  7  1  0
 20 15  1  0
 31 21  1  0
 30 24  1  0
  3 32  1  0
  4 33  1  0
  4 34  1  0
  8 35  1  0
  8 36  1  0
  9 37  1  0
  9 38  1  0
 10 39  1  6
 11 40  1  0
 12 41  1  1
 13 42  1  0
 13 43  1  0
 16 44  1  0
 17 45  1  0
 18 46  1  0
 19 47  1  0
 20 48  1  0
 22 49  1  0
 23 50  1  0
 25 51  1  0
 28 52  1  0
 29 53  1  0
M  END
>  <smiles>  (32) 
O=C(NCC(=O)N1CC[C@H](O)[C@H]1COc1ccccc1)c1ccc2cc(Cl)ccc2n1

>  <score_type>  (32) 
oracle

>  <origin>  (32) 
autodockgpu

>  <m_score__min__energy>  (32) 
-8.7100000000000009

>  <m_primary>  (32) 
energy

>  <rmsd>  (32) 
1.7713913616167636

>  <m_score__min__rmsd>  (32) 
1.7713913616167636

>  <meeko>  (32) 
{"free_energy": -8.23, "intermolecular_energy": -10.62, "internal_energy": -1.78, "cluster_size": 22, "cluster_id": 1, "rank_in_cluster": 8}

>  <energy>  (32) 
-6.36

>  <cluster_rmsd>  (32) 
1.81

>  <cluster>  (32) 
4

$$$$

     RDKit          3D

 53 56  0  0  0  0  0  0  0  0999 V2000
  140.5170   72.2870  221.0800 O   0  0  0  0  0  0  0  0  0  0  0  0
  139.8170   72.4350  222.1240 C   0  0  0  0  0  0  0  0  0  0  0  0
  138.8970   73.5300  222.1870 N   0  0  0  0  0  0  0  0  0  0  0  0
  138.8140   74.4110  221.0590 C   0  0  0  0  0  0  0  0  0  0  0  0
  139.7360   75.5720  221.1860 C   0  0  0  0  0  0  0  0  0  0  0  0
  139.6130   76.3680  222.1650 O   0  0  0  0  0  0  0  0  0  0  0  0
  140.7240   75.7550  220.2090 N   0  0  0  0  0  0  0  0  0  0  0  0
  140.8680   75.0710  218.9350 C   0  0  0  0  0  0  0  0  0  0  0  0
  142.3890   74.8760  218.9240 C   0  0  0  0  0  0  0  0  0  0  0  0
  142.8340   76.2860  219.2390 C   0  0  2  0  0  0  0  0  0  0  0  0
  144.1230   76.3320  219.7540 O   0  0  0  0  0  0  0  0  0  0  0  0
  141.8260   76.6950  220.2920 C   0  0  1  0  0  0  0  0  0  0  0  0
  141.3720   78.1060  219.9720 C   0  0  0  0  0  0  0  0  0  0  0  0
  140.6240   78.5270  221.1180 O   0  0  0  0  0  0  0  0  0  0  0  0
  141.1740   79.3600  222.0560 C   0  0  0  0  0  0  0  0  0  0  0  0
  140.3980   80.1060  222.9240 C   0  0  0  0  0  0  0  0  0  0  0  0
  140.9690   80.9300  223.8500 C   0  0  0  0  0  0  0  0  0  0  0  0
  142.3550   81.0240  223.9270 C   0  0  0  0  0  0  0  0  0  0  0  0
  143.1420   80.2710  223.0510 C   0  0  0  0  0  0  0  0  0  0  0  0
  142.5470   79.4480  222.1250 C   0  0  0  0  0  0  0  0  0  0  0  0
  139.9270   71.5160  223.2550 C   0  0  0  0  0  0  0  0  0  0  0  0
  139.4880   70.2120  223.0790 C   0  0  0  0  0  0  0  0  0  0  0  0
  139.5740   69.2980  224.1290 C   0  0  0  0  0  0  0  0  0  0  0  0
  140.0970   69.7180  225.3270 C   0  0  0  0  0  0  0  0  0  0  0  0
  140.1790   68.8010  226.3670 C   0  0  0  0  0  0  0  0  0  0  0  0
  140.7110   69.2390  227.5720 C   0  0  0  0  0  0  0  0  0  0  0  0
  140.8390   68.1390  228.9120 Cl  0  0  0  0  0  0  0  0  0  0  0  0
  141.1370   70.5320  227.7140 C   0  0  0  0  0  0  0  0  0  0  0  0
  141.0580   71.4470  226.6850 C   0  0  0  0  0  0  0  0  0  0  0  0
  140.5280   71.0140  225.4800 C   0  0  0  0  0  0  0  0  0  0  0  0
  140.4330   71.8760  224.4470 N   0  0  0  0  0  0  0  0  0  0  0  0
  138.3320   73.6270  223.0600 H   0  0  0  0  0  0  0  0  0  0  0  0
  139.0747   73.8489  220.1501 H   0  0  0  0  0  0  0  0  0  0  0  0
  137.7860   74.7991  221.0075 H   0  0  0  0  0  0  0  0  0  0  0  0
  140.3310   74.1111  218.9214 H   0  0  0  0  0  0  0  0  0  0  0  0
  140.4581   75.6071  218.0664 H   0  0  0  0  0  0  0  0  0  0  0  0
  142.7152   74.1626  219.6952 H   0  0  0  0  0  0  0  0  0  0  0  0
  142.7968   74.4577  217.9919 H   0  0  0  0  0  0  0  0  0  0  0  0
  142.8671   76.9364  218.3525 H   0  0  0  0  0  0  0  0  0  0  0  0
  144.3270   77.1160  220.2950 H   0  0  0  0  0  0  0  0  0  0  0  0
  142.2415   76.6818  221.3104 H   0  0  0  0  0  0  0  0  0  0  0  0
  142.2392   78.7640  219.8140 H   0  0  0  0  0  0  0  0  0  0  0  0
  140.7720   78.1466  219.0510 H   0  0  0  0  0  0  0  0  0  0  0  0
  139.3018   80.0341  222.8671 H   0  0  0  0  0  0  0  0  0  0  0  0
  140.3365   81.5170  224.5322 H   0  0  0  0  0  0  0  0  0  0  0  0
  142.8267   81.6842  224.6697 H   0  0  0  0  0  0  0  0  0  0  0  0
  144.2388   80.3372  223.1028 H   0  0  0  0  0  0  0  0  0  0  0  0
  143.1693   78.8575  221.4365 H   0  0  0  0  0  0  0  0  0  0  0  0
  139.0716   69.8985  222.1103 H   0  0  0  0  0  0  0  0  0  0  0  0
  139.2297   68.2613  223.9999 H   0  0  0  0  0  0  0  0  0  0  0  0
  139.8345   67.7641  226.2402 H   0  0  0  0  0  0  0  0  0  0  0  0
  141.5557   70.8516  228.6797 H   0  0  0  0  0  0  0  0  0  0  0  0
  141.4033   72.4831  226.8161 H   0  0  0  0  0  0  0  0  0  0  0  0
  1  2  2  0
  2  3  1  0
  3  4  1  0
  4  5  1  0
  5  6  2  0
  5  7  1  0
  7  8  1  0
  8  9  1  0
  9 10  1  0
 10 11  1  0
 10 12  1  0
 12 13  1  0
 13 14  1  0
 14 15  1  0
 15 16  2  0
 16 17  1  0
 17 18  2  0
 18 19  1  0
 19 20  2  0
  2 21  1  0
 21 22  2  0
 22 23  1  0
 23 24  2  0
 24 25  1  0
 25 26  2  0
 26 27  1  0
 26 28  1  0
 28 29  2  0
 29 30  1  0
 30 31  2  0
 12  7  1  0
 20 15  1  0
 31 21  1  0
 30 24  1  0
  3 32  1  0
  4 33  1  0
  4 34  1  0
  8 35  1  0
  8 36  1  0
  9 37  1  0
  9 38  1  0
 10 39  1  6
 11 40  1  0
 12 41  1  1
 13 42  1  0
 13 43  1  0
 16 44  1  0
 17 45  1  0
 18 46  1  0
 19 47  1  0
 20 48  1  0
 22 49  1  0
 23 50  1  0
 25 51  1  0
 28 52  1  0
 29 53  1  0
M  END
>  <smiles>  (33) 
O=C(NCC(=O)N1CC[C@H](O)[C@H]1COc1ccccc1)c1ccc2cc(Cl)ccc2n1

>  <score_type>  (33) 
oracle

>  <origin>  (33) 
autodockgpu

>  <m_score__min__energy>  (33) 
-8.7100000000000009

>  <m_primary>  (33) 
energy

>  <rmsd>  (33) 
1.9276680065365168

>  <m_score__min__rmsd>  (33) 
1.9276680065365168

>  <meeko>  (33) 
{"free_energy": -8.71, "intermolecular_energy": -11.09, "internal_energy": -1.42, "cluster_size": 22, "cluster_id": 1, "rank_in_cluster": 1}

>  <energy>  (33) 
-7.64

>  <cluster_rmsd>  (33) 
0.0

>  <cluster>  (33) 
5

$$$$

     RDKit          3D

 53 56  0  0  0  0  0  0  0  0999 V2000
  138.3430   71.6640  220.9070 O   0  0  0  0  0  0  0  0  0  0  0  0
  138.7020   72.1620  222.0140 C   0  0  0  0  0  0  0  0  0  0  0  0
  138.7540   73.5870  222.1440 N   0  0  0  0  0  0  0  0  0  0  0  0
  138.3960   74.3840  221.0090 C   0  0  0  0  0  0  0  0  0  0  0  0
  139.4720   74.4120  219.9820 C   0  0  0  0  0  0  0  0  0  0  0  0
  139.6590   73.4020  219.2400 O   0  0  0  0  0  0  0  0  0  0  0  0
  140.2590   75.5670  219.8640 N   0  0  0  0  0  0  0  0  0  0  0  0
  140.0770   76.6910  218.9610 C   0  0  0  0  0  0  0  0  0  0  0  0
  141.5390   76.9350  218.5650 C   0  0  0  0  0  0  0  0  0  0  0  0
  142.1750   76.9790  219.9350 C   0  0  2  0  0  0  0  0  0  0  0  0
  143.5390   76.7210  219.8940 O   0  0  0  0  0  0  0  0  0  0  0  0
  141.4430   75.8620  220.6480 C   0  0  1  0  0  0  0  0  0  0  0  0
  141.0770   76.3600  222.0320 C   0  0  0  0  0  0  0  0  0  0  0  0
  140.5280   77.6650  221.8260 O   0  0  0  0  0  0  0  0  0  0  0  0
  141.0300   78.7580  222.4830 C   0  0  0  0  0  0  0  0  0  0  0  0
  142.3840   79.0370  222.5180 C   0  0  0  0  0  0  0  0  0  0  0  0
  142.8610   80.1320  223.1790 C   0  0  0  0  0  0  0  0  0  0  0  0
  141.9740   80.9830  223.8310 C   0  0  0  0  0  0  0  0  0  0  0  0
  140.6060   80.7030  223.7980 C   0  0  0  0  0  0  0  0  0  0  0  0
  140.1460   79.5950  223.1260 C   0  0  0  0  0  0  0  0  0  0  0  0
  139.0590   71.3170  223.1520 C   0  0  0  0  0  0  0  0  0  0  0  0
  138.6750   69.9850  223.1200 C   0  0  0  0  0  0  0  0  0  0  0  0
  138.9940   69.1380  224.1820 C   0  0  0  0  0  0  0  0  0  0  0  0
  139.6890   69.6540  225.2470 C   0  0  0  0  0  0  0  0  0  0  0  0
  140.0020   68.8040  226.3010 C   0  0  0  0  0  0  0  0  0  0  0  0
  140.7060   69.3370  227.3720 C   0  0  0  0  0  0  0  0  0  0  0  0
  141.1280   68.3250  228.7210 Cl  0  0  0  0  0  0  0  0  0  0  0  0
  141.0720   70.6570  227.3740 C   0  0  0  0  0  0  0  0  0  0  0  0
  140.7640   71.5050  226.3320 C   0  0  0  0  0  0  0  0  0  0  0  0
  140.0610   70.9770  225.2600 C   0  0  0  0  0  0  0  0  0  0  0  0
  139.7400   71.7710  224.2180 N   0  0  0  0  0  0  0  0  0  0  0  0
  139.0530   73.9690  223.0700 H   0  0  0  0  0  0  0  0  0  0  0  0
  137.4844   73.9668  220.5562 H   0  0  0  0  0  0  0  0  0  0  0  0
  138.2335   75.4148  221.3570 H   0  0  0  0  0  0  0  0  0  0  0  0
  139.4556   76.4242  218.0934 H   0  0  0  0  0  0  0  0  0  0  0  0
  139.5569   77.5592  219.3921 H   0  0  0  0  0  0  0  0  0  0  0  0
  141.9398   76.1124  217.9545 H   0  0  0  0  0  0  0  0  0  0  0  0
  141.7095   77.8275  217.9450 H   0  0  0  0  0  0  0  0  0  0  0  0
  142.0946   77.9648  220.4164 H   0  0  0  0  0  0  0  0  0  0  0  0
  144.1120   77.4680  220.1470 H   0  0  0  0  0  0  0  0  0  0  0  0
  142.0497   74.9503  220.7520 H   0  0  0  0  0  0  0  0  0  0  0  0
  140.3324   75.6968  222.4965 H   0  0  0  0  0  0  0  0  0  0  0  0
  141.9463   76.3805  222.7057 H   0  0  0  0  0  0  0  0  0  0  0  0
  143.0882   78.3656  222.0048 H   0  0  0  0  0  0  0  0  0  0  0  0
  143.9409   80.3405  223.1961 H   0  0  0  0  0  0  0  0  0  0  0  0
  142.3467   81.8681  224.3674 H   0  0  0  0  0  0  0  0  0  0  0  0
  139.8961   81.3693  224.3100 H   0  0  0  0  0  0  0  0  0  0  0  0
  139.0681   79.3767  223.1021 H   0  0  0  0  0  0  0  0  0  0  0  0
  138.1177   69.5952  222.2555 H   0  0  0  0  0  0  0  0  0  0  0  0
  138.6949   68.0796  224.1660 H   0  0  0  0  0  0  0  0  0  0  0  0
  139.7023   67.7457  226.2870 H   0  0  0  0  0  0  0  0  0  0  0  0
  141.6299   71.0531  228.2353 H   0  0  0  0  0  0  0  0  0  0  0  0
  141.0652   72.5628  226.3503 H   0  0  0  0  0  0  0  0  0  0  0  0
  1  2  2  0
  2  3  1  0
  3  4  1  0
  4  5  1  0
  5  6  2  0
  5  7  1  0
  7  8  1  0
  8  9  1  0
  9 10  1  0
 10 11  1  0
 10 12  1  0
 12 13  1  0
 13 14  1  0
 14 15  1  0
 15 16  2  0
 16 17  1  0
 17 18  2  0
 18 19  1  0
 19 20  2  0
  2 21  1  0
 21 22  2  0
 22 23  1  0
 23 24  2  0
 24 25  1  0
 25 26  2  0
 26 27  1  0
 26 28  1  0
 28 29  2  0
 29 30  1  0
 30 31  2  0
 12  7  1  0
 20 15  1  0
 31 21  1  0
 30 24  1  0
  3 32  1  0
  4 33  1  0
  4 34  1  0
  8 35  1  0
  8 36  1  0
  9 37  1  0
  9 38  1  0
 10 39  1  1
 11 40  1  0
 12 41  1  1
 13 42  1  0
 13 43  1  0
 16 44  1  0
 17 45  1  0
 18 46  1  0
 19 47  1  0
 20 48  1  0
 22 49  1  0
 23 50  1  0
 25 51  1  0
 28 52  1  0
 29 53  1  0
M  END
>  <smiles>  (34) 
O=C(NCC(=O)N1CC[C@H](O)[C@H]1COc1ccccc1)c1ccc2cc(Cl)ccc2n1

>  <score_type>  (34) 
oracle

>  <origin>  (34) 
autodockgpu

>  <m_score__min__energy>  (34) 
-8.7100000000000009

>  <m_primary>  (34) 
energy

>  <rmsd>  (34) 
2.184580051402618

>  <m_score__min__rmsd>  (34) 
2.184580051402618

>  <meeko>  (34) 
{"free_energy": -8.17, "intermolecular_energy": -10.55, "internal_energy": -1.57, "cluster_size": 22, "cluster_id": 1, "rank_in_cluster": 9}

>  <energy>  (34) 
-7.09

>  <cluster_rmsd>  (34) 
0.68

>  <cluster>  (34) 
5

$$$$

     RDKit          3D

 53 56  0  0  0  0  0  0  0  0999 V2000
  141.4320   71.5400  222.3530 O   0  0  0  0  0  0  0  0  0  0  0  0
  140.9910   72.1890  221.3590 C   0  0  0  0  0  0  0  0  0  0  0  0
  140.3480   71.4720  220.2990 N   0  0  0  0  0  0  0  0  0  0  0  0
  140.2330   70.0490  220.4150 C   0  0  0  0  0  0  0  0  0  0  0  0
  139.0520   69.6460  221.2250 C   0  0  0  0  0  0  0  0  0  0  0  0
  138.9360   68.4440  221.6120 O   0  0  0  0  0  0  0  0  0  0  0  0
  138.0890   70.6160  221.5390 N   0  0  0  0  0  0  0  0  0  0  0  0
  136.7670   70.7910  220.9630 C   0  0  0  0  0  0  0  0  0  0  0  0
  136.7380   72.3210  220.8580 C   0  0  0  0  0  0  0  0  0  0  0  0
  137.1600   72.6860  222.2630 C   0  0  2  0  0  0  0  0  0  0  0  0
  137.6740   73.9730  222.3430 O   0  0  0  0  0  0  0  0  0  0  0  0
  138.2430   71.6620  222.5320 C   0  0  1  0  0  0  0  0  0  0  0  0
  138.0320   71.1260  223.9340 C   0  0  0  0  0  0  0  0  0  0  0  0
  139.2650   70.4850  224.2780 O   0  0  0  0  0  0  0  0  0  0  0  0
  139.8350   70.6600  225.5120 C   0  0  0  0  0  0  0  0  0  0  0  0
  139.5810   69.8040  226.5670 C   0  0  0  0  0  0  0  0  0  0  0  0
  140.1610   69.9990  227.7880 C   0  0  0  0  0  0  0  0  0  0  0  0
  141.0220   71.0750  227.9780 C   0  0  0  0  0  0  0  0  0  0  0  0
  141.2800   71.9410  226.9120 C   0  0  0  0  0  0  0  0  0  0  0  0
  140.6850   71.7280  225.6910 C   0  0  0  0  0  0  0  0  0  0  0  0
  141.1250   73.6420  221.2740 C   0  0  0  0  0  0  0  0  0  0  0  0
  142.0770   74.1570  220.4070 C   0  0  0  0  0  0  0  0  0  0  0  0
  142.2420   75.5380  220.2900 C   0  0  0  0  0  0  0  0  0  0  0  0
  141.4470   76.3620  221.0470 C   0  0  0  0  0  0  0  0  0  0  0  0
  141.6180   77.7350  220.9250 C   0  0  0  0  0  0  0  0  0  0  0  0
  140.8070   78.5570  221.6950 C   0  0  0  0  0  0  0  0  0  0  0  0
  140.9730   80.2840  221.5880 Cl  0  0  0  0  0  0  0  0  0  0  0  0
  139.8760   78.0170  222.5410 C   0  0  0  0  0  0  0  0  0  0  0  0
  139.7020   76.6550  222.6670 C   0  0  0  0  0  0  0  0  0  0  0  0
  140.5090   75.8300  221.9000 C   0  0  0  0  0  0  0  0  0  0  0  0
  140.3710   74.4920  221.9910 N   0  0  0  0  0  0  0  0  0  0  0  0
  139.9930   72.0340  219.4920 H   0  0  0  0  0  0  0  0  0  0  0  0
  140.1357   69.6180  219.4077 H   0  0  0  0  0  0  0  0  0  0  0  0
  141.1347   69.6771  220.9235 H   0  0  0  0  0  0  0  0  0  0  0  0
  136.6818   70.3102  219.9773 H   0  0  0  0  0  0  0  0  0  0  0  0
  135.9424   70.3452  221.5386 H   0  0  0  0  0  0  0  0  0  0  0  0
  137.4512   72.6927  220.1075 H   0  0  0  0  0  0  0  0  0  0  0  0
  135.7756   72.7462  220.5371 H   0  0  0  0  0  0  0  0  0  0  0  0
  136.3265   72.6761  222.9807 H   0  0  0  0  0  0  0  0  0  0  0  0
  138.4700   74.0690  222.8970 H   0  0  0  0  0  0  0  0  0  0  0  0
  139.2571   72.0829  222.4657 H   0  0  0  0  0  0  0  0  0  0  0  0
  137.8157   71.9474  224.6329 H   0  0  0  0  0  0  0  0  0  0  0  0
  137.1790   70.4335  223.9863 H   0  0  0  0  0  0  0  0  0  0  0  0
  138.9008   68.9520  226.4209 H   0  0  0  0  0  0  0  0  0  0  0  0
  139.9483   69.3084  228.6174 H   0  0  0  0  0  0  0  0  0  0  0  0
  141.4948   71.2424  228.9570 H   0  0  0  0  0  0  0  0  0  0  0  0
  141.9602   72.7944  227.0500 H   0  0  0  0  0  0  0  0  0  0  0  0
  140.8887   72.4129  224.8547 H   0  0  0  0  0  0  0  0  0  0  0  0
  142.7027   73.4764  219.8109 H   0  0  0  0  0  0  0  0  0  0  0  0
  142.9937   75.9574  219.6052 H   0  0  0  0  0  0  0  0  0  0  0  0
  142.3701   78.1563  220.2418 H   0  0  0  0  0  0  0  0  0  0  0  0
  139.2463   78.6916  223.1397 H   0  0  0  0  0  0  0  0  0  0  0  0
  138.9492   76.2381  223.3522 H   0  0  0  0  0  0  0  0  0  0  0  0
  1  2  2  0
  2  3  1  0
  3  4  1  0
  4  5  1  0
  5  6  2  0
  5  7  1  0
  7  8  1  0
  8  9  1  0
  9 10  1  0
 10 11  1  0
 10 12  1  0
 12 13  1  0
 13 14  1  0
 14 15  1  0
 15 16  2  0
 16 17  1  0
 17 18  2  0
 18 19  1  0
 19 20  2  0
  2 21  1  0
 21 22  2  0
 22 23  1  0
 23 24  2  0
 24 25  1  0
 25 26  2  0
 26 27  1  0
 26 28  1  0
 28 29  2  0
 29 30  1  0
 30 31  2  0
 12  7  1  0
 20 15  1  0
 31 21  1  0
 30 24  1  0
  3 32  1  0
  4 33  1  0
  4 34  1  0
  8 35  1  0
  8 36  1  0
  9 37  1  0
  9 38  1  0
 10 39  1  1
 11 40  1  0
 12 41  1  1
 13 42  1  0
 13 43  1  0
 16 44  1  0
 17 45  1  0
 18 46  1  0
 19 47  1  0
 20 48  1  0
 22 49  1  0
 23 50  1  0
 25 51  1  0
 28 52  1  0
 29 53  1  0
M  END
>  <smiles>  (35) 
O=C(NCC(=O)N1CC[C@H](O)[C@H]1COc1ccccc1)c1ccc2cc(Cl)ccc2n1

>  <score_type>  (35) 
oracle

>  <origin>  (35) 
autodockgpu

>  <m_score__min__energy>  (35) 
-8.7100000000000009

>  <m_primary>  (35) 
energy

>  <rmsd>  (35) 
7.157151215554375

>  <m_score__min__rmsd>  (35) 
7.157151215554375

>  <meeko>  (35) 
{"free_energy": -6.7, "intermolecular_energy": -9.09, "internal_energy": -2.75, "cluster_size": 5, "cluster_id": 2, "rank_in_cluster": 5}

>  <energy>  (35) 
-7.41

>  <cluster_rmsd>  (35) 
0.0

>  <cluster>  (35) 
6

$$$$

     RDKit          3D

 53 56  0  0  0  0  0  0  0  0999 V2000
  139.6740   72.0870  220.6720 O   0  0  0  0  0  0  0  0  0  0  0  0
  139.4270   72.4840  221.8480 C   0  0  0  0  0  0  0  0  0  0  0  0
  138.9710   73.8270  222.0400 N   0  0  0  0  0  0  0  0  0  0  0  0
  138.8130   74.6610  220.8860 C   0  0  0  0  0  0  0  0  0  0  0  0
  138.8370   76.1080  221.2320 C   0  0  0  0  0  0  0  0  0  0  0  0
  137.7480   76.7490  221.3240 O   0  0  0  0  0  0  0  0  0  0  0  0
  140.0760   76.7280  221.4480 N   0  0  0  0  0  0  0  0  0  0  0  0
  140.9140   76.6760  222.6340 C   0  0  0  0  0  0  0  0  0  0  0  0
  141.3650   78.1410  222.6880 C   0  0  0  0  0  0  0  0  0  0  0  0
  141.8380   78.3190  221.2630 C   0  0  2  0  0  0  0  0  0  0  0  0
  141.8670   79.6530  220.8790 O   0  0  0  0  0  0  0  0  0  0  0  0
  140.7750   77.5660  220.4920 C   0  0  1  0  0  0  0  0  0  0  0  0
  141.4750   76.7330  219.4370 C   0  0  0  0  0  0  0  0  0  0  0  0
  141.3630   75.3810  219.8930 O   0  0  0  0  0  0  0  0  0  0  0  0
  142.4760   74.6350  220.1780 C   0  0  0  0  0  0  0  0  0  0  0  0
  142.3970   73.3020  220.5390 C   0  0  0  0  0  0  0  0  0  0  0  0
  143.5210   72.5790  220.8180 C   0  0  0  0  0  0  0  0  0  0  0  0
  144.7690   73.1890  220.7410 C   0  0  0  0  0  0  0  0  0  0  0  0
  144.8520   74.5350  220.3770 C   0  0  0  0  0  0  0  0  0  0  0  0
  143.7080   75.2460  220.1000 C   0  0  0  0  0  0  0  0  0  0  0  0
  139.5980   71.6050  223.0030 C   0  0  0  0  0  0  0  0  0  0  0  0
  139.1350   70.3020  222.9030 C   0  0  0  0  0  0  0  0  0  0  0  0
  139.2760   69.4240  223.9780 C   0  0  0  0  0  0  0  0  0  0  0  0
  139.8780   69.8800  225.1250 C   0  0  0  0  0  0  0  0  0  0  0  0
  140.0140   69.0000  226.1900 C   0  0  0  0  0  0  0  0  0  0  0  0
  140.6250   69.4730  227.3440 C   0  0  0  0  0  0  0  0  0  0  0  0
  140.8240   68.4210  228.7130 Cl  0  0  0  0  0  0  0  0  0  0  0  0
  141.0720   70.7650  227.4120 C   0  0  0  0  0  0  0  0  0  0  0  0
  140.9400   71.6440  226.3570 C   0  0  0  0  0  0  0  0  0  0  0  0
  140.3310   71.1750  225.2030 C   0  0  0  0  0  0  0  0  0  0  0  0
  140.1820   72.0010  224.1470 N   0  0  0  0  0  0  0  0  0  0  0  0
  138.7740   74.1270  223.0220 H   0  0  0  0  0  0  0  0  0  0  0  0
  139.6320   74.4512  220.1823 H   0  0  0  0  0  0  0  0  0  0  0  0
  137.8337   74.4366  220.4381 H   0  0  0  0  0  0  0  0  0  0  0  0
  140.3419   76.3893  223.5287 H   0  0  0  0  0  0  0  0  0  0  0  0
  141.7273   75.9361  222.6012 H   0  0  0  0  0  0  0  0  0  0  0  0
  140.5313   78.8168  222.9295 H   0  0  0  0  0  0  0  0  0  0  0  0
  142.1164   78.3678  223.4587 H   0  0  0  0  0  0  0  0  0  0  0  0
  142.8657   77.9617  221.1011 H   0  0  0  0  0  0  0  0  0  0  0  0
  142.6860   79.9410  220.4360 H   0  0  0  0  0  0  0  0  0  0  0  0
  140.0545   78.2311  219.9934 H   0  0  0  0  0  0  0  0  0  0  0  0
  140.9824   76.8532  218.4608 H   0  0  0  0  0  0  0  0  0  0  0  0
  142.5237   77.0364  219.3019 H   0  0  0  0  0  0  0  0  0  0  0  0
  141.4120   72.8164  220.6024 H   0  0  0  0  0  0  0  0  0  0  0  0
  143.4403   71.5194  221.1022 H   0  0  0  0  0  0  0  0  0  0  0  0
  145.6815   72.6169  220.9646 H   0  0  0  0  0  0  0  0  0  0  0  0
  145.8337   75.0269  220.3118 H   0  0  0  0  0  0  0  0  0  0  0  0
  143.7770   76.3062  219.8152 H   0  0  0  0  0  0  0  0  0  0  0  0
  138.6554   69.9597  221.9741 H   0  0  0  0  0  0  0  0  0  0  0  0
  138.9126   68.3881  223.9083 H   0  0  0  0  0  0  0  0  0  0  0  0
  139.6505   67.9640  226.1222 H   0  0  0  0  0  0  0  0  0  0  0  0
  141.5522   71.1138  228.3382 H   0  0  0  0  0  0  0  0  0  0  0  0
  141.3046   72.6793  226.4287 H   0  0  0  0  0  0  0  0  0  0  0  0
  1  2  2  0
  2  3  1  0
  3  4  1  0
  4  5  1  0
  5  6  2  0
  5  7  1  0
  7  8  1  0
  8  9  1  0
  9 10  1  0
 10 11  1  0
 10 12  1  0
 12 13  1  0
 13 14  1  0
 14 15  1  0
 15 16  2  0
 16 17  1  0
 17 18  2  0
 18 19  1  0
 19 20  2  0
  2 21  1  0
 21 22  2  0
 22 23  1  0
 23 24  2  0
 24 25  1  0
 25 26  2  0
 26 27  1  0
 26 28  1  0
 28 29  2  0
 29 30  1  0
 30 31  2  0
 12  7  1  0
 20 15  1  0
 31 21  1  0
 30 24  1  0
  3 32  1  0
  4 33  1  0
  4 34  1  0
  8 35  1  0
  8 36  1  0
  9 37  1  0
  9 38  1  0
 10 39  1  1
 11 40  1  0
 12 41  1  6
 13 42  1  0
 13 43  1  0
 16 44  1  0
 17 45  1  0
 18 46  1  0
 19 47  1  0
 20 48  1  0
 22 49  1  0
 23 50  1  0
 25 51  1  0
 28 52  1  0
 29 53  1  0
M  END
>  <smiles>  (36) 
O=C(NCC(=O)N1CC[C@H](O)[C@H]1COc1ccccc1)c1ccc2cc(Cl)ccc2n1

>  <score_type>  (36) 
oracle

>  <origin>  (36) 
autodockgpu

>  <m_score__min__energy>  (36) 
-8.7100000000000009

>  <m_primary>  (36) 
energy

>  <rmsd>  (36) 
2.9556291419102263

>  <m_score__min__rmsd>  (36) 
2.9556291419102263

>  <meeko>  (36) 
{"free_energy": -7.72, "intermolecular_energy": -10.1, "internal_energy": -2.11, "cluster_size": 4, "cluster_id": 4, "rank_in_cluster": 1}

>  <energy>  (36) 
-7.31

>  <cluster_rmsd>  (36) 
0.0

>  <cluster>  (36) 
7

$$$$

     RDKit          3D

 53 56  0  0  0  0  0  0  0  0999 V2000
  139.2580   74.9200  222.3930 O   0  0  0  0  0  0  0  0  0  0  0  0
  140.2230   75.6310  221.9880 C   0  0  0  0  0  0  0  0  0  0  0  0
  141.4200   74.9800  221.5460 N   0  0  0  0  0  0  0  0  0  0  0  0
  141.4670   73.5490  221.5850 C   0  0  0  0  0  0  0  0  0  0  0  0
  140.4690   72.9300  220.6720 C   0  0  0  0  0  0  0  0  0  0  0  0
  140.5260   73.1660  219.4280 O   0  0  0  0  0  0  0  0  0  0  0  0
  139.4830   72.0970  221.2180 N   0  0  0  0  0  0  0  0  0  0  0  0
  138.5800   71.1960  220.5230 C   0  0  0  0  0  0  0  0  0  0  0  0
  137.2960   71.4620  221.3180 C   0  0  0  0  0  0  0  0  0  0  0  0
  137.8220   71.2940  222.7250 C   0  0  2  0  0  0  0  0  0  0  0  0
  137.0220   71.9240  223.6680 O   0  0  0  0  0  0  0  0  0  0  0  0
  139.1710   71.9760  222.6300 C   0  0  1  0  0  0  0  0  0  0  0  0
  140.1820   71.1020  223.3450 C   0  0  0  0  0  0  0  0  0  0  0  0
  140.6200   71.8770  224.4650 O   0  0  0  0  0  0  0  0  0  0  0  0
  140.5550   71.3800  225.7400 C   0  0  0  0  0  0  0  0  0  0  0  0
  141.0550   72.0730  226.8270 C   0  0  0  0  0  0  0  0  0  0  0  0
  140.9790   71.5560  228.0880 C   0  0  0  0  0  0  0  0  0  0  0  0
  140.3890   70.3120  228.2890 C   0  0  0  0  0  0  0  0  0  0  0  0
  139.8820   69.6100  227.1920 C   0  0  0  0  0  0  0  0  0  0  0  0
  139.9700   70.1480  225.9300 C   0  0  0  0  0  0  0  0  0  0  0  0
  140.1400   77.0900  221.9610 C   0  0  0  0  0  0  0  0  0  0  0  0
  139.1290   77.6970  222.6920 C   0  0  0  0  0  0  0  0  0  0  0  0
  139.0090   79.0870  222.6990 C   0  0  0  0  0  0  0  0  0  0  0  0
  139.9070   79.8280  221.9710 C   0  0  0  0  0  0  0  0  0  0  0  0
  139.7790   81.2110  221.9830 C   0  0  0  0  0  0  0  0  0  0  0  0
  140.6940   81.9490  221.2440 C   0  0  0  0  0  0  0  0  0  0  0  0
  140.5870   83.6850  221.2180 Cl  0  0  0  0  0  0  0  0  0  0  0  0
  141.6800   81.3210  220.5330 C   0  0  0  0  0  0  0  0  0  0  0  0
  141.8110   79.9480  220.5170 C   0  0  0  0  0  0  0  0  0  0  0  0
  140.9010   79.2070  221.2540 C   0  0  0  0  0  0  0  0  0  0  0  0
  140.9930   77.8610  221.2670 N   0  0  0  0  0  0  0  0  0  0  0  0
  142.2000   75.5920  221.2160 H   0  0  0  0  0  0  0  0  0  0  0  0
  142.4730   73.2191  221.2865 H   0  0  0  0  0  0  0  0  0  0  0  0
  141.2299   73.2307  222.6109 H   0  0  0  0  0  0  0  0  0  0  0  0
  138.4688   71.4642  219.4620 H   0  0  0  0  0  0  0  0  0  0  0  0
  138.9011   70.1444  220.4902 H   0  0  0  0  0  0  0  0  0  0  0  0
  136.9108   72.4776  221.1443 H   0  0  0  0  0  0  0  0  0  0  0  0
  136.4467   70.8126  221.0592 H   0  0  0  0  0  0  0  0  0  0  0  0
  137.8569   70.2437  223.0500 H   0  0  0  0  0  0  0  0  0  0  0  0
  137.4630   72.6180  224.1900 H   0  0  0  0  0  0  0  0  0  0  0  0
  139.1801   72.9735  223.0937 H   0  0  0  0  0  0  0  0  0  0  0  0
  139.7128   70.1662  223.6829 H   0  0  0  0  0  0  0  0  0  0  0  0
  141.0178   70.8179  222.6887 H   0  0  0  0  0  0  0  0  0  0  0  0
  141.5217   73.0571  226.6730 H   0  0  0  0  0  0  0  0  0  0  0  0
  141.3825   72.1204  228.9416 H   0  0  0  0  0  0  0  0  0  0  0  0
  140.3223   69.8855  229.3008 H   0  0  0  0  0  0  0  0  0  0  0  0
  139.4122   68.6262  227.3385 H   0  0  0  0  0  0  0  0  0  0  0  0
  139.5715   69.5921  225.0685 H   0  0  0  0  0  0  0  0  0  0  0  0
  138.4212   77.0816  223.2667 H   0  0  0  0  0  0  0  0  0  0  0  0
  138.2118   79.5789  223.2756 H   0  0  0  0  0  0  0  0  0  0  0  0
  138.9811   81.7041  222.5576 H   0  0  0  0  0  0  0  0  0  0  0  0
  142.3909   81.9305  219.9558 H   0  0  0  0  0  0  0  0  0  0  0  0
  142.6094   79.4587  219.9398 H   0  0  0  0  0  0  0  0  0  0  0  0
  1  2  2  0
  2  3  1  0
  3  4  1  0
  4  5  1  0
  5  6  2  0
  5  7  1  0
  7  8  1  0
  8  9  1  0
  9 10  1  0
 10 11  1  0
 10 12  1  0
 12 13  1  0
 13 14  1  0
 14 15  1  0
 15 16  2  0
 16 17  1  0
 17 18  2  0
 18 19  1  0
 19 20  2  0
  2 21  1  0
 21 22  2  0
 22 23  1  0
 23 24  2  0
 24 25  1  0
 25 26  2  0
 26 27  1  0
 26 28  1  0
 28 29  2  0
 29 30  1  0
 30 31  2  0
 12  7  1  0
 20 15  1  0
 31 21  1  0
 30 24  1  0
  3 32  1  0
  4 33  1  0
  4 34  1  0
  8 35  1  0
  8 36  1  0
  9 37  1  0
  9 38  1  0
 10 39  1  1
 11 40  1  0
 12 41  1  1
 13 42  1  0
 13 43  1  0
 16 44  1  0
 17 45  1  0
 18 46  1  0
 19 47  1  0
 20 48  1  0
 22 49  1  0
 23 50  1  0
 25 51  1  0
 28 52  1  0
 29 53  1  0
M  END
>  <smiles>  (37) 
O=C(NCC(=O)N1CC[C@H](O)[C@H]1COc1ccccc1)c1ccc2cc(Cl)ccc2n1

>  <score_type>  (37) 
oracle

>  <origin>  (37) 
autodockgpu

>  <m_score__min__energy>  (37) 
-8.7100000000000009

>  <m_primary>  (37) 
energy

>  <rmsd>  (37) 
8.462864250202328

>  <m_score__min__rmsd>  (37) 
8.462864250202328

>  <meeko>  (37) 
{"free_energy": -7.31, "intermolecular_energy": -9.7, "internal_energy": -1.72, "cluster_size": 1, "cluster_id": 7, "rank_in_cluster": 1}

>  <energy>  (37) 
-7.18

>  <cluster_rmsd>  (37) 
0.0

>  <cluster>  (37) 
8

$$$$

     RDKit          3D

 53 56  0  0  0  0  0  0  0  0999 V2000
  139.4750   73.7650  222.3540 O   0  0  0  0  0  0  0  0  0  0  0  0
  140.5260   74.2560  221.8470 C   0  0  0  0  0  0  0  0  0  0  0  0
  141.5980   73.3740  221.4960 N   0  0  0  0  0  0  0  0  0  0  0  0
  141.4280   71.9720  221.7350 C   0  0  0  0  0  0  0  0  0  0  0  0
  140.3710   71.3800  220.8720 C   0  0  0  0  0  0  0  0  0  0  0  0
  140.6130   71.1530  219.6490 O   0  0  0  0  0  0  0  0  0  0  0  0
  139.1230   71.0890  221.4410 N   0  0  0  0  0  0  0  0  0  0  0  0
  137.8960   70.6990  220.7680 C   0  0  0  0  0  0  0  0  0  0  0  0
  136.8900   71.5220  221.5820 C   0  0  0  0  0  0  0  0  0  0  0  0
  137.3070   71.1320  222.9820 C   0  0  2  0  0  0  0  0  0  0  0  0
  136.9000   72.0580  223.9330 O   0  0  0  0  0  0  0  0  0  0  0  0
  138.8170   71.1240  222.8590 C   0  0  1  0  0  0  0  0  0  0  0  0
  139.3300   69.8850  223.5650 C   0  0  0  0  0  0  0  0  0  0  0  0
  140.5240   70.3030  224.2340 O   0  0  0  0  0  0  0  0  0  0  0  0
  140.5080   70.6570  225.5570 C   0  0  0  0  0  0  0  0  0  0  0  0
  139.9440   69.8500  226.5280 C   0  0  0  0  0  0  0  0  0  0  0  0
  139.9400   70.2240  227.8410 C   0  0  0  0  0  0  0  0  0  0  0  0
  140.5110   71.4360  228.2130 C   0  0  0  0  0  0  0  0  0  0  0  0
  141.0820   72.2530  227.2340 C   0  0  0  0  0  0  0  0  0  0  0  0
  141.0750   71.8590  225.9170 C   0  0  0  0  0  0  0  0  0  0  0  0
  140.6650   75.6930  221.6170 C   0  0  0  0  0  0  0  0  0  0  0  0
  140.5120   76.1610  220.3200 C   0  0  0  0  0  0  0  0  0  0  0  0
  140.6340   77.5240  220.0490 C   0  0  0  0  0  0  0  0  0  0  0  0
  140.9070   78.3790  221.0880 C   0  0  0  0  0  0  0  0  0  0  0  0
  141.0270   79.7340  220.8090 C   0  0  0  0  0  0  0  0  0  0  0  0
  141.3020   80.5880  221.8690 C   0  0  0  0  0  0  0  0  0  0  0  0
  141.4650   82.2960  221.5850 Cl  0  0  0  0  0  0  0  0  0  0  0  0
  141.4470   80.0960  223.1380 C   0  0  0  0  0  0  0  0  0  0  0  0
  141.3290   78.7510  223.4200 C   0  0  0  0  0  0  0  0  0  0  0  0
  141.0540   77.8950  222.3660 C   0  0  0  0  0  0  0  0  0  0  0  0
  140.9300   76.5720  222.5980 N   0  0  0  0  0  0  0  0  0  0  0  0
  142.4530   73.8080  221.0790 H   0  0  0  0  0  0  0  0  0  0  0  0
  142.3799   71.4598  221.5314 H   0  0  0  0  0  0  0  0  0  0  0  0
  141.1205   71.8425  222.7832 H   0  0  0  0  0  0  0  0  0  0  0  0
  137.9000   70.9884  219.7068 H   0  0  0  0  0  0  0  0  0  0  0  0
  137.7012   69.6168  220.7384 H   0  0  0  0  0  0  0  0  0  0  0  0
  137.0080   72.6014  221.4063 H   0  0  0  0  0  0  0  0  0  0  0  0
  135.8333   71.3321  221.3426 H   0  0  0  0  0  0  0  0  0  0  0  0
  136.8649   70.1814  223.3150 H   0  0  0  0  0  0  0  0  0  0  0  0
  137.2520   72.9590  223.8130 H   0  0  0  0  0  0  0  0  0  0  0  0
  139.2894   72.0074  223.3133 H   0  0  0  0  0  0  0  0  0  0  0  0
  138.5887   69.5196  224.2909 H   0  0  0  0  0  0  0  0  0  0  0  0
  139.5191   69.0597  222.8628 H   0  0  0  0  0  0  0  0  0  0  0  0
  139.4910   68.8906  226.2376 H   0  0  0  0  0  0  0  0  0  0  0  0
  139.4874   69.5699  228.6008 H   0  0  0  0  0  0  0  0  0  0  0  0
  140.5131   71.7485  229.2677 H   0  0  0  0  0  0  0  0  0  0  0  0
  141.5379   73.2131  227.5175 H   0  0  0  0  0  0  0  0  0  0  0  0
  141.5236   72.5058  225.1486 H   0  0  0  0  0  0  0  0  0  0  0  0
  140.2941   75.4562  219.5040 H   0  0  0  0  0  0  0  0  0  0  0  0
  140.5140   77.9057  219.0244 H   0  0  0  0  0  0  0  0  0  0  0  0
  140.9084   80.1173  219.7848 H   0  0  0  0  0  0  0  0  0  0  0  0
  141.6645   80.7953  223.9588 H   0  0  0  0  0  0  0  0  0  0  0  0
  141.4490   78.3715  224.4455 H   0  0  0  0  0  0  0  0  0  0  0  0
  1  2  2  0
  2  3  1  0
  3  4  1  0
  4  5  1  0
  5  6  2  0
  5  7  1  0
  7  8  1  0
  8  9  1  0
  9 10  1  0
 10 11  1  0
 10 12  1  0
 12 13  1  0
 13 14  1  0
 14 15  1  0
 15 16  2  0
 16 17  1  0
 17 18  2  0
 18 19  1  0
 19 20  2  0
  2 21  1  0
 21 22  2  0
 22 23  1  0
 23 24  2  0
 24 25  1  0
 25 26  2  0
 26 27  1  0
 26 28  1  0
 28 29  2  0
 29 30  1  0
 30 31  2  0
 12  7  1  0
 20 15  1  0
 31 21  1  0
 30 24  1  0
  3 32  1  0
  4 33  1  0
  4 34  1  0
  8 35  1  0
  8 36  1  0
  9 37  1  0
  9 38  1  0
 10 39  1  1
 11 40  1  0
 12 41  1  1
 13 42  1  0
 13 43  1  0
 16 44  1  0
 17 45  1  0
 18 46  1  0
 19 47  1  0
 20 48  1  0
 22 49  1  0
 23 50  1  0
 25 51  1  0
 28 52  1  0
 29 53  1  0
M  END
>  <smiles>  (38) 
O=C(NCC(=O)N1CC[C@H](O)[C@H]1COc1ccccc1)c1ccc2cc(Cl)ccc2n1

>  <score_type>  (38) 
oracle

>  <origin>  (38) 
autodockgpu

>  <m_score__min__energy>  (38) 
-8.7100000000000009

>  <m_primary>  (38) 
energy

>  <rmsd>  (38) 
7.969369368529551

>  <m_score__min__rmsd>  (38) 
7.969369368529551

>  <meeko>  (38) 
{"free_energy": -7.45, "intermolecular_energy": -9.84, "internal_energy": -1.78, "cluster_size": 5, "cluster_id": 2, "rank_in_cluster": 3}

>  <energy>  (38) 
-7.08

>  <cluster_rmsd>  (38) 
0.0

>  <cluster>  (38) 
9

$$$$

     RDKit          3D

 53 56  0  0  0  0  0  0  0  0999 V2000
  139.1290   71.8270  220.9560 O   0  0  0  0  0  0  0  0  0  0  0  0
  139.3550   72.2740  222.1190 C   0  0  0  0  0  0  0  0  0  0  0  0
  139.3690   73.6920  222.3210 N   0  0  0  0  0  0  0  0  0  0  0  0
  139.1260   74.5400  221.1920 C   0  0  0  0  0  0  0  0  0  0  0  0
  140.0950   75.6670  221.1190 C   0  0  0  0  0  0  0  0  0  0  0  0
  140.3490   76.3450  222.1590 O   0  0  0  0  0  0  0  0  0  0  0  0
  140.7040   75.9500  219.8880 N   0  0  0  0  0  0  0  0  0  0  0  0
  140.4710   75.3170  218.6020 C   0  0  0  0  0  0  0  0  0  0  0  0
  141.9160   75.2310  218.0970 C   0  0  0  0  0  0  0  0  0  0  0  0
  142.3570   76.6580  218.3270 C   0  0  2  0  0  0  0  0  0  0  0  0
  143.7380   76.7790  218.4060 O   0  0  0  0  0  0  0  0  0  0  0  0
  141.7180   76.9630  219.6660 C   0  0  1  0  0  0  0  0  0  0  0  0
  141.1060   78.3460  219.5800 C   0  0  0  0  0  0  0  0  0  0  0  0
  142.1070   79.2310  220.0950 O   0  0  0  0  0  0  0  0  0  0  0  0
  141.9720   79.8110  221.3290 C   0  0  0  0  0  0  0  0  0  0  0  0
  141.6050   81.1350  221.4840 C   0  0  0  0  0  0  0  0  0  0  0  0
  141.4780   81.6910  222.7240 C   0  0  0  0  0  0  0  0  0  0  0  0
  141.7210   80.9170  223.8540 C   0  0  0  0  0  0  0  0  0  0  0  0
  142.0920   79.5790  223.7000 C   0  0  0  0  0  0  0  0  0  0  0  0
  142.2150   79.0380  222.4420 C   0  0  0  0  0  0  0  0  0  0  0  0
  139.5980   71.3790  223.2480 C   0  0  0  0  0  0  0  0  0  0  0  0
  139.2720   70.0390  223.0970 C   0  0  0  0  0  0  0  0  0  0  0  0
  139.4870   69.1450  224.1460 C   0  0  0  0  0  0  0  0  0  0  0  0
  140.0220   69.6210  225.3170 C   0  0  0  0  0  0  0  0  0  0  0  0
  140.2320   68.7240  226.3570 C   0  0  0  0  0  0  0  0  0  0  0  0
  140.7750   69.2180  227.5350 C   0  0  0  0  0  0  0  0  0  0  0  0
  141.0610   68.1450  228.8730 Cl  0  0  0  0  0  0  0  0  0  0  0  0
  141.0870   70.5460  227.6530 C   0  0  0  0  0  0  0  0  0  0  0  0
  140.8800   71.4410  226.6250 C   0  0  0  0  0  0  0  0  0  0  0  0
  140.3390   70.9520  225.4460 C   0  0  0  0  0  0  0  0  0  0  0  0
  140.1210   71.7940  224.4140 N   0  0  0  0  0  0  0  0  0  0  0  0
  139.5570   74.0320  223.2920 H   0  0  0  0  0  0  0  0  0  0  0  0
  139.2096   73.9404  220.2736 H   0  0  0  0  0  0  0  0  0  0  0  0
  138.1179   74.9667  221.2999 H   0  0  0  0  0  0  0  0  0  0  0  0
  140.0145   74.3222  218.7110 H   0  0  0  0  0  0  0  0  0  0  0  0
  139.7737   75.8487  217.9379 H   0  0  0  0  0  0  0  0  0  0  0  0
  142.5129   74.5189  218.6857 H   0  0  0  0  0  0  0  0  0  0  0  0
  142.0259   74.8720  217.0630 H   0  0  0  0  0  0  0  0  0  0  0  0
  142.0665   77.3363  217.5112 H   0  0  0  0  0  0  0  0  0  0  0  0
  144.2430   76.0230  218.0560 H   0  0  0  0  0  0  0  0  0  0  0  0
  142.4375   76.9491  220.4979 H   0  0  0  0  0  0  0  0  0  0  0  0
  140.8678   78.5984  218.5362 H   0  0  0  0  0  0  0  0  0  0  0  0
  140.1649   78.4155  220.1453 H   0  0  0  0  0  0  0  0  0  0  0  0
  141.4121   81.7506  220.5930 H   0  0  0  0  0  0  0  0  0  0  0  0
  141.1849   82.7460  222.8293 H   0  0  0  0  0  0  0  0  0  0  0  0
  141.6220   81.3540  224.8586 H   0  0  0  0  0  0  0  0  0  0  0  0
  142.2860   78.9574  224.5865 H   0  0  0  0  0  0  0  0  0  0  0  0
  142.5084   77.9844  222.3245 H   0  0  0  0  0  0  0  0  0  0  0  0
  138.8436   69.6812  222.1492 H   0  0  0  0  0  0  0  0  0  0  0  0
  139.2330   68.0803  224.0370 H   0  0  0  0  0  0  0  0  0  0  0  0
  139.9768   67.6593  226.2505 H   0  0  0  0  0  0  0  0  0  0  0  0
  141.5164   70.9103  228.5979 H   0  0  0  0  0  0  0  0  0  0  0  0
  141.1350   72.5052  226.7363 H   0  0  0  0  0  0  0  0  0  0  0  0
  1  2  2  0
  2  3  1  0
  3  4  1  0
  4  5  1  0
  5  6  2  0
  5  7  1  0
  7  8  1  0
  8  9  1  0
  9 10  1  0
 10 11  1  0
 10 12  1  0
 12 13  1  0
 13 14  1  0
 14 15  1  0
 15 16  2  0
 16 17  1  0
 17 18  2  0
 18 19  1  0
 19 20  2  0
  2 21  1  0
 21 22  2  0
 22 23  1  0
 23 24  2  0
 24 25  1  0
 25 26  2  0
 26 27  1  0
 26 28  1  0
 28 29  2  0
 29 30  1  0
 30 31  2  0
 12  7  1  0
 20 15  1  0
 31 21  1  0
 30 24  1  0
  3 32  1  0
  4 33  1  0
  4 34  1  0
  8 35  1  0
  8 36  1  0
  9 37  1  0
  9 38  1  0
 10 39  1  6
 11 40  1  0
 12 41  1  1
 13 42  1  0
 13 43  1  0
 16 44  1  0
 17 45  1  0
 18 46  1  0
 19 47  1  0
 20 48  1  0
 22 49  1  0
 23 50  1  0
 25 51  1  0
 28 52  1  0
 29 53  1  0
M  END
>  <smiles>  (39) 
O=C(NCC(=O)N1CC[C@H](O)[C@H]1COc1ccccc1)c1ccc2cc(Cl)ccc2n1

>  <score_type>  (39) 
oracle

>  <origin>  (39) 
autodockgpu

>  <m_score__min__energy>  (39) 
-8.7100000000000009

>  <m_primary>  (39) 
energy

>  <rmsd>  (39) 
1.5328942373519745

>  <m_score__min__rmsd>  (39) 
1.5328942373519745

>  <meeko>  (39) 
{"free_energy": -7.95, "intermolecular_energy": -10.34, "internal_energy": -1.61, "cluster_size": 22, "cluster_id": 1, "rank_in_cluster": 14}

>  <energy>  (39) 
-6.98

>  <cluster_rmsd>  (39) 
0.0

>  <cluster>  (39) 
10

$$$$

     RDKit          3D

 53 56  0  0  0  0  0  0  0  0999 V2000
  138.3860   72.3500  221.0170 O   0  0  0  0  0  0  0  0  0  0  0  0
  139.3660   72.4590  221.8110 C   0  0  0  0  0  0  0  0  0  0  0  0
  140.3630   73.4510  221.5430 N   0  0  0  0  0  0  0  0  0  0  0  0
  140.2020   74.2770  220.3830 C   0  0  0  0  0  0  0  0  0  0  0  0
  141.4120   75.0980  220.1070 C   0  0  0  0  0  0  0  0  0  0  0  0
  142.3920   75.0610  220.9100 O   0  0  0  0  0  0  0  0  0  0  0  0
  141.4340   75.8990  218.9570 N   0  0  0  0  0  0  0  0  0  0  0  0
  140.9970   75.5560  217.6140 C   0  0  0  0  0  0  0  0  0  0  0  0
  142.1240   76.2130  216.8070 C   0  0  0  0  0  0  0  0  0  0  0  0
  142.1170   77.5920  217.4270 C   0  0  2  0  0  0  0  0  0  0  0  0
  143.3180   78.2630  217.2390 O   0  0  0  0  0  0  0  0  0  0  0  0
  141.9130   77.2660  218.8920 C   0  0  1  0  0  0  0  0  0  0  0  0
  140.8870   78.2370  219.4410 C   0  0  0  0  0  0  0  0  0  0  0  0
  140.7600   77.9020  220.8270 O   0  0  0  0  0  0  0  0  0  0  0  0
  141.3310   78.6800  221.8000 C   0  0  0  0  0  0  0  0  0  0  0  0
  142.0150   79.8450  221.5040 C   0  0  0  0  0  0  0  0  0  0  0  0
  142.5750   80.6030  222.4900 C   0  0  0  0  0  0  0  0  0  0  0  0
  142.4590   80.2020  223.8170 C   0  0  0  0  0  0  0  0  0  0  0  0
  141.7680   79.0260  224.1190 C   0  0  0  0  0  0  0  0  0  0  0  0
  141.2120   78.2760  223.1100 C   0  0  0  0  0  0  0  0  0  0  0  0
  139.4980   71.5990  222.9850 C   0  0  0  0  0  0  0  0  0  0  0  0
  138.8610   70.3670  222.9640 C   0  0  0  0  0  0  0  0  0  0  0  0
  138.9580   69.5100  224.0600 C   0  0  0  0  0  0  0  0  0  0  0  0
  139.6900   69.9150  225.1480 C   0  0  0  0  0  0  0  0  0  0  0  0
  139.7810   69.0560  226.2360 C   0  0  0  0  0  0  0  0  0  0  0  0
  140.5260   69.4770  227.3300 C   0  0  0  0  0  0  0  0  0  0  0  0
  140.6770   68.4470  228.7230 Cl  0  0  0  0  0  0  0  0  0  0  0  0
  141.1430   70.6990  227.3200 C   0  0  0  0  0  0  0  0  0  0  0  0
  141.0560   71.5560  226.2440 C   0  0  0  0  0  0  0  0  0  0  0  0
  140.3140   71.1400  225.1490 C   0  0  0  0  0  0  0  0  0  0  0  0
  140.2040   71.9470  224.0740 N   0  0  0  0  0  0  0  0  0  0  0  0
  141.1600   73.5190  222.2150 H   0  0  0  0  0  0  0  0  0  0  0  0
  140.0049   73.6326  219.5135 H   0  0  0  0  0  0  0  0  0  0  0  0
  139.3630   74.9633  220.5701 H   0  0  0  0  0  0  0  0  0  0  0  0
  140.9618   74.4675  217.4591 H   0  0  0  0  0  0  0  0  0  0  0  0
  139.9804   75.8855  217.3534 H   0  0  0  0  0  0  0  0  0  0  0  0
  143.0863   75.7019  216.9578 H   0  0  0  0  0  0  0  0  0  0  0  0
  141.9862   76.1936  215.7158 H   0  0  0  0  0  0  0  0  0  0  0  0
  141.3575   78.2576  216.9911 H   0  0  0  0  0  0  0  0  0  0  0  0
  143.2390   79.1680  216.8880 H   0  0  0  0  0  0  0  0  0  0  0  0
  142.8355   77.3578  219.4841 H   0  0  0  0  0  0  0  0  0  0  0  0
  141.2357   79.2738  219.3248 H   0  0  0  0  0  0  0  0  0  0  0  0
  139.9263   78.1650  218.9101 H   0  0  0  0  0  0  0  0  0  0  0  0
  142.1090   80.1656  220.4560 H   0  0  0  0  0  0  0  0  0  0  0  0
  143.1157   81.5269  222.2371 H   0  0  0  0  0  0  0  0  0  0  0  0
  142.9070   80.8050  224.6206 H   0  0  0  0  0  0  0  0  0  0  0  0
  141.6688   78.7000  225.1649 H   0  0  0  0  0  0  0  0  0  0  0  0
  140.6700   77.3495  223.3507 H   0  0  0  0  0  0  0  0  0  0  0  0
  138.2782   70.0653  222.0812 H   0  0  0  0  0  0  0  0  0  0  0  0
  138.4583   68.5301  224.0526 H   0  0  0  0  0  0  0  0  0  0  0  0
  139.2805   68.0765  226.2312 H   0  0  0  0  0  0  0  0  0  0  0  0
  141.7274   71.0071  228.1995 H   0  0  0  0  0  0  0  0  0  0  0  0
  141.5573   72.5351  226.2536 H   0  0  0  0  0  0  0  0  0  0  0  0
  1  2  2  0
  2  3  1  0
  3  4  1  0
  4  5  1  0
  5  6  2  0
  5  7  1  0
  7  8  1  0
  8  9  1  0
  9 10  1  0
 10 11  1  0
 10 12  1  0
 12 13  1  0
 13 14  1  0
 14 15  1  0
 15 16  2  0
 16 17  1  0
 17 18  2  0
 18 19  1  0
 19 20  2  0
  2 21  1  0
 21 22  2  0
 22 23  1  0
 23 24  2  0
 24 25  1  0
 25 26  2  0
 26 27  1  0
 26 28  1  0
 28 29  2  0
 29 30  1  0
 30 31  2  0
 12  7  1  0
 20 15  1  0
 31 21  1  0
 30 24  1  0
  3 32  1  0
  4 33  1  0
  4 34  1  0
  8 35  1  0
  8 36  1  0
  9 37  1  0
  9 38  1  0
 10 39  1  6
 11 40  1  0
 12 41  1  1
 13 42  1  0
 13 43  1  0
 16 44  1  0
 17 45  1  0
 18 46  1  0
 19 47  1  0
 20 48  1  0
 22 49  1  0
 23 50  1  0
 25 51  1  0
 28 52  1  0
 29 53  1  0
M  END
>  <smiles>  (40) 
O=C(NCC(=O)N1CC[C@H](O)[C@H]1COc1ccccc1)c1ccc2cc(Cl)ccc2n1

>  <score_type>  (40) 
oracle

>  <origin>  (40) 
autodockgpu

>  <m_score__min__energy>  (40) 
-8.7100000000000009

>  <m_primary>  (40) 
energy

>  <rmsd>  (40) 
1.8817671837559211

>  <m_score__min__rmsd>  (40) 
1.8817671837559211

>  <meeko>  (40) 
{"free_energy": -7.63, "intermolecular_energy": -10.02, "internal_energy": -1.9, "cluster_size": 22, "cluster_id": 1, "rank_in_cluster": 17}

>  <energy>  (40) 
-6.44

>  <cluster_rmsd>  (40) 
0.0

>  <cluster>  (40) 
11

$$$$

     RDKit          3D

 53 56  0  0  0  0  0  0  0  0999 V2000
  138.4640   71.5950  221.2980 O   0  0  0  0  0  0  0  0  0  0  0  0
  139.0470   72.0410  222.3300 C   0  0  0  0  0  0  0  0  0  0  0  0
  139.4130   73.4240  222.3700 N   0  0  0  0  0  0  0  0  0  0  0  0
  139.1010   74.2410  221.2350 C   0  0  0  0  0  0  0  0  0  0  0  0
  139.9230   75.4810  221.1930 C   0  0  0  0  0  0  0  0  0  0  0  0
  140.8950   75.6170  221.9960 O   0  0  0  0  0  0  0  0  0  0  0  0
  139.5960   76.4740  220.2590 N   0  0  0  0  0  0  0  0  0  0  0  0
  139.0820   76.3060  218.9100 C   0  0  0  0  0  0  0  0  0  0  0  0
  139.8980   77.3900  218.1940 C   0  0  0  0  0  0  0  0  0  0  0  0
  139.6370   78.5610  219.1130 C   0  0  2  0  0  0  0  0  0  0  0  0
  140.6020   79.5520  218.9940 O   0  0  0  0  0  0  0  0  0  0  0  0
  139.7150   77.9030  220.4750 C   0  0  1  0  0  0  0  0  0  0  0  0
  138.5640   78.4320  221.3090 C   0  0  0  0  0  0  0  0  0  0  0  0
  139.0920   78.5620  222.6330 O   0  0  0  0  0  0  0  0  0  0  0  0
  140.2480   79.2580  222.8700 C   0  0  0  0  0  0  0  0  0  0  0  0
  141.4330   78.6270  223.2000 C   0  0  0  0  0  0  0  0  0  0  0  0
  142.5720   79.3420  223.4310 C   0  0  0  0  0  0  0  0  0  0  0  0
  142.5460   80.7300  223.3350 C   0  0  0  0  0  0  0  0  0  0  0  0
  141.3490   81.3700  223.0020 C   0  0  0  0  0  0  0  0  0  0  0  0
  140.2130   80.6310  222.7730 C   0  0  0  0  0  0  0  0  0  0  0  0
  139.3490   71.1780  223.4700 C   0  0  0  0  0  0  0  0  0  0  0  0
  139.0050   69.8370  223.3800 C   0  0  0  0  0  0  0  0  0  0  0  0
  139.2740   68.9730  224.4420 C   0  0  0  0  0  0  0  0  0  0  0  0
  139.8790   69.4810  225.5650 C   0  0  0  0  0  0  0  0  0  0  0  0
  140.1430   68.6130  226.6180 C   0  0  0  0  0  0  0  0  0  0  0  0
  140.7550   69.1390  227.7480 C   0  0  0  0  0  0  0  0  0  0  0  0
  141.1110   68.1050  229.1000 Cl  0  0  0  0  0  0  0  0  0  0  0  0
  141.0820   70.4670  227.8060 C   0  0  0  0  0  0  0  0  0  0  0  0
  140.8230   71.3320  226.7650 C   0  0  0  0  0  0  0  0  0  0  0  0
  140.2110   70.8120  225.6340 C   0  0  0  0  0  0  0  0  0  0  0  0
  139.9400   71.6240  224.5910 N   0  0  0  0  0  0  0  0  0  0  0  0
  139.8920   73.7650  223.2340 H   0  0  0  0  0  0  0  0  0  0  0  0
  139.2872   73.6611  220.3190 H   0  0  0  0  0  0  0  0  0  0  0  0
  138.0447   74.5381  221.3124 H   0  0  0  0  0  0  0  0  0  0  0  0
  139.2934   75.3026  218.5119 H   0  0  0  0  0  0  0  0  0  0  0  0
  137.9904   76.3972  218.8092 H   0  0  0  0  0  0  0  0  0  0  0  0
  140.9671   77.1349  218.1506 H   0  0  0  0  0  0  0  0  0  0  0  0
  139.6261   77.5564  217.1412 H   0  0  0  0  0  0  0  0  0  0  0  0
  138.6869   79.0731  218.9007 H   0  0  0  0  0  0  0  0  0  0  0  0
  140.7410   80.0950  219.7910 H   0  0  0  0  0  0  0  0  0  0  0  0
  140.6572   78.1165  221.0010 H   0  0  0  0  0  0  0  0  0  0  0  0
  138.2288   79.4084  220.9293 H   0  0  0  0  0  0  0  0  0  0  0  0
  137.6907   77.7639  221.2772 H   0  0  0  0  0  0  0  0  0  0  0  0
  141.4581   77.5300  223.2777 H   0  0  0  0  0  0  0  0  0  0  0  0
  143.5065   78.8236  223.6919 H   0  0  0  0  0  0  0  0  0  0  0  0
  143.4578   81.3172  223.5192 H   0  0  0  0  0  0  0  0  0  0  0  0
  141.3160   82.4667  222.9231 H   0  0  0  0  0  0  0  0  0  0  0  0
  139.2726   81.1382  222.5113 H   0  0  0  0  0  0  0  0  0  0  0  0
  138.5195   69.4544  222.4701 H   0  0  0  0  0  0  0  0  0  0  0  0
  139.0071   67.9076  224.3809 H   0  0  0  0  0  0  0  0  0  0  0  0
  139.8766   67.5474  226.5583 H   0  0  0  0  0  0  0  0  0  0  0  0
  141.5673   70.8564  228.7131 H   0  0  0  0  0  0  0  0  0  0  0  0
  141.0919   72.3967  226.8286 H   0  0  0  0  0  0  0  0  0  0  0  0
  1  2  2  0
  2  3  1  0
  3  4  1  0
  4  5  1  0
  5  6  2  0
  5  7  1  0
  7  8  1  0
  8  9  1  0
  9 10  1  0
 10 11  1  0
 10 12  1  0
 12 13  1  0
 13 14  1  0
 14 15  1  0
 15 16  2  0
 16 17  1  0
 17 18  2  0
 18 19  1  0
 19 20  2  0
  2 21  1  0
 21 22  2  0
 22 23  1  0
 23 24  2  0
 24 25  1  0
 25 26  2  0
 26 27  1  0
 26 28  1  0
 28 29  2  0
 29 30  1  0
 30 31  2  0
 12  7  1  0
 20 15  1  0
 31 21  1  0
 30 24  1  0
  3 32  1  0
  4 33  1  0
  4 34  1  0
  8 35  1  0
  8 36  1  0
  9 37  1  0
  9 38  1  0
 10 39  1  6
 11 40  1  0
 12 41  1  1
 13 42  1  0
 13 43  1  0
 16 44  1  0
 17 45  1  0
 18 46  1  0
 19 47  1  0
 20 48  1  0
 22 49  1  0
 23 50  1  0
 25 51  1  0
 28 52  1  0
 29 53  1  0
M  END
>  <smiles>  (41) 
O=C(NCC(=O)N1CC[C@H](O)[C@H]1COc1ccccc1)c1ccc2cc(Cl)ccc2n1

>  <score_type>  (41) 
oracle

>  <origin>  (41) 
autodockgpu

>  <m_score__min__energy>  (41) 
-8.7100000000000009

>  <m_primary>  (41) 
energy

>  <rmsd>  (41) 
2.1646550618854263

>  <m_score__min__rmsd>  (41) 
2.1646550618854263

>  <meeko>  (41) 
{"free_energy": -7.2, "intermolecular_energy": -9.59, "internal_energy": -2.02, "cluster_size": 22, "cluster_id": 1, "rank_in_cluster": 21}

>  <energy>  (41) 
-6.24

>  <cluster_rmsd>  (41) 
0.39

>  <cluster>  (41) 
11

$$$$

     RDKit          3D

 53 56  0  0  0  0  0  0  0  0999 V2000
  141.6860   76.2820  218.2130 O   0  0  0  0  0  0  0  0  0  0  0  0
  141.8540   77.0520  219.2030 C   0  0  0  0  0  0  0  0  0  0  0  0
  142.0840   76.4760  220.4940 N   0  0  0  0  0  0  0  0  0  0  0  0
  142.1130   75.0470  220.6020 C   0  0  0  0  0  0  0  0  0  0  0  0
  140.9070   74.5130  221.2900 C   0  0  0  0  0  0  0  0  0  0  0  0
  141.0010   73.4690  222.0020 O   0  0  0  0  0  0  0  0  0  0  0  0
  139.6870   75.1850  221.1270 N   0  0  0  0  0  0  0  0  0  0  0  0
  138.3750   74.6170  220.8630 C   0  0  0  0  0  0  0  0  0  0  0  0
  137.8620   75.6370  219.8390 C   0  0  0  0  0  0  0  0  0  0  0  0
  138.1490   76.9200  220.5830 C   0  0  2  0  0  0  0  0  0  0  0  0
  138.2280   78.0170  219.7350 O   0  0  0  0  0  0  0  0  0  0  0  0
  139.5030   76.6220  221.1940 C   0  0  1  0  0  0  0  0  0  0  0  0
  139.4780   77.1080  222.6290 C   0  0  0  0  0  0  0  0  0  0  0  0
  140.8450   77.3810  222.9540 O   0  0  0  0  0  0  0  0  0  0  0  0
  141.2950   78.6670  223.1040 C   0  0  0  0  0  0  0  0  0  0  0  0
  142.5750   79.0460  222.7460 C   0  0  0  0  0  0  0  0  0  0  0  0
  143.0010   80.3330  222.9050 C   0  0  0  0  0  0  0  0  0  0  0  0
  142.1350   81.2840  223.4360 C   0  0  0  0  0  0  0  0  0  0  0  0
  140.8400   80.9030  223.7990 C   0  0  0  0  0  0  0  0  0  0  0  0
  140.4320   79.6010  223.6310 C   0  0  0  0  0  0  0  0  0  0  0  0
  141.8180   78.5060  219.0550 C   0  0  0  0  0  0  0  0  0  0  0  0
  142.6120   79.0790  218.0730 C   0  0  0  0  0  0  0  0  0  0  0  0
  142.6110   80.4630  217.8920 C   0  0  0  0  0  0  0  0  0  0  0  0
  141.8150   81.2310  218.7040 C   0  0  0  0  0  0  0  0  0  0  0  0
  141.8210   82.6080  218.5170 C   0  0  0  0  0  0  0  0  0  0  0  0
  141.0100   83.3740  219.3440 C   0  0  0  0  0  0  0  0  0  0  0  0
  140.9740   85.1030  219.1610 Cl  0  0  0  0  0  0  0  0  0  0  0  0
  140.2380   82.7790  220.3050 C   0  0  0  0  0  0  0  0  0  0  0  0
  140.2290   81.4130  220.4950 C   0  0  0  0  0  0  0  0  0  0  0  0
  141.0360   80.6440  219.6720 C   0  0  0  0  0  0  0  0  0  0  0  0
  141.0560   79.3030  219.8230 N   0  0  0  0  0  0  0  0  0  0  0  0
  142.2190   77.1360  221.2930 H   0  0  0  0  0  0  0  0  0  0  0  0
  142.1648   74.6159  219.5913 H   0  0  0  0  0  0  0  0  0  0  0  0
  142.9941   74.7704  221.1996 H   0  0  0  0  0  0  0  0  0  0  0  0
  138.4436   73.6055  220.4363 H   0  0  0  0  0  0  0  0  0  0  0  0
  137.7367   74.4791  221.7482 H   0  0  0  0  0  0  0  0  0  0  0  0
  138.4188   75.5806  218.8920 H   0  0  0  0  0  0  0  0  0  0  0  0
  136.8137   75.5018  219.5346 H   0  0  0  0  0  0  0  0  0  0  0  0
  137.3633   77.1846  221.3059 H   0  0  0  0  0  0  0  0  0  0  0  0
  139.1250   78.3710  219.5940 H   0  0  0  0  0  0  0  0  0  0  0  0
  140.3301   77.1219  220.6686 H   0  0  0  0  0  0  0  0  0  0  0  0
  138.8704   78.0207  222.7171 H   0  0  0  0  0  0  0  0  0  0  0  0
  139.0332   76.3656  223.3079 H   0  0  0  0  0  0  0  0  0  0  0  0
  143.2625   78.2973  222.3255 H   0  0  0  0  0  0  0  0  0  0  0  0
  144.0234   80.6169  222.6149 H   0  0  0  0  0  0  0  0  0  0  0  0
  142.4660   82.3246  223.5687 H   0  0  0  0  0  0  0  0  0  0  0  0
  140.1464   81.6460  224.2196 H   0  0  0  0  0  0  0  0  0  0  0  0
  139.4125   79.3046  223.9187 H   0  0  0  0  0  0  0  0  0  0  0  0
  143.2433   78.4421  217.4360 H   0  0  0  0  0  0  0  0  0  0  0  0
  143.2351   80.9282  217.1148 H   0  0  0  0  0  0  0  0  0  0  0  0
  142.4460   83.0747  217.7414 H   0  0  0  0  0  0  0  0  0  0  0  0
  139.6049   83.4102  220.9459 H   0  0  0  0  0  0  0  0  0  0  0  0
  139.6033   80.9503  221.2724 H   0  0  0  0  0  0  0  0  0  0  0  0
  1  2  2  0
  2  3  1  0
  3  4  1  0
  4  5  1  0
  5  6  2  0
  5  7  1  0
  7  8  1  0
  8  9  1  0
  9 10  1  0
 10 11  1  0
 10 12  1  0
 12 13  1  0
 13 14  1  0
 14 15  1  0
 15 16  2  0
 16 17  1  0
 17 18  2  0
 18 19  1  0
 19 20  2  0
  2 21  1  0
 21 22  2  0
 22 23  1  0
 23 24  2  0
 24 25  1  0
 25 26  2  0
 26 27  1  0
 26 28  1  0
 28 29  2  0
 29 30  1  0
 30 31  2  0
 12  7  1  0
 20 15  1  0
 31 21  1  0
 30 24  1  0
  3 32  1  0
  4 33  1  0
  4 34  1  0
  8 35  1  0
  8 36  1  0
  9 37  1  0
  9 38  1  0
 10 39  1  1
 11 40  1  0
 12 41  1  6
 13 42  1  0
 13 43  1  0
 16 44  1  0
 17 45  1  0
 18 46  1  0
 19 47  1  0
 20 48  1  0
 22 49  1  0
 23 50  1  0
 25 51  1  0
 28 52  1  0
 29 53  1  0
M  END
>  <smiles>  (42) 
O=C(NCC(=O)N1CC[C@H](O)[C@H]1COc1ccccc1)c1ccc2cc(Cl)ccc2n1

>  <score_type>  (42) 
oracle

>  <origin>  (42) 
autodockgpu

>  <m_score__min__energy>  (42) 
-8.7100000000000009

>  <m_primary>  (42) 
energy

>  <rmsd>  (42) 
9.193443850615143

>  <m_score__min__rmsd>  (42) 
9.193443850615143

>  <meeko>  (42) 
{"free_energy": -5.68, "intermolecular_energy": -8.06, "internal_energy": -4.26, "cluster_size": 5, "cluster_id": 12, "rank_in_cluster": 2}

>  <energy>  (42) 
-6.06

>  <cluster_rmsd>  (42) 
0.41

>  <cluster>  (42) 
11

$$$$

     RDKit          3D

 53 56  0  0  0  0  0  0  0  0999 V2000
  140.5060   72.2790  220.7600 O   0  0  0  0  0  0  0  0  0  0  0  0
  140.1550   72.6660  221.9130 C   0  0  0  0  0  0  0  0  0  0  0  0
  139.7850   74.0370  222.0970 N   0  0  0  0  0  0  0  0  0  0  0  0
  139.8310   74.9090  220.9610 C   0  0  0  0  0  0  0  0  0  0  0  0
  141.2220   75.1350  220.4840 C   0  0  0  0  0  0  0  0  0  0  0  0
  142.2000   74.8170  221.2250 O   0  0  0  0  0  0  0  0  0  0  0  0
  141.4150   75.7010  219.2150 N   0  0  0  0  0  0  0  0  0  0  0  0
  140.7010   75.4110  217.9830 C   0  0  0  0  0  0  0  0  0  0  0  0
  141.8790   75.4220  217.0020 C   0  0  0  0  0  0  0  0  0  0  0  0
  142.5190   76.7390  217.3780 C   0  0  2  0  0  0  0  0  0  0  0  0
  143.8520   76.8070  216.9960 O   0  0  0  0  0  0  0  0  0  0  0  0
  142.3970   76.7160  218.8870 C   0  0  1  0  0  0  0  0  0  0  0  0
  141.9400   78.0900  219.3340 C   0  0  0  0  0  0  0  0  0  0  0  0
  141.3550   77.8890  220.6240 O   0  0  0  0  0  0  0  0  0  0  0  0
  141.6660   78.7060  221.6790 C   0  0  0  0  0  0  0  0  0  0  0  0
  142.1860   79.9750  221.4990 C   0  0  0  0  0  0  0  0  0  0  0  0
  142.4880   80.7710  222.5650 C   0  0  0  0  0  0  0  0  0  0  0  0
  142.2710   80.3030  223.8580 C   0  0  0  0  0  0  0  0  0  0  0  0
  141.7450   79.0220  224.0420 C   0  0  0  0  0  0  0  0  0  0  0  0
  141.4480   78.2350  222.9540 C   0  0  0  0  0  0  0  0  0  0  0  0
  140.1190   71.7480  223.0500 C   0  0  0  0  0  0  0  0  0  0  0  0
  139.5390   70.5020  222.8620 C   0  0  0  0  0  0  0  0  0  0  0  0
  139.4810   69.5910  223.9170 C   0  0  0  0  0  0  0  0  0  0  0  0
  140.0080   69.9560  225.1310 C   0  0  0  0  0  0  0  0  0  0  0  0
  139.9460   69.0420  226.1750 C   0  0  0  0  0  0  0  0  0  0  0  0
  140.4830   69.4240  227.3980 C   0  0  0  0  0  0  0  0  0  0  0  0
  140.4360   68.3250  228.7450 Cl  0  0  0  0  0  0  0  0  0  0  0  0
  141.0490   70.6610  227.5520 C   0  0  0  0  0  0  0  0  0  0  0  0
  141.1130   71.5710  226.5190 C   0  0  0  0  0  0  0  0  0  0  0  0
  140.5790   71.1950  225.2960 C   0  0  0  0  0  0  0  0  0  0  0  0
  140.6210   72.0560  224.2580 N   0  0  0  0  0  0  0  0  0  0  0  0
  139.4990   74.3280  223.0590 H   0  0  0  0  0  0  0  0  0  0  0  0
  139.2451   74.4600  220.1455 H   0  0  0  0  0  0  0  0  0  0  0  0
  139.4148   75.8812  221.2636 H   0  0  0  0  0  0  0  0  0  0  0  0
  140.2042   74.4302  218.0173 H   0  0  0  0  0  0  0  0  0  0  0  0
  139.8824   76.1048  217.7408 H   0  0  0  0  0  0  0  0  0  0  0  0
  142.5593   74.5742  217.1709 H   0  0  0  0  0  0  0  0  0  0  0  0
  141.6010   75.3271  215.9420 H   0  0  0  0  0  0  0  0  0  0  0  0
  142.0475   77.6044  216.8894 H   0  0  0  0  0  0  0  0  0  0  0  0
  144.4760   76.3380  217.5790 H   0  0  0  0  0  0  0  0  0  0  0  0
  143.3469   76.4815  219.3897 H   0  0  0  0  0  0  0  0  0  0  0  0
  142.7955   78.7782  219.4013 H   0  0  0  0  0  0  0  0  0  0  0  0
  141.2282   78.5376  218.6248 H   0  0  0  0  0  0  0  0  0  0  0  0
  142.3590   80.3487  220.4790 H   0  0  0  0  0  0  0  0  0  0  0  0
  142.9010   81.7777  222.4036 H   0  0  0  0  0  0  0  0  0  0  0  0
  142.5112   80.9352  224.7256 H   0  0  0  0  0  0  0  0  0  0  0  0
  141.5680   78.6421  225.0590 H   0  0  0  0  0  0  0  0  0  0  0  0
  141.0351   77.2264  223.1030 H   0  0  0  0  0  0  0  0  0  0  0  0
  139.1242   70.2319  221.8797 H   0  0  0  0  0  0  0  0  0  0  0  0
  139.0225   68.6007  223.7790 H   0  0  0  0  0  0  0  0  0  0  0  0
  139.4881   68.0512  226.0384 H   0  0  0  0  0  0  0  0  0  0  0  0
  141.4660   70.9374  228.5316 H   0  0  0  0  0  0  0  0  0  0  0  0
  141.5717   72.5609  226.6598 H   0  0  0  0  0  0  0  0  0  0  0  0
  1  2  2  0
  2  3  1  0
  3  4  1  0
  4  5  1  0
  5  6  2  0
  5  7  1  0
  7  8  1  0
  8  9  1  0
  9 10  1  0
 10 11  1  0
 10 12  1  0
 12 13  1  0
 13 14  1  0
 14 15  1  0
 15 16  2  0
 16 17  1  0
 17 18  2  0
 18 19  1  0
 19 20  2  0
  2 21  1  0
 21 22  2  0
 22 23  1  0
 23 24  2  0
 24 25  1  0
 25 26  2  0
 26 27  1  0
 26 28  1  0
 28 29  2  0
 29 30  1  0
 30 31  2  0
 12  7  1  0
 20 15  1  0
 31 21  1  0
 30 24  1  0
  3 32  1  0
  4 33  1  0
  4 34  1  0
  8 35  1  0
  8 36  1  0
  9 37  1  0
  9 38  1  0
 10 39  1  6
 11 40  1  0
 12 41  1  1
 13 42  1  0
 13 43  1  0
 16 44  1  0
 17 45  1  0
 18 46  1  0
 19 47  1  0
 20 48  1  0
 22 49  1  0
 23 50  1  0
 25 51  1  0
 28 52  1  0
 29 53  1  0
M  END
>  <smiles>  (43) 
O=C(NCC(=O)N1CC[C@H](O)[C@H]1COc1ccccc1)c1ccc2cc(Cl)ccc2n1

>  <score_type>  (43) 
oracle

>  <origin>  (43) 
autodockgpu

>  <m_score__min__energy>  (43) 
-8.7100000000000009

>  <m_primary>  (43) 
energy

>  <rmsd>  (43) 
1.7805056247251645

>  <m_score__min__rmsd>  (43) 
1.7805056247251645

>  <meeko>  (43) 
{"free_energy": -8.25, "intermolecular_energy": -10.63, "internal_energy": -1.52, "cluster_size": 22, "cluster_id": 1, "rank_in_cluster": 7}

>  <energy>  (43) 
-4.83

>  <cluster_rmsd>  (43) 
1.85

>  <cluster>  (43) 
11

$$$$

     RDKit          3D

 53 56  0  0  0  0  0  0  0  0999 V2000
  136.7990   77.3680  222.7450 O   0  0  0  0  0  0  0  0  0  0  0  0
  136.7600   76.1540  223.1000 C   0  0  0  0  0  0  0  0  0  0  0  0
  137.7750   75.2630  222.6240 N   0  0  0  0  0  0  0  0  0  0  0  0
  138.7920   75.7920  221.7640 C   0  0  0  0  0  0  0  0  0  0  0  0
  139.9280   74.8470  221.5910 C   0  0  0  0  0  0  0  0  0  0  0  0
  140.0210   73.8330  222.3460 O   0  0  0  0  0  0  0  0  0  0  0  0
  140.8740   75.1090  220.5900 N   0  0  0  0  0  0  0  0  0  0  0  0
  141.1980   74.3030  219.4260 C   0  0  0  0  0  0  0  0  0  0  0  0
  142.7240   74.4540  219.4310 C   0  0  0  0  0  0  0  0  0  0  0  0
  142.8350   75.9580  219.5390 C   0  0  2  0  0  0  0  0  0  0  0  0
  144.0690   76.3630  220.0320 O   0  0  0  0  0  0  0  0  0  0  0  0
  141.7360   76.2740  220.5310 C   0  0  1  0  0  0  0  0  0  0  0  0
  140.9870   77.4880  220.0170 C   0  0  0  0  0  0  0  0  0  0  0  0
  141.8640   78.5940  220.2510 O   0  0  0  0  0  0  0  0  0  0  0  0
  141.8650   79.2570  221.4500 C   0  0  0  0  0  0  0  0  0  0  0  0
  141.7550   78.5940  222.6580 C   0  0  0  0  0  0  0  0  0  0  0  0
  141.7580   79.2770  223.8400 C   0  0  0  0  0  0  0  0  0  0  0  0
  141.8730   80.6640  223.8340 C   0  0  0  0  0  0  0  0  0  0  0  0
  141.9840   81.3360  222.6150 C   0  0  0  0  0  0  0  0  0  0  0  0
  141.9780   80.6300  221.4350 C   0  0  0  0  0  0  0  0  0  0  0  0
  135.7080   75.6490  223.9800 C   0  0  0  0  0  0  0  0  0  0  0  0
  134.8280   76.5660  224.5340 C   0  0  0  0  0  0  0  0  0  0  0  0
  133.8060   76.1330  225.3800 C   0  0  0  0  0  0  0  0  0  0  0  0
  133.6980   74.7900  225.6460 C   0  0  0  0  0  0  0  0  0  0  0  0
  132.6780   74.3680  226.4890 C   0  0  0  0  0  0  0  0  0  0  0  0
  132.5790   73.0070  226.7490 C   0  0  0  0  0  0  0  0  0  0  0  0
  131.3240   72.4150  227.7970 Cl  0  0  0  0  0  0  0  0  0  0  0  0
  133.4630   72.1270  226.1860 C   0  0  0  0  0  0  0  0  0  0  0  0
  134.4770   72.5400  225.3490 C   0  0  0  0  0  0  0  0  0  0  0  0
  134.5800   73.8980  225.0860 C   0  0  0  0  0  0  0  0  0  0  0  0
  135.5580   74.3450  224.2710 N   0  0  0  0  0  0  0  0  0  0  0  0
  137.7180   74.2670  222.9350 H   0  0  0  0  0  0  0  0  0  0  0  0
  138.3501   75.9992  220.7782 H   0  0  0  0  0  0  0  0  0  0  0  0
  139.1832   76.7096  222.2277 H   0  0  0  0  0  0  0  0  0  0  0  0
  140.8888   73.2551  219.5535 H   0  0  0  0  0  0  0  0  0  0  0  0
  140.7004   74.6063  218.4930 H   0  0  0  0  0  0  0  0  0  0  0  0
  143.1821   73.9473  220.2932 H   0  0  0  0  0  0  0  0  0  0  0  0
  143.2376   74.0112  218.5649 H   0  0  0  0  0  0  0  0  0  0  0  0
  142.7432   76.4688  218.5692 H   0  0  0  0  0  0  0  0  0  0  0  0
  144.0960   77.2680  220.3910 H   0  0  0  0  0  0  0  0  0  0  0  0
  142.1186   76.4971  221.5379 H   0  0  0  0  0  0  0  0  0  0  0  0
  140.7745   77.3843  218.9427 H   0  0  0  0  0  0  0  0  0  0  0  0
  140.0174   77.6174  220.5201 H   0  0  0  0  0  0  0  0  0  0  0  0
  141.6635   77.4978  222.6670 H   0  0  0  0  0  0  0  0  0  0  0  0
  141.6699   78.7338  224.7925 H   0  0  0  0  0  0  0  0  0  0  0  0
  141.8764   81.2252  224.7800 H   0  0  0  0  0  0  0  0  0  0  0  0
  142.0764   82.4320  222.5986 H   0  0  0  0  0  0  0  0  0  0  0  0
  142.0636   81.1629  220.4765 H   0  0  0  0  0  0  0  0  0  0  0  0
  134.9355   77.6368  224.3063 H   0  0  0  0  0  0  0  0  0  0  0  0
  133.1020   76.8521  225.8243 H   0  0  0  0  0  0  0  0  0  0  0  0
  131.9737   75.0858  226.9348 H   0  0  0  0  0  0  0  0  0  0  0  0
  133.3608   71.0547  226.4089 H   0  0  0  0  0  0  0  0  0  0  0  0
  135.1793   71.8188  224.9055 H   0  0  0  0  0  0  0  0  0  0  0  0
  1  2  2  0
  2  3  1  0
  3  4  1  0
  4  5  1  0
  5  6  2  0
  5  7  1  0
  7  8  1  0
  8  9  1  0
  9 10  1  0
 10 11  1  0
 10 12  1  0
 12 13  1  0
 13 14  1  0
 14 15  1  0
 15 16  2  0
 16 17  1  0
 17 18  2  0
 18 19  1  0
 19 20  2  0
  2 21  1  0
 21 22  2  0
 22 23  1  0
 23 24  2  0
 24 25  1  0
 25 26  2  0
 26 27  1  0
 26 28  1  0
 28 29  2  0
 29 30  1  0
 30 31  2  0
 12  7  1  0
 20 15  1  0
 31 21  1  0
 30 24  1  0
  3 32  1  0
  4 33  1  0
  4 34  1  0
  8 35  1  0
  8 36  1  0
  9 37  1  0
  9 38  1  0
 10 39  1  6
 11 40  1  0
 12 41  1  1
 13 42  1  0
 13 43  1  0
 16 44  1  0
 17 45  1  0
 18 46  1  0
 19 47  1  0
 20 48  1  0
 22 49  1  0
 23 50  1  0
 25 51  1  0
 28 52  1  0
 29 53  1  0
M  END
>  <smiles>  (44) 
O=C(NCC(=O)N1CC[C@H](O)[C@H]1COc1ccccc1)c1ccc2cc(Cl)ccc2n1

>  <score_type>  (44) 
oracle

>  <origin>  (44) 
autodockgpu

>  <m_score__min__energy>  (44) 
-8.7100000000000009

>  <m_primary>  (44) 
energy

>  <rmsd>  (44) 
5.8403184088300275

>  <m_score__min__rmsd>  (44) 
5.8403184088300275

>  <meeko>  (44) 
{"free_energy": -7.64, "intermolecular_energy": -10.02, "internal_energy": -2.0, "cluster_size": 2, "cluster_id": 5, "rank_in_cluster": 1}

>  <energy>  (44) 
-5.92

>  <cluster_rmsd>  (44) 
0.0

>  <cluster>  (44) 
12

$$$$

     RDKit          3D

 53 56  0  0  0  0  0  0  0  0999 V2000
  137.3570   74.8560  220.7310 O   0  0  0  0  0  0  0  0  0  0  0  0
  137.6260   75.0280  221.9560 C   0  0  0  0  0  0  0  0  0  0  0  0
  138.9980   75.1500  222.3490 N   0  0  0  0  0  0  0  0  0  0  0  0
  140.0040   75.0710  221.3320 C   0  0  0  0  0  0  0  0  0  0  0  0
  140.6180   73.7180  221.2540 C   0  0  0  0  0  0  0  0  0  0  0  0
  141.8240   73.5960  220.8830 O   0  0  0  0  0  0  0  0  0  0  0  0
  139.8370   72.6050  221.5960 N   0  0  0  0  0  0  0  0  0  0  0  0
  139.1940   71.6500  220.7100 C   0  0  0  0  0  0  0  0  0  0  0  0
  137.8580   71.4850  221.4430 C   0  0  0  0  0  0  0  0  0  0  0  0
  138.3610   71.2100  222.8420 C   0  0  2  0  0  0  0  0  0  0  0  0
  137.4040   71.4790  223.8110 O   0  0  0  0  0  0  0  0  0  0  0  0
  139.5150   72.1860  222.9470 C   0  0  1  0  0  0  0  0  0  0  0  0
  140.6780   71.4580  223.5910 C   0  0  0  0  0  0  0  0  0  0  0  0
  140.7070   71.9230  224.9440 O   0  0  0  0  0  0  0  0  0  0  0  0
  140.6620   71.0460  225.9960 C   0  0  0  0  0  0  0  0  0  0  0  0
  140.3910   69.7010  225.8230 C   0  0  0  0  0  0  0  0  0  0  0  0
  140.3510   68.8470  226.8860 C   0  0  0  0  0  0  0  0  0  0  0  0
  140.5870   69.3330  228.1690 C   0  0  0  0  0  0  0  0  0  0  0  0
  140.8620   70.6910  228.3470 C   0  0  0  0  0  0  0  0  0  0  0  0
  140.8960   71.5350  227.2620 C   0  0  0  0  0  0  0  0  0  0  0  0
  136.5730   75.1040  222.9660 C   0  0  0  0  0  0  0  0  0  0  0  0
  136.0780   76.3570  223.2960 C   0  0  0  0  0  0  0  0  0  0  0  0
  135.0710   76.4810  224.2540 C   0  0  0  0  0  0  0  0  0  0  0  0
  134.5920   75.3440  224.8550 C   0  0  0  0  0  0  0  0  0  0  0  0
  133.5900   75.4770  225.8090 C   0  0  0  0  0  0  0  0  0  0  0  0
  133.1140   74.3190  226.4090 C   0  0  0  0  0  0  0  0  0  0  0  0
  131.8610   74.4190  227.6100 Cl  0  0  0  0  0  0  0  0  0  0  0  0
  133.6230   73.0970  226.0620 C   0  0  0  0  0  0  0  0  0  0  0  0
  134.6180   72.9590  225.1170 C   0  0  0  0  0  0  0  0  0  0  0  0
  135.0970   74.1120  224.5140 C   0  0  0  0  0  0  0  0  0  0  0  0
  136.0690   74.0220  223.5840 N   0  0  0  0  0  0  0  0  0  0  0  0
  139.1900   75.2910  223.3670 H   0  0  0  0  0  0  0  0  0  0  0  0
  139.5455   75.3087  220.3608 H   0  0  0  0  0  0  0  0  0  0  0  0
  140.7982   75.7886  221.5856 H   0  0  0  0  0  0  0  0  0  0  0  0
  139.0588   72.0567  219.6969 H   0  0  0  0  0  0  0  0  0  0  0  0
  139.7534   70.7181  220.5406 H   0  0  0  0  0  0  0  0  0  0  0  0
  137.2521   72.4021  221.3995 H   0  0  0  0  0  0  0  0  0  0  0  0
  137.1934   70.7127  221.0285 H   0  0  0  0  0  0  0  0  0  0  0  0
  138.6301   70.1560  223.0053 H   0  0  0  0  0  0  0  0  0  0  0  0
  137.3770   72.4020  224.1240 H   0  0  0  0  0  0  0  0  0  0  0  0
  139.2743   73.0699  223.5559 H   0  0  0  0  0  0  0  0  0  0  0  0
  140.5173   70.3702  223.5601 H   0  0  0  0  0  0  0  0  0  0  0  0
  141.6260   71.6529  223.0683 H   0  0  0  0  0  0  0  0  0  0  0  0
  140.2045   69.3131  224.8107 H   0  0  0  0  0  0  0  0  0  0  0  0
  140.1334   67.7800  226.7302 H   0  0  0  0  0  0  0  0  0  0  0  0
  140.5572   68.6543  229.0342 H   0  0  0  0  0  0  0  0  0  0  0  0
  141.0515   71.0856  229.3562 H   0  0  0  0  0  0  0  0  0  0  0  0
  141.1108   72.6042  227.4057 H   0  0  0  0  0  0  0  0  0  0  0  0
  136.4797   77.2540  222.8020 H   0  0  0  0  0  0  0  0  0  0  0  0
  134.6695   77.4695  224.5219 H   0  0  0  0  0  0  0  0  0  0  0  0
  133.1883   76.4648  226.0791 H   0  0  0  0  0  0  0  0  0  0  0  0
  133.2259   72.1960  226.5525 H   0  0  0  0  0  0  0  0  0  0  0  0
  135.0175   71.9692  224.8511 H   0  0  0  0  0  0  0  0  0  0  0  0
  1  2  2  0
  2  3  1  0
  3  4  1  0
  4  5  1  0
  5  6  2  0
  5  7  1  0
  7  8  1  0
  8  9  1  0
  9 10  1  0
 10 11  1  0
 10 12  1  0
 12 13  1  0
 13 14  1  0
 14 15  1  0
 15 16  2  0
 16 17  1  0
 17 18  2  0
 18 19  1  0
 19 20  2  0
  2 21  1  0
 21 22  2  0
 22 23  1  0
 23 24  2  0
 24 25  1  0
 25 26  2  0
 26 27  1  0
 26 28  1  0
 28 29  2  0
 29 30  1  0
 30 31  2  0
 12  7  1  0
 20 15  1  0
 31 21  1  0
 30 24  1  0
  3 32  1  0
  4 33  1  0
  4 34  1  0
  8 35  1  0
  8 36  1  0
  9 37  1  0
  9 38  1  0
 10 39  1  6
 11 40  1  0
 12 41  1  1
 13 42  1  0
 13 43  1  0
 16 44  1  0
 17 45  1  0
 18 46  1  0
 19 47  1  0
 20 48  1  0
 22 49  1  0
 23 50  1  0
 25 51  1  0
 28 52  1  0
 29 53  1  0
M  END
>  <smiles>  (45) 
O=C(NCC(=O)N1CC[C@H](O)[C@H]1COc1ccccc1)c1ccc2cc(Cl)ccc2n1

>  <score_type>  (45) 
oracle

>  <origin>  (45) 
autodockgpu

>  <m_score__min__energy>  (45) 
-8.7100000000000009

>  <m_primary>  (45) 
energy

>  <rmsd>  (45) 
6.7384369118026815

>  <m_score__min__rmsd>  (45) 
6.7384369118026815

>  <meeko>  (45) 
{"free_energy": -7.08, "intermolecular_energy": -9.47, "internal_energy": -2.59, "cluster_size": 1, "cluster_id": 9, "rank_in_cluster": 1}

>  <energy>  (45) 
-5.68

>  <cluster_rmsd>  (45) 
0.98

>  <cluster>  (45) 
12

$$$$

     RDKit          3D

 53 56  0  0  0  0  0  0  0  0999 V2000
  136.3490   71.4100  221.3620 O   0  0  0  0  0  0  0  0  0  0  0  0
  136.7600   71.9490  222.4310 C   0  0  0  0  0  0  0  0  0  0  0  0
  136.5730   73.3580  222.6100 N   0  0  0  0  0  0  0  0  0  0  0  0
  135.9250   74.0920  221.5630 C   0  0  0  0  0  0  0  0  0  0  0  0
  136.7770   74.2060  220.3490 C   0  0  0  0  0  0  0  0  0  0  0  0
  136.2630   74.5870  219.2550 O   0  0  0  0  0  0  0  0  0  0  0  0
  138.1380   73.8850  220.4490 N   0  0  0  0  0  0  0  0  0  0  0  0
  138.9140   72.9860  219.6120 C   0  0  0  0  0  0  0  0  0  0  0  0
  139.7590   72.3010  220.6930 C   0  0  0  0  0  0  0  0  0  0  0  0
  140.2790   73.5160  221.4260 C   0  0  2  0  0  0  0  0  0  0  0  0
  140.6860   73.2210  222.7190 O   0  0  0  0  0  0  0  0  0  0  0  0
  139.0550   74.4080  221.4430 C   0  0  1  0  0  0  0  0  0  0  0  0
  139.5030   75.8130  221.0940 C   0  0  0  0  0  0  0  0  0  0  0  0
  138.9070   76.6540  222.0870 O   0  0  0  0  0  0  0  0  0  0  0  0
  139.6050   77.6870  222.6540 C   0  0  0  0  0  0  0  0  0  0  0  0
  138.9770   78.8070  223.1670 C   0  0  0  0  0  0  0  0  0  0  0  0
  139.6950   79.8240  223.7260 C   0  0  0  0  0  0  0  0  0  0  0  0
  141.0820   79.7380  223.7830 C   0  0  0  0  0  0  0  0  0  0  0  0
  141.7200   78.6070  223.2660 C   0  0  0  0  0  0  0  0  0  0  0  0
  140.9780   77.5940  222.7060 C   0  0  0  0  0  0  0  0  0  0  0  0
  137.4160   71.1680  223.4780 C   0  0  0  0  0  0  0  0  0  0  0  0
  136.7840   70.0150  223.9220 C   0  0  0  0  0  0  0  0  0  0  0  0
  137.3710   69.2350  224.9180 C   0  0  0  0  0  0  0  0  0  0  0  0
  138.5750   69.6350  225.4420 C   0  0  0  0  0  0  0  0  0  0  0  0
  139.1520   68.8520  226.4350 C   0  0  0  0  0  0  0  0  0  0  0  0
  140.3710   69.2670  226.9560 C   0  0  0  0  0  0  0  0  0  0  0  0
  141.1440   68.3310  228.2010 Cl  0  0  0  0  0  0  0  0  0  0  0  0
  140.9690   70.4100  226.4970 C   0  0  0  0  0  0  0  0  0  0  0  0
  140.4010   71.1900  225.5120 C   0  0  0  0  0  0  0  0  0  0  0  0
  139.1850   70.7800  224.9890 C   0  0  0  0  0  0  0  0  0  0  0  0
  138.5950   71.5140  224.0230 N   0  0  0  0  0  0  0  0  0  0  0  0
  136.9220   73.7750  223.5020 H   0  0  0  0  0  0  0  0  0  0  0  0
  134.9913   73.5764  221.2939 H   0  0  0  0  0  0  0  0  0  0  0  0
  135.7271   75.1083  221.9344 H   0  0  0  0  0  0  0  0  0  0  0  0
  138.2742   72.2696  219.0758 H   0  0  0  0  0  0  0  0  0  0  0  0
  139.4863   73.4716  218.8078 H   0  0  0  0  0  0  0  0  0  0  0  0
  139.1469   71.6611  221.3456 H   0  0  0  0  0  0  0  0  0  0  0  0
  140.5355   71.6206  220.3132 H   0  0  0  0  0  0  0  0  0  0  0  0
  141.1675   73.9585  220.9519 H   0  0  0  0  0  0  0  0  0  0  0  0
  139.9660   73.0500  223.3530 H   0  0  0  0  0  0  0  0  0  0  0  0
  138.5566   74.4318  222.4233 H   0  0  0  0  0  0  0  0  0  0  0  0
  140.5997   75.8889  221.1319 H   0  0  0  0  0  0  0  0  0  0  0  0
  139.2004   76.1003  220.0762 H   0  0  0  0  0  0  0  0  0  0  0  0
  137.8802   78.8794  223.1238 H   0  0  0  0  0  0  0  0  0  0  0  0
  139.1792   80.7077  224.1296 H   0  0  0  0  0  0  0  0  0  0  0  0
  141.6710   80.5521  224.2306 H   0  0  0  0  0  0  0  0  0  0  0  0
  142.8163   78.5273  223.3072 H   0  0  0  0  0  0  0  0  0  0  0  0
  141.4829   76.7060  222.2980 H   0  0  0  0  0  0  0  0  0  0  0  0
  135.8186   69.7159  223.4877 H   0  0  0  0  0  0  0  0  0  0  0  0
  136.8795   68.3184  225.2762 H   0  0  0  0  0  0  0  0  0  0  0  0
  138.6607   67.9362  226.7955 H   0  0  0  0  0  0  0  0  0  0  0  0
  141.9337   70.7159  226.9280 H   0  0  0  0  0  0  0  0  0  0  0  0
  140.8955   72.1051  225.1541 H   0  0  0  0  0  0  0  0  0  0  0  0
  1  2  2  0
  2  3  1  0
  3  4  1  0
  4  5  1  0
  5  6  2  0
  5  7  1  0
  7  8  1  0
  8  9  1  0
  9 10  1  0
 10 11  1  0
 10 12  1  0
 12 13  1  0
 13 14  1  0
 14 15  1  0
 15 16  2  0
 16 17  1  0
 17 18  2  0
 18 19  1  0
 19 20  2  0
  2 21  1  0
 21 22  2  0
 22 23  1  0
 23 24  2  0
 24 25  1  0
 25 26  2  0
 26 27  1  0
 26 28  1  0
 28 29  2  0
 29 30  1  0
 30 31  2  0
 12  7  1  0
 20 15  1  0
 31 21  1  0
 30 24  1  0
  3 32  1  0
  4 33  1  0
  4 34  1  0
  8 35  1  0
  8 36  1  0
  9 37  1  0
  9 38  1  0
 10 39  1  6
 11 40  1  0
 12 41  1  1
 13 42  1  0
 13 43  1  0
 16 44  1  0
 17 45  1  0
 18 46  1  0
 19 47  1  0
 20 48  1  0
 22 49  1  0
 23 50  1  0
 25 51  1  0
 28 52  1  0
 29 53  1  0
M  END
>  <smiles>  (46) 
O=C(NCC(=O)N1CC[C@H](O)[C@H]1COc1ccccc1)c1ccc2cc(Cl)ccc2n1

>  <score_type>  (46) 
oracle

>  <origin>  (46) 
autodockgpu

>  <m_score__min__energy>  (46) 
-8.7100000000000009

>  <m_primary>  (46) 
energy

>  <rmsd>  (46) 
3.3114400219189113

>  <m_score__min__rmsd>  (46) 
3.3114400219189113

>  <meeko>  (46) 
{"free_energy": -6.98, "intermolecular_energy": -9.36, "internal_energy": -2.65, "cluster_size": 1, "cluster_id": 10, "rank_in_cluster": 1}

>  <energy>  (46) 
-5.65

>  <cluster_rmsd>  (46) 
1.02

>  <cluster>  (46) 
12

$$$$

     RDKit          3D

 53 56  0  0  0  0  0  0  0  0999 V2000
  138.4700   71.8630  221.0020 O   0  0  0  0  0  0  0  0  0  0  0  0
  138.9550   72.3090  222.0840 C   0  0  0  0  0  0  0  0  0  0  0  0
  139.2000   73.7150  222.2020 N   0  0  0  0  0  0  0  0  0  0  0  0
  138.8820   74.5540  221.0850 C   0  0  0  0  0  0  0  0  0  0  0  0
  139.8270   74.3610  219.9520 C   0  0  0  0  0  0  0  0  0  0  0  0
  139.8080   73.2760  219.2960 O   0  0  0  0  0  0  0  0  0  0  0  0
  140.7220   75.3940  219.6400 N   0  0  0  0  0  0  0  0  0  0  0  0
  140.8470   76.1300  218.3930 C   0  0  0  0  0  0  0  0  0  0  0  0
  142.3750   76.2080  218.2980 C   0  0  0  0  0  0  0  0  0  0  0  0
  142.6950   76.7270  219.6810 C   0  0  2  0  0  0  0  0  0  0  0  0
  144.0050   76.4600  220.0570 O   0  0  0  0  0  0  0  0  0  0  0  0
  141.7250   75.9370  220.5350 C   0  0  1  0  0  0  0  0  0  0  0  0
  141.1100   76.8930  221.5380 C   0  0  0  0  0  0  0  0  0  0  0  0
  141.6560   78.1750  221.2150 O   0  0  0  0  0  0  0  0  0  0  0  0
  141.6980   79.1820  222.1440 C   0  0  0  0  0  0  0  0  0  0  0  0
  140.5650   79.8710  222.5340 C   0  0  0  0  0  0  0  0  0  0  0  0
  140.6310   80.8700  223.4610 C   0  0  0  0  0  0  0  0  0  0  0  0
  141.8580   81.2050  224.0260 C   0  0  0  0  0  0  0  0  0  0  0  0
  143.0050   80.5100  223.6340 C   0  0  0  0  0  0  0  0  0  0  0  0
  142.9160   79.5070  222.6980 C   0  0  0  0  0  0  0  0  0  0  0  0
  139.2670   71.4230  223.2040 C   0  0  0  0  0  0  0  0  0  0  0  0
  138.9030   70.0880  223.0980 C   0  0  0  0  0  0  0  0  0  0  0  0
  139.1800   69.2030  224.1400 C   0  0  0  0  0  0  0  0  0  0  0  0
  139.8130   69.6830  225.2600 C   0  0  0  0  0  0  0  0  0  0  0  0
  140.0840   68.7950  226.2930 C   0  0  0  0  0  0  0  0  0  0  0  0
  140.7260   69.2920  227.4190 C   0  0  0  0  0  0  0  0  0  0  0  0
  141.0920   68.2310  228.7460 Cl  0  0  0  0  0  0  0  0  0  0  0  0
  141.0720   70.6150  227.4930 C   0  0  0  0  0  0  0  0  0  0  0  0
  140.8050   71.5010  226.4710 C   0  0  0  0  0  0  0  0  0  0  0  0
  140.1650   71.0090  225.3440 C   0  0  0  0  0  0  0  0  0  0  0  0
  139.8860   71.8410  224.3200 N   0  0  0  0  0  0  0  0  0  0  0  0
  139.5990   74.0530  223.1060 H   0  0  0  0  0  0  0  0  0  0  0  0
  137.8641   74.3169  220.7420 H   0  0  0  0  0  0  0  0  0  0  0  0
  138.9588   75.6005  221.4152 H   0  0  0  0  0  0  0  0  0  0  0  0
  140.4107   75.5799  217.5462 H   0  0  0  0  0  0  0  0  0  0  0  0
  140.3260   77.0984  218.3664 H   0  0  0  0  0  0  0  0  0  0  0  0
  142.8242   75.2202  218.1181 H   0  0  0  0  0  0  0  0  0  0  0  0
  142.7580   76.8237  217.4708 H   0  0  0  0  0  0  0  0  0  0  0  0
  142.6008   77.8198  219.7642 H   0  0  0  0  0  0  0  0  0  0  0  0
  144.4280   77.1440  220.6070 H   0  0  0  0  0  0  0  0  0  0  0  0
  142.2081   75.1152  221.0840 H   0  0  0  0  0  0  0  0  0  0  0  0
  140.0145   76.9040  221.4393 H   0  0  0  0  0  0  0  0  0  0  0  0
  141.3313   76.6005  222.5750 H   0  0  0  0  0  0  0  0  0  0  0  0
  139.5934   79.6095  222.0894 H   0  0  0  0  0  0  0  0  0  0  0  0
  139.7192   81.4078  223.7602 H   0  0  0  0  0  0  0  0  0  0  0  0
  141.9241   82.0090  224.7738 H   0  0  0  0  0  0  0  0  0  0  0  0
  143.9799   80.7656  224.0747 H   0  0  0  0  0  0  0  0  0  0  0  0
  143.8209   78.9623  222.3906 H   0  0  0  0  0  0  0  0  0  0  0  0
  138.3954   69.7273  222.1912 H   0  0  0  0  0  0  0  0  0  0  0  0
  138.8972   68.1426  224.0660 H   0  0  0  0  0  0  0  0  0  0  0  0
  139.7998   67.7348  226.2214 H   0  0  0  0  0  0  0  0  0  0  0  0
  141.5794   70.9826  228.3971 H   0  0  0  0  0  0  0  0  0  0  0  0
  141.0897   72.5608  226.5471 H   0  0  0  0  0  0  0  0  0  0  0  0
  1  2  2  0
  2  3  1  0
  3  4  1  0
  4  5  1  0
  5  6  2  0
  5  7  1  0
  7  8  1  0
  8  9  1  0
  9 10  1  0
 10 11  1  0
 10 12  1  0
 12 13  1  0
 13 14  1  0
 14 15  1  0
 15 16  2  0
 16 17  1  0
 17 18  2  0
 18 19  1  0
 19 20  2  0
  2 21  1  0
 21 22  2  0
 22 23  1  0
 23 24  2  0
 24 25  1  0
 25 26  2  0
 26 27  1  0
 26 28  1  0
 28 29  2  0
 29 30  1  0
 30 31  2  0
 12  7  1  0
 20 15  1  0
 31 21  1  0
 30 24  1  0
  3 32  1  0
  4 33  1  0
  4 34  1  0
  8 35  1  0
  8 36  1  0
  9 37  1  0
  9 38  1  0
 10 39  1  6
 11 40  1  0
 12 41  1  1
 13 42  1  0
 13 43  1  0
 16 44  1  0
 17 45  1  0
 18 46  1  0
 19 47  1  0
 20 48  1  0
 22 49  1  0
 23 50  1  0
 25 51  1  0
 28 52  1  0
 29 53  1  0
M  END
>  <smiles>  (47) 
O=C(NCC(=O)N1CC[C@H](O)[C@H]1COc1ccccc1)c1ccc2cc(Cl)ccc2n1

>  <score_type>  (47) 
oracle

>  <origin>  (47) 
autodockgpu

>  <m_score__min__energy>  (47) 
-8.7100000000000009

>  <m_primary>  (47) 
energy

>  <rmsd>  (47) 
2.1905355047232975

>  <m_score__min__rmsd>  (47) 
2.1905355047232975

>  <meeko>  (47) 
{"free_energy": -8.25, "intermolecular_energy": -10.64, "internal_energy": -1.39, "cluster_size": 22, "cluster_id": 1, "rank_in_cluster": 6}

>  <energy>  (47) 
-5.65

>  <cluster_rmsd>  (47) 
0.93

>  <cluster>  (47) 
12

$$$$

     RDKit          3D

 53 56  0  0  0  0  0  0  0  0999 V2000
  139.4090   74.7680  220.8800 O   0  0  0  0  0  0  0  0  0  0  0  0
  139.9050   75.7380  221.5250 C   0  0  0  0  0  0  0  0  0  0  0  0
  141.3230   75.7860  221.7150 N   0  0  0  0  0  0  0  0  0  0  0  0
  142.1170   74.7280  221.1640 C   0  0  0  0  0  0  0  0  0  0  0  0
  143.0140   75.2070  220.0780 C   0  0  0  0  0  0  0  0  0  0  0  0
  144.2590   74.9800  220.1460 O   0  0  0  0  0  0  0  0  0  0  0  0
  142.4500   75.9040  219.0000 N   0  0  0  0  0  0  0  0  0  0  0  0
  141.6640   75.3760  217.8990 C   0  0  0  0  0  0  0  0  0  0  0  0
  142.2580   76.1950  216.7470 C   0  0  0  0  0  0  0  0  0  0  0  0
  142.1550   77.5840  217.3370 C   0  0  2  0  0  0  0  0  0  0  0  0
  143.0300   78.4790  216.7370 O   0  0  0  0  0  0  0  0  0  0  0  0
  142.5540   77.3340  218.7760 C   0  0  1  0  0  0  0  0  0  0  0  0
  141.5920   78.1010  219.6610 C   0  0  0  0  0  0  0  0  0  0  0  0
  142.2260   78.1570  220.9430 O   0  0  0  0  0  0  0  0  0  0  0  0
  142.1660   79.2870  221.7150 C   0  0  0  0  0  0  0  0  0  0  0  0
  141.6830   80.4870  221.2270 C   0  0  0  0  0  0  0  0  0  0  0  0
  141.6320   81.5990  222.0160 C   0  0  0  0  0  0  0  0  0  0  0  0
  142.0730   81.5300  223.3340 C   0  0  0  0  0  0  0  0  0  0  0  0
  142.5620   80.3180  223.8290 C   0  0  0  0  0  0  0  0  0  0  0  0
  142.6050   79.2090  223.0180 C   0  0  0  0  0  0  0  0  0  0  0  0
  139.0640   76.8010  222.0730 C   0  0  0  0  0  0  0  0  0  0  0  0
  137.6910   76.6880  221.9190 C   0  0  0  0  0  0  0  0  0  0  0  0
  136.8460   77.6760  222.4260 C   0  0  0  0  0  0  0  0  0  0  0  0
  137.4050   78.7510  223.0710 C   0  0  0  0  0  0  0  0  0  0  0  0
  136.5570   79.7300  223.5720 C   0  0  0  0  0  0  0  0  0  0  0  0
  137.1350   80.8120  224.2240 C   0  0  0  0  0  0  0  0  0  0  0  0
  136.1280   82.0710  224.8730 Cl  0  0  0  0  0  0  0  0  0  0  0  0
  138.4950   80.8940  224.3600 C   0  0  0  0  0  0  0  0  0  0  0  0
  139.3410   79.9250  223.8640 C   0  0  0  0  0  0  0  0  0  0  0  0
  138.7690   78.8440  223.2130 C   0  0  0  0  0  0  0  0  0  0  0  0
  139.5610   77.8720  222.7140 N   0  0  0  0  0  0  0  0  0  0  0  0
  141.7040   76.5990  222.2510 H   0  0  0  0  0  0  0  0  0  0  0  0
  142.7319   74.2921  221.9652 H   0  0  0  0  0  0  0  0  0  0  0  0
  141.4336   73.9813  220.7334 H   0  0  0  0  0  0  0  0  0  0  0  0
  141.8251   74.2967  217.7606 H   0  0  0  0  0  0  0  0  0  0  0  0
  140.5739   75.4606  218.0197 H   0  0  0  0  0  0  0  0  0  0  0  0
  143.3016   75.9144  216.5415 H   0  0  0  0  0  0  0  0  0  0  0  0
  141.7567   76.0638  215.7767 H   0  0  0  0  0  0  0  0  0  0  0  0
  141.1614   78.0370  217.2047 H   0  0  0  0  0  0  0  0  0  0  0  0
  142.9810   79.3940  217.0690 H   0  0  0  0  0  0  0  0  0  0  0  0
  143.5785   77.6659  219.0001 H   0  0  0  0  0  0  0  0  0  0  0  0
  141.4293   79.1148  219.2663 H   0  0  0  0  0  0  0  0  0  0  0  0
  140.6048   77.6183  219.7109 H   0  0  0  0  0  0  0  0  0  0  0  0
  141.3341   80.5462  220.1855 H   0  0  0  0  0  0  0  0  0  0  0  0
  141.2440   82.5457  221.6121 H   0  0  0  0  0  0  0  0  0  0  0  0
  142.0371   82.4200  223.9794 H   0  0  0  0  0  0  0  0  0  0  0  0
  142.9131   80.2514  224.8693 H   0  0  0  0  0  0  0  0  0  0  0  0
  142.9910   78.2568  223.4108 H   0  0  0  0  0  0  0  0  0  0  0  0
  137.2669   75.8180  221.3963 H   0  0  0  0  0  0  0  0  0  0  0  0
  135.7550   77.5951  222.3112 H   0  0  0  0  0  0  0  0  0  0  0  0
  135.4659   79.6515  223.4566 H   0  0  0  0  0  0  0  0  0  0  0  0
  138.9265   81.7609  224.8818 H   0  0  0  0  0  0  0  0  0  0  0  0
  140.4317   80.0072  223.9810 H   0  0  0  0  0  0  0  0  0  0  0  0
  1  2  2  0
  2  3  1  0
  3  4  1  0
  4  5  1  0
  5  6  2  0
  5  7  1  0
  7  8  1  0
  8  9  1  0
  9 10  1  0
 10 11  1  0
 10 12  1  0
 12 13  1  0
 13 14  1  0
 14 15  1  0
 15 16  2  0
 16 17  1  0
 17 18  2  0
 18 19  1  0
 19 20  2  0
  2 21  1  0
 21 22  2  0
 22 23  1  0
 23 24  2  0
 24 25  1  0
 25 26  2  0
 26 27  1  0
 26 28  1  0
 28 29  2  0
 29 30  1  0
 30 31  2  0
 12  7  1  0
 20 15  1  0
 31 21  1  0
 30 24  1  0
  3 32  1  0
  4 33  1  0
  4 34  1  0
  8 35  1  0
  8 36  1  0
  9 37  1  0
  9 38  1  0
 10 39  1  1
 11 40  1  0
 12 41  1  6
 13 42  1  0
 13 43  1  0
 16 44  1  0
 17 45  1  0
 18 46  1  0
 19 47  1  0
 20 48  1  0
 22 49  1  0
 23 50  1  0
 25 51  1  0
 28 52  1  0
 29 53  1  0
M  END
>  <smiles>  (48) 
O=C(NCC(=O)N1CC[C@H](O)[C@H]1COc1ccccc1)c1ccc2cc(Cl)ccc2n1

>  <score_type>  (48) 
oracle

>  <origin>  (48) 
autodockgpu

>  <m_score__min__energy>  (48) 
-8.7100000000000009

>  <m_primary>  (48) 
energy

>  <rmsd>  (48) 
6.782510061500861

>  <m_score__min__rmsd>  (48) 
6.782510061500861

>  <meeko>  (48) 
{"free_energy": -6.06, "intermolecular_energy": -8.45, "internal_energy": -3.41, "cluster_size": 4, "cluster_id": 11, "rank_in_cluster": 3}

>  <energy>  (48) 
-5.64

>  <cluster_rmsd>  (48) 
1.01

>  <cluster>  (48) 
12

$$$$

     RDKit          3D

 53 56  0  0  0  0  0  0  0  0999 V2000
  141.6100   74.8480  218.5900 O   0  0  0  0  0  0  0  0  0  0  0  0
  141.8720   75.7930  219.3900 C   0  0  0  0  0  0  0  0  0  0  0  0
  141.9990   75.4990  220.7860 N   0  0  0  0  0  0  0  0  0  0  0  0
  141.8240   74.1420  221.2110 C   0  0  0  0  0  0  0  0  0  0  0  0
  140.5030   73.9240  221.8600 C   0  0  0  0  0  0  0  0  0  0  0  0
  140.3620   72.9820  222.6960 O   0  0  0  0  0  0  0  0  0  0  0  0
  139.4400   74.7740  221.5230 N   0  0  0  0  0  0  0  0  0  0  0  0
  138.0490   74.4270  221.2890 C   0  0  0  0  0  0  0  0  0  0  0  0
  137.7630   75.3300  220.0840 C   0  0  0  0  0  0  0  0  0  0  0  0
  138.2800   76.6460  220.6170 C   0  0  2  0  0  0  0  0  0  0  0  0
  138.5860   77.5440  219.6030 O   0  0  0  0  0  0  0  0  0  0  0  0
  139.5380   76.2100  221.3390 C   0  0  1  0  0  0  0  0  0  0  0  0
  139.5800   76.9350  222.6690 C   0  0  0  0  0  0  0  0  0  0  0  0
  140.9430   77.3440  222.8280 O   0  0  0  0  0  0  0  0  0  0  0  0
  141.2670   78.6560  223.0520 C   0  0  0  0  0  0  0  0  0  0  0  0
  142.5770   79.0960  223.0800 C   0  0  0  0  0  0  0  0  0  0  0  0
  142.8760   80.4090  223.3040 C   0  0  0  0  0  0  0  0  0  0  0  0
  141.8470   81.3240  223.5090 C   0  0  0  0  0  0  0  0  0  0  0  0
  140.5220   80.8820  223.4810 C   0  0  0  0  0  0  0  0  0  0  0  0
  140.2430   79.5550  223.2540 C   0  0  0  0  0  0  0  0  0  0  0  0
  142.0440   77.1660  218.9200 C   0  0  0  0  0  0  0  0  0  0  0  0
  142.6250   77.3600  217.6760 C   0  0  0  0  0  0  0  0  0  0  0  0
  142.8110   78.6520  217.1830 C   0  0  0  0  0  0  0  0  0  0  0  0
  142.4080   79.7140  217.9550 C   0  0  0  0  0  0  0  0  0  0  0  0
  142.5970   80.9970  217.4570 C   0  0  0  0  0  0  0  0  0  0  0  0
  142.1850   82.0620  218.2470 C   0  0  0  0  0  0  0  0  0  0  0  0
  142.3950   83.6920  217.6800 Cl  0  0  0  0  0  0  0  0  0  0  0  0
  141.6150   81.8380  219.4710 C   0  0  0  0  0  0  0  0  0  0  0  0
  141.4250   80.5670  219.9700 C   0  0  0  0  0  0  0  0  0  0  0  0
  141.8350   79.5000  219.1850 C   0  0  0  0  0  0  0  0  0  0  0  0
  141.6670   78.2400  219.6350 N   0  0  0  0  0  0  0  0  0  0  0  0
  142.2160   76.2990  221.4220 H   0  0  0  0  0  0  0  0  0  0  0  0
  141.9011   73.4829  220.3337 H   0  0  0  0  0  0  0  0  0  0  0  0
  142.6060   73.9155  221.9507 H   0  0  0  0  0  0  0  0  0  0  0  0
  137.9276   73.3620  221.0418 H   0  0  0  0  0  0  0  0  0  0  0  0
  137.3795   74.5690  222.1502 H   0  0  0  0  0  0  0  0  0  0  0  0
  138.3158   75.0057  219.1900 H   0  0  0  0  0  0  0  0  0  0  0  0
  136.7143   75.3433  219.7523 H   0  0  0  0  0  0  0  0  0  0  0  0
  137.5473   77.1754  221.2437 H   0  0  0  0  0  0  0  0  0  0  0  0
  139.5220   77.8090  219.5500 H   0  0  0  0  0  0  0  0  0  0  0  0
  140.4567   76.4457  220.7819 H   0  0  0  0  0  0  0  0  0  0  0  0
  138.9136   77.8100  222.6531 H   0  0  0  0  0  0  0  0  0  0  0  0
  139.2422   76.2955  223.4978 H   0  0  0  0  0  0  0  0  0  0  0  0
  143.3927   78.3757  222.9190 H   0  0  0  0  0  0  0  0  0  0  0  0
  143.9242   80.7422  223.3224 H   0  0  0  0  0  0  0  0  0  0  0  0
  142.0750   82.3846  223.6912 H   0  0  0  0  0  0  0  0  0  0  0  0
  139.7010   81.5965  223.6408 H   0  0  0  0  0  0  0  0  0  0  0  0
  139.1987   79.2101  223.2336 H   0  0  0  0  0  0  0  0  0  0  0  0
  142.9400   76.4933  217.0764 H   0  0  0  0  0  0  0  0  0  0  0  0
  143.2705   78.8164  216.1972 H   0  0  0  0  0  0  0  0  0  0  0  0
  143.0568   81.1634  216.4717 H   0  0  0  0  0  0  0  0  0  0  0  0
  141.2982   82.7001  220.0762 H   0  0  0  0  0  0  0  0  0  0  0  0
  140.9646   80.4051  220.9558 H   0  0  0  0  0  0  0  0  0  0  0  0
  1  2  2  0
  2  3  1  0
  3  4  1  0
  4  5  1  0
  5  6  2  0
  5  7  1  0
  7  8  1  0
  8  9  1  0
  9 10  1  0
 10 11  1  0
 10 12  1  0
 12 13  1  0
 13 14  1  0
 14 15  1  0
 15 16  2  0
 16 17  1  0
 17 18  2  0
 18 19  1  0
 19 20  2  0
  2 21  1  0
 21 22  2  0
 22 23  1  0
 23 24  2  0
 24 25  1  0
 25 26  2  0
 26 27  1  0
 26 28  1  0
 28 29  2  0
 29 30  1  0
 30 31  2  0
 12  7  1  0
 20 15  1  0
 31 21  1  0
 30 24  1  0
  3 32  1  0
  4 33  1  0
  4 34  1  0
  8 35  1  0
  8 36  1  0
  9 37  1  0
  9 38  1  0
 10 39  1  1
 11 40  1  0
 12 41  1  6
 13 42  1  0
 13 43  1  0
 16 44  1  0
 17 45  1  0
 18 46  1  0
 19 47  1  0
 20 48  1  0
 22 49  1  0
 23 50  1  0
 25 51  1  0
 28 52  1  0
 29 53  1  0
M  END
>  <smiles>  (49) 
O=C(NCC(=O)N1CC[C@H](O)[C@H]1COc1ccccc1)c1ccc2cc(Cl)ccc2n1

>  <score_type>  (49) 
oracle

>  <origin>  (49) 
autodockgpu

>  <m_score__min__energy>  (49) 
-8.7100000000000009

>  <m_primary>  (49) 
energy

>  <rmsd>  (49) 
8.703457844505605

>  <m_score__min__rmsd>  (49) 
8.703457844505605

>  <meeko>  (49) 
{"free_energy": -5.92, "intermolecular_energy": -8.31, "internal_energy": -3.92, "cluster_size": 5, "cluster_id": 12, "rank_in_cluster": 1}

>  <energy>  (49) 
-5.84

>  <cluster_rmsd>  (49) 
0.0

>  <cluster>  (49) 
13

$$$$

     RDKit          3D

 53 56  0  0  0  0  0  0  0  0999 V2000
  138.4650   72.7510  220.9620 O   0  0  0  0  0  0  0  0  0  0  0  0
  138.1540   73.6740  221.7710 C   0  0  0  0  0  0  0  0  0  0  0  0
  136.9560   73.5390  222.5430 N   0  0  0  0  0  0  0  0  0  0  0  0
  136.1630   72.3600  222.3620 C   0  0  0  0  0  0  0  0  0  0  0  0
  136.4300   71.3390  223.4110 C   0  0  0  0  0  0  0  0  0  0  0  0
  135.8710   71.4420  224.5440 O   0  0  0  0  0  0  0  0  0  0  0  0
  137.3010   70.2820  223.1140 N   0  0  0  0  0  0  0  0  0  0  0  0
  137.2550   69.3670  221.9860 C   0  0  0  0  0  0  0  0  0  0  0  0
  137.6110   68.0610  222.7060 C   0  0  0  0  0  0  0  0  0  0  0  0
  138.8500   68.5040  223.4500 C   0  0  2  0  0  0  0  0  0  0  0  0
  139.1320   67.6920  224.5410 O   0  0  0  0  0  0  0  0  0  0  0  0
  138.4510   69.8910  223.9070 C   0  0  1  0  0  0  0  0  0  0  0  0
  139.6280   70.8140  223.6620 C   0  0  0  0  0  0  0  0  0  0  0  0
  140.6870   70.2920  224.4710 O   0  0  0  0  0  0  0  0  0  0  0  0
  140.8340   70.6730  225.7790 C   0  0  0  0  0  0  0  0  0  0  0  0
  141.3010   71.9250  226.1330 C   0  0  0  0  0  0  0  0  0  0  0  0
  141.4390   72.2830  227.4430 C   0  0  0  0  0  0  0  0  0  0  0  0
  141.1060   71.3750  228.4430 C   0  0  0  0  0  0  0  0  0  0  0  0
  140.6330   70.1090  228.0880 C   0  0  0  0  0  0  0  0  0  0  0  0
  140.5020   69.7690  226.7630 C   0  0  0  0  0  0  0  0  0  0  0  0
  138.9880   74.8640  221.9300 C   0  0  0  0  0  0  0  0  0  0  0  0
  140.3200   74.7800  221.5520 C   0  0  0  0  0  0  0  0  0  0  0  0
  141.1560   75.8890  221.6830 C   0  0  0  0  0  0  0  0  0  0  0  0
  140.6310   77.0510  222.1920 C   0  0  0  0  0  0  0  0  0  0  0  0
  141.4710   78.1510  222.3200 C   0  0  0  0  0  0  0  0  0  0  0  0
  140.9270   79.3200  222.8350 C   0  0  0  0  0  0  0  0  0  0  0  0
  141.9270   80.7310  223.0210 Cl  0  0  0  0  0  0  0  0  0  0  0  0
  139.6090   79.3720  223.1990 C   0  0  0  0  0  0  0  0  0  0  0  0
  138.7710   78.2840  223.0740 C   0  0  0  0  0  0  0  0  0  0  0  0
  139.3090   77.1140  222.5600 C   0  0  0  0  0  0  0  0  0  0  0  0
  138.5240   76.0260  222.4210 N   0  0  0  0  0  0  0  0  0  0  0  0
  136.7250   74.3160  223.2030 H   0  0  0  0  0  0  0  0  0  0  0  0
  135.0995   72.6385  222.4007 H   0  0  0  0  0  0  0  0  0  0  0  0
  136.4257   71.9215  221.3880 H   0  0  0  0  0  0  0  0  0  0  0  0
  136.2541   69.3256  221.5316 H   0  0  0  0  0  0  0  0  0  0  0  0
  137.9097   69.6303  221.1422 H   0  0  0  0  0  0  0  0  0  0  0  0
  136.8134   67.7428  223.3934 H   0  0  0  0  0  0  0  0  0  0  0  0
  137.7509   67.1910  222.0476 H   0  0  0  0  0  0  0  0  0  0  0  0
  139.7606   68.4642  222.8342 H   0  0  0  0  0  0  0  0  0  0  0  0
  139.8990   67.9650  225.0750 H   0  0  0  0  0  0  0  0  0  0  0  0
  138.1896   69.9308  224.9747 H   0  0  0  0  0  0  0  0  0  0  0  0
  139.9126   70.8030  222.5995 H   0  0  0  0  0  0  0  0  0  0  0  0
  139.3923   71.8581  223.9157 H   0  0  0  0  0  0  0  0  0  0  0  0
  141.5661   72.6455  225.3452 H   0  0  0  0  0  0  0  0  0  0  0  0
  141.8114   73.2839  227.7065 H   0  0  0  0  0  0  0  0  0  0  0  0
  141.2140   71.6509  229.5024 H   0  0  0  0  0  0  0  0  0  0  0  0
  140.3651   69.3835  228.8703 H   0  0  0  0  0  0  0  0  0  0  0  0
  140.1305   68.7709  226.4875 H   0  0  0  0  0  0  0  0  0  0  0  0
  140.7177   73.8372  221.1483 H   0  0  0  0  0  0  0  0  0  0  0  0
  142.2134   75.8337  221.3848 H   0  0  0  0  0  0  0  0  0  0  0  0
  142.5290   78.0973  222.0239 H   0  0  0  0  0  0  0  0  0  0  0  0
  139.2051   80.3115  223.6042 H   0  0  0  0  0  0  0  0  0  0  0  0
  137.7136   78.3422  223.3714 H   0  0  0  0  0  0  0  0  0  0  0  0
  1  2  2  0
  2  3  1  0
  3  4  1  0
  4  5  1  0
  5  6  2  0
  5  7  1  0
  7  8  1  0
  8  9  1  0
  9 10  1  0
 10 11  1  0
 10 12  1  0
 12 13  1  0
 13 14  1  0
 14 15  1  0
 15 16  2  0
 16 17  1  0
 17 18  2  0
 18 19  1  0
 19 20  2  0
  2 21  1  0
 21 22  2  0
 22 23  1  0
 23 24  2  0
 24 25  1  0
 25 26  2  0
 26 27  1  0
 26 28  1  0
 28 29  2  0
 29 30  1  0
 30 31  2  0
 12  7  1  0
 20 15  1  0
 31 21  1  0
 30 24  1  0
  3 32  1  0
  4 33  1  0
  4 34  1  0
  8 35  1  0
  8 36  1  0
  9 37  1  0
  9 38  1  0
 10 39  1  6
 11 40  1  0
 12 41  1  1
 13 42  1  0
 13 43  1  0
 16 44  1  0
 17 45  1  0
 18 46  1  0
 19 47  1  0
 20 48  1  0
 22 49  1  0
 23 50  1  0
 25 51  1  0
 28 52  1  0
 29 53  1  0
M  END
>  <smiles>  (50) 
O=C(NCC(=O)N1CC[C@H](O)[C@H]1COc1ccccc1)c1ccc2cc(Cl)ccc2n1

>  <score_type>  (50) 
oracle

>  <origin>  (50) 
autodockgpu

>  <m_score__min__energy>  (50) 
-8.7100000000000009

>  <m_primary>  (50) 
energy

>  <rmsd>  (50) 
7.876758232011431

>  <m_score__min__rmsd>  (50) 
7.876758232011431

>  <meeko>  (50) 
{"free_energy": -7.72, "intermolecular_energy": -10.11, "internal_energy": -2.06, "cluster_size": 5, "cluster_id": 2, "rank_in_cluster": 2}

>  <energy>  (50) 
-5.4

>  <cluster_rmsd>  (50) 
0.0

>  <cluster>  (50) 
14

$$$$
