
     RDKit          3D

 45 48  0  0  0  0  0  0  0  0999 V2000
  141.1520   72.0320  221.3530 O   0  0  0  0  0  0  0  0  0  0  0  0
  140.4570   72.4180  222.3360 C   0  0  0  0  0  0  0  0  0  0  0  0
  139.8680   73.7250  222.2830 N   0  0  0  0  0  0  0  0  0  0  0  0
  140.1110   74.5070  221.1070 C   0  0  0  0  0  0  0  0  0  0  0  0
  139.1280   75.6110  220.9470 C   0  0  0  0  0  0  0  0  0  0  0  0
  138.0890   75.5170  220.2440 O   0  0  0  0  0  0  0  0  0  0  0  0
  139.3810   76.8350  221.6240 N   0  0  0  0  0  0  0  0  0  0  0  0
  138.3840   77.4980  222.4450 C   0  0  0  0  0  0  0  0  0  0  0  0
  139.1020   78.6740  223.0740 C   0  0  0  0  0  0  0  0  0  0  0  0
  140.5430   78.2100  223.0300 C   0  0  2  0  0  0  0  0  0  0  0  0
  141.5130   79.2980  223.2100 C   0  0  0  0  0  0  0  0  0  0  0  0
  141.3570   80.4630  223.8640 N   0  0  0  0  0  0  0  0  0  0  0  0
  142.4820   81.2000  223.8040 C   0  0  0  0  0  0  0  0  0  0  0  0
  143.3670   80.4230  223.0650 C   0  0  0  0  0  0  0  0  0  0  0  0
  142.7640   79.2740  222.7130 N   0  0  0  0  0  0  0  0  0  0  0  0
  140.6010   77.6190  221.6360 C   0  0  0  0  0  0  0  0  0  0  0  0
  140.2470   71.5710  223.5070 C   0  0  0  0  0  0  0  0  0  0  0  0
  139.5590   70.3850  223.3390 C   0  0  0  0  0  0  0  0  0  0  0  0
  139.3420   69.5590  224.4250 C   0  0  0  0  0  0  0  0  0  0  0  0
  139.8180   69.9310  225.6720 C   0  0  0  0  0  0  0  0  0  0  0  0
  139.6250   69.1390  226.7800 C   0  0  0  0  0  0  0  0  0  0  0  0
  140.1080   69.5310  228.0030 C   0  0  0  0  0  0  0  0  0  0  0  0
  139.9550   68.8010  229.1410 F   0  0  0  0  0  0  0  0  0  0  0  0
  140.7980   70.7300  228.1490 C   0  0  0  0  0  0  0  0  0  0  0  0
  140.9990   71.5320  227.0490 C   0  0  0  0  0  0  0  0  0  0  0  0
  140.5080   71.1250  225.8250 C   0  0  0  0  0  0  0  0  0  0  0  0
  140.6870   71.8830  224.7350 N   0  0  0  0  0  0  0  0  0  0  0  0
  139.2860   74.0500  223.1050 H   0  0  0  0  0  0  0  0  0  0  0  0
  141.1203   74.9395  221.1727 H   0  0  0  0  0  0  0  0  0  0  0  0
  140.0131   73.8422  220.2361 H   0  0  0  0  0  0  0  0  0  0  0  0
  137.5442   77.8458  221.8256 H   0  0  0  0  0  0  0  0  0  0  0  0
  137.9617   76.8221  223.2032 H   0  0  0  0  0  0  0  0  0  0  0  0
  138.9581   79.5929  222.4868 H   0  0  0  0  0  0  0  0  0  0  0  0
  138.7446   78.9291  224.0826 H   0  0  0  0  0  0  0  0  0  0  0  0
  140.8098   77.5164  223.8410 H   0  0  0  0  0  0  0  0  0  0  0  0
  142.6608   82.1934  224.2413 H   0  0  0  0  0  0  0  0  0  0  0  0
  144.3990   80.7043  222.8085 H   0  0  0  0  0  0  0  0  0  0  0  0
  143.2170   78.5070  222.1450 H   0  0  0  0  0  0  0  0  0  0  0  0
  140.5871   78.4017  220.8633 H   0  0  0  0  0  0  0  0  0  0  0  0
  141.5143   77.0446  221.4218 H   0  0  0  0  0  0  0  0  0  0  0  0
  139.1854   70.0994  222.3446 H   0  0  0  0  0  0  0  0  0  0  0  0
  138.7952   68.6127  224.3006 H   0  0  0  0  0  0  0  0  0  0  0  0
  139.0812   68.1875  226.6852 H   0  0  0  0  0  0  0  0  0  0  0  0
  141.1795   71.0343  229.1348 H   0  0  0  0  0  0  0  0  0  0  0  0
  141.5429   72.4834  227.1438 H   0  0  0  0  0  0  0  0  0  0  0  0
  1  2  2  0
  2  3  1  0
  3  4  1  0
  4  5  1  0
  5  6  2  0
  5  7  1  0
  7  8  1  0
  8  9  1  0
  9 10  1  0
 10 11  1  0
 11 12  2  0
 12 13  1  0
 13 14  2  0
 14 15  1  0
 10 16  1  0
  2 17  1  0
 17 18  2  0
 18 19  1  0
 19 20  2  0
 20 21  1  0
 21 22  2  0
 22 23  1  0
 22 24  1  0
 24 25  2  0
 25 26  1  0
 26 27  2  0
 16  7  1  0
 27 17  1  0
 15 11  1  0
 26 20  1  0
  3 28  1  0
  4 29  1  0
  4 30  1  0
  8 31  1  0
  8 32  1  0
  9 33  1  0
  9 34  1  0
 10 35  1  1
 13 36  1  0
 14 37  1  0
 15 38  1  0
 16 39  1  0
 16 40  1  0
 18 41  1  0
 19 42  1  0
 21 43  1  0
 24 44  1  0
 25 45  1  0
M  END
>  <smiles>  (1) 
O=C(NCC(=O)N1CC[C@H](c2ncc[nH]2)C1)c1ccc2cc(F)ccc2n1

>  <score_type>  (1) 
oracle

>  <origin>  (1) 
autodockgpu

>  <m_score__min__energy>  (1) 
-8.7300000000000004

>  <m_primary>  (1) 
energy

>  <rmsd>  (1) 
3.341824101291074

>  <m_score__min__rmsd>  (1) 
3.341824101291074

>  <meeko>  (1) 
{"free_energy": -8.5, "intermolecular_energy": -9.99, "internal_energy": -0.8, "cluster_size": 48, "cluster_id": 1, "rank_in_cluster": 10}

>  <energy>  (1) 
-8.73

>  <cluster_rmsd>  (1) 
0.0

>  <cluster>  (1) 
1

$$$$

     RDKit          3D

 45 48  0  0  0  0  0  0  0  0999 V2000
  140.0570   70.8700  221.3960 O   0  0  0  0  0  0  0  0  0  0  0  0
  139.8000   71.5530  222.4290 C   0  0  0  0  0  0  0  0  0  0  0  0
  139.2210   72.8540  222.2570 N   0  0  0  0  0  0  0  0  0  0  0  0
  138.9720   73.2910  220.9150 C   0  0  0  0  0  0  0  0  0  0  0  0
  138.6890   74.7480  220.8350 C   0  0  0  0  0  0  0  0  0  0  0  0
  137.5490   75.2200  220.5890 O   0  0  0  0  0  0  0  0  0  0  0  0
  139.7660   75.6510  221.0480 N   0  0  0  0  0  0  0  0  0  0  0  0
  140.9390   75.6880  220.1960 C   0  0  0  0  0  0  0  0  0  0  0  0
  141.7570   76.8630  220.6900 C   0  0  0  0  0  0  0  0  0  0  0  0
  140.6940   77.7170  221.3500 C   0  0  2  0  0  0  0  0  0  0  0  0
  141.2410   78.7310  222.2610 C   0  0  0  0  0  0  0  0  0  0  0  0
  140.5980   79.4600  223.1890 N   0  0  0  0  0  0  0  0  0  0  0  0
  141.4500   80.2860  223.8250 C   0  0  0  0  0  0  0  0  0  0  0  0
  142.6840   80.0320  223.2350 C   0  0  0  0  0  0  0  0  0  0  0  0
  142.5390   79.0860  222.2900 N   0  0  0  0  0  0  0  0  0  0  0  0
  139.9040   76.6540  222.0870 C   0  0  0  0  0  0  0  0  0  0  0  0
  140.0780   71.0500  223.7710 C   0  0  0  0  0  0  0  0  0  0  0  0
  140.7080   71.8930  224.6660 C   0  0  0  0  0  0  0  0  0  0  0  0
  140.9870   71.4490  225.9440 C   0  0  0  0  0  0  0  0  0  0  0  0
  140.6300   70.1630  226.3140 C   0  0  0  0  0  0  0  0  0  0  0  0
  140.8880   69.6800  227.5760 C   0  0  0  0  0  0  0  0  0  0  0  0
  140.5230   68.4020  227.9160 C   0  0  0  0  0  0  0  0  0  0  0  0
  140.7450   67.8580  229.1440 F   0  0  0  0  0  0  0  0  0  0  0  0
  139.8890   67.5700  226.9990 C   0  0  0  0  0  0  0  0  0  0  0  0
  139.6250   68.0400  225.7330 C   0  0  0  0  0  0  0  0  0  0  0  0
  139.9970   69.3280  225.4040 C   0  0  0  0  0  0  0  0  0  0  0  0
  139.7540   69.8150  224.1800 N   0  0  0  0  0  0  0  0  0  0  0  0
  139.0050   73.4290  223.1200 H   0  0  0  0  0  0  0  0  0  0  0  0
  139.8578   73.0693  220.3016 H   0  0  0  0  0  0  0  0  0  0  0  0
  138.0829   72.7568  220.5487 H   0  0  0  0  0  0  0  0  0  0  0  0
  141.5121   74.7537  220.2891 H   0  0  0  0  0  0  0  0  0  0  0  0
  140.6708   75.7934  219.1344 H   0  0  0  0  0  0  0  0  0  0  0  0
  142.5220   76.5440  221.4132 H   0  0  0  0  0  0  0  0  0  0  0  0
  142.3202   77.3805  219.8995 H   0  0  0  0  0  0  0  0  0  0  0  0
  140.1104   78.3236  220.6419 H   0  0  0  0  0  0  0  0  0  0  0  0
  141.2218   81.0005  224.6296 H   0  0  0  0  0  0  0  0  0  0  0  0
  143.6299   80.5271  223.4998 H   0  0  0  0  0  0  0  0  0  0  0  0
  143.3240   78.7110  221.6910 H   0  0  0  0  0  0  0  0  0  0  0  0
  140.4584   76.2655  222.9540 H   0  0  0  0  0  0  0  0  0  0  0  0
  138.9518   77.0054  222.5111 H   0  0  0  0  0  0  0  0  0  0  0  0
  140.9861   72.9130  224.3624 H   0  0  0  0  0  0  0  0  0  0  0  0
  141.4895   72.1126  226.6632 H   0  0  0  0  0  0  0  0  0  0  0  0
  141.3892   70.3214  228.3158 H   0  0  0  0  0  0  0  0  0  0  0  0
  139.6017   66.5469  227.2830 H   0  0  0  0  0  0  0  0  0  0  0  0
  139.1243   67.3981  224.9932 H   0  0  0  0  0  0  0  0  0  0  0  0
  1  2  2  0
  2  3  1  0
  3  4  1  0
  4  5  1  0
  5  6  2  0
  5  7  1  0
  7  8  1  0
  8  9  1  0
  9 10  1  0
 10 11  1  0
 11 12  2  0
 12 13  1  0
 13 14  2  0
 14 15  1  0
 10 16  1  0
  2 17  1  0
 17 18  2  0
 18 19  1  0
 19 20  2  0
 20 21  1  0
 21 22  2  0
 22 23  1  0
 22 24  1  0
 24 25  2  0
 25 26  1  0
 26 27  2  0
 16  7  1  0
 27 17  1  0
 15 11  1  0
 26 20  1  0
  3 28  1  0
  4 29  1  0
  4 30  1  0
  8 31  1  0
  8 32  1  0
  9 33  1  0
  9 34  1  0
 10 35  1  6
 13 36  1  0
 14 37  1  0
 15 38  1  0
 16 39  1  0
 16 40  1  0
 18 41  1  0
 19 42  1  0
 21 43  1  0
 24 44  1  0
 25 45  1  0
M  END
>  <smiles>  (2) 
O=C(NCC(=O)N1CC[C@H](c2ncc[nH]2)C1)c1ccc2cc(F)ccc2n1

>  <score_type>  (2) 
oracle

>  <origin>  (2) 
autodockgpu

>  <m_score__min__energy>  (2) 
-8.7300000000000004

>  <m_primary>  (2) 
energy

>  <rmsd>  (2) 
3.1978364721342114

>  <m_score__min__rmsd>  (2) 
3.1978364721342114

>  <meeko>  (2) 
{"free_energy": -7.85, "intermolecular_energy": -9.34, "internal_energy": -0.8, "cluster_size": 48, "cluster_id": 1, "rank_in_cluster": 39}

>  <energy>  (2) 
-8.71

>  <cluster_rmsd>  (2) 
0.16

>  <cluster>  (2) 
1

$$$$

     RDKit          3D

 45 48  0  0  0  0  0  0  0  0999 V2000
  141.3950   72.3350  221.6760 O   0  0  0  0  0  0  0  0  0  0  0  0
  140.4700   72.5050  222.5210 C   0  0  0  0  0  0  0  0  0  0  0  0
  139.5950   73.6290  222.3550 N   0  0  0  0  0  0  0  0  0  0  0  0
  139.8320   74.4860  221.2320 C   0  0  0  0  0  0  0  0  0  0  0  0
  139.1030   75.7780  221.3390 C   0  0  0  0  0  0  0  0  0  0  0  0
  137.8510   75.8610  221.4320 O   0  0  0  0  0  0  0  0  0  0  0  0
  139.8640   76.9780  221.3340 N   0  0  0  0  0  0  0  0  0  0  0  0
  139.9230   77.8650  220.1880 C   0  0  0  0  0  0  0  0  0  0  0  0
  140.7220   79.0660  220.6510 C   0  0  0  0  0  0  0  0  0  0  0  0
  140.5110   79.0120  222.1500 C   0  0  2  0  0  0  0  0  0  0  0  0
  141.4810   79.8150  222.9070 C   0  0  0  0  0  0  0  0  0  0  0  0
  142.7960   79.5980  223.0800 N   0  0  0  0  0  0  0  0  0  0  0  0
  143.3440   80.5630  223.8420 C   0  0  0  0  0  0  0  0  0  0  0  0
  142.2830   81.4120  224.1420 C   0  0  0  0  0  0  0  0  0  0  0  0
  141.1620   80.9440  223.5670 N   0  0  0  0  0  0  0  0  0  0  0  0
  140.6820   77.5260  222.3990 C   0  0  0  0  0  0  0  0  0  0  0  0
  140.2810   71.5930  223.6450 C   0  0  0  0  0  0  0  0  0  0  0  0
  139.6390   70.3930  223.4110 C   0  0  0  0  0  0  0  0  0  0  0  0
  139.4430   69.5060  224.4520 C   0  0  0  0  0  0  0  0  0  0  0  0
  139.8940   69.8320  225.7210 C   0  0  0  0  0  0  0  0  0  0  0  0
  139.7200   68.9790  226.7860 C   0  0  0  0  0  0  0  0  0  0  0  0
  140.1770   69.3260  228.0320 C   0  0  0  0  0  0  0  0  0  0  0  0
  140.0410   68.5340  229.1300 F   0  0  0  0  0  0  0  0  0  0  0  0
  140.8210   70.5400  228.2460 C   0  0  0  0  0  0  0  0  0  0  0  0
  141.0020   71.4030  227.1890 C   0  0  0  0  0  0  0  0  0  0  0  0
  140.5370   71.0410  225.9410 C   0  0  0  0  0  0  0  0  0  0  0  0
  140.6980   71.8590  224.8920 N   0  0  0  0  0  0  0  0  0  0  0  0
  138.8200   73.7740  223.0610 H   0  0  0  0  0  0  0  0  0  0  0  0
  140.9103   74.6934  221.1677 H   0  0  0  0  0  0  0  0  0  0  0  0
  139.4659   73.9686  220.3330 H   0  0  0  0  0  0  0  0  0  0  0  0
  140.4256   77.3704  219.3437 H   0  0  0  0  0  0  0  0  0  0  0  0
  138.9197   78.1505  219.8390 H   0  0  0  0  0  0  0  0  0  0  0  0
  141.7861   78.9646  220.3914 H   0  0  0  0  0  0  0  0  0  0  0  0
  140.4120   80.0150  220.1892 H   0  0  0  0  0  0  0  0  0  0  0  0
  139.5484   79.4317  222.4773 H   0  0  0  0  0  0  0  0  0  0  0  0
  144.3937   80.6588  224.1566 H   0  0  0  0  0  0  0  0  0  0  0  0
  142.3512   82.3235  224.7540 H   0  0  0  0  0  0  0  0  0  0  0  0
  140.2130   81.4020  223.6410 H   0  0  0  0  0  0  0  0  0  0  0  0
  141.7333   77.2173  222.3021 H   0  0  0  0  0  0  0  0  0  0  0  0
  140.3964   77.1969  223.4090 H   0  0  0  0  0  0  0  0  0  0  0  0
  139.2850   70.1443  222.3996 H   0  0  0  0  0  0  0  0  0  0  0  0
  138.9326   68.5479  224.2747 H   0  0  0  0  0  0  0  0  0  0  0  0
  139.2122   68.0145  226.6379 H   0  0  0  0  0  0  0  0  0  0  0  0
  141.1821   70.8079  229.2499 H   0  0  0  0  0  0  0  0  0  0  0  0
  141.5100   72.3674  227.3369 H   0  0  0  0  0  0  0  0  0  0  0  0
  1  2  2  0
  2  3  1  0
  3  4  1  0
  4  5  1  0
  5  6  2  0
  5  7  1  0
  7  8  1  0
  8  9  1  0
  9 10  1  0
 10 11  1  0
 11 12  2  0
 12 13  1  0
 13 14  2  0
 14 15  1  0
 10 16  1  0
  2 17  1  0
 17 18  2  0
 18 19  1  0
 19 20  2  0
 20 21  1  0
 21 22  2  0
 22 23  1  0
 22 24  1  0
 24 25  2  0
 25 26  1  0
 26 27  2  0
 16  7  1  0
 27 17  1  0
 15 11  1  0
 26 20  1  0
  3 28  1  0
  4 29  1  0
  4 30  1  0
  8 31  1  0
  8 32  1  0
  9 33  1  0
  9 34  1  0
 10 35  1  6
 13 36  1  0
 14 37  1  0
 15 38  1  0
 16 39  1  0
 16 40  1  0
 18 41  1  0
 19 42  1  0
 21 43  1  0
 24 44  1  0
 25 45  1  0
M  END
>  <smiles>  (3) 
O=C(NCC(=O)N1CC[C@H](c2ncc[nH]2)C1)c1ccc2cc(F)ccc2n1

>  <score_type>  (3) 
oracle

>  <origin>  (3) 
autodockgpu

>  <m_score__min__energy>  (3) 
-8.7300000000000004

>  <m_primary>  (3) 
energy

>  <rmsd>  (3) 
2.923761781758779

>  <m_score__min__rmsd>  (3) 
2.923761781758779

>  <meeko>  (3) 
{"free_energy": -7.83, "intermolecular_energy": -9.32, "internal_energy": -0.84, "cluster_size": 48, "cluster_id": 1, "rank_in_cluster": 43}

>  <energy>  (3) 
-8.69

>  <cluster_rmsd>  (3) 
0.26

>  <cluster>  (3) 
1

$$$$

     RDKit          3D

 45 48  0  0  0  0  0  0  0  0999 V2000
  139.1220   71.3290  221.1330 O   0  0  0  0  0  0  0  0  0  0  0  0
  139.3110   71.8580  222.2650 C   0  0  0  0  0  0  0  0  0  0  0  0
  139.3080   73.2900  222.3570 N   0  0  0  0  0  0  0  0  0  0  0  0
  139.0870   74.0250  221.1470 C   0  0  0  0  0  0  0  0  0  0  0  0
  140.2720   74.8300  220.7480 C   0  0  0  0  0  0  0  0  0  0  0  0
  141.2740   74.3460  220.1630 O   0  0  0  0  0  0  0  0  0  0  0  0
  140.2660   76.2200  221.0470 N   0  0  0  0  0  0  0  0  0  0  0  0
  139.1130   77.0690  220.8110 C   0  0  0  0  0  0  0  0  0  0  0  0
  139.4860   78.4200  221.3850 C   0  0  0  0  0  0  0  0  0  0  0  0
  140.5390   78.0370  222.4050 C   0  0  2  0  0  0  0  0  0  0  0  0
  141.3670   79.1690  222.8440 C   0  0  0  0  0  0  0  0  0  0  0  0
  141.0640   80.1390  223.7240 N   0  0  0  0  0  0  0  0  0  0  0  0
  142.0900   81.0000  223.8590 C   0  0  0  0  0  0  0  0  0  0  0  0
  143.0690   80.5090  223.0020 C   0  0  0  0  0  0  0  0  0  0  0  0
  142.6150   79.4000  222.3950 N   0  0  0  0  0  0  0  0  0  0  0  0
  141.3360   77.0210  221.6110 C   0  0  0  0  0  0  0  0  0  0  0  0
  139.5300   71.0520  223.4630 C   0  0  0  0  0  0  0  0  0  0  0  0
  139.1620   69.7210  223.4280 C   0  0  0  0  0  0  0  0  0  0  0  0
  139.3540   68.9280  224.5430 C   0  0  0  0  0  0  0  0  0  0  0  0
  139.9150   69.4780  225.6840 C   0  0  0  0  0  0  0  0  0  0  0  0
  140.1250   68.7260  226.8160 C   0  0  0  0  0  0  0  0  0  0  0  0
  140.6830   69.2960  227.9320 C   0  0  0  0  0  0  0  0  0  0  0  0
  140.9200   68.6150  229.0870 F   0  0  0  0  0  0  0  0  0  0  0  0
  141.0460   70.6390  227.9450 C   0  0  0  0  0  0  0  0  0  0  0  0
  140.8420   71.4040  226.8190 C   0  0  0  0  0  0  0  0  0  0  0  0
  140.2800   70.8170  225.7040 C   0  0  0  0  0  0  0  0  0  0  0  0
  140.0690   71.5340  224.5920 N   0  0  0  0  0  0  0  0  0  0  0  0
  139.4660   73.7360  223.3040 H   0  0  0  0  0  0  0  0  0  0  0  0
  138.8544   73.3148  220.3398 H   0  0  0  0  0  0  0  0  0  0  0  0
  138.2536   74.7206  221.3247 H   0  0  0  0  0  0  0  0  0  0  0  0
  138.9096   77.1514  219.7331 H   0  0  0  0  0  0  0  0  0  0  0  0
  138.2031   76.6630  221.2770 H   0  0  0  0  0  0  0  0  0  0  0  0
  139.8990   79.0845  220.6118 H   0  0  0  0  0  0  0  0  0  0  0  0
  138.6364   78.9774  221.8064 H   0  0  0  0  0  0  0  0  0  0  0  0
  140.1230   77.6647  223.3528 H   0  0  0  0  0  0  0  0  0  0  0  0
  142.1422   81.8909  224.5021 H   0  0  0  0  0  0  0  0  0  0  0  0
  144.0606   80.9587  222.8456 H   0  0  0  0  0  0  0  0  0  0  0  0
  143.1630   78.8320  221.6920 H   0  0  0  0  0  0  0  0  0  0  0  0
  141.9386   77.5022  220.8266 H   0  0  0  0  0  0  0  0  0  0  0  0
  142.0684   76.4523  222.2027 H   0  0  0  0  0  0  0  0  0  0  0  0
  138.7181   69.2944  222.5165 H   0  0  0  0  0  0  0  0  0  0  0  0
  139.0634   67.8672  224.5248 H   0  0  0  0  0  0  0  0  0  0  0  0
  139.8442   67.6625  226.8266 H   0  0  0  0  0  0  0  0  0  0  0  0
  141.4917   71.0851  228.8463 H   0  0  0  0  0  0  0  0  0  0  0  0
  141.1228   72.4675  226.8083 H   0  0  0  0  0  0  0  0  0  0  0  0
  1  2  2  0
  2  3  1  0
  3  4  1  0
  4  5  1  0
  5  6  2  0
  5  7  1  0
  7  8  1  0
  8  9  1  0
  9 10  1  0
 10 11  1  0
 11 12  2  0
 12 13  1  0
 13 14  2  0
 14 15  1  0
 10 16  1  0
  2 17  1  0
 17 18  2  0
 18 19  1  0
 19 20  2  0
 20 21  1  0
 21 22  2  0
 22 23  1  0
 22 24  1  0
 24 25  2  0
 25 26  1  0
 26 27  2  0
 16  7  1  0
 27 17  1  0
 15 11  1  0
 26 20  1  0
  3 28  1  0
  4 29  1  0
  4 30  1  0
  8 31  1  0
  8 32  1  0
  9 33  1  0
  9 34  1  0
 10 35  1  1
 13 36  1  0
 14 37  1  0
 15 38  1  0
 16 39  1  0
 16 40  1  0
 18 41  1  0
 19 42  1  0
 21 43  1  0
 24 44  1  0
 25 45  1  0
M  END
>  <smiles>  (4) 
O=C(NCC(=O)N1CC[C@H](c2ncc[nH]2)C1)c1ccc2cc(F)ccc2n1

>  <score_type>  (4) 
oracle

>  <origin>  (4) 
autodockgpu

>  <m_score__min__energy>  (4) 
-8.7300000000000004

>  <m_primary>  (4) 
energy

>  <rmsd>  (4) 
2.70035998118148

>  <m_score__min__rmsd>  (4) 
2.70035998118148

>  <meeko>  (4) 
{"free_energy": -7.89, "intermolecular_energy": -9.38, "internal_energy": -0.96, "cluster_size": 48, "cluster_id": 1, "rank_in_cluster": 37}

>  <energy>  (4) 
-8.6

>  <cluster_rmsd>  (4) 
0.38

>  <cluster>  (4) 
1

$$$$

     RDKit          3D

 45 48  0  0  0  0  0  0  0  0999 V2000
  140.4000   71.5590  221.0390 O   0  0  0  0  0  0  0  0  0  0  0  0
  139.9880   72.0260  222.1390 C   0  0  0  0  0  0  0  0  0  0  0  0
  139.5540   73.3930  222.1780 N   0  0  0  0  0  0  0  0  0  0  0  0
  139.6190   74.1370  220.9560 C   0  0  0  0  0  0  0  0  0  0  0  0
  140.7180   75.1380  220.9580 C   0  0  0  0  0  0  0  0  0  0  0  0
  141.8610   74.9130  220.4850 O   0  0  0  0  0  0  0  0  0  0  0  0
  140.4580   76.4150  221.5280 N   0  0  0  0  0  0  0  0  0  0  0  0
  139.1880   76.7570  222.1410 C   0  0  0  0  0  0  0  0  0  0  0  0
  139.3860   78.1400  222.7260 C   0  0  0  0  0  0  0  0  0  0  0  0
  140.8880   78.1800  222.9140 C   0  0  2  0  0  0  0  0  0  0  0  0
  141.4190   79.5370  223.0960 C   0  0  0  0  0  0  0  0  0  0  0  0
  142.2580   79.9900  224.0450 N   0  0  0  0  0  0  0  0  0  0  0  0
  142.5110   81.3010  223.8740 C   0  0  0  0  0  0  0  0  0  0  0  0
  141.7730   81.6530  222.7490 C   0  0  0  0  0  0  0  0  0  0  0  0
  141.1180   80.5720  222.2900 N   0  0  0  0  0  0  0  0  0  0  0  0
  141.3460   77.5590  221.6080 C   0  0  0  0  0  0  0  0  0  0  0  0
  139.9460   71.2130  223.3510 C   0  0  0  0  0  0  0  0  0  0  0  0
  139.3990   69.9470  223.2690 C   0  0  0  0  0  0  0  0  0  0  0  0
  139.3440   69.1510  224.3970 C   0  0  0  0  0  0  0  0  0  0  0  0
  139.8390   69.6310  225.5980 C   0  0  0  0  0  0  0  0  0  0  0  0
  139.8040   68.8720  226.7440 C   0  0  0  0  0  0  0  0  0  0  0  0
  140.3020   69.3730  227.9210 C   0  0  0  0  0  0  0  0  0  0  0  0
  140.3010   68.6810  229.0930 F   0  0  0  0  0  0  0  0  0  0  0  0
  140.8490   70.6510  227.9810 C   0  0  0  0  0  0  0  0  0  0  0  0
  140.8900   71.4210  226.8410 C   0  0  0  0  0  0  0  0  0  0  0  0
  140.3860   70.9050  225.6650 C   0  0  0  0  0  0  0  0  0  0  0  0
  140.4120   71.6300  224.5380 N   0  0  0  0  0  0  0  0  0  0  0  0
  139.2080   73.7870  223.0980 H   0  0  0  0  0  0  0  0  0  0  0  0
  139.7817   73.4359  220.1241 H   0  0  0  0  0  0  0  0  0  0  0  0
  138.6700   74.6821  220.8451 H   0  0  0  0  0  0  0  0  0  0  0  0
  138.3870   76.7686  221.3871 H   0  0  0  0  0  0  0  0  0  0  0  0
  138.8928   76.0258  222.9079 H   0  0  0  0  0  0  0  0  0  0  0  0
  139.0477   78.9221  222.0304 H   0  0  0  0  0  0  0  0  0  0  0  0
  138.8149   78.3212  223.6485 H   0  0  0  0  0  0  0  0  0  0  0  0
  141.2343   77.6651  223.8222 H   0  0  0  0  0  0  0  0  0  0  0  0
  143.1562   81.9482  224.4862 H   0  0  0  0  0  0  0  0  0  0  0  0
  141.7316   82.6583  222.3043 H   0  0  0  0  0  0  0  0  0  0  0  0
  140.4840   80.5680  221.4450 H   0  0  0  0  0  0  0  0  0  0  0  0
  141.2008   78.2448  220.7603 H   0  0  0  0  0  0  0  0  0  0  0  0
  142.4166   77.3092  221.5720 H   0  0  0  0  0  0  0  0  0  0  0  0
  139.0091   69.5745  222.3102 H   0  0  0  0  0  0  0  0  0  0  0  0
  138.9096   68.1420  224.3414 H   0  0  0  0  0  0  0  0  0  0  0  0
  139.3752   67.8593  226.7175 H   0  0  0  0  0  0  0  0  0  0  0  0
  141.2447   71.0420  228.9300 H   0  0  0  0  0  0  0  0  0  0  0  0
  141.3186   72.4337  226.8672 H   0  0  0  0  0  0  0  0  0  0  0  0
  1  2  2  0
  2  3  1  0
  3  4  1  0
  4  5  1  0
  5  6  2  0
  5  7  1  0
  7  8  1  0
  8  9  1  0
  9 10  1  0
 10 11  1  0
 11 12  2  0
 12 13  1  0
 13 14  2  0
 14 15  1  0
 10 16  1  0
  2 17  1  0
 17 18  2  0
 18 19  1  0
 19 20  2  0
 20 21  1  0
 21 22  2  0
 22 23  1  0
 22 24  1  0
 24 25  2  0
 25 26  1  0
 26 27  2  0
 16  7  1  0
 27 17  1  0
 15 11  1  0
 26 20  1  0
  3 28  1  0
  4 29  1  0
  4 30  1  0
  8 31  1  0
  8 32  1  0
  9 33  1  0
  9 34  1  0
 10 35  1  1
 13 36  1  0
 14 37  1  0
 15 38  1  0
 16 39  1  0
 16 40  1  0
 18 41  1  0
 19 42  1  0
 21 43  1  0
 24 44  1  0
 25 45  1  0
M  END
>  <smiles>  (5) 
O=C(NCC(=O)N1CC[C@H](c2ncc[nH]2)C1)c1ccc2cc(F)ccc2n1

>  <score_type>  (5) 
oracle

>  <origin>  (5) 
autodockgpu

>  <m_score__min__energy>  (5) 
-8.7300000000000004

>  <m_primary>  (5) 
energy

>  <rmsd>  (5) 
3.080780924787585

>  <m_score__min__rmsd>  (5) 
3.080780924787585

>  <meeko>  (5) 
{"free_energy": -7.86, "intermolecular_energy": -9.36, "internal_energy": -0.9, "cluster_size": 48, "cluster_id": 1, "rank_in_cluster": 38}

>  <energy>  (5) 
-8.59

>  <cluster_rmsd>  (5) 
0.42

>  <cluster>  (5) 
1

$$$$

     RDKit          3D

 45 48  0  0  0  0  0  0  0  0999 V2000
  139.5220   71.1500  221.0920 O   0  0  0  0  0  0  0  0  0  0  0  0
  139.4770   71.6680  222.2440 C   0  0  0  0  0  0  0  0  0  0  0  0
  139.2900   73.0860  222.3460 N   0  0  0  0  0  0  0  0  0  0  0  0
  139.1650   73.8210  221.1220 C   0  0  0  0  0  0  0  0  0  0  0  0
  140.2840   74.7810  220.9200 C   0  0  0  0  0  0  0  0  0  0  0  0
  141.3310   74.5000  220.2820 O   0  0  0  0  0  0  0  0  0  0  0  0
  140.1580   76.0810  221.4800 N   0  0  0  0  0  0  0  0  0  0  0  0
  138.9370   76.5510  222.1080 C   0  0  0  0  0  0  0  0  0  0  0  0
  139.2770   77.9130  222.6760 C   0  0  0  0  0  0  0  0  0  0  0  0
  140.7790   77.8070  222.8430 C   0  0  2  0  0  0  0  0  0  0  0  0
  141.4420   79.1080  223.0050 C   0  0  0  0  0  0  0  0  0  0  0  0
  140.9780   80.2180  223.6030 N   0  0  0  0  0  0  0  0  0  0  0  0
  141.8870   81.2090  223.5460 C   0  0  0  0  0  0  0  0  0  0  0  0
  142.9660   80.6510  222.8680 C   0  0  0  0  0  0  0  0  0  0  0  0
  142.6790   79.3770  222.5480 N   0  0  0  0  0  0  0  0  0  0  0  0
  141.1550   77.1330  221.5380 C   0  0  0  0  0  0  0  0  0  0  0  0
  139.6100   70.8610  223.4540 C   0  0  0  0  0  0  0  0  0  0  0  0
  139.1440   69.5610  223.4250 C   0  0  0  0  0  0  0  0  0  0  0  0
  139.2530   68.7690  224.5520 C   0  0  0  0  0  0  0  0  0  0  0  0
  139.8300   69.2900  225.6990 C   0  0  0  0  0  0  0  0  0  0  0  0
  139.9600   68.5370  226.8430 C   0  0  0  0  0  0  0  0  0  0  0  0
  140.5360   69.0780  227.9650 C   0  0  0  0  0  0  0  0  0  0  0  0
  140.6970   68.3940  229.1310 F   0  0  0  0  0  0  0  0  0  0  0  0
  140.9990   70.3900  227.9720 C   0  0  0  0  0  0  0  0  0  0  0  0
  140.8750   71.1540  226.8340 C   0  0  0  0  0  0  0  0  0  0  0  0
  140.2940   70.5970  225.7130 C   0  0  0  0  0  0  0  0  0  0  0  0
  140.1600   71.3150  224.5890 N   0  0  0  0  0  0  0  0  0  0  0  0
  139.2510   73.5230  223.3090 H   0  0  0  0  0  0  0  0  0  0  0  0
  139.1535   73.1101  220.2826 H   0  0  0  0  0  0  0  0  0  0  0  0
  138.2312   74.4002  221.1724 H   0  0  0  0  0  0  0  0  0  0  0  0
  138.1295   76.6340  221.3657 H   0  0  0  0  0  0  0  0  0  0  0  0
  138.5843   75.8589  222.8868 H   0  0  0  0  0  0  0  0  0  0  0  0
  139.0067   78.7183  221.9771 H   0  0  0  0  0  0  0  0  0  0  0  0
  138.7397   78.1577  223.6041 H   0  0  0  0  0  0  0  0  0  0  0  0
  141.0872   77.2680  223.7510 H   0  0  0  0  0  0  0  0  0  0  0  0
  141.7970   82.2299  223.9455 H   0  0  0  0  0  0  0  0  0  0  0  0
  143.9062   81.1704  222.6309 H   0  0  0  0  0  0  0  0  0  0  0  0
  143.3300   78.7280  222.0270 H   0  0  0  0  0  0  0  0  0  0  0  0
  141.0662   77.8226  220.6856 H   0  0  0  0  0  0  0  0  0  0  0  0
  142.1952   76.7785  221.4910 H   0  0  0  0  0  0  0  0  0  0  0  0
  138.6881   69.1580  222.5087 H   0  0  0  0  0  0  0  0  0  0  0  0
  138.8845   67.7326  224.5387 H   0  0  0  0  0  0  0  0  0  0  0  0
  139.6009   67.4974  226.8584 H   0  0  0  0  0  0  0  0  0  0  0  0
  141.4593   70.8122  228.8775 H   0  0  0  0  0  0  0  0  0  0  0  0
  141.2339   72.1937  226.8182 H   0  0  0  0  0  0  0  0  0  0  0  0
  1  2  2  0
  2  3  1  0
  3  4  1  0
  4  5  1  0
  5  6  2  0
  5  7  1  0
  7  8  1  0
  8  9  1  0
  9 10  1  0
 10 11  1  0
 11 12  2  0
 12 13  1  0
 13 14  2  0
 14 15  1  0
 10 16  1  0
  2 17  1  0
 17 18  2  0
 18 19  1  0
 19 20  2  0
 20 21  1  0
 21 22  2  0
 22 23  1  0
 22 24  1  0
 24 25  2  0
 25 26  1  0
 26 27  2  0
 16  7  1  0
 27 17  1  0
 15 11  1  0
 26 20  1  0
  3 28  1  0
  4 29  1  0
  4 30  1  0
  8 31  1  0
  8 32  1  0
  9 33  1  0
  9 34  1  0
 10 35  1  1
 13 36  1  0
 14 37  1  0
 15 38  1  0
 16 39  1  0
 16 40  1  0
 18 41  1  0
 19 42  1  0
 21 43  1  0
 24 44  1  0
 25 45  1  0
M  END
>  <smiles>  (6) 
O=C(NCC(=O)N1CC[C@H](c2ncc[nH]2)C1)c1ccc2cc(F)ccc2n1

>  <score_type>  (6) 
oracle

>  <origin>  (6) 
autodockgpu

>  <m_score__min__energy>  (6) 
-8.7300000000000004

>  <m_primary>  (6) 
energy

>  <rmsd>  (6) 
2.9235440795146457

>  <m_score__min__rmsd>  (6) 
2.9235440795146457

>  <meeko>  (6) 
{"free_energy": -8.29, "intermolecular_energy": -9.78, "internal_energy": -0.94, "cluster_size": 48, "cluster_id": 1, "rank_in_cluster": 24}

>  <energy>  (6) 
-8.56

>  <cluster_rmsd>  (6) 
0.78

>  <cluster>  (6) 
1

$$$$

     RDKit          3D

 45 48  0  0  0  0  0  0  0  0999 V2000
  138.3400   71.9150  222.0830 O   0  0  0  0  0  0  0  0  0  0  0  0
  139.3890   71.8840  222.7880 C   0  0  0  0  0  0  0  0  0  0  0  0
  140.4550   72.7870  222.4610 N   0  0  0  0  0  0  0  0  0  0  0  0
  140.2520   73.6680  221.3500 C   0  0  0  0  0  0  0  0  0  0  0  0
  139.6780   74.9770  221.7610 C   0  0  0  0  0  0  0  0  0  0  0  0
  138.5020   75.1150  222.1850 O   0  0  0  0  0  0  0  0  0  0  0  0
  140.5060   76.1290  221.6670 N   0  0  0  0  0  0  0  0  0  0  0  0
  141.1650   76.5230  220.4360 C   0  0  0  0  0  0  0  0  0  0  0  0
  141.8230   77.8530  220.7420 C   0  0  0  0  0  0  0  0  0  0  0  0
  140.9760   78.3530  221.8950 C   0  0  2  0  0  0  0  0  0  0  0  0
  141.6110   79.4340  222.6600 C   0  0  0  0  0  0  0  0  0  0  0  0
  141.0280   80.3790  223.4180 N   0  0  0  0  0  0  0  0  0  0  0  0
  141.9520   81.1950  223.9600 C   0  0  0  0  0  0  0  0  0  0  0  0
  143.1660   80.7030  223.4930 C   0  0  0  0  0  0  0  0  0  0  0  0
  142.9410   79.6360  222.7070 N   0  0  0  0  0  0  0  0  0  0  0  0
  140.8390   77.0820  222.7090 C   0  0  0  0  0  0  0  0  0  0  0  0
  139.5340   70.9600  223.9100 C   0  0  0  0  0  0  0  0  0  0  0  0
  139.0410   69.6780  223.7660 C   0  0  0  0  0  0  0  0  0  0  0  0
  139.1600   68.7780  224.8070 C   0  0  0  0  0  0  0  0  0  0  0  0
  139.7740   69.1730  225.9850 C   0  0  0  0  0  0  0  0  0  0  0  0
  139.9140   68.3090  227.0460 C   0  0  0  0  0  0  0  0  0  0  0  0
  140.5270   68.7270  228.2010 C   0  0  0  0  0  0  0  0  0  0  0  0
  140.7000   67.9290  229.2900 F   0  0  0  0  0  0  0  0  0  0  0  0
  141.0150   70.0230  228.3240 C   0  0  0  0  0  0  0  0  0  0  0  0
  140.8820   70.8980  227.2700 C   0  0  0  0  0  0  0  0  0  0  0  0
  140.2640   70.4640  226.1140 C   0  0  0  0  0  0  0  0  0  0  0  0
  140.1190   71.2910  225.0700 N   0  0  0  0  0  0  0  0  0  0  0  0
  141.3350   72.7630  223.0500 H   0  0  0  0  0  0  0  0  0  0  0  0
  141.2200   73.8456  220.8587 H   0  0  0  0  0  0  0  0  0  0  0  0
  139.5354   73.1873  220.6678 H   0  0  0  0  0  0  0  0  0  0  0  0
  141.9201   75.7770  220.1475 H   0  0  0  0  0  0  0  0  0  0  0  0
  140.4564   76.5995  219.5981 H   0  0  0  0  0  0  0  0  0  0  0  0
  142.8730   77.7218  221.0425 H   0  0  0  0  0  0  0  0  0  0  0  0
  141.8628   78.5407  219.8844 H   0  0  0  0  0  0  0  0  0  0  0  0
  140.0255   78.8094  221.5814 H   0  0  0  0  0  0  0  0  0  0  0  0
  141.7843   82.0567  224.6229 H   0  0  0  0  0  0  0  0  0  0  0  0
  144.1554   81.1214  223.7297 H   0  0  0  0  0  0  0  0  0  0  0  0
  143.6950   79.0760  222.2230 H   0  0  0  0  0  0  0  0  0  0  0  0
  141.7813   76.8195  223.2121 H   0  0  0  0  0  0  0  0  0  0  0  0
  140.1045   77.1402  223.5258 H   0  0  0  0  0  0  0  0  0  0  0  0
  138.5557   69.3750  222.8265 H   0  0  0  0  0  0  0  0  0  0  0  0
  138.7701   67.7548  224.7018 H   0  0  0  0  0  0  0  0  0  0  0  0
  139.5336   67.2798  226.9688 H   0  0  0  0  0  0  0  0  0  0  0  0
  141.5030   70.3462  229.2553 H   0  0  0  0  0  0  0  0  0  0  0  0
  141.2622   71.9273  227.3473 H   0  0  0  0  0  0  0  0  0  0  0  0
  1  2  2  0
  2  3  1  0
  3  4  1  0
  4  5  1  0
  5  6  2  0
  5  7  1  0
  7  8  1  0
  8  9  1  0
  9 10  1  0
 10 11  1  0
 11 12  2  0
 12 13  1  0
 13 14  2  0
 14 15  1  0
 10 16  1  0
  2 17  1  0
 17 18  2  0
 18 19  1  0
 19 20  2  0
 20 21  1  0
 21 22  2  0
 22 23  1  0
 22 24  1  0
 24 25  2  0
 25 26  1  0
 26 27  2  0
 16  7  1  0
 27 17  1  0
 15 11  1  0
 26 20  1  0
  3 28  1  0
  4 29  1  0
  4 30  1  0
  8 31  1  0
  8 32  1  0
  9 33  1  0
  9 34  1  0
 10 35  1  6
 13 36  1  0
 14 37  1  0
 15 38  1  0
 16 39  1  0
 16 40  1  0
 18 41  1  0
 19 42  1  0
 21 43  1  0
 24 44  1  0
 25 45  1  0
M  END
>  <smiles>  (7) 
O=C(NCC(=O)N1CC[C@H](c2ncc[nH]2)C1)c1ccc2cc(F)ccc2n1

>  <score_type>  (7) 
oracle

>  <origin>  (7) 
autodockgpu

>  <m_score__min__energy>  (7) 
-8.7300000000000004

>  <m_primary>  (7) 
energy

>  <rmsd>  (7) 
2.731957654851019

>  <m_score__min__rmsd>  (7) 
2.731957654851019

>  <meeko>  (7) 
{"free_energy": -8.12, "intermolecular_energy": -9.61, "internal_energy": -0.9, "cluster_size": 48, "cluster_id": 1, "rank_in_cluster": 28}

>  <energy>  (7) 
-8.56

>  <cluster_rmsd>  (7) 
0.78

>  <cluster>  (7) 
1

$$$$

     RDKit          3D

 45 48  0  0  0  0  0  0  0  0999 V2000
  140.9740   72.0750  221.3390 O   0  0  0  0  0  0  0  0  0  0  0  0
  140.0940   72.2570  222.2290 C   0  0  0  0  0  0  0  0  0  0  0  0
  139.1490   73.3200  222.0440 N   0  0  0  0  0  0  0  0  0  0  0  0
  139.2700   74.1070  220.8530 C   0  0  0  0  0  0  0  0  0  0  0  0
  140.4790   74.9720  220.8640 C   0  0  0  0  0  0  0  0  0  0  0  0
  141.5800   74.6300  220.3610 O   0  0  0  0  0  0  0  0  0  0  0  0
  140.3810   76.2510  221.4770 N   0  0  0  0  0  0  0  0  0  0  0  0
  139.1520   76.7440  222.0710 C   0  0  0  0  0  0  0  0  0  0  0  0
  139.5210   78.0640  222.7150 C   0  0  0  0  0  0  0  0  0  0  0  0
  141.0080   77.8870  222.9440 C   0  0  2  0  0  0  0  0  0  0  0  0
  141.7150   79.1500  223.1940 C   0  0  0  0  0  0  0  0  0  0  0  0
  141.2650   80.2560  223.8110 N   0  0  0  0  0  0  0  0  0  0  0  0
  142.2170   81.2070  223.8440 C   0  0  0  0  0  0  0  0  0  0  0  0
  143.3080   80.6280  223.2030 C   0  0  0  0  0  0  0  0  0  0  0  0
  142.9860   79.3810  222.8170 N   0  0  0  0  0  0  0  0  0  0  0  0
  141.4160   77.2560  221.6270 C   0  0  0  0  0  0  0  0  0  0  0  0
  140.0240   71.4180  223.4220 C   0  0  0  0  0  0  0  0  0  0  0  0
  139.3940   70.1930  223.3210 C   0  0  0  0  0  0  0  0  0  0  0  0
  139.3100   69.3730  224.4310 C   0  0  0  0  0  0  0  0  0  0  0  0
  139.8600   69.7910  225.6320 C   0  0  0  0  0  0  0  0  0  0  0  0
  139.7990   69.0070  226.7600 C   0  0  0  0  0  0  0  0  0  0  0  0
  140.3530   69.4440  227.9370 C   0  0  0  0  0  0  0  0  0  0  0  0
  140.3310   68.7240  229.0920 F   0  0  0  0  0  0  0  0  0  0  0  0
  140.9830   70.6820  228.0150 C   0  0  0  0  0  0  0  0  0  0  0  0
  141.0510   71.4760  226.8940 C   0  0  0  0  0  0  0  0  0  0  0  0
  140.4900   71.0230  225.7170 C   0  0  0  0  0  0  0  0  0  0  0  0
  140.5400   71.7730  224.6070 N   0  0  0  0  0  0  0  0  0  0  0  0
  138.4110   73.4740  222.7880 H   0  0  0  0  0  0  0  0  0  0  0  0
  139.3277   73.4307  219.9874 H   0  0  0  0  0  0  0  0  0  0  0  0
  138.3893   74.7634  220.7946 H   0  0  0  0  0  0  0  0  0  0  0  0
  138.3836   76.8938  221.2983 H   0  0  0  0  0  0  0  0  0  0  0  0
  138.7355   76.0340  222.8006 H   0  0  0  0  0  0  0  0  0  0  0  0
  139.3165   78.9098  222.0421 H   0  0  0  0  0  0  0  0  0  0  0  0
  138.9517   78.2905  223.6286 H   0  0  0  0  0  0  0  0  0  0  0  0
  141.2516   77.2962  223.8393 H   0  0  0  0  0  0  0  0  0  0  0  0
  142.1481   82.2148  224.2795 H   0  0  0  0  0  0  0  0  0  0  0  0
  144.2809   81.1141  223.0381 H   0  0  0  0  0  0  0  0  0  0  0  0
  143.6380   78.7250  222.3070 H   0  0  0  0  0  0  0  0  0  0  0  0
  141.3944   77.9858  220.8042 H   0  0  0  0  0  0  0  0  0  0  0  0
  142.4421   76.8601  221.6094 H   0  0  0  0  0  0  0  0  0  0  0  0
  138.9612   69.8714  222.3622 H   0  0  0  0  0  0  0  0  0  0  0  0
  138.8100   68.3957  224.3611 H   0  0  0  0  0  0  0  0  0  0  0  0
  139.3041   68.0255  226.7187 H   0  0  0  0  0  0  0  0  0  0  0  0
  141.4225   71.0225  228.9641 H   0  0  0  0  0  0  0  0  0  0  0  0
  141.5453   72.4578  226.9348 H   0  0  0  0  0  0  0  0  0  0  0  0
  1  2  2  0
  2  3  1  0
  3  4  1  0
  4  5  1  0
  5  6  2  0
  5  7  1  0
  7  8  1  0
  8  9  1  0
  9 10  1  0
 10 11  1  0
 11 12  2  0
 12 13  1  0
 13 14  2  0
 14 15  1  0
 10 16  1  0
  2 17  1  0
 17 18  2  0
 18 19  1  0
 19 20  2  0
 20 21  1  0
 21 22  2  0
 22 23  1  0
 22 24  1  0
 24 25  2  0
 25 26  1  0
 26 27  2  0
 16  7  1  0
 27 17  1  0
 15 11  1  0
 26 20  1  0
  3 28  1  0
  4 29  1  0
  4 30  1  0
  8 31  1  0
  8 32  1  0
  9 33  1  0
  9 34  1  0
 10 35  1  1
 13 36  1  0
 14 37  1  0
 15 38  1  0
 16 39  1  0
 16 40  1  0
 18 41  1  0
 19 42  1  0
 21 43  1  0
 24 44  1  0
 25 45  1  0
M  END
>  <smiles>  (8) 
O=C(NCC(=O)N1CC[C@H](c2ncc[nH]2)C1)c1ccc2cc(F)ccc2n1

>  <score_type>  (8) 
oracle

>  <origin>  (8) 
autodockgpu

>  <m_score__min__energy>  (8) 
-8.7300000000000004

>  <m_primary>  (8) 
energy

>  <rmsd>  (8) 
3.0485068807718294

>  <m_score__min__rmsd>  (8) 
3.0485068807718294

>  <meeko>  (8) 
{"free_energy": -8.56, "intermolecular_energy": -10.05, "internal_energy": -0.84, "cluster_size": 48, "cluster_id": 1, "rank_in_cluster": 7}

>  <energy>  (8) 
-8.52

>  <cluster_rmsd>  (8) 
0.83

>  <cluster>  (8) 
1

$$$$

     RDKit          3D

 45 48  0  0  0  0  0  0  0  0999 V2000
  139.3840   71.3370  221.0730 O   0  0  0  0  0  0  0  0  0  0  0  0
  139.4890   71.8660  222.2160 C   0  0  0  0  0  0  0  0  0  0  0  0
  139.4500   73.2970  222.3090 N   0  0  0  0  0  0  0  0  0  0  0  0
  139.2930   74.0310  221.0890 C   0  0  0  0  0  0  0  0  0  0  0  0
  140.4050   74.9890  220.8540 C   0  0  0  0  0  0  0  0  0  0  0  0
  141.4080   74.7250  220.1420 O   0  0  0  0  0  0  0  0  0  0  0  0
  140.3270   76.2680  221.4700 N   0  0  0  0  0  0  0  0  0  0  0  0
  139.1110   76.7720  222.0810 C   0  0  0  0  0  0  0  0  0  0  0  0
  139.5010   78.0870  222.7220 C   0  0  0  0  0  0  0  0  0  0  0  0
  140.9890   77.8960  222.9300 C   0  0  2  0  0  0  0  0  0  0  0  0
  141.7110   79.1520  223.1730 C   0  0  0  0  0  0  0  0  0  0  0  0
  141.2850   80.2550  223.8110 N   0  0  0  0  0  0  0  0  0  0  0  0
  142.2440   81.2000  223.8270 C   0  0  0  0  0  0  0  0  0  0  0  0
  143.3130   80.6200  223.1510 C   0  0  0  0  0  0  0  0  0  0  0  0
  142.9730   79.3790  222.7620 N   0  0  0  0  0  0  0  0  0  0  0  0
  141.3730   77.2630  221.6070 C   0  0  0  0  0  0  0  0  0  0  0  0
  139.6470   71.0610  223.4240 C   0  0  0  0  0  0  0  0  0  0  0  0
  139.2160   69.7490  223.3930 C   0  0  0  0  0  0  0  0  0  0  0  0
  139.3510   68.9580  224.5180 C   0  0  0  0  0  0  0  0  0  0  0  0
  139.9170   69.4910  225.6650 C   0  0  0  0  0  0  0  0  0  0  0  0
  140.0710   68.7390  226.8060 C   0  0  0  0  0  0  0  0  0  0  0  0
  140.6360   69.2930  227.9280 C   0  0  0  0  0  0  0  0  0  0  0  0
  140.8190   68.6110  229.0910 F   0  0  0  0  0  0  0  0  0  0  0  0
  141.0630   70.6160  227.9360 C   0  0  0  0  0  0  0  0  0  0  0  0
  140.9160   71.3800  226.8000 C   0  0  0  0  0  0  0  0  0  0  0  0
  140.3460   70.8100  225.6800 C   0  0  0  0  0  0  0  0  0  0  0  0
  140.1890   71.5270  224.5580 N   0  0  0  0  0  0  0  0  0  0  0  0
  139.5380   73.7430  223.2650 H   0  0  0  0  0  0  0  0  0  0  0  0
  139.2576   73.3192  220.2511 H   0  0  0  0  0  0  0  0  0  0  0  0
  138.3620   74.6118  221.1658 H   0  0  0  0  0  0  0  0  0  0  0  0
  138.3339   76.9305  221.3187 H   0  0  0  0  0  0  0  0  0  0  0  0
  138.6974   76.0648  222.8150 H   0  0  0  0  0  0  0  0  0  0  0  0
  139.2950   78.9359  222.0535 H   0  0  0  0  0  0  0  0  0  0  0  0
  138.9466   78.3169  223.6438 H   0  0  0  0  0  0  0  0  0  0  0  0
  141.2397   77.3015  223.8209 H   0  0  0  0  0  0  0  0  0  0  0  0
  142.1937   82.2040  224.2737 H   0  0  0  0  0  0  0  0  0  0  0  0
  144.2842   81.1016  222.9642 H   0  0  0  0  0  0  0  0  0  0  0  0
  143.6060   78.7230  222.2280 H   0  0  0  0  0  0  0  0  0  0  0  0
  141.3469   77.9940  220.7854 H   0  0  0  0  0  0  0  0  0  0  0  0
  142.3951   76.8577  221.5749 H   0  0  0  0  0  0  0  0  0  0  0  0
  138.7676   69.3360  222.4774 H   0  0  0  0  0  0  0  0  0  0  0  0
  139.0113   67.9119  224.5031 H   0  0  0  0  0  0  0  0  0  0  0  0
  139.7404   67.6900  226.8198 H   0  0  0  0  0  0  0  0  0  0  0  0
  141.5140   71.0484  228.8413 H   0  0  0  0  0  0  0  0  0  0  0  0
  141.2478   72.4286  226.7855 H   0  0  0  0  0  0  0  0  0  0  0  0
  1  2  2  0
  2  3  1  0
  3  4  1  0
  4  5  1  0
  5  6  2  0
  5  7  1  0
  7  8  1  0
  8  9  1  0
  9 10  1  0
 10 11  1  0
 11 12  2  0
 12 13  1  0
 13 14  2  0
 14 15  1  0
 10 16  1  0
  2 17  1  0
 17 18  2  0
 18 19  1  0
 19 20  2  0
 20 21  1  0
 21 22  2  0
 22 23  1  0
 22 24  1  0
 24 25  2  0
 25 26  1  0
 26 27  2  0
 16  7  1  0
 27 17  1  0
 15 11  1  0
 26 20  1  0
  3 28  1  0
  4 29  1  0
  4 30  1  0
  8 31  1  0
  8 32  1  0
  9 33  1  0
  9 34  1  0
 10 35  1  1
 13 36  1  0
 14 37  1  0
 15 38  1  0
 16 39  1  0
 16 40  1  0
 18 41  1  0
 19 42  1  0
 21 43  1  0
 24 44  1  0
 25 45  1  0
M  END
>  <smiles>  (9) 
O=C(NCC(=O)N1CC[C@H](c2ncc[nH]2)C1)c1ccc2cc(F)ccc2n1

>  <score_type>  (9) 
oracle

>  <origin>  (9) 
autodockgpu

>  <m_score__min__energy>  (9) 
-8.7300000000000004

>  <m_primary>  (9) 
energy

>  <rmsd>  (9) 
2.9929928945266413

>  <m_score__min__rmsd>  (9) 
2.9929928945266413

>  <meeko>  (9) 
{"free_energy": -8.35, "intermolecular_energy": -9.84, "internal_energy": -0.97, "cluster_size": 48, "cluster_id": 1, "rank_in_cluster": 20}

>  <energy>  (9) 
-8.52

>  <cluster_rmsd>  (9) 
0.4

>  <cluster>  (9) 
1

$$$$

     RDKit          3D

 45 48  0  0  0  0  0  0  0  0999 V2000
  141.2660   72.2000  221.7020 O   0  0  0  0  0  0  0  0  0  0  0  0
  140.3190   72.3070  222.5330 C   0  0  0  0  0  0  0  0  0  0  0  0
  139.3480   73.3430  222.3290 N   0  0  0  0  0  0  0  0  0  0  0  0
  139.5210   74.1900  221.1860 C   0  0  0  0  0  0  0  0  0  0  0  0
  140.6350   75.1590  221.3610 C   0  0  0  0  0  0  0  0  0  0  0  0
  141.8410   74.8750  221.1440 O   0  0  0  0  0  0  0  0  0  0  0  0
  140.3150   76.4730  221.7980 N   0  0  0  0  0  0  0  0  0  0  0  0
  139.0170   76.8250  222.3440 C   0  0  0  0  0  0  0  0  0  0  0  0
  139.1500   78.2630  222.7980 C   0  0  0  0  0  0  0  0  0  0  0  0
  140.6440   78.3770  223.0180 C   0  0  2  0  0  0  0  0  0  0  0  0
  141.1210   79.7650  223.0830 C   0  0  0  0  0  0  0  0  0  0  0  0
  140.7920   80.8030  222.2950 N   0  0  0  0  0  0  0  0  0  0  0  0
  141.4450   81.9180  222.6740 C   0  0  0  0  0  0  0  0  0  0  0  0
  142.2160   81.5160  223.7600 C   0  0  0  0  0  0  0  0  0  0  0  0
  142.0070   80.2080  223.9940 N   0  0  0  0  0  0  0  0  0  0  0  0
  141.1600   77.6520  221.7910 C   0  0  0  0  0  0  0  0  0  0  0  0
  140.1980   71.4100  223.6790 C   0  0  0  0  0  0  0  0  0  0  0  0
  139.5730   70.1930  223.4910 C   0  0  0  0  0  0  0  0  0  0  0  0
  139.4420   69.3200  224.5540 C   0  0  0  0  0  0  0  0  0  0  0  0
  139.9390   69.6760  225.7970 C   0  0  0  0  0  0  0  0  0  0  0  0
  139.8310   68.8380  226.8820 C   0  0  0  0  0  0  0  0  0  0  0  0
  140.3330   69.2160  228.1010 C   0  0  0  0  0  0  0  0  0  0  0  0
  140.2620   68.4400  229.2170 F   0  0  0  0  0  0  0  0  0  0  0  0
  140.9590   70.4470  228.2680 C   0  0  0  0  0  0  0  0  0  0  0  0
  141.0750   71.2960  227.1910 C   0  0  0  0  0  0  0  0  0  0  0  0
  140.5650   70.9020  225.9700 C   0  0  0  0  0  0  0  0  0  0  0  0
  140.6630   71.7060  224.9020 N   0  0  0  0  0  0  0  0  0  0  0  0
  138.5540   73.4350  223.0230 H   0  0  0  0  0  0  0  0  0  0  0  0
  139.7347   73.5608  220.3094 H   0  0  0  0  0  0  0  0  0  0  0  0
  138.5936   74.7663  221.0526 H   0  0  0  0  0  0  0  0  0  0  0  0
  138.2376   76.7351  221.5729 H   0  0  0  0  0  0  0  0  0  0  0  0
  138.7261   76.1598  223.1703 H   0  0  0  0  0  0  0  0  0  0  0  0
  138.8041   78.9622  222.0225 H   0  0  0  0  0  0  0  0  0  0  0  0
  138.5474   78.5095  223.6847 H   0  0  0  0  0  0  0  0  0  0  0  0
  140.9833   77.9640  223.9794 H   0  0  0  0  0  0  0  0  0  0  0  0
  141.3828   82.9207  222.2259 H   0  0  0  0  0  0  0  0  0  0  0  0
  142.8906   82.1658  224.3368 H   0  0  0  0  0  0  0  0  0  0  0  0
  142.4730   79.6550  224.7630 H   0  0  0  0  0  0  0  0  0  0  0  0
  141.0159   78.2481  220.8778 H   0  0  0  0  0  0  0  0  0  0  0  0
  142.2392   77.4396  221.8072 H   0  0  0  0  0  0  0  0  0  0  0  0
  139.1814   69.9200  222.5000 H   0  0  0  0  0  0  0  0  0  0  0  0
  138.9460   68.3482  224.4140 H   0  0  0  0  0  0  0  0  0  0  0  0
  139.3397   67.8600  226.7717 H   0  0  0  0  0  0  0  0  0  0  0  0
  141.3573   70.7389  229.2509 H   0  0  0  0  0  0  0  0  0  0  0  0
  141.5667   72.2738  227.3014 H   0  0  0  0  0  0  0  0  0  0  0  0
  1  2  2  0
  2  3  1  0
  3  4  1  0
  4  5  1  0
  5  6  2  0
  5  7  1  0
  7  8  1  0
  8  9  1  0
  9 10  1  0
 10 11  1  0
 11 12  2  0
 12 13  1  0
 13 14  2  0
 14 15  1  0
 10 16  1  0
  2 17  1  0
 17 18  2  0
 18 19  1  0
 19 20  2  0
 20 21  1  0
 21 22  2  0
 22 23  1  0
 22 24  1  0
 24 25  2  0
 25 26  1  0
 26 27  2  0
 16  7  1  0
 27 17  1  0
 15 11  1  0
 26 20  1  0
  3 28  1  0
  4 29  1  0
  4 30  1  0
  8 31  1  0
  8 32  1  0
  9 33  1  0
  9 34  1  0
 10 35  1  1
 13 36  1  0
 14 37  1  0
 15 38  1  0
 16 39  1  0
 16 40  1  0
 18 41  1  0
 19 42  1  0
 21 43  1  0
 24 44  1  0
 25 45  1  0
M  END
>  <smiles>  (10) 
O=C(NCC(=O)N1CC[C@H](c2ncc[nH]2)C1)c1ccc2cc(F)ccc2n1

>  <score_type>  (10) 
oracle

>  <origin>  (10) 
autodockgpu

>  <m_score__min__energy>  (10) 
-8.7300000000000004

>  <m_primary>  (10) 
energy

>  <rmsd>  (10) 
3.193651807793625

>  <m_score__min__rmsd>  (10) 
3.193651807793625

>  <meeko>  (10) 
{"free_energy": -7.93, "intermolecular_energy": -9.42, "internal_energy": -0.81, "cluster_size": 48, "cluster_id": 1, "rank_in_cluster": 34}

>  <energy>  (10) 
-8.5

>  <cluster_rmsd>  (10) 
0.86

>  <cluster>  (10) 
1

$$$$

     RDKit          3D

 45 48  0  0  0  0  0  0  0  0999 V2000
  138.3960   71.4710  221.8910 O   0  0  0  0  0  0  0  0  0  0  0  0
  139.2960   71.6820  222.7540 C   0  0  0  0  0  0  0  0  0  0  0  0
  140.1410   72.8280  222.5890 N   0  0  0  0  0  0  0  0  0  0  0  0
  139.9040   73.6610  221.4480 C   0  0  0  0  0  0  0  0  0  0  0  0
  139.4270   75.0180  221.8260 C   0  0  0  0  0  0  0  0  0  0  0  0
  138.2630   75.2540  222.2400 O   0  0  0  0  0  0  0  0  0  0  0  0
  140.3380   76.1030  221.7090 N   0  0  0  0  0  0  0  0  0  0  0  0
  141.0490   76.4030  220.4800 C   0  0  0  0  0  0  0  0  0  0  0  0
  141.7950   77.6920  220.7520 C   0  0  0  0  0  0  0  0  0  0  0  0
  140.9640   78.2950  221.8660 C   0  0  2  0  0  0  0  0  0  0  0  0
  141.6600   79.3560  222.6060 C   0  0  0  0  0  0  0  0  0  0  0  0
  141.1340   80.3860  223.2910 N   0  0  0  0  0  0  0  0  0  0  0  0
  142.1030   81.1460  223.8340 C   0  0  0  0  0  0  0  0  0  0  0  0
  143.2870   80.5270  223.4460 C   0  0  0  0  0  0  0  0  0  0  0  0
  143.0000   79.4440  222.7030 N   0  0  0  0  0  0  0  0  0  0  0  0
  140.7190   77.0680  222.7230 C   0  0  0  0  0  0  0  0  0  0  0  0
  139.4870   70.7930  223.8970 C   0  0  0  0  0  0  0  0  0  0  0  0
  139.0330   69.4920  223.7940 C   0  0  0  0  0  0  0  0  0  0  0  0
  139.1970   68.6240  224.8560 C   0  0  0  0  0  0  0  0  0  0  0  0
  139.8150   69.0690  226.0130 C   0  0  0  0  0  0  0  0  0  0  0  0
  139.9990   68.2390  227.0940 C   0  0  0  0  0  0  0  0  0  0  0  0
  140.6160   68.7050  228.2280 C   0  0  0  0  0  0  0  0  0  0  0  0
  140.8310   67.9430  229.3340 F   0  0  0  0  0  0  0  0  0  0  0  0
  141.0650   70.0190  228.3100 C   0  0  0  0  0  0  0  0  0  0  0  0
  140.8870   70.8610  227.2360 C   0  0  0  0  0  0  0  0  0  0  0  0
  140.2660   70.3780  226.1020 C   0  0  0  0  0  0  0  0  0  0  0  0
  140.0790   71.1720  225.0390 N   0  0  0  0  0  0  0  0  0  0  0  0
  140.8960   73.0070  223.3110 H   0  0  0  0  0  0  0  0  0  0  0  0
  140.8423   73.7611  220.8827 H   0  0  0  0  0  0  0  0  0  0  0  0
  139.1178   73.1856  220.8431 H   0  0  0  0  0  0  0  0  0  0  0  0
  141.7538   75.5945  220.2359 H   0  0  0  0  0  0  0  0  0  0  0  0
  140.3646   76.4990  219.6242 H   0  0  0  0  0  0  0  0  0  0  0  0
  142.8265   77.4972  221.0809 H   0  0  0  0  0  0  0  0  0  0  0  0
  141.9018   78.3419  219.8710 H   0  0  0  0  0  0  0  0  0  0  0  0
  140.0559   78.8064  221.5141 H   0  0  0  0  0  0  0  0  0  0  0  0
  141.9854   82.0522  224.4464 H   0  0  0  0  0  0  0  0  0  0  0  0
  144.2992   80.8699  223.7063 H   0  0  0  0  0  0  0  0  0  0  0  0
  143.7210   78.7960  222.2820 H   0  0  0  0  0  0  0  0  0  0  0  0
  141.6298   76.7575  223.2561 H   0  0  0  0  0  0  0  0  0  0  0  0
  139.9750   77.2096  223.5208 H   0  0  0  0  0  0  0  0  0  0  0  0
  138.5433   69.1491  222.8706 H   0  0  0  0  0  0  0  0  0  0  0  0
  138.8392   67.5864  224.7833 H   0  0  0  0  0  0  0  0  0  0  0  0
  139.6500   67.1968  227.0496 H   0  0  0  0  0  0  0  0  0  0  0  0
  141.5575   70.3816  229.2243 H   0  0  0  0  0  0  0  0  0  0  0  0
  141.2346   71.9037  227.2807 H   0  0  0  0  0  0  0  0  0  0  0  0
  1  2  2  0
  2  3  1  0
  3  4  1  0
  4  5  1  0
  5  6  2  0
  5  7  1  0
  7  8  1  0
  8  9  1  0
  9 10  1  0
 10 11  1  0
 11 12  2  0
 12 13  1  0
 13 14  2  0
 14 15  1  0
 10 16  1  0
  2 17  1  0
 17 18  2  0
 18 19  1  0
 19 20  2  0
 20 21  1  0
 21 22  2  0
 22 23  1  0
 22 24  1  0
 24 25  2  0
 25 26  1  0
 26 27  2  0
 16  7  1  0
 27 17  1  0
 15 11  1  0
 26 20  1  0
  3 28  1  0
  4 29  1  0
  4 30  1  0
  8 31  1  0
  8 32  1  0
  9 33  1  0
  9 34  1  0
 10 35  1  6
 13 36  1  0
 14 37  1  0
 15 38  1  0
 16 39  1  0
 16 40  1  0
 18 41  1  0
 19 42  1  0
 21 43  1  0
 24 44  1  0
 25 45  1  0
M  END
>  <smiles>  (11) 
O=C(NCC(=O)N1CC[C@H](c2ncc[nH]2)C1)c1ccc2cc(F)ccc2n1

>  <score_type>  (11) 
oracle

>  <origin>  (11) 
autodockgpu

>  <m_score__min__energy>  (11) 
-8.7300000000000004

>  <m_primary>  (11) 
energy

>  <rmsd>  (11) 
2.6670804043630736

>  <m_score__min__rmsd>  (11) 
2.6670804043630736

>  <meeko>  (11) 
{"free_energy": -8.14, "intermolecular_energy": -9.63, "internal_energy": -0.95, "cluster_size": 48, "cluster_id": 1, "rank_in_cluster": 25}

>  <energy>  (11) 
-8.49

>  <cluster_rmsd>  (11) 
0.89

>  <cluster>  (11) 
1

$$$$

     RDKit          3D

 45 48  0  0  0  0  0  0  0  0999 V2000
  141.4120   72.3650  221.7230 O   0  0  0  0  0  0  0  0  0  0  0  0
  140.4680   72.5150  222.5500 C   0  0  0  0  0  0  0  0  0  0  0  0
  139.5770   73.6250  222.3720 N   0  0  0  0  0  0  0  0  0  0  0  0
  139.8210   74.4910  221.2570 C   0  0  0  0  0  0  0  0  0  0  0  0
  139.0700   75.7710  221.3570 C   0  0  0  0  0  0  0  0  0  0  0  0
  137.8180   75.8340  221.4560 O   0  0  0  0  0  0  0  0  0  0  0  0
  139.8120   76.9840  221.3390 N   0  0  0  0  0  0  0  0  0  0  0  0
  139.7670   77.9140  220.2260 C   0  0  0  0  0  0  0  0  0  0  0  0
  140.5820   79.1100  220.6710 C   0  0  0  0  0  0  0  0  0  0  0  0
  140.4910   78.9970  222.1790 C   0  0  2  0  0  0  0  0  0  0  0  0
  141.5060   79.7890  222.8870 C   0  0  0  0  0  0  0  0  0  0  0  0
  141.3260   80.7640  223.7950 N   0  0  0  0  0  0  0  0  0  0  0  0
  142.5090   81.2500  224.2150 C   0  0  0  0  0  0  0  0  0  0  0  0
  143.4560   80.5150  223.5100 C   0  0  0  0  0  0  0  0  0  0  0  0
  142.8310   79.6340  222.7100 N   0  0  0  0  0  0  0  0  0  0  0  0
  140.7020   77.5070  222.3570 C   0  0  0  0  0  0  0  0  0  0  0  0
  140.2720   71.5950  223.6670 C   0  0  0  0  0  0  0  0  0  0  0  0
  139.6180   70.4040  223.4240 C   0  0  0  0  0  0  0  0  0  0  0  0
  139.4150   69.5100  224.4570 C   0  0  0  0  0  0  0  0  0  0  0  0
  139.8720   69.8190  225.7280 C   0  0  0  0  0  0  0  0  0  0  0  0
  139.6930   68.9590  226.7860 C   0  0  0  0  0  0  0  0  0  0  0  0
  140.1560   69.2900  228.0340 C   0  0  0  0  0  0  0  0  0  0  0  0
  140.0150   68.4900  229.1250 F   0  0  0  0  0  0  0  0  0  0  0  0
  140.8130   70.4960  228.2570 C   0  0  0  0  0  0  0  0  0  0  0  0
  141.0000   71.3670  227.2080 C   0  0  0  0  0  0  0  0  0  0  0  0
  140.5280   71.0200  225.9570 C   0  0  0  0  0  0  0  0  0  0  0  0
  140.6950   71.8460  224.9150 N   0  0  0  0  0  0  0  0  0  0  0  0
  138.7850   73.7540  223.0640 H   0  0  0  0  0  0  0  0  0  0  0  0
  140.8970   74.7154  221.2131 H   0  0  0  0  0  0  0  0  0  0  0  0
  139.4795   73.9723  220.3490 H   0  0  0  0  0  0  0  0  0  0  0  0
  140.2086   77.4600  219.3266 H   0  0  0  0  0  0  0  0  0  0  0  0
  138.7352   78.1943  219.9674 H   0  0  0  0  0  0  0  0  0  0  0  0
  141.6237   79.0369  220.3252 H   0  0  0  0  0  0  0  0  0  0  0  0
  140.2225   80.0699  220.2718 H   0  0  0  0  0  0  0  0  0  0  0  0
  139.5514   79.3872  222.5971 H   0  0  0  0  0  0  0  0  0  0  0  0
  142.6866   82.0486  224.9503 H   0  0  0  0  0  0  0  0  0  0  0  0
  144.5461   80.6357  223.5939 H   0  0  0  0  0  0  0  0  0  0  0  0
  143.3200   78.9540  222.0660 H   0  0  0  0  0  0  0  0  0  0  0  0
  141.7470   77.2205  222.1674 H   0  0  0  0  0  0  0  0  0  0  0  0
  140.5004   77.1363  223.3728 H   0  0  0  0  0  0  0  0  0  0  0  0
  139.2597   70.1677  222.4112 H   0  0  0  0  0  0  0  0  0  0  0  0
  138.8940   68.5591  224.2719 H   0  0  0  0  0  0  0  0  0  0  0  0
  139.1758   68.0007  226.6307 H   0  0  0  0  0  0  0  0  0  0  0  0
  141.1795   70.7509  229.2623 H   0  0  0  0  0  0  0  0  0  0  0  0
  141.5176   72.3251  227.3634 H   0  0  0  0  0  0  0  0  0  0  0  0
  1  2  2  0
  2  3  1  0
  3  4  1  0
  4  5  1  0
  5  6  2  0
  5  7  1  0
  7  8  1  0
  8  9  1  0
  9 10  1  0
 10 11  1  0
 11 12  2  0
 12 13  1  0
 13 14  2  0
 14 15  1  0
 10 16  1  0
  2 17  1  0
 17 18  2  0
 18 19  1  0
 19 20  2  0
 20 21  1  0
 21 22  2  0
 22 23  1  0
 22 24  1  0
 24 25  2  0
 25 26  1  0
 26 27  2  0
 16  7  1  0
 27 17  1  0
 15 11  1  0
 26 20  1  0
  3 28  1  0
  4 29  1  0
  4 30  1  0
  8 31  1  0
  8 32  1  0
  9 33  1  0
  9 34  1  0
 10 35  1  1
 13 36  1  0
 14 37  1  0
 15 38  1  0
 16 39  1  0
 16 40  1  0
 18 41  1  0
 19 42  1  0
 21 43  1  0
 24 44  1  0
 25 45  1  0
M  END
>  <smiles>  (12) 
O=C(NCC(=O)N1CC[C@H](c2ncc[nH]2)C1)c1ccc2cc(F)ccc2n1

>  <score_type>  (12) 
oracle

>  <origin>  (12) 
autodockgpu

>  <m_score__min__energy>  (12) 
-8.7300000000000004

>  <m_primary>  (12) 
energy

>  <rmsd>  (12) 
2.933782562470519

>  <m_score__min__rmsd>  (12) 
2.933782562470519

>  <meeko>  (12) 
{"free_energy": -8.48, "intermolecular_energy": -9.97, "internal_energy": -0.83, "cluster_size": 48, "cluster_id": 1, "rank_in_cluster": 14}

>  <energy>  (12) 
-8.48

>  <cluster_rmsd>  (12) 
0.83

>  <cluster>  (12) 
1

$$$$

     RDKit          3D

 45 48  0  0  0  0  0  0  0  0999 V2000
  138.2740   70.7910  221.7260 O   0  0  0  0  0  0  0  0  0  0  0  0
  138.8770   71.2720  222.7280 C   0  0  0  0  0  0  0  0  0  0  0  0
  139.2380   72.6590  222.7050 N   0  0  0  0  0  0  0  0  0  0  0  0
  138.8850   73.4100  221.5370 C   0  0  0  0  0  0  0  0  0  0  0  0
  139.9950   74.2800  221.0640 C   0  0  0  0  0  0  0  0  0  0  0  0
  140.9590   73.8590  220.3730 O   0  0  0  0  0  0  0  0  0  0  0  0
  139.9610   75.6570  221.4140 N   0  0  0  0  0  0  0  0  0  0  0  0
  138.7220   76.3980  221.5620 C   0  0  0  0  0  0  0  0  0  0  0  0
  139.1320   77.7670  222.0640 C   0  0  0  0  0  0  0  0  0  0  0  0
  140.4660   77.4660  222.7150 C   0  0  2  0  0  0  0  0  0  0  0  0
  141.2880   78.6620  222.9450 C   0  0  0  0  0  0  0  0  0  0  0  0
  141.2330   79.5340  223.9670 N   0  0  0  0  0  0  0  0  0  0  0  0
  142.1550   80.5030  223.8180 C   0  0  0  0  0  0  0  0  0  0  0  0
  142.8020   80.1870  222.6280 C   0  0  0  0  0  0  0  0  0  0  0  0
  142.2640   79.0680  222.1130 N   0  0  0  0  0  0  0  0  0  0  0  0
  141.0770   76.5440  221.6790 C   0  0  0  0  0  0  0  0  0  0  0  0
  139.2080   70.4520  223.8910 C   0  0  0  0  0  0  0  0  0  0  0  0
  138.8940   69.1070  223.8510 C   0  0  0  0  0  0  0  0  0  0  0  0
  139.1930   68.3020  224.9330 C   0  0  0  0  0  0  0  0  0  0  0  0
  139.8050   68.8530  226.0470 C   0  0  0  0  0  0  0  0  0  0  0  0
  140.1210   68.0880  227.1450 C   0  0  0  0  0  0  0  0  0  0  0  0
  140.7270   68.6600  228.2350 C   0  0  0  0  0  0  0  0  0  0  0  0
  141.0680   67.9670  229.3560 F   0  0  0  0  0  0  0  0  0  0  0  0
  141.0340   70.0170  228.2540 C   0  0  0  0  0  0  0  0  0  0  0  0
  140.7240   70.7940  227.1610 C   0  0  0  0  0  0  0  0  0  0  0  0
  140.1150   70.2050  226.0720 C   0  0  0  0  0  0  0  0  0  0  0  0
  139.8000   70.9350  224.9930 N   0  0  0  0  0  0  0  0  0  0  0  0
  139.7430   73.0640  223.5420 H   0  0  0  0  0  0  0  0  0  0  0  0
  138.6194   72.7080  220.7328 H   0  0  0  0  0  0  0  0  0  0  0  0
  138.0383   74.0609  221.8006 H   0  0  0  0  0  0  0  0  0  0  0  0
  138.2051   76.4813  220.5946 H   0  0  0  0  0  0  0  0  0  0  0  0
  138.0263   75.8995  222.2529 H   0  0  0  0  0  0  0  0  0  0  0  0
  139.2420   78.4820  221.2353 H   0  0  0  0  0  0  0  0  0  0  0  0
  138.3998   78.2337  222.7393 H   0  0  0  0  0  0  0  0  0  0  0  0
  140.3796   77.0392  223.7251 H   0  0  0  0  0  0  0  0  0  0  0  0
  142.3525   81.3536  224.4869 H   0  0  0  0  0  0  0  0  0  0  0  0
  143.6248   80.7625  222.1788 H   0  0  0  0  0  0  0  0  0  0  0  0
  142.5730   78.6140  221.2110 H   0  0  0  0  0  0  0  0  0  0  0  0
  141.3804   77.0941  220.7760 H   0  0  0  0  0  0  0  0  0  0  0  0
  141.9956   76.0353  222.0068 H   0  0  0  0  0  0  0  0  0  0  0  0
  138.4082   68.6793  222.9616 H   0  0  0  0  0  0  0  0  0  0  0  0
  138.9467   67.2302  224.9102 H   0  0  0  0  0  0  0  0  0  0  0  0
  139.8870   67.0132  227.1495 H   0  0  0  0  0  0  0  0  0  0  0  0
  141.5196   70.4644  229.1338 H   0  0  0  0  0  0  0  0  0  0  0  0
  140.9583   71.8687  227.1558 H   0  0  0  0  0  0  0  0  0  0  0  0
  1  2  2  0
  2  3  1  0
  3  4  1  0
  4  5  1  0
  5  6  2  0
  5  7  1  0
  7  8  1  0
  8  9  1  0
  9 10  1  0
 10 11  1  0
 11 12  2  0
 12 13  1  0
 13 14  2  0
 14 15  1  0
 10 16  1  0
  2 17  1  0
 17 18  2  0
 18 19  1  0
 19 20  2  0
 20 21  1  0
 21 22  2  0
 22 23  1  0
 22 24  1  0
 24 25  2  0
 25 26  1  0
 26 27  2  0
 16  7  1  0
 27 17  1  0
 15 11  1  0
 26 20  1  0
  3 28  1  0
  4 29  1  0
  4 30  1  0
  8 31  1  0
  8 32  1  0
  9 33  1  0
  9 34  1  0
 10 35  1  1
 13 36  1  0
 14 37  1  0
 15 38  1  0
 16 39  1  0
 16 40  1  0
 18 41  1  0
 19 42  1  0
 21 43  1  0
 24 44  1  0
 25 45  1  0
M  END
>  <smiles>  (13) 
O=C(NCC(=O)N1CC[C@H](c2ncc[nH]2)C1)c1ccc2cc(F)ccc2n1

>  <score_type>  (13) 
oracle

>  <origin>  (13) 
autodockgpu

>  <m_score__min__energy>  (13) 
-8.7300000000000004

>  <m_primary>  (13) 
energy

>  <rmsd>  (13) 
2.792047888664803

>  <m_score__min__rmsd>  (13) 
2.792047888664803

>  <meeko>  (13) 
{"free_energy": -7.92, "intermolecular_energy": -9.42, "internal_energy": -0.98, "cluster_size": 48, "cluster_id": 1, "rank_in_cluster": 35}

>  <energy>  (13) 
-8.48

>  <cluster_rmsd>  (13) 
0.83

>  <cluster>  (13) 
1

$$$$

     RDKit          3D

 45 48  0  0  0  0  0  0  0  0999 V2000
  140.0990   70.8140  221.6050 O   0  0  0  0  0  0  0  0  0  0  0  0
  139.9550   71.5560  222.6180 C   0  0  0  0  0  0  0  0  0  0  0  0
  139.6080   72.9320  222.4090 N   0  0  0  0  0  0  0  0  0  0  0  0
  139.4480   73.3710  221.0550 C   0  0  0  0  0  0  0  0  0  0  0  0
  140.3780   74.4760  220.7020 C   0  0  0  0  0  0  0  0  0  0  0  0
  141.3220   74.3510  219.8800 O   0  0  0  0  0  0  0  0  0  0  0  0
  140.1860   75.7380  221.3290 N   0  0  0  0  0  0  0  0  0  0  0  0
  138.9740   76.0790  222.0500 C   0  0  0  0  0  0  0  0  0  0  0  0
  139.2400   77.4390  222.6600 C   0  0  0  0  0  0  0  0  0  0  0  0
  140.7530   77.4500  222.7300 C   0  0  2  0  0  0  0  0  0  0  0  0
  141.3200   78.7930  222.9120 C   0  0  0  0  0  0  0  0  0  0  0  0
  140.7680   79.8630  223.5100 N   0  0  0  0  0  0  0  0  0  0  0  0
  141.6050   80.9170  223.4750 C   0  0  0  0  0  0  0  0  0  0  0  0
  142.7320   80.4420  222.8110 C   0  0  0  0  0  0  0  0  0  0  0  0
  142.5420   79.1530  222.4780 N   0  0  0  0  0  0  0  0  0  0  0  0
  141.0970   76.8650  221.3740 C   0  0  0  0  0  0  0  0  0  0  0  0
  140.1320   71.0470  223.9750 C   0  0  0  0  0  0  0  0  0  0  0  0
  140.6960   71.8840  224.9170 C   0  0  0  0  0  0  0  0  0  0  0  0
  140.8790   71.4350  226.2110 C   0  0  0  0  0  0  0  0  0  0  0  0
  140.4940   70.1470  226.5470 C   0  0  0  0  0  0  0  0  0  0  0  0
  140.6580   69.6590  227.8230 C   0  0  0  0  0  0  0  0  0  0  0  0
  140.2670   68.3800  228.1290 C   0  0  0  0  0  0  0  0  0  0  0  0
  140.3980   67.8300  229.3670 F   0  0  0  0  0  0  0  0  0  0  0  0
  139.7010   67.5530  227.1640 C   0  0  0  0  0  0  0  0  0  0  0  0
  139.5310   68.0290  225.8840 C   0  0  0  0  0  0  0  0  0  0  0  0
  139.9290   69.3180  225.5900 C   0  0  0  0  0  0  0  0  0  0  0  0
  139.7770   69.8100  224.3530 N   0  0  0  0  0  0  0  0  0  0  0  0
  139.4870   73.5570  223.2550 H   0  0  0  0  0  0  0  0  0  0  0  0
  139.6389   72.5209  220.3835 H   0  0  0  0  0  0  0  0  0  0  0  0
  138.4212   73.7499  220.9452 H   0  0  0  0  0  0  0  0  0  0  0  0
  138.1170   76.1265  221.3620 H   0  0  0  0  0  0  0  0  0  0  0  0
  138.7274   75.3280  222.8150 H   0  0  0  0  0  0  0  0  0  0  0  0
  138.8619   78.2480  222.0177 H   0  0  0  0  0  0  0  0  0  0  0  0
  138.7457   77.5993  223.6295 H   0  0  0  0  0  0  0  0  0  0  0  0
  141.1603   76.9003  223.5914 H   0  0  0  0  0  0  0  0  0  0  0  0
  141.4361   81.9258  223.8798 H   0  0  0  0  0  0  0  0  0  0  0  0
  143.6364   81.0289  222.5928 H   0  0  0  0  0  0  0  0  0  0  0  0
  143.2460   78.5560  221.9640 H   0  0  0  0  0  0  0  0  0  0  0  0
  140.8981   77.5797  220.5619 H   0  0  0  0  0  0  0  0  0  0  0  0
  142.1571   76.6008  221.2462 H   0  0  0  0  0  0  0  0  0  0  0  0
  140.9985   72.9043  224.6386 H   0  0  0  0  0  0  0  0  0  0  0  0
  141.3269   72.0950  226.9685 H   0  0  0  0  0  0  0  0  0  0  0  0
  141.1042   70.2965  228.6005 H   0  0  0  0  0  0  0  0  0  0  0  0
  139.3925   66.5290  227.4215 H   0  0  0  0  0  0  0  0  0  0  0  0
  139.0845   67.3918  225.1064 H   0  0  0  0  0  0  0  0  0  0  0  0
  1  2  2  0
  2  3  1  0
  3  4  1  0
  4  5  1  0
  5  6  2  0
  5  7  1  0
  7  8  1  0
  8  9  1  0
  9 10  1  0
 10 11  1  0
 11 12  2  0
 12 13  1  0
 13 14  2  0
 14 15  1  0
 10 16  1  0
  2 17  1  0
 17 18  2  0
 18 19  1  0
 19 20  2  0
 20 21  1  0
 21 22  2  0
 22 23  1  0
 22 24  1  0
 24 25  2  0
 25 26  1  0
 26 27  2  0
 16  7  1  0
 27 17  1  0
 15 11  1  0
 26 20  1  0
  3 28  1  0
  4 29  1  0
  4 30  1  0
  8 31  1  0
  8 32  1  0
  9 33  1  0
  9 34  1  0
 10 35  1  1
 13 36  1  0
 14 37  1  0
 15 38  1  0
 16 39  1  0
 16 40  1  0
 18 41  1  0
 19 42  1  0
 21 43  1  0
 24 44  1  0
 25 45  1  0
M  END
>  <smiles>  (14) 
O=C(NCC(=O)N1CC[C@H](c2ncc[nH]2)C1)c1ccc2cc(F)ccc2n1

>  <score_type>  (14) 
oracle

>  <origin>  (14) 
autodockgpu

>  <m_score__min__energy>  (14) 
-8.7300000000000004

>  <m_primary>  (14) 
energy

>  <rmsd>  (14) 
3.6580442750016484

>  <m_score__min__rmsd>  (14) 
3.6580442750016484

>  <meeko>  (14) 
{"free_energy": -8.31, "intermolecular_energy": -9.8, "internal_energy": -0.82, "cluster_size": 48, "cluster_id": 1, "rank_in_cluster": 23}

>  <energy>  (14) 
-8.48

>  <cluster_rmsd>  (14) 
0.47

>  <cluster>  (14) 
1

$$$$

     RDKit          3D

 45 48  0  0  0  0  0  0  0  0999 V2000
  139.9370   71.7100  220.8020 O   0  0  0  0  0  0  0  0  0  0  0  0
  140.3710   72.1680  221.8980 C   0  0  0  0  0  0  0  0  0  0  0  0
  141.0840   73.4120  221.8800 N   0  0  0  0  0  0  0  0  0  0  0  0
  141.2530   74.0540  220.6110 C   0  0  0  0  0  0  0  0  0  0  0  0
  140.1700   75.0300  220.3190 C   0  0  0  0  0  0  0  0  0  0  0  0
  139.3230   74.8720  219.4020 O   0  0  0  0  0  0  0  0  0  0  0  0
  140.0920   76.2020  221.1210 N   0  0  0  0  0  0  0  0  0  0  0  0
  138.9460   76.5050  221.9580 C   0  0  0  0  0  0  0  0  0  0  0  0
  139.3300   77.7520  222.7270 C   0  0  0  0  0  0  0  0  0  0  0  0
  140.8420   77.6720  222.7000 C   0  0  2  0  0  0  0  0  0  0  0  0
  141.5010   78.9450  223.0240 C   0  0  0  0  0  0  0  0  0  0  0  0
  141.0400   79.9610  223.7740 N   0  0  0  0  0  0  0  0  0  0  0  0
  141.9420   80.9590  223.8350 C   0  0  0  0  0  0  0  0  0  0  0  0
  143.0120   80.5060  223.0690 C   0  0  0  0  0  0  0  0  0  0  0  0
  142.7280   79.2840  222.5860 N   0  0  0  0  0  0  0  0  0  0  0  0
  141.0720   77.2620  221.2590 C   0  0  0  0  0  0  0  0  0  0  0  0
  140.1650   71.4630  223.1600 C   0  0  0  0  0  0  0  0  0  0  0  0
  139.3950   70.3160  223.1480 C   0  0  0  0  0  0  0  0  0  0  0  0
  139.1790   69.6250  224.3250 C   0  0  0  0  0  0  0  0  0  0  0  0
  139.7380   70.0910  225.5040 C   0  0  0  0  0  0  0  0  0  0  0  0
  139.5490   69.4340  226.6970 C   0  0  0  0  0  0  0  0  0  0  0  0
  140.1150   69.9170  227.8500 C   0  0  0  0  0  0  0  0  0  0  0  0
  139.9710   69.3210  229.0650 F   0  0  0  0  0  0  0  0  0  0  0  0
  140.8860   71.0750  227.8390 C   0  0  0  0  0  0  0  0  0  0  0  0
  141.0830   71.7420  226.6520 C   0  0  0  0  0  0  0  0  0  0  0  0
  140.5090   71.2440  225.5000 C   0  0  0  0  0  0  0  0  0  0  0  0
  140.6830   71.8710  224.3280 N   0  0  0  0  0  0  0  0  0  0  0  0
  141.4490   73.7980  222.7960 H   0  0  0  0  0  0  0  0  0  0  0  0
  142.2164   74.5849  220.6096 H   0  0  0  0  0  0  0  0  0  0  0  0
  141.2198   73.2752  219.8349 H   0  0  0  0  0  0  0  0  0  0  0  0
  138.0561   76.6928  221.3393 H   0  0  0  0  0  0  0  0  0  0  0  0
  138.6969   75.6701  222.6294 H   0  0  0  0  0  0  0  0  0  0  0  0
  138.9670   78.6610  222.2251 H   0  0  0  0  0  0  0  0  0  0  0  0
  138.9023   77.8034  223.7392 H   0  0  0  0  0  0  0  0  0  0  0  0
  141.2623   76.9877  223.4517 H   0  0  0  0  0  0  0  0  0  0  0  0
  141.8532   81.9162  224.3696 H   0  0  0  0  0  0  0  0  0  0  0  0
  143.9442   81.0610  222.8872 H   0  0  0  0  0  0  0  0  0  0  0  0
  143.3730   78.7160  221.9720 H   0  0  0  0  0  0  0  0  0  0  0  0
  140.8722   78.0916  220.5648 H   0  0  0  0  0  0  0  0  0  0  0  0
  142.1049   76.9614  221.0293 H   0  0  0  0  0  0  0  0  0  0  0  0
  138.9561   69.9547  222.2063 H   0  0  0  0  0  0  0  0  0  0  0  0
  138.5672   68.7108  224.3259 H   0  0  0  0  0  0  0  0  0  0  0  0
  138.9416   68.5174  226.7273 H   0  0  0  0  0  0  0  0  0  0  0  0
  141.3335   71.4534  228.7699 H   0  0  0  0  0  0  0  0  0  0  0  0
  141.6894   72.6592  226.6216 H   0  0  0  0  0  0  0  0  0  0  0  0
  1  2  2  0
  2  3  1  0
  3  4  1  0
  4  5  1  0
  5  6  2  0
  5  7  1  0
  7  8  1  0
  8  9  1  0
  9 10  1  0
 10 11  1  0
 11 12  2  0
 12 13  1  0
 13 14  2  0
 14 15  1  0
 10 16  1  0
  2 17  1  0
 17 18  2  0
 18 19  1  0
 19 20  2  0
 20 21  1  0
 21 22  2  0
 22 23  1  0
 22 24  1  0
 24 25  2  0
 25 26  1  0
 26 27  2  0
 16  7  1  0
 27 17  1  0
 15 11  1  0
 26 20  1  0
  3 28  1  0
  4 29  1  0
  4 30  1  0
  8 31  1  0
  8 32  1  0
  9 33  1  0
  9 34  1  0
 10 35  1  1
 13 36  1  0
 14 37  1  0
 15 38  1  0
 16 39  1  0
 16 40  1  0
 18 41  1  0
 19 42  1  0
 21 43  1  0
 24 44  1  0
 25 45  1  0
M  END
>  <smiles>  (15) 
O=C(NCC(=O)N1CC[C@H](c2ncc[nH]2)C1)c1ccc2cc(F)ccc2n1

>  <score_type>  (15) 
oracle

>  <origin>  (15) 
autodockgpu

>  <m_score__min__energy>  (15) 
-8.7300000000000004

>  <m_primary>  (15) 
energy

>  <rmsd>  (15) 
3.2228976549815505

>  <m_score__min__rmsd>  (15) 
3.2228976549815505

>  <meeko>  (15) 
{"free_energy": -7.54, "intermolecular_energy": -9.03, "internal_energy": -1.12, "cluster_size": 48, "cluster_id": 1, "rank_in_cluster": 47}

>  <energy>  (15) 
-8.44

>  <cluster_rmsd>  (15) 
0.87

>  <cluster>  (15) 
1

$$$$

     RDKit          3D

 45 48  0  0  0  0  0  0  0  0999 V2000
  139.1760   71.0520  221.4420 O   0  0  0  0  0  0  0  0  0  0  0  0
  139.3860   71.5560  222.5830 C   0  0  0  0  0  0  0  0  0  0  0  0
  139.4520   72.9840  222.6940 N   0  0  0  0  0  0  0  0  0  0  0  0
  139.2720   73.7460  221.4940 C   0  0  0  0  0  0  0  0  0  0  0  0
  140.5590   74.0420  220.8110 C   0  0  0  0  0  0  0  0  0  0  0  0
  141.2130   73.1840  220.1620 O   0  0  0  0  0  0  0  0  0  0  0  0
  141.0740   75.3640  220.8990 N   0  0  0  0  0  0  0  0  0  0  0  0
  141.7030   76.0370  219.7780 C   0  0  0  0  0  0  0  0  0  0  0  0
  141.9780   77.4460  220.2600 C   0  0  0  0  0  0  0  0  0  0  0  0
  140.9480   77.5980  221.3600 C   0  0  2  0  0  0  0  0  0  0  0  0
  141.2290   78.7130  222.2750 C   0  0  0  0  0  0  0  0  0  0  0  0
  140.3770   79.3780  223.0740 N   0  0  0  0  0  0  0  0  0  0  0  0
  141.0190   80.3400  223.7630 C   0  0  0  0  0  0  0  0  0  0  0  0
  142.3420   80.2410  223.3460 C   0  0  0  0  0  0  0  0  0  0  0  0
  142.4520   79.2500  222.4440 N   0  0  0  0  0  0  0  0  0  0  0  0
  141.0760   76.2520  222.0460 C   0  0  0  0  0  0  0  0  0  0  0  0
  139.5610   70.7230  223.7690 C   0  0  0  0  0  0  0  0  0  0  0  0
  139.1340   69.4110  223.7140 C   0  0  0  0  0  0  0  0  0  0  0  0
  139.2840   68.5940  224.8180 C   0  0  0  0  0  0  0  0  0  0  0  0
  139.8620   69.1020  225.9700 C   0  0  0  0  0  0  0  0  0  0  0  0
  140.0310   68.3250  227.0920 C   0  0  0  0  0  0  0  0  0  0  0  0
  140.6080   68.8540  228.2190 C   0  0  0  0  0  0  0  0  0  0  0  0
  140.8070   68.1460  229.3640 F   0  0  0  0  0  0  0  0  0  0  0  0
  141.0320   70.1780  228.2530 C   0  0  0  0  0  0  0  0  0  0  0  0
  140.8690   70.9670  227.1370 C   0  0  0  0  0  0  0  0  0  0  0  0
  140.2870   70.4220  226.0100 C   0  0  0  0  0  0  0  0  0  0  0  0
  140.1150   71.1640  224.9080 N   0  0  0  0  0  0  0  0  0  0  0  0
  139.6280   73.4090  223.6480 H   0  0  0  0  0  0  0  0  0  0  0  0
  138.6304   73.1755  220.8064 H   0  0  0  0  0  0  0  0  0  0  0  0
  138.8121   74.7057  221.7724 H   0  0  0  0  0  0  0  0  0  0  0  0
  142.6419   75.5335  219.5040 H   0  0  0  0  0  0  0  0  0  0  0  0
  141.0635   76.0275  218.8831 H   0  0  0  0  0  0  0  0  0  0  0  0
  143.0012   77.5437  220.6519 H   0  0  0  0  0  0  0  0  0  0  0  0
  141.9073   78.2103  219.4721 H   0  0  0  0  0  0  0  0  0  0  0  0
  139.9400   77.8399  220.9920 H   0  0  0  0  0  0  0  0  0  0  0  0
  140.5931   81.0454  224.4917 H   0  0  0  0  0  0  0  0  0  0  0  0
  143.1692   80.8744  223.6989 H   0  0  0  0  0  0  0  0  0  0  0  0
  143.3520   78.9670  221.9690 H   0  0  0  0  0  0  0  0  0  0  0  0
  142.0135   76.1753  222.6163 H   0  0  0  0  0  0  0  0  0  0  0  0
  140.2915   76.0413  222.7878 H   0  0  0  0  0  0  0  0  0  0  0  0
  138.6760   69.0177  222.7945 H   0  0  0  0  0  0  0  0  0  0  0  0
  138.9469   67.5475  224.7825 H   0  0  0  0  0  0  0  0  0  0  0  0
  139.7023   67.2753  227.0860 H   0  0  0  0  0  0  0  0  0  0  0  0
  141.4930   70.5906  229.1626 H   0  0  0  0  0  0  0  0  0  0  0  0
  141.1978   72.0167  227.1430 H   0  0  0  0  0  0  0  0  0  0  0  0
  1  2  2  0
  2  3  1  0
  3  4  1  0
  4  5  1  0
  5  6  2  0
  5  7  1  0
  7  8  1  0
  8  9  1  0
  9 10  1  0
 10 11  1  0
 11 12  2  0
 12 13  1  0
 13 14  2  0
 14 15  1  0
 10 16  1  0
  2 17  1  0
 17 18  2  0
 18 19  1  0
 19 20  2  0
 20 21  1  0
 21 22  2  0
 22 23  1  0
 22 24  1  0
 24 25  2  0
 25 26  1  0
 26 27  2  0
 16  7  1  0
 27 17  1  0
 15 11  1  0
 26 20  1  0
  3 28  1  0
  4 29  1  0
  4 30  1  0
  8 31  1  0
  8 32  1  0
  9 33  1  0
  9 34  1  0
 10 35  1  6
 13 36  1  0
 14 37  1  0
 15 38  1  0
 16 39  1  0
 16 40  1  0
 18 41  1  0
 19 42  1  0
 21 43  1  0
 24 44  1  0
 25 45  1  0
M  END
>  <smiles>  (16) 
O=C(NCC(=O)N1CC[C@H](c2ncc[nH]2)C1)c1ccc2cc(F)ccc2n1

>  <score_type>  (16) 
oracle

>  <origin>  (16) 
autodockgpu

>  <m_score__min__energy>  (16) 
-8.7300000000000004

>  <m_primary>  (16) 
energy

>  <rmsd>  (16) 
2.303959866935833

>  <m_score__min__rmsd>  (16) 
2.303959866935833

>  <meeko>  (16) 
{"free_energy": -7.85, "intermolecular_energy": -9.34, "internal_energy": -0.99, "cluster_size": 48, "cluster_id": 1, "rank_in_cluster": 40}

>  <energy>  (16) 
-8.42

>  <cluster_rmsd>  (16) 
0.6

>  <cluster>  (16) 
1

$$$$

     RDKit          3D

 45 48  0  0  0  0  0  0  0  0999 V2000
  139.8670   71.0810  221.4210 O   0  0  0  0  0  0  0  0  0  0  0  0
  139.8790   71.5740  222.5860 C   0  0  0  0  0  0  0  0  0  0  0  0
  139.8790   73.0020  222.7210 N   0  0  0  0  0  0  0  0  0  0  0  0
  139.8630   73.7750  221.5150 C   0  0  0  0  0  0  0  0  0  0  0  0
  139.3690   75.1600  221.7360 C   0  0  0  0  0  0  0  0  0  0  0  0
  138.1680   75.4350  221.9900 O   0  0  0  0  0  0  0  0  0  0  0  0
  140.3060   76.2260  221.6520 N   0  0  0  0  0  0  0  0  0  0  0  0
  141.0610   76.5140  220.4470 C   0  0  0  0  0  0  0  0  0  0  0  0
  141.8260   77.7860  220.7490 C   0  0  0  0  0  0  0  0  0  0  0  0
  140.9740   78.4030  221.8390 C   0  0  2  0  0  0  0  0  0  0  0  0
  141.6690   79.4460  222.6050 C   0  0  0  0  0  0  0  0  0  0  0  0
  141.1430   80.4710  223.2960 N   0  0  0  0  0  0  0  0  0  0  0  0
  142.1120   81.2130  223.8650 C   0  0  0  0  0  0  0  0  0  0  0  0
  143.2950   80.5870  223.4860 C   0  0  0  0  0  0  0  0  0  0  0  0
  143.0080   79.5180  222.7240 N   0  0  0  0  0  0  0  0  0  0  0  0
  140.6760   77.1790  222.6820 C   0  0  0  0  0  0  0  0  0  0  0  0
  139.8950   70.7290  223.7770 C   0  0  0  0  0  0  0  0  0  0  0  0
  139.3120   69.4790  223.6970 C   0  0  0  0  0  0  0  0  0  0  0  0
  139.3090   68.6530  224.8040 C   0  0  0  0  0  0  0  0  0  0  0  0
  139.8910   69.0890  225.9830 C   0  0  0  0  0  0  0  0  0  0  0  0
  139.9110   68.3000  227.1100 C   0  0  0  0  0  0  0  0  0  0  0  0
  140.4950   68.7560  228.2640 C   0  0  0  0  0  0  0  0  0  0  0  0
  140.5510   68.0320  229.4150 F   0  0  0  0  0  0  0  0  0  0  0  0
  141.0760   70.0190  228.3220 C   0  0  0  0  0  0  0  0  0  0  0  0
  141.0640   70.8190  227.2030 C   0  0  0  0  0  0  0  0  0  0  0  0
  140.4730   70.3470  226.0480 C   0  0  0  0  0  0  0  0  0  0  0  0
  140.4450   71.1020  224.9410 N   0  0  0  0  0  0  0  0  0  0  0  0
  139.8900   73.4170  223.6940 H   0  0  0  0  0  0  0  0  0  0  0  0
  140.8860   73.8246  221.1136 H   0  0  0  0  0  0  0  0  0  0  0  0
  139.1769   73.2827  220.8101 H   0  0  0  0  0  0  0  0  0  0  0  0
  141.7553   75.6912  220.2215 H   0  0  0  0  0  0  0  0  0  0  0  0
  140.4064   76.6275  219.5703 H   0  0  0  0  0  0  0  0  0  0  0  0
  142.8421   77.5673  221.1093 H   0  0  0  0  0  0  0  0  0  0  0  0
  141.9743   78.4370  219.8748 H   0  0  0  0  0  0  0  0  0  0  0  0
  140.0888   78.9356  221.4612 H   0  0  0  0  0  0  0  0  0  0  0  0
  141.9946   82.1114  224.4888 H   0  0  0  0  0  0  0  0  0  0  0  0
  144.3067   80.9155  223.7661 H   0  0  0  0  0  0  0  0  0  0  0  0
  143.7290   78.8690  222.3050 H   0  0  0  0  0  0  0  0  0  0  0  0
  141.5627   76.8468  223.2418 H   0  0  0  0  0  0  0  0  0  0  0  0
  139.9107   77.3337  223.4568 H   0  0  0  0  0  0  0  0  0  0  0  0
  138.8522   69.1431  222.7559 H   0  0  0  0  0  0  0  0  0  0  0  0
  138.8477   67.6559  224.7498 H   0  0  0  0  0  0  0  0  0  0  0  0
  139.4564   67.2987  227.0853 H   0  0  0  0  0  0  0  0  0  0  0  0
  141.5405   70.3743  229.2537 H   0  0  0  0  0  0  0  0  0  0  0  0
  141.5187   71.8203  227.2281 H   0  0  0  0  0  0  0  0  0  0  0  0
  1  2  2  0
  2  3  1  0
  3  4  1  0
  4  5  1  0
  5  6  2  0
  5  7  1  0
  7  8  1  0
  8  9  1  0
  9 10  1  0
 10 11  1  0
 11 12  2  0
 12 13  1  0
 13 14  2  0
 14 15  1  0
 10 16  1  0
  2 17  1  0
 17 18  2  0
 18 19  1  0
 19 20  2  0
 20 21  1  0
 21 22  2  0
 22 23  1  0
 22 24  1  0
 24 25  2  0
 25 26  1  0
 26 27  2  0
 16  7  1  0
 27 17  1  0
 15 11  1  0
 26 20  1  0
  3 28  1  0
  4 29  1  0
  4 30  1  0
  8 31  1  0
  8 32  1  0
  9 33  1  0
  9 34  1  0
 10 35  1  6
 13 36  1  0
 14 37  1  0
 15 38  1  0
 16 39  1  0
 16 40  1  0
 18 41  1  0
 19 42  1  0
 21 43  1  0
 24 44  1  0
 25 45  1  0
M  END
>  <smiles>  (17) 
O=C(NCC(=O)N1CC[C@H](c2ncc[nH]2)C1)c1ccc2cc(F)ccc2n1

>  <score_type>  (17) 
oracle

>  <origin>  (17) 
autodockgpu

>  <m_score__min__energy>  (17) 
-8.7300000000000004

>  <m_primary>  (17) 
energy

>  <rmsd>  (17) 
2.665327881835876

>  <m_score__min__rmsd>  (17) 
2.665327881835876

>  <meeko>  (17) 
{"free_energy": -8.4, "intermolecular_energy": -9.89, "internal_energy": -0.91, "cluster_size": 48, "cluster_id": 1, "rank_in_cluster": 18}

>  <energy>  (17) 
-8.41

>  <cluster_rmsd>  (17) 
0.9

>  <cluster>  (17) 
1

$$$$

     RDKit          3D

 45 48  0  0  0  0  0  0  0  0999 V2000
  140.9520   72.1280  221.3500 O   0  0  0  0  0  0  0  0  0  0  0  0
  140.0800   72.3050  222.2490 C   0  0  0  0  0  0  0  0  0  0  0  0
  139.1300   73.3650  222.0750 N   0  0  0  0  0  0  0  0  0  0  0  0
  139.2360   74.1540  220.8840 C   0  0  0  0  0  0  0  0  0  0  0  0
  140.4470   75.0170  220.8810 C   0  0  0  0  0  0  0  0  0  0  0  0
  141.5410   74.6740  220.3640 O   0  0  0  0  0  0  0  0  0  0  0  0
  140.3590   76.2960  221.4960 N   0  0  0  0  0  0  0  0  0  0  0  0
  139.1360   76.7940  222.0970 C   0  0  0  0  0  0  0  0  0  0  0  0
  139.5140   78.1110  222.7420 C   0  0  0  0  0  0  0  0  0  0  0  0
  141.0010   77.9260  222.9620 C   0  0  2  0  0  0  0  0  0  0  0  0
  141.7170   79.1850  223.2110 C   0  0  0  0  0  0  0  0  0  0  0  0
  141.2710   80.2970  223.8200 N   0  0  0  0  0  0  0  0  0  0  0  0
  142.2300   81.2420  223.8550 C   0  0  0  0  0  0  0  0  0  0  0  0
  143.3200   80.6510  223.2230 C   0  0  0  0  0  0  0  0  0  0  0  0
  142.9920   79.4050  222.8400 N   0  0  0  0  0  0  0  0  0  0  0  0
  141.3990   77.2950  221.6420 C   0  0  0  0  0  0  0  0  0  0  0  0
  140.0250   71.4640  223.4410 C   0  0  0  0  0  0  0  0  0  0  0  0
  139.4100   70.2320  223.3420 C   0  0  0  0  0  0  0  0  0  0  0  0
  139.3390   69.4100  224.4510 C   0  0  0  0  0  0  0  0  0  0  0  0
  139.8880   69.8330  225.6500 C   0  0  0  0  0  0  0  0  0  0  0  0
  139.8410   69.0480  226.7780 C   0  0  0  0  0  0  0  0  0  0  0  0
  140.3930   69.4920  227.9540 C   0  0  0  0  0  0  0  0  0  0  0  0
  140.3840   68.7700  229.1080 F   0  0  0  0  0  0  0  0  0  0  0  0
  141.0080   70.7370  228.0310 C   0  0  0  0  0  0  0  0  0  0  0  0
  141.0620   71.5330  226.9100 C   0  0  0  0  0  0  0  0  0  0  0  0
  140.5030   71.0740  225.7340 C   0  0  0  0  0  0  0  0  0  0  0  0
  140.5400   71.8260  224.6250 N   0  0  0  0  0  0  0  0  0  0  0  0
  138.3990   73.5160  222.8260 H   0  0  0  0  0  0  0  0  0  0  0  0
  139.2809   73.4794  220.0163 H   0  0  0  0  0  0  0  0  0  0  0  0
  138.3555   74.8118  220.8383 H   0  0  0  0  0  0  0  0  0  0  0  0
  138.3645   76.9490  221.3284 H   0  0  0  0  0  0  0  0  0  0  0  0
  138.7201   76.0845  222.8275 H   0  0  0  0  0  0  0  0  0  0  0  0
  139.3097   78.9593  222.0722 H   0  0  0  0  0  0  0  0  0  0  0  0
  138.9506   78.3384  223.6590 H   0  0  0  0  0  0  0  0  0  0  0  0
  141.2459   77.3323  223.8551 H   0  0  0  0  0  0  0  0  0  0  0  0
  142.1662   82.2522  224.2856 H   0  0  0  0  0  0  0  0  0  0  0  0
  144.2976   81.1290  223.0620 H   0  0  0  0  0  0  0  0  0  0  0  0
  143.6410   78.7410  222.3370 H   0  0  0  0  0  0  0  0  0  0  0  0
  141.3767   78.0261  220.8204 H   0  0  0  0  0  0  0  0  0  0  0  0
  142.4231   76.8941  221.6185 H   0  0  0  0  0  0  0  0  0  0  0  0
  138.9782   69.9058  222.3843 H   0  0  0  0  0  0  0  0  0  0  0  0
  138.8500   68.4271  224.3817 H   0  0  0  0  0  0  0  0  0  0  0  0
  139.3590   68.0600  226.7379 H   0  0  0  0  0  0  0  0  0  0  0  0
  141.4469   71.0820  228.9788 H   0  0  0  0  0  0  0  0  0  0  0  0
  141.5437   72.5211  226.9502 H   0  0  0  0  0  0  0  0  0  0  0  0
  1  2  2  0
  2  3  1  0
  3  4  1  0
  4  5  1  0
  5  6  2  0
  5  7  1  0
  7  8  1  0
  8  9  1  0
  9 10  1  0
 10 11  1  0
 11 12  2  0
 12 13  1  0
 13 14  2  0
 14 15  1  0
 10 16  1  0
  2 17  1  0
 17 18  2  0
 18 19  1  0
 19 20  2  0
 20 21  1  0
 21 22  2  0
 22 23  1  0
 22 24  1  0
 24 25  2  0
 25 26  1  0
 26 27  2  0
 16  7  1  0
 27 17  1  0
 15 11  1  0
 26 20  1  0
  3 28  1  0
  4 29  1  0
  4 30  1  0
  8 31  1  0
  8 32  1  0
  9 33  1  0
  9 34  1  0
 10 35  1  1
 13 36  1  0
 14 37  1  0
 15 38  1  0
 16 39  1  0
 16 40  1  0
 18 41  1  0
 19 42  1  0
 21 43  1  0
 24 44  1  0
 25 45  1  0
M  END
>  <smiles>  (18) 
O=C(NCC(=O)N1CC[C@H](c2ncc[nH]2)C1)c1ccc2cc(F)ccc2n1

>  <score_type>  (18) 
oracle

>  <origin>  (18) 
autodockgpu

>  <m_score__min__energy>  (18) 
-8.7300000000000004

>  <m_primary>  (18) 
energy

>  <rmsd>  (18) 
3.066819792298963

>  <m_score__min__rmsd>  (18) 
3.066819792298963

>  <meeko>  (18) 
{"free_energy": -8.56, "intermolecular_energy": -10.05, "internal_energy": -0.84, "cluster_size": 48, "cluster_id": 1, "rank_in_cluster": 6}

>  <energy>  (18) 
-8.4

>  <cluster_rmsd>  (18) 
0.79

>  <cluster>  (18) 
1

$$$$

     RDKit          3D

 45 48  0  0  0  0  0  0  0  0999 V2000
  141.3910   72.6710  221.9670 O   0  0  0  0  0  0  0  0  0  0  0  0
  140.3370   72.5550  222.6550 C   0  0  0  0  0  0  0  0  0  0  0  0
  139.2260   73.4080  222.3490 N   0  0  0  0  0  0  0  0  0  0  0  0
  139.3910   74.3400  221.2730 C   0  0  0  0  0  0  0  0  0  0  0  0
  139.0390   75.7300  221.6670 C   0  0  0  0  0  0  0  0  0  0  0  0
  137.8950   76.0700  222.0630 O   0  0  0  0  0  0  0  0  0  0  0  0
  140.0530   76.7240  221.5880 N   0  0  0  0  0  0  0  0  0  0  0  0
  140.6760   77.1120  220.3370 C   0  0  0  0  0  0  0  0  0  0  0  0
  141.5860   78.2720  220.6850 C   0  0  0  0  0  0  0  0  0  0  0  0
  140.9360   78.8010  221.9470 C   0  0  2  0  0  0  0  0  0  0  0  0
  141.8130   79.6770  222.7330 C   0  0  0  0  0  0  0  0  0  0  0  0
  141.4740   80.6820  223.5590 N   0  0  0  0  0  0  0  0  0  0  0  0
  142.5690   81.2500  224.0980 C   0  0  0  0  0  0  0  0  0  0  0  0
  143.6320   80.5360  223.5550 C   0  0  0  0  0  0  0  0  0  0  0  0
  143.1560   79.5860  222.7310 N   0  0  0  0  0  0  0  0  0  0  0  0
  140.6330   77.5010  222.6670 C   0  0  0  0  0  0  0  0  0  0  0  0
  140.2320   71.5830  223.7400 C   0  0  0  0  0  0  0  0  0  0  0  0
  139.6480   70.3620  223.4680 C   0  0  0  0  0  0  0  0  0  0  0  0
  139.5330   69.4190  224.4710 C   0  0  0  0  0  0  0  0  0  0  0  0
  140.0050   69.7100  225.7400 C   0  0  0  0  0  0  0  0  0  0  0  0
  139.9110   68.8010  226.7680 C   0  0  0  0  0  0  0  0  0  0  0  0
  140.3880   69.1150  228.0150 C   0  0  0  0  0  0  0  0  0  0  0  0
  140.3290   68.2670  229.0780 F   0  0  0  0  0  0  0  0  0  0  0  0
  140.9730   70.3520  228.2680 C   0  0  0  0  0  0  0  0  0  0  0  0
  141.0740   71.2710  227.2490 C   0  0  0  0  0  0  0  0  0  0  0  0
  140.5900   70.9410  225.9990 C   0  0  0  0  0  0  0  0  0  0  0  0
  140.6740   71.8140  224.9860 N   0  0  0  0  0  0  0  0  0  0  0  0
  138.3420   73.3130  222.9240 H   0  0  0  0  0  0  0  0  0  0  0  0
  140.4414   74.3206  220.9470 H   0  0  0  0  0  0  0  0  0  0  0  0
  138.7113   74.0393  220.4621 H   0  0  0  0  0  0  0  0  0  0  0  0
  141.2587   76.2766  219.9217 H   0  0  0  0  0  0  0  0  0  0  0  0
  139.9307   77.3898  219.5771 H   0  0  0  0  0  0  0  0  0  0  0  0
  142.6147   77.9321  220.8754 H   0  0  0  0  0  0  0  0  0  0  0  0
  141.6835   79.0201  219.8844 H   0  0  0  0  0  0  0  0  0  0  0  0
  140.0635   79.4442  221.7600 H   0  0  0  0  0  0  0  0  0  0  0  0
  142.6131   82.0893  224.8077 H   0  0  0  0  0  0  0  0  0  0  0  0
  144.6957   80.7198  223.7665 H   0  0  0  0  0  0  0  0  0  0  0  0
  143.7560   78.9050  222.1900 H   0  0  0  0  0  0  0  0  0  0  0  0
  141.5478   77.0316  223.0580 H   0  0  0  0  0  0  0  0  0  0  0  0
  139.9865   77.6086  223.5504 H   0  0  0  0  0  0  0  0  0  0  0  0
  139.2758   70.1409  222.4568 H   0  0  0  0  0  0  0  0  0  0  0  0
  139.0695   68.4433  224.2630 H   0  0  0  0  0  0  0  0  0  0  0  0
  139.4512   67.8178  226.5892 H   0  0  0  0  0  0  0  0  0  0  0  0
  141.3509   70.5927  229.2726 H   0  0  0  0  0  0  0  0  0  0  0  0
  141.5337   72.2542  227.4278 H   0  0  0  0  0  0  0  0  0  0  0  0
  1  2  2  0
  2  3  1  0
  3  4  1  0
  4  5  1  0
  5  6  2  0
  5  7  1  0
  7  8  1  0
  8  9  1  0
  9 10  1  0
 10 11  1  0
 11 12  2  0
 12 13  1  0
 13 14  2  0
 14 15  1  0
 10 16  1  0
  2 17  1  0
 17 18  2  0
 18 19  1  0
 19 20  2  0
 20 21  1  0
 21 22  2  0
 22 23  1  0
 22 24  1  0
 24 25  2  0
 25 26  1  0
 26 27  2  0
 16  7  1  0
 27 17  1  0
 15 11  1  0
 26 20  1  0
  3 28  1  0
  4 29  1  0
  4 30  1  0
  8 31  1  0
  8 32  1  0
  9 33  1  0
  9 34  1  0
 10 35  1  6
 13 36  1  0
 14 37  1  0
 15 38  1  0
 16 39  1  0
 16 40  1  0
 18 41  1  0
 19 42  1  0
 21 43  1  0
 24 44  1  0
 25 45  1  0
M  END
>  <smiles>  (19) 
O=C(NCC(=O)N1CC[C@H](c2ncc[nH]2)C1)c1ccc2cc(F)ccc2n1

>  <score_type>  (19) 
oracle

>  <origin>  (19) 
autodockgpu

>  <m_score__min__energy>  (19) 
-8.7300000000000004

>  <m_primary>  (19) 
energy

>  <rmsd>  (19) 
2.812268992386045

>  <m_score__min__rmsd>  (19) 
2.812268992386045

>  <meeko>  (19) 
{"free_energy": -8.73, "intermolecular_energy": -10.23, "internal_energy": -0.85, "cluster_size": 48, "cluster_id": 1, "rank_in_cluster": 1}

>  <energy>  (19) 
-8.36

>  <cluster_rmsd>  (19) 
0.95

>  <cluster>  (19) 
1

$$$$

     RDKit          3D

 45 48  0  0  0  0  0  0  0  0999 V2000
  139.6610   71.3070  221.5060 O   0  0  0  0  0  0  0  0  0  0  0  0
  139.1460   71.6420  222.6110 C   0  0  0  0  0  0  0  0  0  0  0  0
  138.0370   72.5510  222.5970 N   0  0  0  0  0  0  0  0  0  0  0  0
  137.5870   73.0190  221.3200 C   0  0  0  0  0  0  0  0  0  0  0  0
  137.5900   74.5030  221.2260 C   0  0  0  0  0  0  0  0  0  0  0  0
  136.6140   75.1720  220.7990 O   0  0  0  0  0  0  0  0  0  0  0  0
  138.7600   75.1970  221.6400 N   0  0  0  0  0  0  0  0  0  0  0  0
  140.0980   74.6830  221.4150 C   0  0  0  0  0  0  0  0  0  0  0  0
  141.0320   75.7800  221.8820 C   0  0  0  0  0  0  0  0  0  0  0  0
  140.1520   77.0060  221.7530 C   0  0  2  0  0  0  0  0  0  0  0  0
  140.6500   78.1660  222.5040 C   0  0  0  0  0  0  0  0  0  0  0  0
  139.9710   78.9960  223.3140 N   0  0  0  0  0  0  0  0  0  0  0  0
  140.7840   79.9430  223.8190 C   0  0  0  0  0  0  0  0  0  0  0  0
  142.0310   79.6570  223.2730 C   0  0  0  0  0  0  0  0  0  0  0  0
  141.9320   78.5770  222.4790 N   0  0  0  0  0  0  0  0  0  0  0  0
  138.8520   76.4730  222.3230 C   0  0  0  0  0  0  0  0  0  0  0  0
  139.6520   71.1280  223.8810 C   0  0  0  0  0  0  0  0  0  0  0  0
  140.5700   71.8920  224.5740 C   0  0  0  0  0  0  0  0  0  0  0  0
  141.0700   71.4360  225.7790 C   0  0  0  0  0  0  0  0  0  0  0  0
  140.6430   70.2160  226.2780 C   0  0  0  0  0  0  0  0  0  0  0  0
  141.1140   69.7240  227.4730 C   0  0  0  0  0  0  0  0  0  0  0  0
  140.6740   68.5130  227.9440 C   0  0  0  0  0  0  0  0  0  0  0  0
  141.0960   67.9640  229.1160 F   0  0  0  0  0  0  0  0  0  0  0  0
  139.7490   67.7590  227.2290 C   0  0  0  0  0  0  0  0  0  0  0  0
  139.2690   68.2390  226.0320 C   0  0  0  0  0  0  0  0  0  0  0  0
  139.7200   69.4600  225.5700 C   0  0  0  0  0  0  0  0  0  0  0  0
  139.2720   69.9540  224.4080 N   0  0  0  0  0  0  0  0  0  0  0  0
  137.6040   72.8340  223.5210 H   0  0  0  0  0  0  0  0  0  0  0  0
  138.2509   72.6145  220.5417 H   0  0  0  0  0  0  0  0  0  0  0  0
  136.5505   72.6768  221.1840 H   0  0  0  0  0  0  0  0  0  0  0  0
  140.2608   73.7644  221.9978 H   0  0  0  0  0  0  0  0  0  0  0  0
  140.2654   74.4241  220.3591 H   0  0  0  0  0  0  0  0  0  0  0  0
  141.3485   75.6211  222.9234 H   0  0  0  0  0  0  0  0  0  0  0  0
  141.9705   75.8412  221.3114 H   0  0  0  0  0  0  0  0  0  0  0  0
  140.0859   77.3976  220.7272 H   0  0  0  0  0  0  0  0  0  0  0  0
  140.5213   80.7591  224.5082 H   0  0  0  0  0  0  0  0  0  0  0  0
  142.9536   80.2256  223.4615 H   0  0  0  0  0  0  0  0  0  0  0  0
  142.7350   78.1510  221.9420 H   0  0  0  0  0  0  0  0  0  0  0  0
  138.9104   76.3451  223.4140 H   0  0  0  0  0  0  0  0  0  0  0  0
  137.9846   77.1331  222.1746 H   0  0  0  0  0  0  0  0  0  0  0  0
  140.9019   72.8593  224.1688 H   0  0  0  0  0  0  0  0  0  0  0  0
  141.8019   72.0375  226.3381 H   0  0  0  0  0  0  0  0  0  0  0  0
  141.8466   70.3040  228.0535 H   0  0  0  0  0  0  0  0  0  0  0  0
  139.4047   66.7888  227.6166 H   0  0  0  0  0  0  0  0  0  0  0  0
  138.5367   67.6587  225.4515 H   0  0  0  0  0  0  0  0  0  0  0  0
  1  2  2  0
  2  3  1  0
  3  4  1  0
  4  5  1  0
  5  6  2  0
  5  7  1  0
  7  8  1  0
  8  9  1  0
  9 10  1  0
 10 11  1  0
 11 12  2  0
 12 13  1  0
 13 14  2  0
 14 15  1  0
 10 16  1  0
  2 17  1  0
 17 18  2  0
 18 19  1  0
 19 20  2  0
 20 21  1  0
 21 22  2  0
 22 23  1  0
 22 24  1  0
 24 25  2  0
 25 26  1  0
 26 27  2  0
 16  7  1  0
 27 17  1  0
 15 11  1  0
 26 20  1  0
  3 28  1  0
  4 29  1  0
  4 30  1  0
  8 31  1  0
  8 32  1  0
  9 33  1  0
  9 34  1  0
 10 35  1  6
 13 36  1  0
 14 37  1  0
 15 38  1  0
 16 39  1  0
 16 40  1  0
 18 41  1  0
 19 42  1  0
 21 43  1  0
 24 44  1  0
 25 45  1  0
M  END
>  <smiles>  (20) 
O=C(NCC(=O)N1CC[C@H](c2ncc[nH]2)C1)c1ccc2cc(F)ccc2n1

>  <score_type>  (20) 
oracle

>  <origin>  (20) 
autodockgpu

>  <m_score__min__energy>  (20) 
-8.7300000000000004

>  <m_primary>  (20) 
energy

>  <rmsd>  (20) 
3.3917180421216337

>  <m_score__min__rmsd>  (20) 
3.3917180421216337

>  <meeko>  (20) 
{"free_energy": -7.72, "intermolecular_energy": -9.21, "internal_energy": -1.02, "cluster_size": 48, "cluster_id": 1, "rank_in_cluster": 45}

>  <energy>  (20) 
-8.35

>  <cluster_rmsd>  (20) 
0.99

>  <cluster>  (20) 
1

$$$$

     RDKit          3D

 45 48  0  0  0  0  0  0  0  0999 V2000
  141.2700   72.0790  221.4150 O   0  0  0  0  0  0  0  0  0  0  0  0
  140.5370   72.4450  222.3780 C   0  0  0  0  0  0  0  0  0  0  0  0
  139.9340   73.7440  222.3190 N   0  0  0  0  0  0  0  0  0  0  0  0
  140.2070   74.5430  221.1610 C   0  0  0  0  0  0  0  0  0  0  0  0
  140.3570   75.9850  221.4880 C   0  0  0  0  0  0  0  0  0  0  0  0
  139.8060   76.5330  222.4770 O   0  0  0  0  0  0  0  0  0  0  0  0
  141.1660   76.7840  220.6340 N   0  0  0  0  0  0  0  0  0  0  0  0
  142.1570   76.2180  219.7370 C   0  0  0  0  0  0  0  0  0  0  0  0
  142.6830   77.3880  218.9330 C   0  0  0  0  0  0  0  0  0  0  0  0
  141.5300   78.3650  219.0250 C   0  0  2  0  0  0  0  0  0  0  0  0
  141.9010   79.7420  218.6750 C   0  0  0  0  0  0  0  0  0  0  0  0
  141.3630   80.8940  219.1140 N   0  0  0  0  0  0  0  0  0  0  0  0
  141.9800   81.9530  218.5570 C   0  0  0  0  0  0  0  0  0  0  0  0
  142.9490   81.3940  217.7300 C   0  0  0  0  0  0  0  0  0  0  0  0
  142.8870   80.0540  217.8140 N   0  0  0  0  0  0  0  0  0  0  0  0
  141.1680   78.2270  220.4910 C   0  0  0  0  0  0  0  0  0  0  0  0
  140.2990   71.5820  223.5320 C   0  0  0  0  0  0  0  0  0  0  0  0
  139.6190   70.3960  223.3300 C   0  0  0  0  0  0  0  0  0  0  0  0
  139.3750   69.5560  224.3990 C   0  0  0  0  0  0  0  0  0  0  0  0
  139.8170   69.9130  225.6630 C   0  0  0  0  0  0  0  0  0  0  0  0
  139.5970   69.1060  226.7550 C   0  0  0  0  0  0  0  0  0  0  0  0
  140.0460   69.4840  227.9950 C   0  0  0  0  0  0  0  0  0  0  0  0
  139.8650   68.7380  229.1190 F   0  0  0  0  0  0  0  0  0  0  0  0
  140.7290   70.6820  228.1760 C   0  0  0  0  0  0  0  0  0  0  0  0
  140.9560   71.4990  227.0920 C   0  0  0  0  0  0  0  0  0  0  0  0
  140.4990   71.1060  225.8500 C   0  0  0  0  0  0  0  0  0  0  0  0
  140.7050   71.8790  224.7750 N   0  0  0  0  0  0  0  0  0  0  0  0
  139.3200   74.0540  223.1240 H   0  0  0  0  0  0  0  0  0  0  0  0
  141.1395   74.1871  220.6985 H   0  0  0  0  0  0  0  0  0  0  0  0
  139.3523   74.4424  220.4760 H   0  0  0  0  0  0  0  0  0  0  0  0
  142.9700   75.7470  220.3090 H   0  0  0  0  0  0  0  0  0  0  0  0
  141.7277   75.4372  219.0920 H   0  0  0  0  0  0  0  0  0  0  0  0
  143.5977   77.8036  219.3808 H   0  0  0  0  0  0  0  0  0  0  0  0
  142.9691   77.1298  217.9027 H   0  0  0  0  0  0  0  0  0  0  0  0
  140.7121   78.1525  218.3208 H   0  0  0  0  0  0  0  0  0  0  0  0
  141.7662   83.0198  218.7192 H   0  0  0  0  0  0  0  0  0  0  0  0
  143.6554   81.9601  217.1051 H   0  0  0  0  0  0  0  0  0  0  0  0
  143.5140   79.3900  217.2840 H   0  0  0  0  0  0  0  0  0  0  0  0
  141.9211   78.6974  221.1403 H   0  0  0  0  0  0  0  0  0  0  0  0
  140.2240   78.7148  220.7756 H   0  0  0  0  0  0  0  0  0  0  0  0
  139.2735   70.1221  222.3222 H   0  0  0  0  0  0  0  0  0  0  0  0
  138.8337   68.6104  224.2481 H   0  0  0  0  0  0  0  0  0  0  0  0
  139.0591   68.1542  226.6336 H   0  0  0  0  0  0  0  0  0  0  0  0
  141.0842   70.9735  229.1754 H   0  0  0  0  0  0  0  0  0  0  0  0
  141.4936   72.4510  227.2134 H   0  0  0  0  0  0  0  0  0  0  0  0
  1  2  2  0
  2  3  1  0
  3  4  1  0
  4  5  1  0
  5  6  2  0
  5  7  1  0
  7  8  1  0
  8  9  1  0
  9 10  1  0
 10 11  1  0
 11 12  2  0
 12 13  1  0
 13 14  2  0
 14 15  1  0
 10 16  1  0
  2 17  1  0
 17 18  2  0
 18 19  1  0
 19 20  2  0
 20 21  1  0
 21 22  2  0
 22 23  1  0
 22 24  1  0
 24 25  2  0
 25 26  1  0
 26 27  2  0
 16  7  1  0
 27 17  1  0
 15 11  1  0
 26 20  1  0
  3 28  1  0
  4 29  1  0
  4 30  1  0
  8 31  1  0
  8 32  1  0
  9 33  1  0
  9 34  1  0
 10 35  1  6
 13 36  1  0
 14 37  1  0
 15 38  1  0
 16 39  1  0
 16 40  1  0
 18 41  1  0
 19 42  1  0
 21 43  1  0
 24 44  1  0
 25 45  1  0
M  END
>  <smiles>  (21) 
O=C(NCC(=O)N1CC[C@H](c2ncc[nH]2)C1)c1ccc2cc(F)ccc2n1

>  <score_type>  (21) 
oracle

>  <origin>  (21) 
autodockgpu

>  <m_score__min__energy>  (21) 
-8.7300000000000004

>  <m_primary>  (21) 
energy

>  <rmsd>  (21) 
2.312766496906525

>  <m_score__min__rmsd>  (21) 
2.312766496906525

>  <meeko>  (21) 
{"free_energy": -7.72, "intermolecular_energy": -9.22, "internal_energy": -0.98, "cluster_size": 1, "cluster_id": 2, "rank_in_cluster": 1}

>  <energy>  (21) 
-8.34

>  <cluster_rmsd>  (21) 
0.66

>  <cluster>  (21) 
1

$$$$

     RDKit          3D

 45 48  0  0  0  0  0  0  0  0999 V2000
  141.0700   73.0730  222.2750 O   0  0  0  0  0  0  0  0  0  0  0  0
  140.0060   72.6360  222.7990 C   0  0  0  0  0  0  0  0  0  0  0  0
  138.7530   73.1590  222.3350 N   0  0  0  0  0  0  0  0  0  0  0  0
  138.7980   74.1480  221.3000 C   0  0  0  0  0  0  0  0  0  0  0  0
  138.6510   75.5300  221.8280 C   0  0  0  0  0  0  0  0  0  0  0  0
  137.5840   75.9710  222.3290 O   0  0  0  0  0  0  0  0  0  0  0  0
  139.7770   76.3960  221.7600 N   0  0  0  0  0  0  0  0  0  0  0  0
  140.7110   76.3820  220.6490 C   0  0  0  0  0  0  0  0  0  0  0  0
  141.6620   77.5310  220.9120 C   0  0  0  0  0  0  0  0  0  0  0  0
  140.8190   78.4290  221.7940 C   0  0  2  0  0  0  0  0  0  0  0  0
  141.6030   79.4300  222.5290 C   0  0  0  0  0  0  0  0  0  0  0  0
  141.1630   80.4560  223.2770 N   0  0  0  0  0  0  0  0  0  0  0  0
  142.1960   81.1520  223.7900 C   0  0  0  0  0  0  0  0  0  0  0  0
  143.3260   80.4950  223.3140 C   0  0  0  0  0  0  0  0  0  0  0  0
  142.9490   79.4540  222.5520 N   0  0  0  0  0  0  0  0  0  0  0  0
  140.1950   77.4010  222.7180 C   0  0  0  0  0  0  0  0  0  0  0  0
  140.0280   71.6250  223.8530 C   0  0  0  0  0  0  0  0  0  0  0  0
  139.5320   70.3690  223.5620 C   0  0  0  0  0  0  0  0  0  0  0  0
  139.5370   69.3890  224.5350 C   0  0  0  0  0  0  0  0  0  0  0  0
  140.0420   69.6770  225.7930 C   0  0  0  0  0  0  0  0  0  0  0  0
  140.0680   68.7310  226.7910 C   0  0  0  0  0  0  0  0  0  0  0  0
  140.5740   69.0430  228.0270 C   0  0  0  0  0  0  0  0  0  0  0  0
  140.6310   68.1600  229.0610 F   0  0  0  0  0  0  0  0  0  0  0  0
  141.0690   70.3150  228.2980 C   0  0  0  0  0  0  0  0  0  0  0  0
  141.0500   71.2710  227.3090 C   0  0  0  0  0  0  0  0  0  0  0  0
  140.5380   70.9430  226.0700 C   0  0  0  0  0  0  0  0  0  0  0  0
  140.5050   71.8510  225.0850 N   0  0  0  0  0  0  0  0  0  0  0  0
  137.8610   72.7950  222.7730 H   0  0  0  0  0  0  0  0  0  0  0  0
  139.7637   74.0700  220.7790 H   0  0  0  0  0  0  0  0  0  0  0  0
  137.9553   73.9584  220.6189 H   0  0  0  0  0  0  0  0  0  0  0  0
  141.2583   75.4283  220.6177 H   0  0  0  0  0  0  0  0  0  0  0  0
  140.1988   76.4869  219.6812 H   0  0  0  0  0  0  0  0  0  0  0  0
  142.5678   77.1905  221.4351 H   0  0  0  0  0  0  0  0  0  0  0  0
  142.0342   78.0212  220.0003 H   0  0  0  0  0  0  0  0  0  0  0  0
  140.1025   79.0507  221.2372 H   0  0  0  0  0  0  0  0  0  0  0  0
  142.1552   82.0394  224.4387 H   0  0  0  0  0  0  0  0  0  0  0  0
  144.3660   80.7826  223.5279 H   0  0  0  0  0  0  0  0  0  0  0  0
  143.6140   78.7910  222.0690 H   0  0  0  0  0  0  0  0  0  0  0  0
  140.9291   76.9995  223.4321 H   0  0  0  0  0  0  0  0  0  0  0  0
  139.3858   77.7902  223.3534 H   0  0  0  0  0  0  0  0  0  0  0  0
  139.1348   70.1504  222.5598 H   0  0  0  0  0  0  0  0  0  0  0  0
  139.1427   68.3864  224.3130 H   0  0  0  0  0  0  0  0  0  0  0  0
  139.6812   67.7197  226.5970 H   0  0  0  0  0  0  0  0  0  0  0  0
  141.4716   70.5537  229.2935 H   0  0  0  0  0  0  0  0  0  0  0  0
  141.4373   72.2822  227.5029 H   0  0  0  0  0  0  0  0  0  0  0  0
  1  2  2  0
  2  3  1  0
  3  4  1  0
  4  5  1  0
  5  6  2  0
  5  7  1  0
  7  8  1  0
  8  9  1  0
  9 10  1  0
 10 11  1  0
 11 12  2  0
 12 13  1  0
 13 14  2  0
 14 15  1  0
 10 16  1  0
  2 17  1  0
 17 18  2  0
 18 19  1  0
 19 20  2  0
 20 21  1  0
 21 22  2  0
 22 23  1  0
 22 24  1  0
 24 25  2  0
 25 26  1  0
 26 27  2  0
 16  7  1  0
 27 17  1  0
 15 11  1  0
 26 20  1  0
  3 28  1  0
  4 29  1  0
  4 30  1  0
  8 31  1  0
  8 32  1  0
  9 33  1  0
  9 34  1  0
 10 35  1  6
 13 36  1  0
 14 37  1  0
 15 38  1  0
 16 39  1  0
 16 40  1  0
 18 41  1  0
 19 42  1  0
 21 43  1  0
 24 44  1  0
 25 45  1  0
M  END
>  <smiles>  (22) 
O=C(NCC(=O)N1CC[C@H](c2ncc[nH]2)C1)c1ccc2cc(F)ccc2n1

>  <score_type>  (22) 
oracle

>  <origin>  (22) 
autodockgpu

>  <m_score__min__energy>  (22) 
-8.7300000000000004

>  <m_primary>  (22) 
energy

>  <rmsd>  (22) 
2.7175057100690423

>  <m_score__min__rmsd>  (22) 
2.7175057100690423

>  <meeko>  (22) 
{"free_energy": -8.59, "intermolecular_energy": -10.08, "internal_energy": -0.9, "cluster_size": 48, "cluster_id": 1, "rank_in_cluster": 5}

>  <energy>  (22) 
-8.32

>  <cluster_rmsd>  (22) 
0.89

>  <cluster>  (22) 
1

$$$$

     RDKit          3D

 45 48  0  0  0  0  0  0  0  0999 V2000
  140.0210   71.4590  221.0730 O   0  0  0  0  0  0  0  0  0  0  0  0
  139.8810   71.9480  222.2300 C   0  0  0  0  0  0  0  0  0  0  0  0
  139.6970   73.3650  222.3520 N   0  0  0  0  0  0  0  0  0  0  0  0
  139.6840   74.1320  221.1430 C   0  0  0  0  0  0  0  0  0  0  0  0
  139.2300   75.5310  221.3620 C   0  0  0  0  0  0  0  0  0  0  0  0
  138.0270   75.8480  221.5500 O   0  0  0  0  0  0  0  0  0  0  0  0
  140.2100   76.5610  221.3580 N   0  0  0  0  0  0  0  0  0  0  0  0
  140.9600   76.9250  220.1700 C   0  0  0  0  0  0  0  0  0  0  0  0
  141.7820   78.1330  220.5700 C   0  0  0  0  0  0  0  0  0  0  0  0
  140.9710   78.6840  221.7250 C   0  0  2  0  0  0  0  0  0  0  0  0
  141.7200   79.6250  222.5680 C   0  0  0  0  0  0  0  0  0  0  0  0
  141.2510   80.6440  223.3090 N   0  0  0  0  0  0  0  0  0  0  0  0
  142.2560   81.2770  223.9430 C   0  0  0  0  0  0  0  0  0  0  0  0
  143.4010   80.5880  223.5530 C   0  0  0  0  0  0  0  0  0  0  0  0
  143.0570   79.5900  222.7200 N   0  0  0  0  0  0  0  0  0  0  0  0
  140.6330   77.4020  222.4610 C   0  0  0  0  0  0  0  0  0  0  0  0
  139.9030   71.1090  223.4250 C   0  0  0  0  0  0  0  0  0  0  0  0
  139.3930   69.8290  223.3330 C   0  0  0  0  0  0  0  0  0  0  0  0
  139.3980   69.0080  224.4450 C   0  0  0  0  0  0  0  0  0  0  0  0
  139.9150   69.4800  225.6400 C   0  0  0  0  0  0  0  0  0  0  0  0
  139.9410   68.6980  226.7710 C   0  0  0  0  0  0  0  0  0  0  0  0
  140.4590   69.1900  227.9420 C   0  0  0  0  0  0  0  0  0  0  0  0
  140.5170   68.4750  229.0980 F   0  0  0  0  0  0  0  0  0  0  0  0
  140.9670   70.4830  228.0120 C   0  0  0  0  0  0  0  0  0  0  0  0
  140.9490   71.2770  226.8880 C   0  0  0  0  0  0  0  0  0  0  0  0
  140.4240   70.7690  225.7170 C   0  0  0  0  0  0  0  0  0  0  0  0
  140.3920   71.5170  224.6060 N   0  0  0  0  0  0  0  0  0  0  0  0
  139.5790   73.7770  223.3200 H   0  0  0  0  0  0  0  0  0  0  0  0
  140.7021   74.1524  220.7270 H   0  0  0  0  0  0  0  0  0  0  0  0
  138.9745   73.6544  220.4513 H   0  0  0  0  0  0  0  0  0  0  0  0
  141.6160   76.0981  219.8602 H   0  0  0  0  0  0  0  0  0  0  0  0
  140.2986   77.1430  219.3185 H   0  0  0  0  0  0  0  0  0  0  0  0
  142.7928   77.8420  220.8920 H   0  0  0  0  0  0  0  0  0  0  0  0
  141.9459   78.8528  219.7546 H   0  0  0  0  0  0  0  0  0  0  0  0
  140.1036   79.2835  221.4118 H   0  0  0  0  0  0  0  0  0  0  0  0
  142.1877   82.1434  224.6173 H   0  0  0  0  0  0  0  0  0  0  0  0
  144.4261   80.8230  223.8755 H   0  0  0  0  0  0  0  0  0  0  0  0
  143.7390   78.9160  222.2780 H   0  0  0  0  0  0  0  0  0  0  0  0
  141.5124   76.9855  222.9740 H   0  0  0  0  0  0  0  0  0  0  0  0
  139.8850   77.5179  223.2592 H   0  0  0  0  0  0  0  0  0  0  0  0
  138.9846   69.4643  222.3789 H   0  0  0  0  0  0  0  0  0  0  0  0
  138.9941   67.9868  224.3813 H   0  0  0  0  0  0  0  0  0  0  0  0
  139.5443   67.6726  226.7364 H   0  0  0  0  0  0  0  0  0  0  0  0
  141.3792   70.8672  228.9567 H   0  0  0  0  0  0  0  0  0  0  0  0
  141.3473   72.3018  226.9224 H   0  0  0  0  0  0  0  0  0  0  0  0
  1  2  2  0
  2  3  1  0
  3  4  1  0
  4  5  1  0
  5  6  2  0
  5  7  1  0
  7  8  1  0
  8  9  1  0
  9 10  1  0
 10 11  1  0
 11 12  2  0
 12 13  1  0
 13 14  2  0
 14 15  1  0
 10 16  1  0
  2 17  1  0
 17 18  2  0
 18 19  1  0
 19 20  2  0
 20 21  1  0
 21 22  2  0
 22 23  1  0
 22 24  1  0
 24 25  2  0
 25 26  1  0
 26 27  2  0
 16  7  1  0
 27 17  1  0
 15 11  1  0
 26 20  1  0
  3 28  1  0
  4 29  1  0
  4 30  1  0
  8 31  1  0
  8 32  1  0
  9 33  1  0
  9 34  1  0
 10 35  1  6
 13 36  1  0
 14 37  1  0
 15 38  1  0
 16 39  1  0
 16 40  1  0
 18 41  1  0
 19 42  1  0
 21 43  1  0
 24 44  1  0
 25 45  1  0
M  END
>  <smiles>  (23) 
O=C(NCC(=O)N1CC[C@H](c2ncc[nH]2)C1)c1ccc2cc(F)ccc2n1

>  <score_type>  (23) 
oracle

>  <origin>  (23) 
autodockgpu

>  <m_score__min__energy>  (23) 
-8.7300000000000004

>  <m_primary>  (23) 
energy

>  <rmsd>  (23) 
2.628239599023859

>  <m_score__min__rmsd>  (23) 
2.628239599023859

>  <meeko>  (23) 
{"free_energy": -8.42, "intermolecular_energy": -9.91, "internal_energy": -0.9, "cluster_size": 48, "cluster_id": 1, "rank_in_cluster": 16}

>  <energy>  (23) 
-8.31

>  <cluster_rmsd>  (23) 
1.2

>  <cluster>  (23) 
1

$$$$

     RDKit          3D

 45 48  0  0  0  0  0  0  0  0999 V2000
  141.3340   72.2760  221.5820 O   0  0  0  0  0  0  0  0  0  0  0  0
  140.4610   72.4940  222.4700 C   0  0  0  0  0  0  0  0  0  0  0  0
  139.6390   73.6620  222.3440 N   0  0  0  0  0  0  0  0  0  0  0  0
  139.8650   74.5050  221.2080 C   0  0  0  0  0  0  0  0  0  0  0  0
  138.8480   75.5830  221.0900 C   0  0  0  0  0  0  0  0  0  0  0  0
  137.7130   75.4120  220.5760 O   0  0  0  0  0  0  0  0  0  0  0  0
  139.1820   76.8740  221.5830 N   0  0  0  0  0  0  0  0  0  0  0  0
  138.1820   77.8290  222.0230 C   0  0  0  0  0  0  0  0  0  0  0  0
  138.9640   78.9980  222.5850 C   0  0  0  0  0  0  0  0  0  0  0  0
  140.2750   78.3360  222.9570 C   0  0  2  0  0  0  0  0  0  0  0  0
  141.3730   79.2900  223.1630 C   0  0  0  0  0  0  0  0  0  0  0  0
  141.3610   80.4510  223.8410 N   0  0  0  0  0  0  0  0  0  0  0  0
  142.5700   81.0420  223.8010 C   0  0  0  0  0  0  0  0  0  0  0  0
  143.3550   80.1740  223.0490 C   0  0  0  0  0  0  0  0  0  0  0  0
  142.6140   79.1170  222.6710 N   0  0  0  0  0  0  0  0  0  0  0  0
  140.4990   77.4620  221.7390 C   0  0  0  0  0  0  0  0  0  0  0  0
  140.2800   71.5930  223.6050 C   0  0  0  0  0  0  0  0  0  0  0  0
  139.6350   70.3910  223.3870 C   0  0  0  0  0  0  0  0  0  0  0  0
  139.4460   69.5150  224.4390 C   0  0  0  0  0  0  0  0  0  0  0  0
  139.9070   69.8530  225.7010 C   0  0  0  0  0  0  0  0  0  0  0  0
  139.7400   69.0100  226.7750 C   0  0  0  0  0  0  0  0  0  0  0  0
  140.2070   69.3700  228.0150 C   0  0  0  0  0  0  0  0  0  0  0  0
  140.0780   68.5890  229.1220 F   0  0  0  0  0  0  0  0  0  0  0  0
  140.8530   70.5860  228.2120 C   0  0  0  0  0  0  0  0  0  0  0  0
  141.0260   71.4380  227.1460 C   0  0  0  0  0  0  0  0  0  0  0  0
  140.5520   71.0630  225.9040 C   0  0  0  0  0  0  0  0  0  0  0  0
  140.7060   71.8710  224.8460 N   0  0  0  0  0  0  0  0  0  0  0  0
  138.9070   73.8470  223.0870 H   0  0  0  0  0  0  0  0  0  0  0  0
  140.8591   74.9662  221.3027 H   0  0  0  0  0  0  0  0  0  0  0  0
  139.7952   73.8784  220.3066 H   0  0  0  0  0  0  0  0  0  0  0  0
  137.5602   78.1534  221.1756 H   0  0  0  0  0  0  0  0  0  0  0  0
  137.5014   77.3945  222.7699 H   0  0  0  0  0  0  0  0  0  0  0  0
  139.1111   79.7833  221.8289 H   0  0  0  0  0  0  0  0  0  0  0  0
  138.4664   79.5081  223.4229 H   0  0  0  0  0  0  0  0  0  0  0  0
  140.2435   77.7981  223.9160 H   0  0  0  0  0  0  0  0  0  0  0  0
  142.8695   81.9960  224.2595 H   0  0  0  0  0  0  0  0  0  0  0  0
  144.4158   80.3280  222.8021 H   0  0  0  0  0  0  0  0  0  0  0  0
  142.9710   78.3110  222.0890 H   0  0  0  0  0  0  0  0  0  0  0  0
  140.7834   78.0581  220.8593 H   0  0  0  0  0  0  0  0  0  0  0  0
  141.3149   76.7319  221.8451 H   0  0  0  0  0  0  0  0  0  0  0  0
  139.2735   70.1324  222.3808 H   0  0  0  0  0  0  0  0  0  0  0  0
  138.9330   68.5558  224.2755 H   0  0  0  0  0  0  0  0  0  0  0  0
  139.2307   68.0444  226.6400 H   0  0  0  0  0  0  0  0  0  0  0  0
  141.2219   70.8636  229.2104 H   0  0  0  0  0  0  0  0  0  0  0  0
  141.5345   72.4041  227.2807 H   0  0  0  0  0  0  0  0  0  0  0  0
  1  2  2  0
  2  3  1  0
  3  4  1  0
  4  5  1  0
  5  6  2  0
  5  7  1  0
  7  8  1  0
  8  9  1  0
  9 10  1  0
 10 11  1  0
 11 12  2  0
 12 13  1  0
 13 14  2  0
 14 15  1  0
 10 16  1  0
  2 17  1  0
 17 18  2  0
 18 19  1  0
 19 20  2  0
 20 21  1  0
 21 22  2  0
 22 23  1  0
 22 24  1  0
 24 25  2  0
 25 26  1  0
 26 27  2  0
 16  7  1  0
 27 17  1  0
 15 11  1  0
 26 20  1  0
  3 28  1  0
  4 29  1  0
  4 30  1  0
  8 31  1  0
  8 32  1  0
  9 33  1  0
  9 34  1  0
 10 35  1  1
 13 36  1  0
 14 37  1  0
 15 38  1  0
 16 39  1  0
 16 40  1  0
 18 41  1  0
 19 42  1  0
 21 43  1  0
 24 44  1  0
 25 45  1  0
M  END
>  <smiles>  (24) 
O=C(NCC(=O)N1CC[C@H](c2ncc[nH]2)C1)c1ccc2cc(F)ccc2n1

>  <score_type>  (24) 
oracle

>  <origin>  (24) 
autodockgpu

>  <m_score__min__energy>  (24) 
-8.7300000000000004

>  <m_primary>  (24) 
energy

>  <rmsd>  (24) 
3.2759966322833427

>  <m_score__min__rmsd>  (24) 
3.2759966322833427

>  <meeko>  (24) 
{"free_energy": -8.48, "intermolecular_energy": -9.97, "internal_energy": -0.77, "cluster_size": 48, "cluster_id": 1, "rank_in_cluster": 13}

>  <energy>  (24) 
-8.29

>  <cluster_rmsd>  (24) 
1.0

>  <cluster>  (24) 
1

$$$$

     RDKit          3D

 45 48  0  0  0  0  0  0  0  0999 V2000
  139.4950   71.3530  221.0890 O   0  0  0  0  0  0  0  0  0  0  0  0
  139.4970   71.8710  222.2420 C   0  0  0  0  0  0  0  0  0  0  0  0
  139.3550   73.2940  222.3500 N   0  0  0  0  0  0  0  0  0  0  0  0
  139.2190   74.0340  221.1310 C   0  0  0  0  0  0  0  0  0  0  0  0
  140.5320   74.3440  220.5050 C   0  0  0  0  0  0  0  0  0  0  0  0
  141.1980   73.5080  219.8420 O   0  0  0  0  0  0  0  0  0  0  0  0
  141.0570   75.6550  220.6680 N   0  0  0  0  0  0  0  0  0  0  0  0
  141.6750   76.3940  219.5830 C   0  0  0  0  0  0  0  0  0  0  0  0
  141.9670   77.7680  220.1490 C   0  0  0  0  0  0  0  0  0  0  0  0
  140.9550   77.8560  221.2720 C   0  0  2  0  0  0  0  0  0  0  0  0
  141.2580   78.9090  222.2510 C   0  0  0  0  0  0  0  0  0  0  0  0
  140.4150   79.5610  223.0700 N   0  0  0  0  0  0  0  0  0  0  0  0
  141.0770   80.4600  223.8220 C   0  0  0  0  0  0  0  0  0  0  0  0
  142.4040   80.3350  223.4230 C   0  0  0  0  0  0  0  0  0  0  0  0
  142.4960   79.3900  222.4710 N   0  0  0  0  0  0  0  0  0  0  0  0
  141.0830   76.4680  221.8690 C   0  0  0  0  0  0  0  0  0  0  0  0
  139.6400   71.0590  223.4480 C   0  0  0  0  0  0  0  0  0  0  0  0
  139.1980   69.7510  223.4090 C   0  0  0  0  0  0  0  0  0  0  0  0
  139.3170   68.9540  224.5310 C   0  0  0  0  0  0  0  0  0  0  0  0
  139.8800   69.4770  225.6840 C   0  0  0  0  0  0  0  0  0  0  0  0
  140.0190   68.7200  226.8230 C   0  0  0  0  0  0  0  0  0  0  0  0
  140.5810   69.2640  227.9510 C   0  0  0  0  0  0  0  0  0  0  0  0
  140.7500   68.5750  229.1130 F   0  0  0  0  0  0  0  0  0  0  0  0
  141.0200   70.5830  227.9680 C   0  0  0  0  0  0  0  0  0  0  0  0
  140.8870   71.3530  226.8350 C   0  0  0  0  0  0  0  0  0  0  0  0
  140.3200   70.7930  225.7070 C   0  0  0  0  0  0  0  0  0  0  0  0
  140.1780   71.5160  224.5880 N   0  0  0  0  0  0  0  0  0  0  0  0
  139.3570   73.7300  223.3140 H   0  0  0  0  0  0  0  0  0  0  0  0
  138.6215   73.4411  220.4229 H   0  0  0  0  0  0  0  0  0  0  0  0
  138.7291   74.9890  221.3719 H   0  0  0  0  0  0  0  0  0  0  0  0
  142.6063   75.9030  219.2641 H   0  0  0  0  0  0  0  0  0  0  0  0
  141.0227   76.4454  218.6988 H   0  0  0  0  0  0  0  0  0  0  0  0
  142.9966   77.8345  220.5304 H   0  0  0  0  0  0  0  0  0  0  0  0
  141.8898   78.5812  219.4123 H   0  0  0  0  0  0  0  0  0  0  0  0
  139.9432   78.1270  220.9361 H   0  0  0  0  0  0  0  0  0  0  0  0
  140.6624   81.1400  224.5807 H   0  0  0  0  0  0  0  0  0  0  0  0
  143.2462   80.9181  223.8238 H   0  0  0  0  0  0  0  0  0  0  0  0
  143.3940   79.1010  221.9970 H   0  0  0  0  0  0  0  0  0  0  0  0
  142.0283   76.3488  222.4187 H   0  0  0  0  0  0  0  0  0  0  0  0
  140.3082   76.2157  222.6079 H   0  0  0  0  0  0  0  0  0  0  0  0
  138.7531   69.3456  222.4883 H   0  0  0  0  0  0  0  0  0  0  0  0
  138.9672   67.9113  224.5093 H   0  0  0  0  0  0  0  0  0  0  0  0
  139.6785   67.6741  226.8305 H   0  0  0  0  0  0  0  0  0  0  0  0
  141.4693   71.0071  228.8781 H   0  0  0  0  0  0  0  0  0  0  0  0
  141.2273   72.3990  226.8280 H   0  0  0  0  0  0  0  0  0  0  0  0
  1  2  2  0
  2  3  1  0
  3  4  1  0
  4  5  1  0
  5  6  2  0
  5  7  1  0
  7  8  1  0
  8  9  1  0
  9 10  1  0
 10 11  1  0
 11 12  2  0
 12 13  1  0
 13 14  2  0
 14 15  1  0
 10 16  1  0
  2 17  1  0
 17 18  2  0
 18 19  1  0
 19 20  2  0
 20 21  1  0
 21 22  2  0
 22 23  1  0
 22 24  1  0
 24 25  2  0
 25 26  1  0
 26 27  2  0
 16  7  1  0
 27 17  1  0
 15 11  1  0
 26 20  1  0
  3 28  1  0
  4 29  1  0
  4 30  1  0
  8 31  1  0
  8 32  1  0
  9 33  1  0
  9 34  1  0
 10 35  1  6
 13 36  1  0
 14 37  1  0
 15 38  1  0
 16 39  1  0
 16 40  1  0
 18 41  1  0
 19 42  1  0
 21 43  1  0
 24 44  1  0
 25 45  1  0
M  END
>  <smiles>  (25) 
O=C(NCC(=O)N1CC[C@H](c2ncc[nH]2)C1)c1ccc2cc(F)ccc2n1

>  <score_type>  (25) 
oracle

>  <origin>  (25) 
autodockgpu

>  <m_score__min__energy>  (25) 
-8.7300000000000004

>  <m_primary>  (25) 
energy

>  <rmsd>  (25) 
2.278855950953984

>  <m_score__min__rmsd>  (25) 
2.278855950953984

>  <meeko>  (25) 
{"free_energy": -7.91, "intermolecular_energy": -9.4, "internal_energy": -0.96, "cluster_size": 48, "cluster_id": 1, "rank_in_cluster": 36}

>  <energy>  (25) 
-8.14

>  <cluster_rmsd>  (25) 
1.03

>  <cluster>  (25) 
1

$$$$

     RDKit          3D

 45 48  0  0  0  0  0  0  0  0999 V2000
  141.1920   72.8940  222.1460 O   0  0  0  0  0  0  0  0  0  0  0  0
  140.1110   72.5990  222.7340 C   0  0  0  0  0  0  0  0  0  0  0  0
  138.9110   73.2720  222.3290 N   0  0  0  0  0  0  0  0  0  0  0  0
  139.0230   74.2380  221.2770 C   0  0  0  0  0  0  0  0  0  0  0  0
  138.8140   75.6290  221.7580 C   0  0  0  0  0  0  0  0  0  0  0  0
  137.7180   76.0490  222.2100 O   0  0  0  0  0  0  0  0  0  0  0  0
  139.9150   76.5280  221.7020 N   0  0  0  0  0  0  0  0  0  0  0  0
  140.7870   76.6280  220.5470 C   0  0  0  0  0  0  0  0  0  0  0  0
  141.7240   77.7790  220.8520 C   0  0  0  0  0  0  0  0  0  0  0  0
  140.9090   78.5800  221.8460 C   0  0  2  0  0  0  0  0  0  0  0  0
  141.7090   79.5400  222.6180 C   0  0  0  0  0  0  0  0  0  0  0  0
  141.2880   80.5940  223.3390 N   0  0  0  0  0  0  0  0  0  0  0  0
  142.3300   81.2350  223.9030 C   0  0  0  0  0  0  0  0  0  0  0  0
  143.4450   80.5130  223.4890 C   0  0  0  0  0  0  0  0  0  0  0  0
  143.0510   79.4900  222.7120 N   0  0  0  0  0  0  0  0  0  0  0  0
  140.3610   77.4650  222.7150 C   0  0  0  0  0  0  0  0  0  0  0  0
  140.0650   71.6040  223.8010 C   0  0  0  0  0  0  0  0  0  0  0  0
  139.4710   70.3860  223.5320 C   0  0  0  0  0  0  0  0  0  0  0  0
  139.4090   69.4210  224.5180 C   0  0  0  0  0  0  0  0  0  0  0  0
  139.9450   69.6860  225.7680 C   0  0  0  0  0  0  0  0  0  0  0  0
  139.9060   68.7540  226.7790 C   0  0  0  0  0  0  0  0  0  0  0  0
  140.4450   69.0430  228.0070 C   0  0  0  0  0  0  0  0  0  0  0  0
  140.4420   68.1720  229.0530 F   0  0  0  0  0  0  0  0  0  0  0  0
  141.0390   70.2760  228.2570 C   0  0  0  0  0  0  0  0  0  0  0  0
  141.0850   71.2180  227.2550 C   0  0  0  0  0  0  0  0  0  0  0  0
  140.5390   70.9140  226.0240 C   0  0  0  0  0  0  0  0  0  0  0  0
  140.5680   71.8090  225.0270 N   0  0  0  0  0  0  0  0  0  0  0  0
  138.0050   73.0280  222.8200 H   0  0  0  0  0  0  0  0  0  0  0  0
  140.0279   74.1644  220.8358 H   0  0  0  0  0  0  0  0  0  0  0  0
  138.2396   74.0187  220.5365 H   0  0  0  0  0  0  0  0  0  0  0  0
  141.3540   75.6954  220.4104 H   0  0  0  0  0  0  0  0  0  0  0  0
  140.2208   76.7950  219.6188 H   0  0  0  0  0  0  0  0  0  0  0  0
  142.6646   77.4235  221.2981 H   0  0  0  0  0  0  0  0  0  0  0  0
  142.0348   78.3501  219.9648 H   0  0  0  0  0  0  0  0  0  0  0  0
  140.1487   79.2238  221.3796 H   0  0  0  0  0  0  0  0  0  0  0  0
  142.3050   82.1275  224.5456 H   0  0  0  0  0  0  0  0  0  0  0  0
  144.4868   80.7437  223.7562 H   0  0  0  0  0  0  0  0  0  0  0  0
  143.7020   78.7880  222.2670 H   0  0  0  0  0  0  0  0  0  0  0  0
  141.1423   77.0286  223.3547 H   0  0  0  0  0  0  0  0  0  0  0  0
  139.5788   77.7797  223.4215 H   0  0  0  0  0  0  0  0  0  0  0  0
  139.0490   70.1856  222.5361 H   0  0  0  0  0  0  0  0  0  0  0  0
  138.9374   68.4487  224.3125 H   0  0  0  0  0  0  0  0  0  0  0  0
  139.4408   67.7731  226.6021 H   0  0  0  0  0  0  0  0  0  0  0  0
  141.4677   70.4957  229.2459 H   0  0  0  0  0  0  0  0  0  0  0  0
  141.5501   72.1990  227.4323 H   0  0  0  0  0  0  0  0  0  0  0  0
  1  2  2  0
  2  3  1  0
  3  4  1  0
  4  5  1  0
  5  6  2  0
  5  7  1  0
  7  8  1  0
  8  9  1  0
  9 10  1  0
 10 11  1  0
 11 12  2  0
 12 13  1  0
 13 14  2  0
 14 15  1  0
 10 16  1  0
  2 17  1  0
 17 18  2  0
 18 19  1  0
 19 20  2  0
 20 21  1  0
 21 22  2  0
 22 23  1  0
 22 24  1  0
 24 25  2  0
 25 26  1  0
 26 27  2  0
 16  7  1  0
 27 17  1  0
 15 11  1  0
 26 20  1  0
  3 28  1  0
  4 29  1  0
  4 30  1  0
  8 31  1  0
  8 32  1  0
  9 33  1  0
  9 34  1  0
 10 35  1  6
 13 36  1  0
 14 37  1  0
 15 38  1  0
 16 39  1  0
 16 40  1  0
 18 41  1  0
 19 42  1  0
 21 43  1  0
 24 44  1  0
 25 45  1  0
M  END
>  <smiles>  (26) 
O=C(NCC(=O)N1CC[C@H](c2ncc[nH]2)C1)c1ccc2cc(F)ccc2n1

>  <score_type>  (26) 
oracle

>  <origin>  (26) 
autodockgpu

>  <m_score__min__energy>  (26) 
-8.7300000000000004

>  <m_primary>  (26) 
energy

>  <rmsd>  (26) 
2.7510965085301002

>  <m_score__min__rmsd>  (26) 
2.7510965085301002

>  <meeko>  (26) 
{"free_energy": -8.69, "intermolecular_energy": -10.18, "internal_energy": -0.87, "cluster_size": 48, "cluster_id": 1, "rank_in_cluster": 3}

>  <energy>  (26) 
-8.13

>  <cluster_rmsd>  (26) 
1.14

>  <cluster>  (26) 
1

$$$$

     RDKit          3D

 45 48  0  0  0  0  0  0  0  0999 V2000
  141.2890   72.0180  221.3260 O   0  0  0  0  0  0  0  0  0  0  0  0
  140.3150   72.2740  222.0910 C   0  0  0  0  0  0  0  0  0  0  0  0
  139.4120   73.3230  221.7150 N   0  0  0  0  0  0  0  0  0  0  0  0
  139.6800   74.0130  220.4890 C   0  0  0  0  0  0  0  0  0  0  0  0
  140.8050   74.9770  220.6140 C   0  0  0  0  0  0  0  0  0  0  0  0
  141.9510   74.7700  220.1380 O   0  0  0  0  0  0  0  0  0  0  0  0
  140.5690   76.1940  221.3090 N   0  0  0  0  0  0  0  0  0  0  0  0
  139.3350   76.4620  222.0250 C   0  0  0  0  0  0  0  0  0  0  0  0
  139.5550   77.7910  222.7170 C   0  0  0  0  0  0  0  0  0  0  0  0
  141.0660   77.8360  222.8180 C   0  0  2  0  0  0  0  0  0  0  0  0
  141.5940   79.1800  223.0890 C   0  0  0  0  0  0  0  0  0  0  0  0
  141.0270   80.1790  223.7870 N   0  0  0  0  0  0  0  0  0  0  0  0
  141.8280   81.2610  223.8100 C   0  0  0  0  0  0  0  0  0  0  0  0
  142.9470   80.8800  223.0760 C   0  0  0  0  0  0  0  0  0  0  0  0
  142.7880   79.6160  222.6470 N   0  0  0  0  0  0  0  0  0  0  0  0
  141.4490   77.3400  221.4380 C   0  0  0  0  0  0  0  0  0  0  0  0
  140.0960   71.5320  223.3300 C   0  0  0  0  0  0  0  0  0  0  0  0
  139.2700   70.4260  223.2900 C   0  0  0  0  0  0  0  0  0  0  0  0
  139.0410   69.7010  224.4440 C   0  0  0  0  0  0  0  0  0  0  0  0
  139.6440   70.0920  225.6280 C   0  0  0  0  0  0  0  0  0  0  0  0
  139.4440   69.4000  226.7990 C   0  0  0  0  0  0  0  0  0  0  0  0
  140.0540   69.8090  227.9580 C   0  0  0  0  0  0  0  0  0  0  0  0
  139.9030   69.1740  229.1520 F   0  0  0  0  0  0  0  0  0  0  0  0
  140.8830   70.9260  227.9750 C   0  0  0  0  0  0  0  0  0  0  0  0
  141.0920   71.6290  226.8100 C   0  0  0  0  0  0  0  0  0  0  0  0
  140.4720   71.2050  225.6520 C   0  0  0  0  0  0  0  0  0  0  0  0
  140.6550   71.8680  224.5010 N   0  0  0  0  0  0  0  0  0  0  0  0
  138.5950   73.5390  222.3540 H   0  0  0  0  0  0  0  0  0  0  0  0
  139.9334   73.2730  219.7156 H   0  0  0  0  0  0  0  0  0  0  0  0
  138.7783   74.5835  220.2218 H   0  0  0  0  0  0  0  0  0  0  0  0
  138.4895   76.5277  221.3244 H   0  0  0  0  0  0  0  0  0  0  0  0
  139.0940   75.6620  222.7405 H   0  0  0  0  0  0  0  0  0  0  0  0
  139.1680   78.6260  222.1146 H   0  0  0  0  0  0  0  0  0  0  0  0
  139.0391   77.8825  223.6842 H   0  0  0  0  0  0  0  0  0  0  0  0
  141.4723   77.2477  223.6540 H   0  0  0  0  0  0  0  0  0  0  0  0
  141.6401   82.2283  224.2989 H   0  0  0  0  0  0  0  0  0  0  0  0
  143.8241   81.5136  222.8779 H   0  0  0  0  0  0  0  0  0  0  0  0
  143.4930   79.0860  222.0660 H   0  0  0  0  0  0  0  0  0  0  0  0
  141.2459   78.0958  220.6650 H   0  0  0  0  0  0  0  0  0  0  0  0
  142.5178   77.1103  221.3163 H   0  0  0  0  0  0  0  0  0  0  0  0
  138.7967   70.1236  222.3442 H   0  0  0  0  0  0  0  0  0  0  0  0
  138.3840   68.8190  224.4224 H   0  0  0  0  0  0  0  0  0  0  0  0
  138.7918   68.5142  226.8068 H   0  0  0  0  0  0  0  0  0  0  0  0
  141.3668   71.2444  228.9102 H   0  0  0  0  0  0  0  0  0  0  0  0
  141.7434   72.5154  226.8021 H   0  0  0  0  0  0  0  0  0  0  0  0
  1  2  2  0
  2  3  1  0
  3  4  1  0
  4  5  1  0
  5  6  2  0
  5  7  1  0
  7  8  1  0
  8  9  1  0
  9 10  1  0
 10 11  1  0
 11 12  2  0
 12 13  1  0
 13 14  2  0
 14 15  1  0
 10 16  1  0
  2 17  1  0
 17 18  2  0
 18 19  1  0
 19 20  2  0
 20 21  1  0
 21 22  2  0
 22 23  1  0
 22 24  1  0
 24 25  2  0
 25 26  1  0
 26 27  2  0
 16  7  1  0
 27 17  1  0
 15 11  1  0
 26 20  1  0
  3 28  1  0
  4 29  1  0
  4 30  1  0
  8 31  1  0
  8 32  1  0
  9 33  1  0
  9 34  1  0
 10 35  1  1
 13 36  1  0
 14 37  1  0
 15 38  1  0
 16 39  1  0
 16 40  1  0
 18 41  1  0
 19 42  1  0
 21 43  1  0
 24 44  1  0
 25 45  1  0
M  END
>  <smiles>  (27) 
O=C(NCC(=O)N1CC[C@H](c2ncc[nH]2)C1)c1ccc2cc(F)ccc2n1

>  <score_type>  (27) 
oracle

>  <origin>  (27) 
autodockgpu

>  <m_score__min__energy>  (27) 
-8.7300000000000004

>  <m_primary>  (27) 
energy

>  <rmsd>  (27) 
3.0893117565395403

>  <m_score__min__rmsd>  (27) 
3.0893117565395403

>  <meeko>  (27) 
{"free_energy": -8.09, "intermolecular_energy": -9.59, "internal_energy": -0.87, "cluster_size": 48, "cluster_id": 1, "rank_in_cluster": 30}

>  <energy>  (27) 
-8.12

>  <cluster_rmsd>  (27) 
0.82

>  <cluster>  (27) 
1

$$$$

     RDKit          3D

 45 48  0  0  0  0  0  0  0  0999 V2000
  137.8630   71.8190  223.0750 O   0  0  0  0  0  0  0  0  0  0  0  0
  139.0700   71.5640  223.3510 C   0  0  0  0  0  0  0  0  0  0  0  0
  140.0950   72.2440  222.6140 N   0  0  0  0  0  0  0  0  0  0  0  0
  139.6750   73.1750  221.6100 C   0  0  0  0  0  0  0  0  0  0  0  0
  140.6820   74.2410  221.3650 C   0  0  0  0  0  0  0  0  0  0  0  0
  141.8210   74.0200  220.8790 O   0  0  0  0  0  0  0  0  0  0  0  0
  140.3360   75.5780  221.7030 N   0  0  0  0  0  0  0  0  0  0  0  0
  139.0580   75.9330  222.2910 C   0  0  0  0  0  0  0  0  0  0  0  0
  139.1600   77.4110  222.6070 C   0  0  0  0  0  0  0  0  0  0  0  0
  140.6590   77.5950  222.7280 C   0  0  2  0  0  0  0  0  0  0  0  0
  141.0850   78.9980  222.6400 C   0  0  0  0  0  0  0  0  0  0  0  0
  140.4380   80.0990  223.0610 N   0  0  0  0  0  0  0  0  0  0  0  0
  141.1580   81.2060  222.8000 C   0  0  0  0  0  0  0  0  0  0  0  0
  142.3110   80.7320  222.1820 C   0  0  0  0  0  0  0  0  0  0  0  0
  142.2500   79.3920  222.0940 N   0  0  0  0  0  0  0  0  0  0  0  0
  141.1330   76.7800  221.5400 C   0  0  0  0  0  0  0  0  0  0  0  0
  139.4340   70.6030  224.3880 C   0  0  0  0  0  0  0  0  0  0  0  0
  139.1170   69.2730  224.1850 C   0  0  0  0  0  0  0  0  0  0  0  0
  139.4460   68.3370  225.1470 C   0  0  0  0  0  0  0  0  0  0  0  0
  140.0900   68.7430  226.3040 C   0  0  0  0  0  0  0  0  0  0  0  0
  140.4360   67.8450  227.2860 C   0  0  0  0  0  0  0  0  0  0  0  0
  141.0750   68.2740  228.4220 C   0  0  0  0  0  0  0  0  0  0  0  0
  141.4470   67.4440  229.4350 F   0  0  0  0  0  0  0  0  0  0  0  0
  141.3840   69.6180  228.6060 C   0  0  0  0  0  0  0  0  0  0  0  0
  141.0440   70.5270  227.6310 C   0  0  0  0  0  0  0  0  0  0  0  0
  140.4020   70.0810  226.4930 C   0  0  0  0  0  0  0  0  0  0  0  0
  140.0580   70.9420  225.5250 N   0  0  0  0  0  0  0  0  0  0  0  0
  141.1070   72.0320  222.8430 H   0  0  0  0  0  0  0  0  0  0  0  0
  139.5047   72.6281  220.6709 H   0  0  0  0  0  0  0  0  0  0  0  0
  138.7550   73.6602  221.9680 H   0  0  0  0  0  0  0  0  0  0  0  0
  138.2410   75.7469  221.5783 H   0  0  0  0  0  0  0  0  0  0  0  0
  138.8396   75.3359  223.1886 H   0  0  0  0  0  0  0  0  0  0  0  0
  138.7448   78.0247  221.7940 H   0  0  0  0  0  0  0  0  0  0  0  0
  138.5983   77.7166  223.5021 H   0  0  0  0  0  0  0  0  0  0  0  0
  141.0667   77.2827  223.7008 H   0  0  0  0  0  0  0  0  0  0  0  0
  140.8943   82.2500  223.0247 H   0  0  0  0  0  0  0  0  0  0  0  0
  143.1422   81.3560  221.8219 H   0  0  0  0  0  0  0  0  0  0  0  0
  142.9990   78.7840  221.6640 H   0  0  0  0  0  0  0  0  0  0  0  0
  140.9137   77.2857  220.5881 H   0  0  0  0  0  0  0  0  0  0  0  0
  142.2189   76.6071  221.5090 H   0  0  0  0  0  0  0  0  0  0  0  0
  138.6055   68.9612  223.2624 H   0  0  0  0  0  0  0  0  0  0  0  0
  139.1980   67.2762  224.9948 H   0  0  0  0  0  0  0  0  0  0  0  0
  140.1996   66.7781  227.1604 H   0  0  0  0  0  0  0  0  0  0  0  0
  141.8949   69.9504  229.5217 H   0  0  0  0  0  0  0  0  0  0  0  0
  141.2803   71.5940  227.7563 H   0  0  0  0  0  0  0  0  0  0  0  0
  1  2  2  0
  2  3  1  0
  3  4  1  0
  4  5  1  0
  5  6  2  0
  5  7  1  0
  7  8  1  0
  8  9  1  0
  9 10  1  0
 10 11  1  0
 11 12  2  0
 12 13  1  0
 13 14  2  0
 14 15  1  0
 10 16  1  0
  2 17  1  0
 17 18  2  0
 18 19  1  0
 19 20  2  0
 20 21  1  0
 21 22  2  0
 22 23  1  0
 22 24  1  0
 24 25  2  0
 25 26  1  0
 26 27  2  0
 16  7  1  0
 27 17  1  0
 15 11  1  0
 26 20  1  0
  3 28  1  0
  4 29  1  0
  4 30  1  0
  8 31  1  0
  8 32  1  0
  9 33  1  0
  9 34  1  0
 10 35  1  1
 13 36  1  0
 14 37  1  0
 15 38  1  0
 16 39  1  0
 16 40  1  0
 18 41  1  0
 19 42  1  0
 21 43  1  0
 24 44  1  0
 25 45  1  0
M  END
>  <smiles>  (28) 
O=C(NCC(=O)N1CC[C@H](c2ncc[nH]2)C1)c1ccc2cc(F)ccc2n1

>  <score_type>  (28) 
oracle

>  <origin>  (28) 
autodockgpu

>  <m_score__min__energy>  (28) 
-8.7300000000000004

>  <m_primary>  (28) 
energy

>  <rmsd>  (28) 
3.042980024928538

>  <m_score__min__rmsd>  (28) 
3.042980024928538

>  <meeko>  (28) 
{"free_energy": -7.72, "intermolecular_energy": -9.21, "internal_energy": -0.88, "cluster_size": 48, "cluster_id": 1, "rank_in_cluster": 44}

>  <energy>  (28) 
-8.12

>  <cluster_rmsd>  (28) 
1.07

>  <cluster>  (28) 
1

$$$$

     RDKit          3D

 45 48  0  0  0  0  0  0  0  0999 V2000
  140.9650   71.8830  221.1780 O   0  0  0  0  0  0  0  0  0  0  0  0
  140.4230   72.3480  222.2210 C   0  0  0  0  0  0  0  0  0  0  0  0
  140.0020   73.7190  222.2170 N   0  0  0  0  0  0  0  0  0  0  0  0
  140.2270   74.4710  221.0180 C   0  0  0  0  0  0  0  0  0  0  0  0
  139.2380   75.5670  220.8420 C   0  0  0  0  0  0  0  0  0  0  0  0
  138.2300   75.4770  220.0940 O   0  0  0  0  0  0  0  0  0  0  0  0
  139.4470   76.7780  221.5570 N   0  0  0  0  0  0  0  0  0  0  0  0
  138.4360   77.3670  222.4150 C   0  0  0  0  0  0  0  0  0  0  0  0
  139.1110   78.5530  223.0730 C   0  0  0  0  0  0  0  0  0  0  0  0
  140.5710   78.1570  222.9900 C   0  0  2  0  0  0  0  0  0  0  0  0
  141.4940   79.2820  223.1910 C   0  0  0  0  0  0  0  0  0  0  0  0
  141.2700   80.4490  223.8190 N   0  0  0  0  0  0  0  0  0  0  0  0
  142.3690   81.2260  223.7930 C   0  0  0  0  0  0  0  0  0  0  0  0
  143.3110   80.4690  223.1040 C   0  0  0  0  0  0  0  0  0  0  0  0
  142.7640   79.2940  222.7470 N   0  0  0  0  0  0  0  0  0  0  0  0
  140.6310   77.6160  221.5750 C   0  0  0  0  0  0  0  0  0  0  0  0
  140.2220   71.5270  223.4120 C   0  0  0  0  0  0  0  0  0  0  0  0
  139.5660   70.3200  223.2690 C   0  0  0  0  0  0  0  0  0  0  0  0
  139.3580   69.5180  224.3750 C   0  0  0  0  0  0  0  0  0  0  0  0
  139.8120   69.9350  225.6160 C   0  0  0  0  0  0  0  0  0  0  0  0
  139.6270   69.1680  226.7430 C   0  0  0  0  0  0  0  0  0  0  0  0
  140.0870   69.6050  227.9590 C   0  0  0  0  0  0  0  0  0  0  0  0
  139.9410   68.9010  229.1150 F   0  0  0  0  0  0  0  0  0  0  0  0
  140.7460   70.8240  228.0810 C   0  0  0  0  0  0  0  0  0  0  0  0
  140.9370   71.6010  226.9610 C   0  0  0  0  0  0  0  0  0  0  0  0
  140.4700   71.1500  225.7440 C   0  0  0  0  0  0  0  0  0  0  0  0
  140.6410   71.8830  224.6350 N   0  0  0  0  0  0  0  0  0  0  0  0
  139.5490   74.1110  223.0890 H   0  0  0  0  0  0  0  0  0  0  0  0
  141.2354   74.9085  221.0595 H   0  0  0  0  0  0  0  0  0  0  0  0
  140.1205   73.7834  220.1661 H   0  0  0  0  0  0  0  0  0  0  0  0
  137.5711   77.6969  221.8208 H   0  0  0  0  0  0  0  0  0  0  0  0
  138.0575   76.6476  223.1561 H   0  0  0  0  0  0  0  0  0  0  0  0
  138.9155   79.4837  222.5203 H   0  0  0  0  0  0  0  0  0  0  0  0
  138.7601   78.7573  224.0953 H   0  0  0  0  0  0  0  0  0  0  0  0
  140.8831   77.4497  223.7726 H   0  0  0  0  0  0  0  0  0  0  0  0
  142.4939   82.2320  224.2200 H   0  0  0  0  0  0  0  0  0  0  0  0
  144.3424   80.7828  222.8854 H   0  0  0  0  0  0  0  0  0  0  0  0
  143.2670   78.5360  222.2100 H   0  0  0  0  0  0  0  0  0  0  0  0
  140.5680   78.4226  220.8297 H   0  0  0  0  0  0  0  0  0  0  0  0
  141.5653   77.0916  221.3259 H   0  0  0  0  0  0  0  0  0  0  0  0
  139.2106   69.9985  222.2789 H   0  0  0  0  0  0  0  0  0  0  0  0
  138.8358   68.5555  224.2710 H   0  0  0  0  0  0  0  0  0  0  0  0
  139.1083   68.2008  226.6686 H   0  0  0  0  0  0  0  0  0  0  0  0
  141.1105   71.1633  229.0618 H   0  0  0  0  0  0  0  0  0  0  0  0
  141.4550   72.5685  227.0355 H   0  0  0  0  0  0  0  0  0  0  0  0
  1  2  2  0
  2  3  1  0
  3  4  1  0
  4  5  1  0
  5  6  2  0
  5  7  1  0
  7  8  1  0
  8  9  1  0
  9 10  1  0
 10 11  1  0
 11 12  2  0
 12 13  1  0
 13 14  2  0
 14 15  1  0
 10 16  1  0
  2 17  1  0
 17 18  2  0
 18 19  1  0
 19 20  2  0
 20 21  1  0
 21 22  2  0
 22 23  1  0
 22 24  1  0
 24 25  2  0
 25 26  1  0
 26 27  2  0
 16  7  1  0
 27 17  1  0
 15 11  1  0
 26 20  1  0
  3 28  1  0
  4 29  1  0
  4 30  1  0
  8 31  1  0
  8 32  1  0
  9 33  1  0
  9 34  1  0
 10 35  1  1
 13 36  1  0
 14 37  1  0
 15 38  1  0
 16 39  1  0
 16 40  1  0
 18 41  1  0
 19 42  1  0
 21 43  1  0
 24 44  1  0
 25 45  1  0
M  END
>  <smiles>  (29) 
O=C(NCC(=O)N1CC[C@H](c2ncc[nH]2)C1)c1ccc2cc(F)ccc2n1

>  <score_type>  (29) 
oracle

>  <origin>  (29) 
autodockgpu

>  <m_score__min__energy>  (29) 
-8.7300000000000004

>  <m_primary>  (29) 
energy

>  <rmsd>  (29) 
3.319150106783572

>  <m_score__min__rmsd>  (29) 
3.319150106783572

>  <meeko>  (29) 
{"free_energy": -8.41, "intermolecular_energy": -9.9, "internal_energy": -0.84, "cluster_size": 48, "cluster_id": 1, "rank_in_cluster": 17}

>  <energy>  (29) 
-8.12

>  <cluster_rmsd>  (29) 
1.11

>  <cluster>  (29) 
1

$$$$

     RDKit          3D

 45 48  0  0  0  0  0  0  0  0999 V2000
  140.7080   73.3360  222.4600 O   0  0  0  0  0  0  0  0  0  0  0  0
  139.7380   72.5720  222.7310 C   0  0  0  0  0  0  0  0  0  0  0  0
  138.5320   72.7050  221.9660 N   0  0  0  0  0  0  0  0  0  0  0  0
  138.5140   73.7020  220.9380 C   0  0  0  0  0  0  0  0  0  0  0  0
  138.3360   75.0750  221.4810 C   0  0  0  0  0  0  0  0  0  0  0  0
  137.2370   75.5160  221.9050 O   0  0  0  0  0  0  0  0  0  0  0  0
  139.4720   75.9300  221.5210 N   0  0  0  0  0  0  0  0  0  0  0  0
  140.5250   75.8820  220.5240 C   0  0  0  0  0  0  0  0  0  0  0  0
  141.4520   77.0300  220.8660 C   0  0  0  0  0  0  0  0  0  0  0  0
  140.5240   77.9550  221.6260 C   0  0  2  0  0  0  0  0  0  0  0  0
  141.2300   78.9680  222.4220 C   0  0  0  0  0  0  0  0  0  0  0  0
  140.7200   79.8560  223.2920 N   0  0  0  0  0  0  0  0  0  0  0  0
  141.6940   80.6190  223.8240 C   0  0  0  0  0  0  0  0  0  0  0  0
  142.8620   80.1530  223.2290 C   0  0  0  0  0  0  0  0  0  0  0  0
  142.5620   79.1530  222.3830 N   0  0  0  0  0  0  0  0  0  0  0  0
  139.7890   76.9550  222.4970 C   0  0  0  0  0  0  0  0  0  0  0  0
  139.8210   71.5730  223.7940 C   0  0  0  0  0  0  0  0  0  0  0  0
  139.3570   70.3000  223.5290 C   0  0  0  0  0  0  0  0  0  0  0  0
  139.4200   69.3300  224.5120 C   0  0  0  0  0  0  0  0  0  0  0  0
  139.9500   69.6480  225.7520 C   0  0  0  0  0  0  0  0  0  0  0  0
  140.0320   68.7140  226.7580 C   0  0  0  0  0  0  0  0  0  0  0  0
  140.5610   69.0550  227.9770 C   0  0  0  0  0  0  0  0  0  0  0  0
  140.6740   68.1850  229.0180 F   0  0  0  0  0  0  0  0  0  0  0  0
  141.0230   70.3440  228.2220 C   0  0  0  0  0  0  0  0  0  0  0  0
  140.9460   71.2890  227.2240 C   0  0  0  0  0  0  0  0  0  0  0  0
  140.4120   70.9310  226.0030 C   0  0  0  0  0  0  0  0  0  0  0  0
  140.3240   71.8280  225.0110 N   0  0  0  0  0  0  0  0  0  0  0  0
  137.7180   72.0660  222.1910 H   0  0  0  0  0  0  0  0  0  0  0  0
  139.4663   73.6602  220.3890 H   0  0  0  0  0  0  0  0  0  0  0  0
  137.6588   73.4888  220.2798 H   0  0  0  0  0  0  0  0  0  0  0  0
  141.0625   74.9238  220.5772 H   0  0  0  0  0  0  0  0  0  0  0  0
  140.1265   75.9672  219.5023 H   0  0  0  0  0  0  0  0  0  0  0  0
  142.2896   76.6956  221.4958 H   0  0  0  0  0  0  0  0  0  0  0  0
  141.9296   77.4953  219.9911 H   0  0  0  0  0  0  0  0  0  0  0  0
  139.8815   78.5682  220.9770 H   0  0  0  0  0  0  0  0  0  0  0  0
  141.5896   81.4279  224.5622 H   0  0  0  0  0  0  0  0  0  0  0  0
  143.8728   80.5422  223.4210 H   0  0  0  0  0  0  0  0  0  0  0  0
  143.2700   78.6250  221.8020 H   0  0  0  0  0  0  0  0  0  0  0  0
  140.4332   76.5656  223.2990 H   0  0  0  0  0  0  0  0  0  0  0  0
  138.9172   77.3656  223.0274 H   0  0  0  0  0  0  0  0  0  0  0  0
  138.9392   70.0587  222.5405 H   0  0  0  0  0  0  0  0  0  0  0  0
  139.0520   68.3130  224.3111 H   0  0  0  0  0  0  0  0  0  0  0  0
  139.6719   67.6892  226.5846 H   0  0  0  0  0  0  0  0  0  0  0  0
  141.4456   70.6055  229.2033 H   0  0  0  0  0  0  0  0  0  0  0  0
  141.3048   72.3143  227.3973 H   0  0  0  0  0  0  0  0  0  0  0  0
  1  2  2  0
  2  3  1  0
  3  4  1  0
  4  5  1  0
  5  6  2  0
  5  7  1  0
  7  8  1  0
  8  9  1  0
  9 10  1  0
 10 11  1  0
 11 12  2  0
 12 13  1  0
 13 14  2  0
 14 15  1  0
 10 16  1  0
  2 17  1  0
 17 18  2  0
 18 19  1  0
 19 20  2  0
 20 21  1  0
 21 22  2  0
 22 23  1  0
 22 24  1  0
 24 25  2  0
 25 26  1  0
 26 27  2  0
 16  7  1  0
 27 17  1  0
 15 11  1  0
 26 20  1  0
  3 28  1  0
  4 29  1  0
  4 30  1  0
  8 31  1  0
  8 32  1  0
  9 33  1  0
  9 34  1  0
 10 35  1  6
 13 36  1  0
 14 37  1  0
 15 38  1  0
 16 39  1  0
 16 40  1  0
 18 41  1  0
 19 42  1  0
 21 43  1  0
 24 44  1  0
 25 45  1  0
M  END
>  <smiles>  (30) 
O=C(NCC(=O)N1CC[C@H](c2ncc[nH]2)C1)c1ccc2cc(F)ccc2n1

>  <score_type>  (30) 
oracle

>  <origin>  (30) 
autodockgpu

>  <m_score__min__energy>  (30) 
-8.7300000000000004

>  <m_primary>  (30) 
energy

>  <rmsd>  (30) 
2.551500952309796

>  <m_score__min__rmsd>  (30) 
2.551500952309796

>  <meeko>  (30) 
{"free_energy": -8.12, "intermolecular_energy": -9.61, "internal_energy": -0.95, "cluster_size": 48, "cluster_id": 1, "rank_in_cluster": 27}

>  <energy>  (30) 
-8.09

>  <cluster_rmsd>  (30) 
0.93

>  <cluster>  (30) 
1

$$$$

     RDKit          3D

 45 48  0  0  0  0  0  0  0  0999 V2000
  139.6900   71.3710  221.0480 O   0  0  0  0  0  0  0  0  0  0  0  0
  139.5860   71.8730  222.2040 C   0  0  0  0  0  0  0  0  0  0  0  0
  139.3280   73.2800  222.3140 N   0  0  0  0  0  0  0  0  0  0  0  0
  139.2050   74.0220  221.0950 C   0  0  0  0  0  0  0  0  0  0  0  0
  140.3480   74.9470  220.8750 C   0  0  0  0  0  0  0  0  0  0  0  0
  141.3630   74.6450  220.1970 O   0  0  0  0  0  0  0  0  0  0  0  0
  140.2860   76.2390  221.4660 N   0  0  0  0  0  0  0  0  0  0  0  0
  139.0660   76.7870  222.0270 C   0  0  0  0  0  0  0  0  0  0  0  0
  139.4710   78.1030  222.6580 C   0  0  0  0  0  0  0  0  0  0  0  0
  140.9460   77.8750  222.9170 C   0  0  2  0  0  0  0  0  0  0  0  0
  141.6950   79.1150  223.1610 C   0  0  0  0  0  0  0  0  0  0  0  0
  141.3010   80.2170  223.8230 N   0  0  0  0  0  0  0  0  0  0  0  0
  142.2770   81.1450  223.8310 C   0  0  0  0  0  0  0  0  0  0  0  0
  143.3210   80.5550  223.1260 C   0  0  0  0  0  0  0  0  0  0  0  0
  142.9520   79.3250  222.7280 N   0  0  0  0  0  0  0  0  0  0  0  0
  141.3540   77.2070  221.6190 C   0  0  0  0  0  0  0  0  0  0  0  0
  139.7220   71.0600  223.4090 C   0  0  0  0  0  0  0  0  0  0  0  0
  139.2770   69.7530  223.3680 C   0  0  0  0  0  0  0  0  0  0  0  0
  139.3900   68.9550  224.4900 C   0  0  0  0  0  0  0  0  0  0  0  0
  139.9500   69.4770  225.6450 C   0  0  0  0  0  0  0  0  0  0  0  0
  140.0820   68.7180  226.7850 C   0  0  0  0  0  0  0  0  0  0  0  0
  140.6400   69.2600  227.9150 C   0  0  0  0  0  0  0  0  0  0  0  0
  140.8030   68.5700  229.0780 F   0  0  0  0  0  0  0  0  0  0  0  0
  141.0820   70.5790  227.9350 C   0  0  0  0  0  0  0  0  0  0  0  0
  140.9550   71.3490  226.8020 C   0  0  0  0  0  0  0  0  0  0  0  0
  140.3920   70.7910  225.6720 C   0  0  0  0  0  0  0  0  0  0  0  0
  140.2560   71.5150  224.5520 N   0  0  0  0  0  0  0  0  0  0  0  0
  139.2400   73.7030  223.2800 H   0  0  0  0  0  0  0  0  0  0  0  0
  139.1568   73.3143  220.2543 H   0  0  0  0  0  0  0  0  0  0  0  0
  138.2909   74.6300  221.1640 H   0  0  0  0  0  0  0  0  0  0  0  0
  138.3191   76.9526  221.2366 H   0  0  0  0  0  0  0  0  0  0  0  0
  138.6093   76.1049  222.7592 H   0  0  0  0  0  0  0  0  0  0  0  0
  139.3099   78.9451  221.9688 H   0  0  0  0  0  0  0  0  0  0  0  0
  138.8938   78.3647  223.5571 H   0  0  0  0  0  0  0  0  0  0  0  0
  141.1515   77.2905  223.8259 H   0  0  0  0  0  0  0  0  0  0  0  0
  142.2538   82.1439  224.2911 H   0  0  0  0  0  0  0  0  0  0  0  0
  144.2965   81.0221  222.9254 H   0  0  0  0  0  0  0  0  0  0  0  0
  143.5620   78.6650  222.1730 H   0  0  0  0  0  0  0  0  0  0  0  0
  141.3746   77.9228  220.7840 H   0  0  0  0  0  0  0  0  0  0  0  0
  142.3648   76.7732  221.6275 H   0  0  0  0  0  0  0  0  0  0  0  0
  138.8343   69.3491  222.4455 H   0  0  0  0  0  0  0  0  0  0  0  0
  139.0381   67.9131  224.4667 H   0  0  0  0  0  0  0  0  0  0  0  0
  139.7389   67.6729  226.7904 H   0  0  0  0  0  0  0  0  0  0  0  0
  141.5283   71.0018  228.8472 H   0  0  0  0  0  0  0  0  0  0  0  0
  141.2972   72.3944  226.7967 H   0  0  0  0  0  0  0  0  0  0  0  0
  1  2  2  0
  2  3  1  0
  3  4  1  0
  4  5  1  0
  5  6  2  0
  5  7  1  0
  7  8  1  0
  8  9  1  0
  9 10  1  0
 10 11  1  0
 11 12  2  0
 12 13  1  0
 13 14  2  0
 14 15  1  0
 10 16  1  0
  2 17  1  0
 17 18  2  0
 18 19  1  0
 19 20  2  0
 20 21  1  0
 21 22  2  0
 22 23  1  0
 22 24  1  0
 24 25  2  0
 25 26  1  0
 26 27  2  0
 16  7  1  0
 27 17  1  0
 15 11  1  0
 26 20  1  0
  3 28  1  0
  4 29  1  0
  4 30  1  0
  8 31  1  0
  8 32  1  0
  9 33  1  0
  9 34  1  0
 10 35  1  1
 13 36  1  0
 14 37  1  0
 15 38  1  0
 16 39  1  0
 16 40  1  0
 18 41  1  0
 19 42  1  0
 21 43  1  0
 24 44  1  0
 25 45  1  0
M  END
>  <smiles>  (31) 
O=C(NCC(=O)N1CC[C@H](c2ncc[nH]2)C1)c1ccc2cc(F)ccc2n1

>  <score_type>  (31) 
oracle

>  <origin>  (31) 
autodockgpu

>  <m_score__min__energy>  (31) 
-8.7300000000000004

>  <m_primary>  (31) 
energy

>  <rmsd>  (31) 
2.9716320050684195

>  <m_score__min__rmsd>  (31) 
2.9716320050684195

>  <meeko>  (31) 
{"free_energy": -8.36, "intermolecular_energy": -9.85, "internal_energy": -0.94, "cluster_size": 48, "cluster_id": 1, "rank_in_cluster": 19}

>  <energy>  (31) 
-8.02

>  <cluster_rmsd>  (31) 
1.2

>  <cluster>  (31) 
1

$$$$

     RDKit          3D

 45 48  0  0  0  0  0  0  0  0999 V2000
  141.3510   72.2080  221.5200 O   0  0  0  0  0  0  0  0  0  0  0  0
  140.5320   72.5040  222.4370 C   0  0  0  0  0  0  0  0  0  0  0  0
  139.8190   73.7440  222.3360 N   0  0  0  0  0  0  0  0  0  0  0  0
  140.0860   74.5650  221.1930 C   0  0  0  0  0  0  0  0  0  0  0  0
  139.0910   75.6580  221.0340 C   0  0  0  0  0  0  0  0  0  0  0  0
  138.0340   75.5400  220.3620 O   0  0  0  0  0  0  0  0  0  0  0  0
  139.3530   76.9000  221.6750 N   0  0  0  0  0  0  0  0  0  0  0  0
  138.3510   77.6110  222.4480 C   0  0  0  0  0  0  0  0  0  0  0  0
  139.0780   78.7940  223.0530 C   0  0  0  0  0  0  0  0  0  0  0  0
  140.5100   78.3010  223.0600 C   0  0  2  0  0  0  0  0  0  0  0  0
  141.4970   79.3750  223.2250 C   0  0  0  0  0  0  0  0  0  0  0  0
  141.3530   80.5600  223.8450 N   0  0  0  0  0  0  0  0  0  0  0  0
  142.4920   81.2750  223.7830 C   0  0  0  0  0  0  0  0  0  0  0  0
  143.3740   80.4610  223.0790 C   0  0  0  0  0  0  0  0  0  0  0  0
  142.7550   79.3140  222.7490 N   0  0  0  0  0  0  0  0  0  0  0  0
  140.5880   77.6600  221.6880 C   0  0  0  0  0  0  0  0  0  0  0  0
  140.3050   71.6220  223.5780 C   0  0  0  0  0  0  0  0  0  0  0  0
  139.6220   70.4410  223.3620 C   0  0  0  0  0  0  0  0  0  0  0  0
  139.3890   69.5820  224.4190 C   0  0  0  0  0  0  0  0  0  0  0  0
  139.8430   69.9170  225.6850 C   0  0  0  0  0  0  0  0  0  0  0  0
  139.6330   69.0920  226.7650 C   0  0  0  0  0  0  0  0  0  0  0  0
  140.0940   69.4480  228.0070 C   0  0  0  0  0  0  0  0  0  0  0  0
  139.9230   68.6830  229.1200 F   0  0  0  0  0  0  0  0  0  0  0  0
  140.7790   70.6430  228.2020 C   0  0  0  0  0  0  0  0  0  0  0  0
  140.9960   71.4780  227.1300 C   0  0  0  0  0  0  0  0  0  0  0  0
  140.5270   71.1070  225.8860 C   0  0  0  0  0  0  0  0  0  0  0  0
  140.7230   71.8980  224.8220 N   0  0  0  0  0  0  0  0  0  0  0  0
  139.1330   73.9960  223.1030 H   0  0  0  0  0  0  0  0  0  0  0  0
  141.0854   75.0108  221.3043 H   0  0  0  0  0  0  0  0  0  0  0  0
  140.0264   73.9254  220.3000 H   0  0  0  0  0  0  0  0  0  0  0  0
  137.5333   77.9533  221.7967 H   0  0  0  0  0  0  0  0  0  0  0  0
  137.8972   76.9707  223.2188 H   0  0  0  0  0  0  0  0  0  0  0  0
  138.9666   79.6944  222.4310 H   0  0  0  0  0  0  0  0  0  0  0  0
  138.7024   79.0911  224.0433 H   0  0  0  0  0  0  0  0  0  0  0  0
  140.7439   77.6316  223.9009 H   0  0  0  0  0  0  0  0  0  0  0  0
  142.6824   82.2767  224.1958 H   0  0  0  0  0  0  0  0  0  0  0  0
  144.4149   80.7160  222.8312 H   0  0  0  0  0  0  0  0  0  0  0  0
  143.2020   78.5240  222.2090 H   0  0  0  0  0  0  0  0  0  0  0  0
  140.6075   78.4152  220.8884 H   0  0  0  0  0  0  0  0  0  0  0  0
  141.4942   77.0610  221.5151 H   0  0  0  0  0  0  0  0  0  0  0  0
  139.2652   70.1855  222.3533 H   0  0  0  0  0  0  0  0  0  0  0  0
  138.8469   68.6387  224.2568 H   0  0  0  0  0  0  0  0  0  0  0  0
  139.0932   68.1428  226.6324 H   0  0  0  0  0  0  0  0  0  0  0  0
  141.1435   70.9176  229.2029 H   0  0  0  0  0  0  0  0  0  0  0  0
  141.5354   72.4274  227.2625 H   0  0  0  0  0  0  0  0  0  0  0  0
  1  2  2  0
  2  3  1  0
  3  4  1  0
  4  5  1  0
  5  6  2  0
  5  7  1  0
  7  8  1  0
  8  9  1  0
  9 10  1  0
 10 11  1  0
 11 12  2  0
 12 13  1  0
 13 14  2  0
 14 15  1  0
 10 16  1  0
  2 17  1  0
 17 18  2  0
 18 19  1  0
 19 20  2  0
 20 21  1  0
 21 22  2  0
 22 23  1  0
 22 24  1  0
 24 25  2  0
 25 26  1  0
 26 27  2  0
 16  7  1  0
 27 17  1  0
 15 11  1  0
 26 20  1  0
  3 28  1  0
  4 29  1  0
  4 30  1  0
  8 31  1  0
  8 32  1  0
  9 33  1  0
  9 34  1  0
 10 35  1  1
 13 36  1  0
 14 37  1  0
 15 38  1  0
 16 39  1  0
 16 40  1  0
 18 41  1  0
 19 42  1  0
 21 43  1  0
 24 44  1  0
 25 45  1  0
M  END
>  <smiles>  (32) 
O=C(NCC(=O)N1CC[C@H](c2ncc[nH]2)C1)c1ccc2cc(F)ccc2n1

>  <score_type>  (32) 
oracle

>  <origin>  (32) 
autodockgpu

>  <m_score__min__energy>  (32) 
-8.7300000000000004

>  <m_primary>  (32) 
energy

>  <rmsd>  (32) 
3.377115888086654

>  <m_score__min__rmsd>  (32) 
3.377115888086654

>  <meeko>  (32) 
{"free_energy": -8.52, "intermolecular_energy": -10.02, "internal_energy": -0.79, "cluster_size": 48, "cluster_id": 1, "rank_in_cluster": 8}

>  <energy>  (32) 
-7.98

>  <cluster_rmsd>  (32) 
1.24

>  <cluster>  (32) 
1

$$$$

     RDKit          3D

 45 48  0  0  0  0  0  0  0  0999 V2000
  137.2810   70.8590  222.1330 O   0  0  0  0  0  0  0  0  0  0  0  0
  138.2110   71.3140  222.8580 C   0  0  0  0  0  0  0  0  0  0  0  0
  138.7050   72.6320  222.5850 N   0  0  0  0  0  0  0  0  0  0  0  0
  138.1020   73.3470  221.5000 C   0  0  0  0  0  0  0  0  0  0  0  0
  137.9940   74.8050  221.7720 C   0  0  0  0  0  0  0  0  0  0  0  0
  136.8980   75.3960  221.9550 O   0  0  0  0  0  0  0  0  0  0  0  0
  139.1930   75.5670  221.8250 N   0  0  0  0  0  0  0  0  0  0  0  0
  140.3560   75.2570  221.0140 C   0  0  0  0  0  0  0  0  0  0  0  0
  141.3400   76.3770  221.2810 C   0  0  0  0  0  0  0  0  0  0  0  0
  140.4180   77.4930  221.7270 C   0  0  2  0  0  0  0  0  0  0  0  0
  141.1130   78.5800  222.4280 C   0  0  0  0  0  0  0  0  0  0  0  0
  140.7070   79.2820  223.5000 N   0  0  0  0  0  0  0  0  0  0  0  0
  141.6280   80.2000  223.8490 C   0  0  0  0  0  0  0  0  0  0  0  0
  142.6510   80.0340  222.9210 C   0  0  0  0  0  0  0  0  0  0  0  0
  142.3230   79.0480  222.0680 N   0  0  0  0  0  0  0  0  0  0  0  0
  139.4830   76.7290  222.6430 C   0  0  0  0  0  0  0  0  0  0  0  0
  138.7840   70.5320  223.9510 C   0  0  0  0  0  0  0  0  0  0  0  0
  138.6800   69.1560  223.8930 C   0  0  0  0  0  0  0  0  0  0  0  0
  139.2110   68.3860  224.9100 C   0  0  0  0  0  0  0  0  0  0  0  0
  139.8420   69.0040  225.9770 C   0  0  0  0  0  0  0  0  0  0  0  0
  140.3840   68.2760  227.0100 C   0  0  0  0  0  0  0  0  0  0  0  0
  141.0050   68.9140  228.0550 C   0  0  0  0  0  0  0  0  0  0  0  0
  141.5630   68.2600  229.1100 F   0  0  0  0  0  0  0  0  0  0  0  0
  141.0980   70.3010  228.0930 C   0  0  0  0  0  0  0  0  0  0  0  0
  140.5600   71.0420  227.0660 C   0  0  0  0  0  0  0  0  0  0  0  0
  139.9390   70.3870  226.0210 C   0  0  0  0  0  0  0  0  0  0  0  0
  139.4050   71.0800  225.0060 N   0  0  0  0  0  0  0  0  0  0  0  0
  139.4850   73.0150  223.1900 H   0  0  0  0  0  0  0  0  0  0  0  0
  138.7133   73.2004  220.5973 H   0  0  0  0  0  0  0  0  0  0  0  0
  137.0832   72.9548  221.3651 H   0  0  0  0  0  0  0  0  0  0  0  0
  140.7851   74.2884  221.3102 H   0  0  0  0  0  0  0  0  0  0  0  0
  140.1025   75.1799  219.9464 H   0  0  0  0  0  0  0  0  0  0  0  0
  142.0529   76.1046  222.0732 H   0  0  0  0  0  0  0  0  0  0  0  0
  141.9693   76.6352  220.4165 H   0  0  0  0  0  0  0  0  0  0  0  0
  139.9273   78.0212  220.8962 H   0  0  0  0  0  0  0  0  0  0  0  0
  141.5820   80.9190  224.6803 H   0  0  0  0  0  0  0  0  0  0  0  0
  143.5826   80.6181  222.8900 H   0  0  0  0  0  0  0  0  0  0  0  0
  142.9270   78.7230  221.2660 H   0  0  0  0  0  0  0  0  0  0  0  0
  139.9780   76.4483  223.5844 H   0  0  0  0  0  0  0  0  0  0  0  0
  138.5954   77.2944  222.9631 H   0  0  0  0  0  0  0  0  0  0  0  0
  138.1768   68.6753  223.0411 H   0  0  0  0  0  0  0  0  0  0  0  0
  139.1331   67.2894  224.8725 H   0  0  0  0  0  0  0  0  0  0  0  0
  140.3197   67.1779  226.9990 H   0  0  0  0  0  0  0  0  0  0  0  0
  141.5970   70.8011  228.9362 H   0  0  0  0  0  0  0  0  0  0  0  0
  140.6237   72.1401  227.0773 H   0  0  0  0  0  0  0  0  0  0  0  0
  1  2  2  0
  2  3  1  0
  3  4  1  0
  4  5  1  0
  5  6  2  0
  5  7  1  0
  7  8  1  0
  8  9  1  0
  9 10  1  0
 10 11  1  0
 11 12  2  0
 12 13  1  0
 13 14  2  0
 14 15  1  0
 10 16  1  0
  2 17  1  0
 17 18  2  0
 18 19  1  0
 19 20  2  0
 20 21  1  0
 21 22  2  0
 22 23  1  0
 22 24  1  0
 24 25  2  0
 25 26  1  0
 26 27  2  0
 16  7  1  0
 27 17  1  0
 15 11  1  0
 26 20  1  0
  3 28  1  0
  4 29  1  0
  4 30  1  0
  8 31  1  0
  8 32  1  0
  9 33  1  0
  9 34  1  0
 10 35  1  6
 13 36  1  0
 14 37  1  0
 15 38  1  0
 16 39  1  0
 16 40  1  0
 18 41  1  0
 19 42  1  0
 21 43  1  0
 24 44  1  0
 25 45  1  0
M  END
>  <smiles>  (33) 
O=C(NCC(=O)N1CC[C@H](c2ncc[nH]2)C1)c1ccc2cc(F)ccc2n1

>  <score_type>  (33) 
oracle

>  <origin>  (33) 
autodockgpu

>  <m_score__min__energy>  (33) 
-8.7300000000000004

>  <m_primary>  (33) 
energy

>  <rmsd>  (33) 
2.5525297941612393

>  <m_score__min__rmsd>  (33) 
2.5525297941612393

>  <meeko>  (33) 
{"free_energy": -7.56, "intermolecular_energy": -9.05, "internal_energy": -0.98, "cluster_size": 48, "cluster_id": 1, "rank_in_cluster": 46}

>  <energy>  (33) 
-7.94

>  <cluster_rmsd>  (33) 
1.17

>  <cluster>  (33) 
1

$$$$

     RDKit          3D

 45 48  0  0  0  0  0  0  0  0999 V2000
  140.5770   79.9130  219.7150 O   0  0  0  0  0  0  0  0  0  0  0  0
  141.6380   79.3310  220.0810 C   0  0  0  0  0  0  0  0  0  0  0  0
  142.2730   79.7700  221.2890 N   0  0  0  0  0  0  0  0  0  0  0  0
  141.6540   80.8460  222.0030 C   0  0  0  0  0  0  0  0  0  0  0  0
  140.7520   80.3670  223.0830 C   0  0  0  0  0  0  0  0  0  0  0  0
  140.4610   81.0520  224.0980 O   0  0  0  0  0  0  0  0  0  0  0  0
  140.1920   79.0660  222.9590 N   0  0  0  0  0  0  0  0  0  0  0  0
  138.7620   78.8220  222.9750 C   0  0  0  0  0  0  0  0  0  0  0  0
  138.6050   77.3440  222.6850 C   0  0  0  0  0  0  0  0  0  0  0  0
  139.8920   77.0400  221.9470 C   0  0  2  0  0  0  0  0  0  0  0  0
  140.2030   75.6060  221.8820 C   0  0  0  0  0  0  0  0  0  0  0  0
  139.3900   74.5600  222.1060 N   0  0  0  0  0  0  0  0  0  0  0  0
  140.0510   73.3970  221.9480 C   0  0  0  0  0  0  0  0  0  0  0  0
  141.3450   73.7780  221.6060 C   0  0  0  0  0  0  0  0  0  0  0  0
  141.4190   75.1190  221.5700 N   0  0  0  0  0  0  0  0  0  0  0  0
  140.8860   77.8020  222.8000 C   0  0  0  0  0  0  0  0  0  0  0  0
  142.2180   78.2370  219.3070 C   0  0  0  0  0  0  0  0  0  0  0  0
  142.1800   78.3210  217.9290 C   0  0  0  0  0  0  0  0  0  0  0  0
  142.7200   77.3040  217.1650 C   0  0  0  0  0  0  0  0  0  0  0  0
  143.2940   76.2100  217.7920 C   0  0  0  0  0  0  0  0  0  0  0  0
  143.8440   75.1760  217.0710 C   0  0  0  0  0  0  0  0  0  0  0  0
  144.4070   74.1050  217.7180 C   0  0  0  0  0  0  0  0  0  0  0  0
  144.9690   73.0470  217.0720 F   0  0  0  0  0  0  0  0  0  0  0  0
  144.4350   74.0410  219.1070 C   0  0  0  0  0  0  0  0  0  0  0  0
  143.8890   75.0690  219.8410 C   0  0  0  0  0  0  0  0  0  0  0  0
  143.3260   76.1400  219.1770 C   0  0  0  0  0  0  0  0  0  0  0  0
  142.7870   77.1570  219.8630 N   0  0  0  0  0  0  0  0  0  0  0  0
  143.1620   79.2830  221.5980 H   0  0  0  0  0  0  0  0  0  0  0  0
  142.4406   81.4707  222.4513 H   0  0  0  0  0  0  0  0  0  0  0  0
  141.0446   81.4162  221.2864 H   0  0  0  0  0  0  0  0  0  0  0  0
  138.3402   79.0681  223.9607 H   0  0  0  0  0  0  0  0  0  0  0  0
  138.2320   79.4429  222.2378 H   0  0  0  0  0  0  0  0  0  0  0  0
  138.5268   76.7589  223.6132 H   0  0  0  0  0  0  0  0  0  0  0  0
  137.6952   77.0931  222.1199 H   0  0  0  0  0  0  0  0  0  0  0  0
  139.8732   77.3278  220.8855 H   0  0  0  0  0  0  0  0  0  0  0  0
  139.6569   72.3765  222.0633 H   0  0  0  0  0  0  0  0  0  0  0  0
  142.1769   73.0891  221.3978 H   0  0  0  0  0  0  0  0  0  0  0  0
  142.2920   75.6660  221.3370 H   0  0  0  0  0  0  0  0  0  0  0  0
  141.0527   77.3067  223.7680 H   0  0  0  0  0  0  0  0  0  0  0  0
  141.8921   77.8857  222.3632 H   0  0  0  0  0  0  0  0  0  0  0  0
  141.7216   79.1941  217.4415 H   0  0  0  0  0  0  0  0  0  0  0  0
  142.6943   77.3626  216.0669 H   0  0  0  0  0  0  0  0  0  0  0  0
  143.8325   75.2077  215.9715 H   0  0  0  0  0  0  0  0  0  0  0  0
  144.8892   73.1769  219.6140 H   0  0  0  0  0  0  0  0  0  0  0  0
  143.9011   75.0376  220.9405 H   0  0  0  0  0  0  0  0  0  0  0  0
  1  2  2  0
  2  3  1  0
  3  4  1  0
  4  5  1  0
  5  6  2  0
  5  7  1  0
  7  8  1  0
  8  9  1  0
  9 10  1  0
 10 11  1  0
 11 12  2  0
 12 13  1  0
 13 14  2  0
 14 15  1  0
 10 16  1  0
  2 17  1  0
 17 18  2  0
 18 19  1  0
 19 20  2  0
 20 21  1  0
 21 22  2  0
 22 23  1  0
 22 24  1  0
 24 25  2  0
 25 26  1  0
 26 27  2  0
 16  7  1  0
 27 17  1  0
 15 11  1  0
 26 20  1  0
  3 28  1  0
  4 29  1  0
  4 30  1  0
  8 31  1  0
  8 32  1  0
  9 33  1  0
  9 34  1  0
 10 35  1  6
 13 36  1  0
 14 37  1  0
 15 38  1  0
 16 39  1  0
 16 40  1  0
 18 41  1  0
 19 42  1  0
 21 43  1  0
 24 44  1  0
 25 45  1  0
M  END
>  <smiles>  (34) 
O=C(NCC(=O)N1CC[C@H](c2ncc[nH]2)C1)c1ccc2cc(F)ccc2n1

>  <score_type>  (34) 
oracle

>  <origin>  (34) 
autodockgpu

>  <m_score__min__energy>  (34) 
-8.7300000000000004

>  <m_primary>  (34) 
energy

>  <rmsd>  (34) 
8.753513118077121

>  <m_score__min__rmsd>  (34) 
8.753513118077121

>  <meeko>  (34) 
{"free_energy": -6.08, "intermolecular_energy": -7.57, "internal_energy": -2.37, "cluster_size": 1, "cluster_id": 3, "rank_in_cluster": 1}

>  <energy>  (34) 
-7.93

>  <cluster_rmsd>  (34) 
1.09

>  <cluster>  (34) 
1

$$$$

     RDKit          3D

 45 48  0  0  0  0  0  0  0  0999 V2000
  141.3000   72.7890  222.0690 O   0  0  0  0  0  0  0  0  0  0  0  0
  140.2300   72.5710  222.7060 C   0  0  0  0  0  0  0  0  0  0  0  0
  139.0600   73.3200  222.3490 N   0  0  0  0  0  0  0  0  0  0  0  0
  139.1880   74.2690  221.2840 C   0  0  0  0  0  0  0  0  0  0  0  0
  138.9300   75.6630  221.7320 C   0  0  0  0  0  0  0  0  0  0  0  0
  137.8140   76.0600  222.1540 O   0  0  0  0  0  0  0  0  0  0  0  0
  140.0050   76.5920  221.6770 N   0  0  0  0  0  0  0  0  0  0  0  0
  140.8200   76.7800  220.4900 C   0  0  0  0  0  0  0  0  0  0  0  0
  141.7420   77.9360  220.8180 C   0  0  0  0  0  0  0  0  0  0  0  0
  140.9570   78.6580  221.8930 C   0  0  2  0  0  0  0  0  0  0  0  0
  141.7690   79.5940  222.6810 C   0  0  0  0  0  0  0  0  0  0  0  0
  141.3620   80.6400  223.4220 N   0  0  0  0  0  0  0  0  0  0  0  0
  142.4120   81.2570  223.9960 C   0  0  0  0  0  0  0  0  0  0  0  0
  143.5180   80.5300  223.5680 C   0  0  0  0  0  0  0  0  0  0  0  0
  143.1100   79.5260  222.7720 N   0  0  0  0  0  0  0  0  0  0  0  0
  140.4760   77.4820  222.7200 C   0  0  0  0  0  0  0  0  0  0  0  0
  140.1650   71.5870  223.7840 C   0  0  0  0  0  0  0  0  0  0  0  0
  139.6080   70.3530  223.5080 C   0  0  0  0  0  0  0  0  0  0  0  0
  139.5310   69.3990  224.5030 C   0  0  0  0  0  0  0  0  0  0  0  0
  140.0140   69.6910  225.7690 C   0  0  0  0  0  0  0  0  0  0  0  0
  139.9570   68.7700  226.7890 C   0  0  0  0  0  0  0  0  0  0  0  0
  140.4430   69.0860  228.0330 C   0  0  0  0  0  0  0  0  0  0  0  0
  140.4200   68.2270  229.0890 F   0  0  0  0  0  0  0  0  0  0  0  0
  141.0000   70.3350  228.2890 C   0  0  0  0  0  0  0  0  0  0  0  0
  141.0630   71.2650  227.2770 C   0  0  0  0  0  0  0  0  0  0  0  0
  140.5700   70.9340  226.0310 C   0  0  0  0  0  0  0  0  0  0  0  0
  140.6180   71.8180  225.0250 N   0  0  0  0  0  0  0  0  0  0  0  0
  138.1630   73.1390  222.8810 H   0  0  0  0  0  0  0  0  0  0  0  0
  140.2097   74.2112  220.8804 H   0  0  0  0  0  0  0  0  0  0  0  0
  138.4375   74.0183  220.5198 H   0  0  0  0  0  0  0  0  0  0  0  0
  141.4022   75.8719  220.2744 H   0  0  0  0  0  0  0  0  0  0  0  0
  140.2072   76.9838  219.5995 H   0  0  0  0  0  0  0  0  0  0  0  0
  142.7108   77.5808  221.1990 H   0  0  0  0  0  0  0  0  0  0  0  0
  141.9961   78.5646  219.9518 H   0  0  0  0  0  0  0  0  0  0  0  0
  140.1609   79.3074  221.5000 H   0  0  0  0  0  0  0  0  0  0  0  0
  142.3983   82.1376  224.6550 H   0  0  0  0  0  0  0  0  0  0  0  0
  144.5628   80.7431  223.8384 H   0  0  0  0  0  0  0  0  0  0  0  0
  143.7530   78.8250  222.3130 H   0  0  0  0  0  0  0  0  0  0  0  0
  141.2962   77.0307  223.2976 H   0  0  0  0  0  0  0  0  0  0  0  0
  139.7202   77.7364  223.4777 H   0  0  0  0  0  0  0  0  0  0  0  0
  139.2276   70.1317  222.4999 H   0  0  0  0  0  0  0  0  0  0  0  0
  139.0893   68.4138  224.2925 H   0  0  0  0  0  0  0  0  0  0  0  0
  139.5204   67.7769  226.6071 H   0  0  0  0  0  0  0  0  0  0  0  0
  141.3861   70.5765  229.2903 H   0  0  0  0  0  0  0  0  0  0  0  0
  141.5000   72.2581  227.4583 H   0  0  0  0  0  0  0  0  0  0  0  0
  1  2  2  0
  2  3  1  0
  3  4  1  0
  4  5  1  0
  5  6  2  0
  5  7  1  0
  7  8  1  0
  8  9  1  0
  9 10  1  0
 10 11  1  0
 11 12  2  0
 12 13  1  0
 13 14  2  0
 14 15  1  0
 10 16  1  0
  2 17  1  0
 17 18  2  0
 18 19  1  0
 19 20  2  0
 20 21  1  0
 21 22  2  0
 22 23  1  0
 22 24  1  0
 24 25  2  0
 25 26  1  0
 26 27  2  0
 16  7  1  0
 27 17  1  0
 15 11  1  0
 26 20  1  0
  3 28  1  0
  4 29  1  0
  4 30  1  0
  8 31  1  0
  8 32  1  0
  9 33  1  0
  9 34  1  0
 10 35  1  6
 13 36  1  0
 14 37  1  0
 15 38  1  0
 16 39  1  0
 16 40  1  0
 18 41  1  0
 19 42  1  0
 21 43  1  0
 24 44  1  0
 25 45  1  0
M  END
>  <smiles>  (35) 
O=C(NCC(=O)N1CC[C@H](c2ncc[nH]2)C1)c1ccc2cc(F)ccc2n1

>  <score_type>  (35) 
oracle

>  <origin>  (35) 
autodockgpu

>  <m_score__min__energy>  (35) 
-8.7300000000000004

>  <m_primary>  (35) 
energy

>  <rmsd>  (35) 
2.7802370042940634

>  <m_score__min__rmsd>  (35) 
2.7802370042940634

>  <meeko>  (35) 
{"free_energy": -8.71, "intermolecular_energy": -10.2, "internal_energy": -0.86, "cluster_size": 48, "cluster_id": 1, "rank_in_cluster": 2}

>  <energy>  (35) 
-7.92

>  <cluster_rmsd>  (35) 
1.3

>  <cluster>  (35) 
1

$$$$

     RDKit          3D

 45 48  0  0  0  0  0  0  0  0999 V2000
  141.0700   73.1250  222.3310 O   0  0  0  0  0  0  0  0  0  0  0  0
  139.9930   72.6790  222.8200 C   0  0  0  0  0  0  0  0  0  0  0  0
  138.7530   73.1950  222.3170 N   0  0  0  0  0  0  0  0  0  0  0  0
  138.8240   74.1870  221.2860 C   0  0  0  0  0  0  0  0  0  0  0  0
  138.6540   75.5670  221.8130 C   0  0  0  0  0  0  0  0  0  0  0  0
  137.5770   75.9950  222.3030 O   0  0  0  0  0  0  0  0  0  0  0  0
  139.7710   76.4460  221.7570 N   0  0  0  0  0  0  0  0  0  0  0  0
  140.6960   76.4690  220.6400 C   0  0  0  0  0  0  0  0  0  0  0  0
  141.6370   77.6220  220.9230 C   0  0  0  0  0  0  0  0  0  0  0  0
  140.7910   78.4890  221.8320 C   0  0  2  0  0  0  0  0  0  0  0  0
  141.5700   79.4810  222.5850 C   0  0  0  0  0  0  0  0  0  0  0  0
  141.1250   80.4950  223.3470 N   0  0  0  0  0  0  0  0  0  0  0  0
  142.1540   81.1850  223.8740 C   0  0  0  0  0  0  0  0  0  0  0  0
  143.2880   80.5380  223.3930 C   0  0  0  0  0  0  0  0  0  0  0  0
  142.9160   79.5080  222.6140 N   0  0  0  0  0  0  0  0  0  0  0  0
  140.1860   77.4330  222.7360 C   0  0  0  0  0  0  0  0  0  0  0  0
  139.9890   71.6660  223.8710 C   0  0  0  0  0  0  0  0  0  0  0  0
  139.4300   70.4350  223.5880 C   0  0  0  0  0  0  0  0  0  0  0  0
  139.4090   69.4520  224.5590 C   0  0  0  0  0  0  0  0  0  0  0  0
  139.9490   69.7140  225.8070 C   0  0  0  0  0  0  0  0  0  0  0  0
  139.9500   68.7650  226.8030 C   0  0  0  0  0  0  0  0  0  0  0  0
  140.4920   69.0510  228.0310 C   0  0  0  0  0  0  0  0  0  0  0  0
  140.5280   68.1640  229.0620 F   0  0  0  0  0  0  0  0  0  0  0  0
  141.0500   70.2980  228.2950 C   0  0  0  0  0  0  0  0  0  0  0  0
  141.0560   71.2570  227.3080 C   0  0  0  0  0  0  0  0  0  0  0  0
  140.5070   70.9550  226.0770 C   0  0  0  0  0  0  0  0  0  0  0  0
  140.4980   71.8670  225.0950 N   0  0  0  0  0  0  0  0  0  0  0  0
  137.8490   72.8240  222.7250 H   0  0  0  0  0  0  0  0  0  0  0  0
  139.8053   74.1153  220.7941 H   0  0  0  0  0  0  0  0  0  0  0  0
  138.0032   73.9949  220.5793 H   0  0  0  0  0  0  0  0  0  0  0  0
  141.2533   75.5224  220.5818 H   0  0  0  0  0  0  0  0  0  0  0  0
  140.1751   76.5916  219.6790 H   0  0  0  0  0  0  0  0  0  0  0  0
  142.5504   77.2793  221.4311 H   0  0  0  0  0  0  0  0  0  0  0  0
  141.9972   78.1377  220.0206 H   0  0  0  0  0  0  0  0  0  0  0  0
  140.0632   79.1154  221.2953 H   0  0  0  0  0  0  0  0  0  0  0  0
  142.1085   82.0625  224.5357 H   0  0  0  0  0  0  0  0  0  0  0  0
  144.3264   80.8247  223.6155 H   0  0  0  0  0  0  0  0  0  0  0  0
  143.5850   78.8540  222.1230 H   0  0  0  0  0  0  0  0  0  0  0  0
  140.9302   77.0229  223.4346 H   0  0  0  0  0  0  0  0  0  0  0  0
  139.3779   77.7980  223.3870 H   0  0  0  0  0  0  0  0  0  0  0  0
  139.0032   70.2379  222.5935 H   0  0  0  0  0  0  0  0  0  0  0  0
  138.9665   68.4685  224.3422 H   0  0  0  0  0  0  0  0  0  0  0  0
  139.5145   67.7727  226.6143 H   0  0  0  0  0  0  0  0  0  0  0  0
  141.4821   70.5152  229.2830 H   0  0  0  0  0  0  0  0  0  0  0  0
  141.4915   72.2493  227.4966 H   0  0  0  0  0  0  0  0  0  0  0  0
  1  2  2  0
  2  3  1  0
  3  4  1  0
  4  5  1  0
  5  6  2  0
  5  7  1  0
  7  8  1  0
  8  9  1  0
  9 10  1  0
 10 11  1  0
 11 12  2  0
 12 13  1  0
 13 14  2  0
 14 15  1  0
 10 16  1  0
  2 17  1  0
 17 18  2  0
 18 19  1  0
 19 20  2  0
 20 21  1  0
 21 22  2  0
 22 23  1  0
 22 24  1  0
 24 25  2  0
 25 26  1  0
 26 27  2  0
 16  7  1  0
 27 17  1  0
 15 11  1  0
 26 20  1  0
  3 28  1  0
  4 29  1  0
  4 30  1  0
  8 31  1  0
  8 32  1  0
  9 33  1  0
  9 34  1  0
 10 35  1  6
 13 36  1  0
 14 37  1  0
 15 38  1  0
 16 39  1  0
 16 40  1  0
 18 41  1  0
 19 42  1  0
 21 43  1  0
 24 44  1  0
 25 45  1  0
M  END
>  <smiles>  (36) 
O=C(NCC(=O)N1CC[C@H](c2ncc[nH]2)C1)c1ccc2cc(F)ccc2n1

>  <score_type>  (36) 
oracle

>  <origin>  (36) 
autodockgpu

>  <m_score__min__energy>  (36) 
-8.7300000000000004

>  <m_primary>  (36) 
energy

>  <rmsd>  (36) 
2.742147594804995

>  <m_score__min__rmsd>  (36) 
2.742147594804995

>  <meeko>  (36) 
{"free_energy": -8.52, "intermolecular_energy": -10.01, "internal_energy": -0.89, "cluster_size": 48, "cluster_id": 1, "rank_in_cluster": 9}

>  <energy>  (36) 
-7.91

>  <cluster_rmsd>  (36) 
1.11

>  <cluster>  (36) 
1

$$$$

     RDKit          3D

 45 48  0  0  0  0  0  0  0  0999 V2000
  141.3410   72.2350  221.4950 O   0  0  0  0  0  0  0  0  0  0  0  0
  140.3890   72.4100  222.3080 C   0  0  0  0  0  0  0  0  0  0  0  0
  139.4700   73.4830  222.0600 N   0  0  0  0  0  0  0  0  0  0  0  0
  139.6980   74.2870  220.8970 C   0  0  0  0  0  0  0  0  0  0  0  0
  140.8340   75.2310  221.0720 C   0  0  0  0  0  0  0  0  0  0  0  0
  142.0210   74.9510  220.7640 O   0  0  0  0  0  0  0  0  0  0  0  0
  140.5580   76.5140  221.6170 N   0  0  0  0  0  0  0  0  0  0  0  0
  139.2790   76.8560  222.2110 C   0  0  0  0  0  0  0  0  0  0  0  0
  139.4600   78.2500  222.7750 C   0  0  0  0  0  0  0  0  0  0  0  0
  140.9600   78.3050  222.9780 C   0  0  2  0  0  0  0  0  0  0  0  0
  141.4790   79.6690  223.1440 C   0  0  0  0  0  0  0  0  0  0  0  0
  142.3050   80.1430  224.0930 N   0  0  0  0  0  0  0  0  0  0  0  0
  142.5500   81.4530  223.9040 C   0  0  0  0  0  0  0  0  0  0  0  0
  141.8190   81.7810  222.7660 C   0  0  0  0  0  0  0  0  0  0  0  0
  141.1760   80.6890  222.3190 N   0  0  0  0  0  0  0  0  0  0  0  0
  141.4370   77.6660  221.6880 C   0  0  0  0  0  0  0  0  0  0  0  0
  140.2120   71.5530  223.4770 C   0  0  0  0  0  0  0  0  0  0  0  0
  139.5220   70.3670  223.3180 C   0  0  0  0  0  0  0  0  0  0  0  0
  139.3360   69.5330  224.4030 C   0  0  0  0  0  0  0  0  0  0  0  0
  139.8440   69.8960  225.6400 C   0  0  0  0  0  0  0  0  0  0  0  0
  139.6810   69.0950  226.7460 C   0  0  0  0  0  0  0  0  0  0  0  0
  140.1960   69.4790  227.9590 C   0  0  0  0  0  0  0  0  0  0  0  0
  140.0740   68.7390  229.0950 F   0  0  0  0  0  0  0  0  0  0  0  0
  140.8870   70.6780  228.0970 C   0  0  0  0  0  0  0  0  0  0  0  0
  141.0560   71.4890  226.9980 C   0  0  0  0  0  0  0  0  0  0  0  0
  140.5340   71.0900  225.7840 C   0  0  0  0  0  0  0  0  0  0  0  0
  140.6830   71.8570  224.6960 N   0  0  0  0  0  0  0  0  0  0  0  0
  138.6720   73.6310  222.7400 H   0  0  0  0  0  0  0  0  0  0  0  0
  139.9177   73.6241  220.0472 H   0  0  0  0  0  0  0  0  0  0  0  0
  138.7912   74.8839  220.7198 H   0  0  0  0  0  0  0  0  0  0  0  0
  138.4860   76.8488  221.4487 H   0  0  0  0  0  0  0  0  0  0  0  0
  138.9814   76.1352  222.9869 H   0  0  0  0  0  0  0  0  0  0  0  0
  139.1230   79.0178  222.0630 H   0  0  0  0  0  0  0  0  0  0  0  0
  138.8778   78.4419  223.6884 H   0  0  0  0  0  0  0  0  0  0  0  0
  141.3004   77.8077  223.8982 H   0  0  0  0  0  0  0  0  0  0  0  0
  143.1846   82.1148  224.5117 H   0  0  0  0  0  0  0  0  0  0  0  0
  141.7745   82.7785  222.3045 H   0  0  0  0  0  0  0  0  0  0  0  0
  140.5500   80.6660  221.4690 H   0  0  0  0  0  0  0  0  0  0  0  0
  141.2965   78.3366  220.8274 H   0  0  0  0  0  0  0  0  0  0  0  0
  142.5098   77.4235  221.6682 H   0  0  0  0  0  0  0  0  0  0  0  0
  139.1225   70.0881  222.3318 H   0  0  0  0  0  0  0  0  0  0  0  0
  138.7880   68.5864  224.2859 H   0  0  0  0  0  0  0  0  0  0  0  0
  139.1361   68.1435  226.6582 H   0  0  0  0  0  0  0  0  0  0  0  0
  141.2943   70.9751  229.0746 H   0  0  0  0  0  0  0  0  0  0  0  0
  141.5992   72.4415  227.0857 H   0  0  0  0  0  0  0  0  0  0  0  0
  1  2  2  0
  2  3  1  0
  3  4  1  0
  4  5  1  0
  5  6  2  0
  5  7  1  0
  7  8  1  0
  8  9  1  0
  9 10  1  0
 10 11  1  0
 11 12  2  0
 12 13  1  0
 13 14  2  0
 14 15  1  0
 10 16  1  0
  2 17  1  0
 17 18  2  0
 18 19  1  0
 19 20  2  0
 20 21  1  0
 21 22  2  0
 22 23  1  0
 22 24  1  0
 24 25  2  0
 25 26  1  0
 26 27  2  0
 16  7  1  0
 27 17  1  0
 15 11  1  0
 26 20  1  0
  3 28  1  0
  4 29  1  0
  4 30  1  0
  8 31  1  0
  8 32  1  0
  9 33  1  0
  9 34  1  0
 10 35  1  1
 13 36  1  0
 14 37  1  0
 15 38  1  0
 16 39  1  0
 16 40  1  0
 18 41  1  0
 19 42  1  0
 21 43  1  0
 24 44  1  0
 25 45  1  0
M  END
>  <smiles>  (37) 
O=C(NCC(=O)N1CC[C@H](c2ncc[nH]2)C1)c1ccc2cc(F)ccc2n1

>  <score_type>  (37) 
oracle

>  <origin>  (37) 
autodockgpu

>  <m_score__min__energy>  (37) 
-8.7300000000000004

>  <m_primary>  (37) 
energy

>  <rmsd>  (37) 
3.1982164314358665

>  <m_score__min__rmsd>  (37) 
3.1982164314358665

>  <meeko>  (37) 
{"free_energy": -8.02, "intermolecular_energy": -9.51, "internal_energy": -0.84, "cluster_size": 48, "cluster_id": 1, "rank_in_cluster": 31}

>  <energy>  (37) 
-7.89

>  <cluster_rmsd>  (37) 
1.06

>  <cluster>  (37) 
1

$$$$

     RDKit          3D

 45 48  0  0  0  0  0  0  0  0999 V2000
  141.3570   72.0960  221.4440 O   0  0  0  0  0  0  0  0  0  0  0  0
  140.4520   72.3440  222.2910 C   0  0  0  0  0  0  0  0  0  0  0  0
  139.6070   73.4820  222.0720 N   0  0  0  0  0  0  0  0  0  0  0  0
  139.8510   74.2640  220.8970 C   0  0  0  0  0  0  0  0  0  0  0  0
  140.9500   75.2480  221.0870 C   0  0  0  0  0  0  0  0  0  0  0  0
  142.1520   75.0070  220.8040 O   0  0  0  0  0  0  0  0  0  0  0  0
  140.6190   76.5250  221.6170 N   0  0  0  0  0  0  0  0  0  0  0  0
  139.3260   76.8200  222.2050 C   0  0  0  0  0  0  0  0  0  0  0  0
  139.4470   78.2260  222.7530 C   0  0  0  0  0  0  0  0  0  0  0  0
  140.9420   78.3450  222.9590 C   0  0  2  0  0  0  0  0  0  0  0  0
  141.4030   79.7320  223.1110 C   0  0  0  0  0  0  0  0  0  0  0  0
  142.1900   80.2550  224.0680 N   0  0  0  0  0  0  0  0  0  0  0  0
  142.3860   81.5700  223.8600 C   0  0  0  0  0  0  0  0  0  0  0  0
  141.6670   81.8490  222.7020 C   0  0  0  0  0  0  0  0  0  0  0  0
  141.0780   80.7240  222.2620 N   0  0  0  0  0  0  0  0  0  0  0  0
  141.4490   77.7130  221.6780 C   0  0  0  0  0  0  0  0  0  0  0  0
  140.2540   71.5060  223.4710 C   0  0  0  0  0  0  0  0  0  0  0  0
  139.5700   70.3150  223.3180 C   0  0  0  0  0  0  0  0  0  0  0  0
  139.3650   69.4980  224.4120 C   0  0  0  0  0  0  0  0  0  0  0  0
  139.8490   69.8820  225.6520 C   0  0  0  0  0  0  0  0  0  0  0  0
  139.6680   69.0990  226.7680 C   0  0  0  0  0  0  0  0  0  0  0  0
  140.1590   69.5030  227.9840 C   0  0  0  0  0  0  0  0  0  0  0  0
  140.0170   68.7820  229.1290 F   0  0  0  0  0  0  0  0  0  0  0  0
  140.8450   70.7060  228.1160 C   0  0  0  0  0  0  0  0  0  0  0  0
  141.0330   71.5000  227.0070 C   0  0  0  0  0  0  0  0  0  0  0  0
  140.5350   71.0800  225.7900 C   0  0  0  0  0  0  0  0  0  0  0  0
  140.7020   71.8300  224.6920 N   0  0  0  0  0  0  0  0  0  0  0  0
  138.8480   73.6920  222.7800 H   0  0  0  0  0  0  0  0  0  0  0  0
  140.1214   73.5876  220.0728 H   0  0  0  0  0  0  0  0  0  0  0  0
  138.9328   74.8268  220.6729 H   0  0  0  0  0  0  0  0  0  0  0  0
  138.5355   76.7708  221.4417 H   0  0  0  0  0  0  0  0  0  0  0  0
  139.0575   76.0964  222.9888 H   0  0  0  0  0  0  0  0  0  0  0  0
  139.0807   78.9710  222.0313 H   0  0  0  0  0  0  0  0  0  0  0  0
  138.8545   78.4043  223.6625 H   0  0  0  0  0  0  0  0  0  0  0  0
  141.3001   77.8719  223.8853 H   0  0  0  0  0  0  0  0  0  0  0  0
  142.9807   82.2672  224.4684 H   0  0  0  0  0  0  0  0  0  0  0  0
  141.5923   82.8358  222.2218 H   0  0  0  0  0  0  0  0  0  0  0  0
  140.4720   80.6620  221.3990 H   0  0  0  0  0  0  0  0  0  0  0  0
  141.2836   78.3680  220.8099 H   0  0  0  0  0  0  0  0  0  0  0  0
  142.5310   77.5151  221.6638 H   0  0  0  0  0  0  0  0  0  0  0  0
  139.1905   70.0191  222.3288 H   0  0  0  0  0  0  0  0  0  0  0  0
  138.8210   68.5485  224.2998 H   0  0  0  0  0  0  0  0  0  0  0  0
  139.1272   68.1447  226.6855 H   0  0  0  0  0  0  0  0  0  0  0  0
  141.2332   71.0196  229.0963 H   0  0  0  0  0  0  0  0  0  0  0  0
  141.5722   72.4552  227.0896 H   0  0  0  0  0  0  0  0  0  0  0  0
  1  2  2  0
  2  3  1  0
  3  4  1  0
  4  5  1  0
  5  6  2  0
  5  7  1  0
  7  8  1  0
  8  9  1  0
  9 10  1  0
 10 11  1  0
 11 12  2  0
 12 13  1  0
 13 14  2  0
 14 15  1  0
 10 16  1  0
  2 17  1  0
 17 18  2  0
 18 19  1  0
 19 20  2  0
 20 21  1  0
 21 22  2  0
 22 23  1  0
 22 24  1  0
 24 25  2  0
 25 26  1  0
 26 27  2  0
 16  7  1  0
 27 17  1  0
 15 11  1  0
 26 20  1  0
  3 28  1  0
  4 29  1  0
  4 30  1  0
  8 31  1  0
  8 32  1  0
  9 33  1  0
  9 34  1  0
 10 35  1  1
 13 36  1  0
 14 37  1  0
 15 38  1  0
 16 39  1  0
 16 40  1  0
 18 41  1  0
 19 42  1  0
 21 43  1  0
 24 44  1  0
 25 45  1  0
M  END
>  <smiles>  (38) 
O=C(NCC(=O)N1CC[C@H](c2ncc[nH]2)C1)c1ccc2cc(F)ccc2n1

>  <score_type>  (38) 
oracle

>  <origin>  (38) 
autodockgpu

>  <m_score__min__energy>  (38) 
-8.7300000000000004

>  <m_primary>  (38) 
energy

>  <rmsd>  (38) 
3.206552577957164

>  <m_score__min__rmsd>  (38) 
3.206552577957164

>  <meeko>  (38) 
{"free_energy": -7.98, "intermolecular_energy": -9.48, "internal_energy": -0.85, "cluster_size": 48, "cluster_id": 1, "rank_in_cluster": 32}

>  <energy>  (38) 
-7.86

>  <cluster_rmsd>  (38) 
1.26

>  <cluster>  (38) 
1

$$$$

     RDKit          3D

 45 48  0  0  0  0  0  0  0  0999 V2000
  139.5750   71.4270  221.1020 O   0  0  0  0  0  0  0  0  0  0  0  0
  139.6210   71.9220  222.2650 C   0  0  0  0  0  0  0  0  0  0  0  0
  139.5690   73.3490  222.3990 N   0  0  0  0  0  0  0  0  0  0  0  0
  139.4670   74.1190  221.1960 C   0  0  0  0  0  0  0  0  0  0  0  0
  139.0990   75.5360  221.4580 C   0  0  0  0  0  0  0  0  0  0  0  0
  137.9190   75.9170  221.6720 O   0  0  0  0  0  0  0  0  0  0  0  0
  140.1380   76.5060  221.4650 N   0  0  0  0  0  0  0  0  0  0  0  0
  141.0040   76.7360  220.3230 C   0  0  0  0  0  0  0  0  0  0  0  0
  141.8630   77.9240  220.7060 C   0  0  0  0  0  0  0  0  0  0  0  0
  140.9960   78.6050  221.7440 C   0  0  2  0  0  0  0  0  0  0  0  0
  141.7290   79.5650  222.5800 C   0  0  0  0  0  0  0  0  0  0  0  0
  141.2430   80.5780  223.3180 N   0  0  0  0  0  0  0  0  0  0  0  0
  142.2380   81.2340  223.9450 C   0  0  0  0  0  0  0  0  0  0  0  0
  143.3940   80.5660  223.5530 C   0  0  0  0  0  0  0  0  0  0  0  0
  143.0670   79.5580  222.7260 N   0  0  0  0  0  0  0  0  0  0  0  0
  140.5200   77.4040  222.5370 C   0  0  0  0  0  0  0  0  0  0  0  0
  139.7240   71.0800  223.4530 C   0  0  0  0  0  0  0  0  0  0  0  0
  139.2990   69.7690  223.3630 C   0  0  0  0  0  0  0  0  0  0  0  0
  139.3820   68.9450  224.4690 C   0  0  0  0  0  0  0  0  0  0  0  0
  139.8930   69.4430  225.6560 C   0  0  0  0  0  0  0  0  0  0  0  0
  139.9950   68.6580  226.7800 C   0  0  0  0  0  0  0  0  0  0  0  0
  140.5050   69.1770  227.9430 C   0  0  0  0  0  0  0  0  0  0  0  0
  140.6350   68.4610  229.0930 F   0  0  0  0  0  0  0  0  0  0  0  0
  140.9280   70.5010  228.0120 C   0  0  0  0  0  0  0  0  0  0  0  0
  140.8320   71.2980  226.8940 C   0  0  0  0  0  0  0  0  0  0  0  0
  140.3170   70.7620  225.7310 C   0  0  0  0  0  0  0  0  0  0  0  0
  140.2110   71.5130  224.6260 N   0  0  0  0  0  0  0  0  0  0  0  0
  139.6070   73.7660  223.3720 H   0  0  0  0  0  0  0  0  0  0  0  0
  140.4376   74.0961  220.6788 H   0  0  0  0  0  0  0  0  0  0  0  0
  138.6710   73.6746  220.5804 H   0  0  0  0  0  0  0  0  0  0  0  0
  141.6311   75.8529  220.1309 H   0  0  0  0  0  0  0  0  0  0  0  0
  140.4297   76.9243  219.4039 H   0  0  0  0  0  0  0  0  0  0  0  0
  142.8241   77.6030  221.1339 H   0  0  0  0  0  0  0  0  0  0  0  0
  142.1370   78.5697  219.8586 H   0  0  0  0  0  0  0  0  0  0  0  0
  140.1962   79.2263  221.3146 H   0  0  0  0  0  0  0  0  0  0  0  0
  142.1555   82.1020  224.6157 H   0  0  0  0  0  0  0  0  0  0  0  0
  144.4155   80.8226  223.8702 H   0  0  0  0  0  0  0  0  0  0  0  0
  143.7610   78.8960  222.2840 H   0  0  0  0  0  0  0  0  0  0  0  0
  141.3267   76.9796  223.1527 H   0  0  0  0  0  0  0  0  0  0  0  0
  139.7173   77.6221  223.2568 H   0  0  0  0  0  0  0  0  0  0  0  0
  138.8962   69.3826  222.4151 H   0  0  0  0  0  0  0  0  0  0  0  0
  139.0443   67.8999  224.4071 H   0  0  0  0  0  0  0  0  0  0  0  0
  139.6661   67.6088  226.7467 H   0  0  0  0  0  0  0  0  0  0  0  0
  141.3348   70.9063  228.9502 H   0  0  0  0  0  0  0  0  0  0  0  0
  141.1610   72.3471  226.9269 H   0  0  0  0  0  0  0  0  0  0  0  0
  1  2  2  0
  2  3  1  0
  3  4  1  0
  4  5  1  0
  5  6  2  0
  5  7  1  0
  7  8  1  0
  8  9  1  0
  9 10  1  0
 10 11  1  0
 11 12  2  0
 12 13  1  0
 13 14  2  0
 14 15  1  0
 10 16  1  0
  2 17  1  0
 17 18  2  0
 18 19  1  0
 19 20  2  0
 20 21  1  0
 21 22  2  0
 22 23  1  0
 22 24  1  0
 24 25  2  0
 25 26  1  0
 26 27  2  0
 16  7  1  0
 27 17  1  0
 15 11  1  0
 26 20  1  0
  3 28  1  0
  4 29  1  0
  4 30  1  0
  8 31  1  0
  8 32  1  0
  9 33  1  0
  9 34  1  0
 10 35  1  6
 13 36  1  0
 14 37  1  0
 15 38  1  0
 16 39  1  0
 16 40  1  0
 18 41  1  0
 19 42  1  0
 21 43  1  0
 24 44  1  0
 25 45  1  0
M  END
>  <smiles>  (39) 
O=C(NCC(=O)N1CC[C@H](c2ncc[nH]2)C1)c1ccc2cc(F)ccc2n1

>  <score_type>  (39) 
oracle

>  <origin>  (39) 
autodockgpu

>  <m_score__min__energy>  (39) 
-8.7300000000000004

>  <m_primary>  (39) 
energy

>  <rmsd>  (39) 
2.6109056548356797

>  <m_score__min__rmsd>  (39) 
2.6109056548356797

>  <meeko>  (39) 
{"free_energy": -8.34, "intermolecular_energy": -9.83, "internal_energy": -0.94, "cluster_size": 48, "cluster_id": 1, "rank_in_cluster": 21}

>  <energy>  (39) 
-7.85

>  <cluster_rmsd>  (39) 
1.2

>  <cluster>  (39) 
1

$$$$

     RDKit          3D

 45 48  0  0  0  0  0  0  0  0999 V2000
  141.1050   73.0610  222.2570 O   0  0  0  0  0  0  0  0  0  0  0  0
  140.0340   72.6530  222.7900 C   0  0  0  0  0  0  0  0  0  0  0  0
  138.7940   73.2190  222.3450 N   0  0  0  0  0  0  0  0  0  0  0  0
  138.8580   74.2160  221.3170 C   0  0  0  0  0  0  0  0  0  0  0  0
  138.6920   75.5930  221.8510 C   0  0  0  0  0  0  0  0  0  0  0  0
  137.6300   76.0060  222.3840 O   0  0  0  0  0  0  0  0  0  0  0  0
  139.7930   76.4870  221.7500 N   0  0  0  0  0  0  0  0  0  0  0  0
  140.6560   76.5400  220.5850 C   0  0  0  0  0  0  0  0  0  0  0  0
  141.5970   77.7000  220.8370 C   0  0  0  0  0  0  0  0  0  0  0  0
  140.7920   78.5410  221.8050 C   0  0  2  0  0  0  0  0  0  0  0  0
  141.5990   79.5290  222.5330 C   0  0  0  0  0  0  0  0  0  0  0  0
  141.2010   80.6740  223.1140 N   0  0  0  0  0  0  0  0  0  0  0  0
  142.2430   81.3100  223.6830 C   0  0  0  0  0  0  0  0  0  0  0  0
  143.3340   80.4880  223.4230 C   0  0  0  0  0  0  0  0  0  0  0  0
  142.9270   79.4140  222.7250 N   0  0  0  0  0  0  0  0  0  0  0  0
  140.2490   77.4620  222.7220 C   0  0  0  0  0  0  0  0  0  0  0  0
  140.0360   71.6320  223.8340 C   0  0  0  0  0  0  0  0  0  0  0  0
  139.5190   70.3880  223.5310 C   0  0  0  0  0  0  0  0  0  0  0  0
  139.5060   69.3980  224.4960 C   0  0  0  0  0  0  0  0  0  0  0  0
  140.0110   69.6670  225.7570 C   0  0  0  0  0  0  0  0  0  0  0  0
  140.0170   68.7120  226.7470 C   0  0  0  0  0  0  0  0  0  0  0  0
  140.5250   69.0050  227.9870 C   0  0  0  0  0  0  0  0  0  0  0  0
  140.5640   68.1120  229.0140 F   0  0  0  0  0  0  0  0  0  0  0  0
  141.0400   70.2650  228.2710 C   0  0  0  0  0  0  0  0  0  0  0  0
  141.0400   71.2300  227.2900 C   0  0  0  0  0  0  0  0  0  0  0  0
  140.5270   70.9220  226.0470 C   0  0  0  0  0  0  0  0  0  0  0  0
  140.5130   71.8400  225.0700 N   0  0  0  0  0  0  0  0  0  0  0  0
  137.8950   72.8800  222.7890 H   0  0  0  0  0  0  0  0  0  0  0  0
  139.8358   74.1463  220.8179 H   0  0  0  0  0  0  0  0  0  0  0  0
  138.0323   74.0270  220.6152 H   0  0  0  0  0  0  0  0  0  0  0  0
  141.2205   75.6017  220.4807 H   0  0  0  0  0  0  0  0  0  0  0  0
  140.0826   76.6716  219.6555 H   0  0  0  0  0  0  0  0  0  0  0  0
  142.5406   77.3604  221.2891 H   0  0  0  0  0  0  0  0  0  0  0  0
  141.9013   78.2352  219.9255 H   0  0  0  0  0  0  0  0  0  0  0  0
  140.0297   79.1676  221.3190 H   0  0  0  0  0  0  0  0  0  0  0  0
  142.2332   82.2643  224.2300 H   0  0  0  0  0  0  0  0  0  0  0  0
  144.3688   80.6859  223.7393 H   0  0  0  0  0  0  0  0  0  0  0  0
  143.5600   78.6340  222.3990 H   0  0  0  0  0  0  0  0  0  0  0  0
  141.0347   77.0494  223.3720 H   0  0  0  0  0  0  0  0  0  0  0  0
  139.4733   77.8058  223.4221 H   0  0  0  0  0  0  0  0  0  0  0  0
  139.1193   70.1856  222.5264 H   0  0  0  0  0  0  0  0  0  0  0  0
  139.0973   68.4035  224.2637 H   0  0  0  0  0  0  0  0  0  0  0  0
  139.6128   67.7094  226.5435 H   0  0  0  0  0  0  0  0  0  0  0  0
  141.4433   70.4881  229.2698 H   0  0  0  0  0  0  0  0  0  0  0  0
  141.4433   72.2328  227.4941 H   0  0  0  0  0  0  0  0  0  0  0  0
  1  2  2  0
  2  3  1  0
  3  4  1  0
  4  5  1  0
  5  6  2  0
  5  7  1  0
  7  8  1  0
  8  9  1  0
  9 10  1  0
 10 11  1  0
 11 12  2  0
 12 13  1  0
 13 14  2  0
 14 15  1  0
 10 16  1  0
  2 17  1  0
 17 18  2  0
 18 19  1  0
 19 20  2  0
 20 21  1  0
 21 22  2  0
 22 23  1  0
 22 24  1  0
 24 25  2  0
 25 26  1  0
 26 27  2  0
 16  7  1  0
 27 17  1  0
 15 11  1  0
 26 20  1  0
  3 28  1  0
  4 29  1  0
  4 30  1  0
  8 31  1  0
  8 32  1  0
  9 33  1  0
  9 34  1  0
 10 35  1  6
 13 36  1  0
 14 37  1  0
 15 38  1  0
 16 39  1  0
 16 40  1  0
 18 41  1  0
 19 42  1  0
 21 43  1  0
 24 44  1  0
 25 45  1  0
M  END
>  <smiles>  (40) 
O=C(NCC(=O)N1CC[C@H](c2ncc[nH]2)C1)c1ccc2cc(F)ccc2n1

>  <score_type>  (40) 
oracle

>  <origin>  (40) 
autodockgpu

>  <m_score__min__energy>  (40) 
-8.7300000000000004

>  <m_primary>  (40) 
energy

>  <rmsd>  (40) 
2.7328796347986195

>  <m_score__min__rmsd>  (40) 
2.7328796347986195

>  <meeko>  (40) 
{"free_energy": -8.6, "intermolecular_energy": -10.09, "internal_energy": -0.89, "cluster_size": 48, "cluster_id": 1, "rank_in_cluster": 4}

>  <energy>  (40) 
-7.85

>  <cluster_rmsd>  (40) 
1.19

>  <cluster>  (40) 
1

$$$$

     RDKit          3D

 45 48  0  0  0  0  0  0  0  0999 V2000
  139.6730   71.4930  221.1440 O   0  0  0  0  0  0  0  0  0  0  0  0
  139.6690   71.9690  222.3160 C   0  0  0  0  0  0  0  0  0  0  0  0
  139.5840   73.3920  222.4720 N   0  0  0  0  0  0  0  0  0  0  0  0
  139.5080   74.1800  221.2780 C   0  0  0  0  0  0  0  0  0  0  0  0
  138.6820   75.4030  221.4560 C   0  0  0  0  0  0  0  0  0  0  0  0
  137.4410   75.3780  221.6610 O   0  0  0  0  0  0  0  0  0  0  0  0
  139.3330   76.6650  221.3900 N   0  0  0  0  0  0  0  0  0  0  0  0
  138.9230   77.7130  220.4740 C   0  0  0  0  0  0  0  0  0  0  0  0
  139.7820   78.9100  220.8240 C   0  0  0  0  0  0  0  0  0  0  0  0
  140.1450   78.6140  222.2650 C   0  0  2  0  0  0  0  0  0  0  0  0
  141.2890   79.3950  222.7520 C   0  0  0  0  0  0  0  0  0  0  0  0
  142.5860   79.2810  222.4180 N   0  0  0  0  0  0  0  0  0  0  0  0
  143.3330   80.1820  223.0840 C   0  0  0  0  0  0  0  0  0  0  0  0
  142.4190   80.8790  223.8670 C   0  0  0  0  0  0  0  0  0  0  0  0
  141.1850   80.3890  223.6540 N   0  0  0  0  0  0  0  0  0  0  0  0
  140.4620   77.1340  222.1710 C   0  0  0  0  0  0  0  0  0  0  0  0
  139.7480   71.1090  223.4940 C   0  0  0  0  0  0  0  0  0  0  0  0
  139.2950   69.8090  223.3840 C   0  0  0  0  0  0  0  0  0  0  0  0
  139.3560   68.9680  224.4790 C   0  0  0  0  0  0  0  0  0  0  0  0
  139.8700   69.4400  225.6750 C   0  0  0  0  0  0  0  0  0  0  0  0
  139.9490   68.6380  226.7900 C   0  0  0  0  0  0  0  0  0  0  0  0
  140.4640   69.1310  227.9620 C   0  0  0  0  0  0  0  0  0  0  0  0
  140.5720   68.3970  229.1030 F   0  0  0  0  0  0  0  0  0  0  0  0
  140.9140   70.4440  228.0500 C   0  0  0  0  0  0  0  0  0  0  0  0
  140.8410   71.2580  226.9430 C   0  0  0  0  0  0  0  0  0  0  0  0
  140.3210   70.7490  225.7700 C   0  0  0  0  0  0  0  0  0  0  0  0
  140.2370   71.5160  224.6740 N   0  0  0  0  0  0  0  0  0  0  0  0
  139.5800   73.7930  223.4510 H   0  0  0  0  0  0  0  0  0  0  0  0
  140.5257   74.4805  220.9880 H   0  0  0  0  0  0  0  0  0  0  0  0
  139.0316   73.5646  220.5006 H   0  0  0  0  0  0  0  0  0  0  0  0
  139.0982   77.4046  219.4328 H   0  0  0  0  0  0  0  0  0  0  0  0
  137.8501   77.9386  220.5635 H   0  0  0  0  0  0  0  0  0  0  0  0
  140.6773   78.9615  220.1870 H   0  0  0  0  0  0  0  0  0  0  0  0
  139.2806   79.8783  220.6788 H   0  0  0  0  0  0  0  0  0  0  0  0
  139.3550   78.8764  222.9840 H   0  0  0  0  0  0  0  0  0  0  0  0
  144.4209   80.3327  223.0226 H   0  0  0  0  0  0  0  0  0  0  0  0
  142.6668   81.7023  224.5532 H   0  0  0  0  0  0  0  0  0  0  0  0
  140.3090   80.7420  224.1270 H   0  0  0  0  0  0  0  0  0  0  0  0
  141.4154   76.9561  221.6521 H   0  0  0  0  0  0  0  0  0  0  0  0
  140.5854   76.6314  223.1417 H   0  0  0  0  0  0  0  0  0  0  0  0
  138.8876   69.4447  222.4294 H   0  0  0  0  0  0  0  0  0  0  0  0
  138.9986   67.9306  224.4010 H   0  0  0  0  0  0  0  0  0  0  0  0
  139.5976   67.5968  226.7415 H   0  0  0  0  0  0  0  0  0  0  0  0
  141.3244   70.8281  228.9956 H   0  0  0  0  0  0  0  0  0  0  0  0
  141.1920   72.2994  226.9921 H   0  0  0  0  0  0  0  0  0  0  0  0
  1  2  2  0
  2  3  1  0
  3  4  1  0
  4  5  1  0
  5  6  2  0
  5  7  1  0
  7  8  1  0
  8  9  1  0
  9 10  1  0
 10 11  1  0
 11 12  2  0
 12 13  1  0
 13 14  2  0
 14 15  1  0
 10 16  1  0
  2 17  1  0
 17 18  2  0
 18 19  1  0
 19 20  2  0
 20 21  1  0
 21 22  2  0
 22 23  1  0
 22 24  1  0
 24 25  2  0
 25 26  1  0
 26 27  2  0
 16  7  1  0
 27 17  1  0
 15 11  1  0
 26 20  1  0
  3 28  1  0
  4 29  1  0
  4 30  1  0
  8 31  1  0
  8 32  1  0
  9 33  1  0
  9 34  1  0
 10 35  1  1
 13 36  1  0
 14 37  1  0
 15 38  1  0
 16 39  1  0
 16 40  1  0
 18 41  1  0
 19 42  1  0
 21 43  1  0
 24 44  1  0
 25 45  1  0
M  END
>  <smiles>  (41) 
O=C(NCC(=O)N1CC[C@H](c2ncc[nH]2)C1)c1ccc2cc(F)ccc2n1

>  <score_type>  (41) 
oracle

>  <origin>  (41) 
autodockgpu

>  <m_score__min__energy>  (41) 
-8.7300000000000004

>  <m_primary>  (41) 
energy

>  <rmsd>  (41) 
2.763024143367568

>  <m_score__min__rmsd>  (41) 
2.763024143367568

>  <meeko>  (41) 
{"free_energy": -7.29, "intermolecular_energy": -8.78, "internal_energy": -0.93, "cluster_size": 48, "cluster_id": 1, "rank_in_cluster": 48}

>  <energy>  (41) 
-7.84

>  <cluster_rmsd>  (41) 
1.26

>  <cluster>  (41) 
1

$$$$

     RDKit          3D

 45 48  0  0  0  0  0  0  0  0999 V2000
  138.9650   71.0520  221.4710 O   0  0  0  0  0  0  0  0  0  0  0  0
  139.3320   71.5340  222.5810 C   0  0  0  0  0  0  0  0  0  0  0  0
  139.5500   72.9490  222.6690 N   0  0  0  0  0  0  0  0  0  0  0  0
  139.3330   73.7220  221.4830 C   0  0  0  0  0  0  0  0  0  0  0  0
  140.5980   74.0160  220.7570 C   0  0  0  0  0  0  0  0  0  0  0  0
  141.2000   73.1720  220.0450 O   0  0  0  0  0  0  0  0  0  0  0  0
  141.1510   75.3200  220.8800 N   0  0  0  0  0  0  0  0  0  0  0  0
  141.9050   75.9550  219.8150 C   0  0  0  0  0  0  0  0  0  0  0  0
  142.1870   77.3590  220.3080 C   0  0  0  0  0  0  0  0  0  0  0  0
  141.0680   77.5630  221.3070 C   0  0  2  0  0  0  0  0  0  0  0  0
  141.3060   78.6780  222.2330 C   0  0  0  0  0  0  0  0  0  0  0  0
  140.4820   79.1830  223.1680 N   0  0  0  0  0  0  0  0  0  0  0  0
  141.0650   80.2080  223.8170 C   0  0  0  0  0  0  0  0  0  0  0  0
  142.3210   80.3210  223.2280 C   0  0  0  0  0  0  0  0  0  0  0  0
  142.4500   79.3860  222.2710 N   0  0  0  0  0  0  0  0  0  0  0  0
  141.0820   76.2210  222.0140 C   0  0  0  0  0  0  0  0  0  0  0  0
  139.5350   70.6900  223.7550 C   0  0  0  0  0  0  0  0  0  0  0  0
  139.1270   69.3730  223.6900 C   0  0  0  0  0  0  0  0  0  0  0  0
  139.3040   68.5460  224.7820 C   0  0  0  0  0  0  0  0  0  0  0  0
  139.8900   69.0490  225.9320 C   0  0  0  0  0  0  0  0  0  0  0  0
  140.0860   68.2620  227.0430 C   0  0  0  0  0  0  0  0  0  0  0  0
  140.6690   68.7860  228.1690 C   0  0  0  0  0  0  0  0  0  0  0  0
  140.8940   68.0680  229.3030 F   0  0  0  0  0  0  0  0  0  0  0  0
  141.0730   70.1170  228.2130 C   0  0  0  0  0  0  0  0  0  0  0  0
  140.8830   70.9160  227.1090 C   0  0  0  0  0  0  0  0  0  0  0  0
  140.2950   70.3750  225.9830 C   0  0  0  0  0  0  0  0  0  0  0  0
  140.0970   71.1270  224.8920 N   0  0  0  0  0  0  0  0  0  0  0  0
  139.8580   73.3560  223.5970 H   0  0  0  0  0  0  0  0  0  0  0  0
  138.6639   73.1614  220.8137 H   0  0  0  0  0  0  0  0  0  0  0  0
  138.8895   74.6821  221.7855 H   0  0  0  0  0  0  0  0  0  0  0  0
  142.8455   75.4142  219.6332 H   0  0  0  0  0  0  0  0  0  0  0  0
  141.3507   75.9573  218.8649 H   0  0  0  0  0  0  0  0  0  0  0  0
  143.1730   77.4240  220.7913 H   0  0  0  0  0  0  0  0  0  0  0  0
  142.2169   78.1153  219.5098 H   0  0  0  0  0  0  0  0  0  0  0  0
  140.1076   77.8376  220.8464 H   0  0  0  0  0  0  0  0  0  0  0  0
  140.6439   80.8185  224.6294 H   0  0  0  0  0  0  0  0  0  0  0  0
  143.0881   81.0599  223.5027 H   0  0  0  0  0  0  0  0  0  0  0  0
  143.3090   79.2560  221.6700 H   0  0  0  0  0  0  0  0  0  0  0  0
  141.9600   76.1168  222.6684 H   0  0  0  0  0  0  0  0  0  0  0  0
  140.2258   76.0484  222.6826 H   0  0  0  0  0  0  0  0  0  0  0  0
  138.6626   68.9835  222.7720 H   0  0  0  0  0  0  0  0  0  0  0  0
  138.9818   67.4951  224.7388 H   0  0  0  0  0  0  0  0  0  0  0  0
  139.7738   67.2073  227.0286 H   0  0  0  0  0  0  0  0  0  0  0  0
  141.5395   70.5262  229.1212 H   0  0  0  0  0  0  0  0  0  0  0  0
  141.1951   71.9707  227.1233 H   0  0  0  0  0  0  0  0  0  0  0  0
  1  2  2  0
  2  3  1  0
  3  4  1  0
  4  5  1  0
  5  6  2  0
  5  7  1  0
  7  8  1  0
  8  9  1  0
  9 10  1  0
 10 11  1  0
 11 12  2  0
 12 13  1  0
 13 14  2  0
 14 15  1  0
 10 16  1  0
  2 17  1  0
 17 18  2  0
 18 19  1  0
 19 20  2  0
 20 21  1  0
 21 22  2  0
 22 23  1  0
 22 24  1  0
 24 25  2  0
 25 26  1  0
 26 27  2  0
 16  7  1  0
 27 17  1  0
 15 11  1  0
 26 20  1  0
  3 28  1  0
  4 29  1  0
  4 30  1  0
  8 31  1  0
  8 32  1  0
  9 33  1  0
  9 34  1  0
 10 35  1  6
 13 36  1  0
 14 37  1  0
 15 38  1  0
 16 39  1  0
 16 40  1  0
 18 41  1  0
 19 42  1  0
 21 43  1  0
 24 44  1  0
 25 45  1  0
M  END
>  <smiles>  (42) 
O=C(NCC(=O)N1CC[C@H](c2ncc[nH]2)C1)c1ccc2cc(F)ccc2n1

>  <score_type>  (42) 
oracle

>  <origin>  (42) 
autodockgpu

>  <m_score__min__energy>  (42) 
-8.7300000000000004

>  <m_primary>  (42) 
energy

>  <rmsd>  (42) 
2.311902666376179

>  <m_score__min__rmsd>  (42) 
2.311902666376179

>  <meeko>  (42) 
{"free_energy": -7.84, "intermolecular_energy": -9.33, "internal_energy": -1.0, "cluster_size": 48, "cluster_id": 1, "rank_in_cluster": 41}

>  <energy>  (42) 
-7.83

>  <cluster_rmsd>  (42) 
1.33

>  <cluster>  (42) 
1

$$$$

     RDKit          3D

 45 48  0  0  0  0  0  0  0  0999 V2000
  138.8250   71.2660  221.1740 O   0  0  0  0  0  0  0  0  0  0  0  0
  139.1490   71.8080  222.2690 C   0  0  0  0  0  0  0  0  0  0  0  0
  139.2630   73.2370  222.3130 N   0  0  0  0  0  0  0  0  0  0  0  0
  138.9980   73.9550  221.1020 C   0  0  0  0  0  0  0  0  0  0  0  0
  140.0950   74.8950  220.7470 C   0  0  0  0  0  0  0  0  0  0  0  0
  141.0460   74.5930  219.9820 O   0  0  0  0  0  0  0  0  0  0  0  0
  140.0610   76.2020  221.3050 N   0  0  0  0  0  0  0  0  0  0  0  0
  138.8390   76.8180  221.7870 C   0  0  0  0  0  0  0  0  0  0  0  0
  139.2700   78.1290  222.4110 C   0  0  0  0  0  0  0  0  0  0  0  0
  140.7170   77.8410  222.7560 C   0  0  2  0  0  0  0  0  0  0  0  0
  141.5080   79.0510  223.0140 C   0  0  0  0  0  0  0  0  0  0  0  0
  141.3150   79.9960  223.9500 N   0  0  0  0  0  0  0  0  0  0  0  0
  142.2590   80.9530  223.8660 C   0  0  0  0  0  0  0  0  0  0  0  0
  143.0680   80.5500  222.8080 C   0  0  0  0  0  0  0  0  0  0  0  0
  142.5990   79.3960  222.3040 N   0  0  0  0  0  0  0  0  0  0  0  0
  141.1630   77.1250  221.4960 C   0  0  0  0  0  0  0  0  0  0  0  0
  139.4060   71.0190  223.4710 C   0  0  0  0  0  0  0  0  0  0  0  0
  139.0670   69.6800  223.4550 C   0  0  0  0  0  0  0  0  0  0  0  0
  139.2960   68.9030  224.5750 C   0  0  0  0  0  0  0  0  0  0  0  0
  139.8630   69.4770  225.7010 C   0  0  0  0  0  0  0  0  0  0  0  0
  140.1090   68.7410  226.8370 C   0  0  0  0  0  0  0  0  0  0  0  0
  140.6720   69.3360  227.9380 C   0  0  0  0  0  0  0  0  0  0  0  0
  140.9430   68.6720  229.0940 F   0  0  0  0  0  0  0  0  0  0  0  0
  141.0050   70.6860  227.9310 C   0  0  0  0  0  0  0  0  0  0  0  0
  140.7650   71.4340  226.8010 C   0  0  0  0  0  0  0  0  0  0  0  0
  140.1980   70.8240  225.7010 C   0  0  0  0  0  0  0  0  0  0  0  0
  139.9520   71.5250  224.5860 N   0  0  0  0  0  0  0  0  0  0  0  0
  139.5350   73.6940  223.2280 H   0  0  0  0  0  0  0  0  0  0  0  0
  138.8739   73.2316  220.2826 H   0  0  0  0  0  0  0  0  0  0  0  0
  138.0854   74.5490  221.2578 H   0  0  0  0  0  0  0  0  0  0  0  0
  138.1440   76.9983  220.9537 H   0  0  0  0  0  0  0  0  0  0  0  0
  138.3127   76.1748  222.5077 H   0  0  0  0  0  0  0  0  0  0  0  0
  139.1857   78.9607  221.6961 H   0  0  0  0  0  0  0  0  0  0  0  0
  138.6578   78.4379  223.2711 H   0  0  0  0  0  0  0  0  0  0  0  0
  140.8459   77.2696  223.6871 H   0  0  0  0  0  0  0  0  0  0  0  0
  142.3663   81.8508  224.4925 H   0  0  0  0  0  0  0  0  0  0  0  0
  143.9528   81.0913  222.4416 H   0  0  0  0  0  0  0  0  0  0  0  0
  143.0310   78.8760  221.4920 H   0  0  0  0  0  0  0  0  0  0  0  0
  141.2611   77.8195  220.6486 H   0  0  0  0  0  0  0  0  0  0  0  0
  142.1509   76.6468  221.5688 H   0  0  0  0  0  0  0  0  0  0  0  0
  138.6171   69.2343  222.5556 H   0  0  0  0  0  0  0  0  0  0  0  0
  139.0297   67.8357  224.5722 H   0  0  0  0  0  0  0  0  0  0  0  0
  139.8534   67.6714  226.8629 H   0  0  0  0  0  0  0  0  0  0  0  0
  141.4558   71.1515  228.8199 H   0  0  0  0  0  0  0  0  0  0  0  0
  141.0217   72.5033  226.7752 H   0  0  0  0  0  0  0  0  0  0  0  0
  1  2  2  0
  2  3  1  0
  3  4  1  0
  4  5  1  0
  5  6  2  0
  5  7  1  0
  7  8  1  0
  8  9  1  0
  9 10  1  0
 10 11  1  0
 11 12  2  0
 12 13  1  0
 13 14  2  0
 14 15  1  0
 10 16  1  0
  2 17  1  0
 17 18  2  0
 18 19  1  0
 19 20  2  0
 20 21  1  0
 21 22  2  0
 22 23  1  0
 22 24  1  0
 24 25  2  0
 25 26  1  0
 26 27  2  0
 16  7  1  0
 27 17  1  0
 15 11  1  0
 26 20  1  0
  3 28  1  0
  4 29  1  0
  4 30  1  0
  8 31  1  0
  8 32  1  0
  9 33  1  0
  9 34  1  0
 10 35  1  1
 13 36  1  0
 14 37  1  0
 15 38  1  0
 16 39  1  0
 16 40  1  0
 18 41  1  0
 19 42  1  0
 21 43  1  0
 24 44  1  0
 25 45  1  0
M  END
>  <smiles>  (43) 
O=C(NCC(=O)N1CC[C@H](c2ncc[nH]2)C1)c1ccc2cc(F)ccc2n1

>  <score_type>  (43) 
oracle

>  <origin>  (43) 
autodockgpu

>  <m_score__min__energy>  (43) 
-8.7300000000000004

>  <m_primary>  (43) 
energy

>  <rmsd>  (43) 
2.878349719071241

>  <m_score__min__rmsd>  (43) 
2.878349719071241

>  <meeko>  (43) 
{"free_energy": -8.12, "intermolecular_energy": -9.61, "internal_energy": -1.0, "cluster_size": 48, "cluster_id": 1, "rank_in_cluster": 29}

>  <energy>  (43) 
-7.83

>  <cluster_rmsd>  (43) 
1.12

>  <cluster>  (43) 
1

$$$$

     RDKit          3D

 45 48  0  0  0  0  0  0  0  0999 V2000
  139.6640   71.1000  221.1530 O   0  0  0  0  0  0  0  0  0  0  0  0
  139.5510   71.5910  222.3120 C   0  0  0  0  0  0  0  0  0  0  0  0
  139.3260   73.0030  222.4340 N   0  0  0  0  0  0  0  0  0  0  0  0
  139.2440   73.7620  221.2220 C   0  0  0  0  0  0  0  0  0  0  0  0
  140.5820   74.0500  220.6410 C   0  0  0  0  0  0  0  0  0  0  0  0
  141.2680   73.1950  220.0240 O   0  0  0  0  0  0  0  0  0  0  0  0
  141.1090   75.3620  220.7940 N   0  0  0  0  0  0  0  0  0  0  0  0
  141.8020   76.0580  219.7270 C   0  0  0  0  0  0  0  0  0  0  0  0
  142.0710   77.4480  220.2650 C   0  0  0  0  0  0  0  0  0  0  0  0
  140.9890   77.5830  221.3170 C   0  0  2  0  0  0  0  0  0  0  0  0
  141.2390   78.6660  222.2770 C   0  0  0  0  0  0  0  0  0  0  0  0
  140.3710   79.2660  223.1100 N   0  0  0  0  0  0  0  0  0  0  0  0
  140.9850   80.2180  223.8370 C   0  0  0  0  0  0  0  0  0  0  0  0
  142.3070   80.1830  223.4070 C   0  0  0  0  0  0  0  0  0  0  0  0
  142.4440   79.2370  222.4630 N   0  0  0  0  0  0  0  0  0  0  0  0
  141.0650   76.2150  221.9660 C   0  0  0  0  0  0  0  0  0  0  0  0
  139.6440   70.7610  223.5100 C   0  0  0  0  0  0  0  0  0  0  0  0
  139.1330   69.4790  223.4560 C   0  0  0  0  0  0  0  0  0  0  0  0
  139.2050   68.6660  224.5710 C   0  0  0  0  0  0  0  0  0  0  0  0
  139.7890   69.1480  225.7320 C   0  0  0  0  0  0  0  0  0  0  0  0
  139.8820   68.3730  226.8640 C   0  0  0  0  0  0  0  0  0  0  0  0
  140.4660   68.8750  228.0000 C   0  0  0  0  0  0  0  0  0  0  0  0
  140.5920   68.1680  229.1560 F   0  0  0  0  0  0  0  0  0  0  0  0
  140.9740   70.1700  228.0320 C   0  0  0  0  0  0  0  0  0  0  0  0
  140.8880   70.9560  226.9060 C   0  0  0  0  0  0  0  0  0  0  0  0
  140.2980   70.4380  225.7700 C   0  0  0  0  0  0  0  0  0  0  0  0
  140.2000   71.1780  224.6570 N   0  0  0  0  0  0  0  0  0  0  0  0
  139.2310   73.4170  223.4040 H   0  0  0  0  0  0  0  0  0  0  0  0
  138.6554   73.1924  220.4878 H   0  0  0  0  0  0  0  0  0  0  0  0
  138.7683   74.7246  221.4610 H   0  0  0  0  0  0  0  0  0  0  0  0
  142.7467   75.5491  219.4850 H   0  0  0  0  0  0  0  0  0  0  0  0
  141.2083   76.0844  218.8013 H   0  0  0  0  0  0  0  0  0  0  0  0
  143.0745   77.5188  220.7101 H   0  0  0  0  0  0  0  0  0  0  0  0
  142.0499   78.2362  219.4980 H   0  0  0  0  0  0  0  0  0  0  0  0
  140.0035   77.8509  220.9084 H   0  0  0  0  0  0  0  0  0  0  0  0
  140.5412   80.8753  224.5992 H   0  0  0  0  0  0  0  0  0  0  0  0
  143.1146   80.8292  223.7814 H   0  0  0  0  0  0  0  0  0  0  0  0
  143.3490   79.0060  221.9700 H   0  0  0  0  0  0  0  0  0  0  0  0
  141.9717   76.1075  222.5795 H   0  0  0  0  0  0  0  0  0  0  0  0
  140.2414   75.9934  222.6607 H   0  0  0  0  0  0  0  0  0  0  0  0
  138.6709   69.1069  222.5297 H   0  0  0  0  0  0  0  0  0  0  0  0
  138.8016   67.6432  224.5375 H   0  0  0  0  0  0  0  0  0  0  0  0
  139.4867   67.3465  226.8591 H   0  0  0  0  0  0  0  0  0  0  0  0
  141.4397   70.5615  228.9484 H   0  0  0  0  0  0  0  0  0  0  0  0
  141.2836   71.9824  226.9106 H   0  0  0  0  0  0  0  0  0  0  0  0
  1  2  2  0
  2  3  1  0
  3  4  1  0
  4  5  1  0
  5  6  2  0
  5  7  1  0
  7  8  1  0
  8  9  1  0
  9 10  1  0
 10 11  1  0
 11 12  2  0
 12 13  1  0
 13 14  2  0
 14 15  1  0
 10 16  1  0
  2 17  1  0
 17 18  2  0
 18 19  1  0
 19 20  2  0
 20 21  1  0
 21 22  2  0
 22 23  1  0
 22 24  1  0
 24 25  2  0
 25 26  1  0
 26 27  2  0
 16  7  1  0
 27 17  1  0
 15 11  1  0
 26 20  1  0
  3 28  1  0
  4 29  1  0
  4 30  1  0
  8 31  1  0
  8 32  1  0
  9 33  1  0
  9 34  1  0
 10 35  1  6
 13 36  1  0
 14 37  1  0
 15 38  1  0
 16 39  1  0
 16 40  1  0
 18 41  1  0
 19 42  1  0
 21 43  1  0
 24 44  1  0
 25 45  1  0
M  END
>  <smiles>  (44) 
O=C(NCC(=O)N1CC[C@H](c2ncc[nH]2)C1)c1ccc2cc(F)ccc2n1

>  <score_type>  (44) 
oracle

>  <origin>  (44) 
autodockgpu

>  <m_score__min__energy>  (44) 
-8.7300000000000004

>  <m_primary>  (44) 
energy

>  <rmsd>  (44) 
2.2644043900953252

>  <m_score__min__rmsd>  (44) 
2.2644043900953252

>  <meeko>  (44) 
{"free_energy": -7.94, "intermolecular_energy": -9.43, "internal_energy": -0.93, "cluster_size": 48, "cluster_id": 1, "rank_in_cluster": 33}

>  <energy>  (44) 
-7.72

>  <cluster_rmsd>  (44) 
1.46

>  <cluster>  (44) 
1

$$$$

     RDKit          3D

 45 48  0  0  0  0  0  0  0  0999 V2000
  141.0050   71.9920  221.2820 O   0  0  0  0  0  0  0  0  0  0  0  0
  140.1420   72.2470  222.1710 C   0  0  0  0  0  0  0  0  0  0  0  0
  139.2690   73.3670  221.9700 N   0  0  0  0  0  0  0  0  0  0  0  0
  139.4370   74.1230  220.7650 C   0  0  0  0  0  0  0  0  0  0  0  0
  140.6150   75.0280  220.8220 C   0  0  0  0  0  0  0  0  0  0  0  0
  141.7390   74.7330  220.3400 O   0  0  0  0  0  0  0  0  0  0  0  0
  140.4580   76.2910  221.4560 N   0  0  0  0  0  0  0  0  0  0  0  0
  139.2210   76.6990  222.0960 C   0  0  0  0  0  0  0  0  0  0  0  0
  139.5290   78.0310  222.7470 C   0  0  0  0  0  0  0  0  0  0  0  0
  141.0300   77.9440  222.9260 C   0  0  2  0  0  0  0  0  0  0  0  0
  141.6660   79.2450  223.1720 C   0  0  0  0  0  0  0  0  0  0  0  0
  141.1540   80.3270  223.7840 N   0  0  0  0  0  0  0  0  0  0  0  0
  142.0520   81.3300  223.8140 C   0  0  0  0  0  0  0  0  0  0  0  0
  143.1740   80.8100  223.1760 C   0  0  0  0  0  0  0  0  0  0  0  0
  142.9230   79.5460  222.7940 N   0  0  0  0  0  0  0  0  0  0  0  0
  141.4330   77.3560  221.5870 C   0  0  0  0  0  0  0  0  0  0  0  0
  140.0220   71.4350  223.3790 C   0  0  0  0  0  0  0  0  0  0  0  0
  139.2980   70.2610  223.3060 C   0  0  0  0  0  0  0  0  0  0  0  0
  139.1630   69.4690  224.4300 C   0  0  0  0  0  0  0  0  0  0  0  0
  139.7580   69.8620  225.6180 C   0  0  0  0  0  0  0  0  0  0  0  0
  139.6500   69.1040  226.7600 C   0  0  0  0  0  0  0  0  0  0  0  0
  140.2500   69.5160  227.9230 C   0  0  0  0  0  0  0  0  0  0  0  0
  140.1850   68.8190  229.0900 F   0  0  0  0  0  0  0  0  0  0  0  0
  140.9750   70.7020  227.9740 C   0  0  0  0  0  0  0  0  0  0  0  0
  141.0910   71.4700  226.8380 C   0  0  0  0  0  0  0  0  0  0  0  0
  140.4830   71.0430  225.6750 C   0  0  0  0  0  0  0  0  0  0  0  0
  140.5780   71.7690  224.5530 N   0  0  0  0  0  0  0  0  0  0  0  0
  138.5460   73.5830  222.7130 H   0  0  0  0  0  0  0  0  0  0  0  0
  139.5687   73.4245  219.9255 H   0  0  0  0  0  0  0  0  0  0  0  0
  138.5410   74.7475  220.6338 H   0  0  0  0  0  0  0  0  0  0  0  0
  138.4199   76.8105  221.3505 H   0  0  0  0  0  0  0  0  0  0  0  0
  138.8730   75.9553  222.8280 H   0  0  0  0  0  0  0  0  0  0  0  0
  139.2510   78.8709  222.0933 H   0  0  0  0  0  0  0  0  0  0  0  0
  138.9770   78.2101  223.6815 H   0  0  0  0  0  0  0  0  0  0  0  0
  141.3385   77.3584  223.8046 H   0  0  0  0  0  0  0  0  0  0  0  0
  141.9268   82.3340  224.2456 H   0  0  0  0  0  0  0  0  0  0  0  0
  144.1185   81.3490  223.0102 H   0  0  0  0  0  0  0  0  0  0  0  0
  143.6100   78.9240  222.2870 H   0  0  0  0  0  0  0  0  0  0  0  0
  141.3392   78.0932  220.7760 H   0  0  0  0  0  0  0  0  0  0  0  0
  142.4805   77.0251  221.5306 H   0  0  0  0  0  0  0  0  0  0  0  0
  138.8310   69.9580  222.3573 H   0  0  0  0  0  0  0  0  0  0  0  0
  138.5872   68.5330  224.3821 H   0  0  0  0  0  0  0  0  0  0  0  0
  139.0801   68.1633  226.7411 H   0  0  0  0  0  0  0  0  0  0  0  0
  141.4507   71.0227  228.9126 H   0  0  0  0  0  0  0  0  0  0  0  0
  141.6603   72.4110  226.8567 H   0  0  0  0  0  0  0  0  0  0  0  0
  1  2  2  0
  2  3  1  0
  3  4  1  0
  4  5  1  0
  5  6  2  0
  5  7  1  0
  7  8  1  0
  8  9  1  0
  9 10  1  0
 10 11  1  0
 11 12  2  0
 12 13  1  0
 13 14  2  0
 14 15  1  0
 10 16  1  0
  2 17  1  0
 17 18  2  0
 18 19  1  0
 19 20  2  0
 20 21  1  0
 21 22  2  0
 22 23  1  0
 22 24  1  0
 24 25  2  0
 25 26  1  0
 26 27  2  0
 16  7  1  0
 27 17  1  0
 15 11  1  0
 26 20  1  0
  3 28  1  0
  4 29  1  0
  4 30  1  0
  8 31  1  0
  8 32  1  0
  9 33  1  0
  9 34  1  0
 10 35  1  1
 13 36  1  0
 14 37  1  0
 15 38  1  0
 16 39  1  0
 16 40  1  0
 18 41  1  0
 19 42  1  0
 21 43  1  0
 24 44  1  0
 25 45  1  0
M  END
>  <smiles>  (45) 
O=C(NCC(=O)N1CC[C@H](c2ncc[nH]2)C1)c1ccc2cc(F)ccc2n1

>  <score_type>  (45) 
oracle

>  <origin>  (45) 
autodockgpu

>  <m_score__min__energy>  (45) 
-8.7300000000000004

>  <m_primary>  (45) 
energy

>  <rmsd>  (45) 
3.077199075484185

>  <m_score__min__rmsd>  (45) 
3.077199075484185

>  <meeko>  (45) 
{"free_energy": -8.48, "intermolecular_energy": -9.98, "internal_energy": -0.86, "cluster_size": 48, "cluster_id": 1, "rank_in_cluster": 12}

>  <energy>  (45) 
-7.72

>  <cluster_rmsd>  (45) 
1.47

>  <cluster>  (45) 
1

$$$$

     RDKit          3D

 45 48  0  0  0  0  0  0  0  0999 V2000
  140.9630   71.3120  221.8410 O   0  0  0  0  0  0  0  0  0  0  0  0
  140.2190   71.6870  222.7910 C   0  0  0  0  0  0  0  0  0  0  0  0
  139.2240   72.6850  222.5220 N   0  0  0  0  0  0  0  0  0  0  0  0
  139.1430   73.1880  221.1830 C   0  0  0  0  0  0  0  0  0  0  0  0
  140.2140   74.1760  220.8820 C   0  0  0  0  0  0  0  0  0  0  0  0
  141.2420   73.9000  220.2120 O   0  0  0  0  0  0  0  0  0  0  0  0
  140.0630   75.4980  221.3820 N   0  0  0  0  0  0  0  0  0  0  0  0
  138.7960   76.0130  221.8680 C   0  0  0  0  0  0  0  0  0  0  0  0
  139.1090   77.3880  222.4210 C   0  0  0  0  0  0  0  0  0  0  0  0
  140.5840   77.2600  222.7390 C   0  0  2  0  0  0  0  0  0  0  0  0
  141.2580   78.5530  222.9220 C   0  0  0  0  0  0  0  0  0  0  0  0
  140.8960   79.5840  223.7050 N   0  0  0  0  0  0  0  0  0  0  0  0
  141.7750   80.5980  223.5980 C   0  0  0  0  0  0  0  0  0  0  0  0
  142.7240   80.1400  222.6890 C   0  0  0  0  0  0  0  0  0  0  0  0
  142.3950   78.8990  222.2900 N   0  0  0  0  0  0  0  0  0  0  0  0
  141.0720   76.5330  221.5020 C   0  0  0  0  0  0  0  0  0  0  0  0
  140.3510   71.1330  224.1350 C   0  0  0  0  0  0  0  0  0  0  0  0
  140.9730   71.9030  225.0990 C   0  0  0  0  0  0  0  0  0  0  0  0
  141.1160   71.4100  226.3820 C   0  0  0  0  0  0  0  0  0  0  0  0
  140.6330   70.1480  226.6860 C   0  0  0  0  0  0  0  0  0  0  0  0
  140.7540   69.6180  227.9500 C   0  0  0  0  0  0  0  0  0  0  0  0
  140.2660   68.3650  228.2240 C   0  0  0  0  0  0  0  0  0  0  0  0
  140.3500   67.7780  229.4490 F   0  0  0  0  0  0  0  0  0  0  0  0
  139.6430   67.6070  227.2380 C   0  0  0  0  0  0  0  0  0  0  0  0
  139.5150   68.1250  225.9700 C   0  0  0  0  0  0  0  0  0  0  0  0
  140.0110   69.3860  225.7080 C   0  0  0  0  0  0  0  0  0  0  0  0
  139.9020   69.9180  224.4830 N   0  0  0  0  0  0  0  0  0  0  0  0
  138.5990   73.0010  223.3160 H   0  0  0  0  0  0  0  0  0  0  0  0
  139.2337   72.3445  220.4828 H   0  0  0  0  0  0  0  0  0  0  0  0
  138.1752   73.6995  221.0751 H   0  0  0  0  0  0  0  0  0  0  0  0
  138.0685   76.0848  221.0460 H   0  0  0  0  0  0  0  0  0  0  0  0
  138.3515   75.3560  222.6301 H   0  0  0  0  0  0  0  0  0  0  0  0
  138.9265   78.1729  221.6722 H   0  0  0  0  0  0  0  0  0  0  0  0
  138.4888   77.6754  223.2828 H   0  0  0  0  0  0  0  0  0  0  0  0
  140.7882   76.7482  223.6911 H   0  0  0  0  0  0  0  0  0  0  0  0
  141.7490   81.5696  224.1130 H   0  0  0  0  0  0  0  0  0  0  0  0
  143.6050   80.7047  222.3501 H   0  0  0  0  0  0  0  0  0  0  0  0
  142.9500   78.3230  221.6000 H   0  0  0  0  0  0  0  0  0  0  0  0
  141.0824   77.1928  220.6219 H   0  0  0  0  0  0  0  0  0  0  0  0
  142.1040   76.1585  221.5702 H   0  0  0  0  0  0  0  0  0  0  0  0
  141.3527   72.9040  224.8463 H   0  0  0  0  0  0  0  0  0  0  0  0
  141.6099   72.0155  227.1563 H   0  0  0  0  0  0  0  0  0  0  0  0
  141.2438   70.2009  228.7439 H   0  0  0  0  0  0  0  0  0  0  0  0
  139.2566   66.6035  227.4698 H   0  0  0  0  0  0  0  0  0  0  0  0
  139.0244   67.5425  225.1763 H   0  0  0  0  0  0  0  0  0  0  0  0
  1  2  2  0
  2  3  1  0
  3  4  1  0
  4  5  1  0
  5  6  2  0
  5  7  1  0
  7  8  1  0
  8  9  1  0
  9 10  1  0
 10 11  1  0
 11 12  2  0
 12 13  1  0
 13 14  2  0
 14 15  1  0
 10 16  1  0
  2 17  1  0
 17 18  2  0
 18 19  1  0
 19 20  2  0
 20 21  1  0
 21 22  2  0
 22 23  1  0
 22 24  1  0
 24 25  2  0
 25 26  1  0
 26 27  2  0
 16  7  1  0
 27 17  1  0
 15 11  1  0
 26 20  1  0
  3 28  1  0
  4 29  1  0
  4 30  1  0
  8 31  1  0
  8 32  1  0
  9 33  1  0
  9 34  1  0
 10 35  1  1
 13 36  1  0
 14 37  1  0
 15 38  1  0
 16 39  1  0
 16 40  1  0
 18 41  1  0
 19 42  1  0
 21 43  1  0
 24 44  1  0
 25 45  1  0
M  END
>  <smiles>  (46) 
O=C(NCC(=O)N1CC[C@H](c2ncc[nH]2)C1)c1ccc2cc(F)ccc2n1

>  <score_type>  (46) 
oracle

>  <origin>  (46) 
autodockgpu

>  <m_score__min__energy>  (46) 
-8.7300000000000004

>  <m_primary>  (46) 
energy

>  <rmsd>  (46) 
3.645068583358714

>  <m_score__min__rmsd>  (46) 
3.645068583358714

>  <meeko>  (46) 
{"free_energy": -8.13, "intermolecular_energy": -9.62, "internal_energy": -0.87, "cluster_size": 48, "cluster_id": 1, "rank_in_cluster": 26}

>  <energy>  (46) 
-7.56

>  <cluster_rmsd>  (46) 
1.47

>  <cluster>  (46) 
1

$$$$

     RDKit          3D

 45 48  0  0  0  0  0  0  0  0999 V2000
  141.0260   71.9850  221.2570 O   0  0  0  0  0  0  0  0  0  0  0  0
  140.4350   72.4030  222.2930 C   0  0  0  0  0  0  0  0  0  0  0  0
  139.9580   73.7560  222.3060 N   0  0  0  0  0  0  0  0  0  0  0  0
  140.1850   74.5430  221.1310 C   0  0  0  0  0  0  0  0  0  0  0  0
  139.1790   75.6270  220.9710 C   0  0  0  0  0  0  0  0  0  0  0  0
  138.1330   75.5050  220.2830 O   0  0  0  0  0  0  0  0  0  0  0  0
  139.4190   76.8640  221.6290 N   0  0  0  0  0  0  0  0  0  0  0  0
  138.3960   77.5600  222.3880 C   0  0  0  0  0  0  0  0  0  0  0  0
  139.1010   78.7410  223.0200 C   0  0  0  0  0  0  0  0  0  0  0  0
  140.5360   78.2580  223.0530 C   0  0  2  0  0  0  0  0  0  0  0  0
  141.5130   79.3380  223.2500 C   0  0  0  0  0  0  0  0  0  0  0  0
  141.3610   80.4950  223.9170 N   0  0  0  0  0  0  0  0  0  0  0  0
  142.4900   81.2260  223.8710 C   0  0  0  0  0  0  0  0  0  0  0  0
  143.3740   80.4520  223.1270 C   0  0  0  0  0  0  0  0  0  0  0  0
  142.7650   79.3110  222.7590 N   0  0  0  0  0  0  0  0  0  0  0  0
  140.6480   77.6320  221.6770 C   0  0  0  0  0  0  0  0  0  0  0  0
  140.2350   71.5480  223.4600 C   0  0  0  0  0  0  0  0  0  0  0  0
  139.5760   70.3470  223.2820 C   0  0  0  0  0  0  0  0  0  0  0  0
  139.3680   69.5140  224.3640 C   0  0  0  0  0  0  0  0  0  0  0  0
  139.8250   69.8920  225.6160 C   0  0  0  0  0  0  0  0  0  0  0  0
  139.6410   69.0930  226.7200 C   0  0  0  0  0  0  0  0  0  0  0  0
  140.1040   69.4930  227.9490 C   0  0  0  0  0  0  0  0  0  0  0  0
  139.9580   68.7560  229.0830 F   0  0  0  0  0  0  0  0  0  0  0  0
  140.7650   70.7070  228.1050 C   0  0  0  0  0  0  0  0  0  0  0  0
  140.9560   71.5160  227.0080 C   0  0  0  0  0  0  0  0  0  0  0  0
  140.4850   71.1020  225.7790 C   0  0  0  0  0  0  0  0  0  0  0  0
  140.6570   71.8670  224.6920 N   0  0  0  0  0  0  0  0  0  0  0  0
  139.4630   74.1080  223.1730 H   0  0  0  0  0  0  0  0  0  0  0  0
  141.1851   74.9962  221.1973 H   0  0  0  0  0  0  0  0  0  0  0  0
  140.1012   73.8766  220.2598 H   0  0  0  0  0  0  0  0  0  0  0  0
  137.5897   77.9034  221.7231 H   0  0  0  0  0  0  0  0  0  0  0  0
  137.9309   76.9085  223.1425 H   0  0  0  0  0  0  0  0  0  0  0  0
  138.9966   79.6469  222.4048 H   0  0  0  0  0  0  0  0  0  0  0  0
  138.7021   79.0252  224.0049 H   0  0  0  0  0  0  0  0  0  0  0  0
  140.7563   77.5819  223.8922 H   0  0  0  0  0  0  0  0  0  0  0  0
  142.6725   82.2132  224.3206 H   0  0  0  0  0  0  0  0  0  0  0  0
  144.4090   80.7296  222.8785 H   0  0  0  0  0  0  0  0  0  0  0  0
  143.2160   78.5490  222.1830 H   0  0  0  0  0  0  0  0  0  0  0  0
  140.6797   78.3956  220.8859 H   0  0  0  0  0  0  0  0  0  0  0  0
  141.5618   77.0408  221.5179 H   0  0  0  0  0  0  0  0  0  0  0  0
  139.2186   70.0555  222.2834 H   0  0  0  0  0  0  0  0  0  0  0  0
  138.8428   68.5565  224.2324 H   0  0  0  0  0  0  0  0  0  0  0  0
  139.1206   68.1293  226.6179 H   0  0  0  0  0  0  0  0  0  0  0  0
  141.1312   71.0172  229.0948 H   0  0  0  0  0  0  0  0  0  0  0  0
  141.4770   72.4794  227.1097 H   0  0  0  0  0  0  0  0  0  0  0  0
  1  2  2  0
  2  3  1  0
  3  4  1  0
  4  5  1  0
  5  6  2  0
  5  7  1  0
  7  8  1  0
  8  9  1  0
  9 10  1  0
 10 11  1  0
 11 12  2  0
 12 13  1  0
 13 14  2  0
 14 15  1  0
 10 16  1  0
  2 17  1  0
 17 18  2  0
 18 19  1  0
 19 20  2  0
 20 21  1  0
 21 22  2  0
 22 23  1  0
 22 24  1  0
 24 25  2  0
 25 26  1  0
 26 27  2  0
 16  7  1  0
 27 17  1  0
 15 11  1  0
 26 20  1  0
  3 28  1  0
  4 29  1  0
  4 30  1  0
  8 31  1  0
  8 32  1  0
  9 33  1  0
  9 34  1  0
 10 35  1  1
 13 36  1  0
 14 37  1  0
 15 38  1  0
 16 39  1  0
 16 40  1  0
 18 41  1  0
 19 42  1  0
 21 43  1  0
 24 44  1  0
 25 45  1  0
M  END
>  <smiles>  (47) 
O=C(NCC(=O)N1CC[C@H](c2ncc[nH]2)C1)c1ccc2cc(F)ccc2n1

>  <score_type>  (47) 
oracle

>  <origin>  (47) 
autodockgpu

>  <m_score__min__energy>  (47) 
-8.7300000000000004

>  <m_primary>  (47) 
energy

>  <rmsd>  (47) 
3.34723322062966

>  <m_score__min__rmsd>  (47) 
3.34723322062966

>  <meeko>  (47) 
{"free_energy": -8.44, "intermolecular_energy": -9.93, "internal_energy": -0.82, "cluster_size": 48, "cluster_id": 1, "rank_in_cluster": 15}

>  <energy>  (47) 
-7.54

>  <cluster_rmsd>  (47) 
1.28

>  <cluster>  (47) 
1

$$$$

     RDKit          3D

 45 48  0  0  0  0  0  0  0  0999 V2000
  141.4140   72.9040  221.9670 O   0  0  0  0  0  0  0  0  0  0  0  0
  140.3420   72.7480  222.6180 C   0  0  0  0  0  0  0  0  0  0  0  0
  139.2330   73.6080  222.3180 N   0  0  0  0  0  0  0  0  0  0  0  0
  139.4220   74.5900  221.2920 C   0  0  0  0  0  0  0  0  0  0  0  0
  138.4100   75.6780  221.3550 C   0  0  0  0  0  0  0  0  0  0  0  0
  137.2020   75.5200  221.0400 O   0  0  0  0  0  0  0  0  0  0  0  0
  138.8350   76.9620  221.7930 N   0  0  0  0  0  0  0  0  0  0  0  0
  137.9130   77.9670  222.2870 C   0  0  0  0  0  0  0  0  0  0  0  0
  138.7850   79.1110  222.7620 C   0  0  0  0  0  0  0  0  0  0  0  0
  140.0920   78.4000  223.0470 C   0  0  2  0  0  0  0  0  0  0  0  0
  141.2420   79.3080  223.1470 C   0  0  0  0  0  0  0  0  0  0  0  0
  141.3280   80.4860  223.7890 N   0  0  0  0  0  0  0  0  0  0  0  0
  142.5550   81.0210  223.6470 C   0  0  0  0  0  0  0  0  0  0  0  0
  143.2470   80.0990  222.8670 C   0  0  0  0  0  0  0  0  0  0  0  0
  142.4360   79.0680  222.5730 N   0  0  0  0  0  0  0  0  0  0  0  0
  140.1840   77.4950  221.8340 C   0  0  0  0  0  0  0  0  0  0  0  0
  140.2130   71.7260  223.6530 C   0  0  0  0  0  0  0  0  0  0  0  0
  139.5860   70.5410  223.3240 C   0  0  0  0  0  0  0  0  0  0  0  0
  139.4470   69.5520  224.2790 C   0  0  0  0  0  0  0  0  0  0  0  0
  139.9400   69.7620  225.5560 C   0  0  0  0  0  0  0  0  0  0  0  0
  139.8240   68.8040  226.5380 C   0  0  0  0  0  0  0  0  0  0  0  0
  140.3220   69.0380  227.7950 C   0  0  0  0  0  0  0  0  0  0  0  0
  140.2430   68.1400  228.8130 F   0  0  0  0  0  0  0  0  0  0  0  0
  140.9500   70.2400  228.1040 C   0  0  0  0  0  0  0  0  0  0  0  0
  141.0730   71.2060  227.1320 C   0  0  0  0  0  0  0  0  0  0  0  0
  140.5680   70.9580  225.8720 C   0  0  0  0  0  0  0  0  0  0  0  0
  140.6730   71.8780  224.9040 N   0  0  0  0  0  0  0  0  0  0  0  0
  138.3330   73.4790  222.8610 H   0  0  0  0  0  0  0  0  0  0  0  0
  140.4230   75.0316  221.4059 H   0  0  0  0  0  0  0  0  0  0  0  0
  139.3120   74.0856  220.3207 H   0  0  0  0  0  0  0  0  0  0  0  0
  137.2417   78.3025  221.4828 H   0  0  0  0  0  0  0  0  0  0  0  0
  137.2742   77.5765  223.0929 H   0  0  0  0  0  0  0  0  0  0  0  0
  138.9059   79.8750  221.9799 H   0  0  0  0  0  0  0  0  0  0  0  0
  138.3756   79.6575  223.6244 H   0  0  0  0  0  0  0  0  0  0  0  0
  140.1121   77.8824  224.0174 H   0  0  0  0  0  0  0  0  0  0  0  0
  142.9269   81.9723  224.0553 H   0  0  0  0  0  0  0  0  0  0  0  0
  144.2932   80.1984  222.5422 H   0  0  0  0  0  0  0  0  0  0  0  0
  142.7150   78.2320  221.9910 H   0  0  0  0  0  0  0  0  0  0  0  0
  140.4236   78.0621  220.9224 H   0  0  0  0  0  0  0  0  0  0  0  0
  140.9746   76.7324  221.8923 H   0  0  0  0  0  0  0  0  0  0  0  0
  139.1988   70.3847  222.3063 H   0  0  0  0  0  0  0  0  0  0  0  0
  138.9483   68.6046  224.0267 H   0  0  0  0  0  0  0  0  0  0  0  0
  139.3300   67.8470  226.3140 H   0  0  0  0  0  0  0  0  0  0  0  0
  141.3444   70.4166  229.1156 H   0  0  0  0  0  0  0  0  0  0  0  0
  141.5671   72.1629  227.3562 H   0  0  0  0  0  0  0  0  0  0  0  0
  1  2  2  0
  2  3  1  0
  3  4  1  0
  4  5  1  0
  5  6  2  0
  5  7  1  0
  7  8  1  0
  8  9  1  0
  9 10  1  0
 10 11  1  0
 11 12  2  0
 12 13  1  0
 13 14  2  0
 14 15  1  0
 10 16  1  0
  2 17  1  0
 17 18  2  0
 18 19  1  0
 19 20  2  0
 20 21  1  0
 21 22  2  0
 22 23  1  0
 22 24  1  0
 24 25  2  0
 25 26  1  0
 26 27  2  0
 16  7  1  0
 27 17  1  0
 15 11  1  0
 26 20  1  0
  3 28  1  0
  4 29  1  0
  4 30  1  0
  8 31  1  0
  8 32  1  0
  9 33  1  0
  9 34  1  0
 10 35  1  1
 13 36  1  0
 14 37  1  0
 15 38  1  0
 16 39  1  0
 16 40  1  0
 18 41  1  0
 19 42  1  0
 21 43  1  0
 24 44  1  0
 25 45  1  0
M  END
>  <smiles>  (48) 
O=C(NCC(=O)N1CC[C@H](c2ncc[nH]2)C1)c1ccc2cc(F)ccc2n1

>  <score_type>  (48) 
oracle

>  <origin>  (48) 
autodockgpu

>  <m_score__min__energy>  (48) 
-8.7300000000000004

>  <m_primary>  (48) 
energy

>  <rmsd>  (48) 
3.3565491166758687

>  <m_score__min__rmsd>  (48) 
3.3565491166758687

>  <meeko>  (48) 
{"free_energy": -8.32, "intermolecular_energy": -9.81, "internal_energy": -0.8, "cluster_size": 48, "cluster_id": 1, "rank_in_cluster": 22}

>  <energy>  (48) 
-7.29

>  <cluster_rmsd>  (48) 
1.3

>  <cluster>  (48) 
1

$$$$

     RDKit          3D

 45 48  0  0  0  0  0  0  0  0999 V2000
  140.3860   71.7380  221.0510 O   0  0  0  0  0  0  0  0  0  0  0  0
  139.8740   72.1360  222.1360 C   0  0  0  0  0  0  0  0  0  0  0  0
  139.2220   73.4140  222.1520 N   0  0  0  0  0  0  0  0  0  0  0  0
  139.1960   74.1530  220.9250 C   0  0  0  0  0  0  0  0  0  0  0  0
  140.3580   75.0710  220.7900 C   0  0  0  0  0  0  0  0  0  0  0  0
  141.3950   74.7840  220.1390 O   0  0  0  0  0  0  0  0  0  0  0  0
  140.2890   76.3370  221.4340 N   0  0  0  0  0  0  0  0  0  0  0  0
  139.0740   76.8380  222.0490 C   0  0  0  0  0  0  0  0  0  0  0  0
  139.4730   78.1360  222.7220 C   0  0  0  0  0  0  0  0  0  0  0  0
  140.9580   77.9260  222.9320 C   0  0  2  0  0  0  0  0  0  0  0  0
  141.6910   79.1700  223.2060 C   0  0  0  0  0  0  0  0  0  0  0  0
  141.2590   80.2770  223.8350 N   0  0  0  0  0  0  0  0  0  0  0  0
  142.2310   81.2070  223.8880 C   0  0  0  0  0  0  0  0  0  0  0  0
  143.3140   80.6130  223.2480 C   0  0  0  0  0  0  0  0  0  0  0  0
  142.9690   79.3790  222.8410 N   0  0  0  0  0  0  0  0  0  0  0  0
  141.3430   77.3190  221.5970 C   0  0  0  0  0  0  0  0  0  0  0  0
  139.9350   71.3330  223.3540 C   0  0  0  0  0  0  0  0  0  0  0  0
  139.4910   70.0270  223.2960 C   0  0  0  0  0  0  0  0  0  0  0  0
  139.5340   69.2380  224.4300 C   0  0  0  0  0  0  0  0  0  0  0  0
  140.0230   69.7680  225.6120 C   0  0  0  0  0  0  0  0  0  0  0  0
  140.0840   69.0190  226.7640 C   0  0  0  0  0  0  0  0  0  0  0  0
  140.5730   69.5690  227.9220 C   0  0  0  0  0  0  0  0  0  0  0  0
  140.6630   68.8890  229.0980 F   0  0  0  0  0  0  0  0  0  0  0  0
  141.0150   70.8870  227.9580 C   0  0  0  0  0  0  0  0  0  0  0  0
  140.9600   71.6480  226.8130 C   0  0  0  0  0  0  0  0  0  0  0  0
  140.4650   71.0820  225.6550 C   0  0  0  0  0  0  0  0  0  0  0  0
  140.3990   71.7970  224.5230 N   0  0  0  0  0  0  0  0  0  0  0  0
  138.7930   73.7500  223.0590 H   0  0  0  0  0  0  0  0  0  0  0  0
  139.2076   73.4430  220.0849 H   0  0  0  0  0  0  0  0  0  0  0  0
  138.2828   74.7662  220.9227 H   0  0  0  0  0  0  0  0  0  0  0  0
  138.3029   77.0206  221.2861 H   0  0  0  0  0  0  0  0  0  0  0  0
  138.6494   76.1184  222.7645 H   0  0  0  0  0  0  0  0  0  0  0  0
  139.2780   79.0017  222.0720 H   0  0  0  0  0  0  0  0  0  0  0  0
  138.9162   78.3506  223.6461 H   0  0  0  0  0  0  0  0  0  0  0  0
  141.1984   77.3091  223.8104 H   0  0  0  0  0  0  0  0  0  0  0  0
  142.1803   82.2102  224.3362 H   0  0  0  0  0  0  0  0  0  0  0  0
  144.2987   81.0800  223.0984 H   0  0  0  0  0  0  0  0  0  0  0  0
  143.6100   78.7150  222.3260 H   0  0  0  0  0  0  0  0  0  0  0  0
  141.3271   78.0680  220.7916 H   0  0  0  0  0  0  0  0  0  0  0  0
  142.3617   76.9056  221.5603 H   0  0  0  0  0  0  0  0  0  0  0  0
  139.1047   69.6162  222.3515 H   0  0  0  0  0  0  0  0  0  0  0  0
  139.1822   68.1964  224.3937 H   0  0  0  0  0  0  0  0  0  0  0  0
  139.7392   67.9744  226.7569 H   0  0  0  0  0  0  0  0  0  0  0  0
  141.4047   71.3169  228.8925 H   0  0  0  0  0  0  0  0  0  0  0  0
  141.3055   72.6923  226.8201 H   0  0  0  0  0  0  0  0  0  0  0  0
  1  2  2  0
  2  3  1  0
  3  4  1  0
  4  5  1  0
  5  6  2  0
  5  7  1  0
  7  8  1  0
  8  9  1  0
  9 10  1  0
 10 11  1  0
 11 12  2  0
 12 13  1  0
 13 14  2  0
 14 15  1  0
 10 16  1  0
  2 17  1  0
 17 18  2  0
 18 19  1  0
 19 20  2  0
 20 21  1  0
 21 22  2  0
 22 23  1  0
 22 24  1  0
 24 25  2  0
 25 26  1  0
 26 27  2  0
 16  7  1  0
 27 17  1  0
 15 11  1  0
 26 20  1  0
  3 28  1  0
  4 29  1  0
  4 30  1  0
  8 31  1  0
  8 32  1  0
  9 33  1  0
  9 34  1  0
 10 35  1  1
 13 36  1  0
 14 37  1  0
 15 38  1  0
 16 39  1  0
 16 40  1  0
 18 41  1  0
 19 42  1  0
 21 43  1  0
 24 44  1  0
 25 45  1  0
M  END
>  <smiles>  (49) 
O=C(NCC(=O)N1CC[C@H](c2ncc[nH]2)C1)c1ccc2cc(F)ccc2n1

>  <score_type>  (49) 
oracle

>  <origin>  (49) 
autodockgpu

>  <m_score__min__energy>  (49) 
-8.7300000000000004

>  <m_primary>  (49) 
energy

>  <rmsd>  (49) 
3.0324268497918534

>  <m_score__min__rmsd>  (49) 
3.0324268497918534

>  <meeko>  (49) 
{"free_energy": -8.49, "intermolecular_energy": -9.98, "internal_energy": -0.9, "cluster_size": 48, "cluster_id": 1, "rank_in_cluster": 11}

>  <energy>  (49) 
-7.72

>  <cluster_rmsd>  (49) 
0.0

>  <cluster>  (49) 
2

$$$$

     RDKit          3D

 45 48  0  0  0  0  0  0  0  0999 V2000
  141.0620   72.0240  221.3030 O   0  0  0  0  0  0  0  0  0  0  0  0
  140.4420   72.4240  222.3300 C   0  0  0  0  0  0  0  0  0  0  0  0
  139.9190   73.7590  222.3320 N   0  0  0  0  0  0  0  0  0  0  0  0
  140.1390   74.5530  221.1600 C   0  0  0  0  0  0  0  0  0  0  0  0
  139.1240   75.6280  221.0030 C   0  0  0  0  0  0  0  0  0  0  0  0
  138.0670   75.4910  220.3340 O   0  0  0  0  0  0  0  0  0  0  0  0
  139.3650   76.8730  221.6450 N   0  0  0  0  0  0  0  0  0  0  0  0
  138.3360   77.5930  222.3720 C   0  0  0  0  0  0  0  0  0  0  0  0
  139.0430   78.7780  222.9970 C   0  0  0  0  0  0  0  0  0  0  0  0
  140.4710   78.2810  223.0640 C   0  0  2  0  0  0  0  0  0  0  0  0
  141.4560   79.3530  223.2600 C   0  0  0  0  0  0  0  0  0  0  0  0
  142.7630   79.3610  222.9450 N   0  0  0  0  0  0  0  0  0  0  0  0
  143.3300   80.5340  223.2840 C   0  0  0  0  0  0  0  0  0  0  0  0
  142.2910   81.2740  223.8380 C   0  0  0  0  0  0  0  0  0  0  0  0
  141.1620   80.5440  223.8150 N   0  0  0  0  0  0  0  0  0  0  0  0
  140.6010   77.6290  221.7010 C   0  0  0  0  0  0  0  0  0  0  0  0
  140.2510   71.5640  223.4940 C   0  0  0  0  0  0  0  0  0  0  0  0
  139.5930   70.3620  223.3170 C   0  0  0  0  0  0  0  0  0  0  0  0
  139.3950   69.5240  224.3970 C   0  0  0  0  0  0  0  0  0  0  0  0
  139.8600   69.8990  225.6470 C   0  0  0  0  0  0  0  0  0  0  0  0
  139.6850   69.0950  226.7500 C   0  0  0  0  0  0  0  0  0  0  0  0
  140.1560   69.4910  227.9760 C   0  0  0  0  0  0  0  0  0  0  0  0
  140.0200   68.7490  229.1090 F   0  0  0  0  0  0  0  0  0  0  0  0
  140.8170   70.7060  228.1320 C   0  0  0  0  0  0  0  0  0  0  0  0
  140.9990   71.5190  227.0370 C   0  0  0  0  0  0  0  0  0  0  0  0
  140.5200   71.1090  225.8100 C   0  0  0  0  0  0  0  0  0  0  0  0
  140.6810   71.8790  224.7250 N   0  0  0  0  0  0  0  0  0  0  0  0
  139.3990   74.0970  223.1910 H   0  0  0  0  0  0  0  0  0  0  0  0
  141.1349   75.0151  221.2286 H   0  0  0  0  0  0  0  0  0  0  0  0
  140.0611   73.8890  220.2865 H   0  0  0  0  0  0  0  0  0  0  0  0
  137.5463   77.9334  221.6861 H   0  0  0  0  0  0  0  0  0  0  0  0
  137.8494   76.9600  223.1286 H   0  0  0  0  0  0  0  0  0  0  0  0
  138.9594   79.6743  222.3648 H   0  0  0  0  0  0  0  0  0  0  0  0
  138.6297   79.0831  223.9697 H   0  0  0  0  0  0  0  0  0  0  0  0
  140.6687   77.6176  223.9189 H   0  0  0  0  0  0  0  0  0  0  0  0
  144.3788   80.8385  223.1524 H   0  0  0  0  0  0  0  0  0  0  0  0
  142.3790   82.2968  224.2333 H   0  0  0  0  0  0  0  0  0  0  0  0
  140.2260   80.8740  224.1770 H   0  0  0  0  0  0  0  0  0  0  0  0
  140.6547   78.3779  220.8971 H   0  0  0  0  0  0  0  0  0  0  0  0
  141.5113   77.0258  221.5687 H   0  0  0  0  0  0  0  0  0  0  0  0
  139.2283   70.0736  222.3201 H   0  0  0  0  0  0  0  0  0  0  0  0
  138.8717   68.5654  224.2655 H   0  0  0  0  0  0  0  0  0  0  0  0
  139.1653   68.1309  226.6482 H   0  0  0  0  0  0  0  0  0  0  0  0
  141.1899   71.0130  229.1203 H   0  0  0  0  0  0  0  0  0  0  0  0
  141.5194   72.4828  227.1386 H   0  0  0  0  0  0  0  0  0  0  0  0
  1  2  2  0
  2  3  1  0
  3  4  1  0
  4  5  1  0
  5  6  2  0
  5  7  1  0
  7  8  1  0
  8  9  1  0
  9 10  1  0
 10 11  1  0
 11 12  2  0
 12 13  1  0
 13 14  2  0
 14 15  1  0
 10 16  1  0
  2 17  1  0
 17 18  2  0
 18 19  1  0
 19 20  2  0
 20 21  1  0
 21 22  2  0
 22 23  1  0
 22 24  1  0
 24 25  2  0
 25 26  1  0
 26 27  2  0
 16  7  1  0
 27 17  1  0
 15 11  1  0
 26 20  1  0
  3 28  1  0
  4 29  1  0
  4 30  1  0
  8 31  1  0
  8 32  1  0
  9 33  1  0
  9 34  1  0
 10 35  1  1
 13 36  1  0
 14 37  1  0
 15 38  1  0
 16 39  1  0
 16 40  1  0
 18 41  1  0
 19 42  1  0
 21 43  1  0
 24 44  1  0
 25 45  1  0
M  END
>  <smiles>  (50) 
O=C(NCC(=O)N1CC[C@H](c2ncc[nH]2)C1)c1ccc2cc(F)ccc2n1

>  <score_type>  (50) 
oracle

>  <origin>  (50) 
autodockgpu

>  <m_score__min__energy>  (50) 
-8.7300000000000004

>  <m_primary>  (50) 
energy

>  <rmsd>  (50) 
3.3537848129242165

>  <m_score__min__rmsd>  (50) 
3.3537848129242165

>  <meeko>  (50) 
{"free_energy": -7.83, "intermolecular_energy": -9.32, "internal_energy": -0.83, "cluster_size": 48, "cluster_id": 1, "rank_in_cluster": 42}

>  <energy>  (50) 
-6.08

>  <cluster_rmsd>  (50) 
0.0

>  <cluster>  (50) 
3

$$$$
