
     RDKit          3D

 51 54  0  0  0  0  0  0  0  0999 V2000
  140.5140   72.6320  220.6350 O   0  0  0  0  0  0  0  0  0  0  0  0
  140.1900   72.9700  221.8040 C   0  0  0  0  0  0  0  0  0  0  0  0
  139.8650   74.3160  222.1310 N   0  0  0  0  0  0  0  0  0  0  0  0
  139.9140   75.2960  221.0940 C   0  0  0  0  0  0  0  0  0  0  0  0
  140.4680   76.5920  221.5280 C   0  0  0  0  0  0  0  0  0  0  0  0
  140.4310   76.8670  222.7610 O   0  0  0  0  0  0  0  0  0  0  0  0
  141.0120   77.4690  220.5520 N   0  0  0  0  0  0  0  0  0  0  0  0
  141.1550   78.9090  220.6450 C   0  0  0  0  0  0  0  0  0  0  0  0
  141.8360   79.3370  219.3900 C   0  0  0  0  0  0  0  0  0  0  0  0
  141.4060   78.2710  218.3920 C   0  0  0  0  0  0  0  0  0  0  0  0
  141.5340   77.0300  219.2470 C   0  0  1  0  0  0  0  0  0  0  0  0
  142.9780   76.6480  219.3430 C   0  0  0  0  0  0  0  0  0  0  0  0
  143.2210   75.1940  219.4870 C   0  0  0  0  0  0  0  0  0  0  0  0
  142.6160   74.2350  218.7030 C   0  0  0  0  0  0  0  0  0  0  0  0
  142.8590   72.8740  218.8650 C   0  0  0  0  0  0  0  0  0  0  0  0
  143.7320   72.4340  219.8380 C   0  0  0  0  0  0  0  0  0  0  0  0
  144.0500   70.7260  220.0550 Cl  0  0  0  0  0  0  0  0  0  0  0  0
  144.3510   73.3750  220.6340 C   0  0  0  0  0  0  0  0  0  0  0  0
  144.1020   74.7220  220.4650 C   0  0  0  0  0  0  0  0  0  0  0  0
  140.1300   71.9850  222.8910 C   0  0  0  0  0  0  0  0  0  0  0  0
  139.5900   70.7220  222.6870 C   0  0  0  0  0  0  0  0  0  0  0  0
  139.5290   69.7800  223.7060 C   0  0  0  0  0  0  0  0  0  0  0  0
  140.0120   70.0940  224.9580 C   0  0  0  0  0  0  0  0  0  0  0  0
  139.9870   69.2170  226.0220 C   0  0  0  0  0  0  0  0  0  0  0  0
  140.4900   69.5910  227.2670 C   0  0  0  0  0  0  0  0  0  0  0  0
  140.4640   68.4790  228.6330 Cl  0  0  0  0  0  0  0  0  0  0  0  0
  141.0150   70.8640  227.4070 C   0  0  0  0  0  0  0  0  0  0  0  0
  141.0590   71.7730  226.3680 C   0  0  0  0  0  0  0  0  0  0  0  0
  140.5500   71.3690  225.1470 C   0  0  0  0  0  0  0  0  0  0  0  0
  140.5870   72.2420  224.1290 N   0  0  0  0  0  0  0  0  0  0  0  0
  139.5930   74.6220  223.0950 H   0  0  0  0  0  0  0  0  0  0  0  0
  140.5402   74.9067  220.2777 H   0  0  0  0  0  0  0  0  0  0  0  0
  138.8770   75.4800  220.7767 H   0  0  0  0  0  0  0  0  0  0  0  0
  140.1674   79.3866  220.7258 H   0  0  0  0  0  0  0  0  0  0  0  0
  141.7320   79.1996  221.5353 H   0  0  0  0  0  0  0  0  0  0  0  0
  141.4959   80.3346  219.0752 H   0  0  0  0  0  0  0  0  0  0  0  0
  142.9279   79.4208  219.4940 H   0  0  0  0  0  0  0  0  0  0  0  0
  140.3713   78.4258  218.0522 H   0  0  0  0  0  0  0  0  0  0  0  0
  141.9915   78.2501  217.4610 H   0  0  0  0  0  0  0  0  0  0  0  0
  140.9995   76.1520  218.8554 H   0  0  0  0  0  0  0  0  0  0  0  0
  143.4858   76.9923  218.4300 H   0  0  0  0  0  0  0  0  0  0  0  0
  143.3666   77.1219  220.2565 H   0  0  0  0  0  0  0  0  0  0  0  0
  141.9145   74.5576  217.9195 H   0  0  0  0  0  0  0  0  0  0  0  0
  142.3525   72.1461  218.2141 H   0  0  0  0  0  0  0  0  0  0  0  0
  145.0532   73.0473  221.4147 H   0  0  0  0  0  0  0  0  0  0  0  0
  144.6114   75.4453  221.1187 H   0  0  0  0  0  0  0  0  0  0  0  0
  139.2002   70.4606  221.6921 H   0  0  0  0  0  0  0  0  0  0  0  0
  139.0967   68.7868  223.5143 H   0  0  0  0  0  0  0  0  0  0  0  0
  139.5650   68.2102  225.8866 H   0  0  0  0  0  0  0  0  0  0  0  0
  141.4140   71.1644  228.3871 H   0  0  0  0  0  0  0  0  0  0  0  0
  141.4823   72.7789  226.5062 H   0  0  0  0  0  0  0  0  0  0  0  0
  1  2  2  0
  2  3  1  0
  3  4  1  0
  4  5  1  0
  5  6  2  0
  5  7  1  0
  7  8  1  0
  8  9  1  0
  9 10  1  0
 10 11  1  0
 11 12  1  0
 12 13  1  0
 13 14  2  0
 14 15  1  0
 15 16  2  0
 16 17  1  0
 16 18  1  0
 18 19  2  0
  2 20  1  0
 20 21  2  0
 21 22  1  0
 22 23  2  0
 23 24  1  0
 24 25  2  0
 25 26  1  0
 25 27  1  0
 27 28  2  0
 28 29  1  0
 29 30  2  0
 11  7  1  0
 19 13  1  0
 30 20  1  0
 29 23  1  0
  3 31  1  0
  4 32  1  0
  4 33  1  0
  8 34  1  0
  8 35  1  0
  9 36  1  0
  9 37  1  0
 10 38  1  0
 10 39  1  0
 11 40  1  6
 12 41  1  0
 12 42  1  0
 14 43  1  0
 15 44  1  0
 18 45  1  0
 19 46  1  0
 21 47  1  0
 22 48  1  0
 24 49  1  0
 27 50  1  0
 28 51  1  0
M  END
>  <smiles>  (1) 
O=C(NCC(=O)N1CCC[C@H]1Cc1ccc(Cl)cc1)c1ccc2cc(Cl)ccc2n1

>  <score_type>  (1) 
oracle

>  <origin>  (1) 
autodockgpu

>  <m_score__min__energy>  (1) 
-8.8200000000000003

>  <m_primary>  (1) 
energy

>  <rmsd>  (1) 
2.5111452150670526

>  <m_score__min__rmsd>  (1) 
2.5111452150670526

>  <meeko>  (1) 
{"free_energy": -7.92, "intermolecular_energy": -9.71, "internal_energy": -2.47, "cluster_size": 14, "cluster_id": 3, "rank_in_cluster": 7}

>  <energy>  (1) 
-8.82

>  <cluster_rmsd>  (1) 
0.0

>  <cluster>  (1) 
1

$$$$

     RDKit          3D

 51 54  0  0  0  0  0  0  0  0999 V2000
  140.0900   72.4370  220.7680 O   0  0  0  0  0  0  0  0  0  0  0  0
  139.8770   72.7570  221.9680 C   0  0  0  0  0  0  0  0  0  0  0  0
  139.5690   74.0940  222.3420 N   0  0  0  0  0  0  0  0  0  0  0  0
  139.5040   75.0860  221.3180 C   0  0  0  0  0  0  0  0  0  0  0  0
  140.6440   76.0210  221.3250 C   0  0  0  0  0  0  0  0  0  0  0  0
  141.4140   76.0070  222.3260 O   0  0  0  0  0  0  0  0  0  0  0  0
  140.8260   76.8920  220.2170 N   0  0  0  0  0  0  0  0  0  0  0  0
  141.5140   78.1690  220.2050 C   0  0  0  0  0  0  0  0  0  0  0  0
  141.4760   78.6430  218.7910 C   0  0  0  0  0  0  0  0  0  0  0  0
  140.2060   77.9990  218.2530 C   0  0  0  0  0  0  0  0  0  0  0  0
  140.3230   76.6190  218.8600 C   0  0  1  0  0  0  0  0  0  0  0  0
  141.3090   75.8170  218.0690 C   0  0  0  0  0  0  0  0  0  0  0  0
  142.3400   75.1350  218.8840 C   0  0  0  0  0  0  0  0  0  0  0  0
  142.2810   73.8030  219.2380 C   0  0  0  0  0  0  0  0  0  0  0  0
  143.2630   73.1900  220.0110 C   0  0  0  0  0  0  0  0  0  0  0  0
  144.3490   73.9130  220.4570 C   0  0  0  0  0  0  0  0  0  0  0  0
  145.5940   73.1570  221.4300 Cl  0  0  0  0  0  0  0  0  0  0  0  0
  144.4310   75.2470  220.1150 C   0  0  0  0  0  0  0  0  0  0  0  0
  143.4520   75.8450  219.3490 C   0  0  0  0  0  0  0  0  0  0  0  0
  139.9360   71.7580  223.0420 C   0  0  0  0  0  0  0  0  0  0  0  0
  139.4930   70.4580  222.8410 C   0  0  0  0  0  0  0  0  0  0  0  0
  139.5440   69.5030  223.8480 C   0  0  0  0  0  0  0  0  0  0  0  0
  140.0460   69.8420  225.0870 C   0  0  0  0  0  0  0  0  0  0  0  0
  140.1310   68.9540  226.1390 C   0  0  0  0  0  0  0  0  0  0  0  0
  140.6480   69.3550  227.3700 C   0  0  0  0  0  0  0  0  0  0  0  0
  140.7620   68.2300  228.7210 Cl  0  0  0  0  0  0  0  0  0  0  0  0
  141.0740   70.6640  227.5080 C   0  0  0  0  0  0  0  0  0  0  0  0
  141.0080   71.5840  226.4810 C   0  0  0  0  0  0  0  0  0  0  0  0
  140.4880   71.1540  225.2740 C   0  0  0  0  0  0  0  0  0  0  0  0
  140.4170   72.0380  224.2670 N   0  0  0  0  0  0  0  0  0  0  0  0
  139.3880   74.3850  223.3320 H   0  0  0  0  0  0  0  0  0  0  0  0
  139.4781   74.5774  220.3430 H   0  0  0  0  0  0  0  0  0  0  0  0
  138.5985   75.6819  221.5049 H   0  0  0  0  0  0  0  0  0  0  0  0
  141.0005   78.8860  220.8625 H   0  0  0  0  0  0  0  0  0  0  0  0
  142.5471   78.0736  220.5704 H   0  0  0  0  0  0  0  0  0  0  0  0
  141.4150   79.7402  218.7425 H   0  0  0  0  0  0  0  0  0  0  0  0
  142.3761   78.3757  218.2179 H   0  0  0  0  0  0  0  0  0  0  0  0
  139.3044   78.5225  218.6038 H   0  0  0  0  0  0  0  0  0  0  0  0
  140.1120   78.0129  217.1571 H   0  0  0  0  0  0  0  0  0  0  0  0
  139.3837   76.0467  218.8685 H   0  0  0  0  0  0  0  0  0  0  0  0
  140.7557   75.0520  217.5046 H   0  0  0  0  0  0  0  0  0  0  0  0
  141.8423   76.5279  217.4207 H   0  0  0  0  0  0  0  0  0  0  0  0
  141.4252   73.2023  218.8964 H   0  0  0  0  0  0  0  0  0  0  0  0
  143.1722   72.1241  220.2672 H   0  0  0  0  0  0  0  0  0  0  0  0
  145.2898   75.8426  220.4582 H   0  0  0  0  0  0  0  0  0  0  0  0
  143.5485   76.9113  219.0964 H   0  0  0  0  0  0  0  0  0  0  0  0
  139.0904   70.1764  221.8568 H   0  0  0  0  0  0  0  0  0  0  0  0
  139.1855   68.4805  223.6582 H   0  0  0  0  0  0  0  0  0  0  0  0
  139.7870   67.9178  226.0052 H   0  0  0  0  0  0  0  0  0  0  0  0
  141.4827   70.9853  228.4774 H   0  0  0  0  0  0  0  0  0  0  0  0
  141.3555   72.6187  226.6174 H   0  0  0  0  0  0  0  0  0  0  0  0
  1  2  2  0
  2  3  1  0
  3  4  1  0
  4  5  1  0
  5  6  2  0
  5  7  1  0
  7  8  1  0
  8  9  1  0
  9 10  1  0
 10 11  1  0
 11 12  1  0
 12 13  1  0
 13 14  2  0
 14 15  1  0
 15 16  2  0
 16 17  1  0
 16 18  1  0
 18 19  2  0
  2 20  1  0
 20 21  2  0
 21 22  1  0
 22 23  2  0
 23 24  1  0
 24 25  2  0
 25 26  1  0
 25 27  1  0
 27 28  2  0
 28 29  1  0
 29 30  2  0
 11  7  1  0
 19 13  1  0
 30 20  1  0
 29 23  1  0
  3 31  1  0
  4 32  1  0
  4 33  1  0
  8 34  1  0
  8 35  1  0
  9 36  1  0
  9 37  1  0
 10 38  1  0
 10 39  1  0
 11 40  1  1
 12 41  1  0
 12 42  1  0
 14 43  1  0
 15 44  1  0
 18 45  1  0
 19 46  1  0
 21 47  1  0
 22 48  1  0
 24 49  1  0
 27 50  1  0
 28 51  1  0
M  END
>  <smiles>  (2) 
O=C(NCC(=O)N1CCC[C@H]1Cc1ccc(Cl)cc1)c1ccc2cc(Cl)ccc2n1

>  <score_type>  (2) 
oracle

>  <origin>  (2) 
autodockgpu

>  <m_score__min__energy>  (2) 
-8.8200000000000003

>  <m_primary>  (2) 
energy

>  <rmsd>  (2) 
2.249815107837883

>  <m_score__min__rmsd>  (2) 
2.249815107837883

>  <meeko>  (2) 
{"free_energy": -7.78, "intermolecular_energy": -9.57, "internal_energy": -2.13, "cluster_size": 14, "cluster_id": 3, "rank_in_cluster": 11}

>  <energy>  (2) 
-8.81

>  <cluster_rmsd>  (2) 
0.11

>  <cluster>  (2) 
1

$$$$

     RDKit          3D

 51 54  0  0  0  0  0  0  0  0999 V2000
  135.8790   77.7710  222.8560 O   0  0  0  0  0  0  0  0  0  0  0  0
  136.3530   76.6500  223.1790 C   0  0  0  0  0  0  0  0  0  0  0  0
  137.6840   76.2770  222.8440 N   0  0  0  0  0  0  0  0  0  0  0  0
  138.4880   77.2090  222.1220 C   0  0  0  0  0  0  0  0  0  0  0  0
  139.9240   77.1330  222.4500 C   0  0  0  0  0  0  0  0  0  0  0  0
  140.4160   75.9930  222.6880 O   0  0  0  0  0  0  0  0  0  0  0  0
  140.6860   78.3310  222.4860 N   0  0  0  0  0  0  0  0  0  0  0  0
  141.8340   78.6690  221.6670 C   0  0  0  0  0  0  0  0  0  0  0  0
  142.2210   80.0560  222.0540 C   0  0  0  0  0  0  0  0  0  0  0  0
  141.7540   80.1460  223.5000 C   0  0  0  0  0  0  0  0  0  0  0  0
  140.4130   79.4560  223.3970 C   0  0  1  0  0  0  0  0  0  0  0  0
  139.4180   80.4040  222.8020 C   0  0  0  0  0  0  0  0  0  0  0  0
  138.1960   80.6020  223.6140 C   0  0  0  0  0  0  0  0  0  0  0  0
  138.2100   80.8960  224.9610 C   0  0  0  0  0  0  0  0  0  0  0  0
  137.0440   81.0700  225.7010 C   0  0  0  0  0  0  0  0  0  0  0  0
  135.8110   80.9530  225.0950 C   0  0  0  0  0  0  0  0  0  0  0  0
  134.3340   81.1690  226.0110 Cl  0  0  0  0  0  0  0  0  0  0  0  0
  135.7710   80.6600  223.7480 C   0  0  0  0  0  0  0  0  0  0  0  0
  136.9330   80.4880  223.0240 C   0  0  0  0  0  0  0  0  0  0  0  0
  135.5500   75.6710  223.9220 C   0  0  0  0  0  0  0  0  0  0  0  0
  135.6940   74.3080  223.7020 C   0  0  0  0  0  0  0  0  0  0  0  0
  134.9420   73.3710  224.3990 C   0  0  0  0  0  0  0  0  0  0  0  0
  134.0230   73.7920  225.3370 C   0  0  0  0  0  0  0  0  0  0  0  0
  133.2380   72.9270  226.0710 C   0  0  0  0  0  0  0  0  0  0  0  0
  132.3240   73.4120  227.0060 C   0  0  0  0  0  0  0  0  0  0  0  0
  131.3160   72.3170  227.9480 Cl  0  0  0  0  0  0  0  0  0  0  0  0
  132.2280   74.7820  227.1790 C   0  0  0  0  0  0  0  0  0  0  0  0
  132.9950   75.6810  226.4670 C   0  0  0  0  0  0  0  0  0  0  0  0
  133.8900   75.1660  225.5460 C   0  0  0  0  0  0  0  0  0  0  0  0
  134.6420   76.0300  224.8470 N   0  0  0  0  0  0  0  0  0  0  0  0
  138.1020   75.3500  223.1010 H   0  0  0  0  0  0  0  0  0  0  0  0
  138.3667   77.0121  221.0466 H   0  0  0  0  0  0  0  0  0  0  0  0
  138.1465   78.2154  222.4059 H   0  0  0  0  0  0  0  0  0  0  0  0
  142.6622   77.9722  221.8636 H   0  0  0  0  0  0  0  0  0  0  0  0
  141.5980   78.6009  220.5948 H   0  0  0  0  0  0  0  0  0  0  0  0
  143.3091   80.1990  221.9795 H   0  0  0  0  0  0  0  0  0  0  0  0
  141.7806   80.8277  221.4055 H   0  0  0  0  0  0  0  0  0  0  0  0
  142.4341   79.6132  224.1808 H   0  0  0  0  0  0  0  0  0  0  0  0
  141.7152   81.1670  223.9076 H   0  0  0  0  0  0  0  0  0  0  0  0
  139.9981   79.1248  224.3604 H   0  0  0  0  0  0  0  0  0  0  0  0
  139.9078   81.3807  222.6747 H   0  0  0  0  0  0  0  0  0  0  0  0
  139.0922   79.9585  221.8505 H   0  0  0  0  0  0  0  0  0  0  0  0
  139.1798   80.9969  225.4703 H   0  0  0  0  0  0  0  0  0  0  0  0
  137.1065   81.3020  226.7745 H   0  0  0  0  0  0  0  0  0  0  0  0
  134.7985   80.5620  223.2434 H   0  0  0  0  0  0  0  0  0  0  0  0
  136.8640   80.2544  221.9513 H   0  0  0  0  0  0  0  0  0  0  0  0
  136.4234   73.9606  222.9555 H   0  0  0  0  0  0  0  0  0  0  0  0
  135.0790   72.2972  224.2035 H   0  0  0  0  0  0  0  0  0  0  0  0
  133.3341   71.8421  225.9170 H   0  0  0  0  0  0  0  0  0  0  0  0
  131.5094   75.1705  227.9157 H   0  0  0  0  0  0  0  0  0  0  0  0
  132.8987   76.7653  226.6254 H   0  0  0  0  0  0  0  0  0  0  0  0
  1  2  2  0
  2  3  1  0
  3  4  1  0
  4  5  1  0
  5  6  2  0
  5  7  1  0
  7  8  1  0
  8  9  1  0
  9 10  1  0
 10 11  1  0
 11 12  1  0
 12 13  1  0
 13 14  2  0
 14 15  1  0
 15 16  2  0
 16 17  1  0
 16 18  1  0
 18 19  2  0
  2 20  1  0
 20 21  2  0
 21 22  1  0
 22 23  2  0
 23 24  1  0
 24 25  2  0
 25 26  1  0
 25 27  1  0
 27 28  2  0
 28 29  1  0
 29 30  2  0
 11  7  1  0
 19 13  1  0
 30 20  1  0
 29 23  1  0
  3 31  1  0
  4 32  1  0
  4 33  1  0
  8 34  1  0
  8 35  1  0
  9 36  1  0
  9 37  1  0
 10 38  1  0
 10 39  1  0
 11 40  1  1
 12 41  1  0
 12 42  1  0
 14 43  1  0
 15 44  1  0
 18 45  1  0
 19 46  1  0
 21 47  1  0
 22 48  1  0
 24 49  1  0
 27 50  1  0
 28 51  1  0
M  END
>  <smiles>  (3) 
O=C(NCC(=O)N1CCC[C@H]1Cc1ccc(Cl)cc1)c1ccc2cc(Cl)ccc2n1

>  <score_type>  (3) 
oracle

>  <origin>  (3) 
autodockgpu

>  <m_score__min__energy>  (3) 
-8.8200000000000003

>  <m_primary>  (3) 
energy

>  <rmsd>  (3) 
6.468227602681512

>  <m_score__min__rmsd>  (3) 
6.468227602681512

>  <meeko>  (3) 
{"free_energy": -7.11, "intermolecular_energy": -8.9, "internal_energy": -2.04, "cluster_size": 1, "cluster_id": 8, "rank_in_cluster": 1}

>  <energy>  (3) 
-8.66

>  <cluster_rmsd>  (3) 
1.29

>  <cluster>  (3) 
1

$$$$

     RDKit          3D

 51 54  0  0  0  0  0  0  0  0999 V2000
  139.8390   74.0230  222.3450 O   0  0  0  0  0  0  0  0  0  0  0  0
  139.6140   72.8070  222.1070 C   0  0  0  0  0  0  0  0  0  0  0  0
  139.2030   72.3600  220.8210 N   0  0  0  0  0  0  0  0  0  0  0  0
  139.0460   73.3290  219.7850 C   0  0  0  0  0  0  0  0  0  0  0  0
  140.1620   73.3540  218.8220 C   0  0  0  0  0  0  0  0  0  0  0  0
  140.0710   72.6280  217.7920 O   0  0  0  0  0  0  0  0  0  0  0  0
  141.2840   74.1840  219.0910 N   0  0  0  0  0  0  0  0  0  0  0  0
  142.4900   74.3180  218.2970 C   0  0  0  0  0  0  0  0  0  0  0  0
  143.3170   75.3560  218.9770 C   0  0  0  0  0  0  0  0  0  0  0  0
  142.8890   75.2280  220.4320 C   0  0  0  0  0  0  0  0  0  0  0  0
  141.3940   75.0690  220.2640 C   0  0  1  0  0  0  0  0  0  0  0  0
  140.7860   76.4090  219.9890 C   0  0  0  0  0  0  0  0  0  0  0  0
  141.2140   77.4800  220.9180 C   0  0  0  0  0  0  0  0  0  0  0  0
  141.7780   78.6690  220.5100 C   0  0  0  0  0  0  0  0  0  0  0  0
  142.1760   79.6560  221.4070 C   0  0  0  0  0  0  0  0  0  0  0  0
  142.0140   79.4690  222.7640 C   0  0  0  0  0  0  0  0  0  0  0  0
  142.5090   80.7000  223.9070 Cl  0  0  0  0  0  0  0  0  0  0  0  0
  141.4510   78.2860  223.1970 C   0  0  0  0  0  0  0  0  0  0  0  0
  141.0600   77.3150  222.2990 C   0  0  0  0  0  0  0  0  0  0  0  0
  139.7670   71.7870  223.1520 C   0  0  0  0  0  0  0  0  0  0  0  0
  139.4070   70.4660  222.9260 C   0  0  0  0  0  0  0  0  0  0  0  0
  139.5480   69.4910  223.9060 C   0  0  0  0  0  0  0  0  0  0  0  0
  140.0580   69.8320  225.1410 C   0  0  0  0  0  0  0  0  0  0  0  0
  140.2290   68.9250  226.1670 C   0  0  0  0  0  0  0  0  0  0  0  0
  140.7490   69.3280  227.3950 C   0  0  0  0  0  0  0  0  0  0  0  0
  140.9720   68.1800  228.7120 Cl  0  0  0  0  0  0  0  0  0  0  0  0
  141.0900   70.6600  227.5590 C   0  0  0  0  0  0  0  0  0  0  0  0
  140.9350   71.5990  226.5590 C   0  0  0  0  0  0  0  0  0  0  0  0
  140.4150   71.1650  225.3530 C   0  0  0  0  0  0  0  0  0  0  0  0
  140.2600   72.0680  224.3720 N   0  0  0  0  0  0  0  0  0  0  0  0
  139.0090   71.3540  220.5980 H   0  0  0  0  0  0  0  0  0  0  0  0
  138.1193   73.1040  219.2367 H   0  0  0  0  0  0  0  0  0  0  0  0
  139.0180   74.3160  220.2699 H   0  0  0  0  0  0  0  0  0  0  0  0
  143.0317   73.3613  218.2604 H   0  0  0  0  0  0  0  0  0  0  0  0
  142.2597   74.6024  217.2597 H   0  0  0  0  0  0  0  0  0  0  0  0
  144.3905   75.1467  218.8599 H   0  0  0  0  0  0  0  0  0  0  0  0
  143.1711   76.3664  218.5673 H   0  0  0  0  0  0  0  0  0  0  0  0
  143.3400   74.3472  220.9124 H   0  0  0  0  0  0  0  0  0  0  0  0
  143.1923   76.0670  221.0755 H   0  0  0  0  0  0  0  0  0  0  0  0
  140.8784   74.6629  221.1467 H   0  0  0  0  0  0  0  0  0  0  0  0
  141.0633   76.7090  218.9677 H   0  0  0  0  0  0  0  0  0  0  0  0
  139.7004   76.2935  220.1236 H   0  0  0  0  0  0  0  0  0  0  0  0
  141.9192   78.8451  219.4334 H   0  0  0  0  0  0  0  0  0  0  0  0
  142.6216   80.5892  221.0321 H   0  0  0  0  0  0  0  0  0  0  0  0
  141.3119   78.1148  224.2747 H   0  0  0  0  0  0  0  0  0  0  0  0
  140.6142   76.3841  222.6793 H   0  0  0  0  0  0  0  0  0  0  0  0
  138.9989   70.1830  221.9445 H   0  0  0  0  0  0  0  0  0  0  0  0
  139.2541   68.4517  223.6976 H   0  0  0  0  0  0  0  0  0  0  0  0
  139.9515   67.8717  226.0134 H   0  0  0  0  0  0  0  0  0  0  0  0
  141.5016   70.9834  228.5265 H   0  0  0  0  0  0  0  0  0  0  0  0
  141.2142   72.6515  226.7152 H   0  0  0  0  0  0  0  0  0  0  0  0
  1  2  2  0
  2  3  1  0
  3  4  1  0
  4  5  1  0
  5  6  2  0
  5  7  1  0
  7  8  1  0
  8  9  1  0
  9 10  1  0
 10 11  1  0
 11 12  1  0
 12 13  1  0
 13 14  2  0
 14 15  1  0
 15 16  2  0
 16 17  1  0
 16 18  1  0
 18 19  2  0
  2 20  1  0
 20 21  2  0
 21 22  1  0
 22 23  2  0
 23 24  1  0
 24 25  2  0
 25 26  1  0
 25 27  1  0
 27 28  2  0
 28 29  1  0
 29 30  2  0
 11  7  1  0
 19 13  1  0
 30 20  1  0
 29 23  1  0
  3 31  1  0
  4 32  1  0
  4 33  1  0
  8 34  1  0
  8 35  1  0
  9 36  1  0
  9 37  1  0
 10 38  1  0
 10 39  1  0
 11 40  1  1
 12 41  1  0
 12 42  1  0
 14 43  1  0
 15 44  1  0
 18 45  1  0
 19 46  1  0
 21 47  1  0
 22 48  1  0
 24 49  1  0
 27 50  1  0
 28 51  1  0
M  END
>  <smiles>  (4) 
O=C(NCC(=O)N1CCC[C@H]1Cc1ccc(Cl)cc1)c1ccc2cc(Cl)ccc2n1

>  <score_type>  (4) 
oracle

>  <origin>  (4) 
autodockgpu

>  <m_score__min__energy>  (4) 
-8.8200000000000003

>  <m_primary>  (4) 
energy

>  <rmsd>  (4) 
2.483019288330823

>  <m_score__min__rmsd>  (4) 
2.483019288330823

>  <meeko>  (4) 
{"free_energy": -8.44, "intermolecular_energy": -10.23, "internal_energy": -1.56, "cluster_size": 13, "cluster_id": 1, "rank_in_cluster": 4}

>  <energy>  (4) 
-8.44

>  <cluster_rmsd>  (4) 
0.68

>  <cluster>  (4) 
1

$$$$

     RDKit          3D

 51 54  0  0  0  0  0  0  0  0999 V2000
  139.3090   71.3710  221.2570 O   0  0  0  0  0  0  0  0  0  0  0  0
  138.8270   71.6490  222.3870 C   0  0  0  0  0  0  0  0  0  0  0  0
  137.6580   72.4470  222.5260 N   0  0  0  0  0  0  0  0  0  0  0  0
  137.0290   72.9390  221.3430 C   0  0  0  0  0  0  0  0  0  0  0  0
  137.3760   74.3360  221.0220 C   0  0  0  0  0  0  0  0  0  0  0  0
  136.4310   75.1450  220.8050 O   0  0  0  0  0  0  0  0  0  0  0  0
  138.7460   74.7090  220.9690 N   0  0  0  0  0  0  0  0  0  0  0  0
  139.7490   74.2440  220.0300 C   0  0  0  0  0  0  0  0  0  0  0  0
  141.0000   74.9850  220.3650 C   0  0  0  0  0  0  0  0  0  0  0  0
  140.8380   75.2660  221.8520 C   0  0  0  0  0  0  0  0  0  0  0  0
  139.3790   75.6620  221.8970 C   0  0  1  0  0  0  0  0  0  0  0  0
  139.2370   77.0690  221.4060 C   0  0  0  0  0  0  0  0  0  0  0  0
  140.1520   78.0390  222.0490 C   0  0  0  0  0  0  0  0  0  0  0  0
  141.4050   78.3500  221.5640 C   0  0  0  0  0  0  0  0  0  0  0  0
  142.2460   79.2620  222.1940 C   0  0  0  0  0  0  0  0  0  0  0  0
  141.8420   79.8990  223.3480 C   0  0  0  0  0  0  0  0  0  0  0  0
  142.8890   81.0490  224.1540 Cl  0  0  0  0  0  0  0  0  0  0  0  0
  140.5930   79.6050  223.8530 C   0  0  0  0  0  0  0  0  0  0  0  0
  139.7670   78.6980  223.2210 C   0  0  0  0  0  0  0  0  0  0  0  0
  139.4520   71.1570  223.6210 C   0  0  0  0  0  0  0  0  0  0  0  0
  140.4380   71.8890  224.2690 C   0  0  0  0  0  0  0  0  0  0  0  0
  141.0370   71.4360  225.4370 C   0  0  0  0  0  0  0  0  0  0  0  0
  140.6510   70.2280  225.9800 C   0  0  0  0  0  0  0  0  0  0  0  0
  141.1950   69.7070  227.1360 C   0  0  0  0  0  0  0  0  0  0  0  0
  140.7650   68.4800  227.6360 C   0  0  0  0  0  0  0  0  0  0  0  0
  141.4530   67.8050  229.1110 Cl  0  0  0  0  0  0  0  0  0  0  0  0
  139.7790   67.7980  226.9450 C   0  0  0  0  0  0  0  0  0  0  0  0
  139.2070   68.2830  225.7860 C   0  0  0  0  0  0  0  0  0  0  0  0
  139.6580   69.5030  225.3160 C   0  0  0  0  0  0  0  0  0  0  0  0
  139.1110   69.9860  224.1900 N   0  0  0  0  0  0  0  0  0  0  0  0
  137.2380   72.6930  223.4540 H   0  0  0  0  0  0  0  0  0  0  0  0
  137.3330   72.3032  220.4984 H   0  0  0  0  0  0  0  0  0  0  0  0
  135.9439   72.9111  221.5215 H   0  0  0  0  0  0  0  0  0  0  0  0
  139.9046   73.1608  220.1420 H   0  0  0  0  0  0  0  0  0  0  0  0
  139.4408   74.4230  218.9893 H   0  0  0  0  0  0  0  0  0  0  0  0
  141.8897   74.3673  220.1732 H   0  0  0  0  0  0  0  0  0  0  0  0
  141.1416   75.8947  219.7630 H   0  0  0  0  0  0  0  0  0  0  0  0
  141.0351   74.3700  222.4590 H   0  0  0  0  0  0  0  0  0  0  0  0
  141.5312   76.0187  222.2557 H   0  0  0  0  0  0  0  0  0  0  0  0
  138.9315   75.6303  222.9014 H   0  0  0  0  0  0  0  0  0  0  0  0
  139.4336   77.0767  220.3237 H   0  0  0  0  0  0  0  0  0  0  0  0
  138.2151   77.3873  221.6599 H   0  0  0  0  0  0  0  0  0  0  0  0
  141.7529   77.8581  220.6437 H   0  0  0  0  0  0  0  0  0  0  0  0
  143.2379   79.4758  221.7693 H   0  0  0  0  0  0  0  0  0  0  0  0
  140.2500   80.1007  224.7731 H   0  0  0  0  0  0  0  0  0  0  0  0
  138.7770   78.4872  223.6515 H   0  0  0  0  0  0  0  0  0  0  0  0
  140.7532   72.8541  223.8456 H   0  0  0  0  0  0  0  0  0  0  0  0
  141.8162   72.0380  225.9273 H   0  0  0  0  0  0  0  0  0  0  0  0
  141.9774   70.2671  227.6690 H   0  0  0  0  0  0  0  0  0  0  0  0
  139.4365   66.8284  227.3357 H   0  0  0  0  0  0  0  0  0  0  0  0
  138.4232   67.7211  225.2570 H   0  0  0  0  0  0  0  0  0  0  0  0
  1  2  2  0
  2  3  1  0
  3  4  1  0
  4  5  1  0
  5  6  2  0
  5  7  1  0
  7  8  1  0
  8  9  1  0
  9 10  1  0
 10 11  1  0
 11 12  1  0
 12 13  1  0
 13 14  2  0
 14 15  1  0
 15 16  2  0
 16 17  1  0
 16 18  1  0
 18 19  2  0
  2 20  1  0
 20 21  2  0
 21 22  1  0
 22 23  2  0
 23 24  1  0
 24 25  2  0
 25 26  1  0
 25 27  1  0
 27 28  2  0
 28 29  1  0
 29 30  2  0
 11  7  1  0
 19 13  1  0
 30 20  1  0
 29 23  1  0
  3 31  1  0
  4 32  1  0
  4 33  1  0
  8 34  1  0
  8 35  1  0
  9 36  1  0
  9 37  1  0
 10 38  1  0
 10 39  1  0
 11 40  1  1
 12 41  1  0
 12 42  1  0
 14 43  1  0
 15 44  1  0
 18 45  1  0
 19 46  1  0
 21 47  1  0
 22 48  1  0
 24 49  1  0
 27 50  1  0
 28 51  1  0
M  END
>  <smiles>  (5) 
O=C(NCC(=O)N1CCC[C@H]1Cc1ccc(Cl)cc1)c1ccc2cc(Cl)ccc2n1

>  <score_type>  (5) 
oracle

>  <origin>  (5) 
autodockgpu

>  <m_score__min__energy>  (5) 
-8.8200000000000003

>  <m_primary>  (5) 
energy

>  <rmsd>  (5) 
3.0605857921204374

>  <m_score__min__rmsd>  (5) 
3.0605857921204374

>  <meeko>  (5) 
{"free_energy": -8.18, "intermolecular_energy": -9.97, "internal_energy": -1.62, "cluster_size": 4, "cluster_id": 5, "rank_in_cluster": 2}

>  <energy>  (5) 
-8.37

>  <cluster_rmsd>  (5) 
1.67

>  <cluster>  (5) 
1

$$$$

     RDKit          3D

 51 54  0  0  0  0  0  0  0  0999 V2000
  140.3460   72.0540  220.5300 O   0  0  0  0  0  0  0  0  0  0  0  0
  140.1050   72.4980  221.6840 C   0  0  0  0  0  0  0  0  0  0  0  0
  139.9080   73.8860  221.9250 N   0  0  0  0  0  0  0  0  0  0  0  0
  139.9890   74.7840  220.8190 C   0  0  0  0  0  0  0  0  0  0  0  0
  141.3330   74.8650  220.2170 C   0  0  0  0  0  0  0  0  0  0  0  0
  142.2440   74.1390  220.7060 O   0  0  0  0  0  0  0  0  0  0  0  0
  141.5450   75.7480  219.1240 N   0  0  0  0  0  0  0  0  0  0  0  0
  141.2170   75.5190  217.7310 C   0  0  0  0  0  0  0  0  0  0  0  0
  141.5820   76.7730  217.0100 C   0  0  0  0  0  0  0  0  0  0  0  0
  142.7100   77.3360  217.8640 C   0  0  0  0  0  0  0  0  0  0  0  0
  142.1560   77.0830  219.2480 C   0  0  1  0  0  0  0  0  0  0  0  0
  141.1240   78.1220  219.5610 C   0  0  0  0  0  0  0  0  0  0  0  0
  141.4710   79.0100  220.6940 C   0  0  0  0  0  0  0  0  0  0  0  0
  141.7660   80.3500  220.5560 C   0  0  0  0  0  0  0  0  0  0  0  0
  142.0950   81.1600  221.6380 C   0  0  0  0  0  0  0  0  0  0  0  0
  142.1360   80.6340  222.9130 C   0  0  0  0  0  0  0  0  0  0  0  0
  142.5480   81.6390  224.2870 Cl  0  0  0  0  0  0  0  0  0  0  0  0
  141.8450   79.2960  223.0770 C   0  0  0  0  0  0  0  0  0  0  0  0
  141.5210   78.5020  221.9960 C   0  0  0  0  0  0  0  0  0  0  0  0
  140.0150   71.5990  222.8410 C   0  0  0  0  0  0  0  0  0  0  0  0
  139.3790   70.3690  222.7470 C   0  0  0  0  0  0  0  0  0  0  0  0
  139.2880   69.5080  223.8340 C   0  0  0  0  0  0  0  0  0  0  0  0
  139.8390   69.8730  225.0440 C   0  0  0  0  0  0  0  0  0  0  0  0
  139.7920   69.0760  226.1690 C   0  0  0  0  0  0  0  0  0  0  0  0
  140.3660   69.4990  227.3670 C   0  0  0  0  0  0  0  0  0  0  0  0
  140.3120   68.4910  228.8110 Cl  0  0  0  0  0  0  0  0  0  0  0  0
  140.9860   70.7360  227.3960 C   0  0  0  0  0  0  0  0  0  0  0  0
  141.0570   71.5630  226.2930 C   0  0  0  0  0  0  0  0  0  0  0  0
  140.4750   71.1140  225.1220 C   0  0  0  0  0  0  0  0  0  0  0  0
  140.5360   71.9080  224.0420 N   0  0  0  0  0  0  0  0  0  0  0  0
  139.7070   74.2800  222.8750 H   0  0  0  0  0  0  0  0  0  0  0  0
  139.2822   74.4475  220.0462 H   0  0  0  0  0  0  0  0  0  0  0  0
  139.7475   75.7868  221.2013 H   0  0  0  0  0  0  0  0  0  0  0  0
  141.7948   74.6699  217.3371 H   0  0  0  0  0  0  0  0  0  0  0  0
  140.1517   75.2766  217.6029 H   0  0  0  0  0  0  0  0  0  0  0  0
  141.9283   76.5565  215.9886 H   0  0  0  0  0  0  0  0  0  0  0  0
  140.7379   77.4680  216.8897 H   0  0  0  0  0  0  0  0  0  0  0  0
  143.6538   76.7956  217.6987 H   0  0  0  0  0  0  0  0  0  0  0  0
  142.9644   78.3857  217.6555 H   0  0  0  0  0  0  0  0  0  0  0  0
  142.9058   77.1287  220.0516 H   0  0  0  0  0  0  0  0  0  0  0  0
  140.9822   78.7460  218.6663 H   0  0  0  0  0  0  0  0  0  0  0  0
  140.2134   77.5798  219.8558 H   0  0  0  0  0  0  0  0  0  0  0  0
  141.7402   80.7959  219.5508 H   0  0  0  0  0  0  0  0  0  0  0  0
  142.3233   82.2239  221.4766 H   0  0  0  0  0  0  0  0  0  0  0  0
  141.8716   78.8552  224.0845 H   0  0  0  0  0  0  0  0  0  0  0  0
  141.2955   77.4384  222.1632 H   0  0  0  0  0  0  0  0  0  0  0  0
  138.9352   70.0677  221.7866 H   0  0  0  0  0  0  0  0  0  0  0  0
  138.7782   68.5389  223.7294 H   0  0  0  0  0  0  0  0  0  0  0  0
  139.2959   68.0954  226.1203 H   0  0  0  0  0  0  0  0  0  0  0  0
  141.4416   71.0746  228.3382 H   0  0  0  0  0  0  0  0  0  0  0  0
  141.5573   72.5414  226.3438 H   0  0  0  0  0  0  0  0  0  0  0  0
  1  2  2  0
  2  3  1  0
  3  4  1  0
  4  5  1  0
  5  6  2  0
  5  7  1  0
  7  8  1  0
  8  9  1  0
  9 10  1  0
 10 11  1  0
 11 12  1  0
 12 13  1  0
 13 14  2  0
 14 15  1  0
 15 16  2  0
 16 17  1  0
 16 18  1  0
 18 19  2  0
  2 20  1  0
 20 21  2  0
 21 22  1  0
 22 23  2  0
 23 24  1  0
 24 25  2  0
 25 26  1  0
 25 27  1  0
 27 28  2  0
 28 29  1  0
 29 30  2  0
 11  7  1  0
 19 13  1  0
 30 20  1  0
 29 23  1  0
  3 31  1  0
  4 32  1  0
  4 33  1  0
  8 34  1  0
  8 35  1  0
  9 36  1  0
  9 37  1  0
 10 38  1  0
 10 39  1  0
 11 40  1  1
 12 41  1  0
 12 42  1  0
 14 43  1  0
 15 44  1  0
 18 45  1  0
 19 46  1  0
 21 47  1  0
 22 48  1  0
 24 49  1  0
 27 50  1  0
 28 51  1  0
M  END
>  <smiles>  (6) 
O=C(NCC(=O)N1CCC[C@H]1Cc1ccc(Cl)cc1)c1ccc2cc(Cl)ccc2n1

>  <score_type>  (6) 
oracle

>  <origin>  (6) 
autodockgpu

>  <m_score__min__energy>  (6) 
-8.8200000000000003

>  <m_primary>  (6) 
energy

>  <rmsd>  (6) 
1.707918850994959

>  <m_score__min__rmsd>  (6) 
1.707918850994959

>  <meeko>  (6) 
{"free_energy": -8.25, "intermolecular_energy": -10.04, "internal_energy": -1.36, "cluster_size": 13, "cluster_id": 1, "rank_in_cluster": 7}

>  <energy>  (6) 
-8.31

>  <cluster_rmsd>  (6) 
0.9

>  <cluster>  (6) 
1

$$$$

     RDKit          3D

 51 54  0  0  0  0  0  0  0  0999 V2000
  136.2220   76.0740  220.9110 O   0  0  0  0  0  0  0  0  0  0  0  0
  137.1140   75.9390  221.7900 C   0  0  0  0  0  0  0  0  0  0  0  0
  137.4150   74.6720  222.3610 N   0  0  0  0  0  0  0  0  0  0  0  0
  136.6780   73.5340  221.9150 C   0  0  0  0  0  0  0  0  0  0  0  0
  137.4040   72.2600  222.0650 C   0  0  0  0  0  0  0  0  0  0  0  0
  136.7590   71.2570  222.4830 O   0  0  0  0  0  0  0  0  0  0  0  0
  138.7860   72.2140  221.7390 N   0  0  0  0  0  0  0  0  0  0  0  0
  139.4710   72.9600  220.7010 C   0  0  0  0  0  0  0  0  0  0  0  0
  140.9130   72.5980  220.8170 C   0  0  0  0  0  0  0  0  0  0  0  0
  140.8620   71.1930  221.4000 C   0  0  0  0  0  0  0  0  0  0  0  0
  139.7710   71.3660  222.4330 C   0  0  1  0  0  0  0  0  0  0  0  0
  140.3350   72.0640  223.6310 C   0  0  0  0  0  0  0  0  0  0  0  0
  140.4210   71.2240  224.8470 C   0  0  0  0  0  0  0  0  0  0  0  0
  140.9580   71.6560  226.0410 C   0  0  0  0  0  0  0  0  0  0  0  0
  141.0320   70.8420  227.1680 C   0  0  0  0  0  0  0  0  0  0  0  0
  140.5580   69.5470  227.1220 C   0  0  0  0  0  0  0  0  0  0  0  0
  140.6420   68.5090  228.5300 Cl  0  0  0  0  0  0  0  0  0  0  0  0
  140.0150   69.0920  225.9390 C   0  0  0  0  0  0  0  0  0  0  0  0
  139.9480   69.9080  224.8280 C   0  0  0  0  0  0  0  0  0  0  0  0
  137.8900   77.0900  222.2680 C   0  0  0  0  0  0  0  0  0  0  0  0
  137.2630   78.2630  222.6680 C   0  0  0  0  0  0  0  0  0  0  0  0
  137.9850   79.3590  223.1240 C   0  0  0  0  0  0  0  0  0  0  0  0
  139.3610   79.2950  223.1840 C   0  0  0  0  0  0  0  0  0  0  0  0
  140.1500   80.3380  223.6230 C   0  0  0  0  0  0  0  0  0  0  0  0
  141.5380   80.2150  223.6600 C   0  0  0  0  0  0  0  0  0  0  0  0
  142.5560   81.5400  224.2190 Cl  0  0  0  0  0  0  0  0  0  0  0  0
  142.1030   79.0210  223.2480 C   0  0  0  0  0  0  0  0  0  0  0  0
  141.3500   77.9530  222.8020 C   0  0  0  0  0  0  0  0  0  0  0  0
  139.9760   78.1090  222.7760 C   0  0  0  0  0  0  0  0  0  0  0  0
  139.2330   77.0780  222.3450 N   0  0  0  0  0  0  0  0  0  0  0  0
  138.1520   74.5340  223.0940 H   0  0  0  0  0  0  0  0  0  0  0  0
  135.7469   73.4735  222.4976 H   0  0  0  0  0  0  0  0  0  0  0  0
  136.4929   73.6730  220.8396 H   0  0  0  0  0  0  0  0  0  0  0  0
  139.0849   72.6786  219.7102 H   0  0  0  0  0  0  0  0  0  0  0  0
  139.3174   74.0432  220.8157 H   0  0  0  0  0  0  0  0  0  0  0  0
  141.4027   72.6007  219.8320 H   0  0  0  0  0  0  0  0  0  0  0  0
  141.4912   73.3038  221.4315 H   0  0  0  0  0  0  0  0  0  0  0  0
  140.5874   70.4470  220.6397 H   0  0  0  0  0  0  0  0  0  0  0  0
  141.8190   70.8262  221.7994 H   0  0  0  0  0  0  0  0  0  0  0  0
  139.3340   70.4228  222.7927 H   0  0  0  0  0  0  0  0  0  0  0  0
  141.3484   72.4112  223.3809 H   0  0  0  0  0  0  0  0  0  0  0  0
  139.6445   72.8870  223.8675 H   0  0  0  0  0  0  0  0  0  0  0  0
  141.3431   72.6843  226.1058 H   0  0  0  0  0  0  0  0  0  0  0  0
  141.4699   71.2326  228.0984 H   0  0  0  0  0  0  0  0  0  0  0  0
  139.6295   68.0634  225.8799 H   0  0  0  0  0  0  0  0  0  0  0  0
  139.5097   69.5116  223.9002 H   0  0  0  0  0  0  0  0  0  0  0  0
  136.1657   78.3260  222.6226 H   0  0  0  0  0  0  0  0  0  0  0  0
  137.4608   80.2744  223.4360 H   0  0  0  0  0  0  0  0  0  0  0  0
  139.6785   81.2773  223.9475 H   0  0  0  0  0  0  0  0  0  0  0  0
  143.1978   78.9183  223.2770 H   0  0  0  0  0  0  0  0  0  0  0  0
  141.8246   77.0144  222.4798 H   0  0  0  0  0  0  0  0  0  0  0  0
  1  2  2  0
  2  3  1  0
  3  4  1  0
  4  5  1  0
  5  6  2  0
  5  7  1  0
  7  8  1  0
  8  9  1  0
  9 10  1  0
 10 11  1  0
 11 12  1  0
 12 13  1  0
 13 14  2  0
 14 15  1  0
 15 16  2  0
 16 17  1  0
 16 18  1  0
 18 19  2  0
  2 20  1  0
 20 21  2  0
 21 22  1  0
 22 23  2  0
 23 24  1  0
 24 25  2  0
 25 26  1  0
 25 27  1  0
 27 28  2  0
 28 29  1  0
 29 30  2  0
 11  7  1  0
 19 13  1  0
 30 20  1  0
 29 23  1  0
  3 31  1  0
  4 32  1  0
  4 33  1  0
  8 34  1  0
  8 35  1  0
  9 36  1  0
  9 37  1  0
 10 38  1  0
 10 39  1  0
 11 40  1  1
 12 41  1  0
 12 42  1  0
 14 43  1  0
 15 44  1  0
 18 45  1  0
 19 46  1  0
 21 47  1  0
 22 48  1  0
 24 49  1  0
 27 50  1  0
 28 51  1  0
M  END
>  <smiles>  (7) 
O=C(NCC(=O)N1CCC[C@H]1Cc1ccc(Cl)cc1)c1ccc2cc(Cl)ccc2n1

>  <score_type>  (7) 
oracle

>  <origin>  (7) 
autodockgpu

>  <m_score__min__energy>  (7) 
-8.8200000000000003

>  <m_primary>  (7) 
energy

>  <rmsd>  (7) 
7.422373462860674

>  <m_score__min__rmsd>  (7) 
7.422373462860674

>  <meeko>  (7) 
{"free_energy": -8.25, "intermolecular_energy": -10.04, "internal_energy": -1.57, "cluster_size": 4, "cluster_id": 5, "rank_in_cluster": 1}

>  <energy>  (7) 
-8.25

>  <cluster_rmsd>  (7) 
1.31

>  <cluster>  (7) 
1

$$$$

     RDKit          3D

 51 54  0  0  0  0  0  0  0  0999 V2000
  134.5360   70.7020  225.2400 O   0  0  0  0  0  0  0  0  0  0  0  0
  134.8000   71.9340  225.2460 C   0  0  0  0  0  0  0  0  0  0  0  0
  135.9460   72.4550  224.5830 N   0  0  0  0  0  0  0  0  0  0  0  0
  136.8070   71.5460  223.9000 C   0  0  0  0  0  0  0  0  0  0  0  0
  136.1820   70.9030  222.7290 C   0  0  0  0  0  0  0  0  0  0  0  0
  135.1730   71.4650  222.2140 O   0  0  0  0  0  0  0  0  0  0  0  0
  136.7330   69.6910  222.2340 N   0  0  0  0  0  0  0  0  0  0  0  0
  136.6270   69.1610  220.8880 C   0  0  0  0  0  0  0  0  0  0  0  0
  137.4290   67.9040  220.8760 C   0  0  0  0  0  0  0  0  0  0  0  0
  137.3430   67.4360  222.3220 C   0  0  0  0  0  0  0  0  0  0  0  0
  137.5250   68.7510  223.0460 C   0  0  1  0  0  0  0  0  0  0  0  0
  138.9760   69.1200  223.0360 C   0  0  0  0  0  0  0  0  0  0  0  0
  139.4720   69.6950  224.3070 C   0  0  0  0  0  0  0  0  0  0  0  0
  139.2760   69.1130  225.5410 C   0  0  0  0  0  0  0  0  0  0  0  0
  139.7490   69.6800  226.7210 C   0  0  0  0  0  0  0  0  0  0  0  0
  140.4450   70.8700  226.6900 C   0  0  0  0  0  0  0  0  0  0  0  0
  141.0470   71.5980  228.1640 Cl  0  0  0  0  0  0  0  0  0  0  0  0
  140.6540   71.4730  225.4670 C   0  0  0  0  0  0  0  0  0  0  0  0
  140.1810   70.9020  224.3040 C   0  0  0  0  0  0  0  0  0  0  0  0
  133.9330   72.8940  225.9400 C   0  0  0  0  0  0  0  0  0  0  0  0
  132.7310   72.4960  226.5090 C   0  0  0  0  0  0  0  0  0  0  0  0
  131.9020   73.3940  227.1700 C   0  0  0  0  0  0  0  0  0  0  0  0
  132.2700   74.7190  227.2690 C   0  0  0  0  0  0  0  0  0  0  0  0
  131.5040   75.6730  227.9060 C   0  0  0  0  0  0  0  0  0  0  0  0
  131.9270   76.9990  227.9740 C   0  0  0  0  0  0  0  0  0  0  0  0
  130.9580   78.2260  228.7860 Cl  0  0  0  0  0  0  0  0  0  0  0  0
  133.1350   77.3330  227.3870 C   0  0  0  0  0  0  0  0  0  0  0  0
  133.9320   76.4100  226.7400 C   0  0  0  0  0  0  0  0  0  0  0  0
  133.4810   75.1040  226.6900 C   0  0  0  0  0  0  0  0  0  0  0  0
  134.2470   74.1960  226.0630 N   0  0  0  0  0  0  0  0  0  0  0  0
  136.1880   73.4760  224.5740 H   0  0  0  0  0  0  0  0  0  0  0  0
  137.6954   72.0983  223.5598 H   0  0  0  0  0  0  0  0  0  0  0  0
  137.0574   70.7448  224.6110 H   0  0  0  0  0  0  0  0  0  0  0  0
  135.5762   68.9461  220.6437 H   0  0  0  0  0  0  0  0  0  0  0  0
  136.9952   69.8806  220.1419 H   0  0  0  0  0  0  0  0  0  0  0  0
  136.9917   67.1614  220.1924 H   0  0  0  0  0  0  0  0  0  0  0  0
  138.4616   68.0493  220.5257 H   0  0  0  0  0  0  0  0  0  0  0  0
  136.3665   66.9811  222.5446 H   0  0  0  0  0  0  0  0  0  0  0  0
  138.0689   66.6563  222.5964 H   0  0  0  0  0  0  0  0  0  0  0  0
  137.2088   68.7359  224.0995 H   0  0  0  0  0  0  0  0  0  0  0  0
  139.5596   68.2134  222.8182 H   0  0  0  0  0  0  0  0  0  0  0  0
  139.0947   69.9019  222.2715 H   0  0  0  0  0  0  0  0  0  0  0  0
  138.7241   68.1630  225.5955 H   0  0  0  0  0  0  0  0  0  0  0  0
  139.5668   69.1768  227.6820 H   0  0  0  0  0  0  0  0  0  0  0  0
  141.2060   72.4232  225.4186 H   0  0  0  0  0  0  0  0  0  0  0  0
  140.3663   71.4099  223.3461 H   0  0  0  0  0  0  0  0  0  0  0  0
  132.4267   71.4416  226.4346 H   0  0  0  0  0  0  0  0  0  0  0  0
  130.9558   73.0492  227.6126 H   0  0  0  0  0  0  0  0  0  0  0  0
  130.5476   75.3835  228.3659 H   0  0  0  0  0  0  0  0  0  0  0  0
  133.4744   78.3781  227.4381 H   0  0  0  0  0  0  0  0  0  0  0  0
  134.8886   76.7022  226.2821 H   0  0  0  0  0  0  0  0  0  0  0  0
  1  2  2  0
  2  3  1  0
  3  4  1  0
  4  5  1  0
  5  6  2  0
  5  7  1  0
  7  8  1  0
  8  9  1  0
  9 10  1  0
 10 11  1  0
 11 12  1  0
 12 13  1  0
 13 14  2  0
 14 15  1  0
 15 16  2  0
 16 17  1  0
 16 18  1  0
 18 19  2  0
  2 20  1  0
 20 21  2  0
 21 22  1  0
 22 23  2  0
 23 24  1  0
 24 25  2  0
 25 26  1  0
 25 27  1  0
 27 28  2  0
 28 29  1  0
 29 30  2  0
 11  7  1  0
 19 13  1  0
 30 20  1  0
 29 23  1  0
  3 31  1  0
  4 32  1  0
  4 33  1  0
  8 34  1  0
  8 35  1  0
  9 36  1  0
  9 37  1  0
 10 38  1  0
 10 39  1  0
 11 40  1  1
 12 41  1  0
 12 42  1  0
 14 43  1  0
 15 44  1  0
 18 45  1  0
 19 46  1  0
 21 47  1  0
 22 48  1  0
 24 49  1  0
 27 50  1  0
 28 51  1  0
M  END
>  <smiles>  (8) 
O=C(NCC(=O)N1CCC[C@H]1Cc1ccc(Cl)cc1)c1ccc2cc(Cl)ccc2n1

>  <score_type>  (8) 
oracle

>  <origin>  (8) 
autodockgpu

>  <m_score__min__energy>  (8) 
-8.8200000000000003

>  <m_primary>  (8) 
energy

>  <rmsd>  (8) 
8.404031689458229

>  <m_score__min__rmsd>  (8) 
8.404031689458229

>  <meeko>  (8) 
{"free_energy": -7.44, "intermolecular_energy": -9.23, "internal_energy": -1.76, "cluster_size": 12, "cluster_id": 2, "rank_in_cluster": 12}

>  <energy>  (8) 
-8.09

>  <cluster_rmsd>  (8) 
0.89

>  <cluster>  (8) 
1

$$$$

     RDKit          3D

 51 54  0  0  0  0  0  0  0  0999 V2000
  137.9420   72.4500  222.1050 O   0  0  0  0  0  0  0  0  0  0  0  0
  138.7990   71.5280  222.1450 C   0  0  0  0  0  0  0  0  0  0  0  0
  139.2130   70.8410  220.9700 N   0  0  0  0  0  0  0  0  0  0  0  0
  138.6320   71.2210  219.7220 C   0  0  0  0  0  0  0  0  0  0  0  0
  139.0410   72.5600  219.2610 C   0  0  0  0  0  0  0  0  0  0  0  0
  138.2520   73.1890  218.4990 O   0  0  0  0  0  0  0  0  0  0  0  0
  140.2920   73.0830  219.6860 N   0  0  0  0  0  0  0  0  0  0  0  0
  141.6110   72.6740  219.2450 C   0  0  0  0  0  0  0  0  0  0  0  0
  142.5750   73.5720  219.9440 C   0  0  0  0  0  0  0  0  0  0  0  0
  141.8340   73.9310  221.2240 C   0  0  0  0  0  0  0  0  0  0  0  0
  140.4430   74.1610  220.6780 C   0  0  1  0  0  0  0  0  0  0  0  0
  140.3870   75.5070  220.0260 C   0  0  0  0  0  0  0  0  0  0  0  0
  140.8220   76.6270  220.8910 C   0  0  0  0  0  0  0  0  0  0  0  0
  140.6600   76.6470  222.2600 C   0  0  0  0  0  0  0  0  0  0  0  0
  141.0740   77.7180  223.0480 C   0  0  0  0  0  0  0  0  0  0  0  0
  141.6730   78.8160  222.4680 C   0  0  0  0  0  0  0  0  0  0  0  0
  142.2000   80.1720  223.4440 Cl  0  0  0  0  0  0  0  0  0  0  0  0
  141.8470   78.8200  221.1000 C   0  0  0  0  0  0  0  0  0  0  0  0
  141.4330   77.7530  220.3290 C   0  0  0  0  0  0  0  0  0  0  0  0
  139.4140   71.1160  223.4120 C   0  0  0  0  0  0  0  0  0  0  0  0
  140.3470   71.9190  224.0530 C   0  0  0  0  0  0  0  0  0  0  0  0
  140.9360   71.5420  225.2540 C   0  0  0  0  0  0  0  0  0  0  0  0
  140.5930   70.3400  225.8350 C   0  0  0  0  0  0  0  0  0  0  0  0
  141.1310   69.8920  227.0240 C   0  0  0  0  0  0  0  0  0  0  0  0
  140.7470   68.6660  227.5640 C   0  0  0  0  0  0  0  0  0  0  0  0
  141.4270   68.0840  229.0810 Cl  0  0  0  0  0  0  0  0  0  0  0  0
  139.8120   67.9100  226.8770 C   0  0  0  0  0  0  0  0  0  0  0  0
  139.2490   68.3220  225.6860 C   0  0  0  0  0  0  0  0  0  0  0  0
  139.6540   69.5420  225.1780 C   0  0  0  0  0  0  0  0  0  0  0  0
  139.1140   69.9530  224.0200 N   0  0  0  0  0  0  0  0  0  0  0  0
  139.9230   70.0700  220.9760 H   0  0  0  0  0  0  0  0  0  0  0  0
  138.9317   70.4853  218.9611 H   0  0  0  0  0  0  0  0  0  0  0  0
  137.5425   71.2512  219.8707 H   0  0  0  0  0  0  0  0  0  0  0  0
  141.7976   71.6253  219.5194 H   0  0  0  0  0  0  0  0  0  0  0  0
  141.7113   72.7479  218.1521 H   0  0  0  0  0  0  0  0  0  0  0  0
  143.5164   73.0476  220.1649 H   0  0  0  0  0  0  0  0  0  0  0  0
  142.8639   74.4497  219.3472 H   0  0  0  0  0  0  0  0  0  0  0  0
  141.8542   73.1055  221.9507 H   0  0  0  0  0  0  0  0  0  0  0  0
  142.2574   74.7826  221.7768 H   0  0  0  0  0  0  0  0  0  0  0  0
  139.6491   74.1455  221.4393 H   0  0  0  0  0  0  0  0  0  0  0  0
  141.0365   75.4861  219.1385 H   0  0  0  0  0  0  0  0  0  0  0  0
  139.3306   75.6925  219.7818 H   0  0  0  0  0  0  0  0  0  0  0  0
  140.1853   75.7835  222.7488 H   0  0  0  0  0  0  0  0  0  0  0  0
  140.9226   77.6878  224.1371 H   0  0  0  0  0  0  0  0  0  0  0  0
  142.3226   79.6861  220.6165 H   0  0  0  0  0  0  0  0  0  0  0  0
  141.5880   77.7889  219.2406 H   0  0  0  0  0  0  0  0  0  0  0  0
  140.6280   72.8802  223.5979 H   0  0  0  0  0  0  0  0  0  0  0  0
  141.6725   72.1998  225.7387 H   0  0  0  0  0  0  0  0  0  0  0  0
  141.8720   70.5101  227.5521 H   0  0  0  0  0  0  0  0  0  0  0  0
  139.5053   66.9411  227.2979 H   0  0  0  0  0  0  0  0  0  0  0  0
  138.5064   67.7031  225.1612 H   0  0  0  0  0  0  0  0  0  0  0  0
  1  2  2  0
  2  3  1  0
  3  4  1  0
  4  5  1  0
  5  6  2  0
  5  7  1  0
  7  8  1  0
  8  9  1  0
  9 10  1  0
 10 11  1  0
 11 12  1  0
 12 13  1  0
 13 14  2  0
 14 15  1  0
 15 16  2  0
 16 17  1  0
 16 18  1  0
 18 19  2  0
  2 20  1  0
 20 21  2  0
 21 22  1  0
 22 23  2  0
 23 24  1  0
 24 25  2  0
 25 26  1  0
 25 27  1  0
 27 28  2  0
 28 29  1  0
 29 30  2  0
 11  7  1  0
 19 13  1  0
 30 20  1  0
 29 23  1  0
  3 31  1  0
  4 32  1  0
  4 33  1  0
  8 34  1  0
  8 35  1  0
  9 36  1  0
  9 37  1  0
 10 38  1  0
 10 39  1  0
 11 40  1  1
 12 41  1  0
 12 42  1  0
 14 43  1  0
 15 44  1  0
 18 45  1  0
 19 46  1  0
 21 47  1  0
 22 48  1  0
 24 49  1  0
 27 50  1  0
 28 51  1  0
M  END
>  <smiles>  (9) 
O=C(NCC(=O)N1CCC[C@H]1Cc1ccc(Cl)cc1)c1ccc2cc(Cl)ccc2n1

>  <score_type>  (9) 
oracle

>  <origin>  (9) 
autodockgpu

>  <m_score__min__energy>  (9) 
-8.8200000000000003

>  <m_primary>  (9) 
energy

>  <rmsd>  (9) 
3.5269985300076034

>  <m_score__min__rmsd>  (9) 
3.5269985300076034

>  <meeko>  (9) 
{"free_energy": -7.15, "intermolecular_energy": -8.94, "internal_energy": -1.8, "cluster_size": 13, "cluster_id": 1, "rank_in_cluster": 13}

>  <energy>  (9) 
-7.86

>  <cluster_rmsd>  (9) 
1.75

>  <cluster>  (9) 
1

$$$$

     RDKit          3D

 51 54  0  0  0  0  0  0  0  0999 V2000
  133.6860   70.1870  226.5220 O   0  0  0  0  0  0  0  0  0  0  0  0
  133.9980   71.3300  226.0950 C   0  0  0  0  0  0  0  0  0  0  0  0
  135.0010   71.5100  225.1030 N   0  0  0  0  0  0  0  0  0  0  0  0
  135.6610   70.3530  224.5890 C   0  0  0  0  0  0  0  0  0  0  0  0
  136.6340   70.6510  223.5210 C   0  0  0  0  0  0  0  0  0  0  0  0
  137.0430   71.8410  223.4090 O   0  0  0  0  0  0  0  0  0  0  0  0
  137.0650   69.5980  222.6700 N   0  0  0  0  0  0  0  0  0  0  0  0
  136.9890   69.5490  221.2230 C   0  0  0  0  0  0  0  0  0  0  0  0
  137.6290   68.2640  220.8210 C   0  0  0  0  0  0  0  0  0  0  0  0
  137.3860   67.3720  222.0300 C   0  0  0  0  0  0  0  0  0  0  0  0
  137.6770   68.3470  223.1490 C   0  0  1  0  0  0  0  0  0  0  0  0
  139.1590   68.4930  223.2990 C   0  0  0  0  0  0  0  0  0  0  0  0
  139.5830   69.2880  224.4740 C   0  0  0  0  0  0  0  0  0  0  0  0
  139.5610   68.8150  225.7680 C   0  0  0  0  0  0  0  0  0  0  0  0
  139.9600   69.5880  226.8550 C   0  0  0  0  0  0  0  0  0  0  0  0
  140.3980   70.8810  226.6650 C   0  0  0  0  0  0  0  0  0  0  0  0
  140.9030   71.8680  228.0210 Cl  0  0  0  0  0  0  0  0  0  0  0  0
  140.4300   71.3780  225.3780 C   0  0  0  0  0  0  0  0  0  0  0  0
  140.0320   70.6030  224.3090 C   0  0  0  0  0  0  0  0  0  0  0  0
  133.3360   72.5380  226.6040 C   0  0  0  0  0  0  0  0  0  0  0  0
  132.1260   72.4630  227.2800 C   0  0  0  0  0  0  0  0  0  0  0  0
  131.4890   73.5980  227.7670 C   0  0  0  0  0  0  0  0  0  0  0  0
  132.0640   74.8370  227.5810 C   0  0  0  0  0  0  0  0  0  0  0  0
  131.4970   76.0110  228.0330 C   0  0  0  0  0  0  0  0  0  0  0  0
  132.1240   77.2370  227.8140 C   0  0  0  0  0  0  0  0  0  0  0  0
  131.4090   78.7420  228.3870 Cl  0  0  0  0  0  0  0  0  0  0  0  0
  133.3290   77.2450  227.1340 C   0  0  0  0  0  0  0  0  0  0  0  0
  133.9300   76.0940  226.6650 C   0  0  0  0  0  0  0  0  0  0  0  0
  133.2810   74.8960  226.8980 C   0  0  0  0  0  0  0  0  0  0  0  0
  133.8550   73.7690  226.4480 N   0  0  0  0  0  0  0  0  0  0  0  0
  135.2790   72.4500  224.7310 H   0  0  0  0  0  0  0  0  0  0  0  0
  136.1932   69.8605  225.4162 H   0  0  0  0  0  0  0  0  0  0  0  0
  134.8855   69.7101  224.1472 H   0  0  0  0  0  0  0  0  0  0  0  0
  135.9395   69.5725  220.8944 H   0  0  0  0  0  0  0  0  0  0  0  0
  137.4940   70.4116  220.7637 H   0  0  0  0  0  0  0  0  0  0  0  0
  137.1526   67.8490  219.9206 H   0  0  0  0  0  0  0  0  0  0  0  0
  138.6936   68.3696  220.5653 H   0  0  0  0  0  0  0  0  0  0  0  0
  136.3481   67.0093  222.0660 H   0  0  0  0  0  0  0  0  0  0  0  0
  137.9895   66.4526  222.0522 H   0  0  0  0  0  0  0  0  0  0  0  0
  137.2881   68.0394  224.1309 H   0  0  0  0  0  0  0  0  0  0  0  0
  139.5957   67.4874  223.3891 H   0  0  0  0  0  0  0  0  0  0  0  0
  139.5108   69.0373  222.4102 H   0  0  0  0  0  0  0  0  0  0  0  0
  139.2148   67.7868  225.9492 H   0  0  0  0  0  0  0  0  0  0  0  0
  139.9256   69.1650  227.8698 H   0  0  0  0  0  0  0  0  0  0  0  0
  140.7778   72.4067  225.2024 H   0  0  0  0  0  0  0  0  0  0  0  0
  140.0686   71.0313  223.2965 H   0  0  0  0  0  0  0  0  0  0  0  0
  131.6590   71.4791  227.4343 H   0  0  0  0  0  0  0  0  0  0  0  0
  130.5302   73.5081  228.2986 H   0  0  0  0  0  0  0  0  0  0  0  0
  130.5389   75.9793  228.5725 H   0  0  0  0  0  0  0  0  0  0  0  0
  133.8292   78.2091  226.9598 H   0  0  0  0  0  0  0  0  0  0  0  0
  134.8886   76.1289  226.1265 H   0  0  0  0  0  0  0  0  0  0  0  0
  1  2  2  0
  2  3  1  0
  3  4  1  0
  4  5  1  0
  5  6  2  0
  5  7  1  0
  7  8  1  0
  8  9  1  0
  9 10  1  0
 10 11  1  0
 11 12  1  0
 12 13  1  0
 13 14  2  0
 14 15  1  0
 15 16  2  0
 16 17  1  0
 16 18  1  0
 18 19  2  0
  2 20  1  0
 20 21  2  0
 21 22  1  0
 22 23  2  0
 23 24  1  0
 24 25  2  0
 25 26  1  0
 25 27  1  0
 27 28  2  0
 28 29  1  0
 29 30  2  0
 11  7  1  0
 19 13  1  0
 30 20  1  0
 29 23  1  0
  3 31  1  0
  4 32  1  0
  4 33  1  0
  8 34  1  0
  8 35  1  0
  9 36  1  0
  9 37  1  0
 10 38  1  0
 10 39  1  0
 11 40  1  1
 12 41  1  0
 12 42  1  0
 14 43  1  0
 15 44  1  0
 18 45  1  0
 19 46  1  0
 21 47  1  0
 22 48  1  0
 24 49  1  0
 27 50  1  0
 28 51  1  0
M  END
>  <smiles>  (10) 
O=C(NCC(=O)N1CCC[C@H]1Cc1ccc(Cl)cc1)c1ccc2cc(Cl)ccc2n1

>  <score_type>  (10) 
oracle

>  <origin>  (10) 
autodockgpu

>  <m_score__min__energy>  (10) 
-8.8200000000000003

>  <m_primary>  (10) 
energy

>  <rmsd>  (10) 
8.667327985572657

>  <m_score__min__rmsd>  (10) 
8.667327985572657

>  <meeko>  (10) 
{"free_energy": -7.91, "intermolecular_energy": -9.7, "internal_energy": -2.19, "cluster_size": 12, "cluster_id": 2, "rank_in_cluster": 5}

>  <energy>  (10) 
-7.8

>  <cluster_rmsd>  (10) 
1.9

>  <cluster>  (10) 
1

$$$$

     RDKit          3D

 51 54  0  0  0  0  0  0  0  0999 V2000
  140.7540   73.9720  221.9530 O   0  0  0  0  0  0  0  0  0  0  0  0
  140.0450   72.9330  221.8780 C   0  0  0  0  0  0  0  0  0  0  0  0
  139.2400   72.6580  220.7380 N   0  0  0  0  0  0  0  0  0  0  0  0
  139.2480   73.5940  219.6610 C   0  0  0  0  0  0  0  0  0  0  0  0
  138.2290   74.6520  219.7870 C   0  0  0  0  0  0  0  0  0  0  0  0
  137.3380   74.7240  218.8940 O   0  0  0  0  0  0  0  0  0  0  0  0
  138.2920   75.5400  220.8940 N   0  0  0  0  0  0  0  0  0  0  0  0
  137.8000   75.3070  222.2380 C   0  0  0  0  0  0  0  0  0  0  0  0
  138.1690   76.5170  223.0270 C   0  0  0  0  0  0  0  0  0  0  0  0
  138.1970   77.6130  221.9710 C   0  0  0  0  0  0  0  0  0  0  0  0
  138.8910   76.8850  220.8420 C   0  0  1  0  0  0  0  0  0  0  0  0
  140.3610   76.8330  221.1210 C   0  0  0  0  0  0  0  0  0  0  0  0
  140.8910   78.0120  221.8430 C   0  0  0  0  0  0  0  0  0  0  0  0
  141.0200   79.2640  221.2780 C   0  0  0  0  0  0  0  0  0  0  0  0
  141.5280   80.3530  221.9800 C   0  0  0  0  0  0  0  0  0  0  0  0
  141.9270   80.2100  223.2920 C   0  0  0  0  0  0  0  0  0  0  0  0
  142.5690   81.5700  224.1890 Cl  0  0  0  0  0  0  0  0  0  0  0  0
  141.8080   78.9680  223.8790 C   0  0  0  0  0  0  0  0  0  0  0  0
  141.3030   77.8950  223.1740 C   0  0  0  0  0  0  0  0  0  0  0  0
  140.0170   71.9520  222.9700 C   0  0  0  0  0  0  0  0  0  0  0  0
  139.4500   70.6970  222.7950 C   0  0  0  0  0  0  0  0  0  0  0  0
  139.4180   69.7590  223.8190 C   0  0  0  0  0  0  0  0  0  0  0  0
  139.9600   70.0710  225.0480 C   0  0  0  0  0  0  0  0  0  0  0  0
  139.9680   69.1970  226.1160 C   0  0  0  0  0  0  0  0  0  0  0  0
  140.5300   69.5670  227.3360 C   0  0  0  0  0  0  0  0  0  0  0  0
  140.5460   68.4610  228.7060 Cl  0  0  0  0  0  0  0  0  0  0  0  0
  141.0800   70.8330  227.4480 C   0  0  0  0  0  0  0  0  0  0  0  0
  141.0930   71.7370  226.4050 C   0  0  0  0  0  0  0  0  0  0  0  0
  140.5260   71.3370  225.2090 C   0  0  0  0  0  0  0  0  0  0  0  0
  140.5320   72.2070  224.1870 N   0  0  0  0  0  0  0  0  0  0  0  0
  138.6410   71.8020  220.6520 H   0  0  0  0  0  0  0  0  0  0  0  0
  140.2391   74.0695  219.6216 H   0  0  0  0  0  0  0  0  0  0  0  0
  139.0154   73.0315  218.7448 H   0  0  0  0  0  0  0  0  0  0  0  0
  136.7079   75.1760  222.2277 H   0  0  0  0  0  0  0  0  0  0  0  0
  138.2341   74.3948  222.6732 H   0  0  0  0  0  0  0  0  0  0  0  0
  137.4161   76.7307  223.7999 H   0  0  0  0  0  0  0  0  0  0  0  0
  139.1203   76.4100  223.5688 H   0  0  0  0  0  0  0  0  0  0  0  0
  137.1827   77.9306  221.6874 H   0  0  0  0  0  0  0  0  0  0  0  0
  138.6884   78.5446  222.2881 H   0  0  0  0  0  0  0  0  0  0  0  0
  138.7727   77.3594  219.8566 H   0  0  0  0  0  0  0  0  0  0  0  0
  140.5640   75.9385  221.7281 H   0  0  0  0  0  0  0  0  0  0  0  0
  140.8645   76.8126  220.1432 H   0  0  0  0  0  0  0  0  0  0  0  0
  140.7094   79.4070  220.2325 H   0  0  0  0  0  0  0  0  0  0  0  0
  141.6116   81.3322  221.4859 H   0  0  0  0  0  0  0  0  0  0  0  0
  142.1203   78.8307  224.9248 H   0  0  0  0  0  0  0  0  0  0  0  0
  141.2221   76.9185  223.6738 H   0  0  0  0  0  0  0  0  0  0  0  0
  139.0141   70.4383  221.8187 H   0  0  0  0  0  0  0  0  0  0  0  0
  138.9625   68.7721  223.6504 H   0  0  0  0  0  0  0  0  0  0  0  0
  139.5254   68.1964  226.0027 H   0  0  0  0  0  0  0  0  0  0  0  0
  141.5253   71.1308  228.4087 H   0  0  0  0  0  0  0  0  0  0  0  0
  141.5371   72.7367  226.5208 H   0  0  0  0  0  0  0  0  0  0  0  0
  1  2  2  0
  2  3  1  0
  3  4  1  0
  4  5  1  0
  5  6  2  0
  5  7  1  0
  7  8  1  0
  8  9  1  0
  9 10  1  0
 10 11  1  0
 11 12  1  0
 12 13  1  0
 13 14  2  0
 14 15  1  0
 15 16  2  0
 16 17  1  0
 16 18  1  0
 18 19  2  0
  2 20  1  0
 20 21  2  0
 21 22  1  0
 22 23  2  0
 23 24  1  0
 24 25  2  0
 25 26  1  0
 25 27  1  0
 27 28  2  0
 28 29  1  0
 29 30  2  0
 11  7  1  0
 19 13  1  0
 30 20  1  0
 29 23  1  0
  3 31  1  0
  4 32  1  0
  4 33  1  0
  8 34  1  0
  8 35  1  0
  9 36  1  0
  9 37  1  0
 10 38  1  0
 10 39  1  0
 11 40  1  6
 12 41  1  0
 12 42  1  0
 14 43  1  0
 15 44  1  0
 18 45  1  0
 19 46  1  0
 21 47  1  0
 22 48  1  0
 24 49  1  0
 27 50  1  0
 28 51  1  0
M  END
>  <smiles>  (11) 
O=C(NCC(=O)N1CCC[C@H]1Cc1ccc(Cl)cc1)c1ccc2cc(Cl)ccc2n1

>  <score_type>  (11) 
oracle

>  <origin>  (11) 
autodockgpu

>  <m_score__min__energy>  (11) 
-8.8200000000000003

>  <m_primary>  (11) 
energy

>  <rmsd>  (11) 
2.989153672570632

>  <m_score__min__rmsd>  (11) 
2.989153672570632

>  <meeko>  (11) 
{"free_energy": -8.37, "intermolecular_energy": -10.16, "internal_energy": -1.68, "cluster_size": 13, "cluster_id": 1, "rank_in_cluster": 5}

>  <energy>  (11) 
-7.78

>  <cluster_rmsd>  (11) 
1.17

>  <cluster>  (11) 
1

$$$$

     RDKit          3D

 51 54  0  0  0  0  0  0  0  0999 V2000
  141.9750   73.0920  220.7720 O   0  0  0  0  0  0  0  0  0  0  0  0
  141.1100   73.8830  221.2340 C   0  0  0  0  0  0  0  0  0  0  0  0
  139.9110   73.4110  221.8360 N   0  0  0  0  0  0  0  0  0  0  0  0
  139.6980   72.0020  221.9110 C   0  0  0  0  0  0  0  0  0  0  0  0
  138.3090   71.6270  222.2320 C   0  0  0  0  0  0  0  0  0  0  0  0
  137.5200   72.5440  222.5980 O   0  0  0  0  0  0  0  0  0  0  0  0
  137.9200   70.2650  222.1200 N   0  0  0  0  0  0  0  0  0  0  0  0
  137.7940   69.4830  220.9060 C   0  0  0  0  0  0  0  0  0  0  0  0
  137.4220   68.1060  221.3400 C   0  0  0  0  0  0  0  0  0  0  0  0
  136.6840   68.3530  222.6490 C   0  0  0  0  0  0  0  0  0  0  0  0
  137.5720   69.4090  223.2670 C   0  0  1  0  0  0  0  0  0  0  0  0
  138.7890   68.7530  223.8400 C   0  0  0  0  0  0  0  0  0  0  0  0
  139.4160   69.4910  224.9600 C   0  0  0  0  0  0  0  0  0  0  0  0
  139.2830   69.1340  226.2850 C   0  0  0  0  0  0  0  0  0  0  0  0
  139.8790   69.8520  227.3170 C   0  0  0  0  0  0  0  0  0  0  0  0
  140.6400   70.9680  227.0400 C   0  0  0  0  0  0  0  0  0  0  0  0
  141.3980   71.8820  228.3270 Cl  0  0  0  0  0  0  0  0  0  0  0  0
  140.7890   71.3450  225.7210 C   0  0  0  0  0  0  0  0  0  0  0  0
  140.1930   70.6270  224.7060 C   0  0  0  0  0  0  0  0  0  0  0  0
  141.3010   75.3370  221.1730 C   0  0  0  0  0  0  0  0  0  0  0  0
  142.0420   75.9230  220.1550 C   0  0  0  0  0  0  0  0  0  0  0  0
  142.2300   77.2970  220.0850 C   0  0  0  0  0  0  0  0  0  0  0  0
  141.6710   78.1140  221.0450 C   0  0  0  0  0  0  0  0  0  0  0  0
  141.8100   79.4860  221.0470 C   0  0  0  0  0  0  0  0  0  0  0  0
  141.2230   80.2610  222.0460 C   0  0  0  0  0  0  0  0  0  0  0  0
  141.3940   82.0140  222.0590 Cl  0  0  0  0  0  0  0  0  0  0  0  0
  140.4960   79.6180  223.0330 C   0  0  0  0  0  0  0  0  0  0  0  0
  140.3320   78.2480  223.0670 C   0  0  0  0  0  0  0  0  0  0  0  0
  140.9290   77.5100  222.0620 C   0  0  0  0  0  0  0  0  0  0  0  0
  140.7770   76.1760  222.0840 N   0  0  0  0  0  0  0  0  0  0  0  0
  139.1760   74.0490  222.2280 H   0  0  0  0  0  0  0  0  0  0  0  0
  139.9611   71.5592  220.9390 H   0  0  0  0  0  0  0  0  0  0  0  0
  140.3290   71.6255  222.7295 H   0  0  0  0  0  0  0  0  0  0  0  0
  137.0103   69.9047  220.2595 H   0  0  0  0  0  0  0  0  0  0  0  0
  138.7297   69.4838  220.3277 H   0  0  0  0  0  0  0  0  0  0  0  0
  136.7670   67.6211  220.6012 H   0  0  0  0  0  0  0  0  0  0  0  0
  138.2867   67.4346  221.4474 H   0  0  0  0  0  0  0  0  0  0  0  0
  135.6647   68.7289  222.4765 H   0  0  0  0  0  0  0  0  0  0  0  0
  136.5356   67.4567  223.2692 H   0  0  0  0  0  0  0  0  0  0  0  0
  137.1020   69.9741  224.0854 H   0  0  0  0  0  0  0  0  0  0  0  0
  138.5021   67.7554  224.2041 H   0  0  0  0  0  0  0  0  0  0  0  0
  139.5349   68.7187  223.0322 H   0  0  0  0  0  0  0  0  0  0  0  0
  138.6825   68.2472  226.5360 H   0  0  0  0  0  0  0  0  0  0  0  0
  139.7424   69.5277  228.3592 H   0  0  0  0  0  0  0  0  0  0  0  0
  141.3922   72.2315  225.4757 H   0  0  0  0  0  0  0  0  0  0  0  0
  140.3323   70.9568  223.6659 H   0  0  0  0  0  0  0  0  0  0  0  0
  142.4922   75.2813  219.3833 H   0  0  0  0  0  0  0  0  0  0  0  0
  142.8226   77.7321  219.2668 H   0  0  0  0  0  0  0  0  0  0  0  0
  142.3909   79.9746  220.2509 H   0  0  0  0  0  0  0  0  0  0  0  0
  140.0294   80.2243  223.8234 H   0  0  0  0  0  0  0  0  0  0  0  0
  139.7488   77.7621  223.8631 H   0  0  0  0  0  0  0  0  0  0  0  0
  1  2  2  0
  2  3  1  0
  3  4  1  0
  4  5  1  0
  5  6  2  0
  5  7  1  0
  7  8  1  0
  8  9  1  0
  9 10  1  0
 10 11  1  0
 11 12  1  0
 12 13  1  0
 13 14  2  0
 14 15  1  0
 15 16  2  0
 16 17  1  0
 16 18  1  0
 18 19  2  0
  2 20  1  0
 20 21  2  0
 21 22  1  0
 22 23  2  0
 23 24  1  0
 24 25  2  0
 25 26  1  0
 25 27  1  0
 27 28  2  0
 28 29  1  0
 29 30  2  0
 11  7  1  0
 19 13  1  0
 30 20  1  0
 29 23  1  0
  3 31  1  0
  4 32  1  0
  4 33  1  0
  8 34  1  0
  8 35  1  0
  9 36  1  0
  9 37  1  0
 10 38  1  0
 10 39  1  0
 11 40  1  1
 12 41  1  0
 12 42  1  0
 14 43  1  0
 15 44  1  0
 18 45  1  0
 19 46  1  0
 21 47  1  0
 22 48  1  0
 24 49  1  0
 27 50  1  0
 28 51  1  0
M  END
>  <smiles>  (12) 
O=C(NCC(=O)N1CCC[C@H]1Cc1ccc(Cl)cc1)c1ccc2cc(Cl)ccc2n1

>  <score_type>  (12) 
oracle

>  <origin>  (12) 
autodockgpu

>  <m_score__min__energy>  (12) 
-8.8200000000000003

>  <m_primary>  (12) 
energy

>  <rmsd>  (12) 
8.266338512398399

>  <m_score__min__rmsd>  (12) 
8.266338512398399

>  <meeko>  (12) 
{"free_energy": -7.71, "intermolecular_energy": -9.5, "internal_energy": -2.03, "cluster_size": 2, "cluster_id": 6, "rank_in_cluster": 1}

>  <energy>  (12) 
-7.59

>  <cluster_rmsd>  (12) 
1.76

>  <cluster>  (12) 
1

$$$$

     RDKit          3D

 51 54  0  0  0  0  0  0  0  0999 V2000
  140.1870   72.7390  220.4920 O   0  0  0  0  0  0  0  0  0  0  0  0
  139.9760   73.0440  221.6950 C   0  0  0  0  0  0  0  0  0  0  0  0
  139.7500   74.3900  222.0970 N   0  0  0  0  0  0  0  0  0  0  0  0
  139.7680   75.4080  221.0970 C   0  0  0  0  0  0  0  0  0  0  0  0
  140.4920   76.6270  221.5040 C   0  0  0  0  0  0  0  0  0  0  0  0
  140.6090   76.8590  222.7410 O   0  0  0  0  0  0  0  0  0  0  0  0
  141.0200   77.4810  220.5000 N   0  0  0  0  0  0  0  0  0  0  0  0
  141.1650   78.9230  220.5580 C   0  0  0  0  0  0  0  0  0  0  0  0
  141.8250   79.3220  219.2820 C   0  0  0  0  0  0  0  0  0  0  0  0
  141.3760   78.2340  218.3160 C   0  0  0  0  0  0  0  0  0  0  0  0
  141.5190   77.0130  219.1950 C   0  0  1  0  0  0  0  0  0  0  0  0
  142.9640   76.6310  219.2750 C   0  0  0  0  0  0  0  0  0  0  0  0
  143.2080   75.1810  219.4480 C   0  0  0  0  0  0  0  0  0  0  0  0
  143.0260   74.5090  220.6370 C   0  0  0  0  0  0  0  0  0  0  0  0
  143.2700   73.1450  220.7710 C   0  0  0  0  0  0  0  0  0  0  0  0
  143.7120   72.4080  219.6930 C   0  0  0  0  0  0  0  0  0  0  0  0
  144.0240   70.6910  219.8440 Cl  0  0  0  0  0  0  0  0  0  0  0  0
  143.9010   73.0580  218.4910 C   0  0  0  0  0  0  0  0  0  0  0  0
  143.6570   74.4110  218.3700 C   0  0  0  0  0  0  0  0  0  0  0  0
  139.9500   72.0190  222.7460 C   0  0  0  0  0  0  0  0  0  0  0  0
  139.4020   70.7650  222.5130 C   0  0  0  0  0  0  0  0  0  0  0  0
  139.3730   69.7850  223.4980 C   0  0  0  0  0  0  0  0  0  0  0  0
  139.8990   70.0530  224.7440 C   0  0  0  0  0  0  0  0  0  0  0  0
  139.9080   69.1360  225.7750 C   0  0  0  0  0  0  0  0  0  0  0  0
  140.4530   69.4630  227.0160 C   0  0  0  0  0  0  0  0  0  0  0  0
  140.4710   68.3010  228.3390 Cl  0  0  0  0  0  0  0  0  0  0  0  0
  140.9850   70.7300  227.1850 C   0  0  0  0  0  0  0  0  0  0  0  0
  140.9960   71.6760  226.1800 C   0  0  0  0  0  0  0  0  0  0  0  0
  140.4450   71.3190  224.9630 C   0  0  0  0  0  0  0  0  0  0  0  0
  140.4500   72.2300  223.9770 N   0  0  0  0  0  0  0  0  0  0  0  0
  139.5720   74.6690  223.0920 H   0  0  0  0  0  0  0  0  0  0  0  0
  140.2514   75.0015  220.1964 H   0  0  0  0  0  0  0  0  0  0  0  0
  138.7229   75.7001  220.9171 H   0  0  0  0  0  0  0  0  0  0  0  0
  140.1790   79.4030  220.6446 H   0  0  0  0  0  0  0  0  0  0  0  0
  141.7569   79.2333  221.4317 H   0  0  0  0  0  0  0  0  0  0  0  0
  141.4808   80.3128  218.9507 H   0  0  0  0  0  0  0  0  0  0  0  0
  142.9186   79.4067  219.3650 H   0  0  0  0  0  0  0  0  0  0  0  0
  140.3353   78.3821  217.9921 H   0  0  0  0  0  0  0  0  0  0  0  0
  141.9443   78.1919  217.3751 H   0  0  0  0  0  0  0  0  0  0  0  0
  140.9775   76.1273  218.8312 H   0  0  0  0  0  0  0  0  0  0  0  0
  143.4564   76.9536  218.3458 H   0  0  0  0  0  0  0  0  0  0  0  0
  143.3686   77.1250  220.1707 H   0  0  0  0  0  0  0  0  0  0  0  0
  142.6744   75.0720  221.5141 H   0  0  0  0  0  0  0  0  0  0  0  0
  143.1094   72.6529  221.7416 H   0  0  0  0  0  0  0  0  0  0  0  0
  144.2511   72.4899  217.6166 H   0  0  0  0  0  0  0  0  0  0  0  0
  143.8204   74.8981  217.3974 H   0  0  0  0  0  0  0  0  0  0  0  0
  138.9795   70.5410  221.5224 H   0  0  0  0  0  0  0  0  0  0  0  0
  138.9324   68.8000  223.2845 H   0  0  0  0  0  0  0  0  0  0  0  0
  139.4802   68.1352  225.6160 H   0  0  0  0  0  0  0  0  0  0  0  0
  141.4172   70.9939  228.1615 H   0  0  0  0  0  0  0  0  0  0  0  0
  141.4265   72.6754  226.3409 H   0  0  0  0  0  0  0  0  0  0  0  0
  1  2  2  0
  2  3  1  0
  3  4  1  0
  4  5  1  0
  5  6  2  0
  5  7  1  0
  7  8  1  0
  8  9  1  0
  9 10  1  0
 10 11  1  0
 11 12  1  0
 12 13  1  0
 13 14  2  0
 14 15  1  0
 15 16  2  0
 16 17  1  0
 16 18  1  0
 18 19  2  0
  2 20  1  0
 20 21  2  0
 21 22  1  0
 22 23  2  0
 23 24  1  0
 24 25  2  0
 25 26  1  0
 25 27  1  0
 27 28  2  0
 28 29  1  0
 29 30  2  0
 11  7  1  0
 19 13  1  0
 30 20  1  0
 29 23  1  0
  3 31  1  0
  4 32  1  0
  4 33  1  0
  8 34  1  0
  8 35  1  0
  9 36  1  0
  9 37  1  0
 10 38  1  0
 10 39  1  0
 11 40  1  6
 12 41  1  0
 12 42  1  0
 14 43  1  0
 15 44  1  0
 18 45  1  0
 19 46  1  0
 21 47  1  0
 22 48  1  0
 24 49  1  0
 27 50  1  0
 28 51  1  0
M  END
>  <smiles>  (13) 
O=C(NCC(=O)N1CCC[C@H]1Cc1ccc(Cl)cc1)c1ccc2cc(Cl)ccc2n1

>  <score_type>  (13) 
oracle

>  <origin>  (13) 
autodockgpu

>  <m_score__min__energy>  (13) 
-8.8200000000000003

>  <m_primary>  (13) 
energy

>  <rmsd>  (13) 
2.506444827817601

>  <m_score__min__rmsd>  (13) 
2.506444827817601

>  <meeko>  (13) 
{"free_energy": -7.72, "intermolecular_energy": -9.51, "internal_energy": -2.43, "cluster_size": 14, "cluster_id": 3, "rank_in_cluster": 13}

>  <energy>  (13) 
-7.15

>  <cluster_rmsd>  (13) 
1.53

>  <cluster>  (13) 
1

$$$$

     RDKit          3D

 51 54  0  0  0  0  0  0  0  0999 V2000
  140.9330   72.4150  220.9920 O   0  0  0  0  0  0  0  0  0  0  0  0
  140.1740   72.6070  221.9800 C   0  0  0  0  0  0  0  0  0  0  0  0
  139.3460   73.7590  222.0740 N   0  0  0  0  0  0  0  0  0  0  0  0
  139.3880   74.7130  221.0130 C   0  0  0  0  0  0  0  0  0  0  0  0
  140.6880   75.3960  220.8800 C   0  0  0  0  0  0  0  0  0  0  0  0
  141.3740   75.5700  221.9270 O   0  0  0  0  0  0  0  0  0  0  0  0
  141.1110   75.8260  219.5940 N   0  0  0  0  0  0  0  0  0  0  0  0
  140.6920   75.3010  218.3080 C   0  0  0  0  0  0  0  0  0  0  0  0
  141.3760   76.1360  217.2800 C   0  0  0  0  0  0  0  0  0  0  0  0
  142.6400   76.5870  217.9980 C   0  0  0  0  0  0  0  0  0  0  0  0
  142.0770   76.9140  219.3630 C   0  0  1  0  0  0  0  0  0  0  0  0
  141.3900   78.2430  219.3040 C   0  0  0  0  0  0  0  0  0  0  0  0
  141.6150   79.1040  220.4880 C   0  0  0  0  0  0  0  0  0  0  0  0
  141.6880   80.4790  220.4330 C   0  0  0  0  0  0  0  0  0  0  0  0
  141.9070   81.2630  221.5630 C   0  0  0  0  0  0  0  0  0  0  0  0
  142.0610   80.6730  222.7990 C   0  0  0  0  0  0  0  0  0  0  0  0
  142.3380   81.6430  224.2310 Cl  0  0  0  0  0  0  0  0  0  0  0  0
  141.9920   79.2970  222.8800 C   0  0  0  0  0  0  0  0  0  0  0  0
  141.7740   78.5300  221.7540 C   0  0  0  0  0  0  0  0  0  0  0  0
  140.1090   71.6430  223.0850 C   0  0  0  0  0  0  0  0  0  0  0  0
  139.5430   70.3880  222.9120 C   0  0  0  0  0  0  0  0  0  0  0  0
  139.4760   69.4660  223.9490 C   0  0  0  0  0  0  0  0  0  0  0  0
  139.9800   69.7940  225.1890 C   0  0  0  0  0  0  0  0  0  0  0  0
  139.9520   68.9380  226.2710 C   0  0  0  0  0  0  0  0  0  0  0  0
  140.4780   69.3260  227.5020 C   0  0  0  0  0  0  0  0  0  0  0  0
  140.4470   68.2400  228.8890 Cl  0  0  0  0  0  0  0  0  0  0  0  0
  141.0290   70.5910  227.6110 C   0  0  0  0  0  0  0  0  0  0  0  0
  141.0770   71.4780  226.5550 C   0  0  0  0  0  0  0  0  0  0  0  0
  140.5460   71.0620  225.3480 C   0  0  0  0  0  0  0  0  0  0  0  0
  140.5870   71.9150  224.3130 N   0  0  0  0  0  0  0  0  0  0  0  0
  138.7070   73.9410  222.8850 H   0  0  0  0  0  0  0  0  0  0  0  0
  139.1715   74.1918  220.0688 H   0  0  0  0  0  0  0  0  0  0  0  0
  138.6415   75.4863  221.2468 H   0  0  0  0  0  0  0  0  0  0  0  0
  140.9946   74.2482  218.2082 H   0  0  0  0  0  0  0  0  0  0  0  0
  139.5985   75.3385  218.1947 H   0  0  0  0  0  0  0  0  0  0  0  0
  141.6185   75.5434  216.3856 H   0  0  0  0  0  0  0  0  0  0  0  0
  140.7595   76.9717  216.9174 H   0  0  0  0  0  0  0  0  0  0  0  0
  143.3878   75.7819  218.0490 H   0  0  0  0  0  0  0  0  0  0  0  0
  143.1740   77.4161  217.5108 H   0  0  0  0  0  0  0  0  0  0  0  0
  142.8312   76.9822  220.1608 H   0  0  0  0  0  0  0  0  0  0  0  0
  141.7545   78.7790  218.4152 H   0  0  0  0  0  0  0  0  0  0  0  0
  140.3103   78.0357  219.2687 H   0  0  0  0  0  0  0  0  0  0  0  0
  141.5687   80.9764  219.4592 H   0  0  0  0  0  0  0  0  0  0  0  0
  141.9573   82.3578  221.4687 H   0  0  0  0  0  0  0  0  0  0  0  0
  142.1125   78.8047  223.8563 H   0  0  0  0  0  0  0  0  0  0  0  0
  141.7238   77.4358  221.8545 H   0  0  0  0  0  0  0  0  0  0  0  0
  139.1363   70.1157  221.9269 H   0  0  0  0  0  0  0  0  0  0  0  0
  139.0224   68.4780  223.7810 H   0  0  0  0  0  0  0  0  0  0  0  0
  139.5091   67.9372  226.1606 H   0  0  0  0  0  0  0  0  0  0  0  0
  141.4462   70.9024  228.5800 H   0  0  0  0  0  0  0  0  0  0  0  0
  141.5208   72.4780  226.6691 H   0  0  0  0  0  0  0  0  0  0  0  0
  1  2  2  0
  2  3  1  0
  3  4  1  0
  4  5  1  0
  5  6  2  0
  5  7  1  0
  7  8  1  0
  8  9  1  0
  9 10  1  0
 10 11  1  0
 11 12  1  0
 12 13  1  0
 13 14  2  0
 14 15  1  0
 15 16  2  0
 16 17  1  0
 16 18  1  0
 18 19  2  0
  2 20  1  0
 20 21  2  0
 21 22  1  0
 22 23  2  0
 23 24  1  0
 24 25  2  0
 25 26  1  0
 25 27  1  0
 27 28  2  0
 28 29  1  0
 29 30  2  0
 11  7  1  0
 19 13  1  0
 30 20  1  0
 29 23  1  0
  3 31  1  0
  4 32  1  0
  4 33  1  0
  8 34  1  0
  8 35  1  0
  9 36  1  0
  9 37  1  0
 10 38  1  0
 10 39  1  0
 11 40  1  1
 12 41  1  0
 12 42  1  0
 14 43  1  0
 15 44  1  0
 18 45  1  0
 19 46  1  0
 21 47  1  0
 22 48  1  0
 24 49  1  0
 27 50  1  0
 28 51  1  0
M  END
>  <smiles>  (14) 
O=C(NCC(=O)N1CCC[C@H]1Cc1ccc(Cl)cc1)c1ccc2cc(Cl)ccc2n1

>  <score_type>  (14) 
oracle

>  <origin>  (14) 
autodockgpu

>  <m_score__min__energy>  (14) 
-8.8200000000000003

>  <m_primary>  (14) 
energy

>  <rmsd>  (14) 
1.4561897580071148

>  <m_score__min__rmsd>  (14) 
1.4561897580071148

>  <meeko>  (14) 
{"free_energy": -8.66, "intermolecular_energy": -10.45, "internal_energy": -1.43, "cluster_size": 13, "cluster_id": 1, "rank_in_cluster": 3}

>  <energy>  (14) 
-8.69

>  <cluster_rmsd>  (14) 
0.0

>  <cluster>  (14) 
2

$$$$

     RDKit          3D

 51 54  0  0  0  0  0  0  0  0999 V2000
  140.2970   74.1130  222.2040 O   0  0  0  0  0  0  0  0  0  0  0  0
  140.1020   72.8940  221.9560 C   0  0  0  0  0  0  0  0  0  0  0  0
  139.9030   72.4230  220.6290 N   0  0  0  0  0  0  0  0  0  0  0  0
  139.9260   73.3710  219.5620 C   0  0  0  0  0  0  0  0  0  0  0  0
  141.2420   73.4970  218.9090 C   0  0  0  0  0  0  0  0  0  0  0  0
  141.7570   72.4560  218.4110 O   0  0  0  0  0  0  0  0  0  0  0  0
  141.8700   74.7710  218.8680 N   0  0  0  0  0  0  0  0  0  0  0  0
  142.3670   75.4700  217.6980 C   0  0  0  0  0  0  0  0  0  0  0  0
  142.8730   76.7840  218.1890 C   0  0  0  0  0  0  0  0  0  0  0  0
  143.2830   76.4740  219.6220 C   0  0  0  0  0  0  0  0  0  0  0  0
  142.1230   75.6060  220.0550 C   0  0  1  0  0  0  0  0  0  0  0  0
  140.9460   76.4770  220.3630 C   0  0  0  0  0  0  0  0  0  0  0  0
  141.2440   77.6210  221.2550 C   0  0  0  0  0  0  0  0  0  0  0  0
  141.1570   77.5640  222.6300 C   0  0  0  0  0  0  0  0  0  0  0  0
  141.4370   78.6580  223.4430 C   0  0  0  0  0  0  0  0  0  0  0  0
  141.8210   79.8600  222.8850 C   0  0  0  0  0  0  0  0  0  0  0  0
  142.1770   81.2460  223.8940 Cl  0  0  0  0  0  0  0  0  0  0  0  0
  141.9160   79.9410  221.5120 C   0  0  0  0  0  0  0  0  0  0  0  0
  141.6350   78.8510  220.7150 C   0  0  0  0  0  0  0  0  0  0  0  0
  140.0740   71.8950  223.0320 C   0  0  0  0  0  0  0  0  0  0  0  0
  139.5450   70.6290  222.8230 C   0  0  0  0  0  0  0  0  0  0  0  0
  139.5130   69.6740  223.8320 C   0  0  0  0  0  0  0  0  0  0  0  0
  140.0150   69.9800  225.0790 C   0  0  0  0  0  0  0  0  0  0  0  0
  140.0210   69.0900  226.1330 C   0  0  0  0  0  0  0  0  0  0  0  0
  140.5420   69.4550  227.3730 C   0  0  0  0  0  0  0  0  0  0  0  0
  140.5540   68.3280  228.7260 Cl  0  0  0  0  0  0  0  0  0  0  0  0
  141.0550   70.7330  227.5180 C   0  0  0  0  0  0  0  0  0  0  0  0
  141.0700   71.6530  226.4890 C   0  0  0  0  0  0  0  0  0  0  0  0
  140.5430   71.2580  225.2730 C   0  0  0  0  0  0  0  0  0  0  0  0
  140.5510   72.1440  224.2650 N   0  0  0  0  0  0  0  0  0  0  0  0
  139.7390   71.4140  220.3970 H   0  0  0  0  0  0  0  0  0  0  0  0
  139.1911   73.0597  218.8050 H   0  0  0  0  0  0  0  0  0  0  0  0
  139.6887   74.3523  219.9988 H   0  0  0  0  0  0  0  0  0  0  0  0
  143.1809   74.8983  217.2282 H   0  0  0  0  0  0  0  0  0  0  0  0
  141.5797   75.5987  216.9406 H   0  0  0  0  0  0  0  0  0  0  0  0
  143.7344   77.1237  217.5952 H   0  0  0  0  0  0  0  0  0  0  0  0
  142.1304   77.5920  218.1138 H   0  0  0  0  0  0  0  0  0  0  0  0
  144.2370   75.9280  219.6630 H   0  0  0  0  0  0  0  0  0  0  0  0
  143.4557   77.3587  220.2524 H   0  0  0  0  0  0  0  0  0  0  0  0
  142.3175   75.0065  220.9565 H   0  0  0  0  0  0  0  0  0  0  0  0
  140.5550   76.8739  219.4145 H   0  0  0  0  0  0  0  0  0  0  0  0
  140.2210   75.8451  220.8970 H   0  0  0  0  0  0  0  0  0  0  0  0
  140.8547   76.6176  223.1022 H   0  0  0  0  0  0  0  0  0  0  0  0
  141.3518   78.5641  224.5357 H   0  0  0  0  0  0  0  0  0  0  0  0
  142.2205   80.8893  221.0451 H   0  0  0  0  0  0  0  0  0  0  0  0
  141.7208   78.9517  219.6230 H   0  0  0  0  0  0  0  0  0  0  0  0
  139.1403   70.3748  221.8323 H   0  0  0  0  0  0  0  0  0  0  0  0
  139.0889   68.6780  223.6365 H   0  0  0  0  0  0  0  0  0  0  0  0
  139.6094   68.0796  225.9930 H   0  0  0  0  0  0  0  0  0  0  0  0
  141.4679   71.0275  228.4941 H   0  0  0  0  0  0  0  0  0  0  0  0
  141.4853   72.6617  226.6308 H   0  0  0  0  0  0  0  0  0  0  0  0
  1  2  2  0
  2  3  1  0
  3  4  1  0
  4  5  1  0
  5  6  2  0
  5  7  1  0
  7  8  1  0
  8  9  1  0
  9 10  1  0
 10 11  1  0
 11 12  1  0
 12 13  1  0
 13 14  2  0
 14 15  1  0
 15 16  2  0
 16 17  1  0
 16 18  1  0
 18 19  2  0
  2 20  1  0
 20 21  2  0
 21 22  1  0
 22 23  2  0
 23 24  1  0
 24 25  2  0
 25 26  1  0
 25 27  1  0
 27 28  2  0
 28 29  1  0
 29 30  2  0
 11  7  1  0
 19 13  1  0
 30 20  1  0
 29 23  1  0
  3 31  1  0
  4 32  1  0
  4 33  1  0
  8 34  1  0
  8 35  1  0
  9 36  1  0
  9 37  1  0
 10 38  1  0
 10 39  1  0
 11 40  1  1
 12 41  1  0
 12 42  1  0
 14 43  1  0
 15 44  1  0
 18 45  1  0
 19 46  1  0
 21 47  1  0
 22 48  1  0
 24 49  1  0
 27 50  1  0
 28 51  1  0
M  END
>  <smiles>  (15) 
O=C(NCC(=O)N1CCC[C@H]1Cc1ccc(Cl)cc1)c1ccc2cc(Cl)ccc2n1

>  <score_type>  (15) 
oracle

>  <origin>  (15) 
autodockgpu

>  <m_score__min__energy>  (15) 
-8.8200000000000003

>  <m_primary>  (15) 
energy

>  <rmsd>  (15) 
2.4079036344599474

>  <m_score__min__rmsd>  (15) 
2.4079036344599474

>  <meeko>  (15) 
{"free_energy": -8.82, "intermolecular_energy": -10.61, "internal_energy": -1.49, "cluster_size": 13, "cluster_id": 1, "rank_in_cluster": 1}

>  <energy>  (15) 
-8.01

>  <cluster_rmsd>  (15) 
1.34

>  <cluster>  (15) 
2

$$$$

     RDKit          3D

 51 54  0  0  0  0  0  0  0  0999 V2000
  137.7080   71.1130  221.4610 O   0  0  0  0  0  0  0  0  0  0  0  0
  138.2990   71.9040  222.2430 C   0  0  0  0  0  0  0  0  0  0  0  0
  138.2870   73.3100  222.0340 N   0  0  0  0  0  0  0  0  0  0  0  0
  137.5830   73.8220  220.9030 C   0  0  0  0  0  0  0  0  0  0  0  0
  138.4630   74.3250  219.8330 C   0  0  0  0  0  0  0  0  0  0  0  0
  137.9230   74.7390  218.7680 O   0  0  0  0  0  0  0  0  0  0  0  0
  139.8690   74.3210  220.0400 N   0  0  0  0  0  0  0  0  0  0  0  0
  140.8420   73.4180  219.4560 C   0  0  0  0  0  0  0  0  0  0  0  0
  142.1740   73.8780  219.9430 C   0  0  0  0  0  0  0  0  0  0  0  0
  141.8400   74.5240  221.2800 C   0  0  0  0  0  0  0  0  0  0  0  0
  140.5770   75.2720  220.9140 C   0  0  1  0  0  0  0  0  0  0  0  0
  140.9440   76.5190  220.1710 C   0  0  0  0  0  0  0  0  0  0  0  0
  141.2730   77.6750  221.0350 C   0  0  0  0  0  0  0  0  0  0  0  0
  141.7800   78.8660  220.5620 C   0  0  0  0  0  0  0  0  0  0  0  0
  142.0870   79.9350  221.4000 C   0  0  0  0  0  0  0  0  0  0  0  0
  141.8880   79.8310  222.7610 C   0  0  0  0  0  0  0  0  0  0  0  0
  142.2680   81.1650  223.8300 Cl  0  0  0  0  0  0  0  0  0  0  0  0
  141.3810   78.6480  223.2580 C   0  0  0  0  0  0  0  0  0  0  0  0
  141.0810   77.5950  222.4190 C   0  0  0  0  0  0  0  0  0  0  0  0
  139.0320   71.4080  223.4150 C   0  0  0  0  0  0  0  0  0  0  0  0
  140.1650   72.0590  223.8840 C   0  0  0  0  0  0  0  0  0  0  0  0
  140.8660   71.6010  224.9920 C   0  0  0  0  0  0  0  0  0  0  0  0
  140.4370   70.4700  225.6530 C   0  0  0  0  0  0  0  0  0  0  0  0
  141.0760   69.9500  226.7600 C   0  0  0  0  0  0  0  0  0  0  0  0
  140.5960   68.8020  227.3870 C   0  0  0  0  0  0  0  0  0  0  0  0
  141.4050   68.1290  228.8000 Cl  0  0  0  0  0  0  0  0  0  0  0  0
  139.4620   68.1980  226.8720 C   0  0  0  0  0  0  0  0  0  0  0  0
  138.7920   68.6860  225.7680 C   0  0  0  0  0  0  0  0  0  0  0  0
  139.2960   69.8250  225.1690 C   0  0  0  0  0  0  0  0  0  0  0  0
  138.6540   70.3100  224.0950 N   0  0  0  0  0  0  0  0  0  0  0  0
  138.7710   73.9890  222.6700 H   0  0  0  0  0  0  0  0  0  0  0  0
  136.9590   73.0163  220.4889 H   0  0  0  0  0  0  0  0  0  0  0  0
  136.9870   74.6764  221.2562 H   0  0  0  0  0  0  0  0  0  0  0  0
  140.6507   72.3857  219.7843 H   0  0  0  0  0  0  0  0  0  0  0  0
  140.7901   73.4258  218.3572 H   0  0  0  0  0  0  0  0  0  0  0  0
  142.8624   73.0301  220.0737 H   0  0  0  0  0  0  0  0  0  0  0  0
  142.6811   74.5600  219.2446 H   0  0  0  0  0  0  0  0  0  0  0  0
  141.6549   73.7711  222.0603 H   0  0  0  0  0  0  0  0  0  0  0  0
  142.6402   75.1514  221.6997 H   0  0  0  0  0  0  0  0  0  0  0  0
  139.9681   75.5842  221.7753 H   0  0  0  0  0  0  0  0  0  0  0  0
  141.8200   76.2993  219.5430 H   0  0  0  0  0  0  0  0  0  0  0  0
  140.0573   76.8074  219.5875 H   0  0  0  0  0  0  0  0  0  0  0  0
  141.9487   78.9765  219.4806 H   0  0  0  0  0  0  0  0  0  0  0  0
  142.4898   80.8661  220.9749 H   0  0  0  0  0  0  0  0  0  0  0  0
  141.2134   78.5429  224.3401 H   0  0  0  0  0  0  0  0  0  0  0  0
  140.6794   76.6660  222.8500 H   0  0  0  0  0  0  0  0  0  0  0  0
  140.5170   72.9621  223.3639 H   0  0  0  0  0  0  0  0  0  0  0  0
  141.7600   72.1387  225.3407 H   0  0  0  0  0  0  0  0  0  0  0  0
  141.9751   70.4478  227.1522 H   0  0  0  0  0  0  0  0  0  0  0  0
  139.0787   67.2913  227.3629 H   0  0  0  0  0  0  0  0  0  0  0  0
  137.8915   68.1874  225.3800 H   0  0  0  0  0  0  0  0  0  0  0  0
  1  2  2  0
  2  3  1  0
  3  4  1  0
  4  5  1  0
  5  6  2  0
  5  7  1  0
  7  8  1  0
  8  9  1  0
  9 10  1  0
 10 11  1  0
 11 12  1  0
 12 13  1  0
 13 14  2  0
 14 15  1  0
 15 16  2  0
 16 17  1  0
 16 18  1  0
 18 19  2  0
  2 20  1  0
 20 21  2  0
 21 22  1  0
 22 23  2  0
 23 24  1  0
 24 25  2  0
 25 26  1  0
 25 27  1  0
 27 28  2  0
 28 29  1  0
 29 30  2  0
 11  7  1  0
 19 13  1  0
 30 20  1  0
 29 23  1  0
  3 31  1  0
  4 32  1  0
  4 33  1  0
  8 34  1  0
  8 35  1  0
  9 36  1  0
  9 37  1  0
 10 38  1  0
 10 39  1  0
 11 40  1  1
 12 41  1  0
 12 42  1  0
 14 43  1  0
 15 44  1  0
 18 45  1  0
 19 46  1  0
 21 47  1  0
 22 48  1  0
 24 49  1  0
 27 50  1  0
 28 51  1  0
M  END
>  <smiles>  (16) 
O=C(NCC(=O)N1CCC[C@H]1Cc1ccc(Cl)cc1)c1ccc2cc(Cl)ccc2n1

>  <score_type>  (16) 
oracle

>  <origin>  (16) 
autodockgpu

>  <m_score__min__energy>  (16) 
-8.8200000000000003

>  <m_primary>  (16) 
energy

>  <rmsd>  (16) 
3.057338148002675

>  <m_score__min__rmsd>  (16) 
3.057338148002675

>  <meeko>  (16) 
{"free_energy": -7.86, "intermolecular_energy": -9.65, "internal_energy": -1.61, "cluster_size": 13, "cluster_id": 1, "rank_in_cluster": 9}

>  <energy>  (16) 
-7.95

>  <cluster_rmsd>  (16) 
1.61

>  <cluster>  (16) 
2

$$$$

     RDKit          3D

 51 54  0  0  0  0  0  0  0  0999 V2000
  139.6170   73.9500  222.2980 O   0  0  0  0  0  0  0  0  0  0  0  0
  139.6080   72.7160  222.0440 C   0  0  0  0  0  0  0  0  0  0  0  0
  139.4380   72.2270  220.7190 N   0  0  0  0  0  0  0  0  0  0  0  0
  139.2740   73.1730  219.6630 C   0  0  0  0  0  0  0  0  0  0  0  0
  140.3740   73.1630  218.6810 C   0  0  0  0  0  0  0  0  0  0  0  0
  140.0770   73.0130  217.4620 O   0  0  0  0  0  0  0  0  0  0  0  0
  141.7090   73.3170  219.1420 N   0  0  0  0  0  0  0  0  0  0  0  0
  142.8980   72.6610  218.6320 C   0  0  0  0  0  0  0  0  0  0  0  0
  144.0400   73.2150  219.4140 C   0  0  0  0  0  0  0  0  0  0  0  0
  143.3930   73.5860  220.7410 C   0  0  0  0  0  0  0  0  0  0  0  0
  142.1030   74.2030  220.2510 C   0  0  1  0  0  0  0  0  0  0  0  0
  142.3770   75.5910  219.7630 C   0  0  0  0  0  0  0  0  0  0  0  0
  141.8410   76.6650  220.6300 C   0  0  0  0  0  0  0  0  0  0  0  0
  142.0630   78.0080  220.4140 C   0  0  0  0  0  0  0  0  0  0  0  0
  141.5520   78.9960  221.2500 C   0  0  0  0  0  0  0  0  0  0  0  0
  140.7880   78.6520  222.3460 C   0  0  0  0  0  0  0  0  0  0  0  0
  140.1360   79.8820  223.4090 Cl  0  0  0  0  0  0  0  0  0  0  0  0
  140.5510   77.3150  222.5830 C   0  0  0  0  0  0  0  0  0  0  0  0
  141.0640   76.3440  221.7480 C   0  0  0  0  0  0  0  0  0  0  0  0
  139.7740   71.7190  223.1090 C   0  0  0  0  0  0  0  0  0  0  0  0
  139.3800   70.4000  222.9270 C   0  0  0  0  0  0  0  0  0  0  0  0
  139.5320   69.4470  223.9260 C   0  0  0  0  0  0  0  0  0  0  0  0
  140.0890   69.8070  225.1350 C   0  0  0  0  0  0  0  0  0  0  0  0
  140.2750   68.9220  226.1770 C   0  0  0  0  0  0  0  0  0  0  0  0
  140.8420   69.3430  227.3780 C   0  0  0  0  0  0  0  0  0  0  0  0
  141.0840   68.2230  228.7160 Cl  0  0  0  0  0  0  0  0  0  0  0  0
  141.2150   70.6710  227.4980 C   0  0  0  0  0  0  0  0  0  0  0  0
  141.0470   71.5890  226.4800 C   0  0  0  0  0  0  0  0  0  0  0  0
  140.4800   71.1370  225.3020 C   0  0  0  0  0  0  0  0  0  0  0  0
  140.3110   72.0190  224.3050 N   0  0  0  0  0  0  0  0  0  0  0  0
  139.4260   71.2060  220.4810 H   0  0  0  0  0  0  0  0  0  0  0  0
  138.3358   72.9454  219.1357 H   0  0  0  0  0  0  0  0  0  0  0  0
  139.2649   74.1713  220.1248 H   0  0  0  0  0  0  0  0  0  0  0  0
  142.8267   71.5731  218.7780 H   0  0  0  0  0  0  0  0  0  0  0  0
  143.0246   72.8376  217.5537 H   0  0  0  0  0  0  0  0  0  0  0  0
  144.8271   72.4596  219.5547 H   0  0  0  0  0  0  0  0  0  0  0  0
  144.5352   74.0635  218.9192 H   0  0  0  0  0  0  0  0  0  0  0  0
  143.2084   72.6994  221.3654 H   0  0  0  0  0  0  0  0  0  0  0  0
  144.0015   74.2407  221.3822 H   0  0  0  0  0  0  0  0  0  0  0  0
  141.3202   74.2867  221.0193 H   0  0  0  0  0  0  0  0  0  0  0  0
  143.4669   75.7204  219.6902 H   0  0  0  0  0  0  0  0  0  0  0  0
  141.8659   75.6878  218.7938 H   0  0  0  0  0  0  0  0  0  0  0  0
  142.6680   78.3107  219.5466 H   0  0  0  0  0  0  0  0  0  0  0  0
  141.7580   80.0552  221.0362 H   0  0  0  0  0  0  0  0  0  0  0  0
  139.9438   77.0178  223.4508 H   0  0  0  0  0  0  0  0  0  0  0  0
  140.8559   75.2865  221.9678 H   0  0  0  0  0  0  0  0  0  0  0  0
  138.9356   70.1018  221.9659 H   0  0  0  0  0  0  0  0  0  0  0  0
  139.2094   68.4096  223.7535 H   0  0  0  0  0  0  0  0  0  0  0  0
  139.9719   67.8713  226.0581 H   0  0  0  0  0  0  0  0  0  0  0  0
  141.6639   71.0090  228.4437 H   0  0  0  0  0  0  0  0  0  0  0  0
  141.3522   72.6388  226.6012 H   0  0  0  0  0  0  0  0  0  0  0  0
  1  2  2  0
  2  3  1  0
  3  4  1  0
  4  5  1  0
  5  6  2  0
  5  7  1  0
  7  8  1  0
  8  9  1  0
  9 10  1  0
 10 11  1  0
 11 12  1  0
 12 13  1  0
 13 14  2  0
 14 15  1  0
 15 16  2  0
 16 17  1  0
 16 18  1  0
 18 19  2  0
  2 20  1  0
 20 21  2  0
 21 22  1  0
 22 23  2  0
 23 24  1  0
 24 25  2  0
 25 26  1  0
 25 27  1  0
 27 28  2  0
 28 29  1  0
 29 30  2  0
 11  7  1  0
 19 13  1  0
 30 20  1  0
 29 23  1  0
  3 31  1  0
  4 32  1  0
  4 33  1  0
  8 34  1  0
  8 35  1  0
  9 36  1  0
  9 37  1  0
 10 38  1  0
 10 39  1  0
 11 40  1  1
 12 41  1  0
 12 42  1  0
 14 43  1  0
 15 44  1  0
 18 45  1  0
 19 46  1  0
 21 47  1  0
 22 48  1  0
 24 49  1  0
 27 50  1  0
 28 51  1  0
M  END
>  <smiles>  (17) 
O=C(NCC(=O)N1CCC[C@H]1Cc1ccc(Cl)cc1)c1ccc2cc(Cl)ccc2n1

>  <score_type>  (17) 
oracle

>  <origin>  (17) 
autodockgpu

>  <m_score__min__energy>  (17) 
-8.8200000000000003

>  <m_primary>  (17) 
energy

>  <rmsd>  (17) 
3.0750993320766336

>  <m_score__min__rmsd>  (17) 
3.0750993320766336

>  <meeko>  (17) 
{"free_energy": -7.78, "intermolecular_energy": -9.57, "internal_energy": -1.77, "cluster_size": 13, "cluster_id": 1, "rank_in_cluster": 11}

>  <energy>  (17) 
-7.94

>  <cluster_rmsd>  (17) 
1.66

>  <cluster>  (17) 
2

$$$$

     RDKit          3D

 51 54  0  0  0  0  0  0  0  0999 V2000
  140.4510   72.3950  220.5790 O   0  0  0  0  0  0  0  0  0  0  0  0
  140.1650   72.7700  221.7470 C   0  0  0  0  0  0  0  0  0  0  0  0
  139.8710   74.1290  222.0450 N   0  0  0  0  0  0  0  0  0  0  0  0
  139.9050   75.0790  220.9810 C   0  0  0  0  0  0  0  0  0  0  0  0
  140.0640   76.4730  221.4350 C   0  0  0  0  0  0  0  0  0  0  0  0
  139.5380   76.8000  222.5360 O   0  0  0  0  0  0  0  0  0  0  0  0
  140.7930   77.3830  220.6220 N   0  0  0  0  0  0  0  0  0  0  0  0
  140.9140   78.8170  220.7970 C   0  0  0  0  0  0  0  0  0  0  0  0
  141.8330   79.2860  219.7200 C   0  0  0  0  0  0  0  0  0  0  0  0
  141.6110   78.2620  218.6160 C   0  0  0  0  0  0  0  0  0  0  0  0
  141.5650   76.9890  219.4310 C   0  0  1  0  0  0  0  0  0  0  0  0
  142.9610   76.5920  219.7990 C   0  0  0  0  0  0  0  0  0  0  0  0
  143.2050   75.1320  219.7980 C   0  0  0  0  0  0  0  0  0  0  0  0
  144.0790   74.4990  220.6560 C   0  0  0  0  0  0  0  0  0  0  0  0
  144.2930   73.1240  220.6270 C   0  0  0  0  0  0  0  0  0  0  0  0
  143.6220   72.3350  219.7180 C   0  0  0  0  0  0  0  0  0  0  0  0
  143.8800   70.6030  219.6680 Cl  0  0  0  0  0  0  0  0  0  0  0  0
  142.7420   72.9440  218.8480 C   0  0  0  0  0  0  0  0  0  0  0  0
  142.5370   74.3080  218.8850 C   0  0  0  0  0  0  0  0  0  0  0  0
  140.1220   71.8160  222.8620 C   0  0  0  0  0  0  0  0  0  0  0  0
  139.5880   70.5450  222.7000 C   0  0  0  0  0  0  0  0  0  0  0  0
  139.5420   69.6320  223.7460 C   0  0  0  0  0  0  0  0  0  0  0  0
  140.0360   69.9850  224.9840 C   0  0  0  0  0  0  0  0  0  0  0  0
  140.0270   69.1380  226.0730 C   0  0  0  0  0  0  0  0  0  0  0  0
  140.5400   69.5510  227.3020 C   0  0  0  0  0  0  0  0  0  0  0  0
  140.5340   68.4790  228.6990 Cl  0  0  0  0  0  0  0  0  0  0  0  0
  141.0580   70.8310  227.4000 C   0  0  0  0  0  0  0  0  0  0  0  0
  141.0870   71.7090  226.3350 C   0  0  0  0  0  0  0  0  0  0  0  0
  140.5690   71.2670  225.1310 C   0  0  0  0  0  0  0  0  0  0  0  0
  140.5900   72.1120  224.0880 N   0  0  0  0  0  0  0  0  0  0  0  0
  139.6310   74.4660  223.0090 H   0  0  0  0  0  0  0  0  0  0  0  0
  140.7489   74.8306  220.3206 H   0  0  0  0  0  0  0  0  0  0  0  0
  138.9356   75.0179  220.4648 H   0  0  0  0  0  0  0  0  0  0  0  0
  139.9302   79.2987  220.6967 H   0  0  0  0  0  0  0  0  0  0  0  0
  141.3006   79.0701  221.7953 H   0  0  0  0  0  0  0  0  0  0  0  0
  141.5634   80.2975  219.3820 H   0  0  0  0  0  0  0  0  0  0  0  0
  142.8820   79.3565  220.0434 H   0  0  0  0  0  0  0  0  0  0  0  0
  140.6652   78.4377  218.0825 H   0  0  0  0  0  0  0  0  0  0  0  0
  142.3708   78.2715  217.8206 H   0  0  0  0  0  0  0  0  0  0  0  0
  141.1190   76.1308  218.9070 H   0  0  0  0  0  0  0  0  0  0  0  0
  143.6511   77.0561  219.0790 H   0  0  0  0  0  0  0  0  0  0  0  0
  143.1216   76.9351  220.8317 H   0  0  0  0  0  0  0  0  0  0  0  0
  144.6285   75.1041  221.3921 H   0  0  0  0  0  0  0  0  0  0  0  0
  145.0009   72.6651  221.3328 H   0  0  0  0  0  0  0  0  0  0  0  0
  142.1957   72.3335  218.1140 H   0  0  0  0  0  0  0  0  0  0  0  0
  141.8280   74.7609  218.1763 H   0  0  0  0  0  0  0  0  0  0  0  0
  139.1905   70.2529  221.7168 H   0  0  0  0  0  0  0  0  0  0  0  0
  139.1132   68.6315  223.5873 H   0  0  0  0  0  0  0  0  0  0  0  0
  139.6103   68.1252  225.9705 H   0  0  0  0  0  0  0  0  0  0  0  0
  141.4636   71.1625  228.3672 H   0  0  0  0  0  0  0  0  0  0  0  0
  141.5058   72.7207  226.4398 H   0  0  0  0  0  0  0  0  0  0  0  0
  1  2  2  0
  2  3  1  0
  3  4  1  0
  4  5  1  0
  5  6  2  0
  5  7  1  0
  7  8  1  0
  8  9  1  0
  9 10  1  0
 10 11  1  0
 11 12  1  0
 12 13  1  0
 13 14  2  0
 14 15  1  0
 15 16  2  0
 16 17  1  0
 16 18  1  0
 18 19  2  0
  2 20  1  0
 20 21  2  0
 21 22  1  0
 22 23  2  0
 23 24  1  0
 24 25  2  0
 25 26  1  0
 25 27  1  0
 27 28  2  0
 28 29  1  0
 29 30  2  0
 11  7  1  0
 19 13  1  0
 30 20  1  0
 29 23  1  0
  3 31  1  0
  4 32  1  0
  4 33  1  0
  8 34  1  0
  8 35  1  0
  9 36  1  0
  9 37  1  0
 10 38  1  0
 10 39  1  0
 11 40  1  6
 12 41  1  0
 12 42  1  0
 14 43  1  0
 15 44  1  0
 18 45  1  0
 19 46  1  0
 21 47  1  0
 22 48  1  0
 24 49  1  0
 27 50  1  0
 28 51  1  0
M  END
>  <smiles>  (18) 
O=C(NCC(=O)N1CCC[C@H]1Cc1ccc(Cl)cc1)c1ccc2cc(Cl)ccc2n1

>  <score_type>  (18) 
oracle

>  <origin>  (18) 
autodockgpu

>  <m_score__min__energy>  (18) 
-8.8200000000000003

>  <m_primary>  (18) 
energy

>  <rmsd>  (18) 
2.4487626452975517

>  <m_score__min__rmsd>  (18) 
2.4487626452975517

>  <meeko>  (18) 
{"free_energy": -7.78, "intermolecular_energy": -9.57, "internal_energy": -2.49, "cluster_size": 14, "cluster_id": 3, "rank_in_cluster": 10}

>  <energy>  (18) 
-7.91

>  <cluster_rmsd>  (18) 
1.63

>  <cluster>  (18) 
2

$$$$

     RDKit          3D

 51 54  0  0  0  0  0  0  0  0999 V2000
  137.5240   71.3300  220.7740 O   0  0  0  0  0  0  0  0  0  0  0  0
  137.7300   71.8430  221.9060 C   0  0  0  0  0  0  0  0  0  0  0  0
  137.5100   73.2260  222.1510 N   0  0  0  0  0  0  0  0  0  0  0  0
  137.0430   74.0400  221.0760 C   0  0  0  0  0  0  0  0  0  0  0  0
  138.0130   74.1840  219.9760 C   0  0  0  0  0  0  0  0  0  0  0  0
  137.5650   74.4310  218.8200 O   0  0  0  0  0  0  0  0  0  0  0  0
  139.3990   74.0380  220.2570 N   0  0  0  0  0  0  0  0  0  0  0  0
  140.3000   73.0280  219.7380 C   0  0  0  0  0  0  0  0  0  0  0  0
  141.6470   73.3570  220.2890 C   0  0  0  0  0  0  0  0  0  0  0  0
  141.3140   74.0600  221.5970 C   0  0  0  0  0  0  0  0  0  0  0  0
  140.1570   74.9280  221.1530 C   0  0  1  0  0  0  0  0  0  0  0  0
  140.6900   76.1150  220.4130 C   0  0  0  0  0  0  0  0  0  0  0  0
  141.1080   77.2410  221.2780 C   0  0  0  0  0  0  0  0  0  0  0  0
  141.0730   77.2050  222.6550 C   0  0  0  0  0  0  0  0  0  0  0  0
  141.4670   78.2830  223.4430 C   0  0  0  0  0  0  0  0  0  0  0  0
  141.9140   79.4470  222.8550 C   0  0  0  0  0  0  0  0  0  0  0  0
  142.4140   80.8130  223.8310 Cl  0  0  0  0  0  0  0  0  0  0  0  0
  141.9590   79.5080  221.4780 C   0  0  0  0  0  0  0  0  0  0  0  0
  141.5660   78.4340  220.7070 C   0  0  0  0  0  0  0  0  0  0  0  0
  138.2100   71.0310  223.0310 C   0  0  0  0  0  0  0  0  0  0  0  0
  137.7780   69.7240  223.2110 C   0  0  0  0  0  0  0  0  0  0  0  0
  138.2250   68.9450  224.2700 C   0  0  0  0  0  0  0  0  0  0  0  0
  139.1210   69.4720  225.1760 C   0  0  0  0  0  0  0  0  0  0  0  0
  139.6120   68.7650  226.2550 C   0  0  0  0  0  0  0  0  0  0  0  0
  140.5170   69.3510  227.1390 C   0  0  0  0  0  0  0  0  0  0  0  0
  141.1510   68.4590  228.5190 Cl  0  0  0  0  0  0  0  0  0  0  0  0
  140.9090   70.6580  226.9060 C   0  0  0  0  0  0  0  0  0  0  0  0
  140.4430   71.3990  225.8390 C   0  0  0  0  0  0  0  0  0  0  0  0
  139.5450   70.7880  224.9820 C   0  0  0  0  0  0  0  0  0  0  0  0
  139.0840   71.4980  223.9410 N   0  0  0  0  0  0  0  0  0  0  0  0
  137.6740   73.6770  223.0840 H   0  0  0  0  0  0  0  0  0  0  0  0
  136.1248   73.5884  220.6722 H   0  0  0  0  0  0  0  0  0  0  0  0
  136.8712   75.0461  221.4863 H   0  0  0  0  0  0  0  0  0  0  0  0
  139.9850   72.0277  220.0700 H   0  0  0  0  0  0  0  0  0  0  0  0
  140.3055   73.0195  218.6381 H   0  0  0  0  0  0  0  0  0  0  0  0
  142.2354   72.4450  220.4680 H   0  0  0  0  0  0  0  0  0  0  0  0
  142.2579   73.9689  219.6091 H   0  0  0  0  0  0  0  0  0  0  0  0
  141.0107   73.3458  222.3767 H   0  0  0  0  0  0  0  0  0  0  0  0
  142.1527   74.6087  222.0504 H   0  0  0  0  0  0  0  0  0  0  0  0
  139.5407   75.3194  221.9758 H   0  0  0  0  0  0  0  0  0  0  0  0
  141.5619   75.7907  219.8260 H   0  0  0  0  0  0  0  0  0  0  0  0
  139.8659   76.4899  219.7882 H   0  0  0  0  0  0  0  0  0  0  0  0
  140.7200   76.2888  223.1510 H   0  0  0  0  0  0  0  0  0  0  0  0
  141.4214   78.2056  224.5393 H   0  0  0  0  0  0  0  0  0  0  0  0
  142.3135   80.4265  220.9874 H   0  0  0  0  0  0  0  0  0  0  0  0
  141.6139   78.5175  219.6112 H   0  0  0  0  0  0  0  0  0  0  0  0
  137.0621   69.2938  222.4952 H   0  0  0  0  0  0  0  0  0  0  0  0
  137.8658   67.9118  224.3857 H   0  0  0  0  0  0  0  0  0  0  0  0
  139.2856   67.7275  226.4193 H   0  0  0  0  0  0  0  0  0  0  0  0
  141.6221   71.1258  227.6007 H   0  0  0  0  0  0  0  0  0  0  0  0
  140.7729   72.4357  225.6762 H   0  0  0  0  0  0  0  0  0  0  0  0
  1  2  2  0
  2  3  1  0
  3  4  1  0
  4  5  1  0
  5  6  2  0
  5  7  1  0
  7  8  1  0
  8  9  1  0
  9 10  1  0
 10 11  1  0
 11 12  1  0
 12 13  1  0
 13 14  2  0
 14 15  1  0
 15 16  2  0
 16 17  1  0
 16 18  1  0
 18 19  2  0
  2 20  1  0
 20 21  2  0
 21 22  1  0
 22 23  2  0
 23 24  1  0
 24 25  2  0
 25 26  1  0
 25 27  1  0
 27 28  2  0
 28 29  1  0
 29 30  2  0
 11  7  1  0
 19 13  1  0
 30 20  1  0
 29 23  1  0
  3 31  1  0
  4 32  1  0
  4 33  1  0
  8 34  1  0
  8 35  1  0
  9 36  1  0
  9 37  1  0
 10 38  1  0
 10 39  1  0
 11 40  1  1
 12 41  1  0
 12 42  1  0
 14 43  1  0
 15 44  1  0
 18 45  1  0
 19 46  1  0
 21 47  1  0
 22 48  1  0
 24 49  1  0
 27 50  1  0
 28 51  1  0
M  END
>  <smiles>  (19) 
O=C(NCC(=O)N1CCC[C@H]1Cc1ccc(Cl)cc1)c1ccc2cc(Cl)ccc2n1

>  <score_type>  (19) 
oracle

>  <origin>  (19) 
autodockgpu

>  <m_score__min__energy>  (19) 
-8.8200000000000003

>  <m_primary>  (19) 
energy

>  <rmsd>  (19) 
2.47639347423895

>  <m_score__min__rmsd>  (19) 
2.47639347423895

>  <meeko>  (19) 
{"free_energy": -7.8, "intermolecular_energy": -9.59, "internal_energy": -1.85, "cluster_size": 13, "cluster_id": 1, "rank_in_cluster": 10}

>  <energy>  (19) 
-7.82

>  <cluster_rmsd>  (19) 
1.53

>  <cluster>  (19) 
2

$$$$

     RDKit          3D

 51 54  0  0  0  0  0  0  0  0999 V2000
  139.1190   70.7290  221.0340 O   0  0  0  0  0  0  0  0  0  0  0  0
  139.0060   71.4730  222.0440 C   0  0  0  0  0  0  0  0  0  0  0  0
  138.3470   72.7310  221.9750 N   0  0  0  0  0  0  0  0  0  0  0  0
  137.8050   73.1450  220.7210 C   0  0  0  0  0  0  0  0  0  0  0  0
  138.6290   74.1470  220.0200 C   0  0  0  0  0  0  0  0  0  0  0  0
  138.8540   73.9710  218.7890 O   0  0  0  0  0  0  0  0  0  0  0  0
  139.1330   75.2570  220.7510 N   0  0  0  0  0  0  0  0  0  0  0  0
  138.4140   76.0840  221.7010 C   0  0  0  0  0  0  0  0  0  0  0  0
  139.4080   77.0620  222.2290 C   0  0  0  0  0  0  0  0  0  0  0  0
  140.3910   77.2000  221.0750 C   0  0  0  0  0  0  0  0  0  0  0  0
  140.5150   75.7540  220.6490 C   0  0  1  0  0  0  0  0  0  0  0  0
  141.4190   75.0370  221.6030 C   0  0  0  0  0  0  0  0  0  0  0  0
  142.3810   74.1120  220.9610 C   0  0  0  0  0  0  0  0  0  0  0  0
  143.5920   74.5090  220.4340 C   0  0  0  0  0  0  0  0  0  0  0  0
  144.4740   73.6170  219.8300 C   0  0  0  0  0  0  0  0  0  0  0  0
  144.1550   72.2790  219.7390 C   0  0  0  0  0  0  0  0  0  0  0  0
  145.2530   71.1430  218.9820 Cl  0  0  0  0  0  0  0  0  0  0  0  0
  142.9490   71.8570  220.2590 C   0  0  0  0  0  0  0  0  0  0  0  0
  142.0820   72.7500  220.8550 C   0  0  0  0  0  0  0  0  0  0  0  0
  139.5520   71.0740  223.3470 C   0  0  0  0  0  0  0  0  0  0  0  0
  140.3860   71.9200  224.0660 C   0  0  0  0  0  0  0  0  0  0  0  0
  140.9090   71.5550  225.3010 C   0  0  0  0  0  0  0  0  0  0  0  0
  140.5990   70.3230  225.8370 C   0  0  0  0  0  0  0  0  0  0  0  0
  141.0770   69.8860  227.0550 C   0  0  0  0  0  0  0  0  0  0  0  0
  140.7310   68.6280  227.5470 C   0  0  0  0  0  0  0  0  0  0  0  0
  141.3340   68.0590  229.1010 Cl  0  0  0  0  0  0  0  0  0  0  0  0
  139.8960   67.8320  226.7830 C   0  0  0  0  0  0  0  0  0  0  0  0
  139.3960   68.2310  225.5590 C   0  0  0  0  0  0  0  0  0  0  0  0
  139.7600   69.4840  225.1010 C   0  0  0  0  0  0  0  0  0  0  0  0
  139.2810   69.8840  223.9130 N   0  0  0  0  0  0  0  0  0  0  0  0
  138.2400   73.3690  222.8000 H   0  0  0  0  0  0  0  0  0  0  0  0
  137.7102   72.2600  220.0747 H   0  0  0  0  0  0  0  0  0  0  0  0
  136.8342   73.6177  220.9311 H   0  0  0  0  0  0  0  0  0  0  0  0
  137.5880   76.6108  221.2008 H   0  0  0  0  0  0  0  0  0  0  0  0
  137.9742   75.4805  222.5087 H   0  0  0  0  0  0  0  0  0  0  0  0
  138.9311   78.0258  222.4606 H   0  0  0  0  0  0  0  0  0  0  0  0
  139.8812   76.7383  223.1678 H   0  0  0  0  0  0  0  0  0  0  0  0
  139.9855   77.8283  220.2683 H   0  0  0  0  0  0  0  0  0  0  0  0
  141.3427   77.6853  221.3372 H   0  0  0  0  0  0  0  0  0  0  0  0
  140.9390   75.6121  219.6440 H   0  0  0  0  0  0  0  0  0  0  0  0
  141.9900   75.7896  222.1665 H   0  0  0  0  0  0  0  0  0  0  0  0
  140.7715   74.4197  222.2431 H   0  0  0  0  0  0  0  0  0  0  0  0
  143.8718   75.5712  220.4931 H   0  0  0  0  0  0  0  0  0  0  0  0
  145.4291   73.9813  219.4238 H   0  0  0  0  0  0  0  0  0  0  0  0
  142.6745   70.7936  220.1977 H   0  0  0  0  0  0  0  0  0  0  0  0
  141.1280   72.3797  221.2584 H   0  0  0  0  0  0  0  0  0  0  0  0
  140.6395   72.9050  223.6471 H   0  0  0  0  0  0  0  0  0  0  0  0
  141.5672   72.2458  225.8483 H   0  0  0  0  0  0  0  0  0  0  0  0
  141.7387   70.5374  227.6448 H   0  0  0  0  0  0  0  0  0  0  0  0
  139.6186   66.8392  227.1669 H   0  0  0  0  0  0  0  0  0  0  0  0
  138.7342   67.5777  224.9715 H   0  0  0  0  0  0  0  0  0  0  0  0
  1  2  2  0
  2  3  1  0
  3  4  1  0
  4  5  1  0
  5  6  2  0
  5  7  1  0
  7  8  1  0
  8  9  1  0
  9 10  1  0
 10 11  1  0
 11 12  1  0
 12 13  1  0
 13 14  2  0
 14 15  1  0
 15 16  2  0
 16 17  1  0
 16 18  1  0
 18 19  2  0
  2 20  1  0
 20 21  2  0
 21 22  1  0
 22 23  2  0
 23 24  1  0
 24 25  2  0
 25 26  1  0
 25 27  1  0
 27 28  2  0
 28 29  1  0
 29 30  2  0
 11  7  1  0
 19 13  1  0
 30 20  1  0
 29 23  1  0
  3 31  1  0
  4 32  1  0
  4 33  1  0
  8 34  1  0
  8 35  1  0
  9 36  1  0
  9 37  1  0
 10 38  1  0
 10 39  1  0
 11 40  1  6
 12 41  1  0
 12 42  1  0
 14 43  1  0
 15 44  1  0
 18 45  1  0
 19 46  1  0
 21 47  1  0
 22 48  1  0
 24 49  1  0
 27 50  1  0
 28 51  1  0
M  END
>  <smiles>  (20) 
O=C(NCC(=O)N1CCC[C@H]1Cc1ccc(Cl)cc1)c1ccc2cc(Cl)ccc2n1

>  <score_type>  (20) 
oracle

>  <origin>  (20) 
autodockgpu

>  <m_score__min__energy>  (20) 
-8.8200000000000003

>  <m_primary>  (20) 
energy

>  <rmsd>  (20) 
3.0512869306274615

>  <m_score__min__rmsd>  (20) 
3.0512869306274615

>  <meeko>  (20) 
{"free_energy": -7.39, "intermolecular_energy": -9.18, "internal_energy": -2.06, "cluster_size": 14, "cluster_id": 3, "rank_in_cluster": 14}

>  <energy>  (20) 
-7.8

>  <cluster_rmsd>  (20) 
1.42

>  <cluster>  (20) 
2

$$$$

     RDKit          3D

 51 54  0  0  0  0  0  0  0  0999 V2000
  135.4970   68.8430  224.9430 O   0  0  0  0  0  0  0  0  0  0  0  0
  135.4520   70.0190  224.4940 C   0  0  0  0  0  0  0  0  0  0  0  0
  136.0870   70.3780  223.2730 N   0  0  0  0  0  0  0  0  0  0  0  0
  136.7890   69.3670  222.5520 C   0  0  0  0  0  0  0  0  0  0  0  0
  138.2550   69.4430  222.6980 C   0  0  0  0  0  0  0  0  0  0  0  0
  138.8720   68.3880  223.0190 O   0  0  0  0  0  0  0  0  0  0  0  0
  138.9050   70.6870  222.4770 N   0  0  0  0  0  0  0  0  0  0  0  0
  138.4590   71.7740  221.6270 C   0  0  0  0  0  0  0  0  0  0  0  0
  139.4610   72.8650  221.7960 C   0  0  0  0  0  0  0  0  0  0  0  0
  140.7330   72.1050  222.1450 C   0  0  0  0  0  0  0  0  0  0  0  0
  140.1800   71.0750  223.1040 C   0  0  1  0  0  0  0  0  0  0  0  0
  139.9540   71.7170  224.4370 C   0  0  0  0  0  0  0  0  0  0  0  0
  140.3100   70.8670  225.5960 C   0  0  0  0  0  0  0  0  0  0  0  0
  140.7440   71.3640  226.8070 C   0  0  0  0  0  0  0  0  0  0  0  0
  141.0780   70.5410  227.8780 C   0  0  0  0  0  0  0  0  0  0  0  0
  140.9820   69.1700  227.7580 C   0  0  0  0  0  0  0  0  0  0  0  0
  141.3980   68.1190  229.0950 Cl  0  0  0  0  0  0  0  0  0  0  0  0
  140.5500   68.6490  226.5560 C   0  0  0  0  0  0  0  0  0  0  0  0
  140.2220   69.4740  225.5010 C   0  0  0  0  0  0  0  0  0  0  0  0
  134.7360   71.0800  225.2140 C   0  0  0  0  0  0  0  0  0  0  0  0
  133.7930   70.7790  226.1870 C   0  0  0  0  0  0  0  0  0  0  0  0
  133.1100   71.7720  226.8760 C   0  0  0  0  0  0  0  0  0  0  0  0
  133.3650   73.0980  226.5950 C   0  0  0  0  0  0  0  0  0  0  0  0
  132.7300   74.1440  227.2330 C   0  0  0  0  0  0  0  0  0  0  0  0
  133.0280   75.4660  226.9060 C   0  0  0  0  0  0  0  0  0  0  0  0
  132.2240   76.8090  227.7140 Cl  0  0  0  0  0  0  0  0  0  0  0  0
  133.9780   75.7010  225.9270 C   0  0  0  0  0  0  0  0  0  0  0  0
  134.6360   74.6840  225.2650 C   0  0  0  0  0  0  0  0  0  0  0  0
  134.3150   73.3850  225.6130 C   0  0  0  0  0  0  0  0  0  0  0  0
  134.9480   72.3870  224.9770 N   0  0  0  0  0  0  0  0  0  0  0  0
  136.0640   71.3490  222.8790 H   0  0  0  0  0  0  0  0  0  0  0  0
  136.4543   68.3847  222.9168 H   0  0  0  0  0  0  0  0  0  0  0  0
  136.5642   69.5182  221.4859 H   0  0  0  0  0  0  0  0  0  0  0  0
  138.4223   71.4479  220.5771 H   0  0  0  0  0  0  0  0  0  0  0  0
  137.4476   72.1099  221.8995 H   0  0  0  0  0  0  0  0  0  0  0  0
  139.5844   73.4372  220.8647 H   0  0  0  0  0  0  0  0  0  0  0  0
  139.1738   73.6054  222.5572 H   0  0  0  0  0  0  0  0  0  0  0  0
  141.1822   71.6348  221.2578 H   0  0  0  0  0  0  0  0  0  0  0  0
  141.5424   72.7270  222.5549 H   0  0  0  0  0  0  0  0  0  0  0  0
  140.8422   70.2137  223.2762 H   0  0  0  0  0  0  0  0  0  0  0  0
  140.5602   72.6337  224.4841 H   0  0  0  0  0  0  0  0  0  0  0  0
  138.8739   71.9114  224.5116 H   0  0  0  0  0  0  0  0  0  0  0  0
  140.8295   72.4536  226.9311 H   0  0  0  0  0  0  0  0  0  0  0  0
  141.4200   70.9854  228.8243 H   0  0  0  0  0  0  0  0  0  0  0  0
  140.4659   67.5587  226.4373 H   0  0  0  0  0  0  0  0  0  0  0  0
  139.8812   69.0237  224.5570 H   0  0  0  0  0  0  0  0  0  0  0  0
  133.5810   69.7247  226.4185 H   0  0  0  0  0  0  0  0  0  0  0  0
  132.3687   71.5025  227.6427 H   0  0  0  0  0  0  0  0  0  0  0  0
  131.9796   73.9321  228.0089 H   0  0  0  0  0  0  0  0  0  0  0  0
  134.2187   76.7420  225.6656 H   0  0  0  0  0  0  0  0  0  0  0  0
  135.3869   74.8988  224.4904 H   0  0  0  0  0  0  0  0  0  0  0  0
  1  2  2  0
  2  3  1  0
  3  4  1  0
  4  5  1  0
  5  6  2  0
  5  7  1  0
  7  8  1  0
  8  9  1  0
  9 10  1  0
 10 11  1  0
 11 12  1  0
 12 13  1  0
 13 14  2  0
 14 15  1  0
 15 16  2  0
 16 17  1  0
 16 18  1  0
 18 19  2  0
  2 20  1  0
 20 21  2  0
 21 22  1  0
 22 23  2  0
 23 24  1  0
 24 25  2  0
 25 26  1  0
 25 27  1  0
 27 28  2  0
 28 29  1  0
 29 30  2  0
 11  7  1  0
 19 13  1  0
 30 20  1  0
 29 23  1  0
  3 31  1  0
  4 32  1  0
  4 33  1  0
  8 34  1  0
  8 35  1  0
  9 36  1  0
  9 37  1  0
 10 38  1  0
 10 39  1  0
 11 40  1  1
 12 41  1  0
 12 42  1  0
 14 43  1  0
 15 44  1  0
 18 45  1  0
 19 46  1  0
 21 47  1  0
 22 48  1  0
 24 49  1  0
 27 50  1  0
 28 51  1  0
M  END
>  <smiles>  (21) 
O=C(NCC(=O)N1CCC[C@H]1Cc1ccc(Cl)cc1)c1ccc2cc(Cl)ccc2n1

>  <score_type>  (21) 
oracle

>  <origin>  (21) 
autodockgpu

>  <m_score__min__energy>  (21) 
-8.8200000000000003

>  <m_primary>  (21) 
energy

>  <rmsd>  (21) 
6.5138607735416745

>  <m_score__min__rmsd>  (21) 
6.5138607735416745

>  <meeko>  (21) 
{"free_energy": -7.8, "intermolecular_energy": -9.59, "internal_energy": -1.9, "cluster_size": 12, "cluster_id": 2, "rank_in_cluster": 7}

>  <energy>  (21) 
-7.8

>  <cluster_rmsd>  (21) 
1.88

>  <cluster>  (21) 
2

$$$$

     RDKit          3D

 51 54  0  0  0  0  0  0  0  0999 V2000
  140.4290   72.6750  220.8150 O   0  0  0  0  0  0  0  0  0  0  0  0
  140.0580   72.9610  221.9850 C   0  0  0  0  0  0  0  0  0  0  0  0
  139.6250   74.2700  222.3320 N   0  0  0  0  0  0  0  0  0  0  0  0
  139.6160   75.2730  221.3180 C   0  0  0  0  0  0  0  0  0  0  0  0
  140.7010   76.2630  221.4520 C   0  0  0  0  0  0  0  0  0  0  0  0
  140.8800   76.7940  222.5850 O   0  0  0  0  0  0  0  0  0  0  0  0
  141.4920   76.5760  220.3140 N   0  0  0  0  0  0  0  0  0  0  0  0
  141.7810   77.8930  219.7790 C   0  0  0  0  0  0  0  0  0  0  0  0
  142.7000   77.6750  218.6250 C   0  0  0  0  0  0  0  0  0  0  0  0
  142.3160   76.2820  218.1460 C   0  0  0  0  0  0  0  0  0  0  0  0
  142.1630   75.5710  219.4720 C   0  0  1  0  0  0  0  0  0  0  0  0
  143.5190   75.2360  220.0090 C   0  0  0  0  0  0  0  0  0  0  0  0
  143.9070   73.8150  219.8560 C   0  0  0  0  0  0  0  0  0  0  0  0
  143.4120   72.7960  220.6430 C   0  0  0  0  0  0  0  0  0  0  0  0
  143.8000   71.4690  220.4810 C   0  0  0  0  0  0  0  0  0  0  0  0
  144.7110   71.1250  219.5050 C   0  0  0  0  0  0  0  0  0  0  0  0
  145.2100   69.4600  219.2870 Cl  0  0  0  0  0  0  0  0  0  0  0  0
  145.2200   72.1260  218.7050 C   0  0  0  0  0  0  0  0  0  0  0  0
  144.8290   73.4390  218.8750 C   0  0  0  0  0  0  0  0  0  0  0  0
  140.0550   71.9500  223.0490 C   0  0  0  0  0  0  0  0  0  0  0  0
  139.5580   70.6730  222.8260 C   0  0  0  0  0  0  0  0  0  0  0  0
  139.5500   69.7060  223.8240 C   0  0  0  0  0  0  0  0  0  0  0  0
  140.0460   70.0110  225.0740 C   0  0  0  0  0  0  0  0  0  0  0  0
  140.0740   69.1090  226.1190 C   0  0  0  0  0  0  0  0  0  0  0  0
  140.5860   69.4740  227.3620 C   0  0  0  0  0  0  0  0  0  0  0  0
  140.6270   68.3320  228.7030 Cl  0  0  0  0  0  0  0  0  0  0  0  0
  141.0670   70.7620  227.5220 C   0  0  0  0  0  0  0  0  0  0  0  0
  141.0580   71.6940  226.5030 C   0  0  0  0  0  0  0  0  0  0  0  0
  140.5410   71.3000  225.2830 C   0  0  0  0  0  0  0  0  0  0  0  0
  140.5270   72.1960  224.2850 N   0  0  0  0  0  0  0  0  0  0  0  0
  139.3110   74.5330  223.2980 H   0  0  0  0  0  0  0  0  0  0  0  0
  139.7158   74.7789  220.3403 H   0  0  0  0  0  0  0  0  0  0  0  0
  138.6674   75.8211  221.4172 H   0  0  0  0  0  0  0  0  0  0  0  0
  140.8542   78.3808  219.4428 H   0  0  0  0  0  0  0  0  0  0  0  0
  142.2358   78.5457  220.5387 H   0  0  0  0  0  0  0  0  0  0  0  0
  142.5322   78.4248  217.8378 H   0  0  0  0  0  0  0  0  0  0  0  0
  143.7632   77.7658  218.8920 H   0  0  0  0  0  0  0  0  0  0  0  0
  141.3735   76.2924  217.5790 H   0  0  0  0  0  0  0  0  0  0  0  0
  143.0364   75.8182  217.4561 H   0  0  0  0  0  0  0  0  0  0  0  0
  141.6018   74.6265  219.4173 H   0  0  0  0  0  0  0  0  0  0  0  0
  144.2600   75.8532  219.4799 H   0  0  0  0  0  0  0  0  0  0  0  0
  143.4852   75.4361  221.0901 H   0  0  0  0  0  0  0  0  0  0  0  0
  142.6826   73.0415  221.4289 H   0  0  0  0  0  0  0  0  0  0  0  0
  143.3779   70.6914  221.1346 H   0  0  0  0  0  0  0  0  0  0  0  0
  145.9483   71.8747  217.9198 H   0  0  0  0  0  0  0  0  0  0  0  0
  145.2556   74.2122  218.2191 H   0  0  0  0  0  0  0  0  0  0  0  0
  139.1597   70.4198  221.8324 H   0  0  0  0  0  0  0  0  0  0  0  0
  139.1500   68.7023  223.6179 H   0  0  0  0  0  0  0  0  0  0  0  0
  139.6875   68.0902  225.9682 H   0  0  0  0  0  0  0  0  0  0  0  0
  141.4732   71.0553  228.5013 H   0  0  0  0  0  0  0  0  0  0  0  0
  141.4474   72.7113  226.6563 H   0  0  0  0  0  0  0  0  0  0  0  0
  1  2  2  0
  2  3  1  0
  3  4  1  0
  4  5  1  0
  5  6  2  0
  5  7  1  0
  7  8  1  0
  8  9  1  0
  9 10  1  0
 10 11  1  0
 11 12  1  0
 12 13  1  0
 13 14  2  0
 14 15  1  0
 15 16  2  0
 16 17  1  0
 16 18  1  0
 18 19  2  0
  2 20  1  0
 20 21  2  0
 21 22  1  0
 22 23  2  0
 23 24  1  0
 24 25  2  0
 25 26  1  0
 25 27  1  0
 27 28  2  0
 28 29  1  0
 29 30  2  0
 11  7  1  0
 19 13  1  0
 30 20  1  0
 29 23  1  0
  3 31  1  0
  4 32  1  0
  4 33  1  0
  8 34  1  0
  8 35  1  0
  9 36  1  0
  9 37  1  0
 10 38  1  0
 10 39  1  0
 11 40  1  6
 12 41  1  0
 12 42  1  0
 14 43  1  0
 15 44  1  0
 18 45  1  0
 19 46  1  0
 21 47  1  0
 22 48  1  0
 24 49  1  0
 27 50  1  0
 28 51  1  0
M  END
>  <smiles>  (22) 
O=C(NCC(=O)N1CCC[C@H]1Cc1ccc(Cl)cc1)c1ccc2cc(Cl)ccc2n1

>  <score_type>  (22) 
oracle

>  <origin>  (22) 
autodockgpu

>  <m_score__min__energy>  (22) 
-8.8200000000000003

>  <m_primary>  (22) 
energy

>  <rmsd>  (22) 
2.2764342570582654

>  <m_score__min__rmsd>  (22) 
2.2764342570582654

>  <meeko>  (22) 
{"free_energy": -8.28, "intermolecular_energy": -10.07, "internal_energy": -1.97, "cluster_size": 14, "cluster_id": 3, "rank_in_cluster": 5}

>  <energy>  (22) 
-7.79

>  <cluster_rmsd>  (22) 
1.88

>  <cluster>  (22) 
2

$$$$

     RDKit          3D

 51 54  0  0  0  0  0  0  0  0999 V2000
  139.1080   72.1140  220.7740 O   0  0  0  0  0  0  0  0  0  0  0  0
  139.3340   72.4910  221.9550 C   0  0  0  0  0  0  0  0  0  0  0  0
  139.3910   73.8690  222.3020 N   0  0  0  0  0  0  0  0  0  0  0  0
  139.1820   74.8370  221.2730 C   0  0  0  0  0  0  0  0  0  0  0  0
  138.9070   76.1930  221.7810 C   0  0  0  0  0  0  0  0  0  0  0  0
  137.8080   76.3900  222.3740 O   0  0  0  0  0  0  0  0  0  0  0  0
  139.8760   77.2120  221.5830 N   0  0  0  0  0  0  0  0  0  0  0  0
  140.8450   77.3090  220.5080 C   0  0  0  0  0  0  0  0  0  0  0  0
  141.5770   78.5890  220.7270 C   0  0  0  0  0  0  0  0  0  0  0  0
  141.4890   78.7740  222.2360 C   0  0  0  0  0  0  0  0  0  0  0  0
  140.0510   78.3710  222.4760 C   0  0  1  0  0  0  0  0  0  0  0  0
  139.1520   79.4990  222.0800 C   0  0  0  0  0  0  0  0  0  0  0  0
  138.3180   80.0360  223.1790 C   0  0  0  0  0  0  0  0  0  0  0  0
  138.8040   80.8350  224.1910 C   0  0  0  0  0  0  0  0  0  0  0  0
  137.9970   81.3200  225.2160 C   0  0  0  0  0  0  0  0  0  0  0  0
  136.6540   81.0080  225.2500 C   0  0  0  0  0  0  0  0  0  0  0  0
  135.6240   81.6100  226.5330 Cl  0  0  0  0  0  0  0  0  0  0  0  0
  136.1430   80.2100  224.2480 C   0  0  0  0  0  0  0  0  0  0  0  0
  136.9530   79.7340  223.2380 C   0  0  0  0  0  0  0  0  0  0  0  0
  139.5520   71.5200  223.0340 C   0  0  0  0  0  0  0  0  0  0  0  0
  139.2270   70.1800  222.8710 C   0  0  0  0  0  0  0  0  0  0  0  0
  139.4280   69.2500  223.8830 C   0  0  0  0  0  0  0  0  0  0  0  0
  139.9640   69.6560  225.0870 C   0  0  0  0  0  0  0  0  0  0  0  0
  140.1950   68.7970  226.1420 C   0  0  0  0  0  0  0  0  0  0  0  0
  140.7380   69.2640  227.3370 C   0  0  0  0  0  0  0  0  0  0  0  0
  141.0370   68.1770  228.6900 Cl  0  0  0  0  0  0  0  0  0  0  0  0
  141.0410   70.6110  227.4380 C   0  0  0  0  0  0  0  0  0  0  0  0
  140.8260   71.5040  226.4070 C   0  0  0  0  0  0  0  0  0  0  0  0
  140.2850   71.0070  225.2360 C   0  0  0  0  0  0  0  0  0  0  0  0
  140.0710   71.8650  224.2260 N   0  0  0  0  0  0  0  0  0  0  0  0
  139.5780   74.2080  223.2760 H   0  0  0  0  0  0  0  0  0  0  0  0
  140.0850   74.8777  220.6461 H   0  0  0  0  0  0  0  0  0  0  0  0
  138.2928   74.5190  220.7088 H   0  0  0  0  0  0  0  0  0  0  0  0
  141.5424   76.4591  220.5445 H   0  0  0  0  0  0  0  0  0  0  0  0
  140.3563   77.2885  219.5227 H   0  0  0  0  0  0  0  0  0  0  0  0
  142.6236   78.5082  220.3981 H   0  0  0  0  0  0  0  0  0  0  0  0
  141.1578   79.4330  220.1596 H   0  0  0  0  0  0  0  0  0  0  0  0
  142.1904   78.1146  222.7682 H   0  0  0  0  0  0  0  0  0  0  0  0
  141.7495   79.7818  222.5916 H   0  0  0  0  0  0  0  0  0  0  0  0
  139.8159   78.1328  223.5239 H   0  0  0  0  0  0  0  0  0  0  0  0
  139.7775   80.3168  221.6926 H   0  0  0  0  0  0  0  0  0  0  0  0
  138.4568   79.0954  221.3291 H   0  0  0  0  0  0  0  0  0  0  0  0
  139.8716   81.0999  224.1887 H   0  0  0  0  0  0  0  0  0  0  0  0
  138.4320   81.9547  226.0021 H   0  0  0  0  0  0  0  0  0  0  0  0
  135.0743   79.9494  224.2543 H   0  0  0  0  0  0  0  0  0  0  0  0
  136.5128   79.0981  222.4558 H   0  0  0  0  0  0  0  0  0  0  0  0
  138.7987   69.8458  221.9145 H   0  0  0  0  0  0  0  0  0  0  0  0
  139.1609   68.1947  223.7248 H   0  0  0  0  0  0  0  0  0  0  0  0
  139.9473   67.7303  226.0382 H   0  0  0  0  0  0  0  0  0  0  0  0
  141.4709   70.9855  228.3787 H   0  0  0  0  0  0  0  0  0  0  0  0
  141.0757   72.5700  226.5134 H   0  0  0  0  0  0  0  0  0  0  0  0
  1  2  2  0
  2  3  1  0
  3  4  1  0
  4  5  1  0
  5  6  2  0
  5  7  1  0
  7  8  1  0
  8  9  1  0
  9 10  1  0
 10 11  1  0
 11 12  1  0
 12 13  1  0
 13 14  2  0
 14 15  1  0
 15 16  2  0
 16 17  1  0
 16 18  1  0
 18 19  2  0
  2 20  1  0
 20 21  2  0
 21 22  1  0
 22 23  2  0
 23 24  1  0
 24 25  2  0
 25 26  1  0
 25 27  1  0
 27 28  2  0
 28 29  1  0
 29 30  2  0
 11  7  1  0
 19 13  1  0
 30 20  1  0
 29 23  1  0
  3 31  1  0
  4 32  1  0
  4 33  1  0
  8 34  1  0
  8 35  1  0
  9 36  1  0
  9 37  1  0
 10 38  1  0
 10 39  1  0
 11 40  1  1
 12 41  1  0
 12 42  1  0
 14 43  1  0
 15 44  1  0
 18 45  1  0
 19 46  1  0
 21 47  1  0
 22 48  1  0
 24 49  1  0
 27 50  1  0
 28 51  1  0
M  END
>  <smiles>  (23) 
O=C(NCC(=O)N1CCC[C@H]1Cc1ccc(Cl)cc1)c1ccc2cc(Cl)ccc2n1

>  <score_type>  (23) 
oracle

>  <origin>  (23) 
autodockgpu

>  <m_score__min__energy>  (23) 
-8.8200000000000003

>  <m_primary>  (23) 
energy

>  <rmsd>  (23) 
2.533015402450904

>  <m_score__min__rmsd>  (23) 
2.533015402450904

>  <meeko>  (23) 
{"free_energy": -8.21, "intermolecular_energy": -10.0, "internal_energy": -1.48, "cluster_size": 3, "cluster_id": 4, "rank_in_cluster": 3}

>  <energy>  (23) 
-7.67

>  <cluster_rmsd>  (23) 
1.73

>  <cluster>  (23) 
2

$$$$

     RDKit          3D

 51 54  0  0  0  0  0  0  0  0999 V2000
  135.0480   68.6040  225.2560 O   0  0  0  0  0  0  0  0  0  0  0  0
  135.0500   69.7820  224.8080 C   0  0  0  0  0  0  0  0  0  0  0  0
  135.7100   70.1190  223.5950 N   0  0  0  0  0  0  0  0  0  0  0  0
  136.3830   69.0840  222.8780 C   0  0  0  0  0  0  0  0  0  0  0  0
  137.8530   69.1720  222.9480 C   0  0  0  0  0  0  0  0  0  0  0  0
  138.4890   68.1470  223.3240 O   0  0  0  0  0  0  0  0  0  0  0  0
  138.4870   70.3940  222.5970 N   0  0  0  0  0  0  0  0  0  0  0  0
  137.9670   71.4380  221.7350 C   0  0  0  0  0  0  0  0  0  0  0  0
  138.9880   72.5250  221.7460 C   0  0  0  0  0  0  0  0  0  0  0  0
  140.2830   71.7700  222.0100 C   0  0  0  0  0  0  0  0  0  0  0  0
  139.8200   70.8000  223.0730 C   0  0  1  0  0  0  0  0  0  0  0  0
  139.7310   71.5150  224.3850 C   0  0  0  0  0  0  0  0  0  0  0  0
  140.1510   70.7100  225.5540 C   0  0  0  0  0  0  0  0  0  0  0  0
  140.6410   71.2530  226.7230 C   0  0  0  0  0  0  0  0  0  0  0  0
  141.0340   70.4700  227.8050 C   0  0  0  0  0  0  0  0  0  0  0  0
  140.9430   69.0960  227.7380 C   0  0  0  0  0  0  0  0  0  0  0  0
  141.4340   68.0960  229.0890 Cl  0  0  0  0  0  0  0  0  0  0  0  0
  140.4560   68.5290  226.5790 C   0  0  0  0  0  0  0  0  0  0  0  0
  140.0690   69.3140  225.5130 C   0  0  0  0  0  0  0  0  0  0  0  0
  134.3670   70.8680  225.5230 C   0  0  0  0  0  0  0  0  0  0  0  0
  133.4280   70.5990  226.5100 C   0  0  0  0  0  0  0  0  0  0  0  0
  132.7750   71.6170  227.1940 C   0  0  0  0  0  0  0  0  0  0  0  0
  133.0570   72.9330  226.8950 C   0  0  0  0  0  0  0  0  0  0  0  0
  132.4540   74.0000  227.5270 C   0  0  0  0  0  0  0  0  0  0  0  0
  132.7780   75.3110  227.1810 C   0  0  0  0  0  0  0  0  0  0  0  0
  132.0140   76.6810  227.9810 Cl  0  0  0  0  0  0  0  0  0  0  0  0
  133.7220   75.5130  226.1890 C   0  0  0  0  0  0  0  0  0  0  0  0
  134.3500   74.4730  225.5320 C   0  0  0  0  0  0  0  0  0  0  0  0
  134.0030   73.1860  225.8990 C   0  0  0  0  0  0  0  0  0  0  0  0
  134.6060   72.1670  225.2680 N   0  0  0  0  0  0  0  0  0  0  0  0
  135.7270   71.0910  223.2020 H   0  0  0  0  0  0  0  0  0  0  0  0
  136.0731   68.1146  223.2955 H   0  0  0  0  0  0  0  0  0  0  0  0
  136.1050   69.1940  221.8194 H   0  0  0  0  0  0  0  0  0  0  0  0
  137.8265   71.0556  220.7132 H   0  0  0  0  0  0  0  0  0  0  0  0
  136.9888   71.7998  222.0846 H   0  0  0  0  0  0  0  0  0  0  0  0
  139.0232   73.0451  220.7774 H   0  0  0  0  0  0  0  0  0  0  0  0
  138.7816   73.3083  222.4902 H   0  0  0  0  0  0  0  0  0  0  0  0
  140.6399   71.2475  221.1102 H   0  0  0  0  0  0  0  0  0  0  0  0
  141.1328   72.4034  222.3042 H   0  0  0  0  0  0  0  0  0  0  0  0
  140.4903   69.9412  223.2256 H   0  0  0  0  0  0  0  0  0  0  0  0
  140.3726   72.4070  224.3341 H   0  0  0  0  0  0  0  0  0  0  0  0
  138.6687   71.7564  224.5376 H   0  0  0  0  0  0  0  0  0  0  0  0
  140.7246   72.3468  226.8037 H   0  0  0  0  0  0  0  0  0  0  0  0
  141.4187   70.9496  228.7171 H   0  0  0  0  0  0  0  0  0  0  0  0
  140.3750   67.4346  226.5036 H   0  0  0  0  0  0  0  0  0  0  0  0
  139.6846   68.8282  224.6040 H   0  0  0  0  0  0  0  0  0  0  0  0
  133.1950   69.5527  226.7568 H   0  0  0  0  0  0  0  0  0  0  0  0
  132.0356   71.3738  227.9713 H   0  0  0  0  0  0  0  0  0  0  0  0
  131.7081   73.8144  228.3139 H   0  0  0  0  0  0  0  0  0  0  0  0
  133.9830   76.5451  225.9123 H   0  0  0  0  0  0  0  0  0  0  0  0
  135.0973   74.6614  224.7471 H   0  0  0  0  0  0  0  0  0  0  0  0
  1  2  2  0
  2  3  1  0
  3  4  1  0
  4  5  1  0
  5  6  2  0
  5  7  1  0
  7  8  1  0
  8  9  1  0
  9 10  1  0
 10 11  1  0
 11 12  1  0
 12 13  1  0
 13 14  2  0
 14 15  1  0
 15 16  2  0
 16 17  1  0
 16 18  1  0
 18 19  2  0
  2 20  1  0
 20 21  2  0
 21 22  1  0
 22 23  2  0
 23 24  1  0
 24 25  2  0
 25 26  1  0
 25 27  1  0
 27 28  2  0
 28 29  1  0
 29 30  2  0
 11  7  1  0
 19 13  1  0
 30 20  1  0
 29 23  1  0
  3 31  1  0
  4 32  1  0
  4 33  1  0
  8 34  1  0
  8 35  1  0
  9 36  1  0
  9 37  1  0
 10 38  1  0
 10 39  1  0
 11 40  1  1
 12 41  1  0
 12 42  1  0
 14 43  1  0
 15 44  1  0
 18 45  1  0
 19 46  1  0
 21 47  1  0
 22 48  1  0
 24 49  1  0
 27 50  1  0
 28 51  1  0
M  END
>  <smiles>  (24) 
O=C(NCC(=O)N1CCC[C@H]1Cc1ccc(Cl)cc1)c1ccc2cc(Cl)ccc2n1

>  <score_type>  (24) 
oracle

>  <origin>  (24) 
autodockgpu

>  <m_score__min__energy>  (24) 
-8.8200000000000003

>  <m_primary>  (24) 
energy

>  <rmsd>  (24) 
6.790198066822191

>  <m_score__min__rmsd>  (24) 
6.790198066822191

>  <meeko>  (24) 
{"free_energy": -8.01, "intermolecular_energy": -9.8, "internal_energy": -1.83, "cluster_size": 12, "cluster_id": 2, "rank_in_cluster": 2}

>  <energy>  (24) 
-7.62

>  <cluster_rmsd>  (24) 
1.94

>  <cluster>  (24) 
2

$$$$

     RDKit          3D

 51 54  0  0  0  0  0  0  0  0999 V2000
  140.4620   72.8580  220.7800 O   0  0  0  0  0  0  0  0  0  0  0  0
  140.0630   73.0970  221.9510 C   0  0  0  0  0  0  0  0  0  0  0  0
  139.5930   74.3840  222.3320 N   0  0  0  0  0  0  0  0  0  0  0  0
  139.5810   75.4200  221.3510 C   0  0  0  0  0  0  0  0  0  0  0  0
  140.6180   76.4480  221.5600 C   0  0  0  0  0  0  0  0  0  0  0  0
  140.8900   76.7800  222.7480 O   0  0  0  0  0  0  0  0  0  0  0  0
  141.2590   77.0180  220.4280 N   0  0  0  0  0  0  0  0  0  0  0  0
  141.4290   78.4270  220.1300 C   0  0  0  0  0  0  0  0  0  0  0  0
  142.2190   78.4880  218.8670 C   0  0  0  0  0  0  0  0  0  0  0  0
  141.8430   77.1870  218.1710 C   0  0  0  0  0  0  0  0  0  0  0  0
  141.8730   76.2330  219.3430 C   0  0  1  0  0  0  0  0  0  0  0  0
  143.2950   75.8900  219.6620 C   0  0  0  0  0  0  0  0  0  0  0  0
  143.5820   74.4390  219.7050 C   0  0  0  0  0  0  0  0  0  0  0  0
  144.5360   73.8690  220.5210 C   0  0  0  0  0  0  0  0  0  0  0  0
  144.7900   72.5010  220.5350 C   0  0  0  0  0  0  0  0  0  0  0  0
  144.0760   71.6530  219.7150 C   0  0  0  0  0  0  0  0  0  0  0  0
  144.3820   69.9290  219.7200 Cl  0  0  0  0  0  0  0  0  0  0  0  0
  143.1150   72.1990  218.8890 C   0  0  0  0  0  0  0  0  0  0  0  0
  142.8730   73.5570  218.8820 C   0  0  0  0  0  0  0  0  0  0  0  0
  140.0620   72.0520  222.9810 C   0  0  0  0  0  0  0  0  0  0  0  0
  139.5760   70.7790  222.7150 C   0  0  0  0  0  0  0  0  0  0  0  0
  139.5710   69.7800  223.6800 C   0  0  0  0  0  0  0  0  0  0  0  0
  140.0590   70.0470  224.9420 C   0  0  0  0  0  0  0  0  0  0  0  0
  140.0890   69.1120  225.9560 C   0  0  0  0  0  0  0  0  0  0  0  0
  140.5930   69.4400  227.2140 C   0  0  0  0  0  0  0  0  0  0  0  0
  140.6370   68.2550  228.5160 Cl  0  0  0  0  0  0  0  0  0  0  0  0
  141.0630   70.7260  227.4170 C   0  0  0  0  0  0  0  0  0  0  0  0
  141.0520   71.6910  226.4300 C   0  0  0  0  0  0  0  0  0  0  0  0
  140.5430   71.3320  225.1950 C   0  0  0  0  0  0  0  0  0  0  0  0
  140.5270   72.2610  224.2270 N   0  0  0  0  0  0  0  0  0  0  0  0
  139.2560   74.6080  223.2990 H   0  0  0  0  0  0  0  0  0  0  0  0
  139.7387   74.9638  220.3625 H   0  0  0  0  0  0  0  0  0  0  0  0
  138.6073   75.9256  221.4300 H   0  0  0  0  0  0  0  0  0  0  0  0
  140.4500   78.9092  219.9920 H   0  0  0  0  0  0  0  0  0  0  0  0
  141.9394   78.9533  220.9501 H   0  0  0  0  0  0  0  0  0  0  0  0
  141.9305   79.3594  218.2609 H   0  0  0  0  0  0  0  0  0  0  0  0
  143.3008   78.5954  219.0347 H   0  0  0  0  0  0  0  0  0  0  0  0
  140.8424   77.2428  217.7176 H   0  0  0  0  0  0  0  0  0  0  0  0
  142.4992   76.9073  217.3337 H   0  0  0  0  0  0  0  0  0  0  0  0
  141.3506   75.2813  219.1657 H   0  0  0  0  0  0  0  0  0  0  0  0
  143.9385   76.3448  218.8945 H   0  0  0  0  0  0  0  0  0  0  0  0
  143.4908   76.2775  220.6727 H   0  0  0  0  0  0  0  0  0  0  0  0
  145.1194   74.5215  221.1873 H   0  0  0  0  0  0  0  0  0  0  0  0
  145.5636   72.0944  221.2030 H   0  0  0  0  0  0  0  0  0  0  0  0
  142.5332   71.5416  218.2262 H   0  0  0  0  0  0  0  0  0  0  0  0
  142.1002   73.9582  218.2099 H   0  0  0  0  0  0  0  0  0  0  0  0
  139.1839   70.5553  221.7119 H   0  0  0  0  0  0  0  0  0  0  0  0
  139.1797   68.7806  223.4388 H   0  0  0  0  0  0  0  0  0  0  0  0
  139.7109   68.0959  225.7699 H   0  0  0  0  0  0  0  0  0  0  0  0
  141.4624   70.9903  228.4073 H   0  0  0  0  0  0  0  0  0  0  0  0
  141.4330   72.7056  226.6182 H   0  0  0  0  0  0  0  0  0  0  0  0
  1  2  2  0
  2  3  1  0
  3  4  1  0
  4  5  1  0
  5  6  2  0
  5  7  1  0
  7  8  1  0
  8  9  1  0
  9 10  1  0
 10 11  1  0
 11 12  1  0
 12 13  1  0
 13 14  2  0
 14 15  1  0
 15 16  2  0
 16 17  1  0
 16 18  1  0
 18 19  2  0
  2 20  1  0
 20 21  2  0
 21 22  1  0
 22 23  2  0
 23 24  1  0
 24 25  2  0
 25 26  1  0
 25 27  1  0
 27 28  2  0
 28 29  1  0
 29 30  2  0
 11  7  1  0
 19 13  1  0
 30 20  1  0
 29 23  1  0
  3 31  1  0
  4 32  1  0
  4 33  1  0
  8 34  1  0
  8 35  1  0
  9 36  1  0
  9 37  1  0
 10 38  1  0
 10 39  1  0
 11 40  1  6
 12 41  1  0
 12 42  1  0
 14 43  1  0
 15 44  1  0
 18 45  1  0
 19 46  1  0
 21 47  1  0
 22 48  1  0
 24 49  1  0
 27 50  1  0
 28 51  1  0
M  END
>  <smiles>  (25) 
O=C(NCC(=O)N1CCC[C@H]1Cc1ccc(Cl)cc1)c1ccc2cc(Cl)ccc2n1

>  <score_type>  (25) 
oracle

>  <origin>  (25) 
autodockgpu

>  <m_score__min__energy>  (25) 
-8.8200000000000003

>  <m_primary>  (25) 
energy

>  <rmsd>  (25) 
2.3370989522321133

>  <m_score__min__rmsd>  (25) 
2.3370989522321133

>  <meeko>  (25) 
{"free_energy": -8.13, "intermolecular_energy": -9.92, "internal_energy": -2.09, "cluster_size": 14, "cluster_id": 3, "rank_in_cluster": 6}

>  <energy>  (25) 
-7.44

>  <cluster_rmsd>  (25) 
1.88

>  <cluster>  (25) 
2

$$$$

     RDKit          3D

 51 54  0  0  0  0  0  0  0  0999 V2000
  134.0150   71.3570  225.5540 O   0  0  0  0  0  0  0  0  0  0  0  0
  134.7130   72.3610  225.2500 C   0  0  0  0  0  0  0  0  0  0  0  0
  135.9060   72.2380  224.4870 N   0  0  0  0  0  0  0  0  0  0  0  0
  136.3090   70.9360  224.0620 C   0  0  0  0  0  0  0  0  0  0  0  0
  137.0750   70.9330  222.8020 C   0  0  0  0  0  0  0  0  0  0  0  0
  137.4020   72.0490  222.3070 O   0  0  0  0  0  0  0  0  0  0  0  0
  137.4070   69.6890  222.2020 N   0  0  0  0  0  0  0  0  0  0  0  0
  137.5020   69.3930  220.7850 C   0  0  0  0  0  0  0  0  0  0  0  0
  137.9420   67.9710  220.6910 C   0  0  0  0  0  0  0  0  0  0  0  0
  137.3930   67.3630  221.9740 C   0  0  0  0  0  0  0  0  0  0  0  0
  137.7180   68.4640  222.9580 C   0  0  1  0  0  0  0  0  0  0  0  0
  139.1720   68.3980  223.3070 C   0  0  0  0  0  0  0  0  0  0  0  0
  139.5750   69.2740  224.4300 C   0  0  0  0  0  0  0  0  0  0  0  0
  140.0380   70.5630  224.2700 C   0  0  0  0  0  0  0  0  0  0  0  0
  140.4160   71.3620  225.3460 C   0  0  0  0  0  0  0  0  0  0  0  0
  140.3370   70.8760  226.6340 C   0  0  0  0  0  0  0  0  0  0  0  0
  140.8080   71.8680  227.9990 Cl  0  0  0  0  0  0  0  0  0  0  0  0
  139.8770   69.5900  226.8200 C   0  0  0  0  0  0  0  0  0  0  0  0
  139.5050   68.8060  225.7470 C   0  0  0  0  0  0  0  0  0  0  0  0
  134.3240   73.7120  225.6720 C   0  0  0  0  0  0  0  0  0  0  0  0
  134.9390   74.8360  225.1380 C   0  0  0  0  0  0  0  0  0  0  0  0
  134.5800   76.1210  225.5280 C   0  0  0  0  0  0  0  0  0  0  0  0
  133.5880   76.2970  226.4690 C   0  0  0  0  0  0  0  0  0  0  0  0
  133.1740   77.5380  226.9100 C   0  0  0  0  0  0  0  0  0  0  0  0
  132.1660   77.6550  227.8660 C   0  0  0  0  0  0  0  0  0  0  0  0
  131.6290   79.2320  228.4360 Cl  0  0  0  0  0  0  0  0  0  0  0  0
  131.5920   76.4960  228.3600 C   0  0  0  0  0  0  0  0  0  0  0  0
  131.9770   75.2360  227.9460 C   0  0  0  0  0  0  0  0  0  0  0  0
  132.9800   75.1570  226.9980 C   0  0  0  0  0  0  0  0  0  0  0  0
  133.3640   73.9380  226.5870 N   0  0  0  0  0  0  0  0  0  0  0  0
  136.5040   73.0570  224.2210 H   0  0  0  0  0  0  0  0  0  0  0  0
  136.9353   70.4921  224.8499 H   0  0  0  0  0  0  0  0  0  0  0  0
  135.3902   70.3591  223.8803 H   0  0  0  0  0  0  0  0  0  0  0  0
  136.5229   69.5230  220.3009 H   0  0  0  0  0  0  0  0  0  0  0  0
  138.2081   70.0677  220.2788 H   0  0  0  0  0  0  0  0  0  0  0  0
  137.5124   67.4810  219.8048 H   0  0  0  0  0  0  0  0  0  0  0  0
  139.0312   67.8580  220.5866 H   0  0  0  0  0  0  0  0  0  0  0  0
  136.3098   67.1835  221.9078 H   0  0  0  0  0  0  0  0  0  0  0  0
  137.8107   66.3785  222.2314 H   0  0  0  0  0  0  0  0  0  0  0  0
  137.1629   68.4034  223.9057 H   0  0  0  0  0  0  0  0  0  0  0  0
  139.4133   67.3595  223.5779 H   0  0  0  0  0  0  0  0  0  0  0  0
  139.7220   68.7512  222.4223 H   0  0  0  0  0  0  0  0  0  0  0  0
  140.1116   70.9760  223.2531 H   0  0  0  0  0  0  0  0  0  0  0  0
  140.7791   72.3849  225.1678 H   0  0  0  0  0  0  0  0  0  0  0  0
  139.8053   69.1825  227.8392 H   0  0  0  0  0  0  0  0  0  0  0  0
  139.1431   67.7839  225.9322 H   0  0  0  0  0  0  0  0  0  0  0  0
  135.7315   74.7064  224.3862 H   0  0  0  0  0  0  0  0  0  0  0  0
  135.0851   76.9934  225.0878 H   0  0  0  0  0  0  0  0  0  0  0  0
  133.6448   78.4448  226.5025 H   0  0  0  0  0  0  0  0  0  0  0  0
  130.7957   76.5824  229.1140 H   0  0  0  0  0  0  0  0  0  0  0  0
  131.5041   74.3308  228.3546 H   0  0  0  0  0  0  0  0  0  0  0  0
  1  2  2  0
  2  3  1  0
  3  4  1  0
  4  5  1  0
  5  6  2  0
  5  7  1  0
  7  8  1  0
  8  9  1  0
  9 10  1  0
 10 11  1  0
 11 12  1  0
 12 13  1  0
 13 14  2  0
 14 15  1  0
 15 16  2  0
 16 17  1  0
 16 18  1  0
 18 19  2  0
  2 20  1  0
 20 21  2  0
 21 22  1  0
 22 23  2  0
 23 24  1  0
 24 25  2  0
 25 26  1  0
 25 27  1  0
 27 28  2  0
 28 29  1  0
 29 30  2  0
 11  7  1  0
 19 13  1  0
 30 20  1  0
 29 23  1  0
  3 31  1  0
  4 32  1  0
  4 33  1  0
  8 34  1  0
  8 35  1  0
  9 36  1  0
  9 37  1  0
 10 38  1  0
 10 39  1  0
 11 40  1  1
 12 41  1  0
 12 42  1  0
 14 43  1  0
 15 44  1  0
 18 45  1  0
 19 46  1  0
 21 47  1  0
 22 48  1  0
 24 49  1  0
 27 50  1  0
 28 51  1  0
M  END
>  <smiles>  (26) 
O=C(NCC(=O)N1CCC[C@H]1Cc1ccc(Cl)cc1)c1ccc2cc(Cl)ccc2n1

>  <score_type>  (26) 
oracle

>  <origin>  (26) 
autodockgpu

>  <m_score__min__energy>  (26) 
-8.8200000000000003

>  <m_primary>  (26) 
energy

>  <rmsd>  (26) 
8.554843691099597

>  <m_score__min__rmsd>  (26) 
8.554843691099597

>  <meeko>  (26) 
{"free_energy": -7.62, "intermolecular_energy": -9.41, "internal_energy": -1.93, "cluster_size": 12, "cluster_id": 2, "rank_in_cluster": 11}

>  <energy>  (26) 
-8.67

>  <cluster_rmsd>  (26) 
0.0

>  <cluster>  (26) 
3

$$$$

     RDKit          3D

 51 54  0  0  0  0  0  0  0  0999 V2000
  133.8450   69.9720  226.5900 O   0  0  0  0  0  0  0  0  0  0  0  0
  133.9400   71.0790  225.9960 C   0  0  0  0  0  0  0  0  0  0  0  0
  134.7000   71.2240  224.8030 N   0  0  0  0  0  0  0  0  0  0  0  0
  135.3650   70.0750  224.2790 C   0  0  0  0  0  0  0  0  0  0  0  0
  136.8330   70.1310  224.4030 C   0  0  0  0  0  0  0  0  0  0  0  0
  137.3770   69.4370  225.3080 O   0  0  0  0  0  0  0  0  0  0  0  0
  137.5680   70.9570  223.5110 N   0  0  0  0  0  0  0  0  0  0  0  0
  137.0790   72.0990  222.7640 C   0  0  0  0  0  0  0  0  0  0  0  0
  138.2570   72.6480  222.0320 C   0  0  0  0  0  0  0  0  0  0  0  0
  139.1360   71.4200  221.8400 C   0  0  0  0  0  0  0  0  0  0  0  0
  138.9950   70.7680  223.1970 C   0  0  1  0  0  0  0  0  0  0  0  0
  139.8640   71.4890  224.1800 C   0  0  0  0  0  0  0  0  0  0  0  0
  140.2130   70.7020  225.3840 C   0  0  0  0  0  0  0  0  0  0  0  0
  140.4680   71.2610  226.6180 C   0  0  0  0  0  0  0  0  0  0  0  0
  140.8000   70.4960  227.7330 C   0  0  0  0  0  0  0  0  0  0  0  0
  140.8850   69.1230  227.6330 C   0  0  0  0  0  0  0  0  0  0  0  0
  141.3010   68.1450  229.0260 Cl  0  0  0  0  0  0  0  0  0  0  0  0
  140.6340   68.5400  226.4090 C   0  0  0  0  0  0  0  0  0  0  0  0
  140.3060   69.3080  225.3110 C   0  0  0  0  0  0  0  0  0  0  0  0
  133.2670   72.2780  226.5110 C   0  0  0  0  0  0  0  0  0  0  0  0
  132.0570   72.1890  227.1850 C   0  0  0  0  0  0  0  0  0  0  0  0
  131.4090   73.3150  227.6780 C   0  0  0  0  0  0  0  0  0  0  0  0
  131.9730   74.5610  227.4990 C   0  0  0  0  0  0  0  0  0  0  0  0
  131.3950   75.7270  227.9570 C   0  0  0  0  0  0  0  0  0  0  0  0
  132.0110   76.9590  227.7460 C   0  0  0  0  0  0  0  0  0  0  0  0
  131.2830   78.4540  228.3250 Cl  0  0  0  0  0  0  0  0  0  0  0  0
  133.2170   76.9820  227.0660 C   0  0  0  0  0  0  0  0  0  0  0  0
  133.8290   75.8390  226.5930 C   0  0  0  0  0  0  0  0  0  0  0  0
  133.1900   74.6330  226.8180 C   0  0  0  0  0  0  0  0  0  0  0  0
  133.7740   73.5150  226.3630 N   0  0  0  0  0  0  0  0  0  0  0  0
  134.7950   72.1330  224.2910 H   0  0  0  0  0  0  0  0  0  0  0  0
  135.0045   69.1881  224.8207 H   0  0  0  0  0  0  0  0  0  0  0  0
  135.1349   70.0331  223.2042 H   0  0  0  0  0  0  0  0  0  0  0  0
  136.2999   71.7855  222.0535 H   0  0  0  0  0  0  0  0  0  0  0  0
  136.6311   72.8526  223.4284 H   0  0  0  0  0  0  0  0  0  0  0  0
  137.9577   73.0765  221.0641 H   0  0  0  0  0  0  0  0  0  0  0  0
  138.7612   73.4653  222.5684 H   0  0  0  0  0  0  0  0  0  0  0  0
  138.7580   70.7712  221.0361 H   0  0  0  0  0  0  0  0  0  0  0  0
  140.1717   71.6388  221.5411 H   0  0  0  0  0  0  0  0  0  0  0  0
  139.2946   69.7100  223.2252 H   0  0  0  0  0  0  0  0  0  0  0  0
  140.7977   71.7706  223.6712 H   0  0  0  0  0  0  0  0  0  0  0  0
  139.2862   72.3570  224.5304 H   0  0  0  0  0  0  0  0  0  0  0  0
  140.4068   72.3540  226.7260 H   0  0  0  0  0  0  0  0  0  0  0  0
  140.9952   70.9884  228.6971 H   0  0  0  0  0  0  0  0  0  0  0  0
  140.6962   67.4466  226.3065 H   0  0  0  0  0  0  0  0  0  0  0  0
  140.1119   68.8097  224.3498 H   0  0  0  0  0  0  0  0  0  0  0  0
  131.5985   71.2001  227.3329 H   0  0  0  0  0  0  0  0  0  0  0  0
  130.4508   73.2132  228.2085 H   0  0  0  0  0  0  0  0  0  0  0  0
  130.4366   75.6836  228.4951 H   0  0  0  0  0  0  0  0  0  0  0  0
  133.7077   77.9517  226.8957 H   0  0  0  0  0  0  0  0  0  0  0  0
  134.7886   75.8853  226.0573 H   0  0  0  0  0  0  0  0  0  0  0  0
  1  2  2  0
  2  3  1  0
  3  4  1  0
  4  5  1  0
  5  6  2  0
  5  7  1  0
  7  8  1  0
  8  9  1  0
  9 10  1  0
 10 11  1  0
 11 12  1  0
 12 13  1  0
 13 14  2  0
 14 15  1  0
 15 16  2  0
 16 17  1  0
 16 18  1  0
 18 19  2  0
  2 20  1  0
 20 21  2  0
 21 22  1  0
 22 23  2  0
 23 24  1  0
 24 25  2  0
 25 26  1  0
 25 27  1  0
 27 28  2  0
 28 29  1  0
 29 30  2  0
 11  7  1  0
 19 13  1  0
 30 20  1  0
 29 23  1  0
  3 31  1  0
  4 32  1  0
  4 33  1  0
  8 34  1  0
  8 35  1  0
  9 36  1  0
  9 37  1  0
 10 38  1  0
 10 39  1  0
 11 40  1  6
 12 41  1  0
 12 42  1  0
 14 43  1  0
 15 44  1  0
 18 45  1  0
 19 46  1  0
 21 47  1  0
 22 48  1  0
 24 49  1  0
 27 50  1  0
 28 51  1  0
M  END
>  <smiles>  (27) 
O=C(NCC(=O)N1CCC[C@H]1Cc1ccc(Cl)cc1)c1ccc2cc(Cl)ccc2n1

>  <score_type>  (27) 
oracle

>  <origin>  (27) 
autodockgpu

>  <m_score__min__energy>  (27) 
-8.8200000000000003

>  <m_primary>  (27) 
energy

>  <rmsd>  (27) 
7.827342626945287

>  <m_score__min__rmsd>  (27) 
7.827342626945287

>  <meeko>  (27) 
{"free_energy": -8.69, "intermolecular_energy": -10.48, "internal_energy": -1.6, "cluster_size": 12, "cluster_id": 2, "rank_in_cluster": 1}

>  <energy>  (27) 
-8.56

>  <cluster_rmsd>  (27) 
0.38

>  <cluster>  (27) 
3

$$$$

     RDKit          3D

 51 54  0  0  0  0  0  0  0  0999 V2000
  137.4800   74.4430  220.8030 O   0  0  0  0  0  0  0  0  0  0  0  0
  137.5870   75.0100  221.9220 C   0  0  0  0  0  0  0  0  0  0  0  0
  136.6810   74.7430  222.9850 N   0  0  0  0  0  0  0  0  0  0  0  0
  135.6290   73.8050  222.7600 C   0  0  0  0  0  0  0  0  0  0  0  0
  135.9030   72.4640  223.3090 C   0  0  0  0  0  0  0  0  0  0  0  0
  135.3400   72.1430  224.3930 O   0  0  0  0  0  0  0  0  0  0  0  0
  136.7810   71.5980  222.6030 N   0  0  0  0  0  0  0  0  0  0  0  0
  137.0250   71.5670  221.1740 C   0  0  0  0  0  0  0  0  0  0  0  0
  138.0720   70.5270  220.9580 C   0  0  0  0  0  0  0  0  0  0  0  0
  137.8430   69.5730  222.1210 C   0  0  0  0  0  0  0  0  0  0  0  0
  137.6080   70.5600  223.2420 C   0  0  1  0  0  0  0  0  0  0  0  0
  138.9230   71.1170  223.6900 C   0  0  0  0  0  0  0  0  0  0  0  0
  139.4620   70.5040  224.9250 C   0  0  0  0  0  0  0  0  0  0  0  0
  140.3140   71.1510  225.7940 C   0  0  0  0  0  0  0  0  0  0  0  0
  140.8100   70.5460  226.9450 C   0  0  0  0  0  0  0  0  0  0  0  0
  140.4550   69.2510  227.2590 C   0  0  0  0  0  0  0  0  0  0  0  0
  141.0700   68.4750  228.7030 Cl  0  0  0  0  0  0  0  0  0  0  0  0
  139.6030   68.5820  226.4050 C   0  0  0  0  0  0  0  0  0  0  0  0
  139.1180   69.1910  225.2660 C   0  0  0  0  0  0  0  0  0  0  0  0
  138.6590   75.9790  222.1830 C   0  0  0  0  0  0  0  0  0  0  0  0
  139.9860   75.6730  221.9150 C   0  0  0  0  0  0  0  0  0  0  0  0
  141.0100   76.5810  222.1560 C   0  0  0  0  0  0  0  0  0  0  0  0
  140.7130   77.8230  222.6770 C   0  0  0  0  0  0  0  0  0  0  0  0
  141.6700   78.7800  222.9450 C   0  0  0  0  0  0  0  0  0  0  0  0
  141.3110   80.0190  223.4730 C   0  0  0  0  0  0  0  0  0  0  0  0
  142.5230   81.2490  223.8200 Cl  0  0  0  0  0  0  0  0  0  0  0  0
  139.9710   80.2640  223.7180 C   0  0  0  0  0  0  0  0  0  0  0  0
  138.9820   79.3350  223.4630 C   0  0  0  0  0  0  0  0  0  0  0  0
  139.3740   78.1150  222.9420 C   0  0  0  0  0  0  0  0  0  0  0  0
  138.4220   77.2030  222.6900 N   0  0  0  0  0  0  0  0  0  0  0  0
  136.7480   75.2030  223.9250 H   0  0  0  0  0  0  0  0  0  0  0  0
  134.7125   74.1918  223.2294 H   0  0  0  0  0  0  0  0  0  0  0  0
  135.5269   73.6917  221.6706 H   0  0  0  0  0  0  0  0  0  0  0  0
  136.1041   71.3000  220.6348 H   0  0  0  0  0  0  0  0  0  0  0  0
  137.3493   72.5490  220.7993 H   0  0  0  0  0  0  0  0  0  0  0  0
  137.9313   70.0172  219.9935 H   0  0  0  0  0  0  0  0  0  0  0  0
  139.0925   70.9362  220.9243 H   0  0  0  0  0  0  0  0  0  0  0  0
  136.9653   68.9314  221.9537 H   0  0  0  0  0  0  0  0  0  0  0  0
  138.6628   68.8617  222.2998 H   0  0  0  0  0  0  0  0  0  0  0  0
  137.1275   70.1288  224.1326 H   0  0  0  0  0  0  0  0  0  0  0  0
  139.6541   70.9627  222.8828 H   0  0  0  0  0  0  0  0  0  0  0  0
  138.7508   72.1792  223.9181 H   0  0  0  0  0  0  0  0  0  0  0  0
  140.6134   72.1853  225.5692 H   0  0  0  0  0  0  0  0  0  0  0  0
  141.4885   71.1035  227.6075 H   0  0  0  0  0  0  0  0  0  0  0  0
  139.3060   67.5482  226.6354 H   0  0  0  0  0  0  0  0  0  0  0  0
  138.4411   68.6280  224.6066 H   0  0  0  0  0  0  0  0  0  0  0  0
  140.2339   74.6847  221.5005 H   0  0  0  0  0  0  0  0  0  0  0  0
  142.0525   76.3105  221.9323 H   0  0  0  0  0  0  0  0  0  0  0  0
  142.7286   78.5627  222.7396 H   0  0  0  0  0  0  0  0  0  0  0  0
  139.6816   81.2405  224.1336 H   0  0  0  0  0  0  0  0  0  0  0  0
  137.9238   79.5563  223.6662 H   0  0  0  0  0  0  0  0  0  0  0  0
  1  2  2  0
  2  3  1  0
  3  4  1  0
  4  5  1  0
  5  6  2  0
  5  7  1  0
  7  8  1  0
  8  9  1  0
  9 10  1  0
 10 11  1  0
 11 12  1  0
 12 13  1  0
 13 14  2  0
 14 15  1  0
 15 16  2  0
 16 17  1  0
 16 18  1  0
 18 19  2  0
  2 20  1  0
 20 21  2  0
 21 22  1  0
 22 23  2  0
 23 24  1  0
 24 25  2  0
 25 26  1  0
 25 27  1  0
 27 28  2  0
 28 29  1  0
 29 30  2  0
 11  7  1  0
 19 13  1  0
 30 20  1  0
 29 23  1  0
  3 31  1  0
  4 32  1  0
  4 33  1  0
  8 34  1  0
  8 35  1  0
  9 36  1  0
  9 37  1  0
 10 38  1  0
 10 39  1  0
 11 40  1  1
 12 41  1  0
 12 42  1  0
 14 43  1  0
 15 44  1  0
 18 45  1  0
 19 46  1  0
 21 47  1  0
 22 48  1  0
 24 49  1  0
 27 50  1  0
 28 51  1  0
M  END
>  <smiles>  (28) 
O=C(NCC(=O)N1CCC[C@H]1Cc1ccc(Cl)cc1)c1ccc2cc(Cl)ccc2n1

>  <score_type>  (28) 
oracle

>  <origin>  (28) 
autodockgpu

>  <m_score__min__energy>  (28) 
-8.8200000000000003

>  <m_primary>  (28) 
energy

>  <rmsd>  (28) 
7.574506990450008

>  <m_score__min__rmsd>  (28) 
7.574506990450008

>  <meeko>  (28) 
{"free_energy": -7.94, "intermolecular_energy": -9.73, "internal_energy": -1.6, "cluster_size": 4, "cluster_id": 5, "rank_in_cluster": 3}

>  <energy>  (28) 
-8.36

>  <cluster_rmsd>  (28) 
0.56

>  <cluster>  (28) 
3

$$$$

     RDKit          3D

 51 54  0  0  0  0  0  0  0  0999 V2000
  140.6970   72.6460  220.7190 O   0  0  0  0  0  0  0  0  0  0  0  0
  140.2780   72.9720  221.8610 C   0  0  0  0  0  0  0  0  0  0  0  0
  139.8630   74.3000  222.1550 N   0  0  0  0  0  0  0  0  0  0  0  0
  139.9300   75.2760  221.1160 C   0  0  0  0  0  0  0  0  0  0  0  0
  140.6600   76.4990  221.4980 C   0  0  0  0  0  0  0  0  0  0  0  0
  140.7650   76.7650  222.7290 O   0  0  0  0  0  0  0  0  0  0  0  0
  141.2070   77.3210  220.4760 N   0  0  0  0  0  0  0  0  0  0  0  0
  141.2280   78.7700  220.4290 C   0  0  0  0  0  0  0  0  0  0  0  0
  141.9700   79.1310  219.1860 C   0  0  0  0  0  0  0  0  0  0  0  0
  141.7030   77.9390  218.2770 C   0  0  0  0  0  0  0  0  0  0  0  0
  141.8630   76.8030  219.2630 C   0  0  1  0  0  0  0  0  0  0  0  0
  143.3200   76.5590  219.4980 C   0  0  0  0  0  0  0  0  0  0  0  0
  143.7130   75.1310  219.4900 C   0  0  0  0  0  0  0  0  0  0  0  0
  144.5060   74.5480  220.4550 C   0  0  0  0  0  0  0  0  0  0  0  0
  144.8650   73.2040  220.4180 C   0  0  0  0  0  0  0  0  0  0  0  0
  144.4260   72.3950  219.3910 C   0  0  0  0  0  0  0  0  0  0  0  0
  144.8680   70.7020  219.3290 Cl  0  0  0  0  0  0  0  0  0  0  0  0
  143.6310   72.9550  218.4130 C   0  0  0  0  0  0  0  0  0  0  0  0
  143.2820   74.2890  218.4590 C   0  0  0  0  0  0  0  0  0  0  0  0
  140.1960   71.9890  222.9490 C   0  0  0  0  0  0  0  0  0  0  0  0
  139.6480   70.7310  222.7420 C   0  0  0  0  0  0  0  0  0  0  0  0
  139.5660   69.7910  223.7620 C   0  0  0  0  0  0  0  0  0  0  0  0
  140.0380   70.1040  225.0190 C   0  0  0  0  0  0  0  0  0  0  0  0
  139.9930   69.2290  226.0850 C   0  0  0  0  0  0  0  0  0  0  0  0
  140.4840   69.6020  227.3350 C   0  0  0  0  0  0  0  0  0  0  0  0
  140.4330   68.4940  228.7030 Cl  0  0  0  0  0  0  0  0  0  0  0  0
  141.0190   70.8710  227.4780 C   0  0  0  0  0  0  0  0  0  0  0  0
  141.0830   71.7760  226.4380 C   0  0  0  0  0  0  0  0  0  0  0  0
  140.5850   71.3740  225.2120 C   0  0  0  0  0  0  0  0  0  0  0  0
  140.6420   72.2450  224.1920 N   0  0  0  0  0  0  0  0  0  0  0  0
  139.5100   74.5960  223.0970 H   0  0  0  0  0  0  0  0  0  0  0  0
  140.4358   74.8261  220.2490 H   0  0  0  0  0  0  0  0  0  0  0  0
  138.8962   75.5761  220.8895 H   0  0  0  0  0  0  0  0  0  0  0  0
  140.2025   79.1660  220.3904 H   0  0  0  0  0  0  0  0  0  0  0  0
  141.7085   79.1949  221.3226 H   0  0  0  0  0  0  0  0  0  0  0  0
  141.5786   80.0603  218.7464 H   0  0  0  0  0  0  0  0  0  0  0  0
  143.0405   79.3184  219.3562 H   0  0  0  0  0  0  0  0  0  0  0  0
  140.6883   77.9699  217.8534 H   0  0  0  0  0  0  0  0  0  0  0  0
  142.3577   77.8778  217.3952 H   0  0  0  0  0  0  0  0  0  0  0  0
  141.4328   75.8474  218.9286 H   0  0  0  0  0  0  0  0  0  0  0  0
  143.8864   77.0756  218.7091 H   0  0  0  0  0  0  0  0  0  0  0  0
  143.5421   76.9388  220.5062 H   0  0  0  0  0  0  0  0  0  0  0  0
  144.8692   75.1694  221.2868 H   0  0  0  0  0  0  0  0  0  0  0  0
  145.5016   72.7851  221.2113 H   0  0  0  0  0  0  0  0  0  0  0  0
  143.2698   72.3287  217.5839 H   0  0  0  0  0  0  0  0  0  0  0  0
  142.6465   74.7026  217.6621 H   0  0  0  0  0  0  0  0  0  0  0  0
  139.2681   70.4708  221.7430 H   0  0  0  0  0  0  0  0  0  0  0  0
  139.1265   68.8016  223.5674 H   0  0  0  0  0  0  0  0  0  0  0  0
  139.5646   68.2253  225.9467 H   0  0  0  0  0  0  0  0  0  0  0  0
  141.4094   71.1704  228.4618 H   0  0  0  0  0  0  0  0  0  0  0  0
  141.5135   72.7784  226.5788 H   0  0  0  0  0  0  0  0  0  0  0  0
  1  2  2  0
  2  3  1  0
  3  4  1  0
  4  5  1  0
  5  6  2  0
  5  7  1  0
  7  8  1  0
  8  9  1  0
  9 10  1  0
 10 11  1  0
 11 12  1  0
 12 13  1  0
 13 14  2  0
 14 15  1  0
 15 16  2  0
 16 17  1  0
 16 18  1  0
 18 19  2  0
  2 20  1  0
 20 21  2  0
 21 22  1  0
 22 23  2  0
 23 24  1  0
 24 25  2  0
 25 26  1  0
 25 27  1  0
 27 28  2  0
 28 29  1  0
 29 30  2  0
 11  7  1  0
 19 13  1  0
 30 20  1  0
 29 23  1  0
  3 31  1  0
  4 32  1  0
  4 33  1  0
  8 34  1  0
  8 35  1  0
  9 36  1  0
  9 37  1  0
 10 38  1  0
 10 39  1  0
 11 40  1  6
 12 41  1  0
 12 42  1  0
 14 43  1  0
 15 44  1  0
 18 45  1  0
 19 46  1  0
 21 47  1  0
 22 48  1  0
 24 49  1  0
 27 50  1  0
 28 51  1  0
M  END
>  <smiles>  (29) 
O=C(NCC(=O)N1CCC[C@H]1Cc1ccc(Cl)cc1)c1ccc2cc(Cl)ccc2n1

>  <score_type>  (29) 
oracle

>  <origin>  (29) 
autodockgpu

>  <m_score__min__energy>  (29) 
-8.8200000000000003

>  <m_primary>  (29) 
energy

>  <rmsd>  (29) 
2.4489191017311738

>  <m_score__min__rmsd>  (29) 
2.4489191017311738

>  <meeko>  (29) 
{"free_energy": -8.36, "intermolecular_energy": -10.15, "internal_energy": -2.08, "cluster_size": 14, "cluster_id": 3, "rank_in_cluster": 3}

>  <energy>  (29) 
-8.29

>  <cluster_rmsd>  (29) 
0.61

>  <cluster>  (29) 
3

$$$$

     RDKit          3D

 51 54  0  0  0  0  0  0  0  0999 V2000
  136.8470   74.4920  220.4950 O   0  0  0  0  0  0  0  0  0  0  0  0
  137.2360   74.6850  221.6770 C   0  0  0  0  0  0  0  0  0  0  0  0
  136.6300   74.0250  222.7810 N   0  0  0  0  0  0  0  0  0  0  0  0
  135.5540   73.1240  222.5250 C   0  0  0  0  0  0  0  0  0  0  0  0
  135.9340   71.7020  222.6210 C   0  0  0  0  0  0  0  0  0  0  0  0
  135.1070   70.9030  223.1440 O   0  0  0  0  0  0  0  0  0  0  0  0
  137.2020   71.2950  222.1280 N   0  0  0  0  0  0  0  0  0  0  0  0
  137.7800   71.5940  220.8320 C   0  0  0  0  0  0  0  0  0  0  0  0
  139.1440   70.9900  220.8410 C   0  0  0  0  0  0  0  0  0  0  0  0
  138.9900   69.8230  221.8060 C   0  0  0  0  0  0  0  0  0  0  0  0
  138.1600   70.4740  222.8900 C   0  0  1  0  0  0  0  0  0  0  0  0
  139.0460   71.3280  223.7410 C   0  0  0  0  0  0  0  0  0  0  0  0
  139.5580   70.6590  224.9590 C   0  0  0  0  0  0  0  0  0  0  0  0
  140.4040   71.2610  225.8660 C   0  0  0  0  0  0  0  0  0  0  0  0
  140.8750   70.6050  227.0000 C   0  0  0  0  0  0  0  0  0  0  0  0
  140.5000   69.3030  227.2560 C   0  0  0  0  0  0  0  0  0  0  0  0
  141.0840   68.4620  228.6770 Cl  0  0  0  0  0  0  0  0  0  0  0  0
  139.6550   68.6790  226.3630 C   0  0  0  0  0  0  0  0  0  0  0  0
  139.1940   69.3390  225.2420 C   0  0  0  0  0  0  0  0  0  0  0  0
  138.3410   75.6050  221.9720 C   0  0  0  0  0  0  0  0  0  0  0  0
  139.6640   75.2120  221.8220 C   0  0  0  0  0  0  0  0  0  0  0  0
  140.7190   76.0730  222.0960 C   0  0  0  0  0  0  0  0  0  0  0  0
  140.4600   77.3560  222.5300 C   0  0  0  0  0  0  0  0  0  0  0  0
  141.4490   78.2710  222.8240 C   0  0  0  0  0  0  0  0  0  0  0  0
  141.1260   79.5550  223.2610 C   0  0  0  0  0  0  0  0  0  0  0  0
  142.3810   80.7320  223.6390 Cl  0  0  0  0  0  0  0  0  0  0  0  0
  139.7890   79.8870  223.3900 C   0  0  0  0  0  0  0  0  0  0  0  0
  138.7680   79.0020  223.1060 C   0  0  0  0  0  0  0  0  0  0  0  0
  139.1240   77.7360  222.6770 C   0  0  0  0  0  0  0  0  0  0  0  0
  138.1410   76.8660  222.3980 N   0  0  0  0  0  0  0  0  0  0  0  0
  136.9360   74.1690  223.7740 H   0  0  0  0  0  0  0  0  0  0  0  0
  134.7558   73.3200  223.2561 H   0  0  0  0  0  0  0  0  0  0  0  0
  135.2279   73.2997  221.4893 H   0  0  0  0  0  0  0  0  0  0  0  0
  137.1710   71.1507  220.0304 H   0  0  0  0  0  0  0  0  0  0  0  0
  137.8205   72.6780  220.6492 H   0  0  0  0  0  0  0  0  0  0  0  0
  139.4288   70.6397  219.8379 H   0  0  0  0  0  0  0  0  0  0  0  0
  139.9319   71.6984  221.1367 H   0  0  0  0  0  0  0  0  0  0  0  0
  138.4611   68.9779  221.3411 H   0  0  0  0  0  0  0  0  0  0  0  0
  139.9376   69.3853  222.1530 H   0  0  0  0  0  0  0  0  0  0  0  0
  137.6606   69.7646  223.5663 H   0  0  0  0  0  0  0  0  0  0  0  0
  139.9076   71.6416  223.1333 H   0  0  0  0  0  0  0  0  0  0  0  0
  138.4308   72.1731  224.0834 H   0  0  0  0  0  0  0  0  0  0  0  0
  140.7190   72.2996  225.6867 H   0  0  0  0  0  0  0  0  0  0  0  0
  141.5491   71.1275  227.6947 H   0  0  0  0  0  0  0  0  0  0  0  0
  139.3437   67.6401  226.5467 H   0  0  0  0  0  0  0  0  0  0  0  0
  138.5204   68.8111  224.5509 H   0  0  0  0  0  0  0  0  0  0  0  0
  139.8828   74.1908  221.4767 H   0  0  0  0  0  0  0  0  0  0  0  0
  141.7571   75.7327  221.9673 H   0  0  0  0  0  0  0  0  0  0  0  0
  142.5052   77.9845  222.7124 H   0  0  0  0  0  0  0  0  0  0  0  0
  139.5284   80.8990  223.7334 H   0  0  0  0  0  0  0  0  0  0  0  0
  137.7128   79.2923  223.2166 H   0  0  0  0  0  0  0  0  0  0  0  0
  1  2  2  0
  2  3  1  0
  3  4  1  0
  4  5  1  0
  5  6  2  0
  5  7  1  0
  7  8  1  0
  8  9  1  0
  9 10  1  0
 10 11  1  0
 11 12  1  0
 12 13  1  0
 13 14  2  0
 14 15  1  0
 15 16  2  0
 16 17  1  0
 16 18  1  0
 18 19  2  0
  2 20  1  0
 20 21  2  0
 21 22  1  0
 22 23  2  0
 23 24  1  0
 24 25  2  0
 25 26  1  0
 25 27  1  0
 27 28  2  0
 28 29  1  0
 29 30  2  0
 11  7  1  0
 19 13  1  0
 30 20  1  0
 29 23  1  0
  3 31  1  0
  4 32  1  0
  4 33  1  0
  8 34  1  0
  8 35  1  0
  9 36  1  0
  9 37  1  0
 10 38  1  0
 10 39  1  0
 11 40  1  1
 12 41  1  0
 12 42  1  0
 14 43  1  0
 15 44  1  0
 18 45  1  0
 19 46  1  0
 21 47  1  0
 22 48  1  0
 24 49  1  0
 27 50  1  0
 28 51  1  0
M  END
>  <smiles>  (30) 
O=C(NCC(=O)N1CCC[C@H]1Cc1ccc(Cl)cc1)c1ccc2cc(Cl)ccc2n1

>  <score_type>  (30) 
oracle

>  <origin>  (30) 
autodockgpu

>  <m_score__min__energy>  (30) 
-8.8200000000000003

>  <m_primary>  (30) 
energy

>  <rmsd>  (30) 
7.24555299779536

>  <m_score__min__rmsd>  (30) 
7.24555299779536

>  <meeko>  (30) 
{"free_energy": -7.93, "intermolecular_energy": -9.72, "internal_energy": -1.71, "cluster_size": 4, "cluster_id": 5, "rank_in_cluster": 4}

>  <energy>  (30) 
-8.28

>  <cluster_rmsd>  (30) 
0.69

>  <cluster>  (30) 
3

$$$$

     RDKit          3D

 51 54  0  0  0  0  0  0  0  0999 V2000
  135.0720   68.4980  224.6160 O   0  0  0  0  0  0  0  0  0  0  0  0
  135.4130   69.6740  224.3220 C   0  0  0  0  0  0  0  0  0  0  0  0
  136.4070   69.9410  223.3400 N   0  0  0  0  0  0  0  0  0  0  0  0
  137.0230   68.8350  222.6810 C   0  0  0  0  0  0  0  0  0  0  0  0
  138.2350   69.1960  221.9240 C   0  0  0  0  0  0  0  0  0  0  0  0
  138.7470   68.3180  221.1730 O   0  0  0  0  0  0  0  0  0  0  0  0
  138.7740   70.5030  222.0700 N   0  0  0  0  0  0  0  0  0  0  0  0
  138.4220   71.6900  221.3140 C   0  0  0  0  0  0  0  0  0  0  0  0
  139.2250   72.8020  221.8980 C   0  0  0  0  0  0  0  0  0  0  0  0
  140.4560   72.0850  222.4340 C   0  0  0  0  0  0  0  0  0  0  0  0
  139.8130   70.8630  223.0500 C   0  0  1  0  0  0  0  0  0  0  0  0
  139.2080   71.2380  224.3660 C   0  0  0  0  0  0  0  0  0  0  0  0
  139.7670   70.5130  225.5290 C   0  0  0  0  0  0  0  0  0  0  0  0
  140.4990   71.1150  226.5300 C   0  0  0  0  0  0  0  0  0  0  0  0
  141.0180   70.4060  227.6090 C   0  0  0  0  0  0  0  0  0  0  0  0
  140.8100   69.0470  227.7130 C   0  0  0  0  0  0  0  0  0  0  0  0
  141.4560   68.1390  229.0640 Cl  0  0  0  0  0  0  0  0  0  0  0  0
  140.0800   68.4210  226.7240 C   0  0  0  0  0  0  0  0  0  0  0  0
  139.5700   69.1340  225.6590 C   0  0  0  0  0  0  0  0  0  0  0  0
  134.7970   70.8320  224.9830 C   0  0  0  0  0  0  0  0  0  0  0  0
  133.8040   70.6690  225.9390 C   0  0  0  0  0  0  0  0  0  0  0  0
  133.2130   71.7550  226.5720 C   0  0  0  0  0  0  0  0  0  0  0  0
  133.6140   73.0350  226.2510 C   0  0  0  0  0  0  0  0  0  0  0  0
  133.0780   74.1650  226.8330 C   0  0  0  0  0  0  0  0  0  0  0  0
  133.5230   75.4350  226.4680 C   0  0  0  0  0  0  0  0  0  0  0  0
  132.8470   76.8850  227.2030 Cl  0  0  0  0  0  0  0  0  0  0  0  0
  134.5160   75.5310  225.5080 C   0  0  0  0  0  0  0  0  0  0  0  0
  135.0790   74.4250  224.9020 C   0  0  0  0  0  0  0  0  0  0  0  0
  134.6130   73.1820  225.2870 C   0  0  0  0  0  0  0  0  0  0  0  0
  135.1530   72.0990  224.7050 N   0  0  0  0  0  0  0  0  0  0  0  0
  136.7080   70.9100  223.0780 H   0  0  0  0  0  0  0  0  0  0  0  0
  137.2975   68.0876  223.4400 H   0  0  0  0  0  0  0  0  0  0  0  0
  136.2939   68.4473  221.9543 H   0  0  0  0  0  0  0  0  0  0  0  0
  138.6725   71.5547  220.2515 H   0  0  0  0  0  0  0  0  0  0  0  0
  137.3435   71.8988  221.3707 H   0  0  0  0  0  0  0  0  0  0  0  0
  139.4994   73.5388  221.1287 H   0  0  0  0  0  0  0  0  0  0  0  0
  138.6838   73.3719  222.6676 H   0  0  0  0  0  0  0  0  0  0  0  0
  141.1527   71.8146  221.6269 H   0  0  0  0  0  0  0  0  0  0  0  0
  141.0692   72.6801  223.1267 H   0  0  0  0  0  0  0  0  0  0  0  0
  140.5094   70.0345  223.2465 H   0  0  0  0  0  0  0  0  0  0  0  0
  139.3685   72.3148  224.5232 H   0  0  0  0  0  0  0  0  0  0  0  0
  138.1440   70.9646  224.3097 H   0  0  0  0  0  0  0  0  0  0  0  0
  140.6800   72.1985  226.4736 H   0  0  0  0  0  0  0  0  0  0  0  0
  141.5968   70.9321  228.3824 H   0  0  0  0  0  0  0  0  0  0  0  0
  139.9020   67.3372  226.7856 H   0  0  0  0  0  0  0  0  0  0  0  0
  138.9913   68.6026  224.8891 H   0  0  0  0  0  0  0  0  0  0  0  0
  133.4763   69.6525  226.2024 H   0  0  0  0  0  0  0  0  0  0  0  0
  132.4284   71.5948  227.3262 H   0  0  0  0  0  0  0  0  0  0  0  0
  132.2903   74.0630  227.5940 H   0  0  0  0  0  0  0  0  0  0  0  0
  134.8715   76.5301  225.2157 H   0  0  0  0  0  0  0  0  0  0  0  0
  135.8677   74.5293  224.1423 H   0  0  0  0  0  0  0  0  0  0  0  0
  1  2  2  0
  2  3  1  0
  3  4  1  0
  4  5  1  0
  5  6  2  0
  5  7  1  0
  7  8  1  0
  8  9  1  0
  9 10  1  0
 10 11  1  0
 11 12  1  0
 12 13  1  0
 13 14  2  0
 14 15  1  0
 15 16  2  0
 16 17  1  0
 16 18  1  0
 18 19  2  0
  2 20  1  0
 20 21  2  0
 21 22  1  0
 22 23  2  0
 23 24  1  0
 24 25  2  0
 25 26  1  0
 25 27  1  0
 27 28  2  0
 28 29  1  0
 29 30  2  0
 11  7  1  0
 19 13  1  0
 30 20  1  0
 29 23  1  0
  3 31  1  0
  4 32  1  0
  4 33  1  0
  8 34  1  0
  8 35  1  0
  9 36  1  0
  9 37  1  0
 10 38  1  0
 10 39  1  0
 11 40  1  1
 12 41  1  0
 12 42  1  0
 14 43  1  0
 15 44  1  0
 18 45  1  0
 19 46  1  0
 21 47  1  0
 22 48  1  0
 24 49  1  0
 27 50  1  0
 28 51  1  0
M  END
>  <smiles>  (31) 
O=C(NCC(=O)N1CCC[C@H]1Cc1ccc(Cl)cc1)c1ccc2cc(Cl)ccc2n1

>  <score_type>  (31) 
oracle

>  <origin>  (31) 
autodockgpu

>  <m_score__min__energy>  (31) 
-8.8200000000000003

>  <m_primary>  (31) 
energy

>  <rmsd>  (31) 
6.474088497834803

>  <m_score__min__rmsd>  (31) 
6.474088497834803

>  <meeko>  (31) 
{"free_energy": -7.67, "intermolecular_energy": -9.46, "internal_energy": -2.13, "cluster_size": 12, "cluster_id": 2, "rank_in_cluster": 10}

>  <energy>  (31) 
-8.13

>  <cluster_rmsd>  (31) 
0.59

>  <cluster>  (31) 
3

$$$$

     RDKit          3D

 51 54  0  0  0  0  0  0  0  0999 V2000
  141.1740   74.1360  221.3910 O   0  0  0  0  0  0  0  0  0  0  0  0
  140.1130   74.4960  221.9670 C   0  0  0  0  0  0  0  0  0  0  0  0
  139.1130   73.5580  222.3450 N   0  0  0  0  0  0  0  0  0  0  0  0
  139.3340   72.1780  222.0550 C   0  0  0  0  0  0  0  0  0  0  0  0
  138.3340   71.2780  222.6580 C   0  0  0  0  0  0  0  0  0  0  0  0
  137.5510   71.7600  223.5240 O   0  0  0  0  0  0  0  0  0  0  0  0
  138.2950   69.9180  222.2470 N   0  0  0  0  0  0  0  0  0  0  0  0
  138.6200   69.3850  220.9380 C   0  0  0  0  0  0  0  0  0  0  0  0
  138.4790   67.9050  221.0500 C   0  0  0  0  0  0  0  0  0  0  0  0
  137.4340   67.7470  222.1460 C   0  0  0  0  0  0  0  0  0  0  0  0
  137.9030   68.8010  223.1240 C   0  0  1  0  0  0  0  0  0  0  0  0
  139.0790   68.2740  223.8860 C   0  0  0  0  0  0  0  0  0  0  0  0
  139.5770   69.1770  224.9480 C   0  0  0  0  0  0  0  0  0  0  0  0
  140.3750   70.2760  224.7100 C   0  0  0  0  0  0  0  0  0  0  0  0
  140.8340   71.1040  225.7300 C   0  0  0  0  0  0  0  0  0  0  0  0
  140.4960   70.8450  227.0410 C   0  0  0  0  0  0  0  0  0  0  0  0
  141.0640   71.8760  228.3380 Cl  0  0  0  0  0  0  0  0  0  0  0  0
  139.6980   69.7510  227.3060 C   0  0  0  0  0  0  0  0  0  0  0  0
  139.2490   68.9370  226.2870 C   0  0  0  0  0  0  0  0  0  0  0  0
  139.8590   75.9080  222.2790 C   0  0  0  0  0  0  0  0  0  0  0  0
  140.9030   76.8120  222.4210 C   0  0  0  0  0  0  0  0  0  0  0  0
  140.6760   78.1500  222.7150 C   0  0  0  0  0  0  0  0  0  0  0  0
  139.3850   78.6060  222.8740 C   0  0  0  0  0  0  0  0  0  0  0  0
  139.0750   79.9190  223.1660 C   0  0  0  0  0  0  0  0  0  0  0  0
  137.7490   80.3220  223.3170 C   0  0  0  0  0  0  0  0  0  0  0  0
  137.3410   81.9940  223.6910 Cl  0  0  0  0  0  0  0  0  0  0  0  0
  136.7530   79.3730  223.1640 C   0  0  0  0  0  0  0  0  0  0  0  0
  137.0200   78.0510  222.8700 C   0  0  0  0  0  0  0  0  0  0  0  0
  138.3460   77.6840  222.7290 C   0  0  0  0  0  0  0  0  0  0  0  0
  138.6190   76.4020  222.4440 N   0  0  0  0  0  0  0  0  0  0  0  0
  138.2220   73.8310  222.8250 H   0  0  0  0  0  0  0  0  0  0  0  0
  139.3083   72.0441  220.9635 H   0  0  0  0  0  0  0  0  0  0  0  0
  140.3093   71.9108  222.4878 H   0  0  0  0  0  0  0  0  0  0  0  0
  137.9251   69.7789  220.1817 H   0  0  0  0  0  0  0  0  0  0  0  0
  139.6360   69.6705  220.6278 H   0  0  0  0  0  0  0  0  0  0  0  0
  138.1293   67.4676  220.1032 H   0  0  0  0  0  0  0  0  0  0  0  0
  139.4264   67.3933  221.2750 H   0  0  0  0  0  0  0  0  0  0  0  0
  136.4204   67.9589  221.7749 H   0  0  0  0  0  0  0  0  0  0  0  0
  137.3574   66.7329  222.5651 H   0  0  0  0  0  0  0  0  0  0  0  0
  137.1494   69.0965  223.8689 H   0  0  0  0  0  0  0  0  0  0  0  0
  138.7869   67.3221  224.3535 H   0  0  0  0  0  0  0  0  0  0  0  0
  139.8980   68.1632  223.1601 H   0  0  0  0  0  0  0  0  0  0  0  0
  140.6600   70.5074  223.6731 H   0  0  0  0  0  0  0  0  0  0  0  0
  141.4694   71.9690  225.4890 H   0  0  0  0  0  0  0  0  0  0  0  0
  139.4158   69.5248  228.3448 H   0  0  0  0  0  0  0  0  0  0  0  0
  138.6141   68.0734  226.5343 H   0  0  0  0  0  0  0  0  0  0  0  0
  141.9375   76.4590  222.2974 H   0  0  0  0  0  0  0  0  0  0  0  0
  141.5233   78.8435  222.8206 H   0  0  0  0  0  0  0  0  0  0  0  0
  139.8836   80.6559  223.2809 H   0  0  0  0  0  0  0  0  0  0  0  0
  135.7049   79.6854  223.2816 H   0  0  0  0  0  0  0  0  0  0  0  0
  136.2090   77.3173  222.7523 H   0  0  0  0  0  0  0  0  0  0  0  0
  1  2  2  0
  2  3  1  0
  3  4  1  0
  4  5  1  0
  5  6  2  0
  5  7  1  0
  7  8  1  0
  8  9  1  0
  9 10  1  0
 10 11  1  0
 11 12  1  0
 12 13  1  0
 13 14  2  0
 14 15  1  0
 15 16  2  0
 16 17  1  0
 16 18  1  0
 18 19  2  0
  2 20  1  0
 20 21  2  0
 21 22  1  0
 22 23  2  0
 23 24  1  0
 24 25  2  0
 25 26  1  0
 25 27  1  0
 27 28  2  0
 28 29  1  0
 29 30  2  0
 11  7  1  0
 19 13  1  0
 30 20  1  0
 29 23  1  0
  3 31  1  0
  4 32  1  0
  4 33  1  0
  8 34  1  0
  8 35  1  0
  9 36  1  0
  9 37  1  0
 10 38  1  0
 10 39  1  0
 11 40  1  1
 12 41  1  0
 12 42  1  0
 14 43  1  0
 15 44  1  0
 18 45  1  0
 19 46  1  0
 21 47  1  0
 22 48  1  0
 24 49  1  0
 27 50  1  0
 28 51  1  0
M  END
>  <smiles>  (32) 
O=C(NCC(=O)N1CCC[C@H]1Cc1ccc(Cl)cc1)c1ccc2cc(Cl)ccc2n1

>  <score_type>  (32) 
oracle

>  <origin>  (32) 
autodockgpu

>  <m_score__min__energy>  (32) 
-8.8200000000000003

>  <m_primary>  (32) 
energy

>  <rmsd>  (32) 
8.320178279839372

>  <m_score__min__rmsd>  (32) 
8.320178279839372

>  <meeko>  (32) 
{"free_energy": -7.48, "intermolecular_energy": -9.27, "internal_energy": -2.08, "cluster_size": 2, "cluster_id": 6, "rank_in_cluster": 2}

>  <energy>  (32) 
-7.92

>  <cluster_rmsd>  (32) 
0.83

>  <cluster>  (32) 
3

$$$$

     RDKit          3D

 51 54  0  0  0  0  0  0  0  0999 V2000
  140.7330   72.6700  220.7250 O   0  0  0  0  0  0  0  0  0  0  0  0
  140.3090   73.0030  221.8640 C   0  0  0  0  0  0  0  0  0  0  0  0
  139.9270   74.3410  222.1570 N   0  0  0  0  0  0  0  0  0  0  0  0
  140.0340   75.3190  221.1240 C   0  0  0  0  0  0  0  0  0  0  0  0
  140.7450   76.5430  221.5350 C   0  0  0  0  0  0  0  0  0  0  0  0
  140.9630   76.7140  222.7680 O   0  0  0  0  0  0  0  0  0  0  0  0
  141.1510   77.4710  220.5390 N   0  0  0  0  0  0  0  0  0  0  0  0
  141.3050   78.9060  220.6840 C   0  0  0  0  0  0  0  0  0  0  0  0
  141.8090   79.4000  219.3700 C   0  0  0  0  0  0  0  0  0  0  0  0
  141.2460   78.3810  218.3880 C   0  0  0  0  0  0  0  0  0  0  0  0
  141.4900   77.1010  219.1540 C   0  0  1  0  0  0  0  0  0  0  0  0
  142.9340   76.7240  219.0340 C   0  0  0  0  0  0  0  0  0  0  0  0
  143.2240   75.3010  219.3230 C   0  0  0  0  0  0  0  0  0  0  0  0
  144.0280   74.8780  220.3590 C   0  0  0  0  0  0  0  0  0  0  0  0
  144.2890   73.5330  220.6040 C   0  0  0  0  0  0  0  0  0  0  0  0
  143.7360   72.5600  219.7970 C   0  0  0  0  0  0  0  0  0  0  0  0
  144.0530   70.8620  220.0900 Cl  0  0  0  0  0  0  0  0  0  0  0  0
  142.9270   72.9580  218.7540 C   0  0  0  0  0  0  0  0  0  0  0  0
  142.6760   74.2950  218.5200 C   0  0  0  0  0  0  0  0  0  0  0  0
  140.1880   72.0190  222.9470 C   0  0  0  0  0  0  0  0  0  0  0  0
  139.5820   70.7880  222.7350 C   0  0  0  0  0  0  0  0  0  0  0  0
  139.4620   69.8480  223.7510 C   0  0  0  0  0  0  0  0  0  0  0  0
  139.9520   70.1320  225.0070 C   0  0  0  0  0  0  0  0  0  0  0  0
  139.8730   69.2540  226.0690 C   0  0  0  0  0  0  0  0  0  0  0  0
  140.3860   69.5980  227.3180 C   0  0  0  0  0  0  0  0  0  0  0  0
  140.2900   68.4850  228.6810 Cl  0  0  0  0  0  0  0  0  0  0  0  0
  140.9780   70.8400  227.4660 C   0  0  0  0  0  0  0  0  0  0  0  0
  141.0790   71.7470  226.4300 C   0  0  0  0  0  0  0  0  0  0  0  0
  140.5580   71.3750  225.2050 C   0  0  0  0  0  0  0  0  0  0  0  0
  140.6500   72.2480  224.1890 N   0  0  0  0  0  0  0  0  0  0  0  0
  139.5710   74.6430  223.0960 H   0  0  0  0  0  0  0  0  0  0  0  0
  140.5751   74.8714  220.2773 H   0  0  0  0  0  0  0  0  0  0  0  0
  139.0092   75.6177  220.8582 H   0  0  0  0  0  0  0  0  0  0  0  0
  140.3375   79.3721  220.9220 H   0  0  0  0  0  0  0  0  0  0  0  0
  141.9974   79.1565  221.5012 H   0  0  0  0  0  0  0  0  0  0  0  0
  141.4296   80.4097  219.1543 H   0  0  0  0  0  0  0  0  0  0  0  0
  142.9049   79.4857  219.3282 H   0  0  0  0  0  0  0  0  0  0  0  0
  140.1745   78.5452  218.2013 H   0  0  0  0  0  0  0  0  0  0  0  0
  141.6983   78.4101  217.3857 H   0  0  0  0  0  0  0  0  0  0  0  0
  140.9072   76.2401  218.7946 H   0  0  0  0  0  0  0  0  0  0  0  0
  143.2608   76.9391  218.0059 H   0  0  0  0  0  0  0  0  0  0  0  0
  143.4745   77.3128  219.7897 H   0  0  0  0  0  0  0  0  0  0  0  0
  144.4813   75.6329  221.0182 H   0  0  0  0  0  0  0  0  0  0  0  0
  144.9383   73.2447  221.4438 H   0  0  0  0  0  0  0  0  0  0  0  0
  142.4749   72.1989  218.0987 H   0  0  0  0  0  0  0  0  0  0  0  0
  142.0266   74.5775  217.6783 H   0  0  0  0  0  0  0  0  0  0  0  0
  139.1865   70.5507  221.7364 H   0  0  0  0  0  0  0  0  0  0  0  0
  138.9775   68.8804  223.5533 H   0  0  0  0  0  0  0  0  0  0  0  0
  139.3995   68.2712  225.9277 H   0  0  0  0  0  0  0  0  0  0  0  0
  141.3850   71.1161  228.4499 H   0  0  0  0  0  0  0  0  0  0  0  0
  141.5557   72.7278  226.5739 H   0  0  0  0  0  0  0  0  0  0  0  0
  1  2  2  0
  2  3  1  0
  3  4  1  0
  4  5  1  0
  5  6  2  0
  5  7  1  0
  7  8  1  0
  8  9  1  0
  9 10  1  0
 10 11  1  0
 11 12  1  0
 12 13  1  0
 13 14  2  0
 14 15  1  0
 15 16  2  0
 16 17  1  0
 16 18  1  0
 18 19  2  0
  2 20  1  0
 20 21  2  0
 21 22  1  0
 22 23  2  0
 23 24  1  0
 24 25  2  0
 25 26  1  0
 25 27  1  0
 27 28  2  0
 28 29  1  0
 29 30  2  0
 11  7  1  0
 19 13  1  0
 30 20  1  0
 29 23  1  0
  3 31  1  0
  4 32  1  0
  4 33  1  0
  8 34  1  0
  8 35  1  0
  9 36  1  0
  9 37  1  0
 10 38  1  0
 10 39  1  0
 11 40  1  6
 12 41  1  0
 12 42  1  0
 14 43  1  0
 15 44  1  0
 18 45  1  0
 19 46  1  0
 21 47  1  0
 22 48  1  0
 24 49  1  0
 27 50  1  0
 28 51  1  0
M  END
>  <smiles>  (33) 
O=C(NCC(=O)N1CCC[C@H]1Cc1ccc(Cl)cc1)c1ccc2cc(Cl)ccc2n1

>  <score_type>  (33) 
oracle

>  <origin>  (33) 
autodockgpu

>  <m_score__min__energy>  (33) 
-8.8200000000000003

>  <m_primary>  (33) 
energy

>  <rmsd>  (33) 
2.564124140692999

>  <m_score__min__rmsd>  (33) 
2.564124140692999

>  <meeko>  (33) 
{"free_energy": -7.89, "intermolecular_energy": -9.68, "internal_energy": -2.39, "cluster_size": 14, "cluster_id": 3, "rank_in_cluster": 8}

>  <energy>  (33) 
-7.89

>  <cluster_rmsd>  (33) 
0.83

>  <cluster>  (33) 
3

$$$$

     RDKit          3D

 51 54  0  0  0  0  0  0  0  0999 V2000
  140.9810   72.8960  221.1430 O   0  0  0  0  0  0  0  0  0  0  0  0
  140.1770   72.9660  222.1100 C   0  0  0  0  0  0  0  0  0  0  0  0
  139.2610   74.0460  222.2430 N   0  0  0  0  0  0  0  0  0  0  0  0
  139.2680   75.0680  221.2470 C   0  0  0  0  0  0  0  0  0  0  0  0
  138.8480   76.3890  221.7490 C   0  0  0  0  0  0  0  0  0  0  0  0
  137.6180   76.5700  221.9780 O   0  0  0  0  0  0  0  0  0  0  0  0
  139.8320   77.3940  221.9500 N   0  0  0  0  0  0  0  0  0  0  0  0
  141.0490   77.5980  221.1890 C   0  0  0  0  0  0  0  0  0  0  0  0
  141.6930   78.8160  221.7610 C   0  0  0  0  0  0  0  0  0  0  0  0
  141.2090   78.8060  223.2040 C   0  0  0  0  0  0  0  0  0  0  0  0
  139.7610   78.4210  223.0040 C   0  0  1  0  0  0  0  0  0  0  0  0
  138.9940   79.6200  222.5390 C   0  0  0  0  0  0  0  0  0  0  0  0
  138.0600   80.1790  223.5430 C   0  0  0  0  0  0  0  0  0  0  0  0
  138.4500   81.0030  224.5780 C   0  0  0  0  0  0  0  0  0  0  0  0
  137.5500   81.5090  225.5110 C   0  0  0  0  0  0  0  0  0  0  0  0
  136.2100   81.1940  225.4270 C   0  0  0  0  0  0  0  0  0  0  0  0
  135.0640   81.8220  226.5940 Cl  0  0  0  0  0  0  0  0  0  0  0  0
  135.7960   80.3710  224.4010 C   0  0  0  0  0  0  0  0  0  0  0  0
  136.6960   79.8750  223.4810 C   0  0  0  0  0  0  0  0  0  0  0  0
  140.1450   71.9300  223.1490 C   0  0  0  0  0  0  0  0  0  0  0  0
  139.6300   70.6670  222.8900 C   0  0  0  0  0  0  0  0  0  0  0  0
  139.5960   69.6770  223.8640 C   0  0  0  0  0  0  0  0  0  0  0  0
  140.0820   69.9430  225.1260 C   0  0  0  0  0  0  0  0  0  0  0  0
  140.0840   69.0160  226.1490 C   0  0  0  0  0  0  0  0  0  0  0  0
  140.5880   69.3420  227.4060 C   0  0  0  0  0  0  0  0  0  0  0  0
  140.5960   68.1680  228.7190 Cl  0  0  0  0  0  0  0  0  0  0  0  0
  141.0880   70.6180  227.6020 C   0  0  0  0  0  0  0  0  0  0  0  0
  141.1050   71.5750  226.6070 C   0  0  0  0  0  0  0  0  0  0  0  0
  140.5960   71.2180  225.3720 C   0  0  0  0  0  0  0  0  0  0  0  0
  140.6070   72.1390  224.3950 N   0  0  0  0  0  0  0  0  0  0  0  0
  138.5820   74.1280  223.0380 H   0  0  0  0  0  0  0  0  0  0  0  0
  140.2893   75.1569  220.8481 H   0  0  0  0  0  0  0  0  0  0  0  0
  138.5406   74.7710  220.4772 H   0  0  0  0  0  0  0  0  0  0  0  0
  141.7151   76.7288  221.2933 H   0  0  0  0  0  0  0  0  0  0  0  0
  140.8375   77.7203  220.1165 H   0  0  0  0  0  0  0  0  0  0  0  0
  142.7896   78.7456  221.7102 H   0  0  0  0  0  0  0  0  0  0  0  0
  141.4357   79.7393  221.2213 H   0  0  0  0  0  0  0  0  0  0  0  0
  141.7478   78.0613  223.8083 H   0  0  0  0  0  0  0  0  0  0  0  0
  141.3623   79.7507  223.7463 H   0  0  0  0  0  0  0  0  0  0  0  0
  139.2589   78.0567  223.9124 H   0  0  0  0  0  0  0  0  0  0  0  0
  139.7152   80.4046  222.2663 H   0  0  0  0  0  0  0  0  0  0  0  0
  138.3784   79.2876  221.6901 H   0  0  0  0  0  0  0  0  0  0  0  0
  139.5131   81.2704  224.6695 H   0  0  0  0  0  0  0  0  0  0  0  0
  137.9090   82.1632  226.3192 H   0  0  0  0  0  0  0  0  0  0  0  0
  134.7319   80.1060  224.3149 H   0  0  0  0  0  0  0  0  0  0  0  0
  136.3306   79.2214  222.6752 H   0  0  0  0  0  0  0  0  0  0  0  0
  139.2383   70.4442  221.8865 H   0  0  0  0  0  0  0  0  0  0  0  0
  139.1829   68.6850  223.6290 H   0  0  0  0  0  0  0  0  0  0  0  0
  139.6827   68.0077  225.9693 H   0  0  0  0  0  0  0  0  0  0  0  0
  141.4886   70.8805  228.5923 H   0  0  0  0  0  0  0  0  0  0  0  0
  141.5078   72.5822  226.7896 H   0  0  0  0  0  0  0  0  0  0  0  0
  1  2  2  0
  2  3  1  0
  3  4  1  0
  4  5  1  0
  5  6  2  0
  5  7  1  0
  7  8  1  0
  8  9  1  0
  9 10  1  0
 10 11  1  0
 11 12  1  0
 12 13  1  0
 13 14  2  0
 14 15  1  0
 15 16  2  0
 16 17  1  0
 16 18  1  0
 18 19  2  0
  2 20  1  0
 20 21  2  0
 21 22  1  0
 22 23  2  0
 23 24  1  0
 24 25  2  0
 25 26  1  0
 25 27  1  0
 27 28  2  0
 28 29  1  0
 29 30  2  0
 11  7  1  0
 19 13  1  0
 30 20  1  0
 29 23  1  0
  3 31  1  0
  4 32  1  0
  4 33  1  0
  8 34  1  0
  8 35  1  0
  9 36  1  0
  9 37  1  0
 10 38  1  0
 10 39  1  0
 11 40  1  1
 12 41  1  0
 12 42  1  0
 14 43  1  0
 15 44  1  0
 18 45  1  0
 19 46  1  0
 21 47  1  0
 22 48  1  0
 24 49  1  0
 27 50  1  0
 28 51  1  0
M  END
>  <smiles>  (34) 
O=C(NCC(=O)N1CCC[C@H]1Cc1ccc(Cl)cc1)c1ccc2cc(Cl)ccc2n1

>  <score_type>  (34) 
oracle

>  <origin>  (34) 
autodockgpu

>  <m_score__min__energy>  (34) 
-8.8200000000000003

>  <m_primary>  (34) 
energy

>  <rmsd>  (34) 
3.0544622345181383

>  <m_score__min__rmsd>  (34) 
3.0544622345181383

>  <meeko>  (34) 
{"free_energy": -8.58, "intermolecular_energy": -10.37, "internal_energy": -1.34, "cluster_size": 3, "cluster_id": 4, "rank_in_cluster": 1}

>  <energy>  (34) 
-7.85

>  <cluster_rmsd>  (34) 
0.83

>  <cluster>  (34) 
3

$$$$

     RDKit          3D

 51 54  0  0  0  0  0  0  0  0999 V2000
  140.8520   73.7730  222.0330 O   0  0  0  0  0  0  0  0  0  0  0  0
  139.8940   72.9710  222.1970 C   0  0  0  0  0  0  0  0  0  0  0  0
  138.7180   73.0380  221.4000 N   0  0  0  0  0  0  0  0  0  0  0  0
  138.6380   74.0480  220.3940 C   0  0  0  0  0  0  0  0  0  0  0  0
  139.5120   73.7990  219.2330 C   0  0  0  0  0  0  0  0  0  0  0  0
  139.1670   72.9000  218.4140 O   0  0  0  0  0  0  0  0  0  0  0  0
  140.6950   74.5710  219.0840 N   0  0  0  0  0  0  0  0  0  0  0  0
  141.6030   74.5830  217.9530 C   0  0  0  0  0  0  0  0  0  0  0  0
  142.6420   75.6040  218.2700 C   0  0  0  0  0  0  0  0  0  0  0  0
  142.6780   75.5890  219.7920 C   0  0  0  0  0  0  0  0  0  0  0  0
  141.1990   75.5140  220.0980 C   0  0  1  0  0  0  0  0  0  0  0  0
  140.5920   76.8710  219.9220 C   0  0  0  0  0  0  0  0  0  0  0  0
  141.0830   77.8920  220.8750 C   0  0  0  0  0  0  0  0  0  0  0  0
  141.6280   79.1000  220.4940 C   0  0  0  0  0  0  0  0  0  0  0  0
  142.0870   80.0380  221.4130 C   0  0  0  0  0  0  0  0  0  0  0  0
  142.0080   79.7830  222.7660 C   0  0  0  0  0  0  0  0  0  0  0  0
  142.5810   80.9530  223.9370 Cl  0  0  0  0  0  0  0  0  0  0  0  0
  141.4660   78.5820  223.1730 C   0  0  0  0  0  0  0  0  0  0  0  0
  141.0150   77.6580  222.2530 C   0  0  0  0  0  0  0  0  0  0  0  0
  139.9480   71.9220  223.2230 C   0  0  0  0  0  0  0  0  0  0  0  0
  139.5050   70.6340  222.9580 C   0  0  0  0  0  0  0  0  0  0  0  0
  139.5510   69.6320  223.9190 C   0  0  0  0  0  0  0  0  0  0  0  0
  140.0490   69.9110  225.1740 C   0  0  0  0  0  0  0  0  0  0  0  0
  140.1290   68.9740  226.1840 C   0  0  0  0  0  0  0  0  0  0  0  0
  140.6410   69.3150  227.4350 C   0  0  0  0  0  0  0  0  0  0  0  0
  140.7480   68.1280  228.7310 Cl  0  0  0  0  0  0  0  0  0  0  0  0
  141.0670   70.6170  227.6360 C   0  0  0  0  0  0  0  0  0  0  0  0
  141.0050   71.5840  226.6540 C   0  0  0  0  0  0  0  0  0  0  0  0
  140.4900   71.2120  225.4250 C   0  0  0  0  0  0  0  0  0  0  0  0
  140.4240   72.1440  224.4610 N   0  0  0  0  0  0  0  0  0  0  0  0
  137.9080   72.3830  221.5160 H   0  0  0  0  0  0  0  0  0  0  0  0
  137.5980   74.1039  220.0400 H   0  0  0  0  0  0  0  0  0  0  0  0
  138.9758   74.9880  220.8548 H   0  0  0  0  0  0  0  0  0  0  0  0
  142.0663   73.5936  217.8244 H   0  0  0  0  0  0  0  0  0  0  0  0
  141.0768   74.8213  217.0168 H   0  0  0  0  0  0  0  0  0  0  0  0
  143.6175   75.3206  217.8480 H   0  0  0  0  0  0  0  0  0  0  0  0
  142.4196   76.5960  217.8499 H   0  0  0  0  0  0  0  0  0  0  0  0
  143.2181   74.7117  220.1775 H   0  0  0  0  0  0  0  0  0  0  0  0
  143.1992   76.4436  220.2481 H   0  0  0  0  0  0  0  0  0  0  0  0
  140.9645   75.1924  221.1235 H   0  0  0  0  0  0  0  0  0  0  0  0
  140.8153   77.2175  218.9022 H   0  0  0  0  0  0  0  0  0  0  0  0
  139.5144   76.7585  220.1121 H   0  0  0  0  0  0  0  0  0  0  0  0
  141.7028   79.3310  219.4211 H   0  0  0  0  0  0  0  0  0  0  0  0
  142.5149   80.9875  221.0589 H   0  0  0  0  0  0  0  0  0  0  0  0
  141.3921   78.3573  224.2473 H   0  0  0  0  0  0  0  0  0  0  0  0
  140.5896   76.7097  222.6132 H   0  0  0  0  0  0  0  0  0  0  0  0
  139.1066   70.4000  221.9597 H   0  0  0  0  0  0  0  0  0  0  0  0
  139.1916   68.6203  223.6797 H   0  0  0  0  0  0  0  0  0  0  0  0
  139.7846   67.9457  225.9997 H   0  0  0  0  0  0  0  0  0  0  0  0
  141.4723   70.8922  228.6209 H   0  0  0  0  0  0  0  0  0  0  0  0
  141.3516   72.6111  226.8410 H   0  0  0  0  0  0  0  0  0  0  0  0
  1  2  2  0
  2  3  1  0
  3  4  1  0
  4  5  1  0
  5  6  2  0
  5  7  1  0
  7  8  1  0
  8  9  1  0
  9 10  1  0
 10 11  1  0
 11 12  1  0
 12 13  1  0
 13 14  2  0
 14 15  1  0
 15 16  2  0
 16 17  1  0
 16 18  1  0
 18 19  2  0
  2 20  1  0
 20 21  2  0
 21 22  1  0
 22 23  2  0
 23 24  1  0
 24 25  2  0
 25 26  1  0
 25 27  1  0
 27 28  2  0
 28 29  1  0
 29 30  2  0
 11  7  1  0
 19 13  1  0
 30 20  1  0
 29 23  1  0
  3 31  1  0
  4 32  1  0
  4 33  1  0
  8 34  1  0
  8 35  1  0
  9 36  1  0
  9 37  1  0
 10 38  1  0
 10 39  1  0
 11 40  1  1
 12 41  1  0
 12 42  1  0
 14 43  1  0
 15 44  1  0
 18 45  1  0
 19 46  1  0
 21 47  1  0
 22 48  1  0
 24 49  1  0
 27 50  1  0
 28 51  1  0
M  END
>  <smiles>  (35) 
O=C(NCC(=O)N1CCC[C@H]1Cc1ccc(Cl)cc1)c1ccc2cc(Cl)ccc2n1

>  <score_type>  (35) 
oracle

>  <origin>  (35) 
autodockgpu

>  <m_score__min__energy>  (35) 
-8.8200000000000003

>  <m_primary>  (35) 
energy

>  <rmsd>  (35) 
2.076629668658776

>  <m_score__min__rmsd>  (35) 
2.076629668658776

>  <meeko>  (35) 
{"free_energy": -8.31, "intermolecular_energy": -10.1, "internal_energy": -1.39, "cluster_size": 13, "cluster_id": 1, "rank_in_cluster": 6}

>  <energy>  (35) 
-7.78

>  <cluster_rmsd>  (35) 
0.89

>  <cluster>  (35) 
3

$$$$

     RDKit          3D

 51 54  0  0  0  0  0  0  0  0999 V2000
  140.7960   72.6080  220.7040 O   0  0  0  0  0  0  0  0  0  0  0  0
  140.3510   72.9450  221.8330 C   0  0  0  0  0  0  0  0  0  0  0  0
  139.9340   74.2770  222.1060 N   0  0  0  0  0  0  0  0  0  0  0  0
  140.0300   75.2440  221.0610 C   0  0  0  0  0  0  0  0  0  0  0  0
  140.6700   76.5060  221.4760 C   0  0  0  0  0  0  0  0  0  0  0  0
  140.7580   76.7440  222.7140 O   0  0  0  0  0  0  0  0  0  0  0  0
  141.1550   77.3930  220.4780 N   0  0  0  0  0  0  0  0  0  0  0  0
  141.1300   78.8420  220.5020 C   0  0  0  0  0  0  0  0  0  0  0  0
  141.8150   79.2860  219.2530 C   0  0  0  0  0  0  0  0  0  0  0  0
  141.5520   78.1320  218.2960 C   0  0  0  0  0  0  0  0  0  0  0  0
  141.7810   76.9560  219.2180 C   0  0  1  0  0  0  0  0  0  0  0  0
  143.2530   76.7460  219.3900 C   0  0  0  0  0  0  0  0  0  0  0  0
  143.6750   75.3270  219.4020 C   0  0  0  0  0  0  0  0  0  0  0  0
  144.3180   74.7270  220.4640 C   0  0  0  0  0  0  0  0  0  0  0  0
  144.7090   73.3910  220.4440 C   0  0  0  0  0  0  0  0  0  0  0  0
  144.4570   72.6090  219.3370 C   0  0  0  0  0  0  0  0  0  0  0  0
  144.9420   70.9270  219.2950 Cl  0  0  0  0  0  0  0  0  0  0  0  0
  143.8140   73.1870  218.2620 C   0  0  0  0  0  0  0  0  0  0  0  0
  143.4320   74.5120  218.2920 C   0  0  0  0  0  0  0  0  0  0  0  0
  140.2400   71.9720  222.9280 C   0  0  0  0  0  0  0  0  0  0  0  0
  139.6650   70.7250  222.7250 C   0  0  0  0  0  0  0  0  0  0  0  0
  139.5550   69.7940  223.7510 C   0  0  0  0  0  0  0  0  0  0  0  0
  140.0240   70.1060  225.0090 C   0  0  0  0  0  0  0  0  0  0  0  0
  139.9530   69.2400  226.0810 C   0  0  0  0  0  0  0  0  0  0  0  0
  140.4430   69.6110  227.3320 C   0  0  0  0  0  0  0  0  0  0  0  0
  140.3570   68.5130  228.7070 Cl  0  0  0  0  0  0  0  0  0  0  0  0
  141.0050   70.8680  227.4700 C   0  0  0  0  0  0  0  0  0  0  0  0
  141.0970   71.7650  226.4240 C   0  0  0  0  0  0  0  0  0  0  0  0
  140.5990   71.3650  225.1970 C   0  0  0  0  0  0  0  0  0  0  0  0
  140.6820   72.2270  224.1720 N   0  0  0  0  0  0  0  0  0  0  0  0
  139.5610   74.5820  223.0360 H   0  0  0  0  0  0  0  0  0  0  0  0
  140.6190   74.8099  220.2397 H   0  0  0  0  0  0  0  0  0  0  0  0
  139.0021   75.4906  220.7568 H   0  0  0  0  0  0  0  0  0  0  0  0
  140.0922   79.2061  220.5188 H   0  0  0  0  0  0  0  0  0  0  0  0
  141.6294   79.2387  221.3982 H   0  0  0  0  0  0  0  0  0  0  0  0
  141.3798   80.2223  218.8738 H   0  0  0  0  0  0  0  0  0  0  0  0
  142.8848   79.4989  219.3950 H   0  0  0  0  0  0  0  0  0  0  0  0
  140.5224   78.1510  217.9093 H   0  0  0  0  0  0  0  0  0  0  0  0
  142.1765   78.1345  217.3905 H   0  0  0  0  0  0  0  0  0  0  0  0
  141.3668   76.0052  218.8513 H   0  0  0  0  0  0  0  0  0  0  0  0
  143.7709   77.2512  218.5614 H   0  0  0  0  0  0  0  0  0  0  0  0
  143.5139   77.1576  220.3762 H   0  0  0  0  0  0  0  0  0  0  0  0
  144.5301   75.3269  221.3613 H   0  0  0  0  0  0  0  0  0  0  0  0
  145.2214   72.9574  221.3155 H   0  0  0  0  0  0  0  0  0  0  0  0
  143.6028   72.5823  217.3677 H   0  0  0  0  0  0  0  0  0  0  0  0
  142.9212   74.9402  217.4170 H   0  0  0  0  0  0  0  0  0  0  0  0
  139.2862   70.4667  221.7251 H   0  0  0  0  0  0  0  0  0  0  0  0
  139.0958   68.8128  223.5600 H   0  0  0  0  0  0  0  0  0  0  0  0
  139.5042   68.2447  225.9466 H   0  0  0  0  0  0  0  0  0  0  0  0
  141.3950   71.1653  228.4546 H   0  0  0  0  0  0  0  0  0  0  0  0
  141.5486   72.7586  226.5612 H   0  0  0  0  0  0  0  0  0  0  0  0
  1  2  2  0
  2  3  1  0
  3  4  1  0
  4  5  1  0
  5  6  2  0
  5  7  1  0
  7  8  1  0
  8  9  1  0
  9 10  1  0
 10 11  1  0
 11 12  1  0
 12 13  1  0
 13 14  2  0
 14 15  1  0
 15 16  2  0
 16 17  1  0
 16 18  1  0
 18 19  2  0
  2 20  1  0
 20 21  2  0
 21 22  1  0
 22 23  2  0
 23 24  1  0
 24 25  2  0
 25 26  1  0
 25 27  1  0
 27 28  2  0
 28 29  1  0
 29 30  2  0
 11  7  1  0
 19 13  1  0
 30 20  1  0
 29 23  1  0
  3 31  1  0
  4 32  1  0
  4 33  1  0
  8 34  1  0
  8 35  1  0
  9 36  1  0
  9 37  1  0
 10 38  1  0
 10 39  1  0
 11 40  1  6
 12 41  1  0
 12 42  1  0
 14 43  1  0
 15 44  1  0
 18 45  1  0
 19 46  1  0
 21 47  1  0
 22 48  1  0
 24 49  1  0
 27 50  1  0
 28 51  1  0
M  END
>  <smiles>  (36) 
O=C(NCC(=O)N1CCC[C@H]1Cc1ccc(Cl)cc1)c1ccc2cc(Cl)ccc2n1

>  <score_type>  (36) 
oracle

>  <origin>  (36) 
autodockgpu

>  <m_score__min__energy>  (36) 
-8.8200000000000003

>  <m_primary>  (36) 
energy

>  <rmsd>  (36) 
2.478551970146194

>  <m_score__min__rmsd>  (36) 
2.478551970146194

>  <meeko>  (36) 
{"free_energy": -8.29, "intermolecular_energy": -10.08, "internal_energy": -2.12, "cluster_size": 14, "cluster_id": 3, "rank_in_cluster": 4}

>  <energy>  (36) 
-7.78

>  <cluster_rmsd>  (36) 
1.17

>  <cluster>  (36) 
3

$$$$

     RDKit          3D

 51 54  0  0  0  0  0  0  0  0999 V2000
  140.5410   72.6210  220.6940 O   0  0  0  0  0  0  0  0  0  0  0  0
  140.1590   72.9510  221.8480 C   0  0  0  0  0  0  0  0  0  0  0  0
  139.7500   74.2790  222.1480 N   0  0  0  0  0  0  0  0  0  0  0  0
  139.7800   75.2510  221.1030 C   0  0  0  0  0  0  0  0  0  0  0  0
  140.7540   76.3340  221.3280 C   0  0  0  0  0  0  0  0  0  0  0  0
  140.9300   76.7350  222.5130 O   0  0  0  0  0  0  0  0  0  0  0  0
  141.4480   76.8780  220.2130 N   0  0  0  0  0  0  0  0  0  0  0  0
  141.5070   78.2690  219.8070 C   0  0  0  0  0  0  0  0  0  0  0  0
  142.4100   78.3130  218.6210 C   0  0  0  0  0  0  0  0  0  0  0  0
  142.2370   76.9280  218.0130 C   0  0  0  0  0  0  0  0  0  0  0  0
  142.2420   76.0790  219.2640 C   0  0  1  0  0  0  0  0  0  0  0  0
  143.6510   75.9160  219.7410 C   0  0  0  0  0  0  0  0  0  0  0  0
  144.1970   74.5480  219.5920 C   0  0  0  0  0  0  0  0  0  0  0  0
  145.0300   73.9500  220.5130 C   0  0  0  0  0  0  0  0  0  0  0  0
  145.5340   72.6640  220.3430 C   0  0  0  0  0  0  0  0  0  0  0  0
  145.2050   71.9310  219.2220 C   0  0  0  0  0  0  0  0  0  0  0  0
  145.8290   70.3110  218.9930 Cl  0  0  0  0  0  0  0  0  0  0  0  0
  144.3720   72.5070  218.2870 C   0  0  0  0  0  0  0  0  0  0  0  0
  143.8790   73.7830  218.4650 C   0  0  0  0  0  0  0  0  0  0  0  0
  140.1170   71.9730  222.9420 C   0  0  0  0  0  0  0  0  0  0  0  0
  139.5960   70.7010  222.7500 C   0  0  0  0  0  0  0  0  0  0  0  0
  139.5510   69.7660  223.7770 C   0  0  0  0  0  0  0  0  0  0  0  0
  140.0330   70.0990  225.0260 C   0  0  0  0  0  0  0  0  0  0  0  0
  140.0250   69.2300  226.0970 C   0  0  0  0  0  0  0  0  0  0  0  0
  140.5250   69.6220  227.3380 C   0  0  0  0  0  0  0  0  0  0  0  0
  140.5190   68.5220  228.7130 Cl  0  0  0  0  0  0  0  0  0  0  0  0
  141.0300   70.9040  227.4660 C   0  0  0  0  0  0  0  0  0  0  0  0
  141.0580   71.8040  226.4190 C   0  0  0  0  0  0  0  0  0  0  0  0
  140.5530   71.3830  225.2030 C   0  0  0  0  0  0  0  0  0  0  0  0
  140.5740   72.2480  224.1780 N   0  0  0  0  0  0  0  0  0  0  0  0
  139.4280   74.5790  223.1000 H   0  0  0  0  0  0  0  0  0  0  0  0
  140.0380   74.7419  220.1627 H   0  0  0  0  0  0  0  0  0  0  0  0
  138.7841   75.7168  221.0690 H   0  0  0  0  0  0  0  0  0  0  0  0
  140.5040   78.6314  219.5374 H   0  0  0  0  0  0  0  0  0  0  0  0
  141.8779   78.9106  220.6199 H   0  0  0  0  0  0  0  0  0  0  0  0
  142.0989   79.0972  217.9151 H   0  0  0  0  0  0  0  0  0  0  0  0
  143.4535   78.5487  218.8770 H   0  0  0  0  0  0  0  0  0  0  0  0
  141.2869   76.8400  217.4656 H   0  0  0  0  0  0  0  0  0  0  0  0
  142.9993   76.6543  217.2687 H   0  0  0  0  0  0  0  0  0  0  0  0
  141.8357   75.0662  219.1260 H   0  0  0  0  0  0  0  0  0  0  0  0
  144.2892   76.6046  219.1679 H   0  0  0  0  0  0  0  0  0  0  0  0
  143.6425   76.1328  220.8194 H   0  0  0  0  0  0  0  0  0  0  0  0
  145.3072   74.5111  221.4176 H   0  0  0  0  0  0  0  0  0  0  0  0
  146.1974   72.2304  221.1058 H   0  0  0  0  0  0  0  0  0  0  0  0
  144.0962   71.9406  217.3853 H   0  0  0  0  0  0  0  0  0  0  0  0
  143.2166   74.2113  217.6984 H   0  0  0  0  0  0  0  0  0  0  0  0
  139.2082   70.4256  221.7581 H   0  0  0  0  0  0  0  0  0  0  0  0
  139.1330   68.7649  223.5949 H   0  0  0  0  0  0  0  0  0  0  0  0
  139.6192   68.2154  225.9705 H   0  0  0  0  0  0  0  0  0  0  0  0
  141.4257   71.2194  228.4427 H   0  0  0  0  0  0  0  0  0  0  0  0
  141.4665   72.8172  226.5477 H   0  0  0  0  0  0  0  0  0  0  0  0
  1  2  2  0
  2  3  1  0
  3  4  1  0
  4  5  1  0
  5  6  2  0
  5  7  1  0
  7  8  1  0
  8  9  1  0
  9 10  1  0
 10 11  1  0
 11 12  1  0
 12 13  1  0
 13 14  2  0
 14 15  1  0
 15 16  2  0
 16 17  1  0
 16 18  1  0
 18 19  2  0
  2 20  1  0
 20 21  2  0
 21 22  1  0
 22 23  2  0
 23 24  1  0
 24 25  2  0
 25 26  1  0
 25 27  1  0
 27 28  2  0
 28 29  1  0
 29 30  2  0
 11  7  1  0
 19 13  1  0
 30 20  1  0
 29 23  1  0
  3 31  1  0
  4 32  1  0
  4 33  1  0
  8 34  1  0
  8 35  1  0
  9 36  1  0
  9 37  1  0
 10 38  1  0
 10 39  1  0
 11 40  1  6
 12 41  1  0
 12 42  1  0
 14 43  1  0
 15 44  1  0
 18 45  1  0
 19 46  1  0
 21 47  1  0
 22 48  1  0
 24 49  1  0
 27 50  1  0
 28 51  1  0
M  END
>  <smiles>  (37) 
O=C(NCC(=O)N1CCC[C@H]1Cc1ccc(Cl)cc1)c1ccc2cc(Cl)ccc2n1

>  <score_type>  (37) 
oracle

>  <origin>  (37) 
autodockgpu

>  <m_score__min__energy>  (37) 
-8.8200000000000003

>  <m_primary>  (37) 
energy

>  <rmsd>  (37) 
2.304776529550287

>  <m_score__min__rmsd>  (37) 
2.304776529550287

>  <meeko>  (37) 
{"free_energy": -8.67, "intermolecular_energy": -10.46, "internal_energy": -1.78, "cluster_size": 14, "cluster_id": 3, "rank_in_cluster": 1}

>  <energy>  (37) 
-7.74

>  <cluster_rmsd>  (37) 
0.93

>  <cluster>  (37) 
3

$$$$

     RDKit          3D

 51 54  0  0  0  0  0  0  0  0999 V2000
  140.6970   72.3380  220.5940 O   0  0  0  0  0  0  0  0  0  0  0  0
  140.3170   72.7230  221.7310 C   0  0  0  0  0  0  0  0  0  0  0  0
  139.9640   74.0780  221.9820 N   0  0  0  0  0  0  0  0  0  0  0  0
  140.0500   75.0120  220.9060 C   0  0  0  0  0  0  0  0  0  0  0  0
  140.1480   76.4160  221.3460 C   0  0  0  0  0  0  0  0  0  0  0  0
  139.6010   76.7320  222.4400 O   0  0  0  0  0  0  0  0  0  0  0  0
  140.8430   77.3460  220.5270 N   0  0  0  0  0  0  0  0  0  0  0  0
  140.9320   78.7820  220.7070 C   0  0  0  0  0  0  0  0  0  0  0  0
  141.8250   79.2780  219.6210 C   0  0  0  0  0  0  0  0  0  0  0  0
  141.6140   78.2540  218.5160 C   0  0  0  0  0  0  0  0  0  0  0  0
  141.6100   76.9770  219.3250 C   0  0  1  0  0  0  0  0  0  0  0  0
  143.0190   76.6130  219.6740 C   0  0  0  0  0  0  0  0  0  0  0  0
  143.2950   75.1580  219.6810 C   0  0  0  0  0  0  0  0  0  0  0  0
  144.1720   74.5470  220.5510 C   0  0  0  0  0  0  0  0  0  0  0  0
  144.4160   73.1770  220.5300 C   0  0  0  0  0  0  0  0  0  0  0  0
  143.7710   72.3700  219.6170 C   0  0  0  0  0  0  0  0  0  0  0  0
  144.0660   70.6440  219.5770 Cl  0  0  0  0  0  0  0  0  0  0  0  0
  142.8880   72.9570  218.7360 C   0  0  0  0  0  0  0  0  0  0  0  0
  142.6540   74.3170  218.7650 C   0  0  0  0  0  0  0  0  0  0  0  0
  140.2170   71.7860  222.8570 C   0  0  0  0  0  0  0  0  0  0  0  0
  139.6200   70.5420  222.7060 C   0  0  0  0  0  0  0  0  0  0  0  0
  139.5200   69.6450  223.7620 C   0  0  0  0  0  0  0  0  0  0  0  0
  140.0240   69.9880  224.9990 C   0  0  0  0  0  0  0  0  0  0  0  0
  139.9650   69.1550  226.0980 C   0  0  0  0  0  0  0  0  0  0  0  0
  140.4910   69.5560  227.3250 C   0  0  0  0  0  0  0  0  0  0  0  0
  140.4210   68.5030  228.7350 Cl  0  0  0  0  0  0  0  0  0  0  0  0
  141.0740   70.8080  227.4120 C   0  0  0  0  0  0  0  0  0  0  0  0
  141.1550   71.6710  226.3370 C   0  0  0  0  0  0  0  0  0  0  0  0
  140.6210   71.2430  225.1350 C   0  0  0  0  0  0  0  0  0  0  0  0
  140.6930   72.0720  224.0820 N   0  0  0  0  0  0  0  0  0  0  0  0
  139.6450   74.4230  222.9190 H   0  0  0  0  0  0  0  0  0  0  0  0
  140.9420   74.7723  220.3085 H   0  0  0  0  0  0  0  0  0  0  0  0
  139.1196   74.9211  220.3263 H   0  0  0  0  0  0  0  0  0  0  0  0
  139.9357   79.2403  220.6217 H   0  0  0  0  0  0  0  0  0  0  0  0
  141.3256   79.0397  221.7013 H   0  0  0  0  0  0  0  0  0  0  0  0
  141.5263   80.2840  219.2911 H   0  0  0  0  0  0  0  0  0  0  0  0
  142.8760   79.3731  219.9313 H   0  0  0  0  0  0  0  0  0  0  0  0
  140.6573   78.4086  217.9956 H   0  0  0  0  0  0  0  0  0  0  0  0
  142.3630   78.2857  217.7110 H   0  0  0  0  0  0  0  0  0  0  0  0
  141.1794   76.1104  218.8020 H   0  0  0  0  0  0  0  0  0  0  0  0
  143.6877   77.0858  218.9396 H   0  0  0  0  0  0  0  0  0  0  0  0
  143.1878   76.9678  220.7014 H   0  0  0  0  0  0  0  0  0  0  0  0
  144.6998   75.1665  221.2910 H   0  0  0  0  0  0  0  0  0  0  0  0
  145.1264   72.7362  221.2448 H   0  0  0  0  0  0  0  0  0  0  0  0
  142.3621   72.3323  217.9990 H   0  0  0  0  0  0  0  0  0  0  0  0
  141.9431   74.7521  218.0472 H   0  0  0  0  0  0  0  0  0  0  0  0
  139.2150   70.2587  221.7233 H   0  0  0  0  0  0  0  0  0  0  0  0
  139.0412   68.6660  223.6123 H   0  0  0  0  0  0  0  0  0  0  0  0
  139.4977   68.1636  226.0045 H   0  0  0  0  0  0  0  0  0  0  0  0
  141.4904   71.1293  228.3781 H   0  0  0  0  0  0  0  0  0  0  0  0
  141.6259   72.6605  226.4329 H   0  0  0  0  0  0  0  0  0  0  0  0
  1  2  2  0
  2  3  1  0
  3  4  1  0
  4  5  1  0
  5  6  2  0
  5  7  1  0
  7  8  1  0
  8  9  1  0
  9 10  1  0
 10 11  1  0
 11 12  1  0
 12 13  1  0
 13 14  2  0
 14 15  1  0
 15 16  2  0
 16 17  1  0
 16 18  1  0
 18 19  2  0
  2 20  1  0
 20 21  2  0
 21 22  1  0
 22 23  2  0
 23 24  1  0
 24 25  2  0
 25 26  1  0
 25 27  1  0
 27 28  2  0
 28 29  1  0
 29 30  2  0
 11  7  1  0
 19 13  1  0
 30 20  1  0
 29 23  1  0
  3 31  1  0
  4 32  1  0
  4 33  1  0
  8 34  1  0
  8 35  1  0
  9 36  1  0
  9 37  1  0
 10 38  1  0
 10 39  1  0
 11 40  1  6
 12 41  1  0
 12 42  1  0
 14 43  1  0
 15 44  1  0
 18 45  1  0
 19 46  1  0
 21 47  1  0
 22 48  1  0
 24 49  1  0
 27 50  1  0
 28 51  1  0
M  END
>  <smiles>  (38) 
O=C(NCC(=O)N1CCC[C@H]1Cc1ccc(Cl)cc1)c1ccc2cc(Cl)ccc2n1

>  <score_type>  (38) 
oracle

>  <origin>  (38) 
autodockgpu

>  <m_score__min__energy>  (38) 
-8.8200000000000003

>  <m_primary>  (38) 
energy

>  <rmsd>  (38) 
2.446629561824946

>  <m_score__min__rmsd>  (38) 
2.446629561824946

>  <meeko>  (38) 
{"free_energy": -7.85, "intermolecular_energy": -9.64, "internal_energy": -2.45, "cluster_size": 14, "cluster_id": 3, "rank_in_cluster": 9}

>  <energy>  (38) 
-7.72

>  <cluster_rmsd>  (38) 
0.87

>  <cluster>  (38) 
3

$$$$

     RDKit          3D

 51 54  0  0  0  0  0  0  0  0999 V2000
  140.3330   72.4390  220.6080 O   0  0  0  0  0  0  0  0  0  0  0  0
  140.0810   72.8120  221.7850 C   0  0  0  0  0  0  0  0  0  0  0  0
  139.7970   74.1700  222.0940 N   0  0  0  0  0  0  0  0  0  0  0  0
  139.8020   75.1230  221.0320 C   0  0  0  0  0  0  0  0  0  0  0  0
  140.0440   76.5080  221.4770 C   0  0  0  0  0  0  0  0  0  0  0  0
  139.5880   76.8540  222.6040 O   0  0  0  0  0  0  0  0  0  0  0  0
  140.7700   77.3860  220.6290 N   0  0  0  0  0  0  0  0  0  0  0  0
  140.9250   78.8210  220.7740 C   0  0  0  0  0  0  0  0  0  0  0  0
  141.8260   79.2510  219.6670 C   0  0  0  0  0  0  0  0  0  0  0  0
  141.5550   78.2120  218.5880 C   0  0  0  0  0  0  0  0  0  0  0  0
  141.5040   76.9550  219.4270 C   0  0  1  0  0  0  0  0  0  0  0  0
  142.9000   76.5360  219.7680 C   0  0  0  0  0  0  0  0  0  0  0  0
  143.1090   75.0710  219.8070 C   0  0  0  0  0  0  0  0  0  0  0  0
  143.8860   74.4310  220.7490 C   0  0  0  0  0  0  0  0  0  0  0  0
  144.0700   73.0520  220.7570 C   0  0  0  0  0  0  0  0  0  0  0  0
  143.4660   72.2640  219.8000 C   0  0  0  0  0  0  0  0  0  0  0  0
  143.6870   70.5270  219.7950 Cl  0  0  0  0  0  0  0  0  0  0  0  0
  142.6840   72.8800  218.8460 C   0  0  0  0  0  0  0  0  0  0  0  0
  142.5090   74.2490  218.8470 C   0  0  0  0  0  0  0  0  0  0  0  0
  140.0690   71.8550  222.8980 C   0  0  0  0  0  0  0  0  0  0  0  0
  139.5680   70.5700  222.7360 C   0  0  0  0  0  0  0  0  0  0  0  0
  139.5510   69.6540  223.7800 C   0  0  0  0  0  0  0  0  0  0  0  0
  140.0410   70.0180  225.0160 C   0  0  0  0  0  0  0  0  0  0  0  0
  140.0600   69.1700  226.1040 C   0  0  0  0  0  0  0  0  0  0  0  0
  140.5670   69.5940  227.3310 C   0  0  0  0  0  0  0  0  0  0  0  0
  140.5960   68.5190  228.7270 Cl  0  0  0  0  0  0  0  0  0  0  0  0
  141.0510   70.8870  227.4290 C   0  0  0  0  0  0  0  0  0  0  0  0
  141.0520   71.7670  226.3660 C   0  0  0  0  0  0  0  0  0  0  0  0
  140.5400   71.3140  225.1640 C   0  0  0  0  0  0  0  0  0  0  0  0
  140.5340   72.1600  224.1220 N   0  0  0  0  0  0  0  0  0  0  0  0
  139.5850   74.5050  223.0650 H   0  0  0  0  0  0  0  0  0  0  0  0
  140.5925   74.8444  220.3196 H   0  0  0  0  0  0  0  0  0  0  0  0
  138.8002   75.1025  220.5781 H   0  0  0  0  0  0  0  0  0  0  0  0
  139.9491   79.3214  220.6887 H   0  0  0  0  0  0  0  0  0  0  0  0
  141.3415   79.0839  221.7576 H   0  0  0  0  0  0  0  0  0  0  0  0
  141.5691   80.2617  219.3171 H   0  0  0  0  0  0  0  0  0  0  0  0
  142.8840   79.3053  219.9631 H   0  0  0  0  0  0  0  0  0  0  0  0
  140.5996   78.3978  218.0754 H   0  0  0  0  0  0  0  0  0  0  0  0
  142.2943   78.1914  217.7737 H   0  0  0  0  0  0  0  0  0  0  0  0
  141.0282   76.0969  218.9298 H   0  0  0  0  0  0  0  0  0  0  0  0
  143.5798   76.9601  219.0143 H   0  0  0  0  0  0  0  0  0  0  0  0
  143.0988   76.9075  220.7841 H   0  0  0  0  0  0  0  0  0  0  0  0
  144.3799   75.0344  221.5248 H   0  0  0  0  0  0  0  0  0  0  0  0
  144.7001   72.5882  221.5302 H   0  0  0  0  0  0  0  0  0  0  0  0
  142.1924   72.2714  218.0727 H   0  0  0  0  0  0  0  0  0  0  0  0
  141.8793   74.7073  218.0702 H   0  0  0  0  0  0  0  0  0  0  0  0
  139.1738   70.2693  221.7540 H   0  0  0  0  0  0  0  0  0  0  0  0
  139.1484   68.6427  223.6212 H   0  0  0  0  0  0  0  0  0  0  0  0
  139.6701   68.1465  226.0018 H   0  0  0  0  0  0  0  0  0  0  0  0
  141.4518   71.2276  228.3951 H   0  0  0  0  0  0  0  0  0  0  0  0
  141.4448   72.7891  226.4708 H   0  0  0  0  0  0  0  0  0  0  0  0
  1  2  2  0
  2  3  1  0
  3  4  1  0
  4  5  1  0
  5  6  2  0
  5  7  1  0
  7  8  1  0
  8  9  1  0
  9 10  1  0
 10 11  1  0
 11 12  1  0
 12 13  1  0
 13 14  2  0
 14 15  1  0
 15 16  2  0
 16 17  1  0
 16 18  1  0
 18 19  2  0
  2 20  1  0
 20 21  2  0
 21 22  1  0
 22 23  2  0
 23 24  1  0
 24 25  2  0
 25 26  1  0
 25 27  1  0
 27 28  2  0
 28 29  1  0
 29 30  2  0
 11  7  1  0
 19 13  1  0
 30 20  1  0
 29 23  1  0
  3 31  1  0
  4 32  1  0
  4 33  1  0
  8 34  1  0
  8 35  1  0
  9 36  1  0
  9 37  1  0
 10 38  1  0
 10 39  1  0
 11 40  1  6
 12 41  1  0
 12 42  1  0
 14 43  1  0
 15 44  1  0
 18 45  1  0
 19 46  1  0
 21 47  1  0
 22 48  1  0
 24 49  1  0
 27 50  1  0
 28 51  1  0
M  END
>  <smiles>  (39) 
O=C(NCC(=O)N1CCC[C@H]1Cc1ccc(Cl)cc1)c1ccc2cc(Cl)ccc2n1

>  <score_type>  (39) 
oracle

>  <origin>  (39) 
autodockgpu

>  <m_score__min__energy>  (39) 
-8.8200000000000003

>  <m_primary>  (39) 
energy

>  <rmsd>  (39) 
2.433466725482187

>  <m_score__min__rmsd>  (39) 
2.433466725482187

>  <meeko>  (39) 
{"free_energy": -7.74, "intermolecular_energy": -9.53, "internal_energy": -2.56, "cluster_size": 14, "cluster_id": 3, "rank_in_cluster": 12}

>  <energy>  (39) 
-7.39

>  <cluster_rmsd>  (39) 
1.71

>  <cluster>  (39) 
3

$$$$

     RDKit          3D

 51 54  0  0  0  0  0  0  0  0999 V2000
  133.3920   70.1550  226.4710 O   0  0  0  0  0  0  0  0  0  0  0  0
  133.7420   71.2920  226.0560 C   0  0  0  0  0  0  0  0  0  0  0  0
  134.7280   71.4470  225.0430 N   0  0  0  0  0  0  0  0  0  0  0  0
  135.3260   70.2740  224.4940 C   0  0  0  0  0  0  0  0  0  0  0  0
  136.5030   70.5470  223.6480 C   0  0  0  0  0  0  0  0  0  0  0  0
  137.0580   71.6770  223.7570 O   0  0  0  0  0  0  0  0  0  0  0  0
  136.9560   69.5410  222.7540 N   0  0  0  0  0  0  0  0  0  0  0  0
  136.7750   69.4940  221.3160 C   0  0  0  0  0  0  0  0  0  0  0  0
  137.4920   68.2720  220.8510 C   0  0  0  0  0  0  0  0  0  0  0  0
  137.4190   67.3560  222.0640 C   0  0  0  0  0  0  0  0  0  0  0  0
  137.7090   68.3450  223.1700 C   0  0  1  0  0  0  0  0  0  0  0  0
  139.1800   68.6190  223.2100 C   0  0  0  0  0  0  0  0  0  0  0  0
  139.6330   69.3720  224.4010 C   0  0  0  0  0  0  0  0  0  0  0  0
  139.6170   68.8630  225.6830 C   0  0  0  0  0  0  0  0  0  0  0  0
  140.0430   69.5970  226.7860 C   0  0  0  0  0  0  0  0  0  0  0  0
  140.5070   70.8860  226.6260 C   0  0  0  0  0  0  0  0  0  0  0  0
  141.0480   71.8230  228.0030 Cl  0  0  0  0  0  0  0  0  0  0  0  0
  140.5340   71.4170  225.3540 C   0  0  0  0  0  0  0  0  0  0  0  0
  140.1080   70.6810  224.2680 C   0  0  0  0  0  0  0  0  0  0  0  0
  133.1440   72.5170  226.6020 C   0  0  0  0  0  0  0  0  0  0  0  0
  131.9570   72.4800  227.3190 C   0  0  0  0  0  0  0  0  0  0  0  0
  131.3810   73.6310  227.8420 C   0  0  0  0  0  0  0  0  0  0  0  0
  131.9950   74.8500  227.6500 C   0  0  0  0  0  0  0  0  0  0  0  0
  131.4890   76.0390  228.1350 C   0  0  0  0  0  0  0  0  0  0  0  0
  132.1550   77.2420  227.9090 C   0  0  0  0  0  0  0  0  0  0  0  0
  131.5180   78.7660  228.5230 Cl  0  0  0  0  0  0  0  0  0  0  0  0
  133.3350   77.2140  227.1860 C   0  0  0  0  0  0  0  0  0  0  0  0
  133.8750   76.0470  226.6840 C   0  0  0  0  0  0  0  0  0  0  0  0
  133.1890   74.8710  226.9250 C   0  0  0  0  0  0  0  0  0  0  0  0
  133.7040   73.7300  226.4420 N   0  0  0  0  0  0  0  0  0  0  0  0
  135.0370   72.3810  224.6820 H   0  0  0  0  0  0  0  0  0  0  0  0
  135.6386   69.6231  225.3238 H   0  0  0  0  0  0  0  0  0  0  0  0
  134.5707   69.8005  223.8496 H   0  0  0  0  0  0  0  0  0  0  0  0
  135.7055   69.4274  221.0674 H   0  0  0  0  0  0  0  0  0  0  0  0
  137.1669   70.4001  220.8308 H   0  0  0  0  0  0  0  0  0  0  0  0
  136.9866   67.8220  219.9837 H   0  0  0  0  0  0  0  0  0  0  0  0
  138.5210   68.4714  220.5173 H   0  0  0  0  0  0  0  0  0  0  0  0
  136.4218   66.9047  222.1733 H   0  0  0  0  0  0  0  0  0  0  0  0
  138.0996   66.4925  222.0295 H   0  0  0  0  0  0  0  0  0  0  0  0
  137.4243   67.9984  224.1744 H   0  0  0  0  0  0  0  0  0  0  0  0
  139.7094   67.6550  223.1914 H   0  0  0  0  0  0  0  0  0  0  0  0
  139.4040   69.2503  222.3375 H   0  0  0  0  0  0  0  0  0  0  0  0
  139.2533   67.8368  225.8396 H   0  0  0  0  0  0  0  0  0  0  0  0
  140.0095   69.1474  227.7894 H   0  0  0  0  0  0  0  0  0  0  0  0
  140.9008   72.4430  225.2029 H   0  0  0  0  0  0  0  0  0  0  0  0
  140.1428   71.1370  223.2676 H   0  0  0  0  0  0  0  0  0  0  0  0
  131.4581   71.5126  227.4778 H   0  0  0  0  0  0  0  0  0  0  0  0
  130.4391   73.5698  228.4068 H   0  0  0  0  0  0  0  0  0  0  0  0
  130.5491   76.0370  228.7065 H   0  0  0  0  0  0  0  0  0  0  0  0
  133.8644   78.1609  227.0039 H   0  0  0  0  0  0  0  0  0  0  0  0
  134.8156   76.0524  226.1137 H   0  0  0  0  0  0  0  0  0  0  0  0
  1  2  2  0
  2  3  1  0
  3  4  1  0
  4  5  1  0
  5  6  2  0
  5  7  1  0
  7  8  1  0
  8  9  1  0
  9 10  1  0
 10 11  1  0
 11 12  1  0
 12 13  1  0
 13 14  2  0
 14 15  1  0
 15 16  2  0
 16 17  1  0
 16 18  1  0
 18 19  2  0
  2 20  1  0
 20 21  2  0
 21 22  1  0
 22 23  2  0
 23 24  1  0
 24 25  2  0
 25 26  1  0
 25 27  1  0
 27 28  2  0
 28 29  1  0
 29 30  2  0
 11  7  1  0
 19 13  1  0
 30 20  1  0
 29 23  1  0
  3 31  1  0
  4 32  1  0
  4 33  1  0
  8 34  1  0
  8 35  1  0
  9 36  1  0
  9 37  1  0
 10 38  1  0
 10 39  1  0
 11 40  1  1
 12 41  1  0
 12 42  1  0
 14 43  1  0
 15 44  1  0
 18 45  1  0
 19 46  1  0
 21 47  1  0
 22 48  1  0
 24 49  1  0
 27 50  1  0
 28 51  1  0
M  END
>  <smiles>  (40) 
O=C(NCC(=O)N1CCC[C@H]1Cc1ccc(Cl)cc1)c1ccc2cc(Cl)ccc2n1

>  <score_type>  (40) 
oracle

>  <origin>  (40) 
autodockgpu

>  <m_score__min__energy>  (40) 
-8.8200000000000003

>  <m_primary>  (40) 
energy

>  <rmsd>  (40) 
8.739673802137647

>  <m_score__min__rmsd>  (40) 
8.739673802137647

>  <meeko>  (40) 
{"free_energy": -7.95, "intermolecular_energy": -9.74, "internal_energy": -2.1, "cluster_size": 12, "cluster_id": 2, "rank_in_cluster": 3}

>  <energy>  (40) 
-8.58

>  <cluster_rmsd>  (40) 
0.0

>  <cluster>  (40) 
4

$$$$

     RDKit          3D

 51 54  0  0  0  0  0  0  0  0999 V2000
  139.6550   73.9840  222.3690 O   0  0  0  0  0  0  0  0  0  0  0  0
  139.5430   72.7550  222.1180 C   0  0  0  0  0  0  0  0  0  0  0  0
  139.2590   72.2820  220.8070 N   0  0  0  0  0  0  0  0  0  0  0  0
  139.1000   73.2400  219.7600 C   0  0  0  0  0  0  0  0  0  0  0  0
  140.1880   73.2170  218.7650 C   0  0  0  0  0  0  0  0  0  0  0  0
  139.9430   72.7120  217.6330 O   0  0  0  0  0  0  0  0  0  0  0  0
  141.4540   73.7580  219.1160 N   0  0  0  0  0  0  0  0  0  0  0  0
  142.7400   73.4440  218.5240 C   0  0  0  0  0  0  0  0  0  0  0  0
  143.7320   74.3240  219.2050 C   0  0  0  0  0  0  0  0  0  0  0  0
  143.1030   74.5460  220.5730 C   0  0  0  0  0  0  0  0  0  0  0  0
  141.6590   74.7580  220.1780 C   0  0  1  0  0  0  0  0  0  0  0  0
  141.4940   76.1490  219.6500 C   0  0  0  0  0  0  0  0  0  0  0  0
  141.4630   77.2020  220.6900 C   0  0  0  0  0  0  0  0  0  0  0  0
  141.0450   76.9880  221.9860 C   0  0  0  0  0  0  0  0  0  0  0  0
  141.0200   78.0000  222.9420 C   0  0  0  0  0  0  0  0  0  0  0  0
  141.4240   79.2760  222.6130 C   0  0  0  0  0  0  0  0  0  0  0  0
  141.4000   80.5610  223.8030 Cl  0  0  0  0  0  0  0  0  0  0  0  0
  141.8480   79.5150  221.3220 C   0  0  0  0  0  0  0  0  0  0  0  0
  141.8670   78.5050  220.3830 C   0  0  0  0  0  0  0  0  0  0  0  0
  139.7020   71.7470  223.1730 C   0  0  0  0  0  0  0  0  0  0  0  0
  139.2740   70.4390  222.9880 C   0  0  0  0  0  0  0  0  0  0  0  0
  139.4200   69.4750  223.9770 C   0  0  0  0  0  0  0  0  0  0  0  0
  140.0020   69.8130  225.1810 C   0  0  0  0  0  0  0  0  0  0  0  0
  140.1830   68.9160  226.2140 C   0  0  0  0  0  0  0  0  0  0  0  0
  140.7770   69.3160  227.4090 C   0  0  0  0  0  0  0  0  0  0  0  0
  141.0130   68.1800  228.7350 Cl  0  0  0  0  0  0  0  0  0  0  0  0
  141.1820   70.6330  227.5320 C   0  0  0  0  0  0  0  0  0  0  0  0
  141.0210   71.5620  226.5240 C   0  0  0  0  0  0  0  0  0  0  0  0
  140.4260   71.1320  225.3520 C   0  0  0  0  0  0  0  0  0  0  0  0
  140.2630   72.0250  224.3630 N   0  0  0  0  0  0  0  0  0  0  0  0
  139.1610   71.2650  220.5720 H   0  0  0  0  0  0  0  0  0  0  0  0
  138.1515   73.0343  219.2422 H   0  0  0  0  0  0  0  0  0  0  0  0
  139.1149   74.2346  220.2295 H   0  0  0  0  0  0  0  0  0  0  0  0
  142.9896   72.3858  218.6913 H   0  0  0  0  0  0  0  0  0  0  0  0
  142.7341   73.6098  217.4366 H   0  0  0  0  0  0  0  0  0  0  0  0
  144.7085   73.8254  219.2941 H   0  0  0  0  0  0  0  0  0  0  0  0
  143.9309   75.2588  218.6604 H   0  0  0  0  0  0  0  0  0  0  0  0
  143.2218   73.6664  221.2227 H   0  0  0  0  0  0  0  0  0  0  0  0
  143.5458   75.3682  221.1544 H   0  0  0  0  0  0  0  0  0  0  0  0
  140.9414   74.6460  221.0042 H   0  0  0  0  0  0  0  0  0  0  0  0
  142.3339   76.3607  218.9720 H   0  0  0  0  0  0  0  0  0  0  0  0
  140.5163   76.1781  219.1468 H   0  0  0  0  0  0  0  0  0  0  0  0
  140.7185   75.9785  222.2762 H   0  0  0  0  0  0  0  0  0  0  0  0
  140.6765   77.7803  223.9637 H   0  0  0  0  0  0  0  0  0  0  0  0
  142.1757   80.5258  221.0375 H   0  0  0  0  0  0  0  0  0  0  0  0
  142.2100   78.7311  219.3626 H   0  0  0  0  0  0  0  0  0  0  0  0
  138.8067   70.1589  222.0324 H   0  0  0  0  0  0  0  0  0  0  0  0
  139.0729   68.4461  223.8009 H   0  0  0  0  0  0  0  0  0  0  0  0
  139.8545   67.8733  226.0925 H   0  0  0  0  0  0  0  0  0  0  0  0
  141.6524   70.9535  228.4733 H   0  0  0  0  0  0  0  0  0  0  0  0
  141.3529   72.6034  226.6480 H   0  0  0  0  0  0  0  0  0  0  0  0
  1  2  2  0
  2  3  1  0
  3  4  1  0
  4  5  1  0
  5  6  2  0
  5  7  1  0
  7  8  1  0
  8  9  1  0
  9 10  1  0
 10 11  1  0
 11 12  1  0
 12 13  1  0
 13 14  2  0
 14 15  1  0
 15 16  2  0
 16 17  1  0
 16 18  1  0
 18 19  2  0
  2 20  1  0
 20 21  2  0
 21 22  1  0
 22 23  2  0
 23 24  1  0
 24 25  2  0
 25 26  1  0
 25 27  1  0
 27 28  2  0
 28 29  1  0
 29 30  2  0
 11  7  1  0
 19 13  1  0
 30 20  1  0
 29 23  1  0
  3 31  1  0
  4 32  1  0
  4 33  1  0
  8 34  1  0
  8 35  1  0
  9 36  1  0
  9 37  1  0
 10 38  1  0
 10 39  1  0
 11 40  1  1
 12 41  1  0
 12 42  1  0
 14 43  1  0
 15 44  1  0
 18 45  1  0
 19 46  1  0
 21 47  1  0
 22 48  1  0
 24 49  1  0
 27 50  1  0
 28 51  1  0
M  END
>  <smiles>  (41) 
O=C(NCC(=O)N1CCC[C@H]1Cc1ccc(Cl)cc1)c1ccc2cc(Cl)ccc2n1

>  <score_type>  (41) 
oracle

>  <origin>  (41) 
autodockgpu

>  <m_score__min__energy>  (41) 
-8.8200000000000003

>  <m_primary>  (41) 
energy

>  <rmsd>  (41) 
2.731157745864378

>  <m_score__min__rmsd>  (41) 
2.731157745864378

>  <meeko>  (41) 
{"free_energy": -8.09, "intermolecular_energy": -9.88, "internal_energy": -1.65, "cluster_size": 13, "cluster_id": 1, "rank_in_cluster": 8}

>  <energy>  (41) 
-8.44

>  <cluster_rmsd>  (41) 
0.81

>  <cluster>  (41) 
4

$$$$

     RDKit          3D

 51 54  0  0  0  0  0  0  0  0999 V2000
  140.6970   72.6150  220.7250 O   0  0  0  0  0  0  0  0  0  0  0  0
  140.2800   72.9480  221.8670 C   0  0  0  0  0  0  0  0  0  0  0  0
  139.8620   74.2770  222.1520 N   0  0  0  0  0  0  0  0  0  0  0  0
  139.9230   75.2460  221.1060 C   0  0  0  0  0  0  0  0  0  0  0  0
  140.6830   76.4580  221.4640 C   0  0  0  0  0  0  0  0  0  0  0  0
  140.7320   76.7860  222.6840 O   0  0  0  0  0  0  0  0  0  0  0  0
  141.3190   77.2010  220.4340 N   0  0  0  0  0  0  0  0  0  0  0  0
  141.3360   78.6420  220.2700 C   0  0  0  0  0  0  0  0  0  0  0  0
  142.1880   78.9090  219.0760 C   0  0  0  0  0  0  0  0  0  0  0  0
  142.0140   77.6450  218.2460 C   0  0  0  0  0  0  0  0  0  0  0  0
  142.0870   76.5950  219.3320 C   0  0  1  0  0  0  0  0  0  0  0  0
  143.5170   76.3890  219.7210 C   0  0  0  0  0  0  0  0  0  0  0  0
  143.9950   74.9940  219.5880 C   0  0  0  0  0  0  0  0  0  0  0  0
  143.6130   74.1450  218.5710 C   0  0  0  0  0  0  0  0  0  0  0  0
  144.0740   72.8350  218.4750 C   0  0  0  0  0  0  0  0  0  0  0  0
  144.9480   72.3350  219.4160 C   0  0  0  0  0  0  0  0  0  0  0  0
  145.5390   70.6900  219.3110 Cl  0  0  0  0  0  0  0  0  0  0  0  0
  145.3470   73.1650  220.4430 C   0  0  0  0  0  0  0  0  0  0  0  0
  144.8830   74.4620  220.5290 C   0  0  0  0  0  0  0  0  0  0  0  0
  140.2050   71.9730  222.9620 C   0  0  0  0  0  0  0  0  0  0  0  0
  139.6470   70.7160  222.7690 C   0  0  0  0  0  0  0  0  0  0  0  0
  139.5710   69.7840  223.7950 C   0  0  0  0  0  0  0  0  0  0  0  0
  140.0590   70.1020  225.0450 C   0  0  0  0  0  0  0  0  0  0  0  0
  140.0210   69.2340  226.1170 C   0  0  0  0  0  0  0  0  0  0  0  0
  140.5280   69.6120  227.3590 C   0  0  0  0  0  0  0  0  0  0  0  0
  140.4850   68.5130  228.7350 Cl  0  0  0  0  0  0  0  0  0  0  0  0
  141.0720   70.8790  227.4880 C   0  0  0  0  0  0  0  0  0  0  0  0
  141.1300   71.7770  226.4410 C   0  0  0  0  0  0  0  0  0  0  0  0
  140.6160   71.3700  225.2240 C   0  0  0  0  0  0  0  0  0  0  0  0
  140.6660   72.2340  224.1980 N   0  0  0  0  0  0  0  0  0  0  0  0
  139.5110   74.5780  223.0930 H   0  0  0  0  0  0  0  0  0  0  0  0
  140.4011   74.7823  220.2306 H   0  0  0  0  0  0  0  0  0  0  0  0
  138.8899   75.5633  220.9012 H   0  0  0  0  0  0  0  0  0  0  0  0
  140.3164   79.0200  220.1043 H   0  0  0  0  0  0  0  0  0  0  0  0
  141.7284   79.1452  221.1660 H   0  0  0  0  0  0  0  0  0  0  0  0
  141.8347   79.7946  218.5275 H   0  0  0  0  0  0  0  0  0  0  0  0
  143.2371   79.1219  219.3292 H   0  0  0  0  0  0  0  0  0  0  0  0
  141.0434   77.6284  217.7287 H   0  0  0  0  0  0  0  0  0  0  0  0
  142.7486   77.5214  217.4366 H   0  0  0  0  0  0  0  0  0  0  0  0
  141.6941   75.6107  219.0373 H   0  0  0  0  0  0  0  0  0  0  0  0
  144.1426   77.0289  219.0813 H   0  0  0  0  0  0  0  0  0  0  0  0
  143.5906   76.6443  220.7884 H   0  0  0  0  0  0  0  0  0  0  0  0
  142.9166   74.5175  217.8053 H   0  0  0  0  0  0  0  0  0  0  0  0
  143.7392   72.1961  217.6445 H   0  0  0  0  0  0  0  0  0  0  0  0
  146.0453   72.7876  221.2046 H   0  0  0  0  0  0  0  0  0  0  0  0
  145.2213   75.0959  221.3619 H   0  0  0  0  0  0  0  0  0  0  0  0
  139.2545   70.4517  221.7760 H   0  0  0  0  0  0  0  0  0  0  0  0
  139.1234   68.7960  223.6117 H   0  0  0  0  0  0  0  0  0  0  0  0
  139.5854   68.2319  225.9898 H   0  0  0  0  0  0  0  0  0  0  0  0
  141.4747   71.1826  228.4656 H   0  0  0  0  0  0  0  0  0  0  0  0
  141.5683   72.7776  226.5702 H   0  0  0  0  0  0  0  0  0  0  0  0
  1  2  2  0
  2  3  1  0
  3  4  1  0
  4  5  1  0
  5  6  2  0
  5  7  1  0
  7  8  1  0
  8  9  1  0
  9 10  1  0
 10 11  1  0
 11 12  1  0
 12 13  1  0
 13 14  2  0
 14 15  1  0
 15 16  2  0
 16 17  1  0
 16 18  1  0
 18 19  2  0
  2 20  1  0
 20 21  2  0
 21 22  1  0
 22 23  2  0
 23 24  1  0
 24 25  2  0
 25 26  1  0
 25 27  1  0
 27 28  2  0
 28 29  1  0
 29 30  2  0
 11  7  1  0
 19 13  1  0
 30 20  1  0
 29 23  1  0
  3 31  1  0
  4 32  1  0
  4 33  1  0
  8 34  1  0
  8 35  1  0
  9 36  1  0
  9 37  1  0
 10 38  1  0
 10 39  1  0
 11 40  1  6
 12 41  1  0
 12 42  1  0
 14 43  1  0
 15 44  1  0
 18 45  1  0
 19 46  1  0
 21 47  1  0
 22 48  1  0
 24 49  1  0
 27 50  1  0
 28 51  1  0
M  END
>  <smiles>  (42) 
O=C(NCC(=O)N1CCC[C@H]1Cc1ccc(Cl)cc1)c1ccc2cc(Cl)ccc2n1

>  <score_type>  (42) 
oracle

>  <origin>  (42) 
autodockgpu

>  <m_score__min__energy>  (42) 
-8.8200000000000003

>  <m_primary>  (42) 
energy

>  <rmsd>  (42) 
2.413095896597397

>  <m_score__min__rmsd>  (42) 
2.413095896597397

>  <meeko>  (42) 
{"free_energy": -8.56, "intermolecular_energy": -10.35, "internal_energy": -1.91, "cluster_size": 14, "cluster_id": 3, "rank_in_cluster": 2}

>  <energy>  (42) 
-8.21

>  <cluster_rmsd>  (42) 
0.66

>  <cluster>  (42) 
4

$$$$

     RDKit          3D

 51 54  0  0  0  0  0  0  0  0999 V2000
  133.8020   71.3980  225.2190 O   0  0  0  0  0  0  0  0  0  0  0  0
  134.6080   72.3550  225.0730 C   0  0  0  0  0  0  0  0  0  0  0  0
  135.8650   72.1830  224.4300 N   0  0  0  0  0  0  0  0  0  0  0  0
  136.2070   70.8850  223.9450 C   0  0  0  0  0  0  0  0  0  0  0  0
  137.5390   70.8180  223.3180 C   0  0  0  0  0  0  0  0  0  0  0  0
  138.3100   71.8100  223.4600 O   0  0  0  0  0  0  0  0  0  0  0  0
  137.8970   69.6550  222.5850 N   0  0  0  0  0  0  0  0  0  0  0  0
  138.3300   69.5840  221.2030 C   0  0  0  0  0  0  0  0  0  0  0  0
  138.6410   68.1490  220.9430 C   0  0  0  0  0  0  0  0  0  0  0  0
  137.7210   67.4230  221.9130 C   0  0  0  0  0  0  0  0  0  0  0  0
  137.8800   68.2910  223.1410 C   0  0  1  0  0  0  0  0  0  0  0  0
  139.1790   67.9640  223.8080 C   0  0  0  0  0  0  0  0  0  0  0  0
  139.5550   68.8830  224.9070 C   0  0  0  0  0  0  0  0  0  0  0  0
  139.1840   68.6990  226.2220 C   0  0  0  0  0  0  0  0  0  0  0  0
  139.5470   69.5840  227.2330 C   0  0  0  0  0  0  0  0  0  0  0  0
  140.3060   70.6980  226.9420 C   0  0  0  0  0  0  0  0  0  0  0  0
  140.7720   71.8220  228.2020 Cl  0  0  0  0  0  0  0  0  0  0  0  0
  140.6900   70.9040  225.6340 C   0  0  0  0  0  0  0  0  0  0  0  0
  140.3250   70.0200  224.6390 C   0  0  0  0  0  0  0  0  0  0  0  0
  134.2830   73.7020  225.5600 C   0  0  0  0  0  0  0  0  0  0  0  0
  134.9720   74.8170  225.1020 C   0  0  0  0  0  0  0  0  0  0  0  0
  134.6740   76.0960  225.5540 C   0  0  0  0  0  0  0  0  0  0  0  0
  133.6710   76.2770  226.4830 C   0  0  0  0  0  0  0  0  0  0  0  0
  133.3150   77.5130  226.9830 C   0  0  0  0  0  0  0  0  0  0  0  0
  132.2930   77.6350  227.9220 C   0  0  0  0  0  0  0  0  0  0  0  0
  131.8290   79.2070  228.5670 Cl  0  0  0  0  0  0  0  0  0  0  0  0
  131.6440   76.4850  228.3390 C   0  0  0  0  0  0  0  0  0  0  0  0
  131.9690   75.2300  227.8640 C   0  0  0  0  0  0  0  0  0  0  0  0
  132.9890   75.1460  226.9350 C   0  0  0  0  0  0  0  0  0  0  0  0
  133.3150   73.9310  226.4650 N   0  0  0  0  0  0  0  0  0  0  0  0
  136.5520   72.9640  224.2960 H   0  0  0  0  0  0  0  0  0  0  0  0
  136.1856   70.1817  224.7906 H   0  0  0  0  0  0  0  0  0  0  0  0
  135.4726   70.6291  223.1670 H   0  0  0  0  0  0  0  0  0  0  0  0
  137.5285   69.9288  220.5332 H   0  0  0  0  0  0  0  0  0  0  0  0
  139.2051   70.2252  221.0215 H   0  0  0  0  0  0  0  0  0  0  0  0
  138.4132   67.8767  219.9019 H   0  0  0  0  0  0  0  0  0  0  0  0
  139.7036   67.9016  221.0831 H   0  0  0  0  0  0  0  0  0  0  0  0
  136.6808   67.4112  221.5553 H   0  0  0  0  0  0  0  0  0  0  0  0
  137.9616   66.3607  222.0668 H   0  0  0  0  0  0  0  0  0  0  0  0
  137.0927   68.1554  223.8971 H   0  0  0  0  0  0  0  0  0  0  0  0
  139.1066   66.9469  224.2206 H   0  0  0  0  0  0  0  0  0  0  0  0
  139.9587   68.0622  223.0383 H   0  0  0  0  0  0  0  0  0  0  0  0
  138.5777   67.8188  226.4822 H   0  0  0  0  0  0  0  0  0  0  0  0
  139.2272   69.3941  228.2682 H   0  0  0  0  0  0  0  0  0  0  0  0
  141.2962   71.7859  225.3797 H   0  0  0  0  0  0  0  0  0  0  0  0
  140.6487   70.2149  223.6059 H   0  0  0  0  0  0  0  0  0  0  0  0
  135.7748   74.6839  224.3619 H   0  0  0  0  0  0  0  0  0  0  0  0
  135.2358   76.9613  225.1724 H   0  0  0  0  0  0  0  0  0  0  0  0
  133.8445   78.4126  226.6360 H   0  0  0  0  0  0  0  0  0  0  0  0
  130.8357   76.5751  229.0797 H   0  0  0  0  0  0  0  0  0  0  0  0
  131.4370   74.3321  228.2113 H   0  0  0  0  0  0  0  0  0  0  0  0
  1  2  2  0
  2  3  1  0
  3  4  1  0
  4  5  1  0
  5  6  2  0
  5  7  1  0
  7  8  1  0
  8  9  1  0
  9 10  1  0
 10 11  1  0
 11 12  1  0
 12 13  1  0
 13 14  2  0
 14 15  1  0
 15 16  2  0
 16 17  1  0
 16 18  1  0
 18 19  2  0
  2 20  1  0
 20 21  2  0
 21 22  1  0
 22 23  2  0
 23 24  1  0
 24 25  2  0
 25 26  1  0
 25 27  1  0
 27 28  2  0
 28 29  1  0
 29 30  2  0
 11  7  1  0
 19 13  1  0
 30 20  1  0
 29 23  1  0
  3 31  1  0
  4 32  1  0
  4 33  1  0
  8 34  1  0
  8 35  1  0
  9 36  1  0
  9 37  1  0
 10 38  1  0
 10 39  1  0
 11 40  1  1
 12 41  1  0
 12 42  1  0
 14 43  1  0
 15 44  1  0
 18 45  1  0
 19 46  1  0
 21 47  1  0
 22 48  1  0
 24 49  1  0
 27 50  1  0
 28 51  1  0
M  END
>  <smiles>  (43) 
O=C(NCC(=O)N1CCC[C@H]1Cc1ccc(Cl)cc1)c1ccc2cc(Cl)ccc2n1

>  <score_type>  (43) 
oracle

>  <origin>  (43) 
autodockgpu

>  <m_score__min__energy>  (43) 
-8.8200000000000003

>  <m_primary>  (43) 
energy

>  <rmsd>  (43) 
8.495284463417146

>  <m_score__min__rmsd>  (43) 
8.495284463417146

>  <meeko>  (43) 
{"free_energy": -7.79, "intermolecular_energy": -9.58, "internal_energy": -1.97, "cluster_size": 12, "cluster_id": 2, "rank_in_cluster": 9}

>  <energy>  (43) 
-8.25

>  <cluster_rmsd>  (43) 
0.0

>  <cluster>  (43) 
5

$$$$

     RDKit          3D

 51 54  0  0  0  0  0  0  0  0999 V2000
  133.6040   70.0980  226.4780 O   0  0  0  0  0  0  0  0  0  0  0  0
  133.7950   71.2260  225.9500 C   0  0  0  0  0  0  0  0  0  0  0  0
  134.5940   71.3800  224.7840 N   0  0  0  0  0  0  0  0  0  0  0  0
  135.1880   70.2170  224.2100 C   0  0  0  0  0  0  0  0  0  0  0  0
  136.2280   70.5140  223.2080 C   0  0  0  0  0  0  0  0  0  0  0  0
  136.4920   71.7270  222.9730 O   0  0  0  0  0  0  0  0  0  0  0  0
  136.8810   69.4350  222.5540 N   0  0  0  0  0  0  0  0  0  0  0  0
  136.7670   69.0530  221.1600 C   0  0  0  0  0  0  0  0  0  0  0  0
  137.6990   67.9040  220.9710 C   0  0  0  0  0  0  0  0  0  0  0  0
  137.7360   67.2690  222.3540 C   0  0  0  0  0  0  0  0  0  0  0  0
  137.8100   68.5060  223.2200 C   0  0  1  0  0  0  0  0  0  0  0  0
  139.2100   69.0350  223.2010 C   0  0  0  0  0  0  0  0  0  0  0  0
  139.6500   69.6560  224.4710 C   0  0  0  0  0  0  0  0  0  0  0  0
  139.4630   69.0820  225.7100 C   0  0  0  0  0  0  0  0  0  0  0  0
  139.8820   69.6930  226.8890 C   0  0  0  0  0  0  0  0  0  0  0  0
  140.5110   70.9190  226.8510 C   0  0  0  0  0  0  0  0  0  0  0  0
  141.0440   71.7020  228.3250 Cl  0  0  0  0  0  0  0  0  0  0  0  0
  140.7090   71.5140  225.6230 C   0  0  0  0  0  0  0  0  0  0  0  0
  140.2900   70.9000  224.4610 C   0  0  0  0  0  0  0  0  0  0  0  0
  133.1970   72.4410  226.5180 C   0  0  0  0  0  0  0  0  0  0  0  0
  132.0180   72.3870  227.2490 C   0  0  0  0  0  0  0  0  0  0  0  0
  131.4420   73.5280  227.7930 C   0  0  0  0  0  0  0  0  0  0  0  0
  132.0460   74.7540  227.6080 C   0  0  0  0  0  0  0  0  0  0  0  0
  131.5390   75.9330  228.1130 C   0  0  0  0  0  0  0  0  0  0  0  0
  132.1940   77.1440  227.8930 C   0  0  0  0  0  0  0  0  0  0  0  0
  131.5560   78.6560  228.5330 Cl  0  0  0  0  0  0  0  0  0  0  0  0
  133.3660   77.1310  227.1560 C   0  0  0  0  0  0  0  0  0  0  0  0
  133.9070   75.9740  226.6330 C   0  0  0  0  0  0  0  0  0  0  0  0
  133.2310   74.7910  226.8690 C   0  0  0  0  0  0  0  0  0  0  0  0
  133.7470   73.6590  226.3660 N   0  0  0  0  0  0  0  0  0  0  0  0
  134.7680   72.3080  224.3270 H   0  0  0  0  0  0  0  0  0  0  0  0
  135.6433   69.6253  225.0178 H   0  0  0  0  0  0  0  0  0  0  0  0
  134.3872   69.6715  223.6892 H   0  0  0  0  0  0  0  0  0  0  0  0
  135.7349   68.7498  220.9300 H   0  0  0  0  0  0  0  0  0  0  0  0
  137.0179   69.8895  220.4912 H   0  0  0  0  0  0  0  0  0  0  0  0
  137.3114   67.1985  220.2213 H   0  0  0  0  0  0  0  0  0  0  0  0
  138.6912   68.2040  220.6027 H   0  0  0  0  0  0  0  0  0  0  0  0
  136.8268   66.6841  222.5573 H   0  0  0  0  0  0  0  0  0  0  0  0
  138.5546   66.5506  222.5080 H   0  0  0  0  0  0  0  0  0  0  0  0
  137.5499   68.3372  224.2754 H   0  0  0  0  0  0  0  0  0  0  0  0
  139.8894   68.2004  222.9734 H   0  0  0  0  0  0  0  0  0  0  0  0
  139.2336   69.8292  222.4403 H   0  0  0  0  0  0  0  0  0  0  0  0
  138.9636   68.1037  225.7698 H   0  0  0  0  0  0  0  0  0  0  0  0
  139.7103   69.1952  227.8548 H   0  0  0  0  0  0  0  0  0  0  0  0
  141.2084   72.4926  225.5692 H   0  0  0  0  0  0  0  0  0  0  0  0
  140.4642   71.4032  223.4985 H   0  0  0  0  0  0  0  0  0  0  0  0
  131.5268   71.4147  227.4015 H   0  0  0  0  0  0  0  0  0  0  0  0
  130.5078   73.4540  228.3691 H   0  0  0  0  0  0  0  0  0  0  0  0
  130.6066   75.9177  228.6964 H   0  0  0  0  0  0  0  0  0  0  0  0
  133.8880   78.0831  226.9799 H   0  0  0  0  0  0  0  0  0  0  0  0
  134.8401   75.9922  226.0508 H   0  0  0  0  0  0  0  0  0  0  0  0
  1  2  2  0
  2  3  1  0
  3  4  1  0
  4  5  1  0
  5  6  2  0
  5  7  1  0
  7  8  1  0
  8  9  1  0
  9 10  1  0
 10 11  1  0
 11 12  1  0
 12 13  1  0
 13 14  2  0
 14 15  1  0
 15 16  2  0
 16 17  1  0
 16 18  1  0
 18 19  2  0
  2 20  1  0
 20 21  2  0
 21 22  1  0
 22 23  2  0
 23 24  1  0
 24 25  2  0
 25 26  1  0
 25 27  1  0
 27 28  2  0
 28 29  1  0
 29 30  2  0
 11  7  1  0
 19 13  1  0
 30 20  1  0
 29 23  1  0
  3 31  1  0
  4 32  1  0
  4 33  1  0
  8 34  1  0
  8 35  1  0
  9 36  1  0
  9 37  1  0
 10 38  1  0
 10 39  1  0
 11 40  1  1
 12 41  1  0
 12 42  1  0
 14 43  1  0
 15 44  1  0
 18 45  1  0
 19 46  1  0
 21 47  1  0
 22 48  1  0
 24 49  1  0
 27 50  1  0
 28 51  1  0
M  END
>  <smiles>  (44) 
O=C(NCC(=O)N1CCC[C@H]1Cc1ccc(Cl)cc1)c1ccc2cc(Cl)ccc2n1

>  <score_type>  (44) 
oracle

>  <origin>  (44) 
autodockgpu

>  <m_score__min__energy>  (44) 
-8.8200000000000003

>  <m_primary>  (44) 
energy

>  <rmsd>  (44) 
8.723166261381717

>  <m_score__min__rmsd>  (44) 
8.723166261381717

>  <meeko>  (44) 
{"free_energy": -7.94, "intermolecular_energy": -9.73, "internal_energy": -2.03, "cluster_size": 12, "cluster_id": 2, "rank_in_cluster": 4}

>  <energy>  (44) 
-8.18

>  <cluster_rmsd>  (44) 
1.99

>  <cluster>  (44) 
5

$$$$

     RDKit          3D

 51 54  0  0  0  0  0  0  0  0999 V2000
  137.6100   71.3470  221.0390 O   0  0  0  0  0  0  0  0  0  0  0  0
  138.1100   71.8520  222.0790 C   0  0  0  0  0  0  0  0  0  0  0  0
  138.2400   73.2590  222.2390 N   0  0  0  0  0  0  0  0  0  0  0  0
  137.7870   74.1060  221.1830 C   0  0  0  0  0  0  0  0  0  0  0  0
  138.5490   73.9530  219.9300 C   0  0  0  0  0  0  0  0  0  0  0  0
  137.9350   74.1260  218.8400 O   0  0  0  0  0  0  0  0  0  0  0  0
  139.9280   73.6180  220.0010 N   0  0  0  0  0  0  0  0  0  0  0  0
  140.6160   72.5660  219.2770 C   0  0  0  0  0  0  0  0  0  0  0  0
  142.0540   72.6780  219.6580 C   0  0  0  0  0  0  0  0  0  0  0  0
  141.9870   73.2800  221.0550 C   0  0  0  0  0  0  0  0  0  0  0  0
  140.9050   74.3170  220.8530 C   0  0  1  0  0  0  0  0  0  0  0  0
  141.4870   75.5020  220.1470 C   0  0  0  0  0  0  0  0  0  0  0  0
  141.4660   76.7570  220.9340 C   0  0  0  0  0  0  0  0  0  0  0  0
  141.8550   77.9820  220.4340 C   0  0  0  0  0  0  0  0  0  0  0  0
  141.8310   79.1440  221.1990 C   0  0  0  0  0  0  0  0  0  0  0  0
  141.4080   79.1040  222.5110 C   0  0  0  0  0  0  0  0  0  0  0  0
  141.3710   80.5570  223.4880 Cl  0  0  0  0  0  0  0  0  0  0  0  0
  141.0130   77.8910  223.0340 C   0  0  0  0  0  0  0  0  0  0  0  0
  141.0420   76.7440  222.2660 C   0  0  0  0  0  0  0  0  0  0  0  0
  138.5840   71.0060  223.1820 C   0  0  0  0  0  0  0  0  0  0  0  0
  138.3350   69.6410  223.1990 C   0  0  0  0  0  0  0  0  0  0  0  0
  138.7790   68.8290  224.2350 C   0  0  0  0  0  0  0  0  0  0  0  0
  139.4870   69.3820  225.2810 C   0  0  0  0  0  0  0  0  0  0  0  0
  139.9620   68.6460  226.3480 C   0  0  0  0  0  0  0  0  0  0  0  0
  140.6720   69.2610  227.3780 C   0  0  0  0  0  0  0  0  0  0  0  0
  141.2830   68.3320  228.7440 Cl  0  0  0  0  0  0  0  0  0  0  0  0
  140.8880   70.6260  227.3030 C   0  0  0  0  0  0  0  0  0  0  0  0
  140.4310   71.3980  226.2540 C   0  0  0  0  0  0  0  0  0  0  0  0
  139.7290   70.7570  225.2500 C   0  0  0  0  0  0  0  0  0  0  0  0
  139.2790   71.4960  224.2240 N   0  0  0  0  0  0  0  0  0  0  0  0
  138.6530   73.7030  223.0940 H   0  0  0  0  0  0  0  0  0  0  0  0
  136.7320   73.8713  220.9783 H   0  0  0  0  0  0  0  0  0  0  0  0
  137.9294   75.1433  221.5203 H   0  0  0  0  0  0  0  0  0  0  0  0
  140.2197   71.5812  219.5653 H   0  0  0  0  0  0  0  0  0  0  0  0
  140.4778   72.6675  218.1904 H   0  0  0  0  0  0  0  0  0  0  0  0
  142.5375   71.6901  219.6751 H   0  0  0  0  0  0  0  0  0  0  0  0
  142.6458   73.2796  218.9525 H   0  0  0  0  0  0  0  0  0  0  0  0
  141.6973   72.5313  221.8070 H   0  0  0  0  0  0  0  0  0  0  0  0
  142.9412   73.6784  221.4301 H   0  0  0  0  0  0  0  0  0  0  0  0
  140.4567   74.6920  221.7849 H   0  0  0  0  0  0  0  0  0  0  0  0
  142.5327   75.2722  219.8946 H   0  0  0  0  0  0  0  0  0  0  0  0
  140.8594   75.6777  219.2609 H   0  0  0  0  0  0  0  0  0  0  0  0
  142.1974   78.0428  219.3904 H   0  0  0  0  0  0  0  0  0  0  0  0
  142.1507   80.0985  220.7555 H   0  0  0  0  0  0  0  0  0  0  0  0
  140.6700   77.8363  224.0777 H   0  0  0  0  0  0  0  0  0  0  0  0
  140.7222   75.7923  222.7153 H   0  0  0  0  0  0  0  0  0  0  0  0
  137.7707   69.1897  222.3696 H   0  0  0  0  0  0  0  0  0  0  0  0
  138.5667   67.7498  224.2209 H   0  0  0  0  0  0  0  0  0  0  0  0
  139.7782   67.5621  226.3858 H   0  0  0  0  0  0  0  0  0  0  0  0
  141.4474   71.1163  228.1134 H   0  0  0  0  0  0  0  0  0  0  0  0
  140.6181   72.4814  226.2182 H   0  0  0  0  0  0  0  0  0  0  0  0
  1  2  2  0
  2  3  1  0
  3  4  1  0
  4  5  1  0
  5  6  2  0
  5  7  1  0
  7  8  1  0
  8  9  1  0
  9 10  1  0
 10 11  1  0
 11 12  1  0
 12 13  1  0
 13 14  2  0
 14 15  1  0
 15 16  2  0
 16 17  1  0
 16 18  1  0
 18 19  2  0
  2 20  1  0
 20 21  2  0
 21 22  1  0
 22 23  2  0
 23 24  1  0
 24 25  2  0
 25 26  1  0
 25 27  1  0
 27 28  2  0
 28 29  1  0
 29 30  2  0
 11  7  1  0
 19 13  1  0
 30 20  1  0
 29 23  1  0
  3 31  1  0
  4 32  1  0
  4 33  1  0
  8 34  1  0
  8 35  1  0
  9 36  1  0
  9 37  1  0
 10 38  1  0
 10 39  1  0
 11 40  1  1
 12 41  1  0
 12 42  1  0
 14 43  1  0
 15 44  1  0
 18 45  1  0
 19 46  1  0
 21 47  1  0
 22 48  1  0
 24 49  1  0
 27 50  1  0
 28 51  1  0
M  END
>  <smiles>  (45) 
O=C(NCC(=O)N1CCC[C@H]1Cc1ccc(Cl)cc1)c1ccc2cc(Cl)ccc2n1

>  <score_type>  (45) 
oracle

>  <origin>  (45) 
autodockgpu

>  <m_score__min__energy>  (45) 
-8.8200000000000003

>  <m_primary>  (45) 
energy

>  <rmsd>  (45) 
2.5134556270193222

>  <m_score__min__rmsd>  (45) 
2.5134556270193222

>  <meeko>  (45) 
{"free_energy": -7.59, "intermolecular_energy": -9.38, "internal_energy": -1.98, "cluster_size": 13, "cluster_id": 1, "rank_in_cluster": 12}

>  <energy>  (45) 
-7.94

>  <cluster_rmsd>  (45) 
1.43

>  <cluster>  (45) 
5

$$$$

     RDKit          3D

 51 54  0  0  0  0  0  0  0  0999 V2000
  140.4770   70.8710  221.7340 O   0  0  0  0  0  0  0  0  0  0  0  0
  140.5790   71.9840  222.3150 C   0  0  0  0  0  0  0  0  0  0  0  0
  140.4800   72.1000  223.7290 N   0  0  0  0  0  0  0  0  0  0  0  0
  140.2600   70.9140  224.4930 C   0  0  0  0  0  0  0  0  0  0  0  0
  140.5020   71.0860  225.9380 C   0  0  0  0  0  0  0  0  0  0  0  0
  140.6960   72.2570  226.3690 O   0  0  0  0  0  0  0  0  0  0  0  0
  140.5080   69.9380  226.7750 N   0  0  0  0  0  0  0  0  0  0  0  0
  140.5590   69.9060  228.2240 C   0  0  0  0  0  0  0  0  0  0  0  0
  140.4780   68.4670  228.6070 C   0  0  0  0  0  0  0  0  0  0  0  0
  141.0900   67.7630  227.4040 C   0  0  0  0  0  0  0  0  0  0  0  0
  140.4610   68.5520  226.2780 C   0  0  1  0  0  0  0  0  0  0  0  0
  139.0490   68.0950  226.0860 C   0  0  0  0  0  0  0  0  0  0  0  0
  138.3970   68.6100  224.8610 C   0  0  0  0  0  0  0  0  0  0  0  0
  138.7260   68.2020  223.5860 C   0  0  0  0  0  0  0  0  0  0  0  0
  138.1000   68.7090  222.4520 C   0  0  0  0  0  0  0  0  0  0  0  0
  137.1060   69.6580  222.5720 C   0  0  0  0  0  0  0  0  0  0  0  0
  136.3070   70.3070  221.1550 Cl  0  0  0  0  0  0  0  0  0  0  0  0
  136.7580   70.0820  223.8370 C   0  0  0  0  0  0  0  0  0  0  0  0
  137.3860   69.5730  224.9540 C   0  0  0  0  0  0  0  0  0  0  0  0
  140.8060   73.2200  221.5570 C   0  0  0  0  0  0  0  0  0  0  0  0
  141.1740   73.1850  220.2190 C   0  0  0  0  0  0  0  0  0  0  0  0
  141.3910   74.3470  219.4890 C   0  0  0  0  0  0  0  0  0  0  0  0
  141.2400   75.5750  220.0970 C   0  0  0  0  0  0  0  0  0  0  0  0
  141.4370   76.7740  219.4440 C   0  0  0  0  0  0  0  0  0  0  0  0
  141.2700   77.9860  220.1120 C   0  0  0  0  0  0  0  0  0  0  0  0
  141.5190   79.5230  219.2880 Cl  0  0  0  0  0  0  0  0  0  0  0  0
  140.9020   77.9550  221.4460 C   0  0  0  0  0  0  0  0  0  0  0  0
  140.6940   76.7770  222.1360 C   0  0  0  0  0  0  0  0  0  0  0  0
  140.8700   75.5930  221.4440 C   0  0  0  0  0  0  0  0  0  0  0  0
  140.6720   74.4420  222.1040 N   0  0  0  0  0  0  0  0  0  0  0  0
  140.5600   73.0140  224.2370 H   0  0  0  0  0  0  0  0  0  0  0  0
  139.2160   70.5981  224.3509 H   0  0  0  0  0  0  0  0  0  0  0  0
  140.9785   70.1624  224.1340 H   0  0  0  0  0  0  0  0  0  0  0  0
  141.5018   70.3445  228.5829 H   0  0  0  0  0  0  0  0  0  0  0  0
  139.7383   70.4879  228.6688 H   0  0  0  0  0  0  0  0  0  0  0  0
  141.0574   68.2668  229.5203 H   0  0  0  0  0  0  0  0  0  0  0  0
  139.4544   68.1333  228.8327 H   0  0  0  0  0  0  0  0  0  0  0  0
  142.1867   67.8484  227.3973 H   0  0  0  0  0  0  0  0  0  0  0  0
  140.9074   66.6790  227.3637 H   0  0  0  0  0  0  0  0  0  0  0  0
  140.9654   68.4364  225.3073 H   0  0  0  0  0  0  0  0  0  0  0  0
  139.0471   66.9960  226.0398 H   0  0  0  0  0  0  0  0  0  0  0  0
  138.4742   68.4915  226.9359 H   0  0  0  0  0  0  0  0  0  0  0  0
  139.5147   67.4456  223.4604 H   0  0  0  0  0  0  0  0  0  0  0  0
  138.3988   68.3518  221.4555 H   0  0  0  0  0  0  0  0  0  0  0  0
  135.9676   70.8376  223.9569 H   0  0  0  0  0  0  0  0  0  0  0  0
  137.0833   69.9347  225.9478 H   0  0  0  0  0  0  0  0  0  0  0  0
  141.2971   72.2108  219.7232 H   0  0  0  0  0  0  0  0  0  0  0  0
  141.6822   74.2874  218.4299 H   0  0  0  0  0  0  0  0  0  0  0  0
  141.7293   76.7737  218.3836 H   0  0  0  0  0  0  0  0  0  0  0  0
  140.7697   78.9083  221.9786 H   0  0  0  0  0  0  0  0  0  0  0  0
  140.3995   76.7805  223.1958 H   0  0  0  0  0  0  0  0  0  0  0  0
  1  2  2  0
  2  3  1  0
  3  4  1  0
  4  5  1  0
  5  6  2  0
  5  7  1  0
  7  8  1  0
  8  9  1  0
  9 10  1  0
 10 11  1  0
 11 12  1  0
 12 13  1  0
 13 14  2  0
 14 15  1  0
 15 16  2  0
 16 17  1  0
 16 18  1  0
 18 19  2  0
  2 20  1  0
 20 21  2  0
 21 22  1  0
 22 23  2  0
 23 24  1  0
 24 25  2  0
 25 26  1  0
 25 27  1  0
 27 28  2  0
 28 29  1  0
 29 30  2  0
 11  7  1  0
 19 13  1  0
 30 20  1  0
 29 23  1  0
  3 31  1  0
  4 32  1  0
  4 33  1  0
  8 34  1  0
  8 35  1  0
  9 36  1  0
  9 37  1  0
 10 38  1  0
 10 39  1  0
 11 40  1  6
 12 41  1  0
 12 42  1  0
 14 43  1  0
 15 44  1  0
 18 45  1  0
 19 46  1  0
 21 47  1  0
 22 48  1  0
 24 49  1  0
 27 50  1  0
 28 51  1  0
M  END
>  <smiles>  (46) 
O=C(NCC(=O)N1CCC[C@H]1Cc1ccc(Cl)cc1)c1ccc2cc(Cl)ccc2n1

>  <score_type>  (46) 
oracle

>  <origin>  (46) 
autodockgpu

>  <m_score__min__energy>  (46) 
-8.8200000000000003

>  <m_primary>  (46) 
energy

>  <rmsd>  (46) 
9.033302556840088

>  <m_score__min__rmsd>  (46) 
9.033302556840088

>  <meeko>  (46) 
{"free_energy": -7.32, "intermolecular_energy": -9.11, "internal_energy": -2.44, "cluster_size": 1, "cluster_id": 7, "rank_in_cluster": 1}

>  <energy>  (46) 
-7.93

>  <cluster_rmsd>  (46) 
1.35

>  <cluster>  (46) 
5

$$$$

     RDKit          3D

 51 54  0  0  0  0  0  0  0  0999 V2000
  133.7910   69.8950  226.2860 O   0  0  0  0  0  0  0  0  0  0  0  0
  134.1350   71.0620  225.9560 C   0  0  0  0  0  0  0  0  0  0  0  0
  135.2160   71.2980  225.0630 N   0  0  0  0  0  0  0  0  0  0  0  0
  135.9180   70.1730  224.5360 C   0  0  0  0  0  0  0  0  0  0  0  0
  137.1930   70.5220  223.8810 C   0  0  0  0  0  0  0  0  0  0  0  0
  137.7190   71.6340  224.1680 O   0  0  0  0  0  0  0  0  0  0  0  0
  137.7690   69.6040  222.9630 N   0  0  0  0  0  0  0  0  0  0  0  0
  138.3270   69.8980  221.6570 C   0  0  0  0  0  0  0  0  0  0  0  0
  138.8540   68.6050  221.1340 C   0  0  0  0  0  0  0  0  0  0  0  0
  137.9600   67.5770  221.8140 C   0  0  0  0  0  0  0  0  0  0  0  0
  137.8910   68.1570  223.2090 C   0  0  1  0  0  0  0  0  0  0  0  0
  139.1600   67.8370  223.9360 C   0  0  0  0  0  0  0  0  0  0  0  0
  139.5710   68.8540  224.9310 C   0  0  0  0  0  0  0  0  0  0  0  0
  140.2790   69.9940  224.6150 C   0  0  0  0  0  0  0  0  0  0  0  0
  140.6570   70.9300  225.5730 C   0  0  0  0  0  0  0  0  0  0  0  0
  140.3270   70.7410  226.8980 C   0  0  0  0  0  0  0  0  0  0  0  0
  140.7950   71.9090  228.1160 Cl  0  0  0  0  0  0  0  0  0  0  0  0
  139.6180   69.6090  227.2390 C   0  0  0  0  0  0  0  0  0  0  0  0
  139.2490   68.6870  226.2820 C   0  0  0  0  0  0  0  0  0  0  0  0
  133.4310   72.2380  226.4810 C   0  0  0  0  0  0  0  0  0  0  0  0
  132.2330   72.1110  227.1710 C   0  0  0  0  0  0  0  0  0  0  0  0
  131.5570   73.2150  227.6740 C   0  0  0  0  0  0  0  0  0  0  0  0
  132.0800   74.4780  227.4900 C   0  0  0  0  0  0  0  0  0  0  0  0
  131.4710   75.6250  227.9570 C   0  0  0  0  0  0  0  0  0  0  0  0
  132.0460   76.8760  227.7410 C   0  0  0  0  0  0  0  0  0  0  0  0
  131.2790   78.3470  228.3320 Cl  0  0  0  0  0  0  0  0  0  0  0  0
  133.2420   76.9370  227.0460 C   0  0  0  0  0  0  0  0  0  0  0  0
  133.8840   75.8140  226.5630 C   0  0  0  0  0  0  0  0  0  0  0  0
  133.2850   74.5900  226.7940 C   0  0  0  0  0  0  0  0  0  0  0  0
  133.8990   73.4900  226.3290 N   0  0  0  0  0  0  0  0  0  0  0  0
  135.5220   72.2580  224.7730 H   0  0  0  0  0  0  0  0  0  0  0  0
  136.1309   69.4786  225.3621 H   0  0  0  0  0  0  0  0  0  0  0  0
  135.2735   69.7246  223.7656 H   0  0  0  0  0  0  0  0  0  0  0  0
  137.5473   70.2914  220.9881 H   0  0  0  0  0  0  0  0  0  0  0  0
  139.1183   70.6596  221.7194 H   0  0  0  0  0  0  0  0  0  0  0  0
  138.7579   68.5516  220.0395 H   0  0  0  0  0  0  0  0  0  0  0  0
  139.9242   68.4556  221.3398 H   0  0  0  0  0  0  0  0  0  0  0  0
  136.9665   67.5279  221.3443 H   0  0  0  0  0  0  0  0  0  0  0  0
  138.3291   66.5420  221.7641 H   0  0  0  0  0  0  0  0  0  0  0  0
  137.0668   67.7652  223.8231 H   0  0  0  0  0  0  0  0  0  0  0  0
  139.0238   66.8793  224.4598 H   0  0  0  0  0  0  0  0  0  0  0  0
  139.9553   67.8028  223.1769 H   0  0  0  0  0  0  0  0  0  0  0  0
  140.5558   70.1706  223.5651 H   0  0  0  0  0  0  0  0  0  0  0  0
  141.2216   71.8246  225.2716 H   0  0  0  0  0  0  0  0  0  0  0  0
  139.3424   69.4385  228.2902 H   0  0  0  0  0  0  0  0  0  0  0  0
  138.6850   67.7942  226.5901 H   0  0  0  0  0  0  0  0  0  0  0  0
  131.8074   71.1082  227.3235 H   0  0  0  0  0  0  0  0  0  0  0  0
  130.6092   73.0828  228.2164 H   0  0  0  0  0  0  0  0  0  0  0  0
  130.5207   75.5510  228.5061 H   0  0  0  0  0  0  0  0  0  0  0  0
  133.7001   77.9217  226.8713 H   0  0  0  0  0  0  0  0  0  0  0  0
  134.8351   75.8905  226.0157 H   0  0  0  0  0  0  0  0  0  0  0  0
  1  2  2  0
  2  3  1  0
  3  4  1  0
  4  5  1  0
  5  6  2  0
  5  7  1  0
  7  8  1  0
  8  9  1  0
  9 10  1  0
 10 11  1  0
 11 12  1  0
 12 13  1  0
 13 14  2  0
 14 15  1  0
 15 16  2  0
 16 17  1  0
 16 18  1  0
 18 19  2  0
  2 20  1  0
 20 21  2  0
 21 22  1  0
 22 23  2  0
 23 24  1  0
 24 25  2  0
 25 26  1  0
 25 27  1  0
 27 28  2  0
 28 29  1  0
 29 30  2  0
 11  7  1  0
 19 13  1  0
 30 20  1  0
 29 23  1  0
  3 31  1  0
  4 32  1  0
  4 33  1  0
  8 34  1  0
  8 35  1  0
  9 36  1  0
  9 37  1  0
 10 38  1  0
 10 39  1  0
 11 40  1  1
 12 41  1  0
 12 42  1  0
 14 43  1  0
 15 44  1  0
 18 45  1  0
 19 46  1  0
 21 47  1  0
 22 48  1  0
 24 49  1  0
 27 50  1  0
 28 51  1  0
M  END
>  <smiles>  (47) 
O=C(NCC(=O)N1CCC[C@H]1Cc1ccc(Cl)cc1)c1ccc2cc(Cl)ccc2n1

>  <score_type>  (47) 
oracle

>  <origin>  (47) 
autodockgpu

>  <m_score__min__energy>  (47) 
-8.8200000000000003

>  <m_primary>  (47) 
energy

>  <rmsd>  (47) 
8.463224265822497

>  <m_score__min__rmsd>  (47) 
8.463224265822497

>  <meeko>  (47) 
{"free_energy": -7.82, "intermolecular_energy": -9.61, "internal_energy": -2.14, "cluster_size": 12, "cluster_id": 2, "rank_in_cluster": 6}

>  <energy>  (47) 
-7.71

>  <cluster_rmsd>  (47) 
0.0

>  <cluster>  (47) 
6

$$$$

     RDKit          3D

 51 54  0  0  0  0  0  0  0  0999 V2000
  133.8090   71.4350  225.2580 O   0  0  0  0  0  0  0  0  0  0  0  0
  134.6120   72.3930  225.0980 C   0  0  0  0  0  0  0  0  0  0  0  0
  135.8670   72.2160  224.4530 N   0  0  0  0  0  0  0  0  0  0  0  0
  136.2090   70.9140  223.9810 C   0  0  0  0  0  0  0  0  0  0  0  0
  137.5000   70.8600  223.2710 C   0  0  0  0  0  0  0  0  0  0  0  0
  138.2450   71.8800  223.3200 O   0  0  0  0  0  0  0  0  0  0  0  0
  137.8490   69.6770  222.5660 N   0  0  0  0  0  0  0  0  0  0  0  0
  138.2520   69.5660  221.1770 C   0  0  0  0  0  0  0  0  0  0  0  0
  138.5670   68.1260  220.9540 C   0  0  0  0  0  0  0  0  0  0  0  0
  137.6740   67.4240  221.9670 C   0  0  0  0  0  0  0  0  0  0  0  0
  137.8550   68.3310  223.1640 C   0  0  1  0  0  0  0  0  0  0  0  0
  139.1720   68.0330  223.8100 C   0  0  0  0  0  0  0  0  0  0  0  0
  139.5720   68.9950  224.8630 C   0  0  0  0  0  0  0  0  0  0  0  0
  140.2980   70.1400  224.6190 C   0  0  0  0  0  0  0  0  0  0  0  0
  140.6660   71.0240  225.6290 C   0  0  0  0  0  0  0  0  0  0  0  0
  140.3050   70.7740  226.9370 C   0  0  0  0  0  0  0  0  0  0  0  0
  140.7580   71.8750  228.2210 Cl  0  0  0  0  0  0  0  0  0  0  0  0
  139.5770   69.6340  227.2060 C   0  0  0  0  0  0  0  0  0  0  0  0
  139.2190   68.7650  226.1970 C   0  0  0  0  0  0  0  0  0  0  0  0
  134.2870   73.7440  225.5720 C   0  0  0  0  0  0  0  0  0  0  0  0
  134.9740   74.8550  225.1020 C   0  0  0  0  0  0  0  0  0  0  0  0
  134.6760   76.1390  225.5410 C   0  0  0  0  0  0  0  0  0  0  0  0
  133.6740   76.3280  226.4700 C   0  0  0  0  0  0  0  0  0  0  0  0
  133.3170   77.5690  226.9570 C   0  0  0  0  0  0  0  0  0  0  0  0
  132.2950   77.6990  227.8960 C   0  0  0  0  0  0  0  0  0  0  0  0
  131.8310   79.2780  228.5250 Cl  0  0  0  0  0  0  0  0  0  0  0  0
  131.6490   76.5540  228.3260 C   0  0  0  0  0  0  0  0  0  0  0  0
  131.9740   75.2940  227.8630 C   0  0  0  0  0  0  0  0  0  0  0  0
  132.9930   75.2010  226.9330 C   0  0  0  0  0  0  0  0  0  0  0  0
  133.3200   73.9820  226.4760 N   0  0  0  0  0  0  0  0  0  0  0  0
  136.5520   72.9970  224.3070 H   0  0  0  0  0  0  0  0  0  0  0  0
  136.2589   70.2339  224.8442 H   0  0  0  0  0  0  0  0  0  0  0  0
  135.4330   70.6203  223.2588 H   0  0  0  0  0  0  0  0  0  0  0  0
  137.4335   69.8851  220.5150 H   0  0  0  0  0  0  0  0  0  0  0  0
  139.1186   70.2067  220.9566 H   0  0  0  0  0  0  0  0  0  0  0  0
  138.3176   67.8204  219.9272 H   0  0  0  0  0  0  0  0  0  0  0  0
  139.6343   67.8898  221.0772 H   0  0  0  0  0  0  0  0  0  0  0  0
  136.6261   67.3946  221.6338 H   0  0  0  0  0  0  0  0  0  0  0  0
  137.9254   66.3685  222.1478 H   0  0  0  0  0  0  0  0  0  0  0  0
  137.0865   68.2139  223.9423 H   0  0  0  0  0  0  0  0  0  0  0  0
  139.1137   67.0324  224.2632 H   0  0  0  0  0  0  0  0  0  0  0  0
  139.9318   68.1031  223.0176 H   0  0  0  0  0  0  0  0  0  0  0  0
  140.5988   70.3645  223.5850 H   0  0  0  0  0  0  0  0  0  0  0  0
  141.2468   71.9253  225.3836 H   0  0  0  0  0  0  0  0  0  0  0  0
  139.2773   69.4146  228.2414 H   0  0  0  0  0  0  0  0  0  0  0  0
  138.6390   67.8648  226.4483 H   0  0  0  0  0  0  0  0  0  0  0  0
  135.7759   74.7149  224.3621 H   0  0  0  0  0  0  0  0  0  0  0  0
  135.2364   77.0008  225.1496 H   0  0  0  0  0  0  0  0  0  0  0  0
  133.8449   78.4657  226.6002 H   0  0  0  0  0  0  0  0  0  0  0  0
  130.8426   76.6510  229.0678 H   0  0  0  0  0  0  0  0  0  0  0  0
  131.4429   74.3994  228.2202 H   0  0  0  0  0  0  0  0  0  0  0  0
  1  2  2  0
  2  3  1  0
  3  4  1  0
  4  5  1  0
  5  6  2  0
  5  7  1  0
  7  8  1  0
  8  9  1  0
  9 10  1  0
 10 11  1  0
 11 12  1  0
 12 13  1  0
 13 14  2  0
 14 15  1  0
 15 16  2  0
 16 17  1  0
 16 18  1  0
 18 19  2  0
  2 20  1  0
 20 21  2  0
 21 22  1  0
 22 23  2  0
 23 24  1  0
 24 25  2  0
 25 26  1  0
 25 27  1  0
 27 28  2  0
 28 29  1  0
 29 30  2  0
 11  7  1  0
 19 13  1  0
 30 20  1  0
 29 23  1  0
  3 31  1  0
  4 32  1  0
  4 33  1  0
  8 34  1  0
  8 35  1  0
  9 36  1  0
  9 37  1  0
 10 38  1  0
 10 39  1  0
 11 40  1  1
 12 41  1  0
 12 42  1  0
 14 43  1  0
 15 44  1  0
 18 45  1  0
 19 46  1  0
 21 47  1  0
 22 48  1  0
 24 49  1  0
 27 50  1  0
 28 51  1  0
M  END
>  <smiles>  (48) 
O=C(NCC(=O)N1CCC[C@H]1Cc1ccc(Cl)cc1)c1ccc2cc(Cl)ccc2n1

>  <score_type>  (48) 
oracle

>  <origin>  (48) 
autodockgpu

>  <m_score__min__energy>  (48) 
-8.8200000000000003

>  <m_primary>  (48) 
energy

>  <rmsd>  (48) 
8.515150509958099

>  <m_score__min__rmsd>  (48) 
8.515150509958099

>  <meeko>  (48) 
{"free_energy": -7.8, "intermolecular_energy": -9.59, "internal_energy": -1.98, "cluster_size": 12, "cluster_id": 2, "rank_in_cluster": 8}

>  <energy>  (48) 
-7.48

>  <cluster_rmsd>  (48) 
1.62

>  <cluster>  (48) 
6

$$$$

     RDKit          3D

 51 54  0  0  0  0  0  0  0  0999 V2000
  139.7760   72.7980  220.6480 O   0  0  0  0  0  0  0  0  0  0  0  0
  139.7190   73.0720  221.8760 C   0  0  0  0  0  0  0  0  0  0  0  0
  139.5450   74.4060  222.3370 N   0  0  0  0  0  0  0  0  0  0  0  0
  139.4360   75.4490  221.3690 C   0  0  0  0  0  0  0  0  0  0  0  0
  139.1190   76.7670  221.9500 C   0  0  0  0  0  0  0  0  0  0  0  0
  137.9330   76.9730  222.3360 O   0  0  0  0  0  0  0  0  0  0  0  0
  140.1480   77.7410  222.0480 N   0  0  0  0  0  0  0  0  0  0  0  0
  141.3880   77.7900  221.2980 C   0  0  0  0  0  0  0  0  0  0  0  0
  142.0810   79.0370  221.7300 C   0  0  0  0  0  0  0  0  0  0  0  0
  141.5710   79.2320  223.1510 C   0  0  0  0  0  0  0  0  0  0  0  0
  140.1090   78.8940  222.9640 C   0  0  1  0  0  0  0  0  0  0  0  0
  139.4120   80.0600  222.3360 C   0  0  0  0  0  0  0  0  0  0  0  0
  138.5240   80.8110  223.2520 C   0  0  0  0  0  0  0  0  0  0  0  0
  137.7860   81.9120  222.8730 C   0  0  0  0  0  0  0  0  0  0  0  0
  136.9640   82.6030  223.7580 C   0  0  0  0  0  0  0  0  0  0  0  0
  136.8600   82.1970  225.0720 C   0  0  0  0  0  0  0  0  0  0  0  0
  135.8300   83.0550  226.1990 Cl  0  0  0  0  0  0  0  0  0  0  0  0
  137.5880   81.0980  225.4750 C   0  0  0  0  0  0  0  0  0  0  0  0
  138.4010   80.4210  224.5890 C   0  0  0  0  0  0  0  0  0  0  0  0
  139.8280   72.0200  222.8950 C   0  0  0  0  0  0  0  0  0  0  0  0
  139.4450   70.7140  222.6230 C   0  0  0  0  0  0  0  0  0  0  0  0
  139.5440   69.7090  223.5770 C   0  0  0  0  0  0  0  0  0  0  0  0
  140.0340   70.0040  224.8320 C   0  0  0  0  0  0  0  0  0  0  0  0
  140.1630   69.0650  225.8350 C   0  0  0  0  0  0  0  0  0  0  0  0
  140.6640   69.4230  227.0860 C   0  0  0  0  0  0  0  0  0  0  0  0
  140.8340   68.2330  228.3740 Cl  0  0  0  0  0  0  0  0  0  0  0  0
  141.0280   70.7420  227.2950 C   0  0  0  0  0  0  0  0  0  0  0  0
  140.9150   71.7110  226.3190 C   0  0  0  0  0  0  0  0  0  0  0  0
  140.4130   71.3230  225.0900 C   0  0  0  0  0  0  0  0  0  0  0  0
  140.2980   72.2560  224.1330 N   0  0  0  0  0  0  0  0  0  0  0  0
  139.4950   74.6600  223.3530 H   0  0  0  0  0  0  0  0  0  0  0  0
  140.3936   75.5270  220.8333 H   0  0  0  0  0  0  0  0  0  0  0  0
  138.6024   75.1828  220.7025 H   0  0  0  0  0  0  0  0  0  0  0  0
  142.0075   76.9100  221.5259 H   0  0  0  0  0  0  0  0  0  0  0  0
  141.2032   77.7870  220.2136 H   0  0  0  0  0  0  0  0  0  0  0  0
  143.1734   78.9085  221.7153 H   0  0  0  0  0  0  0  0  0  0  0  0
  141.8799   79.8965  221.0736 H   0  0  0  0  0  0  0  0  0  0  0  0
  142.0603   78.5445  223.8566 H   0  0  0  0  0  0  0  0  0  0  0  0
  141.7618   80.2288  223.5752 H   0  0  0  0  0  0  0  0  0  0  0  0
  139.5723   78.6703  223.8977 H   0  0  0  0  0  0  0  0  0  0  0  0
  140.1768   80.7525  221.9545 H   0  0  0  0  0  0  0  0  0  0  0  0
  138.7689   79.6500  221.5434 H   0  0  0  0  0  0  0  0  0  0  0  0
  137.8494   82.2577  221.8306 H   0  0  0  0  0  0  0  0  0  0  0  0
  136.3947   83.4768  223.4081 H   0  0  0  0  0  0  0  0  0  0  0  0
  137.5199   80.7556  226.5182 H   0  0  0  0  0  0  0  0  0  0  0  0
  138.9690   79.5489  224.9451 H   0  0  0  0  0  0  0  0  0  0  0  0
  139.0525   70.4681  221.6253 H   0  0  0  0  0  0  0  0  0  0  0  0
  139.2330   68.6826  223.3325 H   0  0  0  0  0  0  0  0  0  0  0  0
  139.8673   68.0226  225.6455 H   0  0  0  0  0  0  0  0  0  0  0  0
  141.4238   71.0298  228.2801 H   0  0  0  0  0  0  0  0  0  0  0  0
  141.2128   72.7523  226.5111 H   0  0  0  0  0  0  0  0  0  0  0  0
  1  2  2  0
  2  3  1  0
  3  4  1  0
  4  5  1  0
  5  6  2  0
  5  7  1  0
  7  8  1  0
  8  9  1  0
  9 10  1  0
 10 11  1  0
 11 12  1  0
 12 13  1  0
 13 14  2  0
 14 15  1  0
 15 16  2  0
 16 17  1  0
 16 18  1  0
 18 19  2  0
  2 20  1  0
 20 21  2  0
 21 22  1  0
 22 23  2  0
 23 24  1  0
 24 25  2  0
 25 26  1  0
 25 27  1  0
 27 28  2  0
 28 29  1  0
 29 30  2  0
 11  7  1  0
 19 13  1  0
 30 20  1  0
 29 23  1  0
  3 31  1  0
  4 32  1  0
  4 33  1  0
  8 34  1  0
  8 35  1  0
  9 36  1  0
  9 37  1  0
 10 38  1  0
 10 39  1  0
 11 40  1  1
 12 41  1  0
 12 42  1  0
 14 43  1  0
 15 44  1  0
 18 45  1  0
 19 46  1  0
 21 47  1  0
 22 48  1  0
 24 49  1  0
 27 50  1  0
 28 51  1  0
M  END
>  <smiles>  (49) 
O=C(NCC(=O)N1CCC[C@H]1Cc1ccc(Cl)cc1)c1ccc2cc(Cl)ccc2n1

>  <score_type>  (49) 
oracle

>  <origin>  (49) 
autodockgpu

>  <m_score__min__energy>  (49) 
-8.8200000000000003

>  <m_primary>  (49) 
energy

>  <rmsd>  (49) 
3.1976484238396843

>  <m_score__min__rmsd>  (49) 
3.1976484238396843

>  <meeko>  (49) 
{"free_energy": -8.44, "intermolecular_energy": -10.23, "internal_energy": -1.42, "cluster_size": 3, "cluster_id": 4, "rank_in_cluster": 2}

>  <energy>  (49) 
-7.32

>  <cluster_rmsd>  (49) 
0.0

>  <cluster>  (49) 
7

$$$$

     RDKit          3D

 51 54  0  0  0  0  0  0  0  0999 V2000
  140.1640   74.1950  222.2580 O   0  0  0  0  0  0  0  0  0  0  0  0
  140.0320   72.9700  221.9980 C   0  0  0  0  0  0  0  0  0  0  0  0
  139.8750   72.5020  220.6640 N   0  0  0  0  0  0  0  0  0  0  0  0
  139.8700   73.4600  219.6050 C   0  0  0  0  0  0  0  0  0  0  0  0
  141.1460   73.5380  218.8700 C   0  0  0  0  0  0  0  0  0  0  0  0
  141.5570   72.4960  218.2860 O   0  0  0  0  0  0  0  0  0  0  0  0
  141.8550   74.7690  218.8520 N   0  0  0  0  0  0  0  0  0  0  0  0
  142.4690   75.4140  217.7070 C   0  0  0  0  0  0  0  0  0  0  0  0
  143.0230   76.7040  218.2100 C   0  0  0  0  0  0  0  0  0  0  0  0
  143.3190   76.3970  219.6710 C   0  0  0  0  0  0  0  0  0  0  0  0
  142.0820   75.6100  220.0400 C   0  0  1  0  0  0  0  0  0  0  0  0
  140.9440   76.5580  220.2570 C   0  0  0  0  0  0  0  0  0  0  0  0
  141.2700   77.7250  221.1070 C   0  0  0  0  0  0  0  0  0  0  0  0
  141.6960   78.9400  220.6110 C   0  0  0  0  0  0  0  0  0  0  0  0
  142.0020   80.0190  221.4350 C   0  0  0  0  0  0  0  0  0  0  0  0
  141.8850   79.9030  222.8040 C   0  0  0  0  0  0  0  0  0  0  0  0
  142.2660   81.2510  223.8560 Cl  0  0  0  0  0  0  0  0  0  0  0  0
  141.4610   78.6980  223.3240 C   0  0  0  0  0  0  0  0  0  0  0  0
  141.1610   77.6350  222.4980 C   0  0  0  0  0  0  0  0  0  0  0  0
  140.0330   71.9610  223.0650 C   0  0  0  0  0  0  0  0  0  0  0  0
  139.5090   70.6930  222.8560 C   0  0  0  0  0  0  0  0  0  0  0  0
  139.5050   69.7290  223.8560 C   0  0  0  0  0  0  0  0  0  0  0  0
  140.0330   70.0270  225.0950 C   0  0  0  0  0  0  0  0  0  0  0  0
  140.0670   69.1280  226.1410 C   0  0  0  0  0  0  0  0  0  0  0  0
  140.6120   69.4870  227.3720 C   0  0  0  0  0  0  0  0  0  0  0  0
  140.6610   68.3470  228.7140 Cl  0  0  0  0  0  0  0  0  0  0  0  0
  141.1190   70.7660  227.5180 C   0  0  0  0  0  0  0  0  0  0  0  0
  141.1050   71.6960  226.4970 C   0  0  0  0  0  0  0  0  0  0  0  0
  140.5550   71.3080  225.2890 C   0  0  0  0  0  0  0  0  0  0  0  0
  140.5350   72.2020  224.2890 N   0  0  0  0  0  0  0  0  0  0  0  0
  139.7620   71.4880  220.4210 H   0  0  0  0  0  0  0  0  0  0  0  0
  139.0759   73.1877  218.8942 H   0  0  0  0  0  0  0  0  0  0  0  0
  139.7027   74.4456  220.0640 H   0  0  0  0  0  0  0  0  0  0  0  0
  143.2744   74.7848  217.3003 H   0  0  0  0  0  0  0  0  0  0  0  0
  141.7416   75.5761  216.8979 H   0  0  0  0  0  0  0  0  0  0  0  0
  143.9405   76.9789  217.6691 H   0  0  0  0  0  0  0  0  0  0  0  0
  142.3388   77.5545  218.0737 H   0  0  0  0  0  0  0  0  0  0  0  0
  144.2326   75.7946  219.7829 H   0  0  0  0  0  0  0  0  0  0  0  0
  143.5050   77.2815  220.2979 H   0  0  0  0  0  0  0  0  0  0  0  0
  142.1798   75.0169  220.9612 H   0  0  0  0  0  0  0  0  0  0  0  0
  140.6145   76.9294  219.2754 H   0  0  0  0  0  0  0  0  0  0  0  0
  140.1635   75.9931  220.7877 H   0  0  0  0  0  0  0  0  0  0  0  0
  141.7977   79.0605  219.5223 H   0  0  0  0  0  0  0  0  0  0  0  0
  142.3385   80.9681  220.9924 H   0  0  0  0  0  0  0  0  0  0  0  0
  141.3606   78.5831  224.4134 H   0  0  0  0  0  0  0  0  0  0  0  0
  140.8260   76.6883  222.9469 H   0  0  0  0  0  0  0  0  0  0  0  0
  139.0853   70.4447  221.8717 H   0  0  0  0  0  0  0  0  0  0  0  0
  139.0826   68.7323  223.6607 H   0  0  0  0  0  0  0  0  0  0  0  0
  139.6591   68.1160  226.0015 H   0  0  0  0  0  0  0  0  0  0  0  0
  141.5512   71.0542  228.4876 H   0  0  0  0  0  0  0  0  0  0  0  0
  141.5156   72.7065  226.6393 H   0  0  0  0  0  0  0  0  0  0  0  0
  1  2  2  0
  2  3  1  0
  3  4  1  0
  4  5  1  0
  5  6  2  0
  5  7  1  0
  7  8  1  0
  8  9  1  0
  9 10  1  0
 10 11  1  0
 11 12  1  0
 12 13  1  0
 13 14  2  0
 14 15  1  0
 15 16  2  0
 16 17  1  0
 16 18  1  0
 18 19  2  0
  2 20  1  0
 20 21  2  0
 21 22  1  0
 22 23  2  0
 23 24  1  0
 24 25  2  0
 25 26  1  0
 25 27  1  0
 27 28  2  0
 28 29  1  0
 29 30  2  0
 11  7  1  0
 19 13  1  0
 30 20  1  0
 29 23  1  0
  3 31  1  0
  4 32  1  0
  4 33  1  0
  8 34  1  0
  8 35  1  0
  9 36  1  0
  9 37  1  0
 10 38  1  0
 10 39  1  0
 11 40  1  1
 12 41  1  0
 12 42  1  0
 14 43  1  0
 15 44  1  0
 18 45  1  0
 19 46  1  0
 21 47  1  0
 22 48  1  0
 24 49  1  0
 27 50  1  0
 28 51  1  0
M  END
>  <smiles>  (50) 
O=C(NCC(=O)N1CCC[C@H]1Cc1ccc(Cl)cc1)c1ccc2cc(Cl)ccc2n1

>  <score_type>  (50) 
oracle

>  <origin>  (50) 
autodockgpu

>  <m_score__min__energy>  (50) 
-8.8200000000000003

>  <m_primary>  (50) 
energy

>  <rmsd>  (50) 
2.4407998824424233

>  <m_score__min__rmsd>  (50) 
2.4407998824424233

>  <meeko>  (50) 
{"free_energy": -8.81, "intermolecular_energy": -10.6, "internal_energy": -1.53, "cluster_size": 13, "cluster_id": 1, "rank_in_cluster": 2}

>  <energy>  (50) 
-7.11

>  <cluster_rmsd>  (50) 
0.0

>  <cluster>  (50) 
8

$$$$
