
     RDKit          3D

 54 57  0  0  0  0  0  0  0  0999 V2000
  138.6560   72.5150  220.6930 O   0  0  0  0  0  0  0  0  0  0  0  0
  139.5890   72.6100  221.5320 C   0  0  0  0  0  0  0  0  0  0  0  0
  140.6010   73.6090  221.3600 N   0  0  0  0  0  0  0  0  0  0  0  0
  140.4760   74.4790  220.1840 C   0  0  0  0  0  0  0  0  0  0  0  0
  141.6520   75.3500  220.1550 C   0  0  0  0  0  0  0  0  0  0  0  0
  142.7470   74.8810  220.5680 O   0  0  0  0  0  0  0  0  0  0  0  0
  141.6670   76.6920  219.6970 N   0  0  0  0  0  0  0  0  0  0  0  0
  142.7350   77.1680  218.8440 C   0  0  0  0  0  0  0  0  0  0  0  0
  142.5800   78.5820  218.4180 C   0  0  0  0  0  0  0  0  0  0  0  0
  141.2080   78.8320  217.9010 C   0  0  0  0  0  0  0  0  0  0  0  0
  140.1120   78.3430  218.7990 C   0  0  0  0  0  0  0  0  0  0  0  0
  140.6300   77.6630  220.0400 C   0  0  2  0  0  0  0  0  0  0  0  0
  141.0940   78.5960  221.0900 C   0  0  0  0  0  0  0  0  0  0  0  0
  141.4670   78.2170  222.3580 C   0  0  0  0  0  0  0  0  0  0  0  0
  141.8970   79.1390  223.3180 C   0  0  0  0  0  0  0  0  0  0  0  0
  141.9670   80.4830  223.0220 C   0  0  0  0  0  0  0  0  0  0  0  0
  142.5050   81.6230  224.2230 Cl  0  0  0  0  0  0  0  0  0  0  0  0
  141.5930   80.8640  221.7510 C   0  0  0  0  0  0  0  0  0  0  0  0
  141.1630   79.9420  220.7940 C   0  0  0  0  0  0  0  0  0  0  0  0
  139.7000   71.7380  222.6970 C   0  0  0  0  0  0  0  0  0  0  0  0
  139.1340   70.4610  222.6440 C   0  0  0  0  0  0  0  0  0  0  0  0
  139.2170   69.6070  223.7220 C   0  0  0  0  0  0  0  0  0  0  0  0
  139.8730   70.0340  224.8680 C   0  0  0  0  0  0  0  0  0  0  0  0
  139.9740   69.1930  225.9760 C   0  0  0  0  0  0  0  0  0  0  0  0
  140.6360   69.6590  227.0960 C   0  0  0  0  0  0  0  0  0  0  0  0
  140.7580   68.7880  228.2870 C   0  0  0  0  0  0  0  0  0  0  0  0
  139.5860   68.9370  229.0370 F   0  0  0  0  0  0  0  0  0  0  0  0
  140.8430   67.4720  227.9450 F   0  0  0  0  0  0  0  0  0  0  0  0
  141.7910   69.2120  229.0910 F   0  0  0  0  0  0  0  0  0  0  0  0
  141.1940   70.9380  227.1300 C   0  0  0  0  0  0  0  0  0  0  0  0
  141.0900   71.7730  226.0210 C   0  0  0  0  0  0  0  0  0  0  0  0
  140.4240   71.2910  224.9070 C   0  0  0  0  0  0  0  0  0  0  0  0
  140.3310   72.1190  223.8280 N   0  0  0  0  0  0  0  0  0  0  0  0
  141.3850   73.7070  222.0430 H   0  0  0  0  0  0  0  0  0  0  0  0
  140.4368   73.8701  219.2687 H   0  0  0  0  0  0  0  0  0  0  0  0
  139.5532   75.0752  220.2391 H   0  0  0  0  0  0  0  0  0  0  0  0
  143.6841   77.0734  219.3919 H   0  0  0  0  0  0  0  0  0  0  0  0
  142.7115   76.5551  217.9309 H   0  0  0  0  0  0  0  0  0  0  0  0
  142.7660   79.2403  219.2794 H   0  0  0  0  0  0  0  0  0  0  0  0
  143.3020   78.7886  217.6143 H   0  0  0  0  0  0  0  0  0  0  0  0
  141.0835   79.9164  217.7645 H   0  0  0  0  0  0  0  0  0  0  0  0
  141.1186   78.2697  216.9598 H   0  0  0  0  0  0  0  0  0  0  0  0
  139.4959   79.2028  219.1011 H   0  0  0  0  0  0  0  0  0  0  0  0
  139.5295   77.6001  218.2344 H   0  0  0  0  0  0  0  0  0  0  0  0
  139.7712   77.1352  220.4804 H   0  0  0  0  0  0  0  0  0  0  0  0
  141.4258   77.1512  222.6269 H   0  0  0  0  0  0  0  0  0  0  0  0
  142.1825   78.7873  224.3204 H   0  0  0  0  0  0  0  0  0  0  0  0
  141.6346   81.9297  221.4816 H   0  0  0  0  0  0  0  0  0  0  0  0
  140.8758   80.2932  219.7919 H   0  0  0  0  0  0  0  0  0  0  0  0
  138.6160   70.1339  221.7304 H   0  0  0  0  0  0  0  0  0  0  0  0
  138.7704   68.6028  223.6751 H   0  0  0  0  0  0  0  0  0  0  0  0
  139.5374   68.1835  225.9588 H   0  0  0  0  0  0  0  0  0  0  0  0
  141.7161   71.2863  228.0334 H   0  0  0  0  0  0  0  0  0  0  0  0
  141.5233   72.7840  226.0295 H   0  0  0  0  0  0  0  0  0  0  0  0
  1  2  2  0
  2  3  1  0
  3  4  1  0
  4  5  1  0
  5  6  2  0
  5  7  1  0
  7  8  1  0
  8  9  1  0
  9 10  1  0
 10 11  1  0
 11 12  1  0
 12 13  1  0
 13 14  2  0
 14 15  1  0
 15 16  2  0
 16 17  1  0
 16 18  1  0
 18 19  2  0
  2 20  1  0
 20 21  2  0
 21 22  1  0
 22 23  2  0
 23 24  1  0
 24 25  2  0
 25 26  1  0
 26 27  1  0
 26 28  1  0
 26 29  1  0
 25 30  1  0
 30 31  2  0
 31 32  1  0
 32 33  2  0
 12  7  1  0
 19 13  1  0
 33 20  1  0
 32 23  1  0
  3 34  1  0
  4 35  1  0
  4 36  1  0
  8 37  1  0
  8 38  1  0
  9 39  1  0
  9 40  1  0
 10 41  1  0
 10 42  1  0
 11 43  1  0
 11 44  1  0
 12 45  1  1
 14 46  1  0
 15 47  1  0
 18 48  1  0
 19 49  1  0
 21 50  1  0
 22 51  1  0
 24 52  1  0
 30 53  1  0
 31 54  1  0
M  END
>  <smiles>  (1) 
O=C(NCC(=O)N1CCCCC1c1ccc(Cl)cc1)c1ccc2cc(C(F)(F)F)ccc2n1

>  <score_type>  (1) 
oracle

>  <origin>  (1) 
autodockgpu

>  <m_score__min__energy>  (1) 
-8.5999999999999996

>  <m_primary>  (1) 
energy

>  <rmsd>  (1) 
2.389354193081871

>  <m_score__min__rmsd>  (1) 
2.389354193081871

>  <meeko>  (1) 
{"free_energy": -7.91, "intermolecular_energy": -9.7, "internal_energy": -1.95, "cluster_size": 6, "cluster_id": 5, "rank_in_cluster": 3}

>  <energy>  (1) 
-8.6

>  <cluster_rmsd>  (1) 
0.0

>  <cluster>  (1) 
1

$$$$

     RDKit          3D

 54 57  0  0  0  0  0  0  0  0999 V2000
  137.7290   73.2510  220.6460 O   0  0  0  0  0  0  0  0  0  0  0  0
  137.7310   74.0100  221.6500 C   0  0  0  0  0  0  0  0  0  0  0  0
  136.7770   73.8050  222.6990 N   0  0  0  0  0  0  0  0  0  0  0  0
  135.8370   72.6920  222.5250 C   0  0  0  0  0  0  0  0  0  0  0  0
  136.3950   71.5320  223.2230 C   0  0  0  0  0  0  0  0  0  0  0  0
  135.6970   70.9890  224.1210 O   0  0  0  0  0  0  0  0  0  0  0  0
  137.6680   70.9600  222.9740 N   0  0  0  0  0  0  0  0  0  0  0  0
  137.7970   69.7760  222.1530 C   0  0  0  0  0  0  0  0  0  0  0  0
  139.2000   69.3300  221.9550 C   0  0  0  0  0  0  0  0  0  0  0  0
  140.0650   70.4690  221.5500 C   0  0  0  0  0  0  0  0  0  0  0  0
  139.9300   71.6850  222.4150 C   0  0  0  0  0  0  0  0  0  0  0  0
  138.9100   71.5140  223.5110 C   0  0  2  0  0  0  0  0  0  0  0  0
  139.3930   70.7270  224.6680 C   0  0  0  0  0  0  0  0  0  0  0  0
  138.7620   69.6130  225.1680 C   0  0  0  0  0  0  0  0  0  0  0  0
  139.2580   68.9030  226.2670 C   0  0  0  0  0  0  0  0  0  0  0  0
  140.4180   69.3000  226.8970 C   0  0  0  0  0  0  0  0  0  0  0  0
  141.0280   68.4110  228.2630 Cl  0  0  0  0  0  0  0  0  0  0  0  0
  141.0510   70.4180  226.3960 C   0  0  0  0  0  0  0  0  0  0  0  0
  140.5530   71.1250  225.2980 C   0  0  0  0  0  0  0  0  0  0  0  0
  138.6740   75.1130  221.8080 C   0  0  0  0  0  0  0  0  0  0  0  0
  140.0010   74.9350  221.4060 C   0  0  0  0  0  0  0  0  0  0  0  0
  140.9210   75.9510  221.5380 C   0  0  0  0  0  0  0  0  0  0  0  0
  140.5120   77.1620  222.0790 C   0  0  0  0  0  0  0  0  0  0  0  0
  141.4200   78.2100  222.2260 C   0  0  0  0  0  0  0  0  0  0  0  0
  140.9700   79.3970  222.7700 C   0  0  0  0  0  0  0  0  0  0  0  0
  141.9120   80.5280  222.9390 C   0  0  0  0  0  0  0  0  0  0  0  0
  143.1950   79.9860  223.0760 F   0  0  0  0  0  0  0  0  0  0  0  0
  141.9380   81.3310  221.8390 F   0  0  0  0  0  0  0  0  0  0  0  0
  141.6480   81.2060  224.1050 F   0  0  0  0  0  0  0  0  0  0  0  0
  139.6410   79.5570  223.1670 C   0  0  0  0  0  0  0  0  0  0  0  0
  138.7390   78.5070  223.0180 C   0  0  0  0  0  0  0  0  0  0  0  0
  139.2060   77.3230  222.4710 C   0  0  0  0  0  0  0  0  0  0  0  0
  138.3120   76.3040  222.3300 N   0  0  0  0  0  0  0  0  0  0  0  0
  136.7600   74.4220  223.5410 H   0  0  0  0  0  0  0  0  0  0  0  0
  134.8595   72.9550  222.9555 H   0  0  0  0  0  0  0  0  0  0  0  0
  135.6930   72.4696  221.4574 H   0  0  0  0  0  0  0  0  0  0  0  0
  137.2385   68.9591  222.6334 H   0  0  0  0  0  0  0  0  0  0  0  0
  137.4004   70.0320  221.1594 H   0  0  0  0  0  0  0  0  0  0  0  0
  139.5797   68.9060  222.8963 H   0  0  0  0  0  0  0  0  0  0  0  0
  139.2194   68.5723  221.1578 H   0  0  0  0  0  0  0  0  0  0  0  0
  141.1126   70.1355  221.5859 H   0  0  0  0  0  0  0  0  0  0  0  0
  139.7441   70.7641  220.5401 H   0  0  0  0  0  0  0  0  0  0  0  0
  140.9063   71.8993  222.8743 H   0  0  0  0  0  0  0  0  0  0  0  0
  139.5898   72.5109  221.7730 H   0  0  0  0  0  0  0  0  0  0  0  0
  138.7157   72.5218  223.9067 H   0  0  0  0  0  0  0  0  0  0  0  0
  137.8348   69.2676  224.6875 H   0  0  0  0  0  0  0  0  0  0  0  0
  138.7162   68.0181  226.6323 H   0  0  0  0  0  0  0  0  0  0  0  0
  141.9780   70.7646  226.8761 H   0  0  0  0  0  0  0  0  0  0  0  0
  141.0935   72.0103  224.9318 H   0  0  0  0  0  0  0  0  0  0  0  0
  140.3143   73.9710  220.9788 H   0  0  0  0  0  0  0  0  0  0  0  0
  141.9638   75.8052  221.2197 H   0  0  0  0  0  0  0  0  0  0  0  0
  142.4691   78.0941  221.9162 H   0  0  0  0  0  0  0  0  0  0  0  0
  139.3067   80.5125  223.5974 H   0  0  0  0  0  0  0  0  0  0  0  0
  137.6882   78.6142  223.3251 H   0  0  0  0  0  0  0  0  0  0  0  0
  1  2  2  0
  2  3  1  0
  3  4  1  0
  4  5  1  0
  5  6  2  0
  5  7  1  0
  7  8  1  0
  8  9  1  0
  9 10  1  0
 10 11  1  0
 11 12  1  0
 12 13  1  0
 13 14  2  0
 14 15  1  0
 15 16  2  0
 16 17  1  0
 16 18  1  0
 18 19  2  0
  2 20  1  0
 20 21  2  0
 21 22  1  0
 22 23  2  0
 23 24  1  0
 24 25  2  0
 25 26  1  0
 26 27  1  0
 26 28  1  0
 26 29  1  0
 25 30  1  0
 30 31  2  0
 31 32  1  0
 32 33  2  0
 12  7  1  0
 19 13  1  0
 33 20  1  0
 32 23  1  0
  3 34  1  0
  4 35  1  0
  4 36  1  0
  8 37  1  0
  8 38  1  0
  9 39  1  0
  9 40  1  0
 10 41  1  0
 10 42  1  0
 11 43  1  0
 11 44  1  0
 12 45  1  1
 14 46  1  0
 15 47  1  0
 18 48  1  0
 19 49  1  0
 21 50  1  0
 22 51  1  0
 24 52  1  0
 30 53  1  0
 31 54  1  0
M  END
>  <smiles>  (2) 
O=C(NCC(=O)N1CCCCC1c1ccc(Cl)cc1)c1ccc2cc(C(F)(F)F)ccc2n1

>  <score_type>  (2) 
oracle

>  <origin>  (2) 
autodockgpu

>  <m_score__min__energy>  (2) 
-8.5999999999999996

>  <m_primary>  (2) 
energy

>  <rmsd>  (2) 
7.212690522273018

>  <m_score__min__rmsd>  (2) 
7.212690522273018

>  <meeko>  (2) 
{"free_energy": -7.89, "intermolecular_energy": -9.68, "internal_energy": -2.17, "cluster_size": 17, "cluster_id": 4, "rank_in_cluster": 9}

>  <energy>  (2) 
-8.57

>  <cluster_rmsd>  (2) 
0.43

>  <cluster>  (2) 
1

$$$$

     RDKit          3D

 54 57  0  0  0  0  0  0  0  0999 V2000
  138.5450   71.5550  220.6330 O   0  0  0  0  0  0  0  0  0  0  0  0
  138.8660   72.0590  221.7400 C   0  0  0  0  0  0  0  0  0  0  0  0
  138.9130   73.4840  221.8870 N   0  0  0  0  0  0  0  0  0  0  0  0
  138.5720   74.2790  220.7010 C   0  0  0  0  0  0  0  0  0  0  0  0
  139.0340   75.6470  220.9430 C   0  0  0  0  0  0  0  0  0  0  0  0
  138.2640   76.4310  221.5620 O   0  0  0  0  0  0  0  0  0  0  0  0
  140.2860   76.1730  220.5380 N   0  0  0  0  0  0  0  0  0  0  0  0
  141.4780   75.3530  220.5730 C   0  0  0  0  0  0  0  0  0  0  0  0
  142.6970   76.0410  220.0770 C   0  0  0  0  0  0  0  0  0  0  0  0
  142.4360   76.7080  218.7740 C   0  0  0  0  0  0  0  0  0  0  0  0
  141.2050   77.5620  218.7550 C   0  0  0  0  0  0  0  0  0  0  0  0
  140.4590   77.5460  220.0630 C   0  0  2  0  0  0  0  0  0  0  0  0
  141.0560   78.4050  221.1100 C   0  0  0  0  0  0  0  0  0  0  0  0
  141.0820   78.0950  222.4490 C   0  0  0  0  0  0  0  0  0  0  0  0
  141.6580   78.9430  223.4010 C   0  0  0  0  0  0  0  0  0  0  0  0
  142.2320   80.1390  223.0250 C   0  0  0  0  0  0  0  0  0  0  0  0
  142.9460   81.1870  224.2160 Cl  0  0  0  0  0  0  0  0  0  0  0  0
  142.2050   80.4500  221.6820 C   0  0  0  0  0  0  0  0  0  0  0  0
  141.6290   79.6020  220.7330 C   0  0  0  0  0  0  0  0  0  0  0  0
  139.2030   71.2540  222.9110 C   0  0  0  0  0  0  0  0  0  0  0  0
  138.8800   69.8940  222.9140 C   0  0  0  0  0  0  0  0  0  0  0  0
  139.1810   69.1000  223.9980 C   0  0  0  0  0  0  0  0  0  0  0  0
  139.8110   69.6710  225.0950 C   0  0  0  0  0  0  0  0  0  0  0  0
  140.1290   68.8940  226.2080 C   0  0  0  0  0  0  0  0  0  0  0  0
  140.7570   69.5040  227.2780 C   0  0  0  0  0  0  0  0  0  0  0  0
  141.1060   68.7040  228.4740 C   0  0  0  0  0  0  0  0  0  0  0  0
  139.9620   68.6310  229.2770 F   0  0  0  0  0  0  0  0  0  0  0  0
  141.4400   67.4240  228.1450 F   0  0  0  0  0  0  0  0  0  0  0  0
  142.0660   69.3450  229.2200 F   0  0  0  0  0  0  0  0  0  0  0  0
  141.0710   70.8640  227.2560 C   0  0  0  0  0  0  0  0  0  0  0  0
  140.7520   71.6350  226.1420 C   0  0  0  0  0  0  0  0  0  0  0  0
  140.1230   71.0080  225.0790 C   0  0  0  0  0  0  0  0  0  0  0  0
  139.8170   71.7750  223.9940 N   0  0  0  0  0  0  0  0  0  0  0  0
  139.1780   73.9240  222.7950 H   0  0  0  0  0  0  0  0  0  0  0  0
  139.0730   73.8644  219.8138 H   0  0  0  0  0  0  0  0  0  0  0  0
  137.4870   74.2617  220.5208 H   0  0  0  0  0  0  0  0  0  0  0  0
  141.6545   75.0430  221.6135 H   0  0  0  0  0  0  0  0  0  0  0  0
  141.2981   74.4997  219.9025 H   0  0  0  0  0  0  0  0  0  0  0  0
  143.0085   76.7971  220.8127 H   0  0  0  0  0  0  0  0  0  0  0  0
  143.4907   75.2925  219.9362 H   0  0  0  0  0  0  0  0  0  0  0  0
  143.3005   77.3441  218.5332 H   0  0  0  0  0  0  0  0  0  0  0  0
  142.2760   75.9077  218.0365 H   0  0  0  0  0  0  0  0  0  0  0  0
  141.5002   78.5980  218.5322 H   0  0  0  0  0  0  0  0  0  0  0  0
  140.5321   77.1532  217.9868 H   0  0  0  0  0  0  0  0  0  0  0  0
  139.4719   77.9853  219.8563 H   0  0  0  0  0  0  0  0  0  0  0  0
  140.6345   77.1475  222.7835 H   0  0  0  0  0  0  0  0  0  0  0  0
  141.6529   78.6523  224.4619 H   0  0  0  0  0  0  0  0  0  0  0  0
  142.6520   81.3975  221.3466 H   0  0  0  0  0  0  0  0  0  0  0  0
  141.6324   79.8923  219.6720 H   0  0  0  0  0  0  0  0  0  0  0  0
  138.3792   69.4526  222.0397 H   0  0  0  0  0  0  0  0  0  0  0  0
  138.9261   68.0299  223.9946 H   0  0  0  0  0  0  0  0  0  0  0  0
  139.8861   67.8215  226.2342 H   0  0  0  0  0  0  0  0  0  0  0  0
  141.5709   71.3267  228.1197 H   0  0  0  0  0  0  0  0  0  0  0  0
  140.9917   72.7080  226.1068 H   0  0  0  0  0  0  0  0  0  0  0  0
  1  2  2  0
  2  3  1  0
  3  4  1  0
  4  5  1  0
  5  6  2  0
  5  7  1  0
  7  8  1  0
  8  9  1  0
  9 10  1  0
 10 11  1  0
 11 12  1  0
 12 13  1  0
 13 14  2  0
 14 15  1  0
 15 16  2  0
 16 17  1  0
 16 18  1  0
 18 19  2  0
  2 20  1  0
 20 21  2  0
 21 22  1  0
 22 23  2  0
 23 24  1  0
 24 25  2  0
 25 26  1  0
 26 27  1  0
 26 28  1  0
 26 29  1  0
 25 30  1  0
 30 31  2  0
 31 32  1  0
 32 33  2  0
 12  7  1  0
 19 13  1  0
 33 20  1  0
 32 23  1  0
  3 34  1  0
  4 35  1  0
  4 36  1  0
  8 37  1  0
  8 38  1  0
  9 39  1  0
  9 40  1  0
 10 41  1  0
 10 42  1  0
 11 43  1  0
 11 44  1  0
 12 45  1  6
 14 46  1  0
 15 47  1  0
 18 48  1  0
 19 49  1  0
 21 50  1  0
 22 51  1  0
 24 52  1  0
 30 53  1  0
 31 54  1  0
M  END
>  <smiles>  (3) 
O=C(NCC(=O)N1CCCCC1c1ccc(Cl)cc1)c1ccc2cc(C(F)(F)F)ccc2n1

>  <score_type>  (3) 
oracle

>  <origin>  (3) 
autodockgpu

>  <m_score__min__energy>  (3) 
-8.5999999999999996

>  <m_primary>  (3) 
energy

>  <rmsd>  (3) 
1.7947662872156231

>  <m_score__min__rmsd>  (3) 
1.7947662872156231

>  <meeko>  (3) 
{"free_energy": -8.28, "intermolecular_energy": -10.07, "internal_energy": -1.82, "cluster_size": 10, "cluster_id": 1, "rank_in_cluster": 10}

>  <energy>  (3) 
-8.57

>  <cluster_rmsd>  (3) 
0.19

>  <cluster>  (3) 
1

$$$$

     RDKit          3D

 54 57  0  0  0  0  0  0  0  0999 V2000
  140.7500   72.9320  220.6860 O   0  0  0  0  0  0  0  0  0  0  0  0
  140.0930   73.1310  221.7410 C   0  0  0  0  0  0  0  0  0  0  0  0
  139.4240   74.3820  221.9380 N   0  0  0  0  0  0  0  0  0  0  0  0
  139.5530   75.3740  220.8640 C   0  0  0  0  0  0  0  0  0  0  0  0
  140.6240   76.2970  221.2460 C   0  0  0  0  0  0  0  0  0  0  0  0
  141.8160   75.9340  221.0520 O   0  0  0  0  0  0  0  0  0  0  0  0
  140.4350   77.5790  221.8210 N   0  0  0  0  0  0  0  0  0  0  0  0
  139.1090   78.0440  222.1670 C   0  0  0  0  0  0  0  0  0  0  0  0
  139.0880   79.3890  222.7980 C   0  0  0  0  0  0  0  0  0  0  0  0
  140.0870   79.4730  223.8970 C   0  0  0  0  0  0  0  0  0  0  0  0
  141.4580   78.9980  223.5220 C   0  0  0  0  0  0  0  0  0  0  0  0
  141.5380   78.4970  222.1040 C   0  0  2  0  0  0  0  0  0  0  0  0
  141.6160   79.5700  221.0880 C   0  0  0  0  0  0  0  0  0  0  0  0
  141.7960   79.3550  219.7420 C   0  0  0  0  0  0  0  0  0  0  0  0
  141.8660   80.4050  218.8200 C   0  0  0  0  0  0  0  0  0  0  0  0
  141.7530   81.7150  219.2340 C   0  0  0  0  0  0  0  0  0  0  0  0
  141.8410   83.0150  218.0810 Cl  0  0  0  0  0  0  0  0  0  0  0  0
  141.5730   81.9310  220.5840 C   0  0  0  0  0  0  0  0  0  0  0  0
  141.5040   80.8810  221.5030 C   0  0  0  0  0  0  0  0  0  0  0  0
  139.9740   72.1330  222.8010 C   0  0  0  0  0  0  0  0  0  0  0  0
  139.1820   71.0030  222.5820 C   0  0  0  0  0  0  0  0  0  0  0  0
  139.0440   70.0390  223.5550 C   0  0  0  0  0  0  0  0  0  0  0  0
  139.7040   70.2050  224.7650 C   0  0  0  0  0  0  0  0  0  0  0  0
  139.5830   69.2470  225.7710 C   0  0  0  0  0  0  0  0  0  0  0  0
  140.2580   69.4530  226.9590 C   0  0  0  0  0  0  0  0  0  0  0  0
  140.1490   68.4530  228.0450 C   0  0  0  0  0  0  0  0  0  0  0  0
  139.2930   67.4400  227.5960 F   0  0  0  0  0  0  0  0  0  0  0  0
  141.3490   67.8660  228.3130 F   0  0  0  0  0  0  0  0  0  0  0  0
  139.5510   69.0060  229.1530 F   0  0  0  0  0  0  0  0  0  0  0  0
  141.0450   70.5900  227.1590 C   0  0  0  0  0  0  0  0  0  0  0  0
  141.1610   71.5430  226.1510 C   0  0  0  0  0  0  0  0  0  0  0  0
  140.4780   71.3210  224.9670 C   0  0  0  0  0  0  0  0  0  0  0  0
  140.6020   72.2620  223.9890 N   0  0  0  0  0  0  0  0  0  0  0  0
  138.8740   74.5690  222.8050 H   0  0  0  0  0  0  0  0  0  0  0  0
  139.8079   74.8732  219.9184 H   0  0  0  0  0  0  0  0  0  0  0  0
  138.6065   75.9158  220.7202 H   0  0  0  0  0  0  0  0  0  0  0  0
  138.5050   78.0829  221.2485 H   0  0  0  0  0  0  0  0  0  0  0  0
  138.7062   77.3376  222.9078 H   0  0  0  0  0  0  0  0  0  0  0  0
  139.3240   80.1478  222.0374 H   0  0  0  0  0  0  0  0  0  0  0  0
  138.0867   79.5658  223.2177 H   0  0  0  0  0  0  0  0  0  0  0  0
  140.1614   80.5233  224.2153 H   0  0  0  0  0  0  0  0  0  0  0  0
  139.7312   78.8077  224.6975 H   0  0  0  0  0  0  0  0  0  0  0  0
  142.1632   79.8341  223.6390 H   0  0  0  0  0  0  0  0  0  0  0  0
  141.7077   78.1557  224.1839 H   0  0  0  0  0  0  0  0  0  0  0  0
  142.4912   77.9535  222.0264 H   0  0  0  0  0  0  0  0  0  0  0  0
  141.8882   78.3213  219.3773 H   0  0  0  0  0  0  0  0  0  0  0  0
  142.0128   80.1827  217.7528 H   0  0  0  0  0  0  0  0  0  0  0  0
  141.4807   82.9644  220.9495 H   0  0  0  0  0  0  0  0  0  0  0  0
  141.3586   81.1023  222.5707 H   0  0  0  0  0  0  0  0  0  0  0  0
  138.6623   70.8821  221.6201 H   0  0  0  0  0  0  0  0  0  0  0  0
  138.4203   69.1507  223.3764 H   0  0  0  0  0  0  0  0  0  0  0  0
  138.9652   68.3491  225.6225 H   0  0  0  0  0  0  0  0  0  0  0  0
  141.5732   70.7321  228.1134 H   0  0  0  0  0  0  0  0  0  0  0  0
  141.7760   72.4443  226.2906 H   0  0  0  0  0  0  0  0  0  0  0  0
  1  2  2  0
  2  3  1  0
  3  4  1  0
  4  5  1  0
  5  6  2  0
  5  7  1  0
  7  8  1  0
  8  9  1  0
  9 10  1  0
 10 11  1  0
 11 12  1  0
 12 13  1  0
 13 14  2  0
 14 15  1  0
 15 16  2  0
 16 17  1  0
 16 18  1  0
 18 19  2  0
  2 20  1  0
 20 21  2  0
 21 22  1  0
 22 23  2  0
 23 24  1  0
 24 25  2  0
 25 26  1  0
 26 27  1  0
 26 28  1  0
 26 29  1  0
 25 30  1  0
 30 31  2  0
 31 32  1  0
 32 33  2  0
 12  7  1  0
 19 13  1  0
 33 20  1  0
 32 23  1  0
  3 34  1  0
  4 35  1  0
  4 36  1  0
  8 37  1  0
  8 38  1  0
  9 39  1  0
  9 40  1  0
 10 41  1  0
 10 42  1  0
 11 43  1  0
 11 44  1  0
 12 45  1  1
 14 46  1  0
 15 47  1  0
 18 48  1  0
 19 49  1  0
 21 50  1  0
 22 51  1  0
 24 52  1  0
 30 53  1  0
 31 54  1  0
M  END
>  <smiles>  (4) 
O=C(NCC(=O)N1CCCCC1c1ccc(Cl)cc1)c1ccc2cc(C(F)(F)F)ccc2n1

>  <score_type>  (4) 
oracle

>  <origin>  (4) 
autodockgpu

>  <m_score__min__energy>  (4) 
-8.5999999999999996

>  <m_primary>  (4) 
energy

>  <rmsd>  (4) 
3.4218548015453463

>  <m_score__min__rmsd>  (4) 
3.4218548015453463

>  <meeko>  (4) 
{"free_energy": -8.6, "intermolecular_energy": -10.39, "internal_energy": -1.39, "cluster_size": 10, "cluster_id": 1, "rank_in_cluster": 1}

>  <energy>  (4) 
-8.54

>  <cluster_rmsd>  (4) 
0.13

>  <cluster>  (4) 
1

$$$$

     RDKit          3D

 54 57  0  0  0  0  0  0  0  0999 V2000
  135.2600   75.6210  222.2780 O   0  0  0  0  0  0  0  0  0  0  0  0
  136.4960   75.4910  222.4770 C   0  0  0  0  0  0  0  0  0  0  0  0
  137.0670   74.1810  222.5750 N   0  0  0  0  0  0  0  0  0  0  0  0
  136.1450   73.0480  222.4320 C   0  0  0  0  0  0  0  0  0  0  0  0
  136.7450   71.9040  223.1210 C   0  0  0  0  0  0  0  0  0  0  0  0
  136.0770   71.3440  224.0320 O   0  0  0  0  0  0  0  0  0  0  0  0
  138.0270   71.3630  222.8480 N   0  0  0  0  0  0  0  0  0  0  0  0
  138.1790   70.2410  221.9470 C   0  0  0  0  0  0  0  0  0  0  0  0
  139.5880   69.8240  221.7360 C   0  0  0  0  0  0  0  0  0  0  0  0
  140.4470   70.9970  221.4230 C   0  0  0  0  0  0  0  0  0  0  0  0
  140.2870   72.1480  222.3700 C   0  0  0  0  0  0  0  0  0  0  0  0
  139.2570   71.8900  223.4390 C   0  0  2  0  0  0  0  0  0  0  0  0
  139.7340   71.0280  224.5430 C   0  0  0  0  0  0  0  0  0  0  0  0
  140.9860   71.1050  225.1040 C   0  0  0  0  0  0  0  0  0  0  0  0
  141.3910   70.2650  226.1460 C   0  0  0  0  0  0  0  0  0  0  0  0
  140.5350   69.3140  226.6580 C   0  0  0  0  0  0  0  0  0  0  0  0
  141.0470   68.2730  227.9560 Cl  0  0  0  0  0  0  0  0  0  0  0  0
  139.2790   69.2350  226.0950 C   0  0  0  0  0  0  0  0  0  0  0  0
  138.8770   70.0760  225.0540 C   0  0  0  0  0  0  0  0  0  0  0  0
  137.4000   76.6280  222.6160 C   0  0  0  0  0  0  0  0  0  0  0  0
  136.8610   77.9070  222.7820 C   0  0  0  0  0  0  0  0  0  0  0  0
  137.6800   79.0060  222.9170 C   0  0  0  0  0  0  0  0  0  0  0  0
  139.0560   78.8260  222.8870 C   0  0  0  0  0  0  0  0  0  0  0  0
  139.9120   79.9190  223.0220 C   0  0  0  0  0  0  0  0  0  0  0  0
  141.2750   79.6940  222.9860 C   0  0  0  0  0  0  0  0  0  0  0  0
  142.2080   80.8350  223.1260 C   0  0  0  0  0  0  0  0  0  0  0  0
  141.7900   81.5840  224.2330 F   0  0  0  0  0  0  0  0  0  0  0  0
  143.4790   80.4200  223.3880 F   0  0  0  0  0  0  0  0  0  0  0  0
  142.1190   81.6690  222.0360 F   0  0  0  0  0  0  0  0  0  0  0  0
  141.7950   78.4090  222.8190 C   0  0  0  0  0  0  0  0  0  0  0  0
  140.9360   77.3220  222.6860 C   0  0  0  0  0  0  0  0  0  0  0  0
  139.5720   77.5650  222.7240 C   0  0  0  0  0  0  0  0  0  0  0  0
  138.7430   76.4910  222.5920 N   0  0  0  0  0  0  0  0  0  0  0  0
  138.0890   74.0490  222.7400 H   0  0  0  0  0  0  0  0  0  0  0  0
  135.1742   73.2938  222.8871 H   0  0  0  0  0  0  0  0  0  0  0  0
  135.9768   72.8165  221.3699 H   0  0  0  0  0  0  0  0  0  0  0  0
  137.6236   69.3867  222.3613 H   0  0  0  0  0  0  0  0  0  0  0  0
  137.7920   70.5629  220.9690 H   0  0  0  0  0  0  0  0  0  0  0  0
  139.9606   69.3383  222.6499 H   0  0  0  0  0  0  0  0  0  0  0  0
  139.6245   69.1250  220.8874 H   0  0  0  0  0  0  0  0  0  0  0  0
  141.4975   70.6719  221.4501 H   0  0  0  0  0  0  0  0  0  0  0  0
  140.1374   71.3590  220.4315 H   0  0  0  0  0  0  0  0  0  0  0  0
  141.2554   72.3405  222.8550 H   0  0  0  0  0  0  0  0  0  0  0  0
  139.9436   73.0126  221.7830 H   0  0  0  0  0  0  0  0  0  0  0  0
  139.0483   72.8651  223.9033 H   0  0  0  0  0  0  0  0  0  0  0  0
  141.6945   71.8537  224.7200 H   0  0  0  0  0  0  0  0  0  0  0  0
  142.4045   70.3644  226.5618 H   0  0  0  0  0  0  0  0  0  0  0  0
  138.5704   68.4857  226.4777 H   0  0  0  0  0  0  0  0  0  0  0  0
  137.8640   69.9774  224.6368 H   0  0  0  0  0  0  0  0  0  0  0  0
  135.7690   78.0374  222.8051 H   0  0  0  0  0  0  0  0  0  0  0  0
  137.2505   80.0104  223.0466 H   0  0  0  0  0  0  0  0  0  0  0  0
  139.5119   80.9351  223.1539 H   0  0  0  0  0  0  0  0  0  0  0  0
  142.8839   78.2557  222.7925 H   0  0  0  0  0  0  0  0  0  0  0  0
  141.3273   76.3023  222.5549 H   0  0  0  0  0  0  0  0  0  0  0  0
  1  2  2  0
  2  3  1  0
  3  4  1  0
  4  5  1  0
  5  6  2  0
  5  7  1  0
  7  8  1  0
  8  9  1  0
  9 10  1  0
 10 11  1  0
 11 12  1  0
 12 13  1  0
 13 14  2  0
 14 15  1  0
 15 16  2  0
 16 17  1  0
 16 18  1  0
 18 19  2  0
  2 20  1  0
 20 21  2  0
 21 22  1  0
 22 23  2  0
 23 24  1  0
 24 25  2  0
 25 26  1  0
 26 27  1  0
 26 28  1  0
 26 29  1  0
 25 30  1  0
 30 31  2  0
 31 32  1  0
 32 33  2  0
 12  7  1  0
 19 13  1  0
 33 20  1  0
 32 23  1  0
  3 34  1  0
  4 35  1  0
  4 36  1  0
  8 37  1  0
  8 38  1  0
  9 39  1  0
  9 40  1  0
 10 41  1  0
 10 42  1  0
 11 43  1  0
 11 44  1  0
 12 45  1  1
 14 46  1  0
 15 47  1  0
 18 48  1  0
 19 49  1  0
 21 50  1  0
 22 51  1  0
 24 52  1  0
 30 53  1  0
 31 54  1  0
M  END
>  <smiles>  (5) 
O=C(NCC(=O)N1CCCCC1c1ccc(Cl)cc1)c1ccc2cc(C(F)(F)F)ccc2n1

>  <score_type>  (5) 
oracle

>  <origin>  (5) 
autodockgpu

>  <m_score__min__energy>  (5) 
-8.5999999999999996

>  <m_primary>  (5) 
energy

>  <rmsd>  (5) 
7.5740560336755856

>  <m_score__min__rmsd>  (5) 
7.5740560336755856

>  <meeko>  (5) 
{"free_energy": -7.79, "intermolecular_energy": -9.58, "internal_energy": -1.92, "cluster_size": 17, "cluster_id": 4, "rank_in_cluster": 11}

>  <energy>  (5) 
-8.53

>  <cluster_rmsd>  (5) 
0.16

>  <cluster>  (5) 
1

$$$$

     RDKit          3D

 54 57  0  0  0  0  0  0  0  0999 V2000
  138.6580   71.6230  220.5260 O   0  0  0  0  0  0  0  0  0  0  0  0
  138.8640   72.1160  221.6650 C   0  0  0  0  0  0  0  0  0  0  0  0
  138.7730   73.5330  221.8550 N   0  0  0  0  0  0  0  0  0  0  0  0
  138.4360   74.3350  220.6730 C   0  0  0  0  0  0  0  0  0  0  0  0
  138.9560   75.6850  220.8960 C   0  0  0  0  0  0  0  0  0  0  0  0
  138.2190   76.5110  221.5010 O   0  0  0  0  0  0  0  0  0  0  0  0
  140.2310   76.1510  220.4870 N   0  0  0  0  0  0  0  0  0  0  0  0
  141.3950   75.2980  220.5900 C   0  0  0  0  0  0  0  0  0  0  0  0
  142.6440   75.9210  220.0810 C   0  0  0  0  0  0  0  0  0  0  0  0
  142.4270   76.5230  218.7390 C   0  0  0  0  0  0  0  0  0  0  0  0
  141.2230   77.4120  218.6500 C   0  0  0  0  0  0  0  0  0  0  0  0
  140.4540   77.4890  219.9430 C   0  0  2  0  0  0  0  0  0  0  0  0
  141.0600   78.3860  220.9520 C   0  0  0  0  0  0  0  0  0  0  0  0
  141.6570   79.5900  220.6660 C   0  0  0  0  0  0  0  0  0  0  0  0
  142.2170   80.4020  221.6570 C   0  0  0  0  0  0  0  0  0  0  0  0
  142.1900   80.0180  222.9810 C   0  0  0  0  0  0  0  0  0  0  0  0
  142.8900   81.0350  224.2080 Cl  0  0  0  0  0  0  0  0  0  0  0  0
  141.5920   78.8100  223.2690 C   0  0  0  0  0  0  0  0  0  0  0  0
  141.0330   78.0010  222.2770 C   0  0  0  0  0  0  0  0  0  0  0  0
  139.1980   71.3040  222.8320 C   0  0  0  0  0  0  0  0  0  0  0  0
  138.8850   69.9420  222.8220 C   0  0  0  0  0  0  0  0  0  0  0  0
  139.1840   69.1420  223.9020 C   0  0  0  0  0  0  0  0  0  0  0  0
  139.8030   69.7080  225.0080 C   0  0  0  0  0  0  0  0  0  0  0  0
  140.1180   68.9250  226.1180 C   0  0  0  0  0  0  0  0  0  0  0  0
  140.7330   69.5300  227.1960 C   0  0  0  0  0  0  0  0  0  0  0  0
  141.0800   68.7240  228.3880 C   0  0  0  0  0  0  0  0  0  0  0  0
  139.9300   68.6350  229.1820 F   0  0  0  0  0  0  0  0  0  0  0  0
  141.4270   67.4490  228.0520 F   0  0  0  0  0  0  0  0  0  0  0  0
  142.0290   69.3670  229.1470 F   0  0  0  0  0  0  0  0  0  0  0  0
  141.0380   70.8930  227.1870 C   0  0  0  0  0  0  0  0  0  0  0  0
  140.7210   71.6700  226.0770 C   0  0  0  0  0  0  0  0  0  0  0  0
  140.1040   71.0480  225.0040 C   0  0  0  0  0  0  0  0  0  0  0  0
  139.8000   71.8210  223.9240 N   0  0  0  0  0  0  0  0  0  0  0  0
  138.9390   73.9640  222.7910 H   0  0  0  0  0  0  0  0  0  0  0  0
  138.8998   73.8969  219.7769 H   0  0  0  0  0  0  0  0  0  0  0  0
  137.3472   74.3593  220.5182 H   0  0  0  0  0  0  0  0  0  0  0  0
  141.5431   75.0403  221.6491 H   0  0  0  0  0  0  0  0  0  0  0  0
  141.2003   74.4147  219.9640 H   0  0  0  0  0  0  0  0  0  0  0  0
  142.9658   76.7066  220.7805 H   0  0  0  0  0  0  0  0  0  0  0  0
  143.4164   75.1424  219.9965 H   0  0  0  0  0  0  0  0  0  0  0  0
  143.3150   77.1185  218.4807 H   0  0  0  0  0  0  0  0  0  0  0  0
  142.2552   75.6887  218.0430 H   0  0  0  0  0  0  0  0  0  0  0  0
  141.5541   78.4250  218.3778 H   0  0  0  0  0  0  0  0  0  0  0  0
  140.5514   76.9831  217.8917 H   0  0  0  0  0  0  0  0  0  0  0  0
  139.4839   77.9447  219.6956 H   0  0  0  0  0  0  0  0  0  0  0  0
  141.6958   79.9273  219.6197 H   0  0  0  0  0  0  0  0  0  0  0  0
  142.6843   81.3577  221.3773 H   0  0  0  0  0  0  0  0  0  0  0  0
  141.5537   78.4717  224.3150 H   0  0  0  0  0  0  0  0  0  0  0  0
  140.5654   77.0450  222.5554 H   0  0  0  0  0  0  0  0  0  0  0  0
  138.3938   69.5038  221.9407 H   0  0  0  0  0  0  0  0  0  0  0  0
  138.9361   68.0704  223.8885 H   0  0  0  0  0  0  0  0  0  0  0  0
  139.8821   67.8507  226.1344 H   0  0  0  0  0  0  0  0  0  0  0  0
  141.5289   71.3523  228.0576 H   0  0  0  0  0  0  0  0  0  0  0  0
  140.9532   72.7449  226.0524 H   0  0  0  0  0  0  0  0  0  0  0  0
  1  2  2  0
  2  3  1  0
  3  4  1  0
  4  5  1  0
  5  6  2  0
  5  7  1  0
  7  8  1  0
  8  9  1  0
  9 10  1  0
 10 11  1  0
 11 12  1  0
 12 13  1  0
 13 14  2  0
 14 15  1  0
 15 16  2  0
 16 17  1  0
 16 18  1  0
 18 19  2  0
  2 20  1  0
 20 21  2  0
 21 22  1  0
 22 23  2  0
 23 24  1  0
 24 25  2  0
 25 26  1  0
 26 27  1  0
 26 28  1  0
 26 29  1  0
 25 30  1  0
 30 31  2  0
 31 32  1  0
 32 33  2  0
 12  7  1  0
 19 13  1  0
 33 20  1  0
 32 23  1  0
  3 34  1  0
  4 35  1  0
  4 36  1  0
  8 37  1  0
  8 38  1  0
  9 39  1  0
  9 40  1  0
 10 41  1  0
 10 42  1  0
 11 43  1  0
 11 44  1  0
 12 45  1  6
 14 46  1  0
 15 47  1  0
 18 48  1  0
 19 49  1  0
 21 50  1  0
 22 51  1  0
 24 52  1  0
 30 53  1  0
 31 54  1  0
M  END
>  <smiles>  (6) 
O=C(NCC(=O)N1CCCCC1c1ccc(Cl)cc1)c1ccc2cc(C(F)(F)F)ccc2n1

>  <score_type>  (6) 
oracle

>  <origin>  (6) 
autodockgpu

>  <m_score__min__energy>  (6) 
-8.5999999999999996

>  <m_primary>  (6) 
energy

>  <rmsd>  (6) 
1.7888047408116023

>  <m_score__min__rmsd>  (6) 
1.7888047408116023

>  <meeko>  (6) 
{"free_energy": -8.31, "intermolecular_energy": -10.1, "internal_energy": -1.79, "cluster_size": 10, "cluster_id": 1, "rank_in_cluster": 8}

>  <energy>  (6) 
-8.36

>  <cluster_rmsd>  (6) 
1.85

>  <cluster>  (6) 
1

$$$$

     RDKit          3D

 54 57  0  0  0  0  0  0  0  0999 V2000
  137.5880   76.5470  220.4020 O   0  0  0  0  0  0  0  0  0  0  0  0
  137.6900   76.5790  221.6560 C   0  0  0  0  0  0  0  0  0  0  0  0
  138.2950   75.4810  222.3490 N   0  0  0  0  0  0  0  0  0  0  0  0
  138.7690   74.3630  221.5240 C   0  0  0  0  0  0  0  0  0  0  0  0
  140.2320   74.3600  221.5880 C   0  0  0  0  0  0  0  0  0  0  0  0
  140.7900   73.5160  222.3400 O   0  0  0  0  0  0  0  0  0  0  0  0
  141.0850   75.2340  220.8670 N   0  0  0  0  0  0  0  0  0  0  0  0
  142.4630   74.8740  220.6110 C   0  0  0  0  0  0  0  0  0  0  0  0
  143.2080   75.8770  219.8090 C   0  0  0  0  0  0  0  0  0  0  0  0
  142.4310   76.2740  218.6040 C   0  0  0  0  0  0  0  0  0  0  0  0
  141.0090   76.6540  218.8850 C   0  0  0  0  0  0  0  0  0  0  0  0
  140.6440   76.5250  220.3410 C   0  0  2  0  0  0  0  0  0  0  0  0
  141.1250   77.6410  221.1860 C   0  0  0  0  0  0  0  0  0  0  0  0
  141.6270   78.8240  220.6990 C   0  0  0  0  0  0  0  0  0  0  0  0
  142.0710   79.8500  221.5400 C   0  0  0  0  0  0  0  0  0  0  0  0
  142.0190   79.7100  222.9100 C   0  0  0  0  0  0  0  0  0  0  0  0
  142.5730   80.9920  223.9490 Cl  0  0  0  0  0  0  0  0  0  0  0  0
  141.5160   78.5230  223.3990 C   0  0  0  0  0  0  0  0  0  0  0  0
  141.0730   77.5000  222.5570 C   0  0  0  0  0  0  0  0  0  0  0  0
  137.2130   77.6990  222.4630 C   0  0  0  0  0  0  0  0  0  0  0  0
  135.8430   77.8210  222.7120 C   0  0  0  0  0  0  0  0  0  0  0  0
  135.3540   78.8620  223.4690 C   0  0  0  0  0  0  0  0  0  0  0  0
  136.2430   79.7950  223.9830 C   0  0  0  0  0  0  0  0  0  0  0  0
  135.7780   80.8620  224.7520 C   0  0  0  0  0  0  0  0  0  0  0  0
  136.6990   81.7670  225.2440 C   0  0  0  0  0  0  0  0  0  0  0  0
  136.2350   82.9090  226.0640 C   0  0  0  0  0  0  0  0  0  0  0  0
  134.8350   82.8760  226.0730 F   0  0  0  0  0  0  0  0  0  0  0  0
  136.6410   82.7990  227.3600 F   0  0  0  0  0  0  0  0  0  0  0  0
  136.5920   84.1010  225.4780 F   0  0  0  0  0  0  0  0  0  0  0  0
  138.0640   81.6290  224.9840 C   0  0  0  0  0  0  0  0  0  0  0  0
  138.5220   80.5630  224.2150 C   0  0  0  0  0  0  0  0  0  0  0  0
  137.5860   79.6640  223.7300 C   0  0  0  0  0  0  0  0  0  0  0  0
  138.0490   78.6250  222.9790 N   0  0  0  0  0  0  0  0  0  0  0  0
  138.3900   75.4850  223.3880 H   0  0  0  0  0  0  0  0  0  0  0  0
  138.3738   73.4137  221.9146 H   0  0  0  0  0  0  0  0  0  0  0  0
  138.4263   74.4750  220.4848 H   0  0  0  0  0  0  0  0  0  0  0  0
  142.9748   74.7539  221.5772 H   0  0  0  0  0  0  0  0  0  0  0  0
  142.4461   73.9442  220.0234 H   0  0  0  0  0  0  0  0  0  0  0  0
  143.3936   76.7674  220.4277 H   0  0  0  0  0  0  0  0  0  0  0  0
  144.1595   75.4312  219.4834 H   0  0  0  0  0  0  0  0  0  0  0  0
  142.9325   77.1357  218.1392 H   0  0  0  0  0  0  0  0  0  0  0  0
  142.3976   75.3930  217.9463 H   0  0  0  0  0  0  0  0  0  0  0  0
  140.8575   77.6989  218.5765 H   0  0  0  0  0  0  0  0  0  0  0  0
  140.3652   75.9630  218.3210 H   0  0  0  0  0  0  0  0  0  0  0  0
  139.5463   76.5798  220.3862 H   0  0  0  0  0  0  0  0  0  0  0  0
  141.6816   78.9692  219.6100 H   0  0  0  0  0  0  0  0  0  0  0  0
  142.4660   80.7789  221.1028 H   0  0  0  0  0  0  0  0  0  0  0  0
  141.4618   78.3767  224.4879 H   0  0  0  0  0  0  0  0  0  0  0  0
  140.6778   76.5706  222.9929 H   0  0  0  0  0  0  0  0  0  0  0  0
  135.1471   77.0763  222.2982 H   0  0  0  0  0  0  0  0  0  0  0  0
  134.2751   78.9526  223.6633 H   0  0  0  0  0  0  0  0  0  0  0  0
  134.7046   80.9800  224.9615 H   0  0  0  0  0  0  0  0  0  0  0  0
  138.7775   82.3629  225.3870 H   0  0  0  0  0  0  0  0  0  0  0  0
  139.5934   80.4383  223.9991 H   0  0  0  0  0  0  0  0  0  0  0  0
  1  2  2  0
  2  3  1  0
  3  4  1  0
  4  5  1  0
  5  6  2  0
  5  7  1  0
  7  8  1  0
  8  9  1  0
  9 10  1  0
 10 11  1  0
 11 12  1  0
 12 13  1  0
 13 14  2  0
 14 15  1  0
 15 16  2  0
 16 17  1  0
 16 18  1  0
 18 19  2  0
  2 20  1  0
 20 21  2  0
 21 22  1  0
 22 23  2  0
 23 24  1  0
 24 25  2  0
 25 26  1  0
 26 27  1  0
 26 28  1  0
 26 29  1  0
 25 30  1  0
 30 31  2  0
 31 32  1  0
 32 33  2  0
 12  7  1  0
 19 13  1  0
 33 20  1  0
 32 23  1  0
  3 34  1  0
  4 35  1  0
  4 36  1  0
  8 37  1  0
  8 38  1  0
  9 39  1  0
  9 40  1  0
 10 41  1  0
 10 42  1  0
 11 43  1  0
 11 44  1  0
 12 45  1  6
 14 46  1  0
 15 47  1  0
 18 48  1  0
 19 49  1  0
 21 50  1  0
 22 51  1  0
 24 52  1  0
 30 53  1  0
 31 54  1  0
M  END
>  <smiles>  (7) 
O=C(NCC(=O)N1CCCCC1c1ccc(Cl)cc1)c1ccc2cc(C(F)(F)F)ccc2n1

>  <score_type>  (7) 
oracle

>  <origin>  (7) 
autodockgpu

>  <m_score__min__energy>  (7) 
-8.5999999999999996

>  <m_primary>  (7) 
energy

>  <rmsd>  (7) 
7.349387242443337

>  <m_score__min__rmsd>  (7) 
7.349387242443337

>  <meeko>  (7) 
{"free_energy": -7.1, "intermolecular_energy": -8.89, "internal_energy": -2.72, "cluster_size": 5, "cluster_id": 8, "rank_in_cluster": 3}

>  <energy>  (7) 
-8.32

>  <cluster_rmsd>  (7) 
1.27

>  <cluster>  (7) 
1

$$$$

     RDKit          3D

 54 57  0  0  0  0  0  0  0  0999 V2000
  140.6100   73.6700  220.6730 O   0  0  0  0  0  0  0  0  0  0  0  0
  140.0790   73.6850  221.8140 C   0  0  0  0  0  0  0  0  0  0  0  0
  139.5790   74.9160  222.3490 N   0  0  0  0  0  0  0  0  0  0  0  0
  139.7250   76.1090  221.5060 C   0  0  0  0  0  0  0  0  0  0  0  0
  139.3690   77.2700  222.3230 C   0  0  0  0  0  0  0  0  0  0  0  0
  138.3630   77.1780  223.0770 O   0  0  0  0  0  0  0  0  0  0  0  0
  140.0660   78.5050  222.3400 N   0  0  0  0  0  0  0  0  0  0  0  0
  139.4020   79.7220  222.7540 C   0  0  0  0  0  0  0  0  0  0  0  0
  140.2830   80.9180  222.7570 C   0  0  0  0  0  0  0  0  0  0  0  0
  141.5610   80.6320  223.4610 C   0  0  0  0  0  0  0  0  0  0  0  0
  142.2430   79.3740  223.0160 C   0  0  0  0  0  0  0  0  0  0  0  0
  141.4710   78.6320  221.9560 C   0  0  2  0  0  0  0  0  0  0  0  0
  141.6070   79.2040  220.5980 C   0  0  0  0  0  0  0  0  0  0  0  0
  142.0650   80.4720  220.3300 C   0  0  0  0  0  0  0  0  0  0  0  0
  142.1730   80.9680  219.0270 C   0  0  0  0  0  0  0  0  0  0  0  0
  141.8200   80.1900  217.9450 C   0  0  0  0  0  0  0  0  0  0  0  0
  141.9580   80.8160  216.3270 Cl  0  0  0  0  0  0  0  0  0  0  0  0
  141.3590   78.9190  218.2130 C   0  0  0  0  0  0  0  0  0  0  0  0
  141.2520   78.4260  219.5160 C   0  0  0  0  0  0  0  0  0  0  0  0
  139.9410   72.4900  222.6410 C   0  0  0  0  0  0  0  0  0  0  0  0
  139.1670   71.4250  222.1710 C   0  0  0  0  0  0  0  0  0  0  0  0
  139.0120   70.2810  222.9210 C   0  0  0  0  0  0  0  0  0  0  0  0
  139.6380   70.1970  224.1570 C   0  0  0  0  0  0  0  0  0  0  0  0
  139.5010   69.0510  224.9400 C   0  0  0  0  0  0  0  0  0  0  0  0
  140.1410   69.0110  226.1630 C   0  0  0  0  0  0  0  0  0  0  0  0
  140.0130   67.8080  227.0160 C   0  0  0  0  0  0  0  0  0  0  0  0
  138.9280   67.0660  226.5330 F   0  0  0  0  0  0  0  0  0  0  0  0
  141.1110   67.0060  226.9260 F   0  0  0  0  0  0  0  0  0  0  0  0
  139.6990   68.1620  228.3080 F   0  0  0  0  0  0  0  0  0  0  0  0
  140.9100   70.0850  226.6160 C   0  0  0  0  0  0  0  0  0  0  0  0
  141.0440   71.2260  225.8300 C   0  0  0  0  0  0  0  0  0  0  0  0
  140.3950   71.2500  224.6070 C   0  0  0  0  0  0  0  0  0  0  0  0
  140.5360   72.3740  223.8470 N   0  0  0  0  0  0  0  0  0  0  0  0
  139.1350   74.9540  223.2930 H   0  0  0  0  0  0  0  0  0  0  0  0
  140.7648   76.1986  221.1586 H   0  0  0  0  0  0  0  0  0  0  0  0
  139.0731   76.0418  220.6226 H   0  0  0  0  0  0  0  0  0  0  0  0
  138.5645   79.9106  222.0662 H   0  0  0  0  0  0  0  0  0  0  0  0
  139.0704   79.5674  223.7914 H   0  0  0  0  0  0  0  0  0  0  0  0
  140.5007   81.2079  221.7185 H   0  0  0  0  0  0  0  0  0  0  0  0
  139.7664   81.7345  223.2828 H   0  0  0  0  0  0  0  0  0  0  0  0
  142.2460   81.4750  223.2872 H   0  0  0  0  0  0  0  0  0  0  0  0
  141.3112   80.4955  224.5235 H   0  0  0  0  0  0  0  0  0  0  0  0
  143.2321   79.6351  222.6117 H   0  0  0  0  0  0  0  0  0  0  0  0
  142.3202   78.7129  223.8918 H   0  0  0  0  0  0  0  0  0  0  0  0
  141.9219   77.6306  221.8947 H   0  0  0  0  0  0  0  0  0  0  0  0
  142.3569   81.1194  221.1701 H   0  0  0  0  0  0  0  0  0  0  0  0
  142.5439   81.9906  218.8635 H   0  0  0  0  0  0  0  0  0  0  0  0
  141.0657   78.2715  217.3735 H   0  0  0  0  0  0  0  0  0  0  0  0
  140.8798   77.4041  219.6809 H   0  0  0  0  0  0  0  0  0  0  0  0
  138.6758   71.5020  221.1898 H   0  0  0  0  0  0  0  0  0  0  0  0
  138.4013   69.4462  222.5465 H   0  0  0  0  0  0  0  0  0  0  0  0
  138.8978   68.1996  224.5918 H   0  0  0  0  0  0  0  0  0  0  0  0
  141.4100   70.0293  227.5942 H   0  0  0  0  0  0  0  0  0  0  0  0
  141.6464   72.0815  226.1696 H   0  0  0  0  0  0  0  0  0  0  0  0
  1  2  2  0
  2  3  1  0
  3  4  1  0
  4  5  1  0
  5  6  2  0
  5  7  1  0
  7  8  1  0
  8  9  1  0
  9 10  1  0
 10 11  1  0
 11 12  1  0
 12 13  1  0
 13 14  2  0
 14 15  1  0
 15 16  2  0
 16 17  1  0
 16 18  1  0
 18 19  2  0
  2 20  1  0
 20 21  2  0
 21 22  1  0
 22 23  2  0
 23 24  1  0
 24 25  2  0
 25 26  1  0
 26 27  1  0
 26 28  1  0
 26 29  1  0
 25 30  1  0
 30 31  2  0
 31 32  1  0
 32 33  2  0
 12  7  1  0
 19 13  1  0
 33 20  1  0
 32 23  1  0
  3 34  1  0
  4 35  1  0
  4 36  1  0
  8 37  1  0
  8 38  1  0
  9 39  1  0
  9 40  1  0
 10 41  1  0
 10 42  1  0
 11 43  1  0
 11 44  1  0
 12 45  1  6
 14 46  1  0
 15 47  1  0
 18 48  1  0
 19 49  1  0
 21 50  1  0
 22 51  1  0
 24 52  1  0
 30 53  1  0
 31 54  1  0
M  END
>  <smiles>  (8) 
O=C(NCC(=O)N1CCCCC1c1ccc(Cl)cc1)c1ccc2cc(C(F)(F)F)ccc2n1

>  <score_type>  (8) 
oracle

>  <origin>  (8) 
autodockgpu

>  <m_score__min__energy>  (8) 
-8.5999999999999996

>  <m_primary>  (8) 
energy

>  <rmsd>  (8) 
3.943811895364486

>  <m_score__min__rmsd>  (8) 
3.943811895364486

>  <meeko>  (8) 
{"free_energy": -8.32, "intermolecular_energy": -10.11, "internal_energy": -1.77, "cluster_size": 10, "cluster_id": 1, "rank_in_cluster": 7}

>  <energy>  (8) 
-8.31

>  <cluster_rmsd>  (8) 
1.93

>  <cluster>  (8) 
1

$$$$

     RDKit          3D

 54 57  0  0  0  0  0  0  0  0999 V2000
  137.6870   76.3970  220.3050 O   0  0  0  0  0  0  0  0  0  0  0  0
  137.7200   76.4090  221.5630 C   0  0  0  0  0  0  0  0  0  0  0  0
  138.2490   75.2820  222.2720 N   0  0  0  0  0  0  0  0  0  0  0  0
  138.7320   74.1590  221.4580 C   0  0  0  0  0  0  0  0  0  0  0  0
  140.1890   74.1160  221.5910 C   0  0  0  0  0  0  0  0  0  0  0  0
  140.6890   73.2290  222.3340 O   0  0  0  0  0  0  0  0  0  0  0  0
  141.0980   74.9940  220.9480 N   0  0  0  0  0  0  0  0  0  0  0  0
  142.4910   74.6330  220.7960 C   0  0  0  0  0  0  0  0  0  0  0  0
  143.2980   75.6420  220.0640 C   0  0  0  0  0  0  0  0  0  0  0  0
  142.6180   76.0520  218.8070 C   0  0  0  0  0  0  0  0  0  0  0  0
  141.1790   76.4330  218.9800 C   0  0  0  0  0  0  0  0  0  0  0  0
  140.7010   76.2910  220.4010 C   0  0  2  0  0  0  0  0  0  0  0  0
  141.1160   77.3980  221.2910 C   0  0  0  0  0  0  0  0  0  0  0  0
  141.0740   77.3500  222.6650 C   0  0  0  0  0  0  0  0  0  0  0  0
  141.4770   78.4250  223.4630 C   0  0  0  0  0  0  0  0  0  0  0  0
  141.9390   79.5920  222.8930 C   0  0  0  0  0  0  0  0  0  0  0  0
  142.4380   80.9250  223.8950 Cl  0  0  0  0  0  0  0  0  0  0  0  0
  141.9810   79.6410  221.5160 C   0  0  0  0  0  0  0  0  0  0  0  0
  141.5780   78.5660  220.7200 C   0  0  0  0  0  0  0  0  0  0  0  0
  137.2360   77.5330  222.3590 C   0  0  0  0  0  0  0  0  0  0  0  0
  135.8680   77.6330  222.6310 C   0  0  0  0  0  0  0  0  0  0  0  0
  135.3720   78.6780  223.3780 C   0  0  0  0  0  0  0  0  0  0  0  0
  136.2520   79.6370  223.8590 C   0  0  0  0  0  0  0  0  0  0  0  0
  135.7800   80.7080  224.6180 C   0  0  0  0  0  0  0  0  0  0  0  0
  136.6910   81.6390  225.0780 C   0  0  0  0  0  0  0  0  0  0  0  0
  136.2200   82.7860  225.8860 C   0  0  0  0  0  0  0  0  0  0  0  0
  134.8260   82.6910  225.9750 F   0  0  0  0  0  0  0  0  0  0  0  0
  136.7000   82.7380  227.1600 F   0  0  0  0  0  0  0  0  0  0  0  0
  136.4890   83.9730  225.2450 F   0  0  0  0  0  0  0  0  0  0  0  0
  138.0540   81.5230  224.7950 C   0  0  0  0  0  0  0  0  0  0  0  0
  138.5190   80.4520  224.0370 C   0  0  0  0  0  0  0  0  0  0  0  0
  137.5930   79.5270  223.5840 C   0  0  0  0  0  0  0  0  0  0  0  0
  138.0620   78.4840  222.8440 N   0  0  0  0  0  0  0  0  0  0  0  0
  138.2860   75.2690  223.3150 H   0  0  0  0  0  0  0  0  0  0  0  0
  138.2936   73.2170  221.8193 H   0  0  0  0  0  0  0  0  0  0  0  0
  138.4421   74.2900  220.4050 H   0  0  0  0  0  0  0  0  0  0  0  0
  142.9261   74.5022  221.7978 H   0  0  0  0  0  0  0  0  0  0  0  0
  142.5180   73.7091  220.1997 H   0  0  0  0  0  0  0  0  0  0  0  0
  143.4365   76.5260  220.7038 H   0  0  0  0  0  0  0  0  0  0  0  0
  144.2712   75.1971  219.8091 H   0  0  0  0  0  0  0  0  0  0  0  0
  143.1556   76.9167  218.3908 H   0  0  0  0  0  0  0  0  0  0  0  0
  142.6341   75.1771  218.1405 H   0  0  0  0  0  0  0  0  0  0  0  0
  141.0540   77.4813  218.6709 H   0  0  0  0  0  0  0  0  0  0  0  0
  140.5801   75.7490  218.3608 H   0  0  0  0  0  0  0  0  0  0  0  0
  139.6032   76.3471  220.3608 H   0  0  0  0  0  0  0  0  0  0  0  0
  140.7106   76.4337  223.1531 H   0  0  0  0  0  0  0  0  0  0  0  0
  141.4248   78.3385  224.5583 H   0  0  0  0  0  0  0  0  0  0  0  0
  142.3440   80.5573  221.0276 H   0  0  0  0  0  0  0  0  0  0  0  0
  141.6296   78.6518  219.6246 H   0  0  0  0  0  0  0  0  0  0  0  0
  135.1797   76.8675  222.2435 H   0  0  0  0  0  0  0  0  0  0  0  0
  134.2951   78.7514  223.5901 H   0  0  0  0  0  0  0  0  0  0  0  0
  134.7083   80.8088  224.8447 H   0  0  0  0  0  0  0  0  0  0  0  0
  138.7600   82.2781  225.1712 H   0  0  0  0  0  0  0  0  0  0  0  0
  139.5888   80.3437  223.8050 H   0  0  0  0  0  0  0  0  0  0  0  0
  1  2  2  0
  2  3  1  0
  3  4  1  0
  4  5  1  0
  5  6  2  0
  5  7  1  0
  7  8  1  0
  8  9  1  0
  9 10  1  0
 10 11  1  0
 11 12  1  0
 12 13  1  0
 13 14  2  0
 14 15  1  0
 15 16  2  0
 16 17  1  0
 16 18  1  0
 18 19  2  0
  2 20  1  0
 20 21  2  0
 21 22  1  0
 22 23  2  0
 23 24  1  0
 24 25  2  0
 25 26  1  0
 26 27  1  0
 26 28  1  0
 26 29  1  0
 25 30  1  0
 30 31  2  0
 31 32  1  0
 32 33  2  0
 12  7  1  0
 19 13  1  0
 33 20  1  0
 32 23  1  0
  3 34  1  0
  4 35  1  0
  4 36  1  0
  8 37  1  0
  8 38  1  0
  9 39  1  0
  9 40  1  0
 10 41  1  0
 10 42  1  0
 11 43  1  0
 11 44  1  0
 12 45  1  6
 14 46  1  0
 15 47  1  0
 18 48  1  0
 19 49  1  0
 21 50  1  0
 22 51  1  0
 24 52  1  0
 30 53  1  0
 31 54  1  0
M  END
>  <smiles>  (9) 
O=C(NCC(=O)N1CCCCC1c1ccc(Cl)cc1)c1ccc2cc(C(F)(F)F)ccc2n1

>  <score_type>  (9) 
oracle

>  <origin>  (9) 
autodockgpu

>  <m_score__min__energy>  (9) 
-8.5999999999999996

>  <m_primary>  (9) 
energy

>  <rmsd>  (9) 
7.287588348593958

>  <m_score__min__rmsd>  (9) 
7.287588348593958

>  <meeko>  (9) 
{"free_energy": -7.1, "intermolecular_energy": -8.89, "internal_energy": -2.75, "cluster_size": 5, "cluster_id": 8, "rank_in_cluster": 2}

>  <energy>  (9) 
-8.3

>  <cluster_rmsd>  (9) 
1.95

>  <cluster>  (9) 
1

$$$$

     RDKit          3D

 54 57  0  0  0  0  0  0  0  0999 V2000
  140.7030   74.4480  221.9410 O   0  0  0  0  0  0  0  0  0  0  0  0
  139.7060   73.6800  221.9050 C   0  0  0  0  0  0  0  0  0  0  0  0
  138.6300   73.9520  221.0000 N   0  0  0  0  0  0  0  0  0  0  0  0
  138.7680   75.1420  220.1520 C   0  0  0  0  0  0  0  0  0  0  0  0
  139.9000   74.9100  219.2520 C   0  0  0  0  0  0  0  0  0  0  0  0
  139.9220   73.8350  218.5930 O   0  0  0  0  0  0  0  0  0  0  0  0
  140.9850   75.8010  219.0530 N   0  0  0  0  0  0  0  0  0  0  0  0
  142.3450   75.3090  219.0060 C   0  0  0  0  0  0  0  0  0  0  0  0
  143.3580   76.3630  218.7490 C   0  0  0  0  0  0  0  0  0  0  0  0
  142.9600   77.2090  217.5930 C   0  0  0  0  0  0  0  0  0  0  0  0
  141.5530   77.7210  217.6590 C   0  0  0  0  0  0  0  0  0  0  0  0
  140.8120   77.2420  218.8800 C   0  0  2  0  0  0  0  0  0  0  0  0
  141.1520   77.9760  220.1190 C   0  0  0  0  0  0  0  0  0  0  0  0
  141.0580   77.4500  221.3860 C   0  0  0  0  0  0  0  0  0  0  0  0
  141.3900   78.1860  222.5280 C   0  0  0  0  0  0  0  0  0  0  0  0
  141.8330   79.4870  222.4230 C   0  0  0  0  0  0  0  0  0  0  0  0
  142.2450   80.3960  223.8500 Cl  0  0  0  0  0  0  0  0  0  0  0  0
  141.9270   80.0160  221.1530 C   0  0  0  0  0  0  0  0  0  0  0  0
  141.5940   79.2790  220.0140 C   0  0  0  0  0  0  0  0  0  0  0  0
  139.5840   72.4990  222.7550 C   0  0  0  0  0  0  0  0  0  0  0  0
  138.6080   71.5450  222.4550 C   0  0  0  0  0  0  0  0  0  0  0  0
  138.4600   70.4180  223.2320 C   0  0  0  0  0  0  0  0  0  0  0  0
  139.2970   70.2400  224.3240 C   0  0  0  0  0  0  0  0  0  0  0  0
  139.1720   69.1090  225.1300 C   0  0  0  0  0  0  0  0  0  0  0  0
  140.0270   68.9730  226.2070 C   0  0  0  0  0  0  0  0  0  0  0  0
  139.9180   67.7820  227.0810 C   0  0  0  0  0  0  0  0  0  0  0  0
  141.0580   66.9990  226.8650 F   0  0  0  0  0  0  0  0  0  0  0  0
  139.9170   68.1220  228.4000 F   0  0  0  0  0  0  0  0  0  0  0  0
  138.8400   67.0110  226.7140 F   0  0  0  0  0  0  0  0  0  0  0  0
  140.9960   69.9370  226.4920 C   0  0  0  0  0  0  0  0  0  0  0  0
  141.1160   71.0630  225.6840 C   0  0  0  0  0  0  0  0  0  0  0  0
  140.2520   71.1850  224.6080 C   0  0  0  0  0  0  0  0  0  0  0  0
  140.3810   72.2930  223.8250 N   0  0  0  0  0  0  0  0  0  0  0  0
  137.7940   73.3290  220.9530 H   0  0  0  0  0  0  0  0  0  0  0  0
  137.8487   75.2960  219.5678 H   0  0  0  0  0  0  0  0  0  0  0  0
  138.9376   76.0388  220.7660 H   0  0  0  0  0  0  0  0  0  0  0  0
  142.5754   74.8354  219.9717 H   0  0  0  0  0  0  0  0  0  0  0  0
  142.3996   74.6022  218.1649 H   0  0  0  0  0  0  0  0  0  0  0  0
  143.4538   76.9965  219.6431 H   0  0  0  0  0  0  0  0  0  0  0  0
  144.3183   75.8792  218.5170 H   0  0  0  0  0  0  0  0  0  0  0  0
  143.6393   78.0730  217.5484 H   0  0  0  0  0  0  0  0  0  0  0  0
  143.0213   76.5705  216.6994 H   0  0  0  0  0  0  0  0  0  0  0  0
  141.5798   78.8206  217.6735 H   0  0  0  0  0  0  0  0  0  0  0  0
  141.0198   77.3364  216.7771 H   0  0  0  0  0  0  0  0  0  0  0  0
  139.7494   77.4594  218.6964 H   0  0  0  0  0  0  0  0  0  0  0  0
  140.7093   76.4136  221.5056 H   0  0  0  0  0  0  0  0  0  0  0  0
  141.2966   77.7216  223.5208 H   0  0  0  0  0  0  0  0  0  0  0  0
  142.2757   81.0523  221.0329 H   0  0  0  0  0  0  0  0  0  0  0  0
  141.6853   79.7432  219.0209 H   0  0  0  0  0  0  0  0  0  0  0  0
  137.9495   71.6963  221.5870 H   0  0  0  0  0  0  0  0  0  0  0  0
  137.6901   69.6704  222.9907 H   0  0  0  0  0  0  0  0  0  0  0  0
  138.4116   68.3441  224.9138 H   0  0  0  0  0  0  0  0  0  0  0  0
  141.6646   69.8061  227.3556 H   0  0  0  0  0  0  0  0  0  0  0  0
  141.8735   71.8327  225.8930 H   0  0  0  0  0  0  0  0  0  0  0  0
  1  2  2  0
  2  3  1  0
  3  4  1  0
  4  5  1  0
  5  6  2  0
  5  7  1  0
  7  8  1  0
  8  9  1  0
  9 10  1  0
 10 11  1  0
 11 12  1  0
 12 13  1  0
 13 14  2  0
 14 15  1  0
 15 16  2  0
 16 17  1  0
 16 18  1  0
 18 19  2  0
  2 20  1  0
 20 21  2  0
 21 22  1  0
 22 23  2  0
 23 24  1  0
 24 25  2  0
 25 26  1  0
 26 27  1  0
 26 28  1  0
 26 29  1  0
 25 30  1  0
 30 31  2  0
 31 32  1  0
 32 33  2  0
 12  7  1  0
 19 13  1  0
 33 20  1  0
 32 23  1  0
  3 34  1  0
  4 35  1  0
  4 36  1  0
  8 37  1  0
  8 38  1  0
  9 39  1  0
  9 40  1  0
 10 41  1  0
 10 42  1  0
 11 43  1  0
 11 44  1  0
 12 45  1  6
 14 46  1  0
 15 47  1  0
 18 48  1  0
 19 49  1  0
 21 50  1  0
 22 51  1  0
 24 52  1  0
 30 53  1  0
 31 54  1  0
M  END
>  <smiles>  (10) 
O=C(NCC(=O)N1CCCCC1c1ccc(Cl)cc1)c1ccc2cc(C(F)(F)F)ccc2n1

>  <score_type>  (10) 
oracle

>  <origin>  (10) 
autodockgpu

>  <m_score__min__energy>  (10) 
-8.5999999999999996

>  <m_primary>  (10) 
energy

>  <rmsd>  (10) 
2.4303168154039807

>  <m_score__min__rmsd>  (10) 
2.4303168154039807

>  <meeko>  (10) 
{"free_energy": -7.83, "intermolecular_energy": -9.62, "internal_energy": -1.8, "cluster_size": 6, "cluster_id": 5, "rank_in_cluster": 5}

>  <energy>  (10) 
-8.28

>  <cluster_rmsd>  (10) 
1.93

>  <cluster>  (10) 
1

$$$$

     RDKit          3D

 54 57  0  0  0  0  0  0  0  0999 V2000
  140.3410   72.7580  220.4690 O   0  0  0  0  0  0  0  0  0  0  0  0
  139.9240   73.0270  221.6260 C   0  0  0  0  0  0  0  0  0  0  0  0
  139.4930   74.3580  221.9350 N   0  0  0  0  0  0  0  0  0  0  0  0
  139.5690   75.3430  220.8490 C   0  0  0  0  0  0  0  0  0  0  0  0
  140.6210   76.3000  221.1980 C   0  0  0  0  0  0  0  0  0  0  0  0
  141.8160   75.9780  220.9620 O   0  0  0  0  0  0  0  0  0  0  0  0
  140.4090   77.5730  221.7850 N   0  0  0  0  0  0  0  0  0  0  0  0
  139.0720   78.0280  222.0990 C   0  0  0  0  0  0  0  0  0  0  0  0
  139.0260   79.3640  222.7460 C   0  0  0  0  0  0  0  0  0  0  0  0
  139.9930   79.4390  223.8740 C   0  0  0  0  0  0  0  0  0  0  0  0
  141.3770   78.9750  223.5310 C   0  0  0  0  0  0  0  0  0  0  0  0
  141.4990   78.4930  222.1090 C   0  0  2  0  0  0  0  0  0  0  0  0
  141.6000   79.5800  221.1100 C   0  0  0  0  0  0  0  0  0  0  0  0
  141.4970   80.9180  221.4030 C   0  0  0  0  0  0  0  0  0  0  0  0
  141.5980   81.9090  220.4210 C   0  0  0  0  0  0  0  0  0  0  0  0
  141.8090   81.5740  219.1010 C   0  0  0  0  0  0  0  0  0  0  0  0
  141.9330   82.8130  217.8860 Cl  0  0  0  0  0  0  0  0  0  0  0  0
  141.9110   80.2310  218.8060 C   0  0  0  0  0  0  0  0  0  0  0  0
  141.8090   79.2430  219.7890 C   0  0  0  0  0  0  0  0  0  0  0  0
  139.8550   72.0350  222.6950 C   0  0  0  0  0  0  0  0  0  0  0  0
  139.1110   70.8700  222.4910 C   0  0  0  0  0  0  0  0  0  0  0  0
  139.0200   69.9100  223.4740 C   0  0  0  0  0  0  0  0  0  0  0  0
  139.6810   70.1160  224.6780 C   0  0  0  0  0  0  0  0  0  0  0  0
  139.6080   69.1620  225.6930 C   0  0  0  0  0  0  0  0  0  0  0  0
  140.2810   69.4080  226.8740 C   0  0  0  0  0  0  0  0  0  0  0  0
  140.2230   68.4140  227.9700 C   0  0  0  0  0  0  0  0  0  0  0  0
  139.3760   67.3810  227.5520 F   0  0  0  0  0  0  0  0  0  0  0  0
  141.4410   67.8540  228.2100 F   0  0  0  0  0  0  0  0  0  0  0  0
  139.6430   68.9630  229.0900 F   0  0  0  0  0  0  0  0  0  0  0  0
  141.0200   70.5790  227.0590 C   0  0  0  0  0  0  0  0  0  0  0  0
  141.0880   71.5270  226.0420 C   0  0  0  0  0  0  0  0  0  0  0  0
  140.4080   71.2650  224.8650 C   0  0  0  0  0  0  0  0  0  0  0  0
  140.4840   72.2020  223.8770 N   0  0  0  0  0  0  0  0  0  0  0  0
  139.1440   74.6050  222.8870 H   0  0  0  0  0  0  0  0  0  0  0  0
  139.8169   74.8405  219.9024 H   0  0  0  0  0  0  0  0  0  0  0  0
  138.6042   75.8559  220.7219 H   0  0  0  0  0  0  0  0  0  0  0  0
  138.4943   78.0761  221.1641 H   0  0  0  0  0  0  0  0  0  0  0  0
  138.6521   77.3105  222.8193 H   0  0  0  0  0  0  0  0  0  0  0  0
  139.2794   80.1337  222.0021 H   0  0  0  0  0  0  0  0  0  0  0  0
  138.0123   79.5302  223.1394 H   0  0  0  0  0  0  0  0  0  0  0  0
  140.0531   80.4855  224.2075 H   0  0  0  0  0  0  0  0  0  0  0  0
  139.6183   78.7624  224.6562 H   0  0  0  0  0  0  0  0  0  0  0  0
  142.0745   79.8127  223.6786 H   0  0  0  0  0  0  0  0  0  0  0  0
  141.6123   78.1251  224.1886 H   0  0  0  0  0  0  0  0  0  0  0  0
  142.4567   77.9553  222.0491 H   0  0  0  0  0  0  0  0  0  0  0  0
  141.3291   81.2210  222.4470 H   0  0  0  0  0  0  0  0  0  0  0  0
  141.5080   82.9677  220.7056 H   0  0  0  0  0  0  0  0  0  0  0  0
  142.0782   79.9271  217.7621 H   0  0  0  0  0  0  0  0  0  0  0  0
  141.8965   78.1837  219.5058 H   0  0  0  0  0  0  0  0  0  0  0  0
  138.5916   70.7179  221.5334 H   0  0  0  0  0  0  0  0  0  0  0  0
  138.4331   68.9945  223.3083 H   0  0  0  0  0  0  0  0  0  0  0  0
  139.0289   68.2368  225.5564 H   0  0  0  0  0  0  0  0  0  0  0  0
  141.5481   70.7519  228.0083 H   0  0  0  0  0  0  0  0  0  0  0  0
  141.6641   72.4554  226.1696 H   0  0  0  0  0  0  0  0  0  0  0  0
  1  2  2  0
  2  3  1  0
  3  4  1  0
  4  5  1  0
  5  6  2  0
  5  7  1  0
  7  8  1  0
  8  9  1  0
  9 10  1  0
 10 11  1  0
 11 12  1  0
 12 13  1  0
 13 14  2  0
 14 15  1  0
 15 16  2  0
 16 17  1  0
 16 18  1  0
 18 19  2  0
  2 20  1  0
 20 21  2  0
 21 22  1  0
 22 23  2  0
 23 24  1  0
 24 25  2  0
 25 26  1  0
 26 27  1  0
 26 28  1  0
 26 29  1  0
 25 30  1  0
 30 31  2  0
 31 32  1  0
 32 33  2  0
 12  7  1  0
 19 13  1  0
 33 20  1  0
 32 23  1  0
  3 34  1  0
  4 35  1  0
  4 36  1  0
  8 37  1  0
  8 38  1  0
  9 39  1  0
  9 40  1  0
 10 41  1  0
 10 42  1  0
 11 43  1  0
 11 44  1  0
 12 45  1  1
 14 46  1  0
 15 47  1  0
 18 48  1  0
 19 49  1  0
 21 50  1  0
 22 51  1  0
 24 52  1  0
 30 53  1  0
 31 54  1  0
M  END
>  <smiles>  (11) 
O=C(NCC(=O)N1CCCCC1c1ccc(Cl)cc1)c1ccc2cc(C(F)(F)F)ccc2n1

>  <score_type>  (11) 
oracle

>  <origin>  (11) 
autodockgpu

>  <m_score__min__energy>  (11) 
-8.5999999999999996

>  <m_primary>  (11) 
energy

>  <rmsd>  (11) 
3.3908620355290453

>  <m_score__min__rmsd>  (11) 
3.3908620355290453

>  <meeko>  (11) 
{"free_energy": -8.53, "intermolecular_energy": -10.32, "internal_energy": -1.5, "cluster_size": 10, "cluster_id": 1, "rank_in_cluster": 5}

>  <energy>  (11) 
-8.28

>  <cluster_rmsd>  (11) 
0.0

>  <cluster>  (11) 
2

$$$$

     RDKit          3D

 54 57  0  0  0  0  0  0  0  0999 V2000
  138.2900   71.8140  220.7150 O   0  0  0  0  0  0  0  0  0  0  0  0
  138.7240   72.2680  221.8060 C   0  0  0  0  0  0  0  0  0  0  0  0
  138.9200   73.6790  221.9620 N   0  0  0  0  0  0  0  0  0  0  0  0
  138.5900   74.5210  220.8070 C   0  0  0  0  0  0  0  0  0  0  0  0
  139.6520   74.3400  219.8140 C   0  0  0  0  0  0  0  0  0  0  0  0
  139.4020   73.6290  218.8040 O   0  0  0  0  0  0  0  0  0  0  0  0
  140.9510   74.9020  219.8920 N   0  0  0  0  0  0  0  0  0  0  0  0
  142.0450   74.1550  220.4740 C   0  0  0  0  0  0  0  0  0  0  0  0
  143.3470   74.8690  220.4400 C   0  0  0  0  0  0  0  0  0  0  0  0
  143.6160   75.4160  219.0840 C   0  0  0  0  0  0  0  0  0  0  0  0
  142.4780   76.1970  218.4980 C   0  0  0  0  0  0  0  0  0  0  0  0
  141.2710   76.2410  219.3980 C   0  0  2  0  0  0  0  0  0  0  0  0
  141.3830   77.2110  220.5100 C   0  0  0  0  0  0  0  0  0  0  0  0
  141.0500   76.9390  221.8160 C   0  0  0  0  0  0  0  0  0  0  0  0
  141.1720   77.8920  222.8320 C   0  0  0  0  0  0  0  0  0  0  0  0
  141.6390   79.1600  222.5580 C   0  0  0  0  0  0  0  0  0  0  0  0
  141.7880   80.3390  223.8290 Cl  0  0  0  0  0  0  0  0  0  0  0  0
  141.9720   79.4330  221.2480 C   0  0  0  0  0  0  0  0  0  0  0  0
  141.8490   78.4790  220.2350 C   0  0  0  0  0  0  0  0  0  0  0  0
  139.0480   71.4160  222.9460 C   0  0  0  0  0  0  0  0  0  0  0  0
  138.6280   70.0830  222.9380 C   0  0  0  0  0  0  0  0  0  0  0  0
  138.9130   69.2470  223.9940 C   0  0  0  0  0  0  0  0  0  0  0  0
  139.6260   69.7480  225.0750 C   0  0  0  0  0  0  0  0  0  0  0  0
  139.9290   68.9260  226.1600 C   0  0  0  0  0  0  0  0  0  0  0  0
  140.6410   69.4660  227.2130 C   0  0  0  0  0  0  0  0  0  0  0  0
  140.9790   68.6180  228.3790 C   0  0  0  0  0  0  0  0  0  0  0  0
  142.0310   69.2410  229.0590 F   0  0  0  0  0  0  0  0  0  0  0  0
  139.9400   68.5290  229.2560 F   0  0  0  0  0  0  0  0  0  0  0  0
  141.4520   67.3950  227.9660 F   0  0  0  0  0  0  0  0  0  0  0  0
  141.0520   70.8010  227.2040 C   0  0  0  0  0  0  0  0  0  0  0  0
  140.7460   71.6160  226.1180 C   0  0  0  0  0  0  0  0  0  0  0  0
  140.0320   71.0590  225.0700 C   0  0  0  0  0  0  0  0  0  0  0  0
  139.7400   71.8690  224.0130 N   0  0  0  0  0  0  0  0  0  0  0  0
  139.2790   74.0780  222.8570 H   0  0  0  0  0  0  0  0  0  0  0  0
  137.6225   74.2145  220.3827 H   0  0  0  0  0  0  0  0  0  0  0  0
  138.5140   75.5769  221.1057 H   0  0  0  0  0  0  0  0  0  0  0  0
  141.7965   73.9378  221.5233 H   0  0  0  0  0  0  0  0  0  0  0  0
  142.1653   73.2430  219.8708 H   0  0  0  0  0  0  0  0  0  0  0  0
  143.3230   75.6967  221.1641 H   0  0  0  0  0  0  0  0  0  0  0  0
  144.1453   74.1572  220.6969 H   0  0  0  0  0  0  0  0  0  0  0  0
  144.4922   76.0781  219.1469 H   0  0  0  0  0  0  0  0  0  0  0  0
  143.7799   74.5527  218.4223 H   0  0  0  0  0  0  0  0  0  0  0  0
  142.8170   77.2274  218.3153 H   0  0  0  0  0  0  0  0  0  0  0  0
  142.1772   75.6933  217.5675 H   0  0  0  0  0  0  0  0  0  0  0  0
  140.4397   76.6062  218.7771 H   0  0  0  0  0  0  0  0  0  0  0  0
  140.6746   75.9369  222.0704 H   0  0  0  0  0  0  0  0  0  0  0  0
  140.8920   77.6269  223.8622 H   0  0  0  0  0  0  0  0  0  0  0  0
  142.3468   80.4350  220.9922 H   0  0  0  0  0  0  0  0  0  0  0  0
  142.1277   78.7430  219.2042 H   0  0  0  0  0  0  0  0  0  0  0  0
  138.0626   69.6970  222.0770 H   0  0  0  0  0  0  0  0  0  0  0  0
  138.5810   68.1984  223.9816 H   0  0  0  0  0  0  0  0  0  0  0  0
  139.6089   67.8737  226.1767 H   0  0  0  0  0  0  0  0  0  0  0  0
  141.6175   71.2082  228.0552 H   0  0  0  0  0  0  0  0  0  0  0  0
  141.0614   72.6695  226.0928 H   0  0  0  0  0  0  0  0  0  0  0  0
  1  2  2  0
  2  3  1  0
  3  4  1  0
  4  5  1  0
  5  6  2  0
  5  7  1  0
  7  8  1  0
  8  9  1  0
  9 10  1  0
 10 11  1  0
 11 12  1  0
 12 13  1  0
 13 14  2  0
 14 15  1  0
 15 16  2  0
 16 17  1  0
 16 18  1  0
 18 19  2  0
  2 20  1  0
 20 21  2  0
 21 22  1  0
 22 23  2  0
 23 24  1  0
 24 25  2  0
 25 26  1  0
 26 27  1  0
 26 28  1  0
 26 29  1  0
 25 30  1  0
 30 31  2  0
 31 32  1  0
 32 33  2  0
 12  7  1  0
 19 13  1  0
 33 20  1  0
 32 23  1  0
  3 34  1  0
  4 35  1  0
  4 36  1  0
  8 37  1  0
  8 38  1  0
  9 39  1  0
  9 40  1  0
 10 41  1  0
 10 42  1  0
 11 43  1  0
 11 44  1  0
 12 45  1  6
 14 46  1  0
 15 47  1  0
 18 48  1  0
 19 49  1  0
 21 50  1  0
 22 51  1  0
 24 52  1  0
 30 53  1  0
 31 54  1  0
M  END
>  <smiles>  (12) 
O=C(NCC(=O)N1CCCCC1c1ccc(Cl)cc1)c1ccc2cc(C(F)(F)F)ccc2n1

>  <score_type>  (12) 
oracle

>  <origin>  (12) 
autodockgpu

>  <m_score__min__energy>  (12) 
-8.5999999999999996

>  <m_primary>  (12) 
energy

>  <rmsd>  (12) 
2.093700401477182

>  <m_score__min__rmsd>  (12) 
2.093700401477182

>  <meeko>  (12) 
{"free_energy": -7.92, "intermolecular_energy": -9.71, "internal_energy": -1.91, "cluster_size": 6, "cluster_id": 5, "rank_in_cluster": 2}

>  <energy>  (12) 
-8.26

>  <cluster_rmsd>  (12) 
0.22

>  <cluster>  (12) 
2

$$$$

     RDKit          3D

 54 57  0  0  0  0  0  0  0  0999 V2000
  137.9150   73.4250  220.6820 O   0  0  0  0  0  0  0  0  0  0  0  0
  137.8820   74.1740  221.6920 C   0  0  0  0  0  0  0  0  0  0  0  0
  136.8970   73.9550  222.7090 N   0  0  0  0  0  0  0  0  0  0  0  0
  135.9680   72.8390  222.4960 C   0  0  0  0  0  0  0  0  0  0  0  0
  136.4650   71.7000  223.2700 C   0  0  0  0  0  0  0  0  0  0  0  0
  135.7590   71.2830  224.2290 O   0  0  0  0  0  0  0  0  0  0  0  0
  137.6840   71.0160  223.0330 N   0  0  0  0  0  0  0  0  0  0  0  0
  137.7010   69.7750  222.2890 C   0  0  0  0  0  0  0  0  0  0  0  0
  139.0600   69.2100  222.0920 C   0  0  0  0  0  0  0  0  0  0  0  0
  139.9990   70.2500  221.5950 C   0  0  0  0  0  0  0  0  0  0  0  0
  139.9780   71.5260  222.3810 C   0  0  0  0  0  0  0  0  0  0  0  0
  138.9770   71.5060  223.5070 C   0  0  2  0  0  0  0  0  0  0  0  0
  139.4290   70.7590  224.7020 C   0  0  0  0  0  0  0  0  0  0  0  0
  138.7530   69.7000  225.2590 C   0  0  0  0  0  0  0  0  0  0  0  0
  139.2200   69.0270  226.3930 C   0  0  0  0  0  0  0  0  0  0  0  0
  140.3970   69.4070  227.0020 C   0  0  0  0  0  0  0  0  0  0  0  0
  140.9710   68.5640  228.4120 Cl  0  0  0  0  0  0  0  0  0  0  0  0
  141.0750   70.4700  226.4450 C   0  0  0  0  0  0  0  0  0  0  0  0
  140.6060   71.1400  225.3130 C   0  0  0  0  0  0  0  0  0  0  0  0
  138.8140   75.2800  221.8900 C   0  0  0  0  0  0  0  0  0  0  0  0
  140.1640   75.0950  221.5770 C   0  0  0  0  0  0  0  0  0  0  0  0
  141.0740   76.1130  221.7490 C   0  0  0  0  0  0  0  0  0  0  0  0
  140.6330   77.3330  222.2410 C   0  0  0  0  0  0  0  0  0  0  0  0
  141.5310   78.3840  222.4270 C   0  0  0  0  0  0  0  0  0  0  0  0
  141.0490   79.5820  222.9190 C   0  0  0  0  0  0  0  0  0  0  0  0
  141.9790   80.7150  223.1270 C   0  0  0  0  0  0  0  0  0  0  0  0
  143.2360   80.1750  223.4200 F   0  0  0  0  0  0  0  0  0  0  0  0
  142.1230   81.4630  221.9970 F   0  0  0  0  0  0  0  0  0  0  0  0
  141.6050   81.4520  224.2260 F   0  0  0  0  0  0  0  0  0  0  0  0
  139.6970   79.7480  223.2270 C   0  0  0  0  0  0  0  0  0  0  0  0
  138.8050   78.6960  223.0400 C   0  0  0  0  0  0  0  0  0  0  0  0
  139.3050   77.5020  222.5460 C   0  0  0  0  0  0  0  0  0  0  0  0
  138.4210   76.4810  222.3660 N   0  0  0  0  0  0  0  0  0  0  0  0
  136.8510   74.5630  223.5560 H   0  0  0  0  0  0  0  0  0  0  0  0
  134.9612   73.1171  222.8410 H   0  0  0  0  0  0  0  0  0  0  0  0
  135.9061   72.5845  221.4277 H   0  0  0  0  0  0  0  0  0  0  0  0
  137.0945   69.0364  222.8336 H   0  0  0  0  0  0  0  0  0  0  0  0
  137.2994   69.9967  221.2892 H   0  0  0  0  0  0  0  0  0  0  0  0
  139.4302   68.8190  223.0512 H   0  0  0  0  0  0  0  0  0  0  0  0
  139.0011   68.4037  221.3460 H   0  0  0  0  0  0  0  0  0  0  0  0
  141.0188   69.8394  221.6319 H   0  0  0  0  0  0  0  0  0  0  0  0
  139.6769   70.5034  220.5742 H   0  0  0  0  0  0  0  0  0  0  0  0
  140.9792   71.6935  222.8047 H   0  0  0  0  0  0  0  0  0  0  0  0
  139.6839   72.3322  221.6928 H   0  0  0  0  0  0  0  0  0  0  0  0
  138.8696   72.5488  223.8402 H   0  0  0  0  0  0  0  0  0  0  0  0
  137.8111   69.3698  224.7966 H   0  0  0  0  0  0  0  0  0  0  0  0
  138.6420   68.1857  226.8031 H   0  0  0  0  0  0  0  0  0  0  0  0
  142.0165   70.8015  226.9074 H   0  0  0  0  0  0  0  0  0  0  0  0
  141.1824   71.9825  224.9031 H   0  0  0  0  0  0  0  0  0  0  0  0
  140.5031   74.1234  221.1883 H   0  0  0  0  0  0  0  0  0  0  0  0
  142.1348   75.9617  221.5002 H   0  0  0  0  0  0  0  0  0  0  0  0
  142.5977   78.2621  222.1877 H   0  0  0  0  0  0  0  0  0  0  0  0
  139.3367   80.7111  223.6178 H   0  0  0  0  0  0  0  0  0  0  0  0
  137.7368   78.8090  223.2769 H   0  0  0  0  0  0  0  0  0  0  0  0
  1  2  2  0
  2  3  1  0
  3  4  1  0
  4  5  1  0
  5  6  2  0
  5  7  1  0
  7  8  1  0
  8  9  1  0
  9 10  1  0
 10 11  1  0
 11 12  1  0
 12 13  1  0
 13 14  2  0
 14 15  1  0
 15 16  2  0
 16 17  1  0
 16 18  1  0
 18 19  2  0
  2 20  1  0
 20 21  2  0
 21 22  1  0
 22 23  2  0
 23 24  1  0
 24 25  2  0
 25 26  1  0
 26 27  1  0
 26 28  1  0
 26 29  1  0
 25 30  1  0
 30 31  2  0
 31 32  1  0
 32 33  2  0
 12  7  1  0
 19 13  1  0
 33 20  1  0
 32 23  1  0
  3 34  1  0
  4 35  1  0
  4 36  1  0
  8 37  1  0
  8 38  1  0
  9 39  1  0
  9 40  1  0
 10 41  1  0
 10 42  1  0
 11 43  1  0
 11 44  1  0
 12 45  1  1
 14 46  1  0
 15 47  1  0
 18 48  1  0
 19 49  1  0
 21 50  1  0
 22 51  1  0
 24 52  1  0
 30 53  1  0
 31 54  1  0
M  END
>  <smiles>  (13) 
O=C(NCC(=O)N1CCCCC1c1ccc(Cl)cc1)c1ccc2cc(C(F)(F)F)ccc2n1

>  <score_type>  (13) 
oracle

>  <origin>  (13) 
autodockgpu

>  <m_score__min__energy>  (13) 
-8.5999999999999996

>  <m_primary>  (13) 
energy

>  <rmsd>  (13) 
7.287138083979446

>  <m_score__min__rmsd>  (13) 
7.287138083979446

>  <meeko>  (13) 
{"free_energy": -8.06, "intermolecular_energy": -9.85, "internal_energy": -2.11, "cluster_size": 17, "cluster_id": 4, "rank_in_cluster": 1}

>  <energy>  (13) 
-8.23

>  <cluster_rmsd>  (13) 
1.03

>  <cluster>  (13) 
2

$$$$

     RDKit          3D

 54 57  0  0  0  0  0  0  0  0999 V2000
  137.6680   76.2800  220.3180 O   0  0  0  0  0  0  0  0  0  0  0  0
  137.8030   76.3580  221.5670 C   0  0  0  0  0  0  0  0  0  0  0  0
  138.4670   75.3060  222.2780 N   0  0  0  0  0  0  0  0  0  0  0  0
  138.9600   74.1790  221.4760 C   0  0  0  0  0  0  0  0  0  0  0  0
  140.4240   74.2280  221.5040 C   0  0  0  0  0  0  0  0  0  0  0  0
  141.0310   73.3920  222.2260 O   0  0  0  0  0  0  0  0  0  0  0  0
  141.2270   75.1450  220.7790 N   0  0  0  0  0  0  0  0  0  0  0  0
  142.6120   74.8430  220.4890 C   0  0  0  0  0  0  0  0  0  0  0  0
  143.3000   75.8860  219.6860 C   0  0  0  0  0  0  0  0  0  0  0  0
  142.4830   76.2690  218.5040 C   0  0  0  0  0  0  0  0  0  0  0  0
  141.0530   76.5890  218.8210 C   0  0  0  0  0  0  0  0  0  0  0  0
  140.7250   76.4250  220.2820 C   0  0  2  0  0  0  0  0  0  0  0  0
  141.1790   77.5470  221.1330 C   0  0  0  0  0  0  0  0  0  0  0  0
  141.7010   78.7250  220.6540 C   0  0  0  0  0  0  0  0  0  0  0  0
  142.1200   79.7560  221.5000 C   0  0  0  0  0  0  0  0  0  0  0  0
  142.0200   79.6290  222.8690 C   0  0  0  0  0  0  0  0  0  0  0  0
  142.5420   80.9180  223.9150 Cl  0  0  0  0  0  0  0  0  0  0  0  0
  141.4970   78.4470  223.3510 C   0  0  0  0  0  0  0  0  0  0  0  0
  141.0800   77.4180  222.5030 C   0  0  0  0  0  0  0  0  0  0  0  0
  137.3070   77.4860  222.3490 C   0  0  0  0  0  0  0  0  0  0  0  0
  135.9390   77.5720  222.6230 C   0  0  0  0  0  0  0  0  0  0  0  0
  135.4310   78.6190  223.3590 C   0  0  0  0  0  0  0  0  0  0  0  0
  136.3000   79.5960  223.8260 C   0  0  0  0  0  0  0  0  0  0  0  0
  135.8160   80.6690  224.5730 C   0  0  0  0  0  0  0  0  0  0  0  0
  136.7170   81.6180  225.0190 C   0  0  0  0  0  0  0  0  0  0  0  0
  136.2320   82.7690  225.8140 C   0  0  0  0  0  0  0  0  0  0  0  0
  134.8350   82.6980  225.8440 F   0  0  0  0  0  0  0  0  0  0  0  0
  136.6580   82.7050  227.1070 F   0  0  0  0  0  0  0  0  0  0  0  0
  136.5490   83.9540  225.1920 F   0  0  0  0  0  0  0  0  0  0  0  0
  138.0800   81.5150  224.7350 C   0  0  0  0  0  0  0  0  0  0  0  0
  138.5570   80.4410  223.9890 C   0  0  0  0  0  0  0  0  0  0  0  0
  137.6410   79.4990  223.5500 C   0  0  0  0  0  0  0  0  0  0  0  0
  138.1220   78.4530  222.8210 N   0  0  0  0  0  0  0  0  0  0  0  0
  138.5900   75.3480  223.3130 H   0  0  0  0  0  0  0  0  0  0  0  0
  138.6074   73.2295  221.9052 H   0  0  0  0  0  0  0  0  0  0  0  0
  138.5891   74.2463  220.4426 H   0  0  0  0  0  0  0  0  0  0  0  0
  143.1488   74.7298  221.4424 H   0  0  0  0  0  0  0  0  0  0  0  0
  142.6189   73.9214  219.8884 H   0  0  0  0  0  0  0  0  0  0  0  0
  143.4641   76.7743  220.3138 H   0  0  0  0  0  0  0  0  0  0  0  0
  144.2608   75.4823  219.3339 H   0  0  0  0  0  0  0  0  0  0  0  0
  142.9404   77.1562  218.0417 H   0  0  0  0  0  0  0  0  0  0  0  0
  142.4699   75.3969  217.8337 H   0  0  0  0  0  0  0  0  0  0  0  0
  140.8543   77.6315  218.5316 H   0  0  0  0  0  0  0  0  0  0  0  0
  140.4245   75.8813  218.2604 H   0  0  0  0  0  0  0  0  0  0  0  0
  139.6272   76.4355  220.3513 H   0  0  0  0  0  0  0  0  0  0  0  0
  141.7923   78.8612  219.5663 H   0  0  0  0  0  0  0  0  0  0  0  0
  142.5342   80.6791  221.0684 H   0  0  0  0  0  0  0  0  0  0  0  0
  141.4053   78.3102  224.4386 H   0  0  0  0  0  0  0  0  0  0  0  0
  140.6676   76.4934  222.9331 H   0  0  0  0  0  0  0  0  0  0  0  0
  135.2597   76.7934  222.2459 H   0  0  0  0  0  0  0  0  0  0  0  0
  134.3539   78.6804  223.5735 H   0  0  0  0  0  0  0  0  0  0  0  0
  134.7438   80.7583  224.8019 H   0  0  0  0  0  0  0  0  0  0  0  0
  138.7773   82.2830  225.1010 H   0  0  0  0  0  0  0  0  0  0  0  0
  139.6275   80.3433  223.7554 H   0  0  0  0  0  0  0  0  0  0  0  0
  1  2  2  0
  2  3  1  0
  3  4  1  0
  4  5  1  0
  5  6  2  0
  5  7  1  0
  7  8  1  0
  8  9  1  0
  9 10  1  0
 10 11  1  0
 11 12  1  0
 12 13  1  0
 13 14  2  0
 14 15  1  0
 15 16  2  0
 16 17  1  0
 16 18  1  0
 18 19  2  0
  2 20  1  0
 20 21  2  0
 21 22  1  0
 22 23  2  0
 23 24  1  0
 24 25  2  0
 25 26  1  0
 26 27  1  0
 26 28  1  0
 26 29  1  0
 25 30  1  0
 30 31  2  0
 31 32  1  0
 32 33  2  0
 12  7  1  0
 19 13  1  0
 33 20  1  0
 32 23  1  0
  3 34  1  0
  4 35  1  0
  4 36  1  0
  8 37  1  0
  8 38  1  0
  9 39  1  0
  9 40  1  0
 10 41  1  0
 10 42  1  0
 11 43  1  0
 11 44  1  0
 12 45  1  6
 14 46  1  0
 15 47  1  0
 18 48  1  0
 19 49  1  0
 21 50  1  0
 22 51  1  0
 24 52  1  0
 30 53  1  0
 31 54  1  0
M  END
>  <smiles>  (14) 
O=C(NCC(=O)N1CCCCC1c1ccc(Cl)cc1)c1ccc2cc(C(F)(F)F)ccc2n1

>  <score_type>  (14) 
oracle

>  <origin>  (14) 
autodockgpu

>  <m_score__min__energy>  (14) 
-8.5999999999999996

>  <m_primary>  (14) 
energy

>  <rmsd>  (14) 
7.247692602767935

>  <m_score__min__rmsd>  (14) 
7.247692602767935

>  <meeko>  (14) 
{"free_energy": -7.08, "intermolecular_energy": -8.87, "internal_energy": -2.73, "cluster_size": 5, "cluster_id": 8, "rank_in_cluster": 4}

>  <energy>  (14) 
-8.09

>  <cluster_rmsd>  (14) 
0.26

>  <cluster>  (14) 
2

$$$$

     RDKit          3D

 54 57  0  0  0  0  0  0  0  0999 V2000
  140.5360   73.5890  220.5920 O   0  0  0  0  0  0  0  0  0  0  0  0
  140.0630   73.6090  221.7580 C   0  0  0  0  0  0  0  0  0  0  0  0
  139.6120   74.8460  222.3220 N   0  0  0  0  0  0  0  0  0  0  0  0
  139.7360   76.0400  221.4760 C   0  0  0  0  0  0  0  0  0  0  0  0
  139.1450   77.1610  222.2100 C   0  0  0  0  0  0  0  0  0  0  0  0
  138.0040   76.9970  222.7220 O   0  0  0  0  0  0  0  0  0  0  0  0
  139.7510   78.4290  222.3970 N   0  0  0  0  0  0  0  0  0  0  0  0
  140.9830   78.5540  223.1450 C   0  0  0  0  0  0  0  0  0  0  0  0
  141.5080   79.9420  223.2130 C   0  0  0  0  0  0  0  0  0  0  0  0
  141.5280   80.5670  221.8630 C   0  0  0  0  0  0  0  0  0  0  0  0
  140.2420   80.4380  221.1050 C   0  0  0  0  0  0  0  0  0  0  0  0
  139.1910   79.6670  221.8590 C   0  0  2  0  0  0  0  0  0  0  0  0
  138.5080   80.4500  222.9130 C   0  0  0  0  0  0  0  0  0  0  0  0
  138.3920   80.0550  224.2240 C   0  0  0  0  0  0  0  0  0  0  0  0
  137.7340   80.8310  225.1840 C   0  0  0  0  0  0  0  0  0  0  0  0
  137.1690   82.0420  224.8450 C   0  0  0  0  0  0  0  0  0  0  0  0
  136.3530   83.0010  226.0460 Cl  0  0  0  0  0  0  0  0  0  0  0  0
  137.2840   82.4380  223.5290 C   0  0  0  0  0  0  0  0  0  0  0  0
  137.9410   81.6610  222.5720 C   0  0  0  0  0  0  0  0  0  0  0  0
  139.9450   72.4130  222.5860 C   0  0  0  0  0  0  0  0  0  0  0  0
  139.3390   71.2730  222.0500 C   0  0  0  0  0  0  0  0  0  0  0  0
  139.2090   70.1250  222.7990 C   0  0  0  0  0  0  0  0  0  0  0  0
  139.6890   70.1130  224.1010 C   0  0  0  0  0  0  0  0  0  0  0  0
  139.5720   68.9660  224.8840 C   0  0  0  0  0  0  0  0  0  0  0  0
  140.0640   68.9990  226.1750 C   0  0  0  0  0  0  0  0  0  0  0  0
  139.9540   67.7950  227.0310 C   0  0  0  0  0  0  0  0  0  0  0  0
  141.1060   67.0280  226.8240 F   0  0  0  0  0  0  0  0  0  0  0  0
  139.9260   68.1170  228.3540 F   0  0  0  0  0  0  0  0  0  0  0  0
  138.8910   67.0170  226.6350 F   0  0  0  0  0  0  0  0  0  0  0  0
  140.6660   70.1470  226.6940 C   0  0  0  0  0  0  0  0  0  0  0  0
  140.7800   71.2890  225.9070 C   0  0  0  0  0  0  0  0  0  0  0  0
  140.2820   71.2400  224.6150 C   0  0  0  0  0  0  0  0  0  0  0  0
  140.4010   72.3650  223.8560 N   0  0  0  0  0  0  0  0  0  0  0  0
  139.2150   74.8870  223.2870 H   0  0  0  0  0  0  0  0  0  0  0  0
  140.7965   76.2445  221.2677 H   0  0  0  0  0  0  0  0  0  0  0  0
  139.2210   75.8903  220.5156 H   0  0  0  0  0  0  0  0  0  0  0  0
  140.8024   78.2014  224.1712 H   0  0  0  0  0  0  0  0  0  0  0  0
  141.7385   77.9524  222.6185 H   0  0  0  0  0  0  0  0  0  0  0  0
  140.8650   80.5385  223.8769 H   0  0  0  0  0  0  0  0  0  0  0  0
  142.5365   79.9109  223.6019 H   0  0  0  0  0  0  0  0  0  0  0  0
  141.7518   81.6374  221.9822 H   0  0  0  0  0  0  0  0  0  0  0  0
  142.2925   80.0328  221.2798 H   0  0  0  0  0  0  0  0  0  0  0  0
  139.8552   81.4464  220.8963 H   0  0  0  0  0  0  0  0  0  0  0  0
  140.4585   79.8826  220.1805 H   0  0  0  0  0  0  0  0  0  0  0  0
  138.4078   79.4219  221.1265 H   0  0  0  0  0  0  0  0  0  0  0  0
  138.8323   79.0943  224.5294 H   0  0  0  0  0  0  0  0  0  0  0  0
  137.6666   80.4709  226.2212 H   0  0  0  0  0  0  0  0  0  0  0  0
  136.8434   83.3982  223.2226 H   0  0  0  0  0  0  0  0  0  0  0  0
  138.0072   82.0188  221.5339 H   0  0  0  0  0  0  0  0  0  0  0  0
  138.9613   71.2933  221.0171 H   0  0  0  0  0  0  0  0  0  0  0  0
  138.7318   69.2307  222.3717 H   0  0  0  0  0  0  0  0  0  0  0  0
  139.0996   68.0566  224.4842 H   0  0  0  0  0  0  0  0  0  0  0  0
  141.0501   70.1487  227.7248 H   0  0  0  0  0  0  0  0  0  0  0  0
  141.2511   72.2026  226.2987 H   0  0  0  0  0  0  0  0  0  0  0  0
  1  2  2  0
  2  3  1  0
  3  4  1  0
  4  5  1  0
  5  6  2  0
  5  7  1  0
  7  8  1  0
  8  9  1  0
  9 10  1  0
 10 11  1  0
 11 12  1  0
 12 13  1  0
 13 14  2  0
 14 15  1  0
 15 16  2  0
 16 17  1  0
 16 18  1  0
 18 19  2  0
  2 20  1  0
 20 21  2  0
 21 22  1  0
 22 23  2  0
 23 24  1  0
 24 25  2  0
 25 26  1  0
 26 27  1  0
 26 28  1  0
 26 29  1  0
 25 30  1  0
 30 31  2  0
 31 32  1  0
 32 33  2  0
 12  7  1  0
 19 13  1  0
 33 20  1  0
 32 23  1  0
  3 34  1  0
  4 35  1  0
  4 36  1  0
  8 37  1  0
  8 38  1  0
  9 39  1  0
  9 40  1  0
 10 41  1  0
 10 42  1  0
 11 43  1  0
 11 44  1  0
 12 45  1  6
 14 46  1  0
 15 47  1  0
 18 48  1  0
 19 49  1  0
 21 50  1  0
 22 51  1  0
 24 52  1  0
 30 53  1  0
 31 54  1  0
M  END
>  <smiles>  (15) 
O=C(NCC(=O)N1CCCCC1c1ccc(Cl)cc1)c1ccc2cc(C(F)(F)F)ccc2n1

>  <score_type>  (15) 
oracle

>  <origin>  (15) 
autodockgpu

>  <m_score__min__energy>  (15) 
-8.5999999999999996

>  <m_primary>  (15) 
energy

>  <rmsd>  (15) 
3.850962907154021

>  <m_score__min__rmsd>  (15) 
3.850962907154021

>  <meeko>  (15) 
{"free_energy": -8.28, "intermolecular_energy": -10.07, "internal_energy": -1.72, "cluster_size": 5, "cluster_id": 2, "rank_in_cluster": 1}

>  <energy>  (15) 
-7.62

>  <cluster_rmsd>  (15) 
0.85

>  <cluster>  (15) 
2

$$$$

     RDKit          3D

 54 57  0  0  0  0  0  0  0  0999 V2000
  141.5780   73.3580  221.0480 O   0  0  0  0  0  0  0  0  0  0  0  0
  140.7960   74.1970  221.5670 C   0  0  0  0  0  0  0  0  0  0  0  0
  139.6350   73.7440  222.2740 N   0  0  0  0  0  0  0  0  0  0  0  0
  139.4330   72.2920  222.3470 C   0  0  0  0  0  0  0  0  0  0  0  0
  138.0330   72.0610  222.7080 C   0  0  0  0  0  0  0  0  0  0  0  0
  137.2050   72.9860  222.4860 O   0  0  0  0  0  0  0  0  0  0  0  0
  137.5210   70.8740  223.2890 N   0  0  0  0  0  0  0  0  0  0  0  0
  136.2640   70.8860  224.0050 C   0  0  0  0  0  0  0  0  0  0  0  0
  135.8490   69.5540  224.5150 C   0  0  0  0  0  0  0  0  0  0  0  0
  135.9510   68.5230  223.4480 C   0  0  0  0  0  0  0  0  0  0  0  0
  137.2620   68.5150  222.7220 C   0  0  0  0  0  0  0  0  0  0  0  0
  138.2070   69.5850  223.2050 C   0  0  2  0  0  0  0  0  0  0  0  0
  138.8920   69.2580  224.4750 C   0  0  0  0  0  0  0  0  0  0  0  0
  139.1520   67.9810  224.9120 C   0  0  0  0  0  0  0  0  0  0  0  0
  139.8020   67.7230  226.1230 C   0  0  0  0  0  0  0  0  0  0  0  0
  140.2130   68.7570  226.9370 C   0  0  0  0  0  0  0  0  0  0  0  0
  141.0220   68.4270  228.4420 Cl  0  0  0  0  0  0  0  0  0  0  0  0
  139.9520   70.0380  226.4990 C   0  0  0  0  0  0  0  0  0  0  0  0
  139.3020   70.2930  225.2890 C   0  0  0  0  0  0  0  0  0  0  0  0
  141.0100   75.6380  221.4850 C   0  0  0  0  0  0  0  0  0  0  0  0
  141.8330   76.1450  220.4750 C   0  0  0  0  0  0  0  0  0  0  0  0
  142.0610   77.4990  220.3630 C   0  0  0  0  0  0  0  0  0  0  0  0
  141.4600   78.3590  221.2720 C   0  0  0  0  0  0  0  0  0  0  0  0
  141.6710   79.7340  221.1850 C   0  0  0  0  0  0  0  0  0  0  0  0
  141.0530   80.5530  222.1110 C   0  0  0  0  0  0  0  0  0  0  0  0
  141.2590   82.0180  222.0440 C   0  0  0  0  0  0  0  0  0  0  0  0
  141.8480   82.3010  220.8060 F   0  0  0  0  0  0  0  0  0  0  0  0
  140.0780   82.6960  222.0820 F   0  0  0  0  0  0  0  0  0  0  0  0
  142.1550   82.4250  223.0050 F   0  0  0  0  0  0  0  0  0  0  0  0
  140.2350   80.0280  223.1130 C   0  0  0  0  0  0  0  0  0  0  0  0
  140.0270   78.6540  223.1940 C   0  0  0  0  0  0  0  0  0  0  0  0
  140.6540   77.8470  222.2590 C   0  0  0  0  0  0  0  0  0  0  0  0
  140.4420   76.5040  222.3500 N   0  0  0  0  0  0  0  0  0  0  0  0
  138.9720   74.4210  222.7120 H   0  0  0  0  0  0  0  0  0  0  0  0
  139.6501   71.8329  221.3712 H   0  0  0  0  0  0  0  0  0  0  0  0
  140.1051   71.8440  223.0937 H   0  0  0  0  0  0  0  0  0  0  0  0
  136.3595   71.5702  224.8610 H   0  0  0  0  0  0  0  0  0  0  0  0
  135.4926   71.2088  223.2904 H   0  0  0  0  0  0  0  0  0  0  0  0
  136.5014   69.2701  225.3539 H   0  0  0  0  0  0  0  0  0  0  0  0
  134.8020   69.6148  224.8467 H   0  0  0  0  0  0  0  0  0  0  0  0
  135.8063   67.5347  223.9088 H   0  0  0  0  0  0  0  0  0  0  0  0
  135.1792   68.7639  222.7022 H   0  0  0  0  0  0  0  0  0  0  0  0
  137.7381   67.5342  222.8683 H   0  0  0  0  0  0  0  0  0  0  0  0
  137.0526   68.7145  221.6607 H   0  0  0  0  0  0  0  0  0  0  0  0
  139.0071   69.6478  222.4527 H   0  0  0  0  0  0  0  0  0  0  0  0
  138.8377   67.1320  224.2871 H   0  0  0  0  0  0  0  0  0  0  0  0
  139.9875   66.6830  226.4296 H   0  0  0  0  0  0  0  0  0  0  0  0
  140.2661   70.8876  227.1231 H   0  0  0  0  0  0  0  0  0  0  0  0
  139.1149   71.3325  224.9816 H   0  0  0  0  0  0  0  0  0  0  0  0
  142.3045   75.4540  219.7607 H   0  0  0  0  0  0  0  0  0  0  0  0
  142.7090   77.8924  219.5659 H   0  0  0  0  0  0  0  0  0  0  0  0
  142.3136   80.1569  220.3987 H   0  0  0  0  0  0  0  0  0  0  0  0
  139.7546   80.7004  223.8390 H   0  0  0  0  0  0  0  0  0  0  0  0
  139.3848   78.2226  223.9760 H   0  0  0  0  0  0  0  0  0  0  0  0
  1  2  2  0
  2  3  1  0
  3  4  1  0
  4  5  1  0
  5  6  2  0
  5  7  1  0
  7  8  1  0
  8  9  1  0
  9 10  1  0
 10 11  1  0
 11 12  1  0
 12 13  1  0
 13 14  2  0
 14 15  1  0
 15 16  2  0
 16 17  1  0
 16 18  1  0
 18 19  2  0
  2 20  1  0
 20 21  2  0
 21 22  1  0
 22 23  2  0
 23 24  1  0
 24 25  2  0
 25 26  1  0
 26 27  1  0
 26 28  1  0
 26 29  1  0
 25 30  1  0
 30 31  2  0
 31 32  1  0
 32 33  2  0
 12  7  1  0
 19 13  1  0
 33 20  1  0
 32 23  1  0
  3 34  1  0
  4 35  1  0
  4 36  1  0
  8 37  1  0
  8 38  1  0
  9 39  1  0
  9 40  1  0
 10 41  1  0
 10 42  1  0
 11 43  1  0
 11 44  1  0
 12 45  1  6
 14 46  1  0
 15 47  1  0
 18 48  1  0
 19 49  1  0
 21 50  1  0
 22 51  1  0
 24 52  1  0
 30 53  1  0
 31 54  1  0
M  END
>  <smiles>  (16) 
O=C(NCC(=O)N1CCCCC1c1ccc(Cl)cc1)c1ccc2cc(C(F)(F)F)ccc2n1

>  <score_type>  (16) 
oracle

>  <origin>  (16) 
autodockgpu

>  <m_score__min__energy>  (16) 
-8.5999999999999996

>  <m_primary>  (16) 
energy

>  <rmsd>  (16) 
8.495511377848011

>  <m_score__min__rmsd>  (16) 
8.495511377848011

>  <meeko>  (16) 
{"free_energy": -7.76, "intermolecular_energy": -9.55, "internal_energy": -2.18, "cluster_size": 17, "cluster_id": 4, "rank_in_cluster": 14}

>  <energy>  (16) 
-8.18

>  <cluster_rmsd>  (16) 
0.0

>  <cluster>  (16) 
3

$$$$

     RDKit          3D

 54 57  0  0  0  0  0  0  0  0999 V2000
  140.7990   72.9470  220.7130 O   0  0  0  0  0  0  0  0  0  0  0  0
  140.1020   73.1590  221.7390 C   0  0  0  0  0  0  0  0  0  0  0  0
  139.4190   74.4100  221.8890 N   0  0  0  0  0  0  0  0  0  0  0  0
  139.5840   75.3840  220.8030 C   0  0  0  0  0  0  0  0  0  0  0  0
  140.6170   76.3340  221.2200 C   0  0  0  0  0  0  0  0  0  0  0  0
  141.8230   76.0060  221.0570 O   0  0  0  0  0  0  0  0  0  0  0  0
  140.3750   77.6070  221.7950 N   0  0  0  0  0  0  0  0  0  0  0  0
  139.0250   78.0490  222.0710 C   0  0  0  0  0  0  0  0  0  0  0  0
  138.9480   79.3860  222.7130 C   0  0  0  0  0  0  0  0  0  0  0  0
  139.8830   79.4750  223.8660 C   0  0  0  0  0  0  0  0  0  0  0  0
  141.2800   79.0250  223.5630 C   0  0  0  0  0  0  0  0  0  0  0  0
  141.4460   78.5390  222.1470 C   0  0  2  0  0  0  0  0  0  0  0  0
  141.5630   79.6240  221.1470 C   0  0  0  0  0  0  0  0  0  0  0  0
  141.4430   80.9630  221.4340 C   0  0  0  0  0  0  0  0  0  0  0  0
  141.5600   81.9510  220.4510 C   0  0  0  0  0  0  0  0  0  0  0  0
  141.8060   81.6140  219.1380 C   0  0  0  0  0  0  0  0  0  0  0  0
  141.9510   82.8510  217.9220 Cl  0  0  0  0  0  0  0  0  0  0  0  0
  141.9260   80.2710  218.8490 C   0  0  0  0  0  0  0  0  0  0  0  0
  141.8080   79.2850  219.8320 C   0  0  0  0  0  0  0  0  0  0  0  0
  139.9480   72.1790  222.8100 C   0  0  0  0  0  0  0  0  0  0  0  0
  139.0640   71.1120  222.6310 C   0  0  0  0  0  0  0  0  0  0  0  0
  138.8900   70.1660  223.6160 C   0  0  0  0  0  0  0  0  0  0  0  0
  139.6080   70.2880  224.7980 C   0  0  0  0  0  0  0  0  0  0  0  0
  139.4540   69.3470  225.8160 C   0  0  0  0  0  0  0  0  0  0  0  0
  140.1890   69.5060  226.9750 C   0  0  0  0  0  0  0  0  0  0  0  0
  140.0460   68.5230  228.0720 C   0  0  0  0  0  0  0  0  0  0  0  0
  139.2970   67.4490  227.5770 F   0  0  0  0  0  0  0  0  0  0  0  0
  141.2510   68.0180  228.4580 F   0  0  0  0  0  0  0  0  0  0  0  0
  139.3200   69.0590  229.1100 F   0  0  0  0  0  0  0  0  0  0  0  0
  141.0670   70.5800  227.1360 C   0  0  0  0  0  0  0  0  0  0  0  0
  141.2170   71.5160  226.1170 C   0  0  0  0  0  0  0  0  0  0  0  0
  140.4730   71.3410  224.9610 C   0  0  0  0  0  0  0  0  0  0  0  0
  140.6300   72.2650  223.9720 N   0  0  0  0  0  0  0  0  0  0  0  0
  138.8360   74.6090  222.7310 H   0  0  0  0  0  0  0  0  0  0  0  0
  139.8955   74.8704  219.8815 H   0  0  0  0  0  0  0  0  0  0  0  0
  138.6363   75.9047  220.6010 H   0  0  0  0  0  0  0  0  0  0  0  0
  138.4727   78.0891  221.1205 H   0  0  0  0  0  0  0  0  0  0  0  0
  138.5926   77.3288  222.7812 H   0  0  0  0  0  0  0  0  0  0  0  0
  139.2131   80.1563  221.9739 H   0  0  0  0  0  0  0  0  0  0  0  0
  137.9224   79.5419  223.0790 H   0  0  0  0  0  0  0  0  0  0  0  0
  139.9229   80.5232  224.1972 H   0  0  0  0  0  0  0  0  0  0  0  0
  139.4944   78.7968  224.6399 H   0  0  0  0  0  0  0  0  0  0  0  0
  141.9642   79.8708  223.7261 H   0  0  0  0  0  0  0  0  0  0  0  0
  141.5063   78.1803  224.2302 H   0  0  0  0  0  0  0  0  0  0  0  0
  142.4102   78.0104  222.1169 H   0  0  0  0  0  0  0  0  0  0  0  0
  141.2482   81.2680  222.4728 H   0  0  0  0  0  0  0  0  0  0  0  0
  141.4543   83.0099  220.7296 H   0  0  0  0  0  0  0  0  0  0  0  0
  142.1210   79.9658  217.8103 H   0  0  0  0  0  0  0  0  0  0  0  0
  141.9117   78.2257  219.5542 H   0  0  0  0  0  0  0  0  0  0  0  0
  138.4996   71.0266  221.6907 H   0  0  0  0  0  0  0  0  0  0  0  0
  138.1936   69.3273  223.4689 H   0  0  0  0  0  0  0  0  0  0  0  0
  138.7638   68.4985  225.6988 H   0  0  0  0  0  0  0  0  0  0  0  0
  141.6403   70.6862  228.0687 H   0  0  0  0  0  0  0  0  0  0  0  0
  141.9044   72.3678  226.2258 H   0  0  0  0  0  0  0  0  0  0  0  0
  1  2  2  0
  2  3  1  0
  3  4  1  0
  4  5  1  0
  5  6  2  0
  5  7  1  0
  7  8  1  0
  8  9  1  0
  9 10  1  0
 10 11  1  0
 11 12  1  0
 12 13  1  0
 13 14  2  0
 14 15  1  0
 15 16  2  0
 16 17  1  0
 16 18  1  0
 18 19  2  0
  2 20  1  0
 20 21  2  0
 21 22  1  0
 22 23  2  0
 23 24  1  0
 24 25  2  0
 25 26  1  0
 26 27  1  0
 26 28  1  0
 26 29  1  0
 25 30  1  0
 30 31  2  0
 31 32  1  0
 32 33  2  0
 12  7  1  0
 19 13  1  0
 33 20  1  0
 32 23  1  0
  3 34  1  0
  4 35  1  0
  4 36  1  0
  8 37  1  0
  8 38  1  0
  9 39  1  0
  9 40  1  0
 10 41  1  0
 10 42  1  0
 11 43  1  0
 11 44  1  0
 12 45  1  1
 14 46  1  0
 15 47  1  0
 18 48  1  0
 19 49  1  0
 21 50  1  0
 22 51  1  0
 24 52  1  0
 30 53  1  0
 31 54  1  0
M  END
>  <smiles>  (17) 
O=C(NCC(=O)N1CCCCC1c1ccc(Cl)cc1)c1ccc2cc(C(F)(F)F)ccc2n1

>  <score_type>  (17) 
oracle

>  <origin>  (17) 
autodockgpu

>  <m_score__min__energy>  (17) 
-8.5999999999999996

>  <m_primary>  (17) 
energy

>  <rmsd>  (17) 
3.4359551578568586

>  <m_score__min__rmsd>  (17) 
3.4359551578568586

>  <meeko>  (17) 
{"free_energy": -8.54, "intermolecular_energy": -10.33, "internal_energy": -1.46, "cluster_size": 10, "cluster_id": 1, "rank_in_cluster": 4}

>  <energy>  (17) 
-8.04

>  <cluster_rmsd>  (17) 
0.69

>  <cluster>  (17) 
3

$$$$

     RDKit          3D

 54 57  0  0  0  0  0  0  0  0999 V2000
  138.3930   73.5910  220.4440 O   0  0  0  0  0  0  0  0  0  0  0  0
  138.2850   74.3930  221.4070 C   0  0  0  0  0  0  0  0  0  0  0  0
  137.2350   74.2160  222.3660 N   0  0  0  0  0  0  0  0  0  0  0  0
  136.3320   73.0790  222.1520 C   0  0  0  0  0  0  0  0  0  0  0  0
  136.8910   71.9340  222.8730 C   0  0  0  0  0  0  0  0  0  0  0  0
  136.1660   71.3650  223.7330 O   0  0  0  0  0  0  0  0  0  0  0  0
  138.1910   71.4010  222.6840 N   0  0  0  0  0  0  0  0  0  0  0  0
  138.4190   70.3250  221.7440 C   0  0  0  0  0  0  0  0  0  0  0  0
  139.8410   69.9120  221.6350 C   0  0  0  0  0  0  0  0  0  0  0  0
  140.7240   71.0950  221.4570 C   0  0  0  0  0  0  0  0  0  0  0  0
  140.4850   72.1970  222.4430 C   0  0  0  0  0  0  0  0  0  0  0  0
  139.3660   71.8910  223.4040 C   0  0  2  0  0  0  0  0  0  0  0  0
  139.7450   70.9730  224.5010 C   0  0  0  0  0  0  0  0  0  0  0  0
  138.9850   69.9080  224.9220 C   0  0  0  0  0  0  0  0  0  0  0  0
  139.3870   69.0690  225.9660 C   0  0  0  0  0  0  0  0  0  0  0  0
  140.5820   69.2800  226.6200 C   0  0  0  0  0  0  0  0  0  0  0  0
  141.0750   68.2300  227.9170 Cl  0  0  0  0  0  0  0  0  0  0  0  0
  141.3450   70.3480  226.1980 C   0  0  0  0  0  0  0  0  0  0  0  0
  140.9410   71.1850  225.1550 C   0  0  0  0  0  0  0  0  0  0  0  0
  139.1920   75.5200  221.6070 C   0  0  0  0  0  0  0  0  0  0  0  0
  140.4580   75.4850  221.0150 C   0  0  0  0  0  0  0  0  0  0  0  0
  141.3420   76.5270  221.1790 C   0  0  0  0  0  0  0  0  0  0  0  0
  140.9590   77.6200  221.9440 C   0  0  0  0  0  0  0  0  0  0  0  0
  141.8320   78.6910  222.1290 C   0  0  0  0  0  0  0  0  0  0  0  0
  141.4090   79.7580  222.8990 C   0  0  0  0  0  0  0  0  0  0  0  0
  142.3140   80.9100  223.1120 C   0  0  0  0  0  0  0  0  0  0  0  0
  141.8880   81.5670  224.2720 F   0  0  0  0  0  0  0  0  0  0  0  0
  143.5980   80.5100  223.3340 F   0  0  0  0  0  0  0  0  0  0  0  0
  142.1940   81.8160  222.0840 F   0  0  0  0  0  0  0  0  0  0  0  0
  140.1410   79.7750  223.4820 C   0  0  0  0  0  0  0  0  0  0  0  0
  139.2730   78.7030  223.2940 C   0  0  0  0  0  0  0  0  0  0  0  0
  139.7130   77.6410  222.5200 C   0  0  0  0  0  0  0  0  0  0  0  0
  138.8530   76.5990  222.3440 N   0  0  0  0  0  0  0  0  0  0  0  0
  137.1260   74.8690  223.1730 H   0  0  0  0  0  0  0  0  0  0  0  0
  135.3307   73.3158  222.5410 H   0  0  0  0  0  0  0  0  0  0  0  0
  136.2381   72.8542  221.0793 H   0  0  0  0  0  0  0  0  0  0  0  0
  137.8291   69.4539  222.0651 H   0  0  0  0  0  0  0  0  0  0  0  0
  138.1180   70.6973  220.7537 H   0  0  0  0  0  0  0  0  0  0  0  0
  140.1328   69.3793  222.5521 H   0  0  0  0  0  0  0  0  0  0  0  0
  139.9507   69.2561  220.7588 H   0  0  0  0  0  0  0  0  0  0  0  0
  141.7681   70.7636  221.5572 H   0  0  0  0  0  0  0  0  0  0  0  0
  140.5000   71.5083  220.4625 H   0  0  0  0  0  0  0  0  0  0  0  0
  141.4080   72.3589  223.0190 H   0  0  0  0  0  0  0  0  0  0  0  0
  140.1956   73.0925  221.8736 H   0  0  0  0  0  0  0  0  0  0  0  0
  139.1185   72.8431  223.8962 H   0  0  0  0  0  0  0  0  0  0  0  0
  138.0268   69.7086  224.4200 H   0  0  0  0  0  0  0  0  0  0  0  0
  138.7421   68.2309  226.2689 H   0  0  0  0  0  0  0  0  0  0  0  0
  142.3036   70.5477  226.6992 H   0  0  0  0  0  0  0  0  0  0  0  0
  141.5847   72.0237  224.8514 H   0  0  0  0  0  0  0  0  0  0  0  0
  140.7512   74.6139  220.4107 H   0  0  0  0  0  0  0  0  0  0  0  0
  142.3369   76.4941  220.7110 H   0  0  0  0  0  0  0  0  0  0  0  0
  142.8331   78.6870  221.6732 H   0  0  0  0  0  0  0  0  0  0  0  0
  139.8273   80.6360  224.0904 H   0  0  0  0  0  0  0  0  0  0  0  0
  138.2699   78.6990  223.7454 H   0  0  0  0  0  0  0  0  0  0  0  0
  1  2  2  0
  2  3  1  0
  3  4  1  0
  4  5  1  0
  5  6  2  0
  5  7  1  0
  7  8  1  0
  8  9  1  0
  9 10  1  0
 10 11  1  0
 11 12  1  0
 12 13  1  0
 13 14  2  0
 14 15  1  0
 15 16  2  0
 16 17  1  0
 16 18  1  0
 18 19  2  0
  2 20  1  0
 20 21  2  0
 21 22  1  0
 22 23  2  0
 23 24  1  0
 24 25  2  0
 25 26  1  0
 26 27  1  0
 26 28  1  0
 26 29  1  0
 25 30  1  0
 30 31  2  0
 31 32  1  0
 32 33  2  0
 12  7  1  0
 19 13  1  0
 33 20  1  0
 32 23  1  0
  3 34  1  0
  4 35  1  0
  4 36  1  0
  8 37  1  0
  8 38  1  0
  9 39  1  0
  9 40  1  0
 10 41  1  0
 10 42  1  0
 11 43  1  0
 11 44  1  0
 12 45  1  1
 14 46  1  0
 15 47  1  0
 18 48  1  0
 19 49  1  0
 21 50  1  0
 22 51  1  0
 24 52  1  0
 30 53  1  0
 31 54  1  0
M  END
>  <smiles>  (18) 
O=C(NCC(=O)N1CCCCC1c1ccc(Cl)cc1)c1ccc2cc(C(F)(F)F)ccc2n1

>  <score_type>  (18) 
oracle

>  <origin>  (18) 
autodockgpu

>  <m_score__min__energy>  (18) 
-8.5999999999999996

>  <m_primary>  (18) 
energy

>  <rmsd>  (18) 
7.160907081809179

>  <m_score__min__rmsd>  (18) 
7.160907081809179

>  <meeko>  (18) 
{"free_energy": -7.79, "intermolecular_energy": -9.58, "internal_energy": -2.32, "cluster_size": 17, "cluster_id": 4, "rank_in_cluster": 12}

>  <energy>  (18) 
-7.99

>  <cluster_rmsd>  (18) 
0.78

>  <cluster>  (18) 
3

$$$$

     RDKit          3D

 54 57  0  0  0  0  0  0  0  0999 V2000
  138.4380   73.5760  220.4350 O   0  0  0  0  0  0  0  0  0  0  0  0
  138.3170   74.3870  221.3900 C   0  0  0  0  0  0  0  0  0  0  0  0
  137.2600   74.2130  222.3410 N   0  0  0  0  0  0  0  0  0  0  0  0
  136.3660   73.0680  222.1300 C   0  0  0  0  0  0  0  0  0  0  0  0
  136.9180   71.9370  222.8790 C   0  0  0  0  0  0  0  0  0  0  0  0
  136.2220   71.4470  223.8090 O   0  0  0  0  0  0  0  0  0  0  0  0
  138.1810   71.3370  222.6450 N   0  0  0  0  0  0  0  0  0  0  0  0
  138.3060   70.2020  221.7560 C   0  0  0  0  0  0  0  0  0  0  0  0
  139.7000   69.7200  221.5870 C   0  0  0  0  0  0  0  0  0  0  0  0
  140.6190   70.8500  221.2900 C   0  0  0  0  0  0  0  0  0  0  0  0
  140.4860   72.0150  222.2240 C   0  0  0  0  0  0  0  0  0  0  0  0
  139.4170   71.8130  223.2650 C   0  0  2  0  0  0  0  0  0  0  0  0
  139.8240   70.9390  224.3880 C   0  0  0  0  0  0  0  0  0  0  0  0
  141.0650   70.9610  224.9800 C   0  0  0  0  0  0  0  0  0  0  0  0
  141.4030   70.1130  226.0390 C   0  0  0  0  0  0  0  0  0  0  0  0
  140.4890   69.2090  226.5380 C   0  0  0  0  0  0  0  0  0  0  0  0
  140.9190   68.1570  227.8560 Cl  0  0  0  0  0  0  0  0  0  0  0  0
  139.2450   69.1860  225.9440 C   0  0  0  0  0  0  0  0  0  0  0  0
  138.9100   70.0340  224.8860 C   0  0  0  0  0  0  0  0  0  0  0  0
  139.2140   75.5210  221.5860 C   0  0  0  0  0  0  0  0  0  0  0  0
  140.4750   75.5020  220.9820 C   0  0  0  0  0  0  0  0  0  0  0  0
  141.3500   76.5520  221.1430 C   0  0  0  0  0  0  0  0  0  0  0  0
  140.9640   77.6370  221.9170 C   0  0  0  0  0  0  0  0  0  0  0  0
  141.8280   78.7160  222.0990 C   0  0  0  0  0  0  0  0  0  0  0  0
  141.4030   79.7750  222.8770 C   0  0  0  0  0  0  0  0  0  0  0  0
  142.2990   80.9350  223.0880 C   0  0  0  0  0  0  0  0  0  0  0  0
  143.6150   80.4610  223.0330 F   0  0  0  0  0  0  0  0  0  0  0  0
  142.1700   81.8590  222.0950 F   0  0  0  0  0  0  0  0  0  0  0  0
  142.1250   81.4570  224.3480 F   0  0  0  0  0  0  0  0  0  0  0  0
  140.1400   79.7770  223.4730 C   0  0  0  0  0  0  0  0  0  0  0  0
  139.2810   78.6970  223.2880 C   0  0  0  0  0  0  0  0  0  0  0  0
  139.7230   77.6440  222.5050 C   0  0  0  0  0  0  0  0  0  0  0  0
  138.8720   76.5930  222.3320 N   0  0  0  0  0  0  0  0  0  0  0  0
  137.1390   74.8720  223.1410 H   0  0  0  0  0  0  0  0  0  0  0  0
  135.3571   73.3060  222.4980 H   0  0  0  0  0  0  0  0  0  0  0  0
  136.2917   72.8256  221.0596 H   0  0  0  0  0  0  0  0  0  0  0  0
  137.7011   69.3771  222.1605 H   0  0  0  0  0  0  0  0  0  0  0  0
  137.9607   70.5331  220.7655 H   0  0  0  0  0  0  0  0  0  0  0  0
  140.0251   69.2254  222.5142 H   0  0  0  0  0  0  0  0  0  0  0  0
  139.7280   69.0131  220.7447 H   0  0  0  0  0  0  0  0  0  0  0  0
  141.6525   70.4780  221.3482 H   0  0  0  0  0  0  0  0  0  0  0  0
  140.3529   71.2175  220.2880 H   0  0  0  0  0  0  0  0  0  0  0  0
  141.4485   72.1672  222.7344 H   0  0  0  0  0  0  0  0  0  0  0  0
  140.1989   72.8895  221.6217 H   0  0  0  0  0  0  0  0  0  0  0  0
  139.2404   72.8009  223.7155 H   0  0  0  0  0  0  0  0  0  0  0  0
  141.8183   71.6707  224.6073 H   0  0  0  0  0  0  0  0  0  0  0  0
  142.4096   70.1676  226.4792 H   0  0  0  0  0  0  0  0  0  0  0  0
  138.4913   68.4762  226.3157 H   0  0  0  0  0  0  0  0  0  0  0  0
  137.9041   69.9794  224.4441 H   0  0  0  0  0  0  0  0  0  0  0  0
  140.7713   74.6370  220.3705 H   0  0  0  0  0  0  0  0  0  0  0  0
  142.3406   76.5314  220.6652 H   0  0  0  0  0  0  0  0  0  0  0  0
  142.8248   78.7237  221.6338 H   0  0  0  0  0  0  0  0  0  0  0  0
  139.8238   80.6320  224.0887 H   0  0  0  0  0  0  0  0  0  0  0  0
  138.2826   78.6808  223.7494 H   0  0  0  0  0  0  0  0  0  0  0  0
  1  2  2  0
  2  3  1  0
  3  4  1  0
  4  5  1  0
  5  6  2  0
  5  7  1  0
  7  8  1  0
  8  9  1  0
  9 10  1  0
 10 11  1  0
 11 12  1  0
 12 13  1  0
 13 14  2  0
 14 15  1  0
 15 16  2  0
 16 17  1  0
 16 18  1  0
 18 19  2  0
  2 20  1  0
 20 21  2  0
 21 22  1  0
 22 23  2  0
 23 24  1  0
 24 25  2  0
 25 26  1  0
 26 27  1  0
 26 28  1  0
 26 29  1  0
 25 30  1  0
 30 31  2  0
 31 32  1  0
 32 33  2  0
 12  7  1  0
 19 13  1  0
 33 20  1  0
 32 23  1  0
  3 34  1  0
  4 35  1  0
  4 36  1  0
  8 37  1  0
  8 38  1  0
  9 39  1  0
  9 40  1  0
 10 41  1  0
 10 42  1  0
 11 43  1  0
 11 44  1  0
 12 45  1  1
 14 46  1  0
 15 47  1  0
 18 48  1  0
 19 49  1  0
 21 50  1  0
 22 51  1  0
 24 52  1  0
 30 53  1  0
 31 54  1  0
M  END
>  <smiles>  (19) 
O=C(NCC(=O)N1CCCCC1c1ccc(Cl)cc1)c1ccc2cc(C(F)(F)F)ccc2n1

>  <score_type>  (19) 
oracle

>  <origin>  (19) 
autodockgpu

>  <m_score__min__energy>  (19) 
-8.5999999999999996

>  <m_primary>  (19) 
energy

>  <rmsd>  (19) 
7.180628334069762

>  <m_score__min__rmsd>  (19) 
7.180628334069762

>  <meeko>  (19) 
{"free_energy": -7.75, "intermolecular_energy": -9.54, "internal_energy": -2.28, "cluster_size": 17, "cluster_id": 4, "rank_in_cluster": 15}

>  <energy>  (19) 
-7.84

>  <cluster_rmsd>  (19) 
1.03

>  <cluster>  (19) 
3

$$$$

     RDKit          3D

 54 57  0  0  0  0  0  0  0  0999 V2000
  134.0820   70.6660  226.4800 O   0  0  0  0  0  0  0  0  0  0  0  0
  134.0870   71.8020  225.9410 C   0  0  0  0  0  0  0  0  0  0  0  0
  134.8050   72.0060  224.7180 N   0  0  0  0  0  0  0  0  0  0  0  0
  135.5050   70.8420  224.1630 C   0  0  0  0  0  0  0  0  0  0  0  0
  136.4540   71.3350  223.1630 C   0  0  0  0  0  0  0  0  0  0  0  0
  136.0830   72.2740  222.4070 O   0  0  0  0  0  0  0  0  0  0  0  0
  137.7710   70.8450  222.9710 N   0  0  0  0  0  0  0  0  0  0  0  0
  138.0120   69.6850  222.1420 C   0  0  0  0  0  0  0  0  0  0  0  0
  139.4470   69.3270  222.0090 C   0  0  0  0  0  0  0  0  0  0  0  0
  140.2610   70.5230  221.6630 C   0  0  0  0  0  0  0  0  0  0  0  0
  140.0080   71.7140  222.5360 C   0  0  0  0  0  0  0  0  0  0  0  0
  138.9480   71.4650  223.5770 C   0  0  2  0  0  0  0  0  0  0  0  0
  139.4210   70.6900  224.7460 C   0  0  0  0  0  0  0  0  0  0  0  0
  138.7830   69.5830  225.2550 C   0  0  0  0  0  0  0  0  0  0  0  0
  139.2700   68.8850  226.3650 C   0  0  0  0  0  0  0  0  0  0  0  0
  140.4260   69.2860  226.9990 C   0  0  0  0  0  0  0  0  0  0  0  0
  141.0240   68.4100  228.3790 Cl  0  0  0  0  0  0  0  0  0  0  0  0
  141.0660   70.3960  226.4890 C   0  0  0  0  0  0  0  0  0  0  0  0
  140.5780   71.0920  225.3800 C   0  0  0  0  0  0  0  0  0  0  0  0
  133.3850   72.9510  226.5050 C   0  0  0  0  0  0  0  0  0  0  0  0
  132.1580   72.7500  227.1440 C   0  0  0  0  0  0  0  0  0  0  0  0
  131.4650   73.8070  227.6890 C   0  0  0  0  0  0  0  0  0  0  0  0
  132.0020   75.0830  227.5960 C   0  0  0  0  0  0  0  0  0  0  0  0
  131.3240   76.1740  228.1380 C   0  0  0  0  0  0  0  0  0  0  0  0
  131.8960   77.4270  228.0220 C   0  0  0  0  0  0  0  0  0  0  0  0
  131.1990   78.6040  228.5880 C   0  0  0  0  0  0  0  0  0  0  0  0
  132.1650   79.3990  229.2180 F   0  0  0  0  0  0  0  0  0  0  0  0
  130.6300   79.3700  227.6160 F   0  0  0  0  0  0  0  0  0  0  0  0
  130.3140   78.2170  229.5680 F   0  0  0  0  0  0  0  0  0  0  0  0
  133.1230   77.6090  227.3800 C   0  0  0  0  0  0  0  0  0  0  0  0
  133.7950   76.5150  226.8410 C   0  0  0  0  0  0  0  0  0  0  0  0
  133.2080   75.2670  226.9650 C   0  0  0  0  0  0  0  0  0  0  0  0
  133.8780   74.2060  226.4330 N   0  0  0  0  0  0  0  0  0  0  0  0
  134.8230   72.9400  224.2520 H   0  0  0  0  0  0  0  0  0  0  0  0
  136.0433   70.3112  224.9621 H   0  0  0  0  0  0  0  0  0  0  0  0
  134.7903   70.1413  223.7067 H   0  0  0  0  0  0  0  0  0  0  0  0
  137.4809   68.8283  222.5825 H   0  0  0  0  0  0  0  0  0  0  0  0
  137.6505   69.9333  221.1332 H   0  0  0  0  0  0  0  0  0  0  0  0
  139.8046   68.9112  222.9625 H   0  0  0  0  0  0  0  0  0  0  0  0
  139.5516   68.5849  221.2038 H   0  0  0  0  0  0  0  0  0  0  0  0
  141.3239   70.2528  221.7482 H   0  0  0  0  0  0  0  0  0  0  0  0
  139.9748   70.8144  220.6416 H   0  0  0  0  0  0  0  0  0  0  0  0
  140.9453   71.9801  223.0465 H   0  0  0  0  0  0  0  0  0  0  0  0
  139.6488   72.5271  221.8880 H   0  0  0  0  0  0  0  0  0  0  0  0
  138.6727   72.4526  223.9756 H   0  0  0  0  0  0  0  0  0  0  0  0
  137.8579   69.2345  224.7726 H   0  0  0  0  0  0  0  0  0  0  0  0
  138.7237   68.0054  226.7363 H   0  0  0  0  0  0  0  0  0  0  0  0
  141.9911   70.7450  226.9711 H   0  0  0  0  0  0  0  0  0  0  0  0
  141.1235   71.9717  225.0079 H   0  0  0  0  0  0  0  0  0  0  0  0
  131.7411   71.7343  227.2121 H   0  0  0  0  0  0  0  0  0  0  0  0
  130.5000   73.6426  228.1907 H   0  0  0  0  0  0  0  0  0  0  0  0
  130.3573   76.0409  228.6457 H   0  0  0  0  0  0  0  0  0  0  0  0
  133.5583   78.6161  227.3002 H   0  0  0  0  0  0  0  0  0  0  0  0
  134.7625   76.6384  226.3323 H   0  0  0  0  0  0  0  0  0  0  0  0
  1  2  2  0
  2  3  1  0
  3  4  1  0
  4  5  1  0
  5  6  2  0
  5  7  1  0
  7  8  1  0
  8  9  1  0
  9 10  1  0
 10 11  1  0
 11 12  1  0
 12 13  1  0
 13 14  2  0
 14 15  1  0
 15 16  2  0
 16 17  1  0
 16 18  1  0
 18 19  2  0
  2 20  1  0
 20 21  2  0
 21 22  1  0
 22 23  2  0
 23 24  1  0
 24 25  2  0
 25 26  1  0
 26 27  1  0
 26 28  1  0
 26 29  1  0
 25 30  1  0
 30 31  2  0
 31 32  1  0
 32 33  2  0
 12  7  1  0
 19 13  1  0
 33 20  1  0
 32 23  1  0
  3 34  1  0
  4 35  1  0
  4 36  1  0
  8 37  1  0
  8 38  1  0
  9 39  1  0
  9 40  1  0
 10 41  1  0
 10 42  1  0
 11 43  1  0
 11 44  1  0
 12 45  1  1
 14 46  1  0
 15 47  1  0
 18 48  1  0
 19 49  1  0
 21 50  1  0
 22 51  1  0
 24 52  1  0
 30 53  1  0
 31 54  1  0
M  END
>  <smiles>  (20) 
O=C(NCC(=O)N1CCCCC1c1ccc(Cl)cc1)c1ccc2cc(C(F)(F)F)ccc2n1

>  <score_type>  (20) 
oracle

>  <origin>  (20) 
autodockgpu

>  <m_score__min__energy>  (20) 
-8.5999999999999996

>  <m_primary>  (20) 
energy

>  <rmsd>  (20) 
8.009547118506301

>  <m_score__min__rmsd>  (20) 
8.009547118506301

>  <meeko>  (20) 
{"free_energy": -7.84, "intermolecular_energy": -9.63, "internal_energy": -2.06, "cluster_size": 5, "cluster_id": 3, "rank_in_cluster": 4}

>  <energy>  (20) 
-7.78

>  <cluster_rmsd>  (20) 
1.0

>  <cluster>  (20) 
3

$$$$

     RDKit          3D

 54 57  0  0  0  0  0  0  0  0999 V2000
  138.1070   73.3900  220.7910 O   0  0  0  0  0  0  0  0  0  0  0  0
  138.0020   74.2270  221.7250 C   0  0  0  0  0  0  0  0  0  0  0  0
  136.9430   74.0980  222.6810 N   0  0  0  0  0  0  0  0  0  0  0  0
  136.0290   72.9640  222.5010 C   0  0  0  0  0  0  0  0  0  0  0  0
  136.5270   71.8630  223.3280 C   0  0  0  0  0  0  0  0  0  0  0  0
  135.8650   71.5440  224.3520 O   0  0  0  0  0  0  0  0  0  0  0  0
  137.7030   71.1130  223.0720 N   0  0  0  0  0  0  0  0  0  0  0  0
  137.6400   69.8700  222.3350 C   0  0  0  0  0  0  0  0  0  0  0  0
  138.9630   69.2310  222.1170 C   0  0  0  0  0  0  0  0  0  0  0  0
  139.9470   70.2170  221.5950 C   0  0  0  0  0  0  0  0  0  0  0  0
  140.0090   71.4960  222.3740 C   0  0  0  0  0  0  0  0  0  0  0  0
  139.0300   71.5350  223.5180 C   0  0  2  0  0  0  0  0  0  0  0  0
  139.4640   70.7720  224.7100 C   0  0  0  0  0  0  0  0  0  0  0  0
  138.7720   69.7140  225.2500 C   0  0  0  0  0  0  0  0  0  0  0  0
  139.2230   69.0250  226.3810 C   0  0  0  0  0  0  0  0  0  0  0  0
  140.3980   69.3860  227.0040 C   0  0  0  0  0  0  0  0  0  0  0  0
  140.9510   68.5230  228.4100 Cl  0  0  0  0  0  0  0  0  0  0  0  0
  141.0920   70.4470  226.4630 C   0  0  0  0  0  0  0  0  0  0  0  0
  140.6390   71.1340  225.3340 C   0  0  0  0  0  0  0  0  0  0  0  0
  138.9210   75.3500  221.8900 C   0  0  0  0  0  0  0  0  0  0  0  0
  140.2380   75.2200  221.4420 C   0  0  0  0  0  0  0  0  0  0  0  0
  141.1360   76.2550  221.5790 C   0  0  0  0  0  0  0  0  0  0  0  0
  140.7130   77.4370  222.1720 C   0  0  0  0  0  0  0  0  0  0  0  0
  141.5980   78.5030  222.3260 C   0  0  0  0  0  0  0  0  0  0  0  0
  141.1350   79.6610  222.9220 C   0  0  0  0  0  0  0  0  0  0  0  0
  142.0510   80.8100  223.0980 C   0  0  0  0  0  0  0  0  0  0  0  0
  143.3200   80.2920  223.3840 F   0  0  0  0  0  0  0  0  0  0  0  0
  142.1720   81.5400  221.9540 F   0  0  0  0  0  0  0  0  0  0  0  0
  141.6820   81.5600  224.1900 F   0  0  0  0  0  0  0  0  0  0  0  0
  139.8150   79.7720  223.3640 C   0  0  0  0  0  0  0  0  0  0  0  0
  138.9360   78.7040  223.2080 C   0  0  0  0  0  0  0  0  0  0  0  0
  139.4160   77.5510  222.6090 C   0  0  0  0  0  0  0  0  0  0  0  0
  138.5450   76.5130  222.4620 N   0  0  0  0  0  0  0  0  0  0  0  0
  136.8360   74.7800  223.4640 H   0  0  0  0  0  0  0  0  0  0  0  0
  135.0145   73.2447  222.8203 H   0  0  0  0  0  0  0  0  0  0  0  0
  135.9851   72.6654  221.4432 H   0  0  0  0  0  0  0  0  0  0  0  0
  137.0043   69.1678  222.8943 H   0  0  0  0  0  0  0  0  0  0  0  0
  137.2334   70.1087  221.3412 H   0  0  0  0  0  0  0  0  0  0  0  0
  139.3298   68.8266  223.0720 H   0  0  0  0  0  0  0  0  0  0  0  0
  138.8471   68.4241  221.3784 H   0  0  0  0  0  0  0  0  0  0  0  0
  140.9440   69.7526  221.6147 H   0  0  0  0  0  0  0  0  0  0  0  0
  139.6197   70.4819  220.5788 H   0  0  0  0  0  0  0  0  0  0  0  0
  141.0255   71.6116  222.7781 H   0  0  0  0  0  0  0  0  0  0  0  0
  139.7456   72.3135  221.6868 H   0  0  0  0  0  0  0  0  0  0  0  0
  138.9850   72.5841  223.8458 H   0  0  0  0  0  0  0  0  0  0  0  0
  137.8308   69.3981  224.7763 H   0  0  0  0  0  0  0  0  0  0  0  0
  138.6330   68.1855  226.7775 H   0  0  0  0  0  0  0  0  0  0  0  0
  142.0335   70.7632  226.9358 H   0  0  0  0  0  0  0  0  0  0  0  0
  141.2274   71.9747  224.9377 H   0  0  0  0  0  0  0  0  0  0  0  0
  140.5618   74.2787  220.9738 H   0  0  0  0  0  0  0  0  0  0  0  0
  142.1717   76.1470  221.2244 H   0  0  0  0  0  0  0  0  0  0  0  0
  142.6397   78.4245  221.9815 H   0  0  0  0  0  0  0  0  0  0  0  0
  139.4697   80.7038  223.8357 H   0  0  0  0  0  0  0  0  0  0  0  0
  137.8928   78.7735  223.5497 H   0  0  0  0  0  0  0  0  0  0  0  0
  1  2  2  0
  2  3  1  0
  3  4  1  0
  4  5  1  0
  5  6  2  0
  5  7  1  0
  7  8  1  0
  8  9  1  0
  9 10  1  0
 10 11  1  0
 11 12  1  0
 12 13  1  0
 13 14  2  0
 14 15  1  0
 15 16  2  0
 16 17  1  0
 16 18  1  0
 18 19  2  0
  2 20  1  0
 20 21  2  0
 21 22  1  0
 22 23  2  0
 23 24  1  0
 24 25  2  0
 25 26  1  0
 26 27  1  0
 26 28  1  0
 26 29  1  0
 25 30  1  0
 30 31  2  0
 31 32  1  0
 32 33  2  0
 12  7  1  0
 19 13  1  0
 33 20  1  0
 32 23  1  0
  3 34  1  0
  4 35  1  0
  4 36  1  0
  8 37  1  0
  8 38  1  0
  9 39  1  0
  9 40  1  0
 10 41  1  0
 10 42  1  0
 11 43  1  0
 11 44  1  0
 12 45  1  1
 14 46  1  0
 15 47  1  0
 18 48  1  0
 19 49  1  0
 21 50  1  0
 22 51  1  0
 24 52  1  0
 30 53  1  0
 31 54  1  0
M  END
>  <smiles>  (21) 
O=C(NCC(=O)N1CCCCC1c1ccc(Cl)cc1)c1ccc2cc(C(F)(F)F)ccc2n1

>  <score_type>  (21) 
oracle

>  <origin>  (21) 
autodockgpu

>  <m_score__min__energy>  (21) 
-8.5999999999999996

>  <m_primary>  (21) 
energy

>  <rmsd>  (21) 
7.309930997384696

>  <m_score__min__rmsd>  (21) 
7.309930997384696

>  <meeko>  (21) 
{"free_energy": -8.02, "intermolecular_energy": -9.8, "internal_energy": -2.13, "cluster_size": 17, "cluster_id": 4, "rank_in_cluster": 6}

>  <energy>  (21) 
-8.06

>  <cluster_rmsd>  (21) 
0.0

>  <cluster>  (21) 
4

$$$$

     RDKit          3D

 54 57  0  0  0  0  0  0  0  0999 V2000
  140.1200   73.4920  220.2820 O   0  0  0  0  0  0  0  0  0  0  0  0
  139.8990   73.5610  221.5190 C   0  0  0  0  0  0  0  0  0  0  0  0
  139.7360   74.8410  222.1430 N   0  0  0  0  0  0  0  0  0  0  0  0
  139.8400   76.0170  221.2700 C   0  0  0  0  0  0  0  0  0  0  0  0
  140.4830   77.0820  222.0430 C   0  0  0  0  0  0  0  0  0  0  0  0
  141.0900   76.7620  223.1000 O   0  0  0  0  0  0  0  0  0  0  0  0
  140.4820   78.4570  221.7010 N   0  0  0  0  0  0  0  0  0  0  0  0
  141.6850   79.2510  221.8310 C   0  0  0  0  0  0  0  0  0  0  0  0
  141.5270   80.6610  221.3920 C   0  0  0  0  0  0  0  0  0  0  0  0
  140.8740   80.7300  220.0580 C   0  0  0  0  0  0  0  0  0  0  0  0
  139.6240   79.9120  219.9400 C   0  0  0  0  0  0  0  0  0  0  0  0
  139.2980   79.1540  221.2010 C   0  0  2  0  0  0  0  0  0  0  0  0
  138.6750   79.9810  222.2580 C   0  0  0  0  0  0  0  0  0  0  0  0
  137.8710   81.0710  222.0210 C   0  0  0  0  0  0  0  0  0  0  0  0
  137.3070   81.8220  223.0570 C   0  0  0  0  0  0  0  0  0  0  0  0
  137.5380   81.4920  224.3750 C   0  0  0  0  0  0  0  0  0  0  0  0
  136.8310   82.4330  225.6570 Cl  0  0  0  0  0  0  0  0  0  0  0  0
  138.3440   80.4000  224.6130 C   0  0  0  0  0  0  0  0  0  0  0  0
  138.9070   79.6500  223.5770 C   0  0  0  0  0  0  0  0  0  0  0  0
  139.7980   72.3820  222.3740 C   0  0  0  0  0  0  0  0  0  0  0  0
  139.1170   71.2580  221.9010 C   0  0  0  0  0  0  0  0  0  0  0  0
  139.0000   70.1250  222.6760 C   0  0  0  0  0  0  0  0  0  0  0  0
  139.5700   70.1150  223.9410 C   0  0  0  0  0  0  0  0  0  0  0  0
  139.4680   68.9840  224.7510 C   0  0  0  0  0  0  0  0  0  0  0  0
  140.0500   69.0180  226.0030 C   0  0  0  0  0  0  0  0  0  0  0  0
  139.9590   67.8320  226.8840 C   0  0  0  0  0  0  0  0  0  0  0  0
  138.8450   67.0900  226.4730 F   0  0  0  0  0  0  0  0  0  0  0  0
  141.0440   67.0190  226.7520 F   0  0  0  0  0  0  0  0  0  0  0  0
  139.7150   68.2130  228.1830 F   0  0  0  0  0  0  0  0  0  0  0  0
  140.7270   70.1510  226.4590 C   0  0  0  0  0  0  0  0  0  0  0  0
  140.8250   71.2780  225.6470 C   0  0  0  0  0  0  0  0  0  0  0  0
  140.2360   71.2270  224.3940 C   0  0  0  0  0  0  0  0  0  0  0  0
  140.3410   72.3370  223.6100 N   0  0  0  0  0  0  0  0  0  0  0  0
  139.5530   74.9230  223.1670 H   0  0  0  0  0  0  0  0  0  0  0  0
  140.4474   75.7757  220.3852 H   0  0  0  0  0  0  0  0  0  0  0  0
  138.8444   76.3341  220.9260 H   0  0  0  0  0  0  0  0  0  0  0  0
  141.9881   79.2496  222.8884 H   0  0  0  0  0  0  0  0  0  0  0  0
  142.4404   78.7952  221.1740 H   0  0  0  0  0  0  0  0  0  0  0  0
  140.9078   81.1993  222.1246 H   0  0  0  0  0  0  0  0  0  0  0  0
  142.5236   81.1211  221.3203 H   0  0  0  0  0  0  0  0  0  0  0  0
  140.6190   81.7803  219.8532 H   0  0  0  0  0  0  0  0  0  0  0  0
  141.5912   80.3152  219.3345 H   0  0  0  0  0  0  0  0  0  0  0  0
  138.7850   80.5845  219.7079 H   0  0  0  0  0  0  0  0  0  0  0  0
  139.7879   79.1718  219.1429 H   0  0  0  0  0  0  0  0  0  0  0  0
  138.5329   78.4140  220.9234 H   0  0  0  0  0  0  0  0  0  0  0  0
  137.6643   81.3623  220.9806 H   0  0  0  0  0  0  0  0  0  0  0  0
  136.6711   82.6869  222.8170 H   0  0  0  0  0  0  0  0  0  0  0  0
  138.5512   80.1089  225.6534 H   0  0  0  0  0  0  0  0  0  0  0  0
  139.5430   78.7850  223.8162 H   0  0  0  0  0  0  0  0  0  0  0  0
  138.6684   71.2777  220.8968 H   0  0  0  0  0  0  0  0  0  0  0  0
  138.4633   69.2424  222.2980 H   0  0  0  0  0  0  0  0  0  0  0  0
  138.9368   68.0866  224.4010 H   0  0  0  0  0  0  0  0  0  0  0  0
  141.1831   70.1532  227.4600 H   0  0  0  0  0  0  0  0  0  0  0  0
  141.3532   72.1800  225.9895 H   0  0  0  0  0  0  0  0  0  0  0  0
  1  2  2  0
  2  3  1  0
  3  4  1  0
  4  5  1  0
  5  6  2  0
  5  7  1  0
  7  8  1  0
  8  9  1  0
  9 10  1  0
 10 11  1  0
 11 12  1  0
 12 13  1  0
 13 14  2  0
 14 15  1  0
 15 16  2  0
 16 17  1  0
 16 18  1  0
 18 19  2  0
  2 20  1  0
 20 21  2  0
 21 22  1  0
 22 23  2  0
 23 24  1  0
 24 25  2  0
 25 26  1  0
 26 27  1  0
 26 28  1  0
 26 29  1  0
 25 30  1  0
 30 31  2  0
 31 32  1  0
 32 33  2  0
 12  7  1  0
 19 13  1  0
 33 20  1  0
 32 23  1  0
  3 34  1  0
  4 35  1  0
  4 36  1  0
  8 37  1  0
  8 38  1  0
  9 39  1  0
  9 40  1  0
 10 41  1  0
 10 42  1  0
 11 43  1  0
 11 44  1  0
 12 45  1  6
 14 46  1  0
 15 47  1  0
 18 48  1  0
 19 49  1  0
 21 50  1  0
 22 51  1  0
 24 52  1  0
 30 53  1  0
 31 54  1  0
M  END
>  <smiles>  (22) 
O=C(NCC(=O)N1CCCCC1c1ccc(Cl)cc1)c1ccc2cc(C(F)(F)F)ccc2n1

>  <score_type>  (22) 
oracle

>  <origin>  (22) 
autodockgpu

>  <m_score__min__energy>  (22) 
-8.5999999999999996

>  <m_primary>  (22) 
energy

>  <rmsd>  (22) 
3.5444740809762054

>  <m_score__min__rmsd>  (22) 
3.5444740809762054

>  <meeko>  (22) 
{"free_energy": -7.62, "intermolecular_energy": -9.41, "internal_energy": -1.93, "cluster_size": 5, "cluster_id": 2, "rank_in_cluster": 5}

>  <energy>  (22) 
-8.04

>  <cluster_rmsd>  (22) 
0.07

>  <cluster>  (22) 
4

$$$$

     RDKit          3D

 54 57  0  0  0  0  0  0  0  0999 V2000
  137.9830   73.3490  220.7500 O   0  0  0  0  0  0  0  0  0  0  0  0
  137.9170   74.1440  221.7240 C   0  0  0  0  0  0  0  0  0  0  0  0
  136.8950   73.9760  222.7130 N   0  0  0  0  0  0  0  0  0  0  0  0
  135.9670   72.8550  222.5170 C   0  0  0  0  0  0  0  0  0  0  0  0
  136.4700   71.7270  223.3050 C   0  0  0  0  0  0  0  0  0  0  0  0
  135.7850   71.3430  224.2910 O   0  0  0  0  0  0  0  0  0  0  0  0
  137.6730   71.0210  223.0510 N   0  0  0  0  0  0  0  0  0  0  0  0
  137.6590   69.7860  222.2970 C   0  0  0  0  0  0  0  0  0  0  0  0
  139.0040   69.1950  222.0840 C   0  0  0  0  0  0  0  0  0  0  0  0
  139.9590   70.2210  221.5860 C   0  0  0  0  0  0  0  0  0  0  0  0
  139.9710   71.4910  222.3810 C   0  0  0  0  0  0  0  0  0  0  0  0
  138.9800   71.4810  223.5160 C   0  0  2  0  0  0  0  0  0  0  0  0
  139.4270   70.7170  224.7020 C   0  0  0  0  0  0  0  0  0  0  0  0
  138.7380   69.6630  225.2530 C   0  0  0  0  0  0  0  0  0  0  0  0
  139.2030   68.9730  226.3780 C   0  0  0  0  0  0  0  0  0  0  0  0
  140.3890   69.3290  226.9830 C   0  0  0  0  0  0  0  0  0  0  0  0
  140.9590   68.4630  228.3810 Cl  0  0  0  0  0  0  0  0  0  0  0  0
  141.0800   70.3860  226.4310 C   0  0  0  0  0  0  0  0  0  0  0  0
  140.6140   71.0740  225.3080 C   0  0  0  0  0  0  0  0  0  0  0  0
  138.8480   75.2550  221.9050 C   0  0  0  0  0  0  0  0  0  0  0  0
  140.1800   75.0940  221.5150 C   0  0  0  0  0  0  0  0  0  0  0  0
  141.0890   76.1170  221.6680 C   0  0  0  0  0  0  0  0  0  0  0  0
  140.6630   77.3170  222.2190 C   0  0  0  0  0  0  0  0  0  0  0  0
  141.5590   78.3720  222.3880 C   0  0  0  0  0  0  0  0  0  0  0  0
  141.0920   79.5490  222.9400 C   0  0  0  0  0  0  0  0  0  0  0  0
  142.0200   80.6860  223.1310 C   0  0  0  0  0  0  0  0  0  0  0  0
  143.2750   80.1530  223.4470 F   0  0  0  0  0  0  0  0  0  0  0  0
  142.1760   81.4100  221.9870 F   0  0  0  0  0  0  0  0  0  0  0  0
  141.6370   81.4470  224.2110 F   0  0  0  0  0  0  0  0  0  0  0  0
  139.7570   79.6910  223.3240 C   0  0  0  0  0  0  0  0  0  0  0  0
  138.8670   78.6350  223.1530 C   0  0  0  0  0  0  0  0  0  0  0  0
  139.3510   77.4620  222.5980 C   0  0  0  0  0  0  0  0  0  0  0  0
  138.4690   76.4360  222.4360 N   0  0  0  0  0  0  0  0  0  0  0  0
  136.8210   74.6230  223.5280 H   0  0  0  0  0  0  0  0  0  0  0  0
  134.9607   73.1353  222.8616 H   0  0  0  0  0  0  0  0  0  0  0  0
  135.9016   72.5865  221.4523 H   0  0  0  0  0  0  0  0  0  0  0  0
  137.0420   69.0554  222.8407 H   0  0  0  0  0  0  0  0  0  0  0  0
  137.2542   70.0242  221.3023 H   0  0  0  0  0  0  0  0  0  0  0  0
  139.3748   68.7896  223.0370 H   0  0  0  0  0  0  0  0  0  0  0  0
  138.9228   68.3951  221.3333 H   0  0  0  0  0  0  0  0  0  0  0  0
  140.9708   69.7901  221.6101 H   0  0  0  0  0  0  0  0  0  0  0  0
  139.6319   70.4887  220.5704 H   0  0  0  0  0  0  0  0  0  0  0  0
  140.9792   71.6356  222.7965 H   0  0  0  0  0  0  0  0  0  0  0  0
  139.6872   72.3085  221.7019 H   0  0  0  0  0  0  0  0  0  0  0  0
  138.8972   72.5234  223.8575 H   0  0  0  0  0  0  0  0  0  0  0  0
  137.7883   69.3512  224.7938 H   0  0  0  0  0  0  0  0  0  0  0  0
  138.6151   68.1367  226.7842 H   0  0  0  0  0  0  0  0  0  0  0  0
  142.0298   70.6982  226.8898 H   0  0  0  0  0  0  0  0  0  0  0  0
  141.2009   71.9110  224.9017 H   0  0  0  0  0  0  0  0  0  0  0  0
  140.5067   74.1379  221.0802 H   0  0  0  0  0  0  0  0  0  0  0  0
  142.1362   75.9849  221.3583 H   0  0  0  0  0  0  0  0  0  0  0  0
  142.6126   78.2694  222.0889 H   0  0  0  0  0  0  0  0  0  0  0  0
  139.4087   80.6381  223.7619 H   0  0  0  0  0  0  0  0  0  0  0  0
  137.8119   78.7290  223.4494 H   0  0  0  0  0  0  0  0  0  0  0  0
  1  2  2  0
  2  3  1  0
  3  4  1  0
  4  5  1  0
  5  6  2  0
  5  7  1  0
  7  8  1  0
  8  9  1  0
  9 10  1  0
 10 11  1  0
 11 12  1  0
 12 13  1  0
 13 14  2  0
 14 15  1  0
 15 16  2  0
 16 17  1  0
 16 18  1  0
 18 19  2  0
  2 20  1  0
 20 21  2  0
 21 22  1  0
 22 23  2  0
 23 24  1  0
 24 25  2  0
 25 26  1  0
 26 27  1  0
 26 28  1  0
 26 29  1  0
 25 30  1  0
 30 31  2  0
 31 32  1  0
 32 33  2  0
 12  7  1  0
 19 13  1  0
 33 20  1  0
 32 23  1  0
  3 34  1  0
  4 35  1  0
  4 36  1  0
  8 37  1  0
  8 38  1  0
  9 39  1  0
  9 40  1  0
 10 41  1  0
 10 42  1  0
 11 43  1  0
 11 44  1  0
 12 45  1  1
 14 46  1  0
 15 47  1  0
 18 48  1  0
 19 49  1  0
 21 50  1  0
 22 51  1  0
 24 52  1  0
 30 53  1  0
 31 54  1  0
M  END
>  <smiles>  (23) 
O=C(NCC(=O)N1CCCCC1c1ccc(Cl)cc1)c1ccc2cc(C(F)(F)F)ccc2n1

>  <score_type>  (23) 
oracle

>  <origin>  (23) 
autodockgpu

>  <m_score__min__energy>  (23) 
-8.5999999999999996

>  <m_primary>  (23) 
energy

>  <rmsd>  (23) 
7.275991396606152

>  <m_score__min__rmsd>  (23) 
7.275991396606152

>  <meeko>  (23) 
{"free_energy": -8.04, "intermolecular_energy": -9.83, "internal_energy": -2.14, "cluster_size": 17, "cluster_id": 4, "rank_in_cluster": 2}

>  <energy>  (23) 
-8.04

>  <cluster_rmsd>  (23) 
0.09

>  <cluster>  (23) 
4

$$$$

     RDKit          3D

 54 57  0  0  0  0  0  0  0  0999 V2000
  140.2670   73.1260  220.5050 O   0  0  0  0  0  0  0  0  0  0  0  0
  139.8200   73.2830  221.6700 C   0  0  0  0  0  0  0  0  0  0  0  0
  139.3340   74.5670  222.0800 N   0  0  0  0  0  0  0  0  0  0  0  0
  139.3940   75.6420  221.0820 C   0  0  0  0  0  0  0  0  0  0  0  0
  140.5930   76.4340  221.3630 C   0  0  0  0  0  0  0  0  0  0  0  0
  141.7160   75.9100  221.1330 O   0  0  0  0  0  0  0  0  0  0  0  0
  140.6000   77.7560  221.8760 N   0  0  0  0  0  0  0  0  0  0  0  0
  139.3930   78.3480  222.4100 C   0  0  0  0  0  0  0  0  0  0  0  0
  139.5800   79.7200  222.9450 C   0  0  0  0  0  0  0  0  0  0  0  0
  140.7590   79.7800  223.8500 C   0  0  0  0  0  0  0  0  0  0  0  0
  142.0050   79.1730  223.2800 C   0  0  0  0  0  0  0  0  0  0  0  0
  141.7990   78.5930  221.9050 C   0  0  2  0  0  0  0  0  0  0  0  0
  141.7770   79.6010  220.8210 C   0  0  0  0  0  0  0  0  0  0  0  0
  141.7810   79.3010  219.4800 C   0  0  0  0  0  0  0  0  0  0  0  0
  141.7610   80.2920  218.4930 C   0  0  0  0  0  0  0  0  0  0  0  0
  141.7340   81.6270  218.8340 C   0  0  0  0  0  0  0  0  0  0  0  0
  141.7080   82.8530  217.5990 Cl  0  0  0  0  0  0  0  0  0  0  0  0
  141.7300   81.9280  220.1800 C   0  0  0  0  0  0  0  0  0  0  0  0
  141.7500   80.9370  221.1640 C   0  0  0  0  0  0  0  0  0  0  0  0
  139.7670   72.2030  222.6510 C   0  0  0  0  0  0  0  0  0  0  0  0
  139.0110   71.0620  222.3640 C   0  0  0  0  0  0  0  0  0  0  0  0
  138.9360   70.0210  223.2620 C   0  0  0  0  0  0  0  0  0  0  0  0
  139.6230   70.1200  224.4640 C   0  0  0  0  0  0  0  0  0  0  0  0
  139.5660   69.0820  225.3950 C   0  0  0  0  0  0  0  0  0  0  0  0
  140.2650   69.2230  226.5780 C   0  0  0  0  0  0  0  0  0  0  0  0
  140.2240   68.1380  227.5850 C   0  0  0  0  0  0  0  0  0  0  0  0
  139.2200   67.2440  227.1950 F   0  0  0  0  0  0  0  0  0  0  0  0
  141.3890   67.4330  227.6170 F   0  0  0  0  0  0  0  0  0  0  0  0
  139.8500   68.6320  228.8130 F   0  0  0  0  0  0  0  0  0  0  0  0
  141.0140   70.3700  226.8480 C   0  0  0  0  0  0  0  0  0  0  0  0
  141.0670   71.4020  225.9150 C   0  0  0  0  0  0  0  0  0  0  0  0
  140.3600   71.2450  224.7340 C   0  0  0  0  0  0  0  0  0  0  0  0
  140.4220   72.2630  223.8300 N   0  0  0  0  0  0  0  0  0  0  0  0
  138.9580   74.7200  223.0410 H   0  0  0  0  0  0  0  0  0  0  0  0
  139.4551   75.2133  220.0708 H   0  0  0  0  0  0  0  0  0  0  0  0
  138.4926   76.2704  221.1334 H   0  0  0  0  0  0  0  0  0  0  0  0
  138.6430   78.3892  221.6064 H   0  0  0  0  0  0  0  0  0  0  0  0
  139.0752   77.7176  223.2536 H   0  0  0  0  0  0  0  0  0  0  0  0
  139.7334   80.4157  222.1069 H   0  0  0  0  0  0  0  0  0  0  0  0
  138.6830   79.9998  223.5169 H   0  0  0  0  0  0  0  0  0  0  0  0
  140.9640   80.8361  224.0793 H   0  0  0  0  0  0  0  0  0  0  0  0
  140.5014   79.1911  224.7427 H   0  0  0  0  0  0  0  0  0  0  0  0
  142.7791   79.9522  223.2198 H   0  0  0  0  0  0  0  0  0  0  0  0
  142.3042   78.3489  223.9443 H   0  0  0  0  0  0  0  0  0  0  0  0
  142.6816   77.9688  221.7018 H   0  0  0  0  0  0  0  0  0  0  0  0
  141.8006   78.2452  219.1721 H   0  0  0  0  0  0  0  0  0  0  0  0
  141.7669   80.0022  217.4319 H   0  0  0  0  0  0  0  0  0  0  0  0
  141.7104   82.9836  220.4887 H   0  0  0  0  0  0  0  0  0  0  0  0
  141.7442   81.2253  222.2255 H   0  0  0  0  0  0  0  0  0  0  0  0
  138.4695   70.9954  221.4088 H   0  0  0  0  0  0  0  0  0  0  0  0
  138.3411   69.1252  223.0305 H   0  0  0  0  0  0  0  0  0  0  0  0
  138.9790   68.1741  225.1918 H   0  0  0  0  0  0  0  0  0  0  0  0
  141.5621   70.4582  227.7977 H   0  0  0  0  0  0  0  0  0  0  0  0
  141.6517   72.3132  226.1094 H   0  0  0  0  0  0  0  0  0  0  0  0
  1  2  2  0
  2  3  1  0
  3  4  1  0
  4  5  1  0
  5  6  2  0
  5  7  1  0
  7  8  1  0
  8  9  1  0
  9 10  1  0
 10 11  1  0
 11 12  1  0
 12 13  1  0
 13 14  2  0
 14 15  1  0
 15 16  2  0
 16 17  1  0
 16 18  1  0
 18 19  2  0
  2 20  1  0
 20 21  2  0
 21 22  1  0
 22 23  2  0
 23 24  1  0
 24 25  2  0
 25 26  1  0
 26 27  1  0
 26 28  1  0
 26 29  1  0
 25 30  1  0
 30 31  2  0
 31 32  1  0
 32 33  2  0
 12  7  1  0
 19 13  1  0
 33 20  1  0
 32 23  1  0
  3 34  1  0
  4 35  1  0
  4 36  1  0
  8 37  1  0
  8 38  1  0
  9 39  1  0
  9 40  1  0
 10 41  1  0
 10 42  1  0
 11 43  1  0
 11 44  1  0
 12 45  1  6
 14 46  1  0
 15 47  1  0
 18 48  1  0
 19 49  1  0
 21 50  1  0
 22 51  1  0
 24 52  1  0
 30 53  1  0
 31 54  1  0
M  END
>  <smiles>  (24) 
O=C(NCC(=O)N1CCCCC1c1ccc(Cl)cc1)c1ccc2cc(C(F)(F)F)ccc2n1

>  <score_type>  (24) 
oracle

>  <origin>  (24) 
autodockgpu

>  <m_score__min__energy>  (24) 
-8.5999999999999996

>  <m_primary>  (24) 
energy

>  <rmsd>  (24) 
3.5229806254488847

>  <m_score__min__rmsd>  (24) 
3.5229806254488847

>  <meeko>  (24) 
{"free_energy": -8.57, "intermolecular_energy": -10.36, "internal_energy": -1.37, "cluster_size": 10, "cluster_id": 1, "rank_in_cluster": 2}

>  <energy>  (24) 
-8.02

>  <cluster_rmsd>  (24) 
0.09

>  <cluster>  (24) 
4

$$$$

     RDKit          3D

 54 57  0  0  0  0  0  0  0  0999 V2000
  133.5940   70.2220  226.7370 O   0  0  0  0  0  0  0  0  0  0  0  0
  133.7720   71.3340  226.1760 C   0  0  0  0  0  0  0  0  0  0  0  0
  134.6030   71.4190  225.0110 N   0  0  0  0  0  0  0  0  0  0  0  0
  135.2050   70.1660  224.5400 C   0  0  0  0  0  0  0  0  0  0  0  0
  136.2180   70.5140  223.5420 C   0  0  0  0  0  0  0  0  0  0  0  0
  136.0280   71.5440  222.8400 O   0  0  0  0  0  0  0  0  0  0  0  0
  137.4080   69.7850  223.2930 N   0  0  0  0  0  0  0  0  0  0  0  0
  137.3540   68.4470  222.7460 C   0  0  0  0  0  0  0  0  0  0  0  0
  138.6870   67.8390  222.5060 C   0  0  0  0  0  0  0  0  0  0  0  0
  139.5720   68.7790  221.7690 C   0  0  0  0  0  0  0  0  0  0  0  0
  139.6280   70.1590  222.3520 C   0  0  0  0  0  0  0  0  0  0  0  0
  138.7420   70.3220  223.5590 C   0  0  2  0  0  0  0  0  0  0  0  0
  139.3090   69.7570  224.8040 C   0  0  0  0  0  0  0  0  0  0  0  0
  138.7840   68.6810  225.4800 C   0  0  0  0  0  0  0  0  0  0  0  0
  139.3570   68.1860  226.6560 C   0  0  0  0  0  0  0  0  0  0  0  0
  140.4880   68.7670  227.1890 C   0  0  0  0  0  0  0  0  0  0  0  0
  141.1930   68.1430  228.6520 Cl  0  0  0  0  0  0  0  0  0  0  0  0
  141.0140   69.8470  226.5120 C   0  0  0  0  0  0  0  0  0  0  0  0
  140.4400   70.3400  225.3380 C   0  0  0  0  0  0  0  0  0  0  0  0
  133.1660   72.5720  226.6570 C   0  0  0  0  0  0  0  0  0  0  0  0
  131.9560   72.5090  227.3530 C   0  0  0  0  0  0  0  0  0  0  0  0
  131.3520   73.6530  227.8240 C   0  0  0  0  0  0  0  0  0  0  0  0
  131.9630   74.8780  227.5960 C   0  0  0  0  0  0  0  0  0  0  0  0
  131.3770   76.0550  228.0600 C   0  0  0  0  0  0  0  0  0  0  0  0
  132.0200   77.2530  227.8110 C   0  0  0  0  0  0  0  0  0  0  0  0
  131.4200   78.5180  228.2910 C   0  0  0  0  0  0  0  0  0  0  0  0
  130.8930   79.1810  227.1760 F   0  0  0  0  0  0  0  0  0  0  0  0
  130.3820   78.2940  229.1440 F   0  0  0  0  0  0  0  0  0  0  0  0
  132.3890   79.3440  228.8130 F   0  0  0  0  0  0  0  0  0  0  0  0
  133.2280   77.2960  227.1130 C   0  0  0  0  0  0  0  0  0  0  0  0
  133.8100   76.1180  226.6530 C   0  0  0  0  0  0  0  0  0  0  0  0
  133.1520   74.9270  226.9110 C   0  0  0  0  0  0  0  0  0  0  0  0
  133.7330   73.7810  226.4550 N   0  0  0  0  0  0  0  0  0  0  0  0
  134.7660   72.3300  224.5290 H   0  0  0  0  0  0  0  0  0  0  0  0
  135.6735   69.6345  225.3815 H   0  0  0  0  0  0  0  0  0  0  0  0
  134.4395   69.5081  224.1028 H   0  0  0  0  0  0  0  0  0  0  0  0
  136.8037   67.8069  223.4512 H   0  0  0  0  0  0  0  0  0  0  0  0
  136.8577   68.5229  221.7673 H   0  0  0  0  0  0  0  0  0  0  0  0
  139.1496   67.5914  223.4728 H   0  0  0  0  0  0  0  0  0  0  0  0
  138.5557   66.9304  221.9000 H   0  0  0  0  0  0  0  0  0  0  0  0
  140.5907   68.3639  221.7679 H   0  0  0  0  0  0  0  0  0  0  0  0
  139.1508   68.8810  220.7580 H   0  0  0  0  0  0  0  0  0  0  0  0
  140.6658   70.3735  222.6469 H   0  0  0  0  0  0  0  0  0  0  0  0
  139.2684   70.8574  221.5820 H   0  0  0  0  0  0  0  0  0  0  0  0
  138.6673   71.4047  223.7385 H   0  0  0  0  0  0  0  0  0  0  0  0
  137.8822   68.1926  225.0822 H   0  0  0  0  0  0  0  0  0  0  0  0
  138.8997   67.3228  227.1617 H   0  0  0  0  0  0  0  0  0  0  0  0
  141.9153   70.3364  226.9096 H   0  0  0  0  0  0  0  0  0  0  0  0
  140.8955   71.2043  224.8325 H   0  0  0  0  0  0  0  0  0  0  0  0
  131.4799   71.5327  227.5268 H   0  0  0  0  0  0  0  0  0  0  0  0
  130.4001   73.5970  228.3724 H   0  0  0  0  0  0  0  0  0  0  0  0
  130.4254   76.0308  228.6112 H   0  0  0  0  0  0  0  0  0  0  0  0
  133.7206   78.2616  226.9262 H   0  0  0  0  0  0  0  0  0  0  0  0
  134.7621   76.1327  226.1022 H   0  0  0  0  0  0  0  0  0  0  0  0
  1  2  2  0
  2  3  1  0
  3  4  1  0
  4  5  1  0
  5  6  2  0
  5  7  1  0
  7  8  1  0
  8  9  1  0
  9 10  1  0
 10 11  1  0
 11 12  1  0
 12 13  1  0
 13 14  2  0
 14 15  1  0
 15 16  2  0
 16 17  1  0
 16 18  1  0
 18 19  2  0
  2 20  1  0
 20 21  2  0
 21 22  1  0
 22 23  2  0
 23 24  1  0
 24 25  2  0
 25 26  1  0
 26 27  1  0
 26 28  1  0
 26 29  1  0
 25 30  1  0
 30 31  2  0
 31 32  1  0
 32 33  2  0
 12  7  1  0
 19 13  1  0
 33 20  1  0
 32 23  1  0
  3 34  1  0
  4 35  1  0
  4 36  1  0
  8 37  1  0
  8 38  1  0
  9 39  1  0
  9 40  1  0
 10 41  1  0
 10 42  1  0
 11 43  1  0
 11 44  1  0
 12 45  1  1
 14 46  1  0
 15 47  1  0
 18 48  1  0
 19 49  1  0
 21 50  1  0
 22 51  1  0
 24 52  1  0
 30 53  1  0
 31 54  1  0
M  END
>  <smiles>  (25) 
O=C(NCC(=O)N1CCCCC1c1ccc(Cl)cc1)c1ccc2cc(C(F)(F)F)ccc2n1

>  <score_type>  (25) 
oracle

>  <origin>  (25) 
autodockgpu

>  <m_score__min__energy>  (25) 
-8.5999999999999996

>  <m_primary>  (25) 
energy

>  <rmsd>  (25) 
8.484446650483383

>  <m_score__min__rmsd>  (25) 
8.484446650483383

>  <meeko>  (25) 
{"free_energy": -8.04, "intermolecular_energy": -9.83, "internal_energy": -2.03, "cluster_size": 5, "cluster_id": 3, "rank_in_cluster": 2}

>  <energy>  (25) 
-8.02

>  <cluster_rmsd>  (25) 
0.11

>  <cluster>  (25) 
4

$$$$

     RDKit          3D

 54 57  0  0  0  0  0  0  0  0999 V2000
  138.7120   71.7370  220.5860 O   0  0  0  0  0  0  0  0  0  0  0  0
  138.6430   72.1610  221.7690 C   0  0  0  0  0  0  0  0  0  0  0  0
  138.2310   73.5100  222.0180 N   0  0  0  0  0  0  0  0  0  0  0  0
  137.9080   74.3270  220.8420 C   0  0  0  0  0  0  0  0  0  0  0  0
  138.5900   75.6130  221.0020 C   0  0  0  0  0  0  0  0  0  0  0  0
  137.9050   76.6040  221.3740 O   0  0  0  0  0  0  0  0  0  0  0  0
  139.9700   75.8440  220.7720 N   0  0  0  0  0  0  0  0  0  0  0  0
  140.9550   74.8490  221.1390 C   0  0  0  0  0  0  0  0  0  0  0  0
  142.3490   75.2270  220.7940 C   0  0  0  0  0  0  0  0  0  0  0  0
  142.4360   75.7030  219.3880 C   0  0  0  0  0  0  0  0  0  0  0  0
  141.4170   76.7400  219.0250 C   0  0  0  0  0  0  0  0  0  0  0  0
  140.4830   77.0680  220.1600 C   0  0  2  0  0  0  0  0  0  0  0  0
  141.0640   77.9740  221.1770 C   0  0  0  0  0  0  0  0  0  0  0  0
  141.0640   77.7280  222.5290 C   0  0  0  0  0  0  0  0  0  0  0  0
  141.6240   78.6170  223.4510 C   0  0  0  0  0  0  0  0  0  0  0  0
  142.2090   79.7930  223.0300 C   0  0  0  0  0  0  0  0  0  0  0  0
  142.9050   80.8940  224.1850 Cl  0  0  0  0  0  0  0  0  0  0  0  0
  142.2080   80.0410  221.6740 C   0  0  0  0  0  0  0  0  0  0  0  0
  141.6470   79.1510  220.7550 C   0  0  0  0  0  0  0  0  0  0  0  0
  138.9670   71.3350  222.9280 C   0  0  0  0  0  0  0  0  0  0  0  0
  138.5080   70.0150  222.9700 C   0  0  0  0  0  0  0  0  0  0  0  0
  138.7920   69.2030  224.0450 C   0  0  0  0  0  0  0  0  0  0  0  0
  139.5440   69.7150  225.0940 C   0  0  0  0  0  0  0  0  0  0  0  0
  139.8480   68.9180  226.1970 C   0  0  0  0  0  0  0  0  0  0  0  0
  140.5990   69.4680  227.2180 C   0  0  0  0  0  0  0  0  0  0  0  0
  140.9380   68.6450  228.4020 C   0  0  0  0  0  0  0  0  0  0  0  0
  141.9650   69.3040  229.0880 F   0  0  0  0  0  0  0  0  0  0  0  0
  139.8880   68.5450  229.2640 F   0  0  0  0  0  0  0  0  0  0  0  0
  141.4460   67.4280  228.0140 F   0  0  0  0  0  0  0  0  0  0  0  0
  141.0480   70.7890  227.1590 C   0  0  0  0  0  0  0  0  0  0  0  0
  140.7410   71.5800  226.0550 C   0  0  0  0  0  0  0  0  0  0  0  0
  139.9880   71.0130  225.0400 C   0  0  0  0  0  0  0  0  0  0  0  0
  139.6950   71.7980  223.9650 N   0  0  0  0  0  0  0  0  0  0  0  0
  138.1660   73.8840  222.9900 H   0  0  0  0  0  0  0  0  0  0  0  0
  138.2596   73.8260  219.9280 H   0  0  0  0  0  0  0  0  0  0  0  0
  136.8210   74.4717  220.7561 H   0  0  0  0  0  0  0  0  0  0  0  0
  140.8982   74.6897  222.2259 H   0  0  0  0  0  0  0  0  0  0  0  0
  140.7195   73.9399  220.5663 H   0  0  0  0  0  0  0  0  0  0  0  0
  142.6817   76.0304  221.4677 H   0  0  0  0  0  0  0  0  0  0  0  0
  142.9918   74.3414  220.9062 H   0  0  0  0  0  0  0  0  0  0  0  0
  143.4363   76.1328  219.2309 H   0  0  0  0  0  0  0  0  0  0  0  0
  142.2406   74.8307  218.7470 H   0  0  0  0  0  0  0  0  0  0  0  0
  141.9427   77.6590  218.7266 H   0  0  0  0  0  0  0  0  0  0  0  0
  140.8084   76.3312  218.2050 H   0  0  0  0  0  0  0  0  0  0  0  0
  139.6473   77.6283  219.7154 H   0  0  0  0  0  0  0  0  0  0  0  0
  140.6070   76.7983  222.8989 H   0  0  0  0  0  0  0  0  0  0  0  0
  141.5978   78.3761  224.5240 H   0  0  0  0  0  0  0  0  0  0  0  0
  142.6642   80.9708  221.3032 H   0  0  0  0  0  0  0  0  0  0  0  0
  141.6704   79.3915  219.6819 H   0  0  0  0  0  0  0  0  0  0  0  0
  137.9125   69.6203  222.1336 H   0  0  0  0  0  0  0  0  0  0  0  0
  138.4289   68.1650  224.0724 H   0  0  0  0  0  0  0  0  0  0  0  0
  139.4984   67.8765  226.2529 H   0  0  0  0  0  0  0  0  0  0  0  0
  141.6442   71.2047  227.9847 H   0  0  0  0  0  0  0  0  0  0  0  0
  141.0857   72.6226  225.9909 H   0  0  0  0  0  0  0  0  0  0  0  0
  1  2  2  0
  2  3  1  0
  3  4  1  0
  4  5  1  0
  5  6  2  0
  5  7  1  0
  7  8  1  0
  8  9  1  0
  9 10  1  0
 10 11  1  0
 11 12  1  0
 12 13  1  0
 13 14  2  0
 14 15  1  0
 15 16  2  0
 16 17  1  0
 16 18  1  0
 18 19  2  0
  2 20  1  0
 20 21  2  0
 21 22  1  0
 22 23  2  0
 23 24  1  0
 24 25  2  0
 25 26  1  0
 26 27  1  0
 26 28  1  0
 26 29  1  0
 25 30  1  0
 30 31  2  0
 31 32  1  0
 32 33  2  0
 12  7  1  0
 19 13  1  0
 33 20  1  0
 32 23  1  0
  3 34  1  0
  4 35  1  0
  4 36  1  0
  8 37  1  0
  8 38  1  0
  9 39  1  0
  9 40  1  0
 10 41  1  0
 10 42  1  0
 11 43  1  0
 11 44  1  0
 12 45  1  6
 14 46  1  0
 15 47  1  0
 18 48  1  0
 19 49  1  0
 21 50  1  0
 22 51  1  0
 24 52  1  0
 30 53  1  0
 31 54  1  0
M  END
>  <smiles>  (26) 
O=C(NCC(=O)N1CCCCC1c1ccc(Cl)cc1)c1ccc2cc(C(F)(F)F)ccc2n1

>  <score_type>  (26) 
oracle

>  <origin>  (26) 
autodockgpu

>  <m_score__min__energy>  (26) 
-8.5999999999999996

>  <m_primary>  (26) 
energy

>  <rmsd>  (26) 
1.8819575914638291

>  <m_score__min__rmsd>  (26) 
1.8819575914638291

>  <meeko>  (26) 
{"free_energy": -8.3, "intermolecular_energy": -10.09, "internal_energy": -1.75, "cluster_size": 10, "cluster_id": 1, "rank_in_cluster": 9}

>  <energy>  (26) 
-8.02

>  <cluster_rmsd>  (26) 
0.14

>  <cluster>  (26) 
4

$$$$

     RDKit          3D

 54 57  0  0  0  0  0  0  0  0999 V2000
  133.0130   69.7690  226.4890 O   0  0  0  0  0  0  0  0  0  0  0  0
  133.5960   70.8560  226.2430 C   0  0  0  0  0  0  0  0  0  0  0  0
  134.8220   70.8550  225.5020 N   0  0  0  0  0  0  0  0  0  0  0  0
  135.3280   69.5460  225.0680 C   0  0  0  0  0  0  0  0  0  0  0  0
  135.9710   69.7340  223.7660 C   0  0  0  0  0  0  0  0  0  0  0  0
  135.2300   69.8550  222.7530 O   0  0  0  0  0  0  0  0  0  0  0  0
  137.3690   69.7930  223.5440 N   0  0  0  0  0  0  0  0  0  0  0  0
  138.0030   68.9060  222.5920 C   0  0  0  0  0  0  0  0  0  0  0  0
  139.4650   69.1250  222.4460 C   0  0  0  0  0  0  0  0  0  0  0  0
  139.7680   70.5680  222.2540 C   0  0  0  0  0  0  0  0  0  0  0  0
  139.1130   71.4740  223.2520 C   0  0  0  0  0  0  0  0  0  0  0  0
  138.2480   70.7330  224.2380 C   0  0  2  0  0  0  0  0  0  0  0  0
  139.0040   70.0630  225.3200 C   0  0  0  0  0  0  0  0  0  0  0  0
  138.8130   68.7580  225.7090 C   0  0  0  0  0  0  0  0  0  0  0  0
  139.5520   68.1700  226.7400 C   0  0  0  0  0  0  0  0  0  0  0  0
  140.5170   68.8880  227.4140 C   0  0  0  0  0  0  0  0  0  0  0  0
  141.4330   68.1470  228.6950 Cl  0  0  0  0  0  0  0  0  0  0  0  0
  140.7080   70.1960  227.0250 C   0  0  0  0  0  0  0  0  0  0  0  0
  139.9680   70.7820  225.9940 C   0  0  0  0  0  0  0  0  0  0  0  0
  133.0800   72.1500  226.6810 C   0  0  0  0  0  0  0  0  0  0  0  0
  131.8710   72.1960  227.3810 C   0  0  0  0  0  0  0  0  0  0  0  0
  131.3500   73.3960  227.8110 C   0  0  0  0  0  0  0  0  0  0  0  0
  132.0450   74.5660  227.5390 C   0  0  0  0  0  0  0  0  0  0  0  0
  131.5440   75.7970  227.9620 C   0  0  0  0  0  0  0  0  0  0  0  0
  132.2680   76.9370  227.6690 C   0  0  0  0  0  0  0  0  0  0  0  0
  131.7610   78.2580  228.1050 C   0  0  0  0  0  0  0  0  0  0  0  0
  132.8270   78.9380  228.7040 F   0  0  0  0  0  0  0  0  0  0  0  0
  131.3520   79.0150  227.0490 F   0  0  0  0  0  0  0  0  0  0  0  0
  130.7980   78.1090  229.0760 F   0  0  0  0  0  0  0  0  0  0  0  0
  133.4740   76.8710  226.9680 C   0  0  0  0  0  0  0  0  0  0  0  0
  133.9690   75.6390  226.5490 C   0  0  0  0  0  0  0  0  0  0  0  0
  133.2310   74.5070  226.8500 C   0  0  0  0  0  0  0  0  0  0  0  0
  133.7280   73.3080  226.4340 N   0  0  0  0  0  0  0  0  0  0  0  0
  135.3230   71.7440  225.2850 H   0  0  0  0  0  0  0  0  0  0  0  0
  136.0588   69.1652  225.7966 H   0  0  0  0  0  0  0  0  0  0  0  0
  134.5070   68.8177  224.9938 H   0  0  0  0  0  0  0  0  0  0  0  0
  137.8394   67.8696  222.9222 H   0  0  0  0  0  0  0  0  0  0  0  0
  137.5497   69.1136  221.6115 H   0  0  0  0  0  0  0  0  0  0  0  0
  139.9752   68.7672  223.3525 H   0  0  0  0  0  0  0  0  0  0  0  0
  139.8173   68.5711  221.5633 H   0  0  0  0  0  0  0  0  0  0  0  0
  140.8570   70.7041  222.3279 H   0  0  0  0  0  0  0  0  0  0  0  0
  139.3684   70.8451  221.2673 H   0  0  0  0  0  0  0  0  0  0  0  0
  139.8971   72.0102  223.8067 H   0  0  0  0  0  0  0  0  0  0  0  0
  138.4616   72.1630  222.6944 H   0  0  0  0  0  0  0  0  0  0  0  0
  137.6364   71.4962  224.7415 H   0  0  0  0  0  0  0  0  0  0  0  0
  138.0522   68.1556  225.1909 H   0  0  0  0  0  0  0  0  0  0  0  0
  139.3613   67.1226  227.0166 H   0  0  0  0  0  0  0  0  0  0  0  0
  141.4681   70.7992  227.5430 H   0  0  0  0  0  0  0  0  0  0  0  0
  140.1572   71.8296  225.7171 H   0  0  0  0  0  0  0  0  0  0  0  0
  131.3290   71.2621  227.5910 H   0  0  0  0  0  0  0  0  0  0  0  0
  130.3981   73.4267  228.3614 H   0  0  0  0  0  0  0  0  0  0  0  0
  130.5954   75.8589  228.5155 H   0  0  0  0  0  0  0  0  0  0  0  0
  134.0328   77.7923  226.7469 H   0  0  0  0  0  0  0  0  0  0  0  0
  134.9171   75.5673  225.9959 H   0  0  0  0  0  0  0  0  0  0  0  0
  1  2  2  0
  2  3  1  0
  3  4  1  0
  4  5  1  0
  5  6  2  0
  5  7  1  0
  7  8  1  0
  8  9  1  0
  9 10  1  0
 10 11  1  0
 11 12  1  0
 12 13  1  0
 13 14  2  0
 14 15  1  0
 15 16  2  0
 16 17  1  0
 16 18  1  0
 18 19  2  0
  2 20  1  0
 20 21  2  0
 21 22  1  0
 22 23  2  0
 23 24  1  0
 24 25  2  0
 25 26  1  0
 26 27  1  0
 26 28  1  0
 26 29  1  0
 25 30  1  0
 30 31  2  0
 31 32  1  0
 32 33  2  0
 12  7  1  0
 19 13  1  0
 33 20  1  0
 32 23  1  0
  3 34  1  0
  4 35  1  0
  4 36  1  0
  8 37  1  0
  8 38  1  0
  9 39  1  0
  9 40  1  0
 10 41  1  0
 10 42  1  0
 11 43  1  0
 11 44  1  0
 12 45  1  1
 14 46  1  0
 15 47  1  0
 18 48  1  0
 19 49  1  0
 21 50  1  0
 22 51  1  0
 24 52  1  0
 30 53  1  0
 31 54  1  0
M  END
>  <smiles>  (27) 
O=C(NCC(=O)N1CCCCC1c1ccc(Cl)cc1)c1ccc2cc(C(F)(F)F)ccc2n1

>  <score_type>  (27) 
oracle

>  <origin>  (27) 
autodockgpu

>  <m_score__min__energy>  (27) 
-8.5999999999999996

>  <m_primary>  (27) 
energy

>  <rmsd>  (27) 
8.342171013136058

>  <m_score__min__rmsd>  (27) 
8.342171013136058

>  <meeko>  (27) 
{"free_energy": -8.18, "intermolecular_energy": -9.97, "internal_energy": -1.8, "cluster_size": 5, "cluster_id": 3, "rank_in_cluster": 1}

>  <energy>  (27) 
-8.01

>  <cluster_rmsd>  (27) 
0.11

>  <cluster>  (27) 
4

$$$$

     RDKit          3D

 54 57  0  0  0  0  0  0  0  0999 V2000
  140.6380   72.9430  220.6190 O   0  0  0  0  0  0  0  0  0  0  0  0
  140.0140   73.1580  221.6910 C   0  0  0  0  0  0  0  0  0  0  0  0
  139.3820   74.4260  221.9040 N   0  0  0  0  0  0  0  0  0  0  0  0
  139.5100   75.4150  220.8260 C   0  0  0  0  0  0  0  0  0  0  0  0
  140.6310   76.2930  221.1670 C   0  0  0  0  0  0  0  0  0  0  0  0
  141.7980   75.8860  220.9210 O   0  0  0  0  0  0  0  0  0  0  0  0
  140.5160   77.5780  221.7560 N   0  0  0  0  0  0  0  0  0  0  0  0
  139.2300   78.0780  222.1910 C   0  0  0  0  0  0  0  0  0  0  0  0
  139.2880   79.4200  222.8240 C   0  0  0  0  0  0  0  0  0  0  0  0
  140.3600   79.4740  223.8530 C   0  0  0  0  0  0  0  0  0  0  0  0
  141.6890   78.9630  223.3860 C   0  0  0  0  0  0  0  0  0  0  0  0
  141.6600   78.4640  221.9650 C   0  0  2  0  0  0  0  0  0  0  0  0
  141.6990   79.5390  220.9480 C   0  0  0  0  0  0  0  0  0  0  0  0
  141.6200   80.8810  221.2310 C   0  0  0  0  0  0  0  0  0  0  0  0
  141.6590   81.8600  220.2320 C   0  0  0  0  0  0  0  0  0  0  0  0
  141.7830   81.5080  218.9050 C   0  0  0  0  0  0  0  0  0  0  0  0
  141.8330   82.7320  217.6690 Cl  0  0  0  0  0  0  0  0  0  0  0  0
  141.8620   80.1610  218.6200 C   0  0  0  0  0  0  0  0  0  0  0  0
  141.8220   79.1860  219.6200 C   0  0  0  0  0  0  0  0  0  0  0  0
  139.8960   72.1640  222.7530 C   0  0  0  0  0  0  0  0  0  0  0  0
  139.0390   71.0750  222.5710 C   0  0  0  0  0  0  0  0  0  0  0  0
  138.9000   70.1160  223.5490 C   0  0  0  0  0  0  0  0  0  0  0  0
  139.6250   70.2450  224.7250 C   0  0  0  0  0  0  0  0  0  0  0  0
  139.5050   69.2900  225.7350 C   0  0  0  0  0  0  0  0  0  0  0  0
  140.2460   69.4580  226.8890 C   0  0  0  0  0  0  0  0  0  0  0  0
  140.1390   68.4600  227.9780 C   0  0  0  0  0  0  0  0  0  0  0  0
  139.2960   67.4380  227.5270 F   0  0  0  0  0  0  0  0  0  0  0  0
  141.3430   67.8850  228.2550 F   0  0  0  0  0  0  0  0  0  0  0  0
  139.5290   69.0110  229.0800 F   0  0  0  0  0  0  0  0  0  0  0  0
  141.0960   70.5530  227.0530 C   0  0  0  0  0  0  0  0  0  0  0  0
  141.2120   71.5030  226.0420 C   0  0  0  0  0  0  0  0  0  0  0  0
  140.4630   71.3190  224.8910 C   0  0  0  0  0  0  0  0  0  0  0  0
  140.5860   72.2570  223.9100 N   0  0  0  0  0  0  0  0  0  0  0  0
  138.8600   74.6280  222.7840 H   0  0  0  0  0  0  0  0  0  0  0  0
  139.7080   74.9064  219.8709 H   0  0  0  0  0  0  0  0  0  0  0  0
  138.5814   75.9950  220.7192 H   0  0  0  0  0  0  0  0  0  0  0  0
  138.5671   78.1368  221.3151 H   0  0  0  0  0  0  0  0  0  0  0  0
  138.8588   77.3803  222.9561 H   0  0  0  0  0  0  0  0  0  0  0  0
  139.4926   80.1748  222.0504 H   0  0  0  0  0  0  0  0  0  0  0  0
  138.3224   79.6216  223.3107 H   0  0  0  0  0  0  0  0  0  0  0  0
  140.4843   80.5210  224.1665 H   0  0  0  0  0  0  0  0  0  0  0  0
  140.0409   78.8167  224.6753 H   0  0  0  0  0  0  0  0  0  0  0  0
  142.4230   79.7792  223.4562 H   0  0  0  0  0  0  0  0  0  0  0  0
  141.9593   78.1122  224.0287 H   0  0  0  0  0  0  0  0  0  0  0  0
  142.5900   77.8943  221.8219 H   0  0  0  0  0  0  0  0  0  0  0  0
  141.5226   81.1971  222.2801 H   0  0  0  0  0  0  0  0  0  0  0  0
  141.5899   82.9224  220.5087 H   0  0  0  0  0  0  0  0  0  0  0  0
  141.9597   79.8439  217.5712 H   0  0  0  0  0  0  0  0  0  0  0  0
  141.8895   78.1231  219.3448 H   0  0  0  0  0  0  0  0  0  0  0  0
  138.4686   70.9830  221.6349 H   0  0  0  0  0  0  0  0  0  0  0  0
  138.2245   69.2606  223.4004 H   0  0  0  0  0  0  0  0  0  0  0  0
  138.8368   68.4244  225.6155 H   0  0  0  0  0  0  0  0  0  0  0  0
  141.6746   70.6654  227.9818 H   0  0  0  0  0  0  0  0  0  0  0  0
  141.8771   72.3720  226.1534 H   0  0  0  0  0  0  0  0  0  0  0  0
  1  2  2  0
  2  3  1  0
  3  4  1  0
  4  5  1  0
  5  6  2  0
  5  7  1  0
  7  8  1  0
  8  9  1  0
  9 10  1  0
 10 11  1  0
 11 12  1  0
 12 13  1  0
 13 14  2  0
 14 15  1  0
 15 16  2  0
 16 17  1  0
 16 18  1  0
 18 19  2  0
  2 20  1  0
 20 21  2  0
 21 22  1  0
 22 23  2  0
 23 24  1  0
 24 25  2  0
 25 26  1  0
 26 27  1  0
 26 28  1  0
 26 29  1  0
 25 30  1  0
 30 31  2  0
 31 32  1  0
 32 33  2  0
 12  7  1  0
 19 13  1  0
 33 20  1  0
 32 23  1  0
  3 34  1  0
  4 35  1  0
  4 36  1  0
  8 37  1  0
  8 38  1  0
  9 39  1  0
  9 40  1  0
 10 41  1  0
 10 42  1  0
 11 43  1  0
 11 44  1  0
 12 45  1  6
 14 46  1  0
 15 47  1  0
 18 48  1  0
 19 49  1  0
 21 50  1  0
 22 51  1  0
 24 52  1  0
 30 53  1  0
 31 54  1  0
M  END
>  <smiles>  (28) 
O=C(NCC(=O)N1CCCCC1c1ccc(Cl)cc1)c1ccc2cc(C(F)(F)F)ccc2n1

>  <score_type>  (28) 
oracle

>  <origin>  (28) 
autodockgpu

>  <m_score__min__energy>  (28) 
-8.5999999999999996

>  <m_primary>  (28) 
energy

>  <rmsd>  (28) 
3.416698025175776

>  <m_score__min__rmsd>  (28) 
3.416698025175776

>  <meeko>  (28) 
{"free_energy": -8.57, "intermolecular_energy": -10.36, "internal_energy": -1.45, "cluster_size": 10, "cluster_id": 1, "rank_in_cluster": 3}

>  <energy>  (28) 
-8.0

>  <cluster_rmsd>  (28) 
0.11

>  <cluster>  (28) 
4

$$$$

     RDKit          3D

 54 57  0  0  0  0  0  0  0  0999 V2000
  140.1830   73.4240  220.5770 O   0  0  0  0  0  0  0  0  0  0  0  0
  139.6310   73.4800  221.7060 C   0  0  0  0  0  0  0  0  0  0  0  0
  139.0050   74.6950  222.1340 N   0  0  0  0  0  0  0  0  0  0  0  0
  139.0520   75.8250  221.1970 C   0  0  0  0  0  0  0  0  0  0  0  0
  140.4590   76.1940  221.0250 C   0  0  0  0  0  0  0  0  0  0  0  0
  141.0930   76.5980  222.0370 O   0  0  0  0  0  0  0  0  0  0  0  0
  141.1780   76.1330  219.8050 N   0  0  0  0  0  0  0  0  0  0  0  0
  140.4980   75.8510  218.5590 C   0  0  0  0  0  0  0  0  0  0  0  0
  141.3880   75.8650  217.3700 C   0  0  0  0  0  0  0  0  0  0  0  0
  142.2330   77.0890  217.3570 C   0  0  0  0  0  0  0  0  0  0  0  0
  142.9400   77.3630  218.6490 C   0  0  0  0  0  0  0  0  0  0  0  0
  142.6220   76.3520  219.7190 C   0  0  2  0  0  0  0  0  0  0  0  0
  143.3510   75.0720  219.5760 C   0  0  0  0  0  0  0  0  0  0  0  0
  144.0490   74.6950  218.4530 C   0  0  0  0  0  0  0  0  0  0  0  0
  144.7210   73.4720  218.3660 C   0  0  0  0  0  0  0  0  0  0  0  0
  144.7090   72.5840  219.4200 C   0  0  0  0  0  0  0  0  0  0  0  0
  145.5480   71.0640  219.3020 Cl  0  0  0  0  0  0  0  0  0  0  0  0
  144.0080   72.9610  220.5460 C   0  0  0  0  0  0  0  0  0  0  0  0
  143.3380   74.1830  220.6310 C   0  0  0  0  0  0  0  0  0  0  0  0
  139.5930   72.3470  222.6270 C   0  0  0  0  0  0  0  0  0  0  0  0
  138.7650   71.2610  222.3320 C   0  0  0  0  0  0  0  0  0  0  0  0
  138.7000   70.1730  223.1740 C   0  0  0  0  0  0  0  0  0  0  0  0
  139.4720   70.1700  224.3280 C   0  0  0  0  0  0  0  0  0  0  0  0
  139.4290   69.0840  225.2010 C   0  0  0  0  0  0  0  0  0  0  0  0
  140.2140   69.1220  226.3370 C   0  0  0  0  0  0  0  0  0  0  0  0
  140.1890   67.9830  227.2830 C   0  0  0  0  0  0  0  0  0  0  0  0
  141.4550   67.3870  227.2540 F   0  0  0  0  0  0  0  0  0  0  0  0
  139.9760   68.3950  228.5640 F   0  0  0  0  0  0  0  0  0  0  0  0
  139.2970   67.0250  226.8610 F   0  0  0  0  0  0  0  0  0  0  0  0
  141.0350   70.2170  226.6160 C   0  0  0  0  0  0  0  0  0  0  0  0
  141.0750   71.2980  225.7400 C   0  0  0  0  0  0  0  0  0  0  0  0
  140.2810   71.2440  224.6060 C   0  0  0  0  0  0  0  0  0  0  0  0
  140.3300   72.3090  223.7570 N   0  0  0  0  0  0  0  0  0  0  0  0
  138.5420   74.7650  223.0660 H   0  0  0  0  0  0  0  0  0  0  0  0
  138.6200   75.5293  220.2296 H   0  0  0  0  0  0  0  0  0  0  0  0
  138.4724   76.6755  221.5853 H   0  0  0  0  0  0  0  0  0  0  0  0
  140.0364   74.8554  218.6342 H   0  0  0  0  0  0  0  0  0  0  0  0
  139.7570   76.6506  218.4121 H   0  0  0  0  0  0  0  0  0  0  0  0
  142.0383   74.9781  217.3958 H   0  0  0  0  0  0  0  0  0  0  0  0
  140.7652   75.8569  216.4633 H   0  0  0  0  0  0  0  0  0  0  0  0
  142.9901   76.9767  216.5669 H   0  0  0  0  0  0  0  0  0  0  0  0
  141.5557   77.9379  217.1820 H   0  0  0  0  0  0  0  0  0  0  0  0
  144.0244   77.3495  218.4650 H   0  0  0  0  0  0  0  0  0  0  0  0
  142.5973   78.3438  219.0104 H   0  0  0  0  0  0  0  0  0  0  0  0
  142.9799   76.7857  220.6644 H   0  0  0  0  0  0  0  0  0  0  0  0
  144.0798   75.3797  217.5927 H   0  0  0  0  0  0  0  0  0  0  0  0
  145.2657   73.2155  217.4454 H   0  0  0  0  0  0  0  0  0  0  0  0
  143.9756   72.2760  221.4061 H   0  0  0  0  0  0  0  0  0  0  0  0
  142.7927   74.4403  221.5510 H   0  0  0  0  0  0  0  0  0  0  0  0
  138.1571   71.2751  221.4153 H   0  0  0  0  0  0  0  0  0  0  0  0
  138.0471   69.3203  222.9361 H   0  0  0  0  0  0  0  0  0  0  0  0
  138.7852   68.2173  224.9902 H   0  0  0  0  0  0  0  0  0  0  0  0
  141.6500   70.2251  227.5280 H   0  0  0  0  0  0  0  0  0  0  0  0
  141.7171   72.1681  225.9419 H   0  0  0  0  0  0  0  0  0  0  0  0
  1  2  2  0
  2  3  1  0
  3  4  1  0
  4  5  1  0
  5  6  2  0
  5  7  1  0
  7  8  1  0
  8  9  1  0
  9 10  1  0
 10 11  1  0
 11 12  1  0
 12 13  1  0
 13 14  2  0
 14 15  1  0
 15 16  2  0
 16 17  1  0
 16 18  1  0
 18 19  2  0
  2 20  1  0
 20 21  2  0
 21 22  1  0
 22 23  2  0
 23 24  1  0
 24 25  2  0
 25 26  1  0
 26 27  1  0
 26 28  1  0
 26 29  1  0
 25 30  1  0
 30 31  2  0
 31 32  1  0
 32 33  2  0
 12  7  1  0
 19 13  1  0
 33 20  1  0
 32 23  1  0
  3 34  1  0
  4 35  1  0
  4 36  1  0
  8 37  1  0
  8 38  1  0
  9 39  1  0
  9 40  1  0
 10 41  1  0
 10 42  1  0
 11 43  1  0
 11 44  1  0
 12 45  1  1
 14 46  1  0
 15 47  1  0
 18 48  1  0
 19 49  1  0
 21 50  1  0
 22 51  1  0
 24 52  1  0
 30 53  1  0
 31 54  1  0
M  END
>  <smiles>  (29) 
O=C(NCC(=O)N1CCCCC1c1ccc(Cl)cc1)c1ccc2cc(C(F)(F)F)ccc2n1

>  <score_type>  (29) 
oracle

>  <origin>  (29) 
autodockgpu

>  <m_score__min__energy>  (29) 
-8.5999999999999996

>  <m_primary>  (29) 
energy

>  <rmsd>  (29) 
2.0740045306104355

>  <m_score__min__rmsd>  (29) 
2.0740045306104355

>  <meeko>  (29) 
{"free_energy": -7.57, "intermolecular_energy": -9.36, "internal_energy": -1.92, "cluster_size": 1, "cluster_id": 6, "rank_in_cluster": 1}

>  <energy>  (29) 
-7.89

>  <cluster_rmsd>  (29) 
0.22

>  <cluster>  (29) 
4

$$$$

     RDKit          3D

 54 57  0  0  0  0  0  0  0  0999 V2000
  137.9800   73.3480  220.7130 O   0  0  0  0  0  0  0  0  0  0  0  0
  137.9370   74.1190  221.7070 C   0  0  0  0  0  0  0  0  0  0  0  0
  136.9400   73.9230  222.7170 N   0  0  0  0  0  0  0  0  0  0  0  0
  136.0130   72.8020  222.5180 C   0  0  0  0  0  0  0  0  0  0  0  0
  136.5360   71.6610  223.2720 C   0  0  0  0  0  0  0  0  0  0  0  0
  135.8320   71.1990  224.2110 O   0  0  0  0  0  0  0  0  0  0  0  0
  137.7790   71.0220  223.0350 N   0  0  0  0  0  0  0  0  0  0  0  0
  137.8500   69.8220  222.2290 C   0  0  0  0  0  0  0  0  0  0  0  0
  139.2280   69.3030  222.0420 C   0  0  0  0  0  0  0  0  0  0  0  0
  140.1530   70.3910  221.6260 C   0  0  0  0  0  0  0  0  0  0  0  0
  140.0760   71.6230  222.4760 C   0  0  0  0  0  0  0  0  0  0  0  0
  139.0460   71.5180  223.5700 C   0  0  2  0  0  0  0  0  0  0  0  0
  139.4840   70.7220  224.7380 C   0  0  0  0  0  0  0  0  0  0  0  0
  138.7990   69.6440  225.2460 C   0  0  0  0  0  0  0  0  0  0  0  0
  139.2540   68.9230  226.3550 C   0  0  0  0  0  0  0  0  0  0  0  0
  140.4270   69.2730  226.9890 C   0  0  0  0  0  0  0  0  0  0  0  0
  140.9860   68.3700  228.3680 Cl  0  0  0  0  0  0  0  0  0  0  0  0
  141.1150   70.3540  226.4810 C   0  0  0  0  0  0  0  0  0  0  0  0
  140.6570   71.0730  225.3730 C   0  0  0  0  0  0  0  0  0  0  0  0
  138.8660   75.2300  221.8900 C   0  0  0  0  0  0  0  0  0  0  0  0
  140.2040   75.0620  221.5220 C   0  0  0  0  0  0  0  0  0  0  0  0
  141.1130   76.0850  221.6790 C   0  0  0  0  0  0  0  0  0  0  0  0
  140.6810   77.2920  222.2110 C   0  0  0  0  0  0  0  0  0  0  0  0
  141.5770   78.3460  222.3820 C   0  0  0  0  0  0  0  0  0  0  0  0
  141.1040   79.5300  222.9150 C   0  0  0  0  0  0  0  0  0  0  0  0
  142.0320   80.6670  223.1090 C   0  0  0  0  0  0  0  0  0  0  0  0
  141.5810   81.3910  224.2190 F   0  0  0  0  0  0  0  0  0  0  0  0
  143.2950   80.2450  223.3990 F   0  0  0  0  0  0  0  0  0  0  0  0
  141.9750   81.5260  222.0350 F   0  0  0  0  0  0  0  0  0  0  0  0
  139.7640   79.6790  223.2780 C   0  0  0  0  0  0  0  0  0  0  0  0
  138.8740   78.6220  223.1040 C   0  0  0  0  0  0  0  0  0  0  0  0
  139.3640   77.4430  222.5690 C   0  0  0  0  0  0  0  0  0  0  0  0
  138.4820   76.4170  222.4040 N   0  0  0  0  0  0  0  0  0  0  0  0
  136.8840   74.5500  223.5490 H   0  0  0  0  0  0  0  0  0  0  0  0
  135.0129   73.0710  222.8889 H   0  0  0  0  0  0  0  0  0  0  0  0
  135.9271   72.5545  221.4497 H   0  0  0  0  0  0  0  0  0  0  0  0
  137.2491   69.0408  222.7175 H   0  0  0  0  0  0  0  0  0  0  0  0
  137.4701   70.0852  221.2308 H   0  0  0  0  0  0  0  0  0  0  0  0
  139.5822   68.8719  222.9900 H   0  0  0  0  0  0  0  0  0  0  0  0
  139.2107   68.5359  221.2539 H   0  0  0  0  0  0  0  0  0  0  0  0
  141.1820   70.0048  221.6712 H   0  0  0  0  0  0  0  0  0  0  0  0
  139.8532   70.6890  220.6105 H   0  0  0  0  0  0  0  0  0  0  0  0
  141.0604   71.7938  222.9362 H   0  0  0  0  0  0  0  0  0  0  0  0
  139.7790   72.4564  221.8224 H   0  0  0  0  0  0  0  0  0  0  0  0
  138.9028   72.5391  223.9531 H   0  0  0  0  0  0  0  0  0  0  0  0
  137.8594   69.3373  224.7632 H   0  0  0  0  0  0  0  0  0  0  0  0
  138.6696   68.0677  226.7251 H   0  0  0  0  0  0  0  0  0  0  0  0
  142.0549   70.6609  226.9631 H   0  0  0  0  0  0  0  0  0  0  0  0
  141.2395   71.9296  225.0029 H   0  0  0  0  0  0  0  0  0  0  0  0
  140.5352   74.1009  221.1018 H   0  0  0  0  0  0  0  0  0  0  0  0
  142.1647   75.9475  221.3874 H   0  0  0  0  0  0  0  0  0  0  0  0
  142.6346   78.2379  222.0996 H   0  0  0  0  0  0  0  0  0  0  0  0
  139.4114   80.6311  223.7013 H   0  0  0  0  0  0  0  0  0  0  0  0
  137.8146   78.7209  223.3830 H   0  0  0  0  0  0  0  0  0  0  0  0
  1  2  2  0
  2  3  1  0
  3  4  1  0
  4  5  1  0
  5  6  2  0
  5  7  1  0
  7  8  1  0
  8  9  1  0
  9 10  1  0
 10 11  1  0
 11 12  1  0
 12 13  1  0
 13 14  2  0
 14 15  1  0
 15 16  2  0
 16 17  1  0
 16 18  1  0
 18 19  2  0
  2 20  1  0
 20 21  2  0
 21 22  1  0
 22 23  2  0
 23 24  1  0
 24 25  2  0
 25 26  1  0
 26 27  1  0
 26 28  1  0
 26 29  1  0
 25 30  1  0
 30 31  2  0
 31 32  1  0
 32 33  2  0
 12  7  1  0
 19 13  1  0
 33 20  1  0
 32 23  1  0
  3 34  1  0
  4 35  1  0
  4 36  1  0
  8 37  1  0
  8 38  1  0
  9 39  1  0
  9 40  1  0
 10 41  1  0
 10 42  1  0
 11 43  1  0
 11 44  1  0
 12 45  1  1
 14 46  1  0
 15 47  1  0
 18 48  1  0
 19 49  1  0
 21 50  1  0
 22 51  1  0
 24 52  1  0
 30 53  1  0
 31 54  1  0
M  END
>  <smiles>  (30) 
O=C(NCC(=O)N1CCCCC1c1ccc(Cl)cc1)c1ccc2cc(C(F)(F)F)ccc2n1

>  <score_type>  (30) 
oracle

>  <origin>  (30) 
autodockgpu

>  <m_score__min__energy>  (30) 
-8.5999999999999996

>  <m_primary>  (30) 
energy

>  <rmsd>  (30) 
7.244191908445839

>  <m_score__min__rmsd>  (30) 
7.244191908445839

>  <meeko>  (30) 
{"free_energy": -8.02, "intermolecular_energy": -9.81, "internal_energy": -2.16, "cluster_size": 17, "cluster_id": 4, "rank_in_cluster": 5}

>  <energy>  (30) 
-7.81

>  <cluster_rmsd>  (30) 
0.64

>  <cluster>  (30) 
4

$$$$

     RDKit          3D

 54 57  0  0  0  0  0  0  0  0999 V2000
  139.8060   71.8090  220.4430 O   0  0  0  0  0  0  0  0  0  0  0  0
  139.5710   72.2470  221.5990 C   0  0  0  0  0  0  0  0  0  0  0  0
  139.1410   73.6020  221.7730 N   0  0  0  0  0  0  0  0  0  0  0  0
  139.0000   74.4100  220.5560 C   0  0  0  0  0  0  0  0  0  0  0  0
  139.3430   75.7900  220.9030 C   0  0  0  0  0  0  0  0  0  0  0  0
  138.5920   76.4020  221.7090 O   0  0  0  0  0  0  0  0  0  0  0  0
  140.4610   76.5070  220.4060 N   0  0  0  0  0  0  0  0  0  0  0  0
  141.7620   75.8780  220.3210 C   0  0  0  0  0  0  0  0  0  0  0  0
  142.8150   76.7500  219.7400 C   0  0  0  0  0  0  0  0  0  0  0  0
  142.3430   77.3830  218.4800 C   0  0  0  0  0  0  0  0  0  0  0  0
  140.9990   78.0390  218.5860 C   0  0  0  0  0  0  0  0  0  0  0  0
  140.3810   77.8940  219.9520 C   0  0  2  0  0  0  0  0  0  0  0  0
  140.9300   78.8230  220.9650 C   0  0  0  0  0  0  0  0  0  0  0  0
  141.5410   80.0190  220.6730 C   0  0  0  0  0  0  0  0  0  0  0  0
  142.0470   80.8630  221.6680 C   0  0  0  0  0  0  0  0  0  0  0  0
  141.9480   80.5200  222.9990 C   0  0  0  0  0  0  0  0  0  0  0  0
  142.5790   81.5760  224.2300 Cl  0  0  0  0  0  0  0  0  0  0  0  0
  141.3360   79.3200  223.2930 C   0  0  0  0  0  0  0  0  0  0  0  0
  140.8320   78.4790  222.2970 C   0  0  0  0  0  0  0  0  0  0  0  0
  139.7160   71.4300  222.8010 C   0  0  0  0  0  0  0  0  0  0  0  0
  139.2570   70.1100  222.7830 C   0  0  0  0  0  0  0  0  0  0  0  0
  139.3760   69.3070  223.8960 C   0  0  0  0  0  0  0  0  0  0  0  0
  139.9590   69.8290  225.0420 C   0  0  0  0  0  0  0  0  0  0  0  0
  140.0930   69.0410  226.1850 C   0  0  0  0  0  0  0  0  0  0  0  0
  140.6800   69.6010  227.3040 C   0  0  0  0  0  0  0  0  0  0  0  0
  140.8350   68.7890  228.5320 C   0  0  0  0  0  0  0  0  0  0  0  0
  141.0850   67.4710  228.1320 F   0  0  0  0  0  0  0  0  0  0  0  0
  141.9100   69.1880  229.2690 F   0  0  0  0  0  0  0  0  0  0  0  0
  139.6610   68.7640  229.2470 F   0  0  0  0  0  0  0  0  0  0  0  0
  141.1310   70.9220  227.3030 C   0  0  0  0  0  0  0  0  0  0  0  0
  140.9950   71.7040  226.1580 C   0  0  0  0  0  0  0  0  0  0  0  0
  140.4050   71.1270  225.0460 C   0  0  0  0  0  0  0  0  0  0  0  0
  140.2780   71.9040  223.9330 N   0  0  0  0  0  0  0  0  0  0  0  0
  138.9400   73.9870  222.7220 H   0  0  0  0  0  0  0  0  0  0  0  0
  139.6816   74.0380  219.7769 H   0  0  0  0  0  0  0  0  0  0  0  0
  137.9721   74.3516  220.1686 H   0  0  0  0  0  0  0  0  0  0  0  0
  142.0733   75.5877  221.3353 H   0  0  0  0  0  0  0  0  0  0  0  0
  141.6558   75.0140  219.6485 H   0  0  0  0  0  0  0  0  0  0  0  0
  143.0714   77.5370  220.4645 H   0  0  0  0  0  0  0  0  0  0  0  0
  143.6977   76.1334  219.5148 H   0  0  0  0  0  0  0  0  0  0  0  0
  143.0767   78.1465  218.1820 H   0  0  0  0  0  0  0  0  0  0  0  0
  142.2424   76.5756  217.7398 H   0  0  0  0  0  0  0  0  0  0  0  0
  141.1131   79.1104  218.3645 H   0  0  0  0  0  0  0  0  0  0  0  0
  140.3314   77.5408  217.8676 H   0  0  0  0  0  0  0  0  0  0  0  0
  139.3243   78.1784  219.8405 H   0  0  0  0  0  0  0  0  0  0  0  0
  141.6356   80.3235  219.6202 H   0  0  0  0  0  0  0  0  0  0  0  0
  142.5289   81.8103  221.3846 H   0  0  0  0  0  0  0  0  0  0  0  0
  141.2413   79.0147  224.3455 H   0  0  0  0  0  0  0  0  0  0  0  0
  140.3511   77.5307  222.5790 H   0  0  0  0  0  0  0  0  0  0  0  0
  138.7953   69.7075  221.8693 H   0  0  0  0  0  0  0  0  0  0  0  0
  139.0146   68.2683  223.8766 H   0  0  0  0  0  0  0  0  0  0  0  0
  139.7401   67.9992  226.1956 H   0  0  0  0  0  0  0  0  0  0  0  0
  141.5939   71.3457  228.2064 H   0  0  0  0  0  0  0  0  0  0  0  0
  141.3451   72.7466  226.1380 H   0  0  0  0  0  0  0  0  0  0  0  0
  1  2  2  0
  2  3  1  0
  3  4  1  0
  4  5  1  0
  5  6  2  0
  5  7  1  0
  7  8  1  0
  8  9  1  0
  9 10  1  0
 10 11  1  0
 11 12  1  0
 12 13  1  0
 13 14  2  0
 14 15  1  0
 15 16  2  0
 16 17  1  0
 16 18  1  0
 18 19  2  0
  2 20  1  0
 20 21  2  0
 21 22  1  0
 22 23  2  0
 23 24  1  0
 24 25  2  0
 25 26  1  0
 26 27  1  0
 26 28  1  0
 26 29  1  0
 25 30  1  0
 30 31  2  0
 31 32  1  0
 32 33  2  0
 12  7  1  0
 19 13  1  0
 33 20  1  0
 32 23  1  0
  3 34  1  0
  4 35  1  0
  4 36  1  0
  8 37  1  0
  8 38  1  0
  9 39  1  0
  9 40  1  0
 10 41  1  0
 10 42  1  0
 11 43  1  0
 11 44  1  0
 12 45  1  6
 14 46  1  0
 15 47  1  0
 18 48  1  0
 19 49  1  0
 21 50  1  0
 22 51  1  0
 24 52  1  0
 30 53  1  0
 31 54  1  0
M  END
>  <smiles>  (31) 
O=C(NCC(=O)N1CCCCC1c1ccc(Cl)cc1)c1ccc2cc(C(F)(F)F)ccc2n1

>  <score_type>  (31) 
oracle

>  <origin>  (31) 
autodockgpu

>  <m_score__min__energy>  (31) 
-8.5999999999999996

>  <m_primary>  (31) 
energy

>  <rmsd>  (31) 
1.9175193961324066

>  <m_score__min__rmsd>  (31) 
1.9175193961324066

>  <meeko>  (31) 
{"free_energy": -8.36, "intermolecular_energy": -10.15, "internal_energy": -1.78, "cluster_size": 10, "cluster_id": 1, "rank_in_cluster": 6}

>  <energy>  (31) 
-7.79

>  <cluster_rmsd>  (31) 
1.05

>  <cluster>  (31) 
4

$$$$

     RDKit          3D

 54 57  0  0  0  0  0  0  0  0999 V2000
  137.7200   76.7760  220.2530 O   0  0  0  0  0  0  0  0  0  0  0  0
  137.7830   76.7260  221.5090 C   0  0  0  0  0  0  0  0  0  0  0  0
  138.3750   75.5880  222.1480 N   0  0  0  0  0  0  0  0  0  0  0  0
  138.8810   74.5290  221.2670 C   0  0  0  0  0  0  0  0  0  0  0  0
  140.3430   74.5420  221.3610 C   0  0  0  0  0  0  0  0  0  0  0  0
  140.8980   73.6680  222.0800 O   0  0  0  0  0  0  0  0  0  0  0  0
  141.1980   75.4620  220.7040 N   0  0  0  0  0  0  0  0  0  0  0  0
  142.5830   75.1310  220.4500 C   0  0  0  0  0  0  0  0  0  0  0  0
  143.3300   76.1850  219.7170 C   0  0  0  0  0  0  0  0  0  0  0  0
  142.5680   76.6420  218.5250 C   0  0  0  0  0  0  0  0  0  0  0  0
  141.1380   76.9920  218.8040 C   0  0  0  0  0  0  0  0  0  0  0  0
  140.7520   76.7770  220.2450 C   0  0  2  0  0  0  0  0  0  0  0  0
  141.2080   77.8480  221.1580 C   0  0  0  0  0  0  0  0  0  0  0  0
  141.7420   79.0460  220.7470 C   0  0  0  0  0  0  0  0  0  0  0  0
  142.1600   80.0280  221.6510 C   0  0  0  0  0  0  0  0  0  0  0  0
  142.0500   79.8270  223.0100 C   0  0  0  0  0  0  0  0  0  0  0  0
  142.5730   81.0550  224.1280 Cl  0  0  0  0  0  0  0  0  0  0  0  0
  141.5150   78.6260  223.4230 C   0  0  0  0  0  0  0  0  0  0  0  0
  141.0980   77.6470  222.5180 C   0  0  0  0  0  0  0  0  0  0  0  0
  137.2750   77.7890  222.3710 C   0  0  0  0  0  0  0  0  0  0  0  0
  135.9020   77.8560  222.6270 C   0  0  0  0  0  0  0  0  0  0  0  0
  135.3820   78.8430  223.4350 C   0  0  0  0  0  0  0  0  0  0  0  0
  136.2440   79.7760  223.9950 C   0  0  0  0  0  0  0  0  0  0  0  0
  135.7480   80.7870  224.8180 C   0  0  0  0  0  0  0  0  0  0  0  0
  136.6420   81.6940  225.3540 C   0  0  0  0  0  0  0  0  0  0  0  0
  136.1450   82.7780  226.2310 C   0  0  0  0  0  0  0  0  0  0  0  0
  134.7460   82.7450  226.1860 F   0  0  0  0  0  0  0  0  0  0  0  0
  136.5020   82.5810  227.5310 F   0  0  0  0  0  0  0  0  0  0  0  0
  136.5210   84.0070  225.7410 F   0  0  0  0  0  0  0  0  0  0  0  0
  138.0100   81.6110  225.0880 C   0  0  0  0  0  0  0  0  0  0  0  0
  138.4990   80.5990  224.2660 C   0  0  0  0  0  0  0  0  0  0  0  0
  137.5900   79.6980  223.7360 C   0  0  0  0  0  0  0  0  0  0  0  0
  138.0830   78.7120  222.9340 N   0  0  0  0  0  0  0  0  0  0  0  0
  138.4380   75.5250  223.1870 H   0  0  0  0  0  0  0  0  0  0  0  0
  138.4921   73.5525  221.5912 H   0  0  0  0  0  0  0  0  0  0  0  0
  138.5570   74.6991  220.2296 H   0  0  0  0  0  0  0  0  0  0  0  0
  143.0812   74.9618  221.4160 H   0  0  0  0  0  0  0  0  0  0  0  0
  142.5848   74.2358  219.8108 H   0  0  0  0  0  0  0  0  0  0  0  0
  143.4972   77.0407  220.3876 H   0  0  0  0  0  0  0  0  0  0  0  0
  144.2906   75.7670  219.3817 H   0  0  0  0  0  0  0  0  0  0  0  0
  143.0676   77.5333  218.1177 H   0  0  0  0  0  0  0  0  0  0  0  0
  142.5538   75.7992  217.8182 H   0  0  0  0  0  0  0  0  0  0  0  0
  140.9804   78.0513  218.5527 H   0  0  0  0  0  0  0  0  0  0  0  0
  140.5101   76.3282  218.1915 H   0  0  0  0  0  0  0  0  0  0  0  0
  139.6532   76.8182  220.2767 H   0  0  0  0  0  0  0  0  0  0  0  0
  141.8442   79.2393  219.6689 H   0  0  0  0  0  0  0  0  0  0  0  0
  142.5812   80.9713  221.2731 H   0  0  0  0  0  0  0  0  0  0  0  0
  141.4130   78.4319  224.5009 H   0  0  0  0  0  0  0  0  0  0  0  0
  140.6764   76.7035  222.8950 H   0  0  0  0  0  0  0  0  0  0  0  0
  135.2287   77.1112  222.1775 H   0  0  0  0  0  0  0  0  0  0  0  0
  134.3011   78.8911  223.6333 H   0  0  0  0  0  0  0  0  0  0  0  0
  134.6721   80.8604  225.0349 H   0  0  0  0  0  0  0  0  0  0  0  0
  138.7014   82.3449  225.5277 H   0  0  0  0  0  0  0  0  0  0  0  0
  139.5734   80.5176  224.0445 H   0  0  0  0  0  0  0  0  0  0  0  0
  1  2  2  0
  2  3  1  0
  3  4  1  0
  4  5  1  0
  5  6  2  0
  5  7  1  0
  7  8  1  0
  8  9  1  0
  9 10  1  0
 10 11  1  0
 11 12  1  0
 12 13  1  0
 13 14  2  0
 14 15  1  0
 15 16  2  0
 16 17  1  0
 16 18  1  0
 18 19  2  0
  2 20  1  0
 20 21  2  0
 21 22  1  0
 22 23  2  0
 23 24  1  0
 24 25  2  0
 25 26  1  0
 26 27  1  0
 26 28  1  0
 26 29  1  0
 25 30  1  0
 30 31  2  0
 31 32  1  0
 32 33  2  0
 12  7  1  0
 19 13  1  0
 33 20  1  0
 32 23  1  0
  3 34  1  0
  4 35  1  0
  4 36  1  0
  8 37  1  0
  8 38  1  0
  9 39  1  0
  9 40  1  0
 10 41  1  0
 10 42  1  0
 11 43  1  0
 11 44  1  0
 12 45  1  6
 14 46  1  0
 15 47  1  0
 18 48  1  0
 19 49  1  0
 21 50  1  0
 22 51  1  0
 24 52  1  0
 30 53  1  0
 31 54  1  0
M  END
>  <smiles>  (32) 
O=C(NCC(=O)N1CCCCC1c1ccc(Cl)cc1)c1ccc2cc(C(F)(F)F)ccc2n1

>  <score_type>  (32) 
oracle

>  <origin>  (32) 
autodockgpu

>  <m_score__min__energy>  (32) 
-8.5999999999999996

>  <m_primary>  (32) 
energy

>  <rmsd>  (32) 
7.348131480006442

>  <m_score__min__rmsd>  (32) 
7.348131480006442

>  <meeko>  (32) 
{"free_energy": -7.12, "intermolecular_energy": -8.91, "internal_energy": -2.7, "cluster_size": 5, "cluster_id": 8, "rank_in_cluster": 1}

>  <energy>  (32) 
-7.79

>  <cluster_rmsd>  (32) 
0.58

>  <cluster>  (32) 
4

$$$$

     RDKit          3D

 54 57  0  0  0  0  0  0  0  0999 V2000
  137.6790   76.3540  220.2910 O   0  0  0  0  0  0  0  0  0  0  0  0
  137.7390   76.3810  221.5480 C   0  0  0  0  0  0  0  0  0  0  0  0
  138.3010   75.2700  222.2570 N   0  0  0  0  0  0  0  0  0  0  0  0
  138.7810   74.1450  221.4450 C   0  0  0  0  0  0  0  0  0  0  0  0
  140.2390   74.0990  221.5770 C   0  0  0  0  0  0  0  0  0  0  0  0
  140.7360   73.2390  222.3520 O   0  0  0  0  0  0  0  0  0  0  0  0
  141.1500   74.9480  220.8990 N   0  0  0  0  0  0  0  0  0  0  0  0
  142.5480   74.5920  220.7890 C   0  0  0  0  0  0  0  0  0  0  0  0
  143.3580   75.5660  220.0140 C   0  0  0  0  0  0  0  0  0  0  0  0
  142.6950   75.8990  218.7250 C   0  0  0  0  0  0  0  0  0  0  0  0
  141.2500   76.2750  218.8540 C   0  0  0  0  0  0  0  0  0  0  0  0
  140.7510   76.2090  220.2740 C   0  0  2  0  0  0  0  0  0  0  0  0
  141.1430   77.3680  221.1070 C   0  0  0  0  0  0  0  0  0  0  0  0
  141.5740   78.5740  220.6080 C   0  0  0  0  0  0  0  0  0  0  0  0
  141.9360   79.6400  221.4380 C   0  0  0  0  0  0  0  0  0  0  0  0
  141.8700   79.5190  222.8090 C   0  0  0  0  0  0  0  0  0  0  0  0
  142.3210   80.8520  223.8340 Cl  0  0  0  0  0  0  0  0  0  0  0  0
  141.4380   78.3100  223.3100 C   0  0  0  0  0  0  0  0  0  0  0  0
  141.0780   77.2460  222.4790 C   0  0  0  0  0  0  0  0  0  0  0  0
  137.2580   77.5070  222.3410 C   0  0  0  0  0  0  0  0  0  0  0  0
  135.8910   77.6080  222.6160 C   0  0  0  0  0  0  0  0  0  0  0  0
  135.3960   78.6550  223.3610 C   0  0  0  0  0  0  0  0  0  0  0  0
  136.2780   79.6150  223.8390 C   0  0  0  0  0  0  0  0  0  0  0  0
  135.8080   80.6880  224.5960 C   0  0  0  0  0  0  0  0  0  0  0  0
  136.7200   81.6210  225.0510 C   0  0  0  0  0  0  0  0  0  0  0  0
  136.2500   82.7700  225.8570 C   0  0  0  0  0  0  0  0  0  0  0  0
  136.9890   82.7760  227.0460 F   0  0  0  0  0  0  0  0  0  0  0  0
  136.4950   83.9570  225.2350 F   0  0  0  0  0  0  0  0  0  0  0  0
  134.9330   82.6020  226.2170 F   0  0  0  0  0  0  0  0  0  0  0  0
  138.0820   81.5030  224.7660 C   0  0  0  0  0  0  0  0  0  0  0  0
  138.5450   80.4310  224.0090 C   0  0  0  0  0  0  0  0  0  0  0  0
  137.6180   79.5050  223.5610 C   0  0  0  0  0  0  0  0  0  0  0  0
  138.0850   78.4590  222.8220 N   0  0  0  0  0  0  0  0  0  0  0  0
  138.3620   75.2690  223.2990 H   0  0  0  0  0  0  0  0  0  0  0  0
  138.3409   73.2046  221.8083 H   0  0  0  0  0  0  0  0  0  0  0  0
  138.4907   74.2748  220.3920 H   0  0  0  0  0  0  0  0  0  0  0  0
  142.9682   74.5215  221.8031 H   0  0  0  0  0  0  0  0  0  0  0  0
  142.5923   73.6364  220.2460 H   0  0  0  0  0  0  0  0  0  0  0  0
  143.4787   76.4857  220.6053 H   0  0  0  0  0  0  0  0  0  0  0  0
  144.3388   75.1164  219.7996 H   0  0  0  0  0  0  0  0  0  0  0  0
  143.2317   76.7445  218.2698 H   0  0  0  0  0  0  0  0  0  0  0  0
  142.7299   74.9888  218.1084 H   0  0  0  0  0  0  0  0  0  0  0  0
  141.1205   77.3028  218.4840 H   0  0  0  0  0  0  0  0  0  0  0  0
  140.6670   75.5512  218.2655 H   0  0  0  0  0  0  0  0  0  0  0  0
  139.6535   76.2534  220.2140 H   0  0  0  0  0  0  0  0  0  0  0  0
  141.6364   78.7054  219.5177 H   0  0  0  0  0  0  0  0  0  0  0  0
  142.2772   80.5855  220.9913 H   0  0  0  0  0  0  0  0  0  0  0  0
  141.3745   78.1783  224.4002 H   0  0  0  0  0  0  0  0  0  0  0  0
  140.7386   76.2994  222.9247 H   0  0  0  0  0  0  0  0  0  0  0  0
  135.2019   76.8412  222.2323 H   0  0  0  0  0  0  0  0  0  0  0  0
  134.3194   78.7296  223.5740 H   0  0  0  0  0  0  0  0  0  0  0  0
  134.7369   80.7891  224.8253 H   0  0  0  0  0  0  0  0  0  0  0  0
  138.7893   82.2579  225.1401 H   0  0  0  0  0  0  0  0  0  0  0  0
  139.6141   80.3226  223.7738 H   0  0  0  0  0  0  0  0  0  0  0  0
  1  2  2  0
  2  3  1  0
  3  4  1  0
  4  5  1  0
  5  6  2  0
  5  7  1  0
  7  8  1  0
  8  9  1  0
  9 10  1  0
 10 11  1  0
 11 12  1  0
 12 13  1  0
 13 14  2  0
 14 15  1  0
 15 16  2  0
 16 17  1  0
 16 18  1  0
 18 19  2  0
  2 20  1  0
 20 21  2  0
 21 22  1  0
 22 23  2  0
 23 24  1  0
 24 25  2  0
 25 26  1  0
 26 27  1  0
 26 28  1  0
 26 29  1  0
 25 30  1  0
 30 31  2  0
 31 32  1  0
 32 33  2  0
 12  7  1  0
 19 13  1  0
 33 20  1  0
 32 23  1  0
  3 34  1  0
  4 35  1  0
  4 36  1  0
  8 37  1  0
  8 38  1  0
  9 39  1  0
  9 40  1  0
 10 41  1  0
 10 42  1  0
 11 43  1  0
 11 44  1  0
 12 45  1  6
 14 46  1  0
 15 47  1  0
 18 48  1  0
 19 49  1  0
 21 50  1  0
 22 51  1  0
 24 52  1  0
 30 53  1  0
 31 54  1  0
M  END
>  <smiles>  (33) 
O=C(NCC(=O)N1CCCCC1c1ccc(Cl)cc1)c1ccc2cc(C(F)(F)F)ccc2n1

>  <score_type>  (33) 
oracle

>  <origin>  (33) 
autodockgpu

>  <m_score__min__energy>  (33) 
-8.5999999999999996

>  <m_primary>  (33) 
energy

>  <rmsd>  (33) 
7.27483198788003

>  <m_score__min__rmsd>  (33) 
7.27483198788003

>  <meeko>  (33) 
{"free_energy": -7.06, "intermolecular_energy": -8.85, "internal_energy": -2.79, "cluster_size": 5, "cluster_id": 8, "rank_in_cluster": 5}

>  <energy>  (33) 
-7.76

>  <cluster_rmsd>  (33) 
1.77

>  <cluster>  (33) 
4

$$$$

     RDKit          3D

 54 57  0  0  0  0  0  0  0  0999 V2000
  133.5010   70.3370  226.7360 O   0  0  0  0  0  0  0  0  0  0  0  0
  133.7100   71.4610  226.2100 C   0  0  0  0  0  0  0  0  0  0  0  0
  134.5610   71.5620  225.0620 N   0  0  0  0  0  0  0  0  0  0  0  0
  135.1480   70.3120  224.5650 C   0  0  0  0  0  0  0  0  0  0  0  0
  136.2840   70.6680  223.7130 C   0  0  0  0  0  0  0  0  0  0  0  0
  136.2810   71.8040  223.1670 O   0  0  0  0  0  0  0  0  0  0  0  0
  137.4020   69.8370  223.4480 N   0  0  0  0  0  0  0  0  0  0  0  0
  137.2190   68.4840  222.9710 C   0  0  0  0  0  0  0  0  0  0  0  0
  138.4890   67.7630  222.7020 C   0  0  0  0  0  0  0  0  0  0  0  0
  139.4070   68.5960  221.8810 C   0  0  0  0  0  0  0  0  0  0  0  0
  139.5960   69.9920  222.3920 C   0  0  0  0  0  0  0  0  0  0  0  0
  138.7840   70.2790  223.6290 C   0  0  2  0  0  0  0  0  0  0  0  0
  139.3650   69.7280  224.8730 C   0  0  0  0  0  0  0  0  0  0  0  0
  138.8330   68.6780  225.5820 C   0  0  0  0  0  0  0  0  0  0  0  0
  139.4200   68.1950  226.7560 C   0  0  0  0  0  0  0  0  0  0  0  0
  140.5740   68.7620  227.2530 C   0  0  0  0  0  0  0  0  0  0  0  0
  141.2970   68.1540  228.7140 Cl  0  0  0  0  0  0  0  0  0  0  0  0
  141.1080   69.8170  226.5430 C   0  0  0  0  0  0  0  0  0  0  0  0
  140.5190   70.2980  225.3700 C   0  0  0  0  0  0  0  0  0  0  0  0
  133.1190   72.6960  226.7160 C   0  0  0  0  0  0  0  0  0  0  0  0
  131.9190   72.6310  227.4310 C   0  0  0  0  0  0  0  0  0  0  0  0
  131.3300   73.7730  227.9260 C   0  0  0  0  0  0  0  0  0  0  0  0
  131.9450   74.9970  227.7040 C   0  0  0  0  0  0  0  0  0  0  0  0
  131.3720   76.1710  228.1910 C   0  0  0  0  0  0  0  0  0  0  0  0
  132.0190   77.3680  227.9470 C   0  0  0  0  0  0  0  0  0  0  0  0
  131.4350   78.6310  228.4530 C   0  0  0  0  0  0  0  0  0  0  0  0
  132.4610   79.3420  229.0860 F   0  0  0  0  0  0  0  0  0  0  0  0
  130.9770   79.4170  227.4390 F   0  0  0  0  0  0  0  0  0  0  0  0
  130.4870   78.3730  229.4160 F   0  0  0  0  0  0  0  0  0  0  0  0
  133.2160   77.4130  227.2300 C   0  0  0  0  0  0  0  0  0  0  0  0
  133.7830   76.2380  226.7460 C   0  0  0  0  0  0  0  0  0  0  0  0
  133.1220   75.0470  226.9990 C   0  0  0  0  0  0  0  0  0  0  0  0
  133.6890   73.9040  226.5200 N   0  0  0  0  0  0  0  0  0  0  0  0
  134.7490   72.4830  224.6090 H   0  0  0  0  0  0  0  0  0  0  0  0
  135.4904   69.6959  225.4095 H   0  0  0  0  0  0  0  0  0  0  0  0
  134.4043   69.7333  223.9976 H   0  0  0  0  0  0  0  0  0  0  0  0
  136.6562   67.9221  223.7310 H   0  0  0  0  0  0  0  0  0  0  0  0
  136.6826   68.5534  222.0131 H   0  0  0  0  0  0  0  0  0  0  0  0
  138.9773   67.5242  223.6583 H   0  0  0  0  0  0  0  0  0  0  0  0
  138.2597   66.8410  222.1476 H   0  0  0  0  0  0  0  0  0  0  0  0
  140.3898   68.1025  221.8553 H   0  0  0  0  0  0  0  0  0  0  0  0
  138.9469   68.6844  220.8858 H   0  0  0  0  0  0  0  0  0  0  0  0
  140.6602   70.1379  222.6291 H   0  0  0  0  0  0  0  0  0  0  0  0
  139.2536   70.6805  221.6054 H   0  0  0  0  0  0  0  0  0  0  0  0
  138.8013   71.3711  223.7598 H   0  0  0  0  0  0  0  0  0  0  0  0
  137.9131   68.2006  225.2133 H   0  0  0  0  0  0  0  0  0  0  0  0
  138.9552   67.3525  227.2891 H   0  0  0  0  0  0  0  0  0  0  0  0
  142.0273   70.2955  226.9117 H   0  0  0  0  0  0  0  0  0  0  0  0
  140.9814   71.1415  224.8365 H   0  0  0  0  0  0  0  0  0  0  0  0
  131.4396   71.6555  227.6001 H   0  0  0  0  0  0  0  0  0  0  0  0
  130.3865   73.7159  228.4887 H   0  0  0  0  0  0  0  0  0  0  0  0
  130.4282   76.1454  228.7555 H   0  0  0  0  0  0  0  0  0  0  0  0
  133.7113   78.3781  227.0475 H   0  0  0  0  0  0  0  0  0  0  0  0
  134.7263   76.2543  226.1804 H   0  0  0  0  0  0  0  0  0  0  0  0
  1  2  2  0
  2  3  1  0
  3  4  1  0
  4  5  1  0
  5  6  2  0
  5  7  1  0
  7  8  1  0
  8  9  1  0
  9 10  1  0
 10 11  1  0
 11 12  1  0
 12 13  1  0
 13 14  2  0
 14 15  1  0
 15 16  2  0
 16 17  1  0
 16 18  1  0
 18 19  2  0
  2 20  1  0
 20 21  2  0
 21 22  1  0
 22 23  2  0
 23 24  1  0
 24 25  2  0
 25 26  1  0
 26 27  1  0
 26 28  1  0
 26 29  1  0
 25 30  1  0
 30 31  2  0
 31 32  1  0
 32 33  2  0
 12  7  1  0
 19 13  1  0
 33 20  1  0
 32 23  1  0
  3 34  1  0
  4 35  1  0
  4 36  1  0
  8 37  1  0
  8 38  1  0
  9 39  1  0
  9 40  1  0
 10 41  1  0
 10 42  1  0
 11 43  1  0
 11 44  1  0
 12 45  1  1
 14 46  1  0
 15 47  1  0
 18 48  1  0
 19 49  1  0
 21 50  1  0
 22 51  1  0
 24 52  1  0
 30 53  1  0
 31 54  1  0
M  END
>  <smiles>  (34) 
O=C(NCC(=O)N1CCCCC1c1ccc(Cl)cc1)c1ccc2cc(C(F)(F)F)ccc2n1

>  <score_type>  (34) 
oracle

>  <origin>  (34) 
autodockgpu

>  <m_score__min__energy>  (34) 
-8.5999999999999996

>  <m_primary>  (34) 
energy

>  <rmsd>  (34) 
8.569124196505273

>  <m_score__min__rmsd>  (34) 
8.569124196505273

>  <meeko>  (34) 
{"free_energy": -7.99, "intermolecular_energy": -9.78, "internal_energy": -2.04, "cluster_size": 5, "cluster_id": 3, "rank_in_cluster": 3}

>  <energy>  (34) 
-7.76

>  <cluster_rmsd>  (34) 
1.71

>  <cluster>  (34) 
4

$$$$

     RDKit          3D

 54 57  0  0  0  0  0  0  0  0999 V2000
  137.8750   73.2910  220.6100 O   0  0  0  0  0  0  0  0  0  0  0  0
  138.4960   73.3910  221.7000 C   0  0  0  0  0  0  0  0  0  0  0  0
  139.0300   74.6580  222.1010 N   0  0  0  0  0  0  0  0  0  0  0  0
  138.8080   75.7850  221.1870 C   0  0  0  0  0  0  0  0  0  0  0  0
  139.6720   75.5820  220.0220 C   0  0  0  0  0  0  0  0  0  0  0  0
  139.2780   74.7910  219.1230 O   0  0  0  0  0  0  0  0  0  0  0  0
  140.9270   76.2070  219.8140 N   0  0  0  0  0  0  0  0  0  0  0  0
  142.1580   75.4730  220.0050 C   0  0  0  0  0  0  0  0  0  0  0  0
  143.3820   76.2590  219.7060 C   0  0  0  0  0  0  0  0  0  0  0  0
  143.2620   76.9450  218.3920 C   0  0  0  0  0  0  0  0  0  0  0  0
  141.9860   77.7110  218.2110 C   0  0  0  0  0  0  0  0  0  0  0  0
  141.0630   77.6020  219.3960 C   0  0  2  0  0  0  0  0  0  0  0  0
  141.4390   78.4690  220.5350 C   0  0  0  0  0  0  0  0  0  0  0  0
  141.8480   79.7760  220.4170 C   0  0  0  0  0  0  0  0  0  0  0  0
  142.1950   80.5540  221.5260 C   0  0  0  0  0  0  0  0  0  0  0  0
  142.1380   80.0310  222.8000 C   0  0  0  0  0  0  0  0  0  0  0  0
  142.5710   81.0070  224.1740 Cl  0  0  0  0  0  0  0  0  0  0  0  0
  141.7290   78.7200  222.9200 C   0  0  0  0  0  0  0  0  0  0  0  0
  141.3830   77.9450  221.8100 C   0  0  0  0  0  0  0  0  0  0  0  0
  138.7090   72.2600  222.5980 C   0  0  0  0  0  0  0  0  0  0  0  0
  137.8500   71.1600  222.5200 C   0  0  0  0  0  0  0  0  0  0  0  0
  138.0170   70.0740  223.3490 C   0  0  0  0  0  0  0  0  0  0  0  0
  139.0560   70.0850  224.2700 C   0  0  0  0  0  0  0  0  0  0  0  0
  139.2510   69.0000  225.1240 C   0  0  0  0  0  0  0  0  0  0  0  0
  140.2970   69.0530  226.0250 C   0  0  0  0  0  0  0  0  0  0  0  0
  140.5280   67.9160  226.9450 C   0  0  0  0  0  0  0  0  0  0  0  0
  140.4260   68.4070  228.2510 F   0  0  0  0  0  0  0  0  0  0  0  0
  139.5730   66.9530  226.8090 F   0  0  0  0  0  0  0  0  0  0  0  0
  141.8100   67.4370  226.8070 F   0  0  0  0  0  0  0  0  0  0  0  0
  141.1450   70.1600  226.0890 C   0  0  0  0  0  0  0  0  0  0  0  0
  140.9450   71.2410  225.2340 C   0  0  0  0  0  0  0  0  0  0  0  0
  139.8920   71.1710  224.3370 C   0  0  0  0  0  0  0  0  0  0  0  0
  139.7090   72.2360  223.5050 N   0  0  0  0  0  0  0  0  0  0  0  0
  139.5500   74.7650  222.9990 H   0  0  0  0  0  0  0  0  0  0  0  0
  137.7541   75.8123  220.8731 H   0  0  0  0  0  0  0  0  0  0  0  0
  139.0426   76.7386  221.6826 H   0  0  0  0  0  0  0  0  0  0  0  0
  142.2056   75.1441  221.0536 H   0  0  0  0  0  0  0  0  0  0  0  0
  142.1396   74.6308  219.2976 H   0  0  0  0  0  0  0  0  0  0  0  0
  143.5281   77.0124  220.4940 H   0  0  0  0  0  0  0  0  0  0  0  0
  144.2408   75.5727  219.6680 H   0  0  0  0  0  0  0  0  0  0  0  0
  144.1027   77.6473  218.2918 H   0  0  0  0  0  0  0  0  0  0  0  0
  143.2690   76.1579  217.6236 H   0  0  0  0  0  0  0  0  0  0  0  0
  142.2326   78.7716  218.0548 H   0  0  0  0  0  0  0  0  0  0  0  0
  141.4627   77.2800  217.3447 H   0  0  0  0  0  0  0  0  0  0  0  0
  140.0855   77.9753  219.0568 H   0  0  0  0  0  0  0  0  0  0  0  0
  141.9044   80.2259  219.4148 H   0  0  0  0  0  0  0  0  0  0  0  0
  142.5172   81.5956  221.3799 H   0  0  0  0  0  0  0  0  0  0  0  0
  141.6732   78.2695  223.9219 H   0  0  0  0  0  0  0  0  0  0  0  0
  141.0616   76.9030  221.9547 H   0  0  0  0  0  0  0  0  0  0  0  0
  137.0301   71.1623  221.7867 H   0  0  0  0  0  0  0  0  0  0  0  0
  137.3381   69.2110  223.2829 H   0  0  0  0  0  0  0  0  0  0  0  0
  138.5881   68.1232  225.0813 H   0  0  0  0  0  0  0  0  0  0  0  0
  141.9713   70.1785  226.8149 H   0  0  0  0  0  0  0  0  0  0  0  0
  141.6024   72.1223  225.2699 H   0  0  0  0  0  0  0  0  0  0  0  0
  1  2  2  0
  2  3  1  0
  3  4  1  0
  4  5  1  0
  5  6  2  0
  5  7  1  0
  7  8  1  0
  8  9  1  0
  9 10  1  0
 10 11  1  0
 11 12  1  0
 12 13  1  0
 13 14  2  0
 14 15  1  0
 15 16  2  0
 16 17  1  0
 16 18  1  0
 18 19  2  0
  2 20  1  0
 20 21  2  0
 21 22  1  0
 22 23  2  0
 23 24  1  0
 24 25  2  0
 25 26  1  0
 26 27  1  0
 26 28  1  0
 26 29  1  0
 25 30  1  0
 30 31  2  0
 31 32  1  0
 32 33  2  0
 12  7  1  0
 19 13  1  0
 33 20  1  0
 32 23  1  0
  3 34  1  0
  4 35  1  0
  4 36  1  0
  8 37  1  0
  8 38  1  0
  9 39  1  0
  9 40  1  0
 10 41  1  0
 10 42  1  0
 11 43  1  0
 11 44  1  0
 12 45  1  6
 14 46  1  0
 15 47  1  0
 18 48  1  0
 19 49  1  0
 21 50  1  0
 22 51  1  0
 24 52  1  0
 30 53  1  0
 31 54  1  0
M  END
>  <smiles>  (35) 
O=C(NCC(=O)N1CCCCC1c1ccc(Cl)cc1)c1ccc2cc(C(F)(F)F)ccc2n1

>  <score_type>  (35) 
oracle

>  <origin>  (35) 
autodockgpu

>  <m_score__min__energy>  (35) 
-8.5999999999999996

>  <m_primary>  (35) 
energy

>  <rmsd>  (35) 
2.4530685976718534

>  <m_score__min__rmsd>  (35) 
2.4530685976718534

>  <meeko>  (35) 
{"free_energy": -7.87, "intermolecular_energy": -9.66, "internal_energy": -1.66, "cluster_size": 6, "cluster_id": 5, "rank_in_cluster": 4}

>  <energy>  (35) 
-7.75

>  <cluster_rmsd>  (35) 
0.61

>  <cluster>  (35) 
4

$$$$

     RDKit          3D

 54 57  0  0  0  0  0  0  0  0999 V2000
  137.9470   73.3750  220.6980 O   0  0  0  0  0  0  0  0  0  0  0  0
  137.9090   74.1220  221.7100 C   0  0  0  0  0  0  0  0  0  0  0  0
  136.9210   73.8990  222.7230 N   0  0  0  0  0  0  0  0  0  0  0  0
  135.9940   72.7810  222.5040 C   0  0  0  0  0  0  0  0  0  0  0  0
  136.5150   71.6290  223.2430 C   0  0  0  0  0  0  0  0  0  0  0  0
  135.8140   71.1630  224.1820 O   0  0  0  0  0  0  0  0  0  0  0  0
  137.7510   70.9840  222.9900 N   0  0  0  0  0  0  0  0  0  0  0  0
  137.7960   69.7350  222.2610 C   0  0  0  0  0  0  0  0  0  0  0  0
  139.1700   69.2130  222.0450 C   0  0  0  0  0  0  0  0  0  0  0  0
  140.0640   70.2780  221.5170 C   0  0  0  0  0  0  0  0  0  0  0  0
  140.0150   71.5620  222.2880 C   0  0  0  0  0  0  0  0  0  0  0  0
  139.0370   71.5220  223.4330 C   0  0  2  0  0  0  0  0  0  0  0  0
  139.5350   70.8070  224.6280 C   0  0  0  0  0  0  0  0  0  0  0  0
  140.7400   71.0600  225.2410 C   0  0  0  0  0  0  0  0  0  0  0  0
  141.1680   70.3540  226.3700 C   0  0  0  0  0  0  0  0  0  0  0  0
  140.3840   69.3620  226.9190 C   0  0  0  0  0  0  0  0  0  0  0  0
  140.9250   68.4880  228.3240 Cl  0  0  0  0  0  0  0  0  0  0  0  0
  139.1770   69.1060  226.3050 C   0  0  0  0  0  0  0  0  0  0  0  0
  138.7510   69.8130  225.1770 C   0  0  0  0  0  0  0  0  0  0  0  0
  138.8380   75.2300  221.9140 C   0  0  0  0  0  0  0  0  0  0  0  0
  140.1800   75.0640  221.5570 C   0  0  0  0  0  0  0  0  0  0  0  0
  141.0870   76.0840  221.7320 C   0  0  0  0  0  0  0  0  0  0  0  0
  140.6510   77.2870  222.2720 C   0  0  0  0  0  0  0  0  0  0  0  0
  141.5470   78.3390  222.4620 C   0  0  0  0  0  0  0  0  0  0  0  0
  141.0690   79.5180  223.0020 C   0  0  0  0  0  0  0  0  0  0  0  0
  141.9970   80.6520  223.2160 C   0  0  0  0  0  0  0  0  0  0  0  0
  141.9870   81.4250  222.0490 F   0  0  0  0  0  0  0  0  0  0  0  0
  141.5790   81.4620  224.2290 F   0  0  0  0  0  0  0  0  0  0  0  0
  143.2860   80.1990  223.3730 F   0  0  0  0  0  0  0  0  0  0  0  0
  139.7260   79.6640  223.3530 C   0  0  0  0  0  0  0  0  0  0  0  0
  138.8370   78.6100  223.1600 C   0  0  0  0  0  0  0  0  0  0  0  0
  139.3310   77.4360  222.6180 C   0  0  0  0  0  0  0  0  0  0  0  0
  138.4500   76.4130  222.4350 N   0  0  0  0  0  0  0  0  0  0  0  0
  136.8700   74.5060  223.5710 H   0  0  0  0  0  0  0  0  0  0  0  0
  134.9927   73.0445  222.8755 H   0  0  0  0  0  0  0  0  0  0  0  0
  135.9111   72.5495  221.4318 H   0  0  0  0  0  0  0  0  0  0  0  0
  137.2249   68.9835  222.8259 H   0  0  0  0  0  0  0  0  0  0  0  0
  137.3688   69.9304  221.2664 H   0  0  0  0  0  0  0  0  0  0  0  0
  139.5711   68.8473  223.0017 H   0  0  0  0  0  0  0  0  0  0  0  0
  139.1245   68.3954  221.3105 H   0  0  0  0  0  0  0  0  0  0  0  0
  141.0976   69.9023  221.5386 H   0  0  0  0  0  0  0  0  0  0  0  0
  139.7140   70.5076  220.4997 H   0  0  0  0  0  0  0  0  0  0  0  0
  141.0178   71.7682  222.6902 H   0  0  0  0  0  0  0  0  0  0  0  0
  139.6810   72.3495  221.5964 H   0  0  0  0  0  0  0  0  0  0  0  0
  138.9020   72.5650  223.7554 H   0  0  0  0  0  0  0  0  0  0  0  0
  141.3903   71.8456  224.8286 H   0  0  0  0  0  0  0  0  0  0  0  0
  142.1407   70.5929  226.8247 H   0  0  0  0  0  0  0  0  0  0  0  0
  138.5274   68.3193  226.7162 H   0  0  0  0  0  0  0  0  0  0  0  0
  137.7788   69.5741  224.7213 H   0  0  0  0  0  0  0  0  0  0  0  0
  140.5145   74.1065  221.1312 H   0  0  0  0  0  0  0  0  0  0  0  0
  142.1412   75.9486  221.4485 H   0  0  0  0  0  0  0  0  0  0  0  0
  142.6073   78.2329  222.1890 H   0  0  0  0  0  0  0  0  0  0  0  0
  139.3698   80.6121  223.7822 H   0  0  0  0  0  0  0  0  0  0  0  0
  137.7751   78.7072  223.4299 H   0  0  0  0  0  0  0  0  0  0  0  0
  1  2  2  0
  2  3  1  0
  3  4  1  0
  4  5  1  0
  5  6  2  0
  5  7  1  0
  7  8  1  0
  8  9  1  0
  9 10  1  0
 10 11  1  0
 11 12  1  0
 12 13  1  0
 13 14  2  0
 14 15  1  0
 15 16  2  0
 16 17  1  0
 16 18  1  0
 18 19  2  0
  2 20  1  0
 20 21  2  0
 21 22  1  0
 22 23  2  0
 23 24  1  0
 24 25  2  0
 25 26  1  0
 26 27  1  0
 26 28  1  0
 26 29  1  0
 25 30  1  0
 30 31  2  0
 31 32  1  0
 32 33  2  0
 12  7  1  0
 19 13  1  0
 33 20  1  0
 32 23  1  0
  3 34  1  0
  4 35  1  0
  4 36  1  0
  8 37  1  0
  8 38  1  0
  9 39  1  0
  9 40  1  0
 10 41  1  0
 10 42  1  0
 11 43  1  0
 11 44  1  0
 12 45  1  1
 14 46  1  0
 15 47  1  0
 18 48  1  0
 19 49  1  0
 21 50  1  0
 22 51  1  0
 24 52  1  0
 30 53  1  0
 31 54  1  0
M  END
>  <smiles>  (36) 
O=C(NCC(=O)N1CCCCC1c1ccc(Cl)cc1)c1ccc2cc(C(F)(F)F)ccc2n1

>  <score_type>  (36) 
oracle

>  <origin>  (36) 
autodockgpu

>  <m_score__min__energy>  (36) 
-8.5999999999999996

>  <m_primary>  (36) 
energy

>  <rmsd>  (36) 
7.230726554039387

>  <m_score__min__rmsd>  (36) 
7.230726554039387

>  <meeko>  (36) 
{"free_energy": -8.0, "intermolecular_energy": -9.79, "internal_energy": -2.1, "cluster_size": 17, "cluster_id": 4, "rank_in_cluster": 8}

>  <energy>  (36) 
-7.74

>  <cluster_rmsd>  (36) 
0.55

>  <cluster>  (36) 
4

$$$$

     RDKit          3D

 54 57  0  0  0  0  0  0  0  0999 V2000
  137.5480   76.3530  220.5860 O   0  0  0  0  0  0  0  0  0  0  0  0
  137.3370   75.7060  221.6440 C   0  0  0  0  0  0  0  0  0  0  0  0
  138.0340   74.4760  221.8780 N   0  0  0  0  0  0  0  0  0  0  0  0
  138.9740   74.0450  220.8360 C   0  0  0  0  0  0  0  0  0  0  0  0
  140.3230   74.3880  221.2930 C   0  0  0  0  0  0  0  0  0  0  0  0
  140.7520   73.8330  222.3400 O   0  0  0  0  0  0  0  0  0  0  0  0
  141.1980   75.3000  220.6510 N   0  0  0  0  0  0  0  0  0  0  0  0
  142.5850   74.9550  220.4230 C   0  0  0  0  0  0  0  0  0  0  0  0
  143.3550   76.0010  219.7030 C   0  0  0  0  0  0  0  0  0  0  0  0
  142.6190   76.4630  218.4960 C   0  0  0  0  0  0  0  0  0  0  0  0
  141.1870   76.8260  218.7480 C   0  0  0  0  0  0  0  0  0  0  0  0
  140.7720   76.6170  220.1810 C   0  0  2  0  0  0  0  0  0  0  0  0
  141.2200   77.6860  221.1010 C   0  0  0  0  0  0  0  0  0  0  0  0
  141.7840   78.8730  220.6990 C   0  0  0  0  0  0  0  0  0  0  0  0
  142.1940   79.8530  221.6090 C   0  0  0  0  0  0  0  0  0  0  0  0
  142.0440   79.6610  222.9660 C   0  0  0  0  0  0  0  0  0  0  0  0
  142.5570   80.8860  224.0910 Cl  0  0  0  0  0  0  0  0  0  0  0  0
  141.4800   78.4700  223.3700 C   0  0  0  0  0  0  0  0  0  0  0  0
  141.0710   77.4930  222.4590 C   0  0  0  0  0  0  0  0  0  0  0  0
  136.3990   76.1490  222.6710 C   0  0  0  0  0  0  0  0  0  0  0  0
  135.9580   77.4760  222.6600 C   0  0  0  0  0  0  0  0  0  0  0  0
  135.0730   77.9330  223.6100 C   0  0  0  0  0  0  0  0  0  0  0  0
  134.6220   77.0550  224.5860 C   0  0  0  0  0  0  0  0  0  0  0  0
  133.7250   77.4880  225.5630 C   0  0  0  0  0  0  0  0  0  0  0  0
  133.3020   76.5810  226.5150 C   0  0  0  0  0  0  0  0  0  0  0  0
  132.3510   77.0120  227.5640 C   0  0  0  0  0  0  0  0  0  0  0  0
  131.3040   77.6870  226.9270 F   0  0  0  0  0  0  0  0  0  0  0  0
  131.7980   75.9480  228.2130 F   0  0  0  0  0  0  0  0  0  0  0  0
  132.9430   77.9200  228.4100 F   0  0  0  0  0  0  0  0  0  0  0  0
  133.7540   75.2590  226.5110 C   0  0  0  0  0  0  0  0  0  0  0  0
  134.6490   74.8330  225.5330 C   0  0  0  0  0  0  0  0  0  0  0  0
  135.0630   75.7550  224.5860 C   0  0  0  0  0  0  0  0  0  0  0  0
  135.9390   75.3240  223.6350 N   0  0  0  0  0  0  0  0  0  0  0  0
  137.8750   73.9230  222.7480 H   0  0  0  0  0  0  0  0  0  0  0  0
  138.8937   72.9586  220.6834 H   0  0  0  0  0  0  0  0  0  0  0  0
  138.7495   74.5425  219.8809 H   0  0  0  0  0  0  0  0  0  0  0  0
  143.0637   74.7822  221.3982 H   0  0  0  0  0  0  0  0  0  0  0  0
  142.5903   74.0589  219.7851 H   0  0  0  0  0  0  0  0  0  0  0  0
  143.5173   76.8562  220.3755 H   0  0  0  0  0  0  0  0  0  0  0  0
  144.3181   75.5741  219.3863 H   0  0  0  0  0  0  0  0  0  0  0  0
  143.1339   77.3493  218.0968 H   0  0  0  0  0  0  0  0  0  0  0  0
  142.6105   75.6193  217.7902 H   0  0  0  0  0  0  0  0  0  0  0  0
  141.0436   77.8862  218.4922 H   0  0  0  0  0  0  0  0  0  0  0  0
  140.5650   76.1665  218.1250 H   0  0  0  0  0  0  0  0  0  0  0  0
  139.6732   76.6673  220.1911 H   0  0  0  0  0  0  0  0  0  0  0  0
  141.9178   79.0591  219.6231 H   0  0  0  0  0  0  0  0  0  0  0  0
  142.6410   80.7871  221.2379 H   0  0  0  0  0  0  0  0  0  0  0  0
  141.3475   78.2825  224.4458 H   0  0  0  0  0  0  0  0  0  0  0  0
  140.6246   76.5582  222.8290 H   0  0  0  0  0  0  0  0  0  0  0  0
  136.3229   78.1632  221.8824 H   0  0  0  0  0  0  0  0  0  0  0  0
  134.7285   78.9776  223.5960 H   0  0  0  0  0  0  0  0  0  0  0  0
  133.3634   78.5268  225.5749 H   0  0  0  0  0  0  0  0  0  0  0  0
  133.4030   74.5551  227.2800 H   0  0  0  0  0  0  0  0  0  0  0  0
  135.0159   73.7962  225.5132 H   0  0  0  0  0  0  0  0  0  0  0  0
  1  2  2  0
  2  3  1  0
  3  4  1  0
  4  5  1  0
  5  6  2  0
  5  7  1  0
  7  8  1  0
  8  9  1  0
  9 10  1  0
 10 11  1  0
 11 12  1  0
 12 13  1  0
 13 14  2  0
 14 15  1  0
 15 16  2  0
 16 17  1  0
 16 18  1  0
 18 19  2  0
  2 20  1  0
 20 21  2  0
 21 22  1  0
 22 23  2  0
 23 24  1  0
 24 25  2  0
 25 26  1  0
 26 27  1  0
 26 28  1  0
 26 29  1  0
 25 30  1  0
 30 31  2  0
 31 32  1  0
 32 33  2  0
 12  7  1  0
 19 13  1  0
 33 20  1  0
 32 23  1  0
  3 34  1  0
  4 35  1  0
  4 36  1  0
  8 37  1  0
  8 38  1  0
  9 39  1  0
  9 40  1  0
 10 41  1  0
 10 42  1  0
 11 43  1  0
 11 44  1  0
 12 45  1  6
 14 46  1  0
 15 47  1  0
 18 48  1  0
 19 49  1  0
 21 50  1  0
 22 51  1  0
 24 52  1  0
 30 53  1  0
 31 54  1  0
M  END
>  <smiles>  (37) 
O=C(NCC(=O)N1CCCCC1c1ccc(Cl)cc1)c1ccc2cc(C(F)(F)F)ccc2n1

>  <score_type>  (37) 
oracle

>  <origin>  (37) 
autodockgpu

>  <m_score__min__energy>  (37) 
-8.5999999999999996

>  <m_primary>  (37) 
energy

>  <rmsd>  (37) 
6.269884802872596

>  <m_score__min__rmsd>  (37) 
6.269884802872596

>  <meeko>  (37) 
{"free_energy": -7.52, "intermolecular_energy": -9.31, "internal_energy": -2.22, "cluster_size": 1, "cluster_id": 7, "rank_in_cluster": 1}

>  <energy>  (37) 
-7.69

>  <cluster_rmsd>  (37) 
1.07

>  <cluster>  (37) 
4

$$$$

     RDKit          3D

 54 57  0  0  0  0  0  0  0  0999 V2000
  137.7280   72.1220  220.9270 O   0  0  0  0  0  0  0  0  0  0  0  0
  138.7530   72.2660  221.6420 C   0  0  0  0  0  0  0  0  0  0  0  0
  139.7410   73.2380  221.2830 N   0  0  0  0  0  0  0  0  0  0  0  0
  139.4820   74.0240  220.0700 C   0  0  0  0  0  0  0  0  0  0  0  0
  139.7110   75.4310  220.4020 C   0  0  0  0  0  0  0  0  0  0  0  0
  138.8010   76.0500  221.0180 O   0  0  0  0  0  0  0  0  0  0  0  0
  140.8810   76.1680  220.0880 N   0  0  0  0  0  0  0  0  0  0  0  0
  142.1820   75.5350  220.1210 C   0  0  0  0  0  0  0  0  0  0  0  0
  143.2980   76.4320  219.7260 C   0  0  0  0  0  0  0  0  0  0  0  0
  142.9810   77.1460  218.4600 C   0  0  0  0  0  0  0  0  0  0  0  0
  141.6350   77.8050  218.4450 C   0  0  0  0  0  0  0  0  0  0  0  0
  140.8570   77.5810  219.7150 C   0  0  2  0  0  0  0  0  0  0  0  0
  141.2820   78.4410  220.8420 C   0  0  0  0  0  0  0  0  0  0  0  0
  141.2230   78.0740  222.1660 C   0  0  0  0  0  0  0  0  0  0  0  0
  141.6350   78.9250  223.1960 C   0  0  0  0  0  0  0  0  0  0  0  0
  142.1250   80.1830  222.9180 C   0  0  0  0  0  0  0  0  0  0  0  0
  142.6360   81.2350  224.2070 Cl  0  0  0  0  0  0  0  0  0  0  0  0
  142.1840   80.5520  221.5910 C   0  0  0  0  0  0  0  0  0  0  0  0
  141.7710   79.7000  220.5630 C   0  0  0  0  0  0  0  0  0  0  0  0
  138.9960   71.4770  222.8460 C   0  0  0  0  0  0  0  0  0  0  0  0
  138.2470   70.3160  223.0600 C   0  0  0  0  0  0  0  0  0  0  0  0
  138.4460   69.5440  224.1820 C   0  0  0  0  0  0  0  0  0  0  0  0
  139.4060   69.9350  225.1060 C   0  0  0  0  0  0  0  0  0  0  0  0
  139.6310   69.1750  226.2530 C   0  0  0  0  0  0  0  0  0  0  0  0
  140.5960   69.6020  227.1450 C   0  0  0  0  0  0  0  0  0  0  0  0
  140.8570   68.8150  228.3710 C   0  0  0  0  0  0  0  0  0  0  0  0
  139.6890   68.8430  229.1430 F   0  0  0  0  0  0  0  0  0  0  0  0
  141.1110   67.5070  228.0880 F   0  0  0  0  0  0  0  0  0  0  0  0
  141.8380   69.4110  229.1280 F   0  0  0  0  0  0  0  0  0  0  0  0
  141.3340   70.7640  226.9150 C   0  0  0  0  0  0  0  0  0  0  0  0
  141.1050   71.5190  225.7680 C   0  0  0  0  0  0  0  0  0  0  0  0
  140.1340   71.0780  224.8840 C   0  0  0  0  0  0  0  0  0  0  0  0
  139.9210   71.8260  223.7650 N   0  0  0  0  0  0  0  0  0  0  0  0
  140.5990   73.3750  221.8610 H   0  0  0  0  0  0  0  0  0  0  0  0
  140.1652   73.7114  219.2666 H   0  0  0  0  0  0  0  0  0  0  0  0
  138.4501   73.8706  219.7212 H   0  0  0  0  0  0  0  0  0  0  0  0
  142.3687   75.1804  221.1454 H   0  0  0  0  0  0  0  0  0  0  0  0
  142.1568   74.7150  219.3882 H   0  0  0  0  0  0  0  0  0  0  0  0
  143.4665   77.1704  220.5237 H   0  0  0  0  0  0  0  0  0  0  0  0
  144.2007   75.8230  219.5701 H   0  0  0  0  0  0  0  0  0  0  0  0
  143.7457   77.9204  218.3003 H   0  0  0  0  0  0  0  0  0  0  0  0
  142.9693   76.3868  217.6641 H   0  0  0  0  0  0  0  0  0  0  0  0
  141.7758   78.8871  218.3062 H   0  0  0  0  0  0  0  0  0  0  0  0
  141.0583   77.3576  217.6221 H   0  0  0  0  0  0  0  0  0  0  0  0
  139.8214   77.8802  219.4960 H   0  0  0  0  0  0  0  0  0  0  0  0
  140.8383   77.0762  222.4237 H   0  0  0  0  0  0  0  0  0  0  0  0
  141.5673   78.5866  224.2405 H   0  0  0  0  0  0  0  0  0  0  0  0
  142.5687   81.5497  221.3328 H   0  0  0  0  0  0  0  0  0  0  0  0
  141.8368   80.0378  219.5182 H   0  0  0  0  0  0  0  0  0  0  0  0
  137.4887   70.0156  222.3220 H   0  0  0  0  0  0  0  0  0  0  0  0
  137.8537   68.6314  224.3442 H   0  0  0  0  0  0  0  0  0  0  0  0
  139.0543   68.2578  226.4432 H   0  0  0  0  0  0  0  0  0  0  0  0
  142.0969   71.0834  227.6402 H   0  0  0  0  0  0  0  0  0  0  0  0
  141.6773   72.4372  225.5699 H   0  0  0  0  0  0  0  0  0  0  0  0
  1  2  2  0
  2  3  1  0
  3  4  1  0
  4  5  1  0
  5  6  2  0
  5  7  1  0
  7  8  1  0
  8  9  1  0
  9 10  1  0
 10 11  1  0
 11 12  1  0
 12 13  1  0
 13 14  2  0
 14 15  1  0
 15 16  2  0
 16 17  1  0
 16 18  1  0
 18 19  2  0
  2 20  1  0
 20 21  2  0
 21 22  1  0
 22 23  2  0
 23 24  1  0
 24 25  2  0
 25 26  1  0
 26 27  1  0
 26 28  1  0
 26 29  1  0
 25 30  1  0
 30 31  2  0
 31 32  1  0
 32 33  2  0
 12  7  1  0
 19 13  1  0
 33 20  1  0
 32 23  1  0
  3 34  1  0
  4 35  1  0
  4 36  1  0
  8 37  1  0
  8 38  1  0
  9 39  1  0
  9 40  1  0
 10 41  1  0
 10 42  1  0
 11 43  1  0
 11 44  1  0
 12 45  1  6
 14 46  1  0
 15 47  1  0
 18 48  1  0
 19 49  1  0
 21 50  1  0
 22 51  1  0
 24 52  1  0
 30 53  1  0
 31 54  1  0
M  END
>  <smiles>  (38) 
O=C(NCC(=O)N1CCCCC1c1ccc(Cl)cc1)c1ccc2cc(C(F)(F)F)ccc2n1

>  <score_type>  (38) 
oracle

>  <origin>  (38) 
autodockgpu

>  <m_score__min__energy>  (38) 
-8.5999999999999996

>  <m_primary>  (38) 
energy

>  <rmsd>  (38) 
2.070713201311562

>  <m_score__min__rmsd>  (38) 
2.070713201311562

>  <meeko>  (38) 
{"free_energy": -7.82, "intermolecular_energy": -9.61, "internal_energy": -1.74, "cluster_size": 6, "cluster_id": 5, "rank_in_cluster": 6}

>  <energy>  (38) 
-8.0

>  <cluster_rmsd>  (38) 
0.0

>  <cluster>  (38) 
5

$$$$

     RDKit          3D

 54 57  0  0  0  0  0  0  0  0999 V2000
  138.2730   73.7790  220.2850 O   0  0  0  0  0  0  0  0  0  0  0  0
  138.2340   74.4850  221.3260 C   0  0  0  0  0  0  0  0  0  0  0  0
  137.2490   74.2160  222.3310 N   0  0  0  0  0  0  0  0  0  0  0  0
  136.3290   73.1030  222.0710 C   0  0  0  0  0  0  0  0  0  0  0  0
  136.8720   71.9190  222.7420 C   0  0  0  0  0  0  0  0  0  0  0  0
  136.1270   71.3040  223.5520 O   0  0  0  0  0  0  0  0  0  0  0  0
  138.1770   71.3980  222.5560 N   0  0  0  0  0  0  0  0  0  0  0  0
  138.4200   70.3390  221.6010 C   0  0  0  0  0  0  0  0  0  0  0  0
  139.8460   69.9370  221.4980 C   0  0  0  0  0  0  0  0  0  0  0  0
  140.7230   71.1280  221.3460 C   0  0  0  0  0  0  0  0  0  0  0  0
  140.4670   72.2130  222.3480 C   0  0  0  0  0  0  0  0  0  0  0  0
  139.3420   71.8850  223.2940 C   0  0  2  0  0  0  0  0  0  0  0  0
  139.7180   70.9510  224.3790 C   0  0  0  0  0  0  0  0  0  0  0  0
  138.9520   69.8860  224.7890 C   0  0  0  0  0  0  0  0  0  0  0  0
  139.3520   69.0320  225.8230 C   0  0  0  0  0  0  0  0  0  0  0  0
  140.5490   69.2290  226.4770 C   0  0  0  0  0  0  0  0  0  0  0  0
  141.0380   68.1610  227.7610 Cl  0  0  0  0  0  0  0  0  0  0  0  0
  141.3170   70.2980  226.0660 C   0  0  0  0  0  0  0  0  0  0  0  0
  140.9160   71.1490  225.0340 C   0  0  0  0  0  0  0  0  0  0  0  0
  139.1560   75.5900  221.5700 C   0  0  0  0  0  0  0  0  0  0  0  0
  140.4410   75.5350  221.0210 C   0  0  0  0  0  0  0  0  0  0  0  0
  141.3410   76.5560  221.2270 C   0  0  0  0  0  0  0  0  0  0  0  0
  140.9550   77.6470  221.9930 C   0  0  0  0  0  0  0  0  0  0  0  0
  141.8430   78.6980  222.2210 C   0  0  0  0  0  0  0  0  0  0  0  0
  141.4170   79.7640  222.9890 C   0  0  0  0  0  0  0  0  0  0  0  0
  142.3390   80.8940  223.2480 C   0  0  0  0  0  0  0  0  0  0  0  0
  141.9750   81.9360  222.3870 F   0  0  0  0  0  0  0  0  0  0  0  0
  142.2120   81.3690  224.5180 F   0  0  0  0  0  0  0  0  0  0  0  0
  143.6290   80.5490  222.9190 F   0  0  0  0  0  0  0  0  0  0  0  0
  140.1300   79.8010  223.5300 C   0  0  0  0  0  0  0  0  0  0  0  0
  139.2470   78.7500  223.2990 C   0  0  0  0  0  0  0  0  0  0  0  0
  139.6910   77.6890  222.5270 C   0  0  0  0  0  0  0  0  0  0  0  0
  138.8150   76.6670  222.3090 N   0  0  0  0  0  0  0  0  0  0  0  0
  137.1970   74.7890  223.2020 H   0  0  0  0  0  0  0  0  0  0  0  0
  135.3319   73.3380  222.4718 H   0  0  0  0  0  0  0  0  0  0  0  0
  136.2304   72.9254  220.9899 H   0  0  0  0  0  0  0  0  0  0  0  0
  137.8330   69.4590  221.9029 H   0  0  0  0  0  0  0  0  0  0  0  0
  138.1251   70.7252  220.6141 H   0  0  0  0  0  0  0  0  0  0  0  0
  140.1333   69.3920  222.4093 H   0  0  0  0  0  0  0  0  0  0  0  0
  139.9674   69.2956  220.6126 H   0  0  0  0  0  0  0  0  0  0  0  0
  141.7684   70.8019  221.4505 H   0  0  0  0  0  0  0  0  0  0  0  0
  140.5061   71.5553  220.3559 H   0  0  0  0  0  0  0  0  0  0  0  0
  141.3837   72.3720  222.9348 H   0  0  0  0  0  0  0  0  0  0  0  0
  140.1760   73.1151  221.7899 H   0  0  0  0  0  0  0  0  0  0  0  0
  139.0837   72.8275  223.7989 H   0  0  0  0  0  0  0  0  0  0  0  0
  137.9913   69.6984  224.2871 H   0  0  0  0  0  0  0  0  0  0  0  0
  138.7034   68.1937  226.1172 H   0  0  0  0  0  0  0  0  0  0  0  0
  142.2775   70.4867  226.5678 H   0  0  0  0  0  0  0  0  0  0  0  0
  141.5636   71.9880  224.7395 H   0  0  0  0  0  0  0  0  0  0  0  0
  140.7364   74.6646  220.4167 H   0  0  0  0  0  0  0  0  0  0  0  0
  142.3500   76.5079  220.7915 H   0  0  0  0  0  0  0  0  0  0  0  0
  142.8587   78.6784  221.7991 H   0  0  0  0  0  0  0  0  0  0  0  0
  139.8140   80.6609  224.1388 H   0  0  0  0  0  0  0  0  0  0  0  0
  138.2292   78.7616  223.7161 H   0  0  0  0  0  0  0  0  0  0  0  0
  1  2  2  0
  2  3  1  0
  3  4  1  0
  4  5  1  0
  5  6  2  0
  5  7  1  0
  7  8  1  0
  8  9  1  0
  9 10  1  0
 10 11  1  0
 11 12  1  0
 12 13  1  0
 13 14  2  0
 14 15  1  0
 15 16  2  0
 16 17  1  0
 16 18  1  0
 18 19  2  0
  2 20  1  0
 20 21  2  0
 21 22  1  0
 22 23  2  0
 23 24  1  0
 24 25  2  0
 25 26  1  0
 26 27  1  0
 26 28  1  0
 26 29  1  0
 25 30  1  0
 30 31  2  0
 31 32  1  0
 32 33  2  0
 12  7  1  0
 19 13  1  0
 33 20  1  0
 32 23  1  0
  3 34  1  0
  4 35  1  0
  4 36  1  0
  8 37  1  0
  8 38  1  0
  9 39  1  0
  9 40  1  0
 10 41  1  0
 10 42  1  0
 11 43  1  0
 11 44  1  0
 12 45  1  1
 14 46  1  0
 15 47  1  0
 18 48  1  0
 19 49  1  0
 21 50  1  0
 22 51  1  0
 24 52  1  0
 30 53  1  0
 31 54  1  0
M  END
>  <smiles>  (39) 
O=C(NCC(=O)N1CCCCC1c1ccc(Cl)cc1)c1ccc2cc(C(F)(F)F)ccc2n1

>  <score_type>  (39) 
oracle

>  <origin>  (39) 
autodockgpu

>  <m_score__min__energy>  (39) 
-8.5999999999999996

>  <m_primary>  (39) 
energy

>  <rmsd>  (39) 
7.144501858905105

>  <m_score__min__rmsd>  (39) 
7.144501858905105

>  <meeko>  (39) 
{"free_energy": -7.81, "intermolecular_energy": -9.6, "internal_energy": -2.29, "cluster_size": 17, "cluster_id": 4, "rank_in_cluster": 10}

>  <energy>  (39) 
-7.92

>  <cluster_rmsd>  (39) 
1.25

>  <cluster>  (39) 
5

$$$$

     RDKit          3D

 54 57  0  0  0  0  0  0  0  0999 V2000
  137.9070   73.4100  220.6750 O   0  0  0  0  0  0  0  0  0  0  0  0
  137.8880   74.1280  221.7080 C   0  0  0  0  0  0  0  0  0  0  0  0
  136.9180   73.8760  222.7320 N   0  0  0  0  0  0  0  0  0  0  0  0
  135.9880   72.7650  222.4990 C   0  0  0  0  0  0  0  0  0  0  0  0
  136.5020   71.6020  223.2270 C   0  0  0  0  0  0  0  0  0  0  0  0
  135.7860   71.1140  224.1420 O   0  0  0  0  0  0  0  0  0  0  0  0
  137.7480   70.9700  222.9870 N   0  0  0  0  0  0  0  0  0  0  0  0
  137.8150   69.7260  222.2520 C   0  0  0  0  0  0  0  0  0  0  0  0
  139.1970   69.2190  222.0520 C   0  0  0  0  0  0  0  0  0  0  0  0
  140.0870   70.2950  221.5410 C   0  0  0  0  0  0  0  0  0  0  0  0
  140.0150   71.5750  222.3180 C   0  0  0  0  0  0  0  0  0  0  0  0
  139.0220   71.5190  223.4500 C   0  0  2  0  0  0  0  0  0  0  0  0
  139.5120   70.8020  224.6480 C   0  0  0  0  0  0  0  0  0  0  0  0
  140.7060   71.0630  225.2770 C   0  0  0  0  0  0  0  0  0  0  0  0
  141.1260   70.3550  226.4080 C   0  0  0  0  0  0  0  0  0  0  0  0
  140.3440   69.3540  226.9430 C   0  0  0  0  0  0  0  0  0  0  0  0
  140.8740   68.4780  228.3500 Cl  0  0  0  0  0  0  0  0  0  0  0  0
  139.1470   69.0900  226.3120 C   0  0  0  0  0  0  0  0  0  0  0  0
  138.7300   69.7990  225.1820 C   0  0  0  0  0  0  0  0  0  0  0  0
  138.8200   75.2300  221.9250 C   0  0  0  0  0  0  0  0  0  0  0  0
  140.1680   75.0530  221.5970 C   0  0  0  0  0  0  0  0  0  0  0  0
  141.0790   76.0680  221.7870 C   0  0  0  0  0  0  0  0  0  0  0  0
  140.6410   77.2760  222.3110 C   0  0  0  0  0  0  0  0  0  0  0  0
  141.5390   78.3220  222.5150 C   0  0  0  0  0  0  0  0  0  0  0  0
  141.0600   79.5070  223.0400 C   0  0  0  0  0  0  0  0  0  0  0  0
  141.9900   80.6360  223.2670 C   0  0  0  0  0  0  0  0  0  0  0  0
  142.0440   81.3790  222.0820 F   0  0  0  0  0  0  0  0  0  0  0  0
  141.5370   81.4760  224.2390 F   0  0  0  0  0  0  0  0  0  0  0  0
  143.2650   80.1730  223.4950 F   0  0  0  0  0  0  0  0  0  0  0  0
  139.7100   79.6650  223.3620 C   0  0  0  0  0  0  0  0  0  0  0  0
  138.8180   78.6170  223.1560 C   0  0  0  0  0  0  0  0  0  0  0  0
  139.3150   77.4360  222.6300 C   0  0  0  0  0  0  0  0  0  0  0  0
  138.4300   76.4180  222.4330 N   0  0  0  0  0  0  0  0  0  0  0  0
  136.8830   74.4580  223.5970 H   0  0  0  0  0  0  0  0  0  0  0  0
  134.9869   73.0287  222.8707 H   0  0  0  0  0  0  0  0  0  0  0  0
  135.9075   72.5454  221.4242 H   0  0  0  0  0  0  0  0  0  0  0  0
  137.2438   68.9658  222.8049 H   0  0  0  0  0  0  0  0  0  0  0  0
  137.3992   69.9226  221.2528 H   0  0  0  0  0  0  0  0  0  0  0  0
  139.5890   68.8529  223.0123 H   0  0  0  0  0  0  0  0  0  0  0  0
  139.1696   68.4045  221.3132 H   0  0  0  0  0  0  0  0  0  0  0  0
  141.1239   69.9294  221.5744 H   0  0  0  0  0  0  0  0  0  0  0  0
  139.7483   70.5262  220.5203 H   0  0  0  0  0  0  0  0  0  0  0  0
  141.0103   71.7892  222.7345 H   0  0  0  0  0  0  0  0  0  0  0  0
  139.6825   72.3628  221.6260 H   0  0  0  0  0  0  0  0  0  0  0  0
  138.8716   72.5587  223.7762 H   0  0  0  0  0  0  0  0  0  0  0  0
  141.3541   71.8566  224.8769 H   0  0  0  0  0  0  0  0  0  0  0  0
  142.0911   70.5999  226.8756 H   0  0  0  0  0  0  0  0  0  0  0  0
  138.4991   68.2955  226.7108 H   0  0  0  0  0  0  0  0  0  0  0  0
  137.7659   69.5540  224.7125 H   0  0  0  0  0  0  0  0  0  0  0  0
  140.5046   74.0914  221.1822 H   0  0  0  0  0  0  0  0  0  0  0  0
  142.1381   75.9234  221.5273 H   0  0  0  0  0  0  0  0  0  0  0  0
  142.6038   78.2070  222.2641 H   0  0  0  0  0  0  0  0  0  0  0  0
  139.3519   80.6181  223.7785 H   0  0  0  0  0  0  0  0  0  0  0  0
  137.7514   78.7232  223.4032 H   0  0  0  0  0  0  0  0  0  0  0  0
  1  2  2  0
  2  3  1  0
  3  4  1  0
  4  5  1  0
  5  6  2  0
  5  7  1  0
  7  8  1  0
  8  9  1  0
  9 10  1  0
 10 11  1  0
 11 12  1  0
 12 13  1  0
 13 14  2  0
 14 15  1  0
 15 16  2  0
 16 17  1  0
 16 18  1  0
 18 19  2  0
  2 20  1  0
 20 21  2  0
 21 22  1  0
 22 23  2  0
 23 24  1  0
 24 25  2  0
 25 26  1  0
 26 27  1  0
 26 28  1  0
 26 29  1  0
 25 30  1  0
 30 31  2  0
 31 32  1  0
 32 33  2  0
 12  7  1  0
 19 13  1  0
 33 20  1  0
 32 23  1  0
  3 34  1  0
  4 35  1  0
  4 36  1  0
  8 37  1  0
  8 38  1  0
  9 39  1  0
  9 40  1  0
 10 41  1  0
 10 42  1  0
 11 43  1  0
 11 44  1  0
 12 45  1  1
 14 46  1  0
 15 47  1  0
 18 48  1  0
 19 49  1  0
 21 50  1  0
 22 51  1  0
 24 52  1  0
 30 53  1  0
 31 54  1  0
M  END
>  <smiles>  (40) 
O=C(NCC(=O)N1CCCCC1c1ccc(Cl)cc1)c1ccc2cc(C(F)(F)F)ccc2n1

>  <score_type>  (40) 
oracle

>  <origin>  (40) 
autodockgpu

>  <m_score__min__energy>  (40) 
-8.5999999999999996

>  <m_primary>  (40) 
energy

>  <rmsd>  (40) 
7.226326966120939

>  <m_score__min__rmsd>  (40) 
7.226326966120939

>  <meeko>  (40) 
{"free_energy": -8.01, "intermolecular_energy": -9.8, "internal_energy": -2.09, "cluster_size": 17, "cluster_id": 4, "rank_in_cluster": 7}

>  <energy>  (40) 
-7.91

>  <cluster_rmsd>  (40) 
0.34

>  <cluster>  (40) 
5

$$$$

     RDKit          3D

 54 57  0  0  0  0  0  0  0  0999 V2000
  141.0330   73.6120  220.9380 O   0  0  0  0  0  0  0  0  0  0  0  0
  140.2580   73.5850  221.9280 C   0  0  0  0  0  0  0  0  0  0  0  0
  139.5110   74.7560  222.2800 N   0  0  0  0  0  0  0  0  0  0  0  0
  139.7080   75.9400  221.4360 C   0  0  0  0  0  0  0  0  0  0  0  0
  139.1390   77.0860  222.1480 C   0  0  0  0  0  0  0  0  0  0  0  0
  137.9870   76.9620  222.6440 O   0  0  0  0  0  0  0  0  0  0  0  0
  139.7800   78.3380  222.3310 N   0  0  0  0  0  0  0  0  0  0  0  0
  141.0080   78.4340  223.0900 C   0  0  0  0  0  0  0  0  0  0  0  0
  141.5720   79.8060  223.1530 C   0  0  0  0  0  0  0  0  0  0  0  0
  141.6240   80.4190  221.7990 C   0  0  0  0  0  0  0  0  0  0  0  0
  140.3420   80.3220  221.0280 C   0  0  0  0  0  0  0  0  0  0  0  0
  139.2610   79.5880  221.7770 C   0  0  2  0  0  0  0  0  0  0  0  0
  138.5910   80.3990  222.8180 C   0  0  0  0  0  0  0  0  0  0  0  0
  138.4870   80.0360  224.1400 C   0  0  0  0  0  0  0  0  0  0  0  0
  137.8410   80.8380  225.0860 C   0  0  0  0  0  0  0  0  0  0  0  0
  137.2760   82.0410  224.7230 C   0  0  0  0  0  0  0  0  0  0  0  0
  136.4740   83.0330  225.9080 Cl  0  0  0  0  0  0  0  0  0  0  0  0
  137.3790   82.4050  223.3970 C   0  0  0  0  0  0  0  0  0  0  0  0
  138.0250   81.6030  222.4530 C   0  0  0  0  0  0  0  0  0  0  0  0
  140.0730   72.3980  222.7590 C   0  0  0  0  0  0  0  0  0  0  0  0
  139.2700   71.3570  222.2840 C   0  0  0  0  0  0  0  0  0  0  0  0
  139.0700   70.2210  223.0360 C   0  0  0  0  0  0  0  0  0  0  0  0
  139.6790   70.1230  224.2800 C   0  0  0  0  0  0  0  0  0  0  0  0
  139.4960   68.9850  225.0660 C   0  0  0  0  0  0  0  0  0  0  0  0
  140.1210   68.9300  226.2970 C   0  0  0  0  0  0  0  0  0  0  0  0
  139.9460   67.7340  227.1530 C   0  0  0  0  0  0  0  0  0  0  0  0
  141.0760   66.9270  226.9810 F   0  0  0  0  0  0  0  0  0  0  0  0
  139.8920   68.0630  228.4740 F   0  0  0  0  0  0  0  0  0  0  0  0
  138.8680   66.9910  226.7300 F   0  0  0  0  0  0  0  0  0  0  0  0
  140.9190   69.9800  226.7540 C   0  0  0  0  0  0  0  0  0  0  0  0
  141.0980   71.1130  225.9650 C   0  0  0  0  0  0  0  0  0  0  0  0
  140.4650   71.1530  224.7340 C   0  0  0  0  0  0  0  0  0  0  0  0
  140.6490   72.2680  223.9720 N   0  0  0  0  0  0  0  0  0  0  0  0
  138.8620   74.7570  223.0970 H   0  0  0  0  0  0  0  0  0  0  0  0
  140.7818   76.1020  221.2605 H   0  0  0  0  0  0  0  0  0  0  0  0
  139.2176   75.8070  220.4604 H   0  0  0  0  0  0  0  0  0  0  0  0
  140.8075   78.0947  224.1170 H   0  0  0  0  0  0  0  0  0  0  0  0
  141.7509   77.8073  222.5749 H   0  0  0  0  0  0  0  0  0  0  0  0
  140.9397   80.4261  223.8054 H   0  0  0  0  0  0  0  0  0  0  0  0
  142.5950   79.7483  223.5531 H   0  0  0  0  0  0  0  0  0  0  0  0
  141.8782   81.4832  221.9122 H   0  0  0  0  0  0  0  0  0  0  0  0
  142.3781   79.8576  221.2279 H   0  0  0  0  0  0  0  0  0  0  0  0
  139.9872   81.3396  220.8077 H   0  0  0  0  0  0  0  0  0  0  0  0
  140.5515   79.7534  220.1099 H   0  0  0  0  0  0  0  0  0  0  0  0
  138.4783   79.3600  221.0385 H   0  0  0  0  0  0  0  0  0  0  0  0
  138.9272   79.0817  224.4648 H   0  0  0  0  0  0  0  0  0  0  0  0
  137.7832   80.5044  226.1326 H   0  0  0  0  0  0  0  0  0  0  0  0
  136.9378   83.3587  223.0717 H   0  0  0  0  0  0  0  0  0  0  0  0
  138.0830   81.9355  221.4061 H   0  0  0  0  0  0  0  0  0  0  0  0
  138.7920   71.4465  221.2973 H   0  0  0  0  0  0  0  0  0  0  0  0
  138.4379   69.4042  222.6573 H   0  0  0  0  0  0  0  0  0  0  0  0
  138.8695   68.1520  224.7143 H   0  0  0  0  0  0  0  0  0  0  0  0
  141.4066   69.9123  227.7377 H   0  0  0  0  0  0  0  0  0  0  0  0
  141.7229   71.9505  226.3088 H   0  0  0  0  0  0  0  0  0  0  0  0
  1  2  2  0
  2  3  1  0
  3  4  1  0
  4  5  1  0
  5  6  2  0
  5  7  1  0
  7  8  1  0
  8  9  1  0
  9 10  1  0
 10 11  1  0
 11 12  1  0
 12 13  1  0
 13 14  2  0
 14 15  1  0
 15 16  2  0
 16 17  1  0
 16 18  1  0
 18 19  2  0
  2 20  1  0
 20 21  2  0
 21 22  1  0
 22 23  2  0
 23 24  1  0
 24 25  2  0
 25 26  1  0
 26 27  1  0
 26 28  1  0
 26 29  1  0
 25 30  1  0
 30 31  2  0
 31 32  1  0
 32 33  2  0
 12  7  1  0
 19 13  1  0
 33 20  1  0
 32 23  1  0
  3 34  1  0
  4 35  1  0
  4 36  1  0
  8 37  1  0
  8 38  1  0
  9 39  1  0
  9 40  1  0
 10 41  1  0
 10 42  1  0
 11 43  1  0
 11 44  1  0
 12 45  1  6
 14 46  1  0
 15 47  1  0
 18 48  1  0
 19 49  1  0
 21 50  1  0
 22 51  1  0
 24 52  1  0
 30 53  1  0
 31 54  1  0
M  END
>  <smiles>  (41) 
O=C(NCC(=O)N1CCCCC1c1ccc(Cl)cc1)c1ccc2cc(C(F)(F)F)ccc2n1

>  <score_type>  (41) 
oracle

>  <origin>  (41) 
autodockgpu

>  <m_score__min__energy>  (41) 
-8.5999999999999996

>  <m_primary>  (41) 
energy

>  <rmsd>  (41) 
3.7779280169700336

>  <m_score__min__rmsd>  (41) 
3.7779280169700336

>  <meeko>  (41) 
{"free_energy": -8.26, "intermolecular_energy": -10.05, "internal_energy": -1.72, "cluster_size": 5, "cluster_id": 2, "rank_in_cluster": 2}

>  <energy>  (41) 
-7.87

>  <cluster_rmsd>  (41) 
1.26

>  <cluster>  (41) 
5

$$$$

     RDKit          3D

 54 57  0  0  0  0  0  0  0  0999 V2000
  137.9730   73.3400  220.7660 O   0  0  0  0  0  0  0  0  0  0  0  0
  137.9060   74.1510  221.7260 C   0  0  0  0  0  0  0  0  0  0  0  0
  136.8840   73.9960  222.7180 N   0  0  0  0  0  0  0  0  0  0  0  0
  135.9600   72.8700  222.5410 C   0  0  0  0  0  0  0  0  0  0  0  0
  136.4720   71.7530  223.3380 C   0  0  0  0  0  0  0  0  0  0  0  0
  135.7990   71.3800  224.3360 O   0  0  0  0  0  0  0  0  0  0  0  0
  137.6730   71.0450  223.0790 N   0  0  0  0  0  0  0  0  0  0  0  0
  137.6540   69.8090  222.3280 C   0  0  0  0  0  0  0  0  0  0  0  0
  138.9980   69.2160  222.1090 C   0  0  0  0  0  0  0  0  0  0  0  0
  139.9520   70.2400  221.6050 C   0  0  0  0  0  0  0  0  0  0  0  0
  139.9690   71.5110  222.3990 C   0  0  0  0  0  0  0  0  0  0  0  0
  138.9830   71.5040  223.5380 C   0  0  2  0  0  0  0  0  0  0  0  0
  139.4350   70.7410  224.7230 C   0  0  0  0  0  0  0  0  0  0  0  0
  138.7550   69.6790  225.2700 C   0  0  0  0  0  0  0  0  0  0  0  0
  139.2230   68.9900  226.3940 C   0  0  0  0  0  0  0  0  0  0  0  0
  140.4040   69.3560  227.0030 C   0  0  0  0  0  0  0  0  0  0  0  0
  140.9790   68.4920  228.4000 Cl  0  0  0  0  0  0  0  0  0  0  0  0
  141.0870   70.4210  226.4550 C   0  0  0  0  0  0  0  0  0  0  0  0
  140.6170   71.1080  225.3330 C   0  0  0  0  0  0  0  0  0  0  0  0
  138.8330   75.2670  221.8880 C   0  0  0  0  0  0  0  0  0  0  0  0
  140.1570   75.1150  221.4660 C   0  0  0  0  0  0  0  0  0  0  0  0
  141.0630   76.1440  221.6010 C   0  0  0  0  0  0  0  0  0  0  0  0
  140.6420   77.3400  222.1660 C   0  0  0  0  0  0  0  0  0  0  0  0
  141.5350   78.4000  222.3160 C   0  0  0  0  0  0  0  0  0  0  0  0
  141.0740   79.5720  222.8830 C   0  0  0  0  0  0  0  0  0  0  0  0
  142.0000   80.7150  223.0560 C   0  0  0  0  0  0  0  0  0  0  0  0
  143.2900   80.1910  223.1940 F   0  0  0  0  0  0  0  0  0  0  0  0
  142.0170   81.5220  221.9580 F   0  0  0  0  0  0  0  0  0  0  0  0
  141.7250   81.3870  224.2240 F   0  0  0  0  0  0  0  0  0  0  0  0
  139.7480   79.7050  223.3000 C   0  0  0  0  0  0  0  0  0  0  0  0
  138.8600   78.6430  223.1470 C   0  0  0  0  0  0  0  0  0  0  0  0
  139.3390   77.4750  222.5770 C   0  0  0  0  0  0  0  0  0  0  0  0
  138.4590   76.4440  222.4320 N   0  0  0  0  0  0  0  0  0  0  0  0
  136.8080   74.6560  223.5230 H   0  0  0  0  0  0  0  0  0  0  0  0
  134.9548   73.1504  222.8889 H   0  0  0  0  0  0  0  0  0  0  0  0
  135.8891   72.5892  221.4798 H   0  0  0  0  0  0  0  0  0  0  0  0
  137.0393   69.0801  222.8765 H   0  0  0  0  0  0  0  0  0  0  0  0
  137.2442   70.0455  221.3350 H   0  0  0  0  0  0  0  0  0  0  0  0
  139.3730   68.8113  223.0607 H   0  0  0  0  0  0  0  0  0  0  0  0
  138.9120   68.4154  221.3596 H   0  0  0  0  0  0  0  0  0  0  0  0
  140.9634   69.8079  221.6248 H   0  0  0  0  0  0  0  0  0  0  0  0
  139.6208   70.5068  220.5905 H   0  0  0  0  0  0  0  0  0  0  0  0
  140.9791   71.6545  222.8101 H   0  0  0  0  0  0  0  0  0  0  0  0
  139.6834   72.3281  221.7202 H   0  0  0  0  0  0  0  0  0  0  0  0
  138.9023   72.5468  223.8786 H   0  0  0  0  0  0  0  0  0  0  0  0
  137.8094   69.3596  224.8076 H   0  0  0  0  0  0  0  0  0  0  0  0
  138.6421   68.1469  226.7961 H   0  0  0  0  0  0  0  0  0  0  0  0
  142.0331   70.7403  226.9164 H   0  0  0  0  0  0  0  0  0  0  0  0
  141.1965   71.9521  224.9308 H   0  0  0  0  0  0  0  0  0  0  0  0
  140.4793   74.1622  221.0207 H   0  0  0  0  0  0  0  0  0  0  0  0
  142.1035   76.0198  221.2664 H   0  0  0  0  0  0  0  0  0  0  0  0
  142.5815   78.3052  221.9906 H   0  0  0  0  0  0  0  0  0  0  0  0
  139.4048   80.6486  223.7493 H   0  0  0  0  0  0  0  0  0  0  0  0
  137.8116   78.7291  223.4686 H   0  0  0  0  0  0  0  0  0  0  0  0
  1  2  2  0
  2  3  1  0
  3  4  1  0
  4  5  1  0
  5  6  2  0
  5  7  1  0
  7  8  1  0
  8  9  1  0
  9 10  1  0
 10 11  1  0
 11 12  1  0
 12 13  1  0
 13 14  2  0
 14 15  1  0
 15 16  2  0
 16 17  1  0
 16 18  1  0
 18 19  2  0
  2 20  1  0
 20 21  2  0
 21 22  1  0
 22 23  2  0
 23 24  1  0
 24 25  2  0
 25 26  1  0
 26 27  1  0
 26 28  1  0
 26 29  1  0
 25 30  1  0
 30 31  2  0
 31 32  1  0
 32 33  2  0
 12  7  1  0
 19 13  1  0
 33 20  1  0
 32 23  1  0
  3 34  1  0
  4 35  1  0
  4 36  1  0
  8 37  1  0
  8 38  1  0
  9 39  1  0
  9 40  1  0
 10 41  1  0
 10 42  1  0
 11 43  1  0
 11 44  1  0
 12 45  1  1
 14 46  1  0
 15 47  1  0
 18 48  1  0
 19 49  1  0
 21 50  1  0
 22 51  1  0
 24 52  1  0
 30 53  1  0
 31 54  1  0
M  END
>  <smiles>  (42) 
O=C(NCC(=O)N1CCCCC1c1ccc(Cl)cc1)c1ccc2cc(C(F)(F)F)ccc2n1

>  <score_type>  (42) 
oracle

>  <origin>  (42) 
autodockgpu

>  <m_score__min__energy>  (42) 
-8.5999999999999996

>  <m_primary>  (42) 
energy

>  <rmsd>  (42) 
7.290880804999769

>  <m_score__min__rmsd>  (42) 
7.290880804999769

>  <meeko>  (42) 
{"free_energy": -8.04, "intermolecular_energy": -9.83, "internal_energy": -2.14, "cluster_size": 17, "cluster_id": 4, "rank_in_cluster": 3}

>  <energy>  (42) 
-7.83

>  <cluster_rmsd>  (42) 
1.42

>  <cluster>  (42) 
5

$$$$

     RDKit          3D

 54 57  0  0  0  0  0  0  0  0999 V2000
  141.0500   73.7460  220.9780 O   0  0  0  0  0  0  0  0  0  0  0  0
  140.2300   73.6560  221.9280 C   0  0  0  0  0  0  0  0  0  0  0  0
  139.4480   74.7960  222.3040 N   0  0  0  0  0  0  0  0  0  0  0  0
  139.6620   76.0250  221.5300 C   0  0  0  0  0  0  0  0  0  0  0  0
  139.1380   77.1400  222.3220 C   0  0  0  0  0  0  0  0  0  0  0  0
  138.0650   76.9590  222.9590 O   0  0  0  0  0  0  0  0  0  0  0  0
  139.7390   78.4180  222.4380 N   0  0  0  0  0  0  0  0  0  0  0  0
  140.9850   78.5860  223.1540 C   0  0  0  0  0  0  0  0  0  0  0  0
  141.5020   79.9780  223.1470 C   0  0  0  0  0  0  0  0  0  0  0  0
  141.4930   80.5380  221.7690 C   0  0  0  0  0  0  0  0  0  0  0  0
  140.1930   80.3670  221.0420 C   0  0  0  0  0  0  0  0  0  0  0  0
  139.1610   79.6270  221.8530 C   0  0  2  0  0  0  0  0  0  0  0  0
  138.4940   80.4550  222.8820 C   0  0  0  0  0  0  0  0  0  0  0  0
  138.3540   80.0940  224.2010 C   0  0  0  0  0  0  0  0  0  0  0  0
  137.7120   80.9130  225.1360 C   0  0  0  0  0  0  0  0  0  0  0  0
  137.1890   82.1320  224.7630 C   0  0  0  0  0  0  0  0  0  0  0  0
  136.3920   83.1440  225.9340 Cl  0  0  0  0  0  0  0  0  0  0  0  0
  137.3280   82.4950  223.4400 C   0  0  0  0  0  0  0  0  0  0  0  0
  137.9690   81.6750  222.5080 C   0  0  0  0  0  0  0  0  0  0  0  0
  140.0280   72.4260  222.6880 C   0  0  0  0  0  0  0  0  0  0  0  0
  139.3030   71.3820  222.1080 C   0  0  0  0  0  0  0  0  0  0  0  0
  139.0900   70.2050  222.7910 C   0  0  0  0  0  0  0  0  0  0  0  0
  139.6080   70.0690  224.0710 C   0  0  0  0  0  0  0  0  0  0  0  0
  139.4090   68.8900  224.7890 C   0  0  0  0  0  0  0  0  0  0  0  0
  139.9420   68.7970  226.0600 C   0  0  0  0  0  0  0  0  0  0  0  0
  139.7480   67.5570  226.8460 C   0  0  0  0  0  0  0  0  0  0  0  0
  140.7210   66.6410  226.4290 F   0  0  0  0  0  0  0  0  0  0  0  0
  139.9470   67.7660  228.1770 F   0  0  0  0  0  0  0  0  0  0  0  0
  138.5290   66.9880  226.5570 F   0  0  0  0  0  0  0  0  0  0  0  0
  140.6640   69.8510  226.6240 C   0  0  0  0  0  0  0  0  0  0  0  0
  140.8590   71.0250  225.9020 C   0  0  0  0  0  0  0  0  0  0  0  0
  140.3180   71.1020  224.6300 C   0  0  0  0  0  0  0  0  0  0  0  0
  140.5170   72.2580  223.9350 N   0  0  0  0  0  0  0  0  0  0  0  0
  138.7620   74.7460  223.0880 H   0  0  0  0  0  0  0  0  0  0  0  0
  140.7364   76.1691  221.3432 H   0  0  0  0  0  0  0  0  0  0  0  0
  139.1500   75.9653  220.5582 H   0  0  0  0  0  0  0  0  0  0  0  0
  140.8275   78.2807  224.1990 H   0  0  0  0  0  0  0  0  0  0  0  0
  141.7339   77.9655  222.6400 H   0  0  0  0  0  0  0  0  0  0  0  0
  140.8674   80.6016  223.7938 H   0  0  0  0  0  0  0  0  0  0  0  0
  142.5375   79.9713  223.5181 H   0  0  0  0  0  0  0  0  0  0  0  0
  141.7130   81.6139  221.8329 H   0  0  0  0  0  0  0  0  0  0  0  0
  142.2493   79.9802  221.1973 H   0  0  0  0  0  0  0  0  0  0  0  0
  139.7963   81.3624  220.7932 H   0  0  0  0  0  0  0  0  0  0  0  0
  140.3948   79.7699  220.1405 H   0  0  0  0  0  0  0  0  0  0  0  0
  138.3652   79.3439  221.1484 H   0  0  0  0  0  0  0  0  0  0  0  0
  138.7610   79.1274  224.5329 H   0  0  0  0  0  0  0  0  0  0  0  0
  137.6237   80.5801  226.1807 H   0  0  0  0  0  0  0  0  0  0  0  0
  136.9211   83.4614  223.1077 H   0  0  0  0  0  0  0  0  0  0  0  0
  138.0562   82.0062  221.4627 H   0  0  0  0  0  0  0  0  0  0  0  0
  138.8970   71.5016  221.0927 H   0  0  0  0  0  0  0  0  0  0  0  0
  138.5186   69.3863  222.3293 H   0  0  0  0  0  0  0  0  0  0  0  0
  138.8413   68.0544  224.3537 H   0  0  0  0  0  0  0  0  0  0  0  0
  141.0784   69.7535  227.6383 H   0  0  0  0  0  0  0  0  0  0  0  0
  141.4255   71.8657  226.3290 H   0  0  0  0  0  0  0  0  0  0  0  0
  1  2  2  0
  2  3  1  0
  3  4  1  0
  4  5  1  0
  5  6  2  0
  5  7  1  0
  7  8  1  0
  8  9  1  0
  9 10  1  0
 10 11  1  0
 11 12  1  0
 12 13  1  0
 13 14  2  0
 14 15  1  0
 15 16  2  0
 16 17  1  0
 16 18  1  0
 18 19  2  0
  2 20  1  0
 20 21  2  0
 21 22  1  0
 22 23  2  0
 23 24  1  0
 24 25  2  0
 25 26  1  0
 26 27  1  0
 26 28  1  0
 26 29  1  0
 25 30  1  0
 30 31  2  0
 31 32  1  0
 32 33  2  0
 12  7  1  0
 19 13  1  0
 33 20  1  0
 32 23  1  0
  3 34  1  0
  4 35  1  0
  4 36  1  0
  8 37  1  0
  8 38  1  0
  9 39  1  0
  9 40  1  0
 10 41  1  0
 10 42  1  0
 11 43  1  0
 11 44  1  0
 12 45  1  6
 14 46  1  0
 15 47  1  0
 18 48  1  0
 19 49  1  0
 21 50  1  0
 22 51  1  0
 24 52  1  0
 30 53  1  0
 31 54  1  0
M  END
>  <smiles>  (43) 
O=C(NCC(=O)N1CCCCC1c1ccc(Cl)cc1)c1ccc2cc(C(F)(F)F)ccc2n1

>  <score_type>  (43) 
oracle

>  <origin>  (43) 
autodockgpu

>  <m_score__min__energy>  (43) 
-8.5999999999999996

>  <m_primary>  (43) 
energy

>  <rmsd>  (43) 
3.863094491848376

>  <m_score__min__rmsd>  (43) 
3.863094491848376

>  <meeko>  (43) 
{"free_energy": -8.09, "intermolecular_energy": -9.88, "internal_energy": -1.86, "cluster_size": 5, "cluster_id": 2, "rank_in_cluster": 4}

>  <energy>  (43) 
-7.82

>  <cluster_rmsd>  (43) 
0.94

>  <cluster>  (43) 
5

$$$$

     RDKit          3D

 54 57  0  0  0  0  0  0  0  0999 V2000
  138.6780   72.7040  220.5840 O   0  0  0  0  0  0  0  0  0  0  0  0
  139.5860   72.7590  221.4530 C   0  0  0  0  0  0  0  0  0  0  0  0
  140.6860   73.6600  221.2780 N   0  0  0  0  0  0  0  0  0  0  0  0
  140.6760   74.4820  220.0620 C   0  0  0  0  0  0  0  0  0  0  0  0
  141.8370   75.3720  220.1250 C   0  0  0  0  0  0  0  0  0  0  0  0
  142.8860   74.9390  220.6740 O   0  0  0  0  0  0  0  0  0  0  0  0
  141.8850   76.6940  219.6150 N   0  0  0  0  0  0  0  0  0  0  0  0
  142.9980   77.1310  218.8000 C   0  0  0  0  0  0  0  0  0  0  0  0
  142.8750   78.5270  218.3110 C   0  0  0  0  0  0  0  0  0  0  0  0
  141.5330   78.7630  217.7140 C   0  0  0  0  0  0  0  0  0  0  0  0
  140.3900   78.3160  218.5730 C   0  0  0  0  0  0  0  0  0  0  0  0
  140.8380   77.6830  219.8650 C   0  0  2  0  0  0  0  0  0  0  0  0
  141.2540   78.6550  220.9000 C   0  0  0  0  0  0  0  0  0  0  0  0
  141.4440   79.9980  220.6760 C   0  0  0  0  0  0  0  0  0  0  0  0
  141.8400   80.8770  221.6890 C   0  0  0  0  0  0  0  0  0  0  0  0
  142.0570   80.4220  222.9720 C   0  0  0  0  0  0  0  0  0  0  0  0
  142.5500   81.5230  224.2260 Cl  0  0  0  0  0  0  0  0  0  0  0  0
  141.8680   79.0750  223.1980 C   0  0  0  0  0  0  0  0  0  0  0  0
  141.4720   78.1990  222.1840 C   0  0  0  0  0  0  0  0  0  0  0  0
  139.5810   71.9340  222.6580 C   0  0  0  0  0  0  0  0  0  0  0  0
  138.7940   70.7790  222.6870 C   0  0  0  0  0  0  0  0  0  0  0  0
  138.7620   69.9750  223.8040 C   0  0  0  0  0  0  0  0  0  0  0  0
  139.5240   70.3280  224.9080 C   0  0  0  0  0  0  0  0  0  0  0  0
  139.5130   69.5340  226.0550 C   0  0  0  0  0  0  0  0  0  0  0  0
  140.2870   69.9230  227.1310 C   0  0  0  0  0  0  0  0  0  0  0  0
  140.2950   69.1000  228.3620 C   0  0  0  0  0  0  0  0  0  0  0  0
  140.1500   67.7640  227.9720 F   0  0  0  0  0  0  0  0  0  0  0  0
  141.4820   69.1920  229.0230 F   0  0  0  0  0  0  0  0  0  0  0  0
  139.2060   69.3970  229.1480 F   0  0  0  0  0  0  0  0  0  0  0  0
  141.0660   71.0810  227.0850 C   0  0  0  0  0  0  0  0  0  0  0  0
  141.0740   71.8690  225.9370 C   0  0  0  0  0  0  0  0  0  0  0  0
  140.2920   71.4650  224.8670 C   0  0  0  0  0  0  0  0  0  0  0  0
  140.3100   72.2460  223.7510 N   0  0  0  0  0  0  0  0  0  0  0  0
  141.4510   73.7220  221.9850 H   0  0  0  0  0  0  0  0  0  0  0  0
  140.7436   73.8383  219.1726 H   0  0  0  0  0  0  0  0  0  0  0  0
  139.7446   75.0632  219.9940 H   0  0  0  0  0  0  0  0  0  0  0  0
  143.9172   77.0539  219.3993 H   0  0  0  0  0  0  0  0  0  0  0  0
  143.0167   76.4825  217.9117 H   0  0  0  0  0  0  0  0  0  0  0  0
  143.0209   79.2183  219.1541 H   0  0  0  0  0  0  0  0  0  0  0  0
  143.6389   78.6977  217.5382 H   0  0  0  0  0  0  0  0  0  0  0  0
  141.4233   79.8416  217.5281 H   0  0  0  0  0  0  0  0  0  0  0  0
  141.4880   78.1642  216.7924 H   0  0  0  0  0  0  0  0  0  0  0  0
  139.7657   79.1904  218.8089 H   0  0  0  0  0  0  0  0  0  0  0  0
  139.8323   77.5540  218.0088 H   0  0  0  0  0  0  0  0  0  0  0  0
  139.9539   77.1773  220.2804 H   0  0  0  0  0  0  0  0  0  0  0  0
  141.2786   80.3954  219.6637 H   0  0  0  0  0  0  0  0  0  0  0  0
  141.9799   81.9436  221.4594 H   0  0  0  0  0  0  0  0  0  0  0  0
  142.0344   78.6769  224.2098 H   0  0  0  0  0  0  0  0  0  0  0  0
  141.3322   77.1321  222.4123 H   0  0  0  0  0  0  0  0  0  0  0  0
  138.1928   70.5092  221.8062 H   0  0  0  0  0  0  0  0  0  0  0  0
  138.1417   69.0667  223.8208 H   0  0  0  0  0  0  0  0  0  0  0  0
  138.9026   68.6201  226.1015 H   0  0  0  0  0  0  0  0  0  0  0  0
  141.6731   71.3706  227.9554 H   0  0  0  0  0  0  0  0  0  0  0  0
  141.6823   72.7838  225.8813 H   0  0  0  0  0  0  0  0  0  0  0  0
  1  2  2  0
  2  3  1  0
  3  4  1  0
  4  5  1  0
  5  6  2  0
  5  7  1  0
  7  8  1  0
  8  9  1  0
  9 10  1  0
 10 11  1  0
 11 12  1  0
 12 13  1  0
 13 14  2  0
 14 15  1  0
 15 16  2  0
 16 17  1  0
 16 18  1  0
 18 19  2  0
  2 20  1  0
 20 21  2  0
 21 22  1  0
 22 23  2  0
 23 24  1  0
 24 25  2  0
 25 26  1  0
 26 27  1  0
 26 28  1  0
 26 29  1  0
 25 30  1  0
 30 31  2  0
 31 32  1  0
 32 33  2  0
 12  7  1  0
 19 13  1  0
 33 20  1  0
 32 23  1  0
  3 34  1  0
  4 35  1  0
  4 36  1  0
  8 37  1  0
  8 38  1  0
  9 39  1  0
  9 40  1  0
 10 41  1  0
 10 42  1  0
 11 43  1  0
 11 44  1  0
 12 45  1  1
 14 46  1  0
 15 47  1  0
 18 48  1  0
 19 49  1  0
 21 50  1  0
 22 51  1  0
 24 52  1  0
 30 53  1  0
 31 54  1  0
M  END
>  <smiles>  (44) 
O=C(NCC(=O)N1CCCCC1c1ccc(Cl)cc1)c1ccc2cc(C(F)(F)F)ccc2n1

>  <score_type>  (44) 
oracle

>  <origin>  (44) 
autodockgpu

>  <m_score__min__energy>  (44) 
-8.5999999999999996

>  <m_primary>  (44) 
energy

>  <rmsd>  (44) 
2.5087501552850844

>  <m_score__min__rmsd>  (44) 
2.5087501552850844

>  <meeko>  (44) 
{"free_energy": -8.0, "intermolecular_energy": -9.79, "internal_energy": -2.1, "cluster_size": 6, "cluster_id": 5, "rank_in_cluster": 1}

>  <energy>  (44) 
-7.57

>  <cluster_rmsd>  (44) 
0.0

>  <cluster>  (44) 
6

$$$$

     RDKit          3D

 54 57  0  0  0  0  0  0  0  0999 V2000
  138.1140   73.5930  220.2870 O   0  0  0  0  0  0  0  0  0  0  0  0
  138.1210   74.3020  221.3260 C   0  0  0  0  0  0  0  0  0  0  0  0
  137.1730   74.0470  222.3700 N   0  0  0  0  0  0  0  0  0  0  0  0
  136.2320   72.9420  222.1470 C   0  0  0  0  0  0  0  0  0  0  0  0
  136.8040   71.7470  222.7700 C   0  0  0  0  0  0  0  0  0  0  0  0
  136.0480   71.0320  223.4840 O   0  0  0  0  0  0  0  0  0  0  0  0
  138.1480   71.3170  222.6390 N   0  0  0  0  0  0  0  0  0  0  0  0
  138.5030   70.2830  221.6900 C   0  0  0  0  0  0  0  0  0  0  0  0
  139.9560   69.9790  221.6460 C   0  0  0  0  0  0  0  0  0  0  0  0
  140.7550   71.2290  221.5370 C   0  0  0  0  0  0  0  0  0  0  0  0
  140.3840   72.2860  222.5330 C   0  0  0  0  0  0  0  0  0  0  0  0
  139.2450   71.8750  223.4280 C   0  0  2  0  0  0  0  0  0  0  0  0
  139.6370   70.9610  224.5240 C   0  0  0  0  0  0  0  0  0  0  0  0
  138.9480   69.8240  224.8730 C   0  0  0  0  0  0  0  0  0  0  0  0
  139.3600   68.9920  225.9190 C   0  0  0  0  0  0  0  0  0  0  0  0
  140.4910   69.2860  226.6500 C   0  0  0  0  0  0  0  0  0  0  0  0
  140.9950   68.2450  227.9500 Cl  0  0  0  0  0  0  0  0  0  0  0  0
  141.1820   70.4270  226.3010 C   0  0  0  0  0  0  0  0  0  0  0  0
  140.7690   71.2560  225.2560 C   0  0  0  0  0  0  0  0  0  0  0  0
  139.0640   75.3980  221.5330 C   0  0  0  0  0  0  0  0  0  0  0  0
  140.3500   75.2970  220.9920 C   0  0  0  0  0  0  0  0  0  0  0  0
  141.2680   76.3080  221.1640 C   0  0  0  0  0  0  0  0  0  0  0  0
  140.9010   77.4350  221.8850 C   0  0  0  0  0  0  0  0  0  0  0  0
  141.8090   78.4760  222.0770 C   0  0  0  0  0  0  0  0  0  0  0  0
  141.4000   79.5790  222.8020 C   0  0  0  0  0  0  0  0  0  0  0  0
  142.3430   80.7000  223.0210 C   0  0  0  0  0  0  0  0  0  0  0  0
  142.0010   81.3010  224.2380 F   0  0  0  0  0  0  0  0  0  0  0  0
  143.6270   80.2630  223.1440 F   0  0  0  0  0  0  0  0  0  0  0  0
  142.1830   81.6620  222.0520 F   0  0  0  0  0  0  0  0  0  0  0  0
  140.1120   79.6620  223.3350 C   0  0  0  0  0  0  0  0  0  0  0  0
  139.2100   78.6190  223.1400 C   0  0  0  0  0  0  0  0  0  0  0  0
  139.6350   77.5210  222.4110 C   0  0  0  0  0  0  0  0  0  0  0  0
  138.7420   76.5080  222.2280 N   0  0  0  0  0  0  0  0  0  0  0  0
  137.1600   74.6220  223.2400 H   0  0  0  0  0  0  0  0  0  0  0  0
  135.2605   73.1770  222.6064 H   0  0  0  0  0  0  0  0  0  0  0  0
  136.0715   72.7799  221.0709 H   0  0  0  0  0  0  0  0  0  0  0  0
  137.9649   69.3632  221.9627 H   0  0  0  0  0  0  0  0  0  0  0  0
  138.2247   70.6556  220.6932 H   0  0  0  0  0  0  0  0  0  0  0  0
  140.2412   69.4480  222.5661 H   0  0  0  0  0  0  0  0  0  0  0  0
  140.1584   69.3536  220.7640 H   0  0  0  0  0  0  0  0  0  0  0  0
  141.8151   70.9743  221.6834 H   0  0  0  0  0  0  0  0  0  0  0  0
  140.5502   71.6484  220.5409 H   0  0  0  0  0  0  0  0  0  0  0  0
  141.2622   72.5015  223.1594 H   0  0  0  0  0  0  0  0  0  0  0  0
  140.0565   73.1711  221.9679 H   0  0  0  0  0  0  0  0  0  0  0  0
  138.9022   72.7940  223.9259 H   0  0  0  0  0  0  0  0  0  0  0  0
  138.0409   69.5592  224.3100 H   0  0  0  0  0  0  0  0  0  0  0  0
  138.7747   68.0926  226.1611 H   0  0  0  0  0  0  0  0  0  0  0  0
  142.0886   70.6930  226.8644 H   0  0  0  0  0  0  0  0  0  0  0  0
  141.3535   72.1557  225.0132 H   0  0  0  0  0  0  0  0  0  0  0  0
  140.6310   74.3989  220.4223 H   0  0  0  0  0  0  0  0  0  0  0  0
  142.2778   76.2236  220.7361 H   0  0  0  0  0  0  0  0  0  0  0  0
  142.8260   78.4204  221.6614 H   0  0  0  0  0  0  0  0  0  0  0  0
  139.8100   80.5507  223.9086 H   0  0  0  0  0  0  0  0  0  0  0  0
  138.1913   78.6659  223.5524 H   0  0  0  0  0  0  0  0  0  0  0  0
  1  2  2  0
  2  3  1  0
  3  4  1  0
  4  5  1  0
  5  6  2  0
  5  7  1  0
  7  8  1  0
  8  9  1  0
  9 10  1  0
 10 11  1  0
 11 12  1  0
 12 13  1  0
 13 14  2  0
 14 15  1  0
 15 16  2  0
 16 17  1  0
 16 18  1  0
 18 19  2  0
  2 20  1  0
 20 21  2  0
 21 22  1  0
 22 23  2  0
 23 24  1  0
 24 25  2  0
 25 26  1  0
 26 27  1  0
 26 28  1  0
 26 29  1  0
 25 30  1  0
 30 31  2  0
 31 32  1  0
 32 33  2  0
 12  7  1  0
 19 13  1  0
 33 20  1  0
 32 23  1  0
  3 34  1  0
  4 35  1  0
  4 36  1  0
  8 37  1  0
  8 38  1  0
  9 39  1  0
  9 40  1  0
 10 41  1  0
 10 42  1  0
 11 43  1  0
 11 44  1  0
 12 45  1  1
 14 46  1  0
 15 47  1  0
 18 48  1  0
 19 49  1  0
 21 50  1  0
 22 51  1  0
 24 52  1  0
 30 53  1  0
 31 54  1  0
M  END
>  <smiles>  (45) 
O=C(NCC(=O)N1CCCCC1c1ccc(Cl)cc1)c1ccc2cc(C(F)(F)F)ccc2n1

>  <score_type>  (45) 
oracle

>  <origin>  (45) 
autodockgpu

>  <m_score__min__energy>  (45) 
-8.5999999999999996

>  <m_primary>  (45) 
energy

>  <rmsd>  (45) 
7.11206810266678

>  <m_score__min__rmsd>  (45) 
7.11206810266678

>  <meeko>  (45) 
{"free_energy": -7.74, "intermolecular_energy": -9.53, "internal_energy": -2.29, "cluster_size": 17, "cluster_id": 4, "rank_in_cluster": 16}

>  <energy>  (45) 
-7.52

>  <cluster_rmsd>  (45) 
0.0

>  <cluster>  (45) 
7

$$$$

     RDKit          3D

 54 57  0  0  0  0  0  0  0  0999 V2000
  139.8880   73.6490  220.3250 O   0  0  0  0  0  0  0  0  0  0  0  0
  139.6440   73.7220  221.5570 C   0  0  0  0  0  0  0  0  0  0  0  0
  139.3670   74.9940  222.1550 N   0  0  0  0  0  0  0  0  0  0  0  0
  139.3870   76.1590  221.2610 C   0  0  0  0  0  0  0  0  0  0  0  0
  140.6840   76.8180  221.4300 C   0  0  0  0  0  0  0  0  0  0  0  0
  141.6820   76.3190  220.8440 O   0  0  0  0  0  0  0  0  0  0  0  0
  140.9170   77.9830  222.2030 N   0  0  0  0  0  0  0  0  0  0  0  0
  141.6160   77.9030  223.4670 C   0  0  0  0  0  0  0  0  0  0  0  0
  141.8150   79.2170  224.1300 C   0  0  0  0  0  0  0  0  0  0  0  0
  142.3640   80.2150  223.1740 C   0  0  0  0  0  0  0  0  0  0  0  0
  141.6240   80.2950  221.8730 C   0  0  0  0  0  0  0  0  0  0  0  0
  140.4820   79.3160  221.7860 C   0  0  2  0  0  0  0  0  0  0  0  0
  139.2680   79.7390  222.5200 C   0  0  0  0  0  0  0  0  0  0  0  0
  138.1980   78.9200  222.7890 C   0  0  0  0  0  0  0  0  0  0  0  0
  137.0700   79.3680  223.4850 C   0  0  0  0  0  0  0  0  0  0  0  0
  136.9910   80.6680  223.9360 C   0  0  0  0  0  0  0  0  0  0  0  0
  135.5850   81.2160  224.8020 Cl  0  0  0  0  0  0  0  0  0  0  0  0
  138.0640   81.4900  223.6660 C   0  0  0  0  0  0  0  0  0  0  0  0
  139.1890   81.0400  222.9700 C   0  0  0  0  0  0  0  0  0  0  0  0
  139.6270   72.5530  222.4320 C   0  0  0  0  0  0  0  0  0  0  0  0
  138.8740   71.4360  222.0590 C   0  0  0  0  0  0  0  0  0  0  0  0
  138.8330   70.3140  222.8560 C   0  0  0  0  0  0  0  0  0  0  0  0
  139.5510   70.3070  224.0430 C   0  0  0  0  0  0  0  0  0  0  0  0
  139.5290   69.1860  224.8720 C   0  0  0  0  0  0  0  0  0  0  0  0
  140.2590   69.2210  226.0450 C   0  0  0  0  0  0  0  0  0  0  0  0
  140.2540   68.0460  226.9450 C   0  0  0  0  0  0  0  0  0  0  0  0
  141.4670   67.3720  226.7590 F   0  0  0  0  0  0  0  0  0  0  0  0
  140.2050   68.4140  228.2560 F   0  0  0  0  0  0  0  0  0  0  0  0
  139.2600   67.1660  226.5860 F   0  0  0  0  0  0  0  0  0  0  0  0
  141.0050   70.3460  226.4020 C   0  0  0  0  0  0  0  0  0  0  0  0
  141.0230   71.4620  225.5700 C   0  0  0  0  0  0  0  0  0  0  0  0
  140.2860   71.4100  224.3990 C   0  0  0  0  0  0  0  0  0  0  0  0
  140.3140   72.5100  223.5940 N   0  0  0  0  0  0  0  0  0  0  0  0
  139.1620   75.0790  223.1740 H   0  0  0  0  0  0  0  0  0  0  0  0
  139.2633   75.8343  220.2173 H   0  0  0  0  0  0  0  0  0  0  0  0
  138.5658   76.8494  221.5039 H   0  0  0  0  0  0  0  0  0  0  0  0
  141.0355   77.2584  224.1434 H   0  0  0  0  0  0  0  0  0  0  0  0
  142.6165   77.4991  223.2530 H   0  0  0  0  0  0  0  0  0  0  0  0
  140.8487   79.5778  224.5122 H   0  0  0  0  0  0  0  0  0  0  0  0
  142.5308   79.0898  224.9555 H   0  0  0  0  0  0  0  0  0  0  0  0
  142.3289   81.2052  223.6517 H   0  0  0  0  0  0  0  0  0  0  0  0
  143.3878   79.8918  222.9346 H   0  0  0  0  0  0  0  0  0  0  0  0
  141.2229   81.3130  221.7596 H   0  0  0  0  0  0  0  0  0  0  0  0
  142.3357   80.0435  221.0728 H   0  0  0  0  0  0  0  0  0  0  0  0
  140.1850   79.2853  220.7273 H   0  0  0  0  0  0  0  0  0  0  0  0
  138.2294   77.8756  222.4451 H   0  0  0  0  0  0  0  0  0  0  0  0
  136.2370   78.6750  223.6744 H   0  0  0  0  0  0  0  0  0  0  0  0
  138.0337   82.5345  224.0097 H   0  0  0  0  0  0  0  0  0  0  0  0
  140.0221   81.7324  222.7787 H   0  0  0  0  0  0  0  0  0  0  0  0
  138.3069   71.4536  221.1166 H   0  0  0  0  0  0  0  0  0  0  0  0
  138.2403   69.4371  222.5563 H   0  0  0  0  0  0  0  0  0  0  0  0
  138.9446   68.2950  224.5988 H   0  0  0  0  0  0  0  0  0  0  0  0
  141.5785   70.3505  227.3407 H   0  0  0  0  0  0  0  0  0  0  0  0
  141.6047   72.3573  225.8347 H   0  0  0  0  0  0  0  0  0  0  0  0
  1  2  2  0
  2  3  1  0
  3  4  1  0
  4  5  1  0
  5  6  2  0
  5  7  1  0
  7  8  1  0
  8  9  1  0
  9 10  1  0
 10 11  1  0
 11 12  1  0
 12 13  1  0
 13 14  2  0
 14 15  1  0
 15 16  2  0
 16 17  1  0
 16 18  1  0
 18 19  2  0
  2 20  1  0
 20 21  2  0
 21 22  1  0
 22 23  2  0
 23 24  1  0
 24 25  2  0
 25 26  1  0
 26 27  1  0
 26 28  1  0
 26 29  1  0
 25 30  1  0
 30 31  2  0
 31 32  1  0
 32 33  2  0
 12  7  1  0
 19 13  1  0
 33 20  1  0
 32 23  1  0
  3 34  1  0
  4 35  1  0
  4 36  1  0
  8 37  1  0
  8 38  1  0
  9 39  1  0
  9 40  1  0
 10 41  1  0
 10 42  1  0
 11 43  1  0
 11 44  1  0
 12 45  1  6
 14 46  1  0
 15 47  1  0
 18 48  1  0
 19 49  1  0
 21 50  1  0
 22 51  1  0
 24 52  1  0
 30 53  1  0
 31 54  1  0
M  END
>  <smiles>  (46) 
O=C(NCC(=O)N1CCCCC1c1ccc(Cl)cc1)c1ccc2cc(C(F)(F)F)ccc2n1

>  <score_type>  (46) 
oracle

>  <origin>  (46) 
autodockgpu

>  <m_score__min__energy>  (46) 
-8.5999999999999996

>  <m_primary>  (46) 
energy

>  <rmsd>  (46) 
3.8746824809677505

>  <m_score__min__rmsd>  (46) 
3.8746824809677505

>  <meeko>  (46) 
{"free_energy": -8.23, "intermolecular_energy": -10.02, "internal_energy": -1.6, "cluster_size": 5, "cluster_id": 2, "rank_in_cluster": 3}

>  <energy>  (46) 
-7.12

>  <cluster_rmsd>  (46) 
0.0

>  <cluster>  (46) 
8

$$$$

     RDKit          3D

 54 57  0  0  0  0  0  0  0  0999 V2000
  135.9170   75.5630  223.1080 O   0  0  0  0  0  0  0  0  0  0  0  0
  137.0690   75.2940  222.6790 C   0  0  0  0  0  0  0  0  0  0  0  0
  137.3430   73.9950  222.1400 N   0  0  0  0  0  0  0  0  0  0  0  0
  136.2280   73.0410  222.1250 C   0  0  0  0  0  0  0  0  0  0  0  0
  136.6880   71.8180  222.7870 C   0  0  0  0  0  0  0  0  0  0  0  0
  135.8810   71.2160  223.5450 O   0  0  0  0  0  0  0  0  0  0  0  0
  137.9770   71.2450  222.6450 N   0  0  0  0  0  0  0  0  0  0  0  0
  138.1800   70.0810  221.8100 C   0  0  0  0  0  0  0  0  0  0  0  0
  139.5930   69.6320  221.7360 C   0  0  0  0  0  0  0  0  0  0  0  0
  140.4980   70.7760  221.4440 C   0  0  0  0  0  0  0  0  0  0  0  0
  140.2840   71.9700  222.3230 C   0  0  0  0  0  0  0  0  0  0  0  0
  139.1640   71.7780  223.3120 C   0  0  2  0  0  0  0  0  0  0  0  0
  139.5320   70.9600  224.4890 C   0  0  0  0  0  0  0  0  0  0  0  0
  138.7970   69.8960  224.9570 C   0  0  0  0  0  0  0  0  0  0  0  0
  139.1870   69.1540  226.0770 C   0  0  0  0  0  0  0  0  0  0  0  0
  140.3410   69.4660  226.7630 C   0  0  0  0  0  0  0  0  0  0  0  0
  140.8170   68.5360  228.1550 Cl  0  0  0  0  0  0  0  0  0  0  0  0
  141.0770   70.5330  226.2950 C   0  0  0  0  0  0  0  0  0  0  0  0
  140.6860   71.2730  225.1760 C   0  0  0  0  0  0  0  0  0  0  0  0
  138.1680   76.2550  222.7010 C   0  0  0  0  0  0  0  0  0  0  0  0
  139.4470   75.8320  222.3280 C   0  0  0  0  0  0  0  0  0  0  0  0
  140.5100   76.7070  222.3340 C   0  0  0  0  0  0  0  0  0  0  0  0
  140.2940   78.0230  222.7200 C   0  0  0  0  0  0  0  0  0  0  0  0
  141.3500   78.9340  222.7380 C   0  0  0  0  0  0  0  0  0  0  0  0
  141.0910   80.2330  223.1280 C   0  0  0  0  0  0  0  0  0  0  0  0
  142.1930   81.2220  223.1560 C   0  0  0  0  0  0  0  0  0  0  0  0
  142.3330   81.6530  224.4810 F   0  0  0  0  0  0  0  0  0  0  0  0
  143.3820   80.6640  222.7950 F   0  0  0  0  0  0  0  0  0  0  0  0
  141.8630   82.3340  222.4170 F   0  0  0  0  0  0  0  0  0  0  0  0
  139.8070   80.6380  223.4980 C   0  0  0  0  0  0  0  0  0  0  0  0
  138.7560   79.7240  223.4780 C   0  0  0  0  0  0  0  0  0  0  0  0
  139.0340   78.4260  223.0850 C   0  0  0  0  0  0  0  0  0  0  0  0
  137.9950   77.5420  223.0700 N   0  0  0  0  0  0  0  0  0  0  0  0
  138.2910   73.7490  221.7790 H   0  0  0  0  0  0  0  0  0  0  0  0
  135.3672   73.4604  222.6664 H   0  0  0  0  0  0  0  0  0  0  0  0
  135.9129   72.8285  221.0927 H   0  0  0  0  0  0  0  0  0  0  0  0
  137.5751   69.2556  222.2136 H   0  0  0  0  0  0  0  0  0  0  0  0
  137.8814   70.3642  220.7899 H   0  0  0  0  0  0  0  0  0  0  0  0
  139.8792   69.1827  222.6984 H   0  0  0  0  0  0  0  0  0  0  0  0
  139.6857   68.8942  220.9254 H   0  0  0  0  0  0  0  0  0  0  0  0
  141.5362   70.4356  221.5718 H   0  0  0  0  0  0  0  0  0  0  0  0
  140.2777   71.0979  220.4155 H   0  0  0  0  0  0  0  0  0  0  0  0
  141.2126   72.1675  222.8786 H   0  0  0  0  0  0  0  0  0  0  0  0
  140.0084   72.8131  221.6724 H   0  0  0  0  0  0  0  0  0  0  0  0
  138.9360   72.7765  223.7132 H   0  0  0  0  0  0  0  0  0  0  0  0
  137.8706   69.6189  224.4326 H   0  0  0  0  0  0  0  0  0  0  0  0
  138.5653   68.3115  226.4142 H   0  0  0  0  0  0  0  0  0  0  0  0
  142.0029   70.8113  226.8197 H   0  0  0  0  0  0  0  0  0  0  0  0
  141.3068   72.1161  224.8387 H   0  0  0  0  0  0  0  0  0  0  0  0
  139.6063   74.7864  222.0257 H   0  0  0  0  0  0  0  0  0  0  0  0
  141.5140   76.3689  222.0378 H   0  0  0  0  0  0  0  0  0  0  0  0
  142.3652   78.6249  222.4484 H   0  0  0  0  0  0  0  0  0  0  0  0
  139.6255   81.6785  223.8052 H   0  0  0  0  0  0  0  0  0  0  0  0
  137.7375   80.0241  223.7653 H   0  0  0  0  0  0  0  0  0  0  0  0
  1  2  2  0
  2  3  1  0
  3  4  1  0
  4  5  1  0
  5  6  2  0
  5  7  1  0
  7  8  1  0
  8  9  1  0
  9 10  1  0
 10 11  1  0
 11 12  1  0
 12 13  1  0
 13 14  2  0
 14 15  1  0
 15 16  2  0
 16 17  1  0
 16 18  1  0
 18 19  2  0
  2 20  1  0
 20 21  2  0
 21 22  1  0
 22 23  2  0
 23 24  1  0
 24 25  2  0
 25 26  1  0
 26 27  1  0
 26 28  1  0
 26 29  1  0
 25 30  1  0
 30 31  2  0
 31 32  1  0
 32 33  2  0
 12  7  1  0
 19 13  1  0
 33 20  1  0
 32 23  1  0
  3 34  1  0
  4 35  1  0
  4 36  1  0
  8 37  1  0
  8 38  1  0
  9 39  1  0
  9 40  1  0
 10 41  1  0
 10 42  1  0
 11 43  1  0
 11 44  1  0
 12 45  1  1
 14 46  1  0
 15 47  1  0
 18 48  1  0
 19 49  1  0
 21 50  1  0
 22 51  1  0
 24 52  1  0
 30 53  1  0
 31 54  1  0
M  END
>  <smiles>  (47) 
O=C(NCC(=O)N1CCCCC1c1ccc(Cl)cc1)c1ccc2cc(C(F)(F)F)ccc2n1

>  <score_type>  (47) 
oracle

>  <origin>  (47) 
autodockgpu

>  <m_score__min__energy>  (47) 
-8.5999999999999996

>  <m_primary>  (47) 
energy

>  <rmsd>  (47) 
7.427865929312538

>  <m_score__min__rmsd>  (47) 
7.427865929312538

>  <meeko>  (47) 
{"free_energy": -7.69, "intermolecular_energy": -9.48, "internal_energy": -1.76, "cluster_size": 17, "cluster_id": 4, "rank_in_cluster": 17}

>  <energy>  (47) 
-7.1

>  <cluster_rmsd>  (47) 
0.41

>  <cluster>  (47) 
8

$$$$

     RDKit          3D

 54 57  0  0  0  0  0  0  0  0999 V2000
  141.8560   73.3550  221.0780 O   0  0  0  0  0  0  0  0  0  0  0  0
  141.0340   74.1690  221.5730 C   0  0  0  0  0  0  0  0  0  0  0  0
  139.9020   73.6820  222.3030 N   0  0  0  0  0  0  0  0  0  0  0  0
  139.7750   72.2240  222.4260 C   0  0  0  0  0  0  0  0  0  0  0  0
  138.3670   71.9280  222.6970 C   0  0  0  0  0  0  0  0  0  0  0  0
  137.5190   72.8360  222.4840 O   0  0  0  0  0  0  0  0  0  0  0  0
  137.8680   70.6930  223.1830 N   0  0  0  0  0  0  0  0  0  0  0  0
  136.5300   70.6000  223.7250 C   0  0  0  0  0  0  0  0  0  0  0  0
  136.1470   69.2300  224.1510 C   0  0  0  0  0  0  0  0  0  0  0  0
  136.4600   68.2380  223.0880 C   0  0  0  0  0  0  0  0  0  0  0  0
  137.8530   68.3390  222.5420 C   0  0  0  0  0  0  0  0  0  0  0  0
  138.6480   69.4560  223.1660 C   0  0  2  0  0  0  0  0  0  0  0  0
  139.1820   69.1400  224.5100 C   0  0  0  0  0  0  0  0  0  0  0  0
  139.2340   67.8770  225.0490 C   0  0  0  0  0  0  0  0  0  0  0  0
  139.7470   67.6300  226.3260 C   0  0  0  0  0  0  0  0  0  0  0  0
  140.2290   68.6610  227.1040 C   0  0  0  0  0  0  0  0  0  0  0  0
  140.8660   68.3430  228.6920 Cl  0  0  0  0  0  0  0  0  0  0  0  0
  140.1760   69.9280  226.5640 C   0  0  0  0  0  0  0  0  0  0  0  0
  139.6630   70.1730  225.2880 C   0  0  0  0  0  0  0  0  0  0  0  0
  141.1750   75.6160  221.4430 C   0  0  0  0  0  0  0  0  0  0  0  0
  141.9180   76.1320  220.3770 C   0  0  0  0  0  0  0  0  0  0  0  0
  142.0740   77.4910  220.2180 C   0  0  0  0  0  0  0  0  0  0  0  0
  141.4810   78.3470  221.1360 C   0  0  0  0  0  0  0  0  0  0  0  0
  141.6210   79.7280  221.0020 C   0  0  0  0  0  0  0  0  0  0  0  0
  141.0130   80.5430  221.9380 C   0  0  0  0  0  0  0  0  0  0  0  0
  141.1440   82.0140  221.8220 C   0  0  0  0  0  0  0  0  0  0  0  0
  141.9010   82.4540  222.9140 F   0  0  0  0  0  0  0  0  0  0  0  0
  141.8270   82.3730  220.6990 F   0  0  0  0  0  0  0  0  0  0  0  0
  139.9140   82.6190  221.9310 F   0  0  0  0  0  0  0  0  0  0  0  0
  140.2750   80.0100  222.9960 C   0  0  0  0  0  0  0  0  0  0  0  0
  140.1390   78.6300  223.1240 C   0  0  0  0  0  0  0  0  0  0  0  0
  140.7540   77.8270  222.1780 C   0  0  0  0  0  0  0  0  0  0  0  0
  140.6120   76.4790  222.3150 N   0  0  0  0  0  0  0  0  0  0  0  0
  139.2070   74.3380  222.7230 H   0  0  0  0  0  0  0  0  0  0  0  0
  140.0875   71.7391  221.4894 H   0  0  0  0  0  0  0  0  0  0  0  0
  140.4143   71.8457  223.2373 H   0  0  0  0  0  0  0  0  0  0  0  0
  136.4631   71.2656  224.5982 H   0  0  0  0  0  0  0  0  0  0  0  0
  135.8386   70.8888  222.9197 H   0  0  0  0  0  0  0  0  0  0  0  0
  136.7026   68.9678  225.0635 H   0  0  0  0  0  0  0  0  0  0  0  0
  135.0640   69.2108  224.3425 H   0  0  0  0  0  0  0  0  0  0  0  0
  136.3263   67.2298  223.5072 H   0  0  0  0  0  0  0  0  0  0  0  0
  135.7772   68.4464  222.2511 H   0  0  0  0  0  0  0  0  0  0  0  0
  138.3740   67.3890  222.7317 H   0  0  0  0  0  0  0  0  0  0  0  0
  137.7710   68.5534  221.4662 H   0  0  0  0  0  0  0  0  0  0  0  0
  139.5330   69.5940  222.5275 H   0  0  0  0  0  0  0  0  0  0  0  0
  138.8588   67.0306  224.4549 H   0  0  0  0  0  0  0  0  0  0  0  0
  139.7662   66.6010  226.7144 H   0  0  0  0  0  0  0  0  0  0  0  0
  140.5503   70.7749  227.1579 H   0  0  0  0  0  0  0  0  0  0  0  0
  139.6423   71.2017  224.8989 H   0  0  0  0  0  0  0  0  0  0  0  0
  142.3838   75.4439  219.6563 H   0  0  0  0  0  0  0  0  0  0  0  0
  142.6591   77.8918  219.3771 H   0  0  0  0  0  0  0  0  0  0  0  0
  142.2009   80.1579  220.1720 H   0  0  0  0  0  0  0  0  0  0  0  0
  139.8009   80.6798  223.7285 H   0  0  0  0  0  0  0  0  0  0  0  0
  139.5611   78.1914  223.9508 H   0  0  0  0  0  0  0  0  0  0  0  0
  1  2  2  0
  2  3  1  0
  3  4  1  0
  4  5  1  0
  5  6  2  0
  5  7  1  0
  7  8  1  0
  8  9  1  0
  9 10  1  0
 10 11  1  0
 11 12  1  0
 12 13  1  0
 13 14  2  0
 14 15  1  0
 15 16  2  0
 16 17  1  0
 16 18  1  0
 18 19  2  0
  2 20  1  0
 20 21  2  0
 21 22  1  0
 22 23  2  0
 23 24  1  0
 24 25  2  0
 25 26  1  0
 26 27  1  0
 26 28  1  0
 26 29  1  0
 25 30  1  0
 30 31  2  0
 31 32  1  0
 32 33  2  0
 12  7  1  0
 19 13  1  0
 33 20  1  0
 32 23  1  0
  3 34  1  0
  4 35  1  0
  4 36  1  0
  8 37  1  0
  8 38  1  0
  9 39  1  0
  9 40  1  0
 10 41  1  0
 10 42  1  0
 11 43  1  0
 11 44  1  0
 12 45  1  6
 14 46  1  0
 15 47  1  0
 18 48  1  0
 19 49  1  0
 21 50  1  0
 22 51  1  0
 24 52  1  0
 30 53  1  0
 31 54  1  0
M  END
>  <smiles>  (48) 
O=C(NCC(=O)N1CCCCC1c1ccc(Cl)cc1)c1ccc2cc(C(F)(F)F)ccc2n1

>  <score_type>  (48) 
oracle

>  <origin>  (48) 
autodockgpu

>  <m_score__min__energy>  (48) 
-8.5999999999999996

>  <m_primary>  (48) 
energy

>  <rmsd>  (48) 
8.482596221833074

>  <m_score__min__rmsd>  (48) 
8.482596221833074

>  <meeko>  (48) 
{"free_energy": -7.76, "intermolecular_energy": -9.55, "internal_energy": -2.19, "cluster_size": 17, "cluster_id": 4, "rank_in_cluster": 13}

>  <energy>  (48) 
-7.1

>  <cluster_rmsd>  (48) 
0.24

>  <cluster>  (48) 
8

$$$$

     RDKit          3D

 54 57  0  0  0  0  0  0  0  0999 V2000
  137.9520   73.3540  220.7240 O   0  0  0  0  0  0  0  0  0  0  0  0
  137.9090   74.1320  221.7120 C   0  0  0  0  0  0  0  0  0  0  0  0
  136.9100   73.9450  222.7210 N   0  0  0  0  0  0  0  0  0  0  0  0
  135.9800   72.8260  222.5280 C   0  0  0  0  0  0  0  0  0  0  0  0
  136.5000   71.6870  223.2860 C   0  0  0  0  0  0  0  0  0  0  0  0
  135.8000   71.2370  224.2340 O   0  0  0  0  0  0  0  0  0  0  0  0
  137.7360   71.0360  223.0430 N   0  0  0  0  0  0  0  0  0  0  0  0
  137.7900   69.8210  222.2600 C   0  0  0  0  0  0  0  0  0  0  0  0
  139.1630   69.2910  222.0640 C   0  0  0  0  0  0  0  0  0  0  0  0
  140.0870   70.3670  221.6140 C   0  0  0  0  0  0  0  0  0  0  0  0
  140.0280   71.6150  222.4410 C   0  0  0  0  0  0  0  0  0  0  0  0
  139.0130   71.5370  223.5510 C   0  0  2  0  0  0  0  0  0  0  0  0
  139.4640   70.7610  224.7280 C   0  0  0  0  0  0  0  0  0  0  0  0
  138.7980   69.6760  225.2460 C   0  0  0  0  0  0  0  0  0  0  0  0
  139.2650   68.9760  226.3640 C   0  0  0  0  0  0  0  0  0  0  0  0
  140.4300   69.3540  226.9950 C   0  0  0  0  0  0  0  0  0  0  0  0
  141.0040   68.4760  228.3840 Cl  0  0  0  0  0  0  0  0  0  0  0  0
  141.0990   70.4420  226.4760 C   0  0  0  0  0  0  0  0  0  0  0  0
  140.6300   71.1400  225.3600 C   0  0  0  0  0  0  0  0  0  0  0  0
  138.8430   75.2400  221.8900 C   0  0  0  0  0  0  0  0  0  0  0  0
  140.1730   75.0770  221.4930 C   0  0  0  0  0  0  0  0  0  0  0  0
  141.0840   76.0980  221.6430 C   0  0  0  0  0  0  0  0  0  0  0  0
  140.6630   77.2990  222.1990 C   0  0  0  0  0  0  0  0  0  0  0  0
  141.5620   78.3510  222.3650 C   0  0  0  0  0  0  0  0  0  0  0  0
  141.1000   79.5280  222.9220 C   0  0  0  0  0  0  0  0  0  0  0  0
  142.0310   80.6640  223.1110 C   0  0  0  0  0  0  0  0  0  0  0  0
  141.5680   81.4080  224.2020 F   0  0  0  0  0  0  0  0  0  0  0  0
  143.2870   80.2400  223.4260 F   0  0  0  0  0  0  0  0  0  0  0  0
  141.9950   81.5040  222.0230 F   0  0  0  0  0  0  0  0  0  0  0  0
  139.7670   79.6720  223.3130 C   0  0  0  0  0  0  0  0  0  0  0  0
  138.8740   78.6180  223.1450 C   0  0  0  0  0  0  0  0  0  0  0  0
  139.3540   77.4450  222.5850 C   0  0  0  0  0  0  0  0  0  0  0  0
  138.4680   76.4210  222.4260 N   0  0  0  0  0  0  0  0  0  0  0  0
  136.8550   74.5780  223.5500 H   0  0  0  0  0  0  0  0  0  0  0  0
  134.9811   73.0995  222.8987 H   0  0  0  0  0  0  0  0  0  0  0  0
  135.8926   72.5741  221.4608 H   0  0  0  0  0  0  0  0  0  0  0  0
  137.1921   69.0525  222.7718 H   0  0  0  0  0  0  0  0  0  0  0  0
  137.3977   70.0670  221.2622 H   0  0  0  0  0  0  0  0  0  0  0  0
  139.5285   68.8766  223.0151 H   0  0  0  0  0  0  0  0  0  0  0  0
  139.1313   68.5085  221.2916 H   0  0  0  0  0  0  0  0  0  0  0  0
  141.1148   69.9768  221.6517 H   0  0  0  0  0  0  0  0  0  0  0  0
  139.7736   70.6471  220.5975 H   0  0  0  0  0  0  0  0  0  0  0  0
  141.0196   71.7892  222.8841 H   0  0  0  0  0  0  0  0  0  0  0  0
  139.7259   72.4371  221.7755 H   0  0  0  0  0  0  0  0  0  0  0  0
  138.8796   72.5661  223.9160 H   0  0  0  0  0  0  0  0  0  0  0  0
  137.8653   69.3464  224.7649 H   0  0  0  0  0  0  0  0  0  0  0  0
  138.6958   68.1145  226.7432 H   0  0  0  0  0  0  0  0  0  0  0  0
  142.0323   70.7713  226.9560 H   0  0  0  0  0  0  0  0  0  0  0  0
  141.1977   72.0025  224.9808 H   0  0  0  0  0  0  0  0  0  0  0  0
  140.4959   74.1209  221.0552 H   0  0  0  0  0  0  0  0  0  0  0  0
  142.1293   75.9647  221.3274 H   0  0  0  0  0  0  0  0  0  0  0  0
  142.6137   78.2468  222.0600 H   0  0  0  0  0  0  0  0  0  0  0  0
  139.4228   80.6191  223.7540 H   0  0  0  0  0  0  0  0  0  0  0  0
  137.8206   78.7130  223.4472 H   0  0  0  0  0  0  0  0  0  0  0  0
  1  2  2  0
  2  3  1  0
  3  4  1  0
  4  5  1  0
  5  6  2  0
  5  7  1  0
  7  8  1  0
  8  9  1  0
  9 10  1  0
 10 11  1  0
 11 12  1  0
 12 13  1  0
 13 14  2  0
 14 15  1  0
 15 16  2  0
 16 17  1  0
 16 18  1  0
 18 19  2  0
  2 20  1  0
 20 21  2  0
 21 22  1  0
 22 23  2  0
 23 24  1  0
 24 25  2  0
 25 26  1  0
 26 27  1  0
 26 28  1  0
 26 29  1  0
 25 30  1  0
 30 31  2  0
 31 32  1  0
 32 33  2  0
 12  7  1  0
 19 13  1  0
 33 20  1  0
 32 23  1  0
  3 34  1  0
  4 35  1  0
  4 36  1  0
  8 37  1  0
  8 38  1  0
  9 39  1  0
  9 40  1  0
 10 41  1  0
 10 42  1  0
 11 43  1  0
 11 44  1  0
 12 45  1  1
 14 46  1  0
 15 47  1  0
 18 48  1  0
 19 49  1  0
 21 50  1  0
 22 51  1  0
 24 52  1  0
 30 53  1  0
 31 54  1  0
M  END
>  <smiles>  (49) 
O=C(NCC(=O)N1CCCCC1c1ccc(Cl)cc1)c1ccc2cc(C(F)(F)F)ccc2n1

>  <score_type>  (49) 
oracle

>  <origin>  (49) 
autodockgpu

>  <m_score__min__energy>  (49) 
-8.5999999999999996

>  <m_primary>  (49) 
energy

>  <rmsd>  (49) 
7.247927778535127

>  <m_score__min__rmsd>  (49) 
7.247927778535127

>  <meeko>  (49) 
{"free_energy": -8.02, "intermolecular_energy": -9.81, "internal_energy": -2.15, "cluster_size": 17, "cluster_id": 4, "rank_in_cluster": 4}

>  <energy>  (49) 
-7.08

>  <cluster_rmsd>  (49) 
0.34

>  <cluster>  (49) 
8

$$$$

     RDKit          3D

 54 57  0  0  0  0  0  0  0  0999 V2000
  134.2820   70.5880  226.4660 O   0  0  0  0  0  0  0  0  0  0  0  0
  134.1930   71.6990  225.8840 C   0  0  0  0  0  0  0  0  0  0  0  0
  134.8060   71.8820  224.6020 N   0  0  0  0  0  0  0  0  0  0  0  0
  135.5150   70.7260  224.0400 C   0  0  0  0  0  0  0  0  0  0  0  0
  136.4420   71.2300  223.0250 C   0  0  0  0  0  0  0  0  0  0  0  0
  136.0250   72.1160  222.2310 O   0  0  0  0  0  0  0  0  0  0  0  0
  137.7840   70.8050  222.8570 N   0  0  0  0  0  0  0  0  0  0  0  0
  138.0980   69.6670  222.0210 C   0  0  0  0  0  0  0  0  0  0  0  0
  139.5510   69.3790  221.9180 C   0  0  0  0  0  0  0  0  0  0  0  0
  140.3150   70.6150  221.6030 C   0  0  0  0  0  0  0  0  0  0  0  0
  139.9870   71.7830  222.4830 C   0  0  0  0  0  0  0  0  0  0  0  0
  138.9170   71.4720  223.4970 C   0  0  2  0  0  0  0  0  0  0  0  0
  139.4000   70.7060  224.6680 C   0  0  0  0  0  0  0  0  0  0  0  0
  138.7600   69.6120  225.1990 C   0  0  0  0  0  0  0  0  0  0  0  0
  139.2560   68.9220  226.3100 C   0  0  0  0  0  0  0  0  0  0  0  0
  140.4250   69.3200  226.9220 C   0  0  0  0  0  0  0  0  0  0  0  0
  141.0360   68.4550  228.3030 Cl  0  0  0  0  0  0  0  0  0  0  0  0
  141.0680   70.4170  226.3900 C   0  0  0  0  0  0  0  0  0  0  0  0
  140.5700   71.1050  225.2800 C   0  0  0  0  0  0  0  0  0  0  0  0
  133.4840   72.8400  226.4560 C   0  0  0  0  0  0  0  0  0  0  0  0
  132.2730   72.6230  227.1180 C   0  0  0  0  0  0  0  0  0  0  0  0
  131.5730   73.6720  227.6720 C   0  0  0  0  0  0  0  0  0  0  0  0
  132.0890   74.9560  227.5620 C   0  0  0  0  0  0  0  0  0  0  0  0
  131.4040   76.0390  228.1120 C   0  0  0  0  0  0  0  0  0  0  0  0
  131.9540   77.3000  227.9800 C   0  0  0  0  0  0  0  0  0  0  0  0
  131.2500   78.4690  228.5530 C   0  0  0  0  0  0  0  0  0  0  0  0
  130.6340   79.1470  227.4950 F   0  0  0  0  0  0  0  0  0  0  0  0
  130.2590   78.0920  229.4100 F   0  0  0  0  0  0  0  0  0  0  0  0
  132.1480   79.3490  229.1100 F   0  0  0  0  0  0  0  0  0  0  0  0
  133.1650   77.4970  227.3140 C   0  0  0  0  0  0  0  0  0  0  0  0
  133.8450   76.4120  226.7670 C   0  0  0  0  0  0  0  0  0  0  0  0
  133.2800   75.1550  226.9090 C   0  0  0  0  0  0  0  0  0  0  0  0
  133.9560   74.1020  226.3690 N   0  0  0  0  0  0  0  0  0  0  0  0
  134.7450   72.7950  224.1000 H   0  0  0  0  0  0  0  0  0  0  0  0
  136.0725   70.2055  224.8326 H   0  0  0  0  0  0  0  0  0  0  0  0
  134.8041   70.0134  223.5962 H   0  0  0  0  0  0  0  0  0  0  0  0
  137.5981   68.7811  222.4398 H   0  0  0  0  0  0  0  0  0  0  0  0
  137.7478   69.9095  221.0068 H   0  0  0  0  0  0  0  0  0  0  0  0
  139.9060   68.9702  222.8755 H   0  0  0  0  0  0  0  0  0  0  0  0
  139.7089   68.6517  221.1080 H   0  0  0  0  0  0  0  0  0  0  0  0
  141.3873   70.3938  221.7092 H   0  0  0  0  0  0  0  0  0  0  0  0
  140.0381   70.9044  220.5785 H   0  0  0  0  0  0  0  0  0  0  0  0
  140.8992   72.0866  223.0175 H   0  0  0  0  0  0  0  0  0  0  0  0
  139.6046   72.5862  221.8359 H   0  0  0  0  0  0  0  0  0  0  0  0
  138.5867   72.4405  223.9005 H   0  0  0  0  0  0  0  0  0  0  0  0
  137.8248   69.2668  224.7340 H   0  0  0  0  0  0  0  0  0  0  0  0
  138.7070   68.0521  226.6996 H   0  0  0  0  0  0  0  0  0  0  0  0
  142.0036   70.7622  226.8542 H   0  0  0  0  0  0  0  0  0  0  0  0
  141.1178   71.9754  224.8896 H   0  0  0  0  0  0  0  0  0  0  0  0
  131.8734   71.6013  227.1978 H   0  0  0  0  0  0  0  0  0  0  0  0
  130.6206   73.4951  228.1931 H   0  0  0  0  0  0  0  0  0  0  0  0
  130.4491   75.8932  228.6382 H   0  0  0  0  0  0  0  0  0  0  0  0
  133.5825   78.5105  227.2212 H   0  0  0  0  0  0  0  0  0  0  0  0
  134.8003   76.5485  226.2390 H   0  0  0  0  0  0  0  0  0  0  0  0
  1  2  2  0
  2  3  1  0
  3  4  1  0
  4  5  1  0
  5  6  2  0
  5  7  1  0
  7  8  1  0
  8  9  1  0
  9 10  1  0
 10 11  1  0
 11 12  1  0
 12 13  1  0
 13 14  2  0
 14 15  1  0
 15 16  2  0
 16 17  1  0
 16 18  1  0
 18 19  2  0
  2 20  1  0
 20 21  2  0
 21 22  1  0
 22 23  2  0
 23 24  1  0
 24 25  2  0
 25 26  1  0
 26 27  1  0
 26 28  1  0
 26 29  1  0
 25 30  1  0
 30 31  2  0
 31 32  1  0
 32 33  2  0
 12  7  1  0
 19 13  1  0
 33 20  1  0
 32 23  1  0
  3 34  1  0
  4 35  1  0
  4 36  1  0
  8 37  1  0
  8 38  1  0
  9 39  1  0
  9 40  1  0
 10 41  1  0
 10 42  1  0
 11 43  1  0
 11 44  1  0
 12 45  1  1
 14 46  1  0
 15 47  1  0
 18 48  1  0
 19 49  1  0
 21 50  1  0
 22 51  1  0
 24 52  1  0
 30 53  1  0
 31 54  1  0
M  END
>  <smiles>  (50) 
O=C(NCC(=O)N1CCCCC1c1ccc(Cl)cc1)c1ccc2cc(C(F)(F)F)ccc2n1

>  <score_type>  (50) 
oracle

>  <origin>  (50) 
autodockgpu

>  <m_score__min__energy>  (50) 
-8.5999999999999996

>  <m_primary>  (50) 
energy

>  <rmsd>  (50) 
7.917010682636391

>  <m_score__min__rmsd>  (50) 
7.917010682636391

>  <meeko>  (50) 
{"free_energy": -7.78, "intermolecular_energy": -9.57, "internal_energy": -2.04, "cluster_size": 5, "cluster_id": 3, "rank_in_cluster": 5}

>  <energy>  (50) 
-7.06

>  <cluster_rmsd>  (50) 
0.45

>  <cluster>  (50) 
8

$$$$

     RDKit          3D

 54 57  0  0  0  0  0  0  0  0999 V2000
  140.1390   75.3420  219.3320 O   0  0  0  0  0  0  0  0  0  0  0  0
  140.6480   75.0060  220.4480 C   0  0  0  0  0  0  0  0  0  0  0  0
  141.7490   75.7470  220.9980 N   0  0  0  0  0  0  0  0  0  0  0  0
  142.2090   76.8720  220.1870 C   0  0  0  0  0  0  0  0  0  0  0  0
  141.2580   78.0080  220.2680 C   0  0  0  0  0  0  0  0  0  0  0  0
  140.4740   78.3110  219.3130 O   0  0  0  0  0  0  0  0  0  0  0  0
  141.1950   78.7970  221.4240 N   0  0  0  0  0  0  0  0  0  0  0  0
  141.6330   80.1980  221.3240 C   0  0  0  0  0  0  0  0  0  0  0  0
  142.7260   80.4420  222.3500 C   0  0  0  0  0  0  0  0  0  0  0  0
  142.4140   79.7790  223.6650 C   0  0  0  0  0  0  0  0  0  0  0  0
  140.9490   79.3700  223.7470 C   0  0  0  0  0  0  0  0  0  0  0  0
  140.7230   78.3020  222.6990 C   0  0  1  0  0  0  0  0  0  0  0  0
  139.3180   77.8390  222.6800 C   0  0  0  0  0  0  0  0  0  0  0  0
  139.0910   76.4670  222.7090 C   0  0  0  0  0  0  0  0  0  0  0  0
  137.7990   76.0060  222.6930 C   0  0  0  0  0  0  0  0  0  0  0  0
  136.7530   76.8920  222.6490 C   0  0  0  0  0  0  0  0  0  0  0  0
  135.0920   76.2790  222.6290 Cl  0  0  0  0  0  0  0  0  0  0  0  0
  136.9680   78.2680  222.6200 C   0  0  0  0  0  0  0  0  0  0  0  0
  138.2650   78.7510  222.6360 C   0  0  0  0  0  0  0  0  0  0  0  0
  140.1060   73.8590  221.1780 C   0  0  0  0  0  0  0  0  0  0  0  0
  139.0120   73.2020  220.7010 C   0  0  0  0  0  0  0  0  0  0  0  0
  138.4300   72.1080  221.3220 C   0  0  0  0  0  0  0  0  0  0  0  0
  139.0220   71.6840  222.4940 C   0  0  0  0  0  0  0  0  0  0  0  0
  138.4960   70.6020  223.1640 C   0  0  0  0  0  0  0  0  0  0  0  0
  139.0530   70.1360  224.3420 C   0  0  0  0  0  0  0  0  0  0  0  0
  138.4980   68.9800  225.0660 C   0  0  0  0  0  0  0  0  0  0  0  0
  138.9870   68.9950  226.3560 F   0  0  0  0  0  0  0  0  0  0  0  0
  138.9420   67.8180  224.4550 F   0  0  0  0  0  0  0  0  0  0  0  0
  137.1240   68.9980  225.1310 F   0  0  0  0  0  0  0  0  0  0  0  0
  140.1700   70.8000  224.8350 C   0  0  0  0  0  0  0  0  0  0  0  0
  140.7030   71.8920  224.1630 C   0  0  0  0  0  0  0  0  0  0  0  0
  140.1410   72.3470  222.9890 C   0  0  0  0  0  0  0  0  0  0  0  0
  140.6640   73.4150  222.3330 N   0  0  0  0  0  0  0  0  0  0  0  0
  142.1910   75.5000  221.9120 H   0  0  0  0  0  0  0  0  0  0  0  0
  143.1935   77.2000  220.5518 H   0  0  0  0  0  0  0  0  0  0  0  0
  142.2766   76.5448  219.1390 H   0  0  0  0  0  0  0  0  0  0  0  0
  142.0234   80.3924  220.3142 H   0  0  0  0  0  0  0  0  0  0  0  0
  140.7835   80.8703  221.5149 H   0  0  0  0  0  0  0  0  0  0  0  0
  143.6738   80.0390  221.9637 H   0  0  0  0  0  0  0  0  0  0  0  0
  142.7991   81.5261  222.5216 H   0  0  0  0  0  0  0  0  0  0  0  0
  143.0424   78.8825  223.7719 H   0  0  0  0  0  0  0  0  0  0  0  0
  142.6187   80.4975  224.4723 H   0  0  0  0  0  0  0  0  0  0  0  0
  140.7248   78.9702  224.7469 H   0  0  0  0  0  0  0  0  0  0  0  0
  140.2919   80.2345  223.5714 H   0  0  0  0  0  0  0  0  0  0  0  0
  141.3041   77.4013  222.9460 H   0  0  0  0  0  0  0  0  0  0  0  0
  139.9348   75.7622  222.7442 H   0  0  0  0  0  0  0  0  0  0  0  0
  137.6017   74.9241  222.7155 H   0  0  0  0  0  0  0  0  0  0  0  0
  136.1162   78.9632  222.5848 H   0  0  0  0  0  0  0  0  0  0  0  0
  138.4608   79.8332  222.6144 H   0  0  0  0  0  0  0  0  0  0  0  0
  138.5622   73.5624  219.7641 H   0  0  0  0  0  0  0  0  0  0  0  0
  137.5453   71.6057  220.9037 H   0  0  0  0  0  0  0  0  0  0  0  0
  137.6107   70.0953  222.7524 H   0  0  0  0  0  0  0  0  0  0  0  0
  140.6377   70.4561  225.7693 H   0  0  0  0  0  0  0  0  0  0  0  0
  141.5871   72.4018  224.5735 H   0  0  0  0  0  0  0  0  0  0  0  0
  1  2  2  0
  2  3  1  0
  3  4  1  0
  4  5  1  0
  5  6  2  0
  5  7  1  0
  7  8  1  0
  8  9  1  0
  9 10  1  0
 10 11  1  0
 11 12  1  0
 12 13  1  0
 13 14  2  0
 14 15  1  0
 15 16  2  0
 16 17  1  0
 16 18  1  0
 18 19  2  0
  2 20  1  0
 20 21  2  0
 21 22  1  0
 22 23  2  0
 23 24  1  0
 24 25  2  0
 25 26  1  0
 26 27  1  0
 26 28  1  0
 26 29  1  0
 25 30  1  0
 30 31  2  0
 31 32  1  0
 32 33  2  0
 12  7  1  0
 19 13  1  0
 33 20  1  0
 32 23  1  0
  3 34  1  0
  4 35  1  0
  4 36  1  0
  8 37  1  0
  8 38  1  0
  9 39  1  0
  9 40  1  0
 10 41  1  0
 10 42  1  0
 11 43  1  0
 11 44  1  0
 12 45  1  1
 14 46  1  0
 15 47  1  0
 18 48  1  0
 19 49  1  0
 21 50  1  0
 22 51  1  0
 24 52  1  0
 30 53  1  0
 31 54  1  0
M  END
>  <smiles>  (51) 
O=C(NCC(=O)N1CCCCC1c1ccc(Cl)cc1)c1ccc2cc(C(F)(F)F)ccc2n1

>  <score_type>  (51) 
oracle

>  <origin>  (51) 
autodockgpu

>  <m_score__min__energy>  (51) 
-8.3300000000000001

>  <m_primary>  (51) 
energy

>  <rmsd>  (51) 
5.018237119817815

>  <m_score__min__rmsd>  (51) 
5.018237119817815

>  <meeko>  (51) 
{"free_energy": -7.13, "intermolecular_energy": -8.92, "internal_energy": -2.52, "cluster_size": 15, "cluster_id": 6, "rank_in_cluster": 5}

>  <energy>  (51) 
-8.33

>  <cluster_rmsd>  (51) 
0.0

>  <cluster>  (51) 
1

$$$$

     RDKit          3D

 54 57  0  0  0  0  0  0  0  0999 V2000
  140.3440   75.4170  219.1010 O   0  0  0  0  0  0  0  0  0  0  0  0
  140.7070   75.1840  220.2970 C   0  0  0  0  0  0  0  0  0  0  0  0
  141.7070   76.0030  220.9260 N   0  0  0  0  0  0  0  0  0  0  0  0
  142.2420   77.0790  220.0960 C   0  0  0  0  0  0  0  0  0  0  0  0
  141.4150   78.3050  220.2180 C   0  0  0  0  0  0  0  0  0  0  0  0
  140.7550   78.7830  219.2420 O   0  0  0  0  0  0  0  0  0  0  0  0
  141.3360   78.9860  221.4410 N   0  0  0  0  0  0  0  0  0  0  0  0
  141.7760   80.3890  221.4750 C   0  0  0  0  0  0  0  0  0  0  0  0
  142.8550   80.5370  222.5340 C   0  0  0  0  0  0  0  0  0  0  0  0
  142.5240   79.7580  223.7790 C   0  0  0  0  0  0  0  0  0  0  0  0
  141.0570   79.3460  223.8020 C   0  0  0  0  0  0  0  0  0  0  0  0
  140.8460   78.3780  222.6580 C   0  0  1  0  0  0  0  0  0  0  0  0
  139.4410   77.9220  222.5780 C   0  0  0  0  0  0  0  0  0  0  0  0
  139.1960   76.5600  222.7200 C   0  0  0  0  0  0  0  0  0  0  0  0
  137.9040   76.1040  222.6500 C   0  0  0  0  0  0  0  0  0  0  0  0
  136.8740   76.9870  222.4430 C   0  0  0  0  0  0  0  0  0  0  0  0
  135.2130   76.3820  222.3560 Cl  0  0  0  0  0  0  0  0  0  0  0  0
  137.1060   78.3520  222.2990 C   0  0  0  0  0  0  0  0  0  0  0  0
  138.4040   78.8290  222.3670 C   0  0  0  0  0  0  0  0  0  0  0  0
  140.1020   74.0770  221.0370 C   0  0  0  0  0  0  0  0  0  0  0  0
  138.9190   73.5440  220.6230 C   0  0  0  0  0  0  0  0  0  0  0  0
  138.2720   72.4960  221.2590 C   0  0  0  0  0  0  0  0  0  0  0  0
  138.8930   71.9840  222.3790 C   0  0  0  0  0  0  0  0  0  0  0  0
  138.3070   70.9410  223.0610 C   0  0  0  0  0  0  0  0  0  0  0  0
  138.8900   70.3910  224.1880 C   0  0  0  0  0  0  0  0  0  0  0  0
  138.2700   69.2760  224.9250 C   0  0  0  0  0  0  0  0  0  0  0  0
  138.5050   68.1070  224.2300 F   0  0  0  0  0  0  0  0  0  0  0  0
  136.9000   69.4790  224.9660 F   0  0  0  0  0  0  0  0  0  0  0  0
  138.7750   69.1260  226.1950 F   0  0  0  0  0  0  0  0  0  0  0  0
  140.0970   70.9280  224.6180 C   0  0  0  0  0  0  0  0  0  0  0  0
  140.6930   71.9800  223.9350 C   0  0  0  0  0  0  0  0  0  0  0  0
  140.1030   72.5200  222.8110 C   0  0  0  0  0  0  0  0  0  0  0  0
  140.6870   73.5480  222.1430 N   0  0  0  0  0  0  0  0  0  0  0  0
  142.0280   75.8410  221.9060 H   0  0  0  0  0  0  0  0  0  0  0  0
  143.2695   77.3046  220.4175 H   0  0  0  0  0  0  0  0  0  0  0  0
  142.2304   76.7511  219.0461 H   0  0  0  0  0  0  0  0  0  0  0  0
  142.1805   80.6737  220.4925 H   0  0  0  0  0  0  0  0  0  0  0  0
  140.9243   81.0426  221.7147 H   0  0  0  0  0  0  0  0  0  0  0  0
  143.8078   80.1688  222.1259 H   0  0  0  0  0  0  0  0  0  0  0  0
  142.9266   81.6009  222.8041 H   0  0  0  0  0  0  0  0  0  0  0  0
  143.1503   78.8544  223.8132 H   0  0  0  0  0  0  0  0  0  0  0  0
  142.7177   80.3996  224.6512 H   0  0  0  0  0  0  0  0  0  0  0  0
  140.8177   78.8575  224.7581 H   0  0  0  0  0  0  0  0  0  0  0  0
  140.4031   80.2242  223.6961 H   0  0  0  0  0  0  0  0  0  0  0  0
  141.4233   77.4574  222.8292 H   0  0  0  0  0  0  0  0  0  0  0  0
  140.0267   75.8584  222.8861 H   0  0  0  0  0  0  0  0  0  0  0  0
  137.6935   75.0299  222.7598 H   0  0  0  0  0  0  0  0  0  0  0  0
  136.2673   79.0441  222.1330 H   0  0  0  0  0  0  0  0  0  0  0  0
  138.6128   79.9033  222.2566 H   0  0  0  0  0  0  0  0  0  0  0  0
  138.4468   73.9725  219.7267 H   0  0  0  0  0  0  0  0  0  0  0  0
  137.3162   72.0949  220.8908 H   0  0  0  0  0  0  0  0  0  0  0  0
  137.3506   70.5349  222.7001 H   0  0  0  0  0  0  0  0  0  0  0  0
  140.5872   70.5143  225.5116 H   0  0  0  0  0  0  0  0  0  0  0  0
  141.6488   72.3884  224.2952 H   0  0  0  0  0  0  0  0  0  0  0  0
  1  2  2  0
  2  3  1  0
  3  4  1  0
  4  5  1  0
  5  6  2  0
  5  7  1  0
  7  8  1  0
  8  9  1  0
  9 10  1  0
 10 11  1  0
 11 12  1  0
 12 13  1  0
 13 14  2  0
 14 15  1  0
 15 16  2  0
 16 17  1  0
 16 18  1  0
 18 19  2  0
  2 20  1  0
 20 21  2  0
 21 22  1  0
 22 23  2  0
 23 24  1  0
 24 25  2  0
 25 26  1  0
 26 27  1  0
 26 28  1  0
 26 29  1  0
 25 30  1  0
 30 31  2  0
 31 32  1  0
 32 33  2  0
 12  7  1  0
 19 13  1  0
 33 20  1  0
 32 23  1  0
  3 34  1  0
  4 35  1  0
  4 36  1  0
  8 37  1  0
  8 38  1  0
  9 39  1  0
  9 40  1  0
 10 41  1  0
 10 42  1  0
 11 43  1  0
 11 44  1  0
 12 45  1  1
 14 46  1  0
 15 47  1  0
 18 48  1  0
 19 49  1  0
 21 50  1  0
 22 51  1  0
 24 52  1  0
 30 53  1  0
 31 54  1  0
M  END
>  <smiles>  (52) 
O=C(NCC(=O)N1CCCCC1c1ccc(Cl)cc1)c1ccc2cc(C(F)(F)F)ccc2n1

>  <score_type>  (52) 
oracle

>  <origin>  (52) 
autodockgpu

>  <m_score__min__energy>  (52) 
-8.3300000000000001

>  <m_primary>  (52) 
energy

>  <rmsd>  (52) 
5.226470367068518

>  <m_score__min__rmsd>  (52) 
5.226470367068518

>  <meeko>  (52) 
{"free_energy": -6.92, "intermolecular_energy": -8.71, "internal_energy": -2.56, "cluster_size": 15, "cluster_id": 6, "rank_in_cluster": 12}

>  <energy>  (52) 
-8.27

>  <cluster_rmsd>  (52) 
0.3

>  <cluster>  (52) 
1

$$$$

     RDKit          3D

 54 57  0  0  0  0  0  0  0  0999 V2000
  133.2340   69.6630  226.5990 O   0  0  0  0  0  0  0  0  0  0  0  0
  133.8160   70.7550  226.3040 C   0  0  0  0  0  0  0  0  0  0  0  0
  135.0830   70.7430  225.6280 N   0  0  0  0  0  0  0  0  0  0  0  0
  135.6160   69.4170  225.3260 C   0  0  0  0  0  0  0  0  0  0  0  0
  136.1660   69.3670  223.9480 C   0  0  0  0  0  0  0  0  0  0  0  0
  135.7710   68.5190  223.0860 O   0  0  0  0  0  0  0  0  0  0  0  0
  137.1580   70.2730  223.5500 N   0  0  0  0  0  0  0  0  0  0  0  0
  136.7370   71.6320  223.1780 C   0  0  0  0  0  0  0  0  0  0  0  0
  137.2240   71.9260  221.7690 C   0  0  0  0  0  0  0  0  0  0  0  0
  138.6240   71.4170  221.5470 C   0  0  0  0  0  0  0  0  0  0  0  0
  139.3130   71.0920  222.8660 C   0  0  0  0  0  0  0  0  0  0  0  0
  138.5630   69.9350  223.4890 C   0  0  1  0  0  0  0  0  0  0  0  0
  139.1430   69.5430  224.7920 C   0  0  0  0  0  0  0  0  0  0  0  0
  139.1600   68.1890  225.1100 C   0  0  0  0  0  0  0  0  0  0  0  0
  139.6920   67.7930  226.3110 C   0  0  0  0  0  0  0  0  0  0  0  0
  140.1970   68.7260  227.1800 C   0  0  0  0  0  0  0  0  0  0  0  0
  140.8790   68.1980  228.7260 Cl  0  0  0  0  0  0  0  0  0  0  0  0
  140.1850   70.0850  226.8740 C   0  0  0  0  0  0  0  0  0  0  0  0
  139.6540   70.5020  225.6660 C   0  0  0  0  0  0  0  0  0  0  0  0
  133.1890   72.0290  226.6550 C   0  0  0  0  0  0  0  0  0  0  0  0
  131.9460   72.0480  227.2120 C   0  0  0  0  0  0  0  0  0  0  0  0
  131.2750   73.2060  227.5760 C   0  0  0  0  0  0  0  0  0  0  0  0
  131.9370   74.3940  227.3460 C   0  0  0  0  0  0  0  0  0  0  0  0
  131.3290   75.5830  227.6850 C   0  0  0  0  0  0  0  0  0  0  0  0
  131.9500   76.8010  227.4760 C   0  0  0  0  0  0  0  0  0  0  0  0
  131.3080   78.0770  227.8330 C   0  0  0  0  0  0  0  0  0  0  0  0
  130.3350   77.8290  228.7800 F   0  0  0  0  0  0  0  0  0  0  0  0
  130.6840   78.5920  226.7070 F   0  0  0  0  0  0  0  0  0  0  0  0
  132.1900   78.9930  228.3580 F   0  0  0  0  0  0  0  0  0  0  0  0
  133.2180   76.7910  226.9080 C   0  0  0  0  0  0  0  0  0  0  0  0
  133.8350   75.5950  226.5650 C   0  0  0  0  0  0  0  0  0  0  0  0
  133.2070   74.3860  226.7790 C   0  0  0  0  0  0  0  0  0  0  0  0
  133.8120   73.2170  226.4430 N   0  0  0  0  0  0  0  0  0  0  0  0
  135.5890   71.6200  225.3700 H   0  0  0  0  0  0  0  0  0  0  0  0
  136.4166   69.1793  226.0419 H   0  0  0  0  0  0  0  0  0  0  0  0
  134.7993   68.6843  225.4047 H   0  0  0  0  0  0  0  0  0  0  0  0
  135.6397   71.7017  223.2122 H   0  0  0  0  0  0  0  0  0  0  0  0
  137.1643   72.3618  223.8814 H   0  0  0  0  0  0  0  0  0  0  0  0
  136.5492   71.4391  221.0495 H   0  0  0  0  0  0  0  0  0  0  0  0
  137.2289   73.0169  221.6281 H   0  0  0  0  0  0  0  0  0  0  0  0
  138.5803   70.5060  220.9321 H   0  0  0  0  0  0  0  0  0  0  0  0
  139.2017   72.2034  221.0392 H   0  0  0  0  0  0  0  0  0  0  0  0
  140.3602   70.8083  222.6844 H   0  0  0  0  0  0  0  0  0  0  0  0
  139.3088   71.9655  223.5345 H   0  0  0  0  0  0  0  0  0  0  0  0
  138.6654   69.0366  222.8626 H   0  0  0  0  0  0  0  0  0  0  0  0
  138.7526   67.4462  224.4084 H   0  0  0  0  0  0  0  0  0  0  0  0
  139.7135   66.7259  226.5772 H   0  0  0  0  0  0  0  0  0  0  0  0
  140.5931   70.8186  227.5848 H   0  0  0  0  0  0  0  0  0  0  0  0
  139.6354   71.5693  225.4003 H   0  0  0  0  0  0  0  0  0  0  0  0
  131.4431   71.0849  227.3838 H   0  0  0  0  0  0  0  0  0  0  0  0
  130.2705   73.1785  228.0234 H   0  0  0  0  0  0  0  0  0  0  0  0
  130.3246   75.5631  228.1331 H   0  0  0  0  0  0  0  0  0  0  0  0
  133.7398   77.7424  226.7277 H   0  0  0  0  0  0  0  0  0  0  0  0
  134.8391   75.6123  226.1162 H   0  0  0  0  0  0  0  0  0  0  0  0
  1  2  2  0
  2  3  1  0
  3  4  1  0
  4  5  1  0
  5  6  2  0
  5  7  1  0
  7  8  1  0
  8  9  1  0
  9 10  1  0
 10 11  1  0
 11 12  1  0
 12 13  1  0
 13 14  2  0
 14 15  1  0
 15 16  2  0
 16 17  1  0
 16 18  1  0
 18 19  2  0
  2 20  1  0
 20 21  2  0
 21 22  1  0
 22 23  2  0
 23 24  1  0
 24 25  2  0
 25 26  1  0
 26 27  1  0
 26 28  1  0
 26 29  1  0
 25 30  1  0
 30 31  2  0
 31 32  1  0
 32 33  2  0
 12  7  1  0
 19 13  1  0
 33 20  1  0
 32 23  1  0
  3 34  1  0
  4 35  1  0
  4 36  1  0
  8 37  1  0
  8 38  1  0
  9 39  1  0
  9 40  1  0
 10 41  1  0
 10 42  1  0
 11 43  1  0
 11 44  1  0
 12 45  1  6
 14 46  1  0
 15 47  1  0
 18 48  1  0
 19 49  1  0
 21 50  1  0
 22 51  1  0
 24 52  1  0
 30 53  1  0
 31 54  1  0
M  END
>  <smiles>  (53) 
O=C(NCC(=O)N1CCCCC1c1ccc(Cl)cc1)c1ccc2cc(C(F)(F)F)ccc2n1

>  <score_type>  (53) 
oracle

>  <origin>  (53) 
autodockgpu

>  <m_score__min__energy>  (53) 
-8.3300000000000001

>  <m_primary>  (53) 
energy

>  <rmsd>  (53) 
8.185379253946545

>  <m_score__min__rmsd>  (53) 
8.185379253946545

>  <meeko>  (53) 
{"free_energy": -8.17, "intermolecular_energy": -9.96, "internal_energy": -1.78, "cluster_size": 6, "cluster_id": 1, "rank_in_cluster": 5}

>  <energy>  (53) 
-8.21

>  <cluster_rmsd>  (53) 
0.34

>  <cluster>  (53) 
1

$$$$

     RDKit          3D

 54 57  0  0  0  0  0  0  0  0999 V2000
  140.8580   73.1970  220.5480 O   0  0  0  0  0  0  0  0  0  0  0  0
  140.1850   73.3540  221.6150 C   0  0  0  0  0  0  0  0  0  0  0  0
  139.5670   74.6180  221.9070 N   0  0  0  0  0  0  0  0  0  0  0  0
  139.7790   75.6600  220.9040 C   0  0  0  0  0  0  0  0  0  0  0  0
  140.5950   76.7700  221.4570 C   0  0  0  0  0  0  0  0  0  0  0  0
  140.6070   77.0560  222.6960 O   0  0  0  0  0  0  0  0  0  0  0  0
  141.3920   77.5510  220.6100 N   0  0  0  0  0  0  0  0  0  0  0  0
  141.8690   78.8470  221.1180 C   0  0  0  0  0  0  0  0  0  0  0  0
  141.4250   79.9390  220.1610 C   0  0  0  0  0  0  0  0  0  0  0  0
  141.5840   79.5200  218.7240 C   0  0  0  0  0  0  0  0  0  0  0  0
  142.4810   78.2950  218.5990 C   0  0  0  0  0  0  0  0  0  0  0  0
  141.7640   77.1450  219.2730 C   0  0  1  0  0  0  0  0  0  0  0  0
  142.5590   75.8990  219.2230 C   0  0  0  0  0  0  0  0  0  0  0  0
  143.6360   75.7840  220.0960 C   0  0  0  0  0  0  0  0  0  0  0  0
  144.3920   74.6390  220.0740 C   0  0  0  0  0  0  0  0  0  0  0  0
  144.0830   73.6280  219.2000 C   0  0  0  0  0  0  0  0  0  0  0  0
  145.0700   72.1580  219.1850 Cl  0  0  0  0  0  0  0  0  0  0  0  0
  143.0080   73.7310  218.3210 C   0  0  0  0  0  0  0  0  0  0  0  0
  142.2340   74.8780  218.3300 C   0  0  0  0  0  0  0  0  0  0  0  0
  140.0370   72.2390  222.5510 C   0  0  0  0  0  0  0  0  0  0  0  0
  139.2750   71.1620  222.2140 C   0  0  0  0  0  0  0  0  0  0  0  0
  139.0780   70.0610  223.0350 C   0  0  0  0  0  0  0  0  0  0  0  0
  139.7070   70.0930  224.2610 C   0  0  0  0  0  0  0  0  0  0  0  0
  139.5560   69.0330  225.1270 C   0  0  0  0  0  0  0  0  0  0  0  0
  140.1670   69.0150  226.3680 C   0  0  0  0  0  0  0  0  0  0  0  0
  140.0100   67.8860  227.3010 C   0  0  0  0  0  0  0  0  0  0  0  0
  141.1260   67.0810  227.2070 F   0  0  0  0  0  0  0  0  0  0  0  0
  138.9100   67.1370  226.9110 F   0  0  0  0  0  0  0  0  0  0  0  0
  139.8820   68.2870  228.6100 F   0  0  0  0  0  0  0  0  0  0  0  0
  140.9470   70.1100  226.7190 C   0  0  0  0  0  0  0  0  0  0  0  0
  141.1030   71.1820  225.8510 C   0  0  0  0  0  0  0  0  0  0  0  0
  140.4890   71.1890  224.6150 C   0  0  0  0  0  0  0  0  0  0  0  0
  140.6430   72.2370  223.7660 N   0  0  0  0  0  0  0  0  0  0  0  0
  139.0070   74.7830  222.7730 H   0  0  0  0  0  0  0  0  0  0  0  0
  140.3010   75.2259  220.0386 H   0  0  0  0  0  0  0  0  0  0  0  0
  138.8003   76.0605  220.6013 H   0  0  0  0  0  0  0  0  0  0  0  0
  141.4431   79.0331  222.1150 H   0  0  0  0  0  0  0  0  0  0  0  0
  142.9664   78.8387  221.1936 H   0  0  0  0  0  0  0  0  0  0  0  0
  140.3661   80.1693  220.3499 H   0  0  0  0  0  0  0  0  0  0  0  0
  142.0578   80.8223  220.3321 H   0  0  0  0  0  0  0  0  0  0  0  0
  140.5935   79.2824  218.3087 H   0  0  0  0  0  0  0  0  0  0  0  0
  142.0502   80.3487  218.1709 H   0  0  0  0  0  0  0  0  0  0  0  0
  142.6542   78.0613  217.5382 H   0  0  0  0  0  0  0  0  0  0  0  0
  143.4580   78.4765  219.0708 H   0  0  0  0  0  0  0  0  0  0  0  0
  140.8403   76.9024  218.7272 H   0  0  0  0  0  0  0  0  0  0  0  0
  143.8781   76.5991  220.7938 H   0  0  0  0  0  0  0  0  0  0  0  0
  145.2468   74.5318  220.7580 H   0  0  0  0  0  0  0  0  0  0  0  0
  142.7766   72.9095  217.6270 H   0  0  0  0  0  0  0  0  0  0  0  0
  141.3788   74.9826  217.6461 H   0  0  0  0  0  0  0  0  0  0  0  0
  138.7849   71.1651  221.2292 H   0  0  0  0  0  0  0  0  0  0  0  0
  138.4544   69.2097  222.7246 H   0  0  0  0  0  0  0  0  0  0  0  0
  138.9333   68.1783  224.8241 H   0  0  0  0  0  0  0  0  0  0  0  0
  141.4478   70.1276  227.6982 H   0  0  0  0  0  0  0  0  0  0  0  0
  141.7247   72.0379  226.1525 H   0  0  0  0  0  0  0  0  0  0  0  0
  1  2  2  0
  2  3  1  0
  3  4  1  0
  4  5  1  0
  5  6  2  0
  5  7  1  0
  7  8  1  0
  8  9  1  0
  9 10  1  0
 10 11  1  0
 11 12  1  0
 12 13  1  0
 13 14  2  0
 14 15  1  0
 15 16  2  0
 16 17  1  0
 16 18  1  0
 18 19  2  0
  2 20  1  0
 20 21  2  0
 21 22  1  0
 22 23  2  0
 23 24  1  0
 24 25  2  0
 25 26  1  0
 26 27  1  0
 26 28  1  0
 26 29  1  0
 25 30  1  0
 30 31  2  0
 31 32  1  0
 32 33  2  0
 12  7  1  0
 19 13  1  0
 33 20  1  0
 32 23  1  0
  3 34  1  0
  4 35  1  0
  4 36  1  0
  8 37  1  0
  8 38  1  0
  9 39  1  0
  9 40  1  0
 10 41  1  0
 10 42  1  0
 11 43  1  0
 11 44  1  0
 12 45  1  6
 14 46  1  0
 15 47  1  0
 18 48  1  0
 19 49  1  0
 21 50  1  0
 22 51  1  0
 24 52  1  0
 30 53  1  0
 31 54  1  0
M  END
>  <smiles>  (54) 
O=C(NCC(=O)N1CCCCC1c1ccc(Cl)cc1)c1ccc2cc(C(F)(F)F)ccc2n1

>  <score_type>  (54) 
oracle

>  <origin>  (54) 
autodockgpu

>  <m_score__min__energy>  (54) 
-8.3300000000000001

>  <m_primary>  (54) 
energy

>  <rmsd>  (54) 
2.974884520688972

>  <m_score__min__rmsd>  (54) 
2.974884520688972

>  <meeko>  (54) 
{"free_energy": -7.76, "intermolecular_energy": -9.55, "internal_energy": -2.04, "cluster_size": 13, "cluster_id": 2, "rank_in_cluster": 7}

>  <energy>  (54) 
-8.21

>  <cluster_rmsd>  (54) 
0.25

>  <cluster>  (54) 
1

$$$$

     RDKit          3D

 54 57  0  0  0  0  0  0  0  0999 V2000
  140.3180   78.0600  218.1650 O   0  0  0  0  0  0  0  0  0  0  0  0
  141.4170   77.8560  218.7720 C   0  0  0  0  0  0  0  0  0  0  0  0
  142.0300   78.9050  219.5390 N   0  0  0  0  0  0  0  0  0  0  0  0
  141.3040   80.1730  219.5510 C   0  0  0  0  0  0  0  0  0  0  0  0
  140.3240   80.2110  220.6660 C   0  0  0  0  0  0  0  0  0  0  0  0
  139.0910   80.4630  220.4820 O   0  0  0  0  0  0  0  0  0  0  0  0
  140.7410   79.9670  221.9820 N   0  0  0  0  0  0  0  0  0  0  0  0
  140.5270   81.0280  222.9780 C   0  0  0  0  0  0  0  0  0  0  0  0
  141.8610   81.3740  223.6160 C   0  0  0  0  0  0  0  0  0  0  0  0
  142.6780   80.1420  223.9020 C   0  0  0  0  0  0  0  0  0  0  0  0
  141.8240   78.8820  223.8340 C   0  0  0  0  0  0  0  0  0  0  0  0
  141.3630   78.7310  222.4010 C   0  0  1  0  0  0  0  0  0  0  0  0
  140.5090   77.5370  222.2220 C   0  0  0  0  0  0  0  0  0  0  0  0
  139.1370   77.6930  222.3920 C   0  0  0  0  0  0  0  0  0  0  0  0
  138.3170   76.6050  222.2330 C   0  0  0  0  0  0  0  0  0  0  0  0
  138.8520   75.3830  221.9120 C   0  0  0  0  0  0  0  0  0  0  0  0
  137.7790   73.9890  221.7110 Cl  0  0  0  0  0  0  0  0  0  0  0  0
  140.2230   75.2130  221.7390 C   0  0  0  0  0  0  0  0  0  0  0  0
  141.0640   76.3010  221.8950 C   0  0  0  0  0  0  0  0  0  0  0  0
  142.0590   76.5440  218.6910 C   0  0  0  0  0  0  0  0  0  0  0  0
  141.7090   75.6730  217.7030 C   0  0  0  0  0  0  0  0  0  0  0  0
  142.2620   74.4110  217.5470 C   0  0  0  0  0  0  0  0  0  0  0  0
  143.2230   74.0470  218.4660 C   0  0  0  0  0  0  0  0  0  0  0  0
  143.8160   72.8080  218.3710 C   0  0  0  0  0  0  0  0  0  0  0  0
  144.7860   72.3950  219.2660 C   0  0  0  0  0  0  0  0  0  0  0  0
  145.4240   71.0710  219.1730 C   0  0  0  0  0  0  0  0  0  0  0  0
  145.5390   70.7320  217.8400 F   0  0  0  0  0  0  0  0  0  0  0  0
  144.6000   70.1370  219.7800 F   0  0  0  0  0  0  0  0  0  0  0  0
  146.6810   71.0420  219.7290 F   0  0  0  0  0  0  0  0  0  0  0  0
  145.1500   73.2780  220.2760 C   0  0  0  0  0  0  0  0  0  0  0  0
  144.5550   74.5280  220.3770 C   0  0  0  0  0  0  0  0  0  0  0  0
  143.5890   74.9300  219.4780 C   0  0  0  0  0  0  0  0  0  0  0  0
  143.0090   76.1540  219.5780 N   0  0  0  0  0  0  0  0  0  0  0  0
  142.9310   78.7730  220.0500 H   0  0  0  0  0  0  0  0  0  0  0  0
  142.0214   80.9978  219.6736 H   0  0  0  0  0  0  0  0  0  0  0  0
  140.7598   80.2758  218.6006 H   0  0  0  0  0  0  0  0  0  0  0  0
  140.1101   81.9190  222.4858 H   0  0  0  0  0  0  0  0  0  0  0  0
  139.8220   80.6820  223.7482 H   0  0  0  0  0  0  0  0  0  0  0  0
  142.4251   82.0249  222.9319 H   0  0  0  0  0  0  0  0  0  0  0  0
  141.6626   81.8830  224.5707 H   0  0  0  0  0  0  0  0  0  0  0  0
  143.4859   80.0676  223.1591 H   0  0  0  0  0  0  0  0  0  0  0  0
  143.0898   80.2273  224.9184 H   0  0  0  0  0  0  0  0  0  0  0  0
  142.4194   78.0066  224.1326 H   0  0  0  0  0  0  0  0  0  0  0  0
  140.9636   78.9561  224.5153 H   0  0  0  0  0  0  0  0  0  0  0  0
  142.2257   78.5502  221.7429 H   0  0  0  0  0  0  0  0  0  0  0  0
  138.7155   78.6756  222.6504 H   0  0  0  0  0  0  0  0  0  0  0  0
  137.2300   76.7122  222.3629 H   0  0  0  0  0  0  0  0  0  0  0  0
  140.6330   74.2253  221.4813 H   0  0  0  0  0  0  0  0  0  0  0  0
  142.1507   76.1923  221.7633 H   0  0  0  0  0  0  0  0  0  0  0  0
  140.9395   75.9911  216.9842 H   0  0  0  0  0  0  0  0  0  0  0  0
  141.9510   73.7375  216.7348 H   0  0  0  0  0  0  0  0  0  0  0  0
  143.5101   72.1286  217.5618 H   0  0  0  0  0  0  0  0  0  0  0  0
  145.9194   72.9824  221.0045 H   0  0  0  0  0  0  0  0  0  0  0  0
  144.8584   75.2084  221.1863 H   0  0  0  0  0  0  0  0  0  0  0  0
  1  2  2  0
  2  3  1  0
  3  4  1  0
  4  5  1  0
  5  6  2  0
  5  7  1  0
  7  8  1  0
  8  9  1  0
  9 10  1  0
 10 11  1  0
 11 12  1  0
 12 13  1  0
 13 14  2  0
 14 15  1  0
 15 16  2  0
 16 17  1  0
 16 18  1  0
 18 19  2  0
  2 20  1  0
 20 21  2  0
 21 22  1  0
 22 23  2  0
 23 24  1  0
 24 25  2  0
 25 26  1  0
 26 27  1  0
 26 28  1  0
 26 29  1  0
 25 30  1  0
 30 31  2  0
 31 32  1  0
 32 33  2  0
 12  7  1  0
 19 13  1  0
 33 20  1  0
 32 23  1  0
  3 34  1  0
  4 35  1  0
  4 36  1  0
  8 37  1  0
  8 38  1  0
  9 39  1  0
  9 40  1  0
 10 41  1  0
 10 42  1  0
 11 43  1  0
 11 44  1  0
 12 45  1  6
 14 46  1  0
 15 47  1  0
 18 48  1  0
 19 49  1  0
 21 50  1  0
 22 51  1  0
 24 52  1  0
 30 53  1  0
 31 54  1  0
M  END
>  <smiles>  (55) 
O=C(NCC(=O)N1CCCCC1c1ccc(Cl)cc1)c1ccc2cc(C(F)(F)F)ccc2n1

>  <score_type>  (55) 
oracle

>  <origin>  (55) 
autodockgpu

>  <m_score__min__energy>  (55) 
-8.3300000000000001

>  <m_primary>  (55) 
energy

>  <rmsd>  (55) 
7.912990606043464

>  <m_score__min__rmsd>  (55) 
7.912990606043464

>  <meeko>  (55) 
{"free_energy": -6.64, "intermolecular_energy": -8.43, "internal_energy": -2.73, "cluster_size": 2, "cluster_id": 9, "rank_in_cluster": 1}

>  <energy>  (55) 
-8.17

>  <cluster_rmsd>  (55) 
0.58

>  <cluster>  (55) 
1

$$$$

     RDKit          3D

 54 57  0  0  0  0  0  0  0  0999 V2000
  133.9140   69.6090  226.5110 O   0  0  0  0  0  0  0  0  0  0  0  0
  134.3150   70.7310  226.0670 C   0  0  0  0  0  0  0  0  0  0  0  0
  135.4420   70.8000  225.1780 N   0  0  0  0  0  0  0  0  0  0  0  0
  136.0560   69.5150  224.8490 C   0  0  0  0  0  0  0  0  0  0  0  0
  136.7410   69.5760  223.5350 C   0  0  0  0  0  0  0  0  0  0  0  0
  136.4570   68.7860  222.5790 O   0  0  0  0  0  0  0  0  0  0  0  0
  137.7460   70.5260  223.3040 N   0  0  0  0  0  0  0  0  0  0  0  0
  137.3300   71.9010  222.9840 C   0  0  0  0  0  0  0  0  0  0  0  0
  137.9510   72.3020  221.6580 C   0  0  0  0  0  0  0  0  0  0  0  0
  139.3780   71.8370  221.5470 C   0  0  0  0  0  0  0  0  0  0  0  0
  139.9370   71.4320  222.9050 C   0  0  0  0  0  0  0  0  0  0  0  0
  139.1580   70.2200  223.3660 C   0  0  1  0  0  0  0  0  0  0  0  0
  139.6120   69.7480  224.6920 C   0  0  0  0  0  0  0  0  0  0  0  0
  139.5060   68.3870  224.9640 C   0  0  0  0  0  0  0  0  0  0  0  0
  139.9190   67.9170  226.1850 C   0  0  0  0  0  0  0  0  0  0  0  0
  140.4270   68.7840  227.1190 C   0  0  0  0  0  0  0  0  0  0  0  0
  140.9550   68.1610  228.6900 Cl  0  0  0  0  0  0  0  0  0  0  0  0
  140.5370   70.1480  226.8600 C   0  0  0  0  0  0  0  0  0  0  0  0
  140.1270   70.6390  225.6330 C   0  0  0  0  0  0  0  0  0  0  0  0
  133.6240   71.9580  226.4620 C   0  0  0  0  0  0  0  0  0  0  0  0
  132.4440   71.8880  227.1390 C   0  0  0  0  0  0  0  0  0  0  0  0
  131.7190   72.9950  227.5540 C   0  0  0  0  0  0  0  0  0  0  0  0
  132.2550   74.2270  227.2450 C   0  0  0  0  0  0  0  0  0  0  0  0
  131.5880   75.3700  227.6270 C   0  0  0  0  0  0  0  0  0  0  0  0
  132.0830   76.6300  227.3430 C   0  0  0  0  0  0  0  0  0  0  0  0
  131.3770   77.8580  227.7460 C   0  0  0  0  0  0  0  0  0  0  0  0
  132.2650   78.9130  227.6930 F   0  0  0  0  0  0  0  0  0  0  0  0
  130.9600   77.7190  229.0610 F   0  0  0  0  0  0  0  0  0  0  0  0
  130.3110   78.1560  226.9300 F   0  0  0  0  0  0  0  0  0  0  0  0
  133.2860   76.7100  226.6520 C   0  0  0  0  0  0  0  0  0  0  0  0
  133.9630   75.5610  226.2650 C   0  0  0  0  0  0  0  0  0  0  0  0
  133.4600   74.3100  226.5540 C   0  0  0  0  0  0  0  0  0  0  0  0
  134.1230   73.1870  226.1740 N   0  0  0  0  0  0  0  0  0  0  0  0
  135.7980   71.7030  224.7930 H   0  0  0  0  0  0  0  0  0  0  0  0
  136.7905   69.2574  225.6263 H   0  0  0  0  0  0  0  0  0  0  0  0
  135.2661   68.7512  224.7981 H   0  0  0  0  0  0  0  0  0  0  0  0
  136.2336   71.9477  222.9083 H   0  0  0  0  0  0  0  0  0  0  0  0
  137.6635   72.5872  223.7764 H   0  0  0  0  0  0  0  0  0  0  0  0
  137.3660   71.8547  220.8409 H   0  0  0  0  0  0  0  0  0  0  0  0
  137.9428   73.4001  221.5943 H   0  0  0  0  0  0  0  0  0  0  0  0
  139.4208   70.9714  220.8696 H   0  0  0  0  0  0  0  0  0  0  0  0
  139.9839   72.6680  221.1567 H   0  0  0  0  0  0  0  0  0  0  0  0
  141.0043   71.1817  222.8138 H   0  0  0  0  0  0  0  0  0  0  0  0
  139.8416   72.2556  223.6279 H   0  0  0  0  0  0  0  0  0  0  0  0
  139.3472   69.3703  222.6935 H   0  0  0  0  0  0  0  0  0  0  0  0
  139.0968   67.6979  224.2105 H   0  0  0  0  0  0  0  0  0  0  0  0
  139.8428   66.8441  226.4153 H   0  0  0  0  0  0  0  0  0  0  0  0
  140.9454   70.8276  227.6225 H   0  0  0  0  0  0  0  0  0  0  0  0
  140.2058   71.7120  225.4042 H   0  0  0  0  0  0  0  0  0  0  0  0
  132.0410   70.8911  227.3710 H   0  0  0  0  0  0  0  0  0  0  0  0
  130.7690   72.8956  228.0995 H   0  0  0  0  0  0  0  0  0  0  0  0
  130.6370   75.2784  228.1721 H   0  0  0  0  0  0  0  0  0  0  0  0
  133.7075   77.6964  226.4084 H   0  0  0  0  0  0  0  0  0  0  0  0
  134.9143   75.6500  225.7200 H   0  0  0  0  0  0  0  0  0  0  0  0
  1  2  2  0
  2  3  1  0
  3  4  1  0
  4  5  1  0
  5  6  2  0
  5  7  1  0
  7  8  1  0
  8  9  1  0
  9 10  1  0
 10 11  1  0
 11 12  1  0
 12 13  1  0
 13 14  2  0
 14 15  1  0
 15 16  2  0
 16 17  1  0
 16 18  1  0
 18 19  2  0
  2 20  1  0
 20 21  2  0
 21 22  1  0
 22 23  2  0
 23 24  1  0
 24 25  2  0
 25 26  1  0
 26 27  1  0
 26 28  1  0
 26 29  1  0
 25 30  1  0
 30 31  2  0
 31 32  1  0
 32 33  2  0
 12  7  1  0
 19 13  1  0
 33 20  1  0
 32 23  1  0
  3 34  1  0
  4 35  1  0
  4 36  1  0
  8 37  1  0
  8 38  1  0
  9 39  1  0
  9 40  1  0
 10 41  1  0
 10 42  1  0
 11 43  1  0
 11 44  1  0
 12 45  1  6
 14 46  1  0
 15 47  1  0
 18 48  1  0
 19 49  1  0
 21 50  1  0
 22 51  1  0
 24 52  1  0
 30 53  1  0
 31 54  1  0
M  END
>  <smiles>  (56) 
O=C(NCC(=O)N1CCCCC1c1ccc(Cl)cc1)c1ccc2cc(C(F)(F)F)ccc2n1

>  <score_type>  (56) 
oracle

>  <origin>  (56) 
autodockgpu

>  <m_score__min__energy>  (56) 
-8.3300000000000001

>  <m_primary>  (56) 
energy

>  <rmsd>  (56) 
7.793524184781998

>  <m_score__min__rmsd>  (56) 
7.793524184781998

>  <meeko>  (56) 
{"free_energy": -8.21, "intermolecular_energy": -10.0, "internal_energy": -1.74, "cluster_size": 6, "cluster_id": 1, "rank_in_cluster": 4}

>  <energy>  (56) 
-7.84

>  <cluster_rmsd>  (56) 
1.56

>  <cluster>  (56) 
1

$$$$

     RDKit          3D

 54 57  0  0  0  0  0  0  0  0999 V2000
  140.3460   74.4600  221.9590 O   0  0  0  0  0  0  0  0  0  0  0  0
  140.1410   73.2580  221.5990 C   0  0  0  0  0  0  0  0  0  0  0  0
  140.0390   72.9230  220.2060 N   0  0  0  0  0  0  0  0  0  0  0  0
  140.1850   74.0460  219.2830 C   0  0  0  0  0  0  0  0  0  0  0  0
  141.3700   73.8640  218.4080 C   0  0  0  0  0  0  0  0  0  0  0  0
  141.2700   73.5540  217.1790 O   0  0  0  0  0  0  0  0  0  0  0  0
  142.6620   74.0300  218.9250 N   0  0  0  0  0  0  0  0  0  0  0  0
  143.7360   73.1910  218.3700 C   0  0  0  0  0  0  0  0  0  0  0  0
  144.3950   72.4270  219.5060 C   0  0  0  0  0  0  0  0  0  0  0  0
  144.5840   73.2930  220.7230 C   0  0  0  0  0  0  0  0  0  0  0  0
  144.4240   74.7700  220.3850 C   0  0  0  0  0  0  0  0  0  0  0  0
  142.9850   74.9790  219.9670 C   0  0  1  0  0  0  0  0  0  0  0  0
  142.7190   76.3870  219.6000 C   0  0  0  0  0  0  0  0  0  0  0  0
  141.9810   77.1590  220.4920 C   0  0  0  0  0  0  0  0  0  0  0  0
  141.7180   78.4680  220.1800 C   0  0  0  0  0  0  0  0  0  0  0  0
  142.1800   79.0010  219.0030 C   0  0  0  0  0  0  0  0  0  0  0  0
  141.8310   80.6930  218.6170 Cl  0  0  0  0  0  0  0  0  0  0  0  0
  142.9190   78.2400  218.1020 C   0  0  0  0  0  0  0  0  0  0  0  0
  143.1950   76.9170  218.4010 C   0  0  0  0  0  0  0  0  0  0  0  0
  140.0100   72.2090  222.6110 C   0  0  0  0  0  0  0  0  0  0  0  0
  139.2180   71.1270  222.3730 C   0  0  0  0  0  0  0  0  0  0  0  0
  139.0340   70.0860  223.2700 C   0  0  0  0  0  0  0  0  0  0  0  0
  139.7100   70.1850  224.4690 C   0  0  0  0  0  0  0  0  0  0  0  0
  139.5730   69.1860  225.4070 C   0  0  0  0  0  0  0  0  0  0  0  0
  140.2300   69.2370  226.6230 C   0  0  0  0  0  0  0  0  0  0  0  0
  140.0890   68.1740  227.6330 C   0  0  0  0  0  0  0  0  0  0  0  0
  139.5830   68.7320  228.7900 F   0  0  0  0  0  0  0  0  0  0  0  0
  141.3460   67.6660  227.9210 F   0  0  0  0  0  0  0  0  0  0  0  0
  139.2400   67.1680  227.2380 F   0  0  0  0  0  0  0  0  0  0  0  0
  141.0400   70.3380  226.8740 C   0  0  0  0  0  0  0  0  0  0  0  0
  141.1810   71.3470  225.9310 C   0  0  0  0  0  0  0  0  0  0  0  0
  140.5220   71.2860  224.7210 C   0  0  0  0  0  0  0  0  0  0  0  0
  140.6610   72.2750  223.8010 N   0  0  0  0  0  0  0  0  0  0  0  0
  139.8720   71.9470  219.8740 H   0  0  0  0  0  0  0  0  0  0  0  0
  139.2831   74.1170  218.6572 H   0  0  0  0  0  0  0  0  0  0  0  0
  140.3202   74.9667  219.8695 H   0  0  0  0  0  0  0  0  0  0  0  0
  143.3132   72.4816  217.6433 H   0  0  0  0  0  0  0  0  0  0  0  0
  144.4800   73.8225  217.8624 H   0  0  0  0  0  0  0  0  0  0  0  0
  143.7608   71.5691  219.7738 H   0  0  0  0  0  0  0  0  0  0  0  0
  145.3862   72.0930  219.1653 H   0  0  0  0  0  0  0  0  0  0  0  0
  143.8349   73.0158  221.4793 H   0  0  0  0  0  0  0  0  0  0  0  0
  145.6029   73.1340  221.1060 H   0  0  0  0  0  0  0  0  0  0  0  0
  144.6536   75.3857  221.2672 H   0  0  0  0  0  0  0  0  0  0  0  0
  145.1119   75.0631  219.5782 H   0  0  0  0  0  0  0  0  0  0  0  0
  142.3131   74.7859  220.8163 H   0  0  0  0  0  0  0  0  0  0  0  0
  141.6139   76.7254  221.4339 H   0  0  0  0  0  0  0  0  0  0  0  0
  141.1358   79.0918  220.8742 H   0  0  0  0  0  0  0  0  0  0  0  0
  143.2797   78.6849  217.1629 H   0  0  0  0  0  0  0  0  0  0  0  0
  143.7787   76.2954  217.7061 H   0  0  0  0  0  0  0  0  0  0  0  0
  138.6913   71.0758  221.4087 H   0  0  0  0  0  0  0  0  0  0  0  0
  138.3850   69.2285  223.0387 H   0  0  0  0  0  0  0  0  0  0  0  0
  138.9247   68.3259  225.1835 H   0  0  0  0  0  0  0  0  0  0  0  0
  141.5761   70.4109  227.8318 H   0  0  0  0  0  0  0  0  0  0  0  0
  141.8283   72.2084  226.1523 H   0  0  0  0  0  0  0  0  0  0  0  0
  1  2  2  0
  2  3  1  0
  3  4  1  0
  4  5  1  0
  5  6  2  0
  5  7  1  0
  7  8  1  0
  8  9  1  0
  9 10  1  0
 10 11  1  0
 11 12  1  0
 12 13  1  0
 13 14  2  0
 14 15  1  0
 15 16  2  0
 16 17  1  0
 16 18  1  0
 18 19  2  0
  2 20  1  0
 20 21  2  0
 21 22  1  0
 22 23  2  0
 23 24  1  0
 24 25  2  0
 25 26  1  0
 26 27  1  0
 26 28  1  0
 26 29  1  0
 25 30  1  0
 30 31  2  0
 31 32  1  0
 32 33  2  0
 12  7  1  0
 19 13  1  0
 33 20  1  0
 32 23  1  0
  3 34  1  0
  4 35  1  0
  4 36  1  0
  8 37  1  0
  8 38  1  0
  9 39  1  0
  9 40  1  0
 10 41  1  0
 10 42  1  0
 11 43  1  0
 11 44  1  0
 12 45  1  1
 14 46  1  0
 15 47  1  0
 18 48  1  0
 19 49  1  0
 21 50  1  0
 22 51  1  0
 24 52  1  0
 30 53  1  0
 31 54  1  0
M  END
>  <smiles>  (57) 
O=C(NCC(=O)N1CCCCC1c1ccc(Cl)cc1)c1ccc2cc(C(F)(F)F)ccc2n1

>  <score_type>  (57) 
oracle

>  <origin>  (57) 
autodockgpu

>  <m_score__min__energy>  (57) 
-8.3300000000000001

>  <m_primary>  (57) 
energy

>  <rmsd>  (57) 
3.3929051530537957

>  <m_score__min__rmsd>  (57) 
3.3929051530537957

>  <meeko>  (57) 
{"free_energy": -7.62, "intermolecular_energy": -9.41, "internal_energy": -1.93, "cluster_size": 3, "cluster_id": 4, "rank_in_cluster": 3}

>  <energy>  (57) 
-8.31

>  <cluster_rmsd>  (57) 
0.0

>  <cluster>  (57) 
2

$$$$

     RDKit          3D

 54 57  0  0  0  0  0  0  0  0999 V2000
  140.2190   75.3660  219.2260 O   0  0  0  0  0  0  0  0  0  0  0  0
  140.6910   75.0450  220.3630 C   0  0  0  0  0  0  0  0  0  0  0  0
  141.7680   75.7990  220.9430 N   0  0  0  0  0  0  0  0  0  0  0  0
  142.2480   76.9190  220.1370 C   0  0  0  0  0  0  0  0  0  0  0  0
  141.3410   78.0880  220.2590 C   0  0  0  0  0  0  0  0  0  0  0  0
  140.5780   78.4620  219.3130 O   0  0  0  0  0  0  0  0  0  0  0  0
  141.3000   78.8290  221.4480 N   0  0  0  0  0  0  0  0  0  0  0  0
  141.7430   80.2310  221.3990 C   0  0  0  0  0  0  0  0  0  0  0  0
  142.8530   80.4290  222.4160 C   0  0  0  0  0  0  0  0  0  0  0  0
  142.5580   79.7140  223.7080 C   0  0  0  0  0  0  0  0  0  0  0  0
  141.0930   79.3070  223.7960 C   0  0  0  0  0  0  0  0  0  0  0  0
  140.8460   78.2840  222.7080 C   0  0  1  0  0  0  0  0  0  0  0  0
  139.4390   77.8280  222.6930 C   0  0  0  0  0  0  0  0  0  0  0  0
  139.2060   76.4560  222.7070 C   0  0  0  0  0  0  0  0  0  0  0  0
  137.9110   76.0010  222.6940 C   0  0  0  0  0  0  0  0  0  0  0  0
  136.8690   76.8930  222.6670 C   0  0  0  0  0  0  0  0  0  0  0  0
  135.2060   76.2870  222.6490 Cl  0  0  0  0  0  0  0  0  0  0  0  0
  137.0900   78.2670  222.6520 C   0  0  0  0  0  0  0  0  0  0  0  0
  138.3890   78.7440  222.6660 C   0  0  0  0  0  0  0  0  0  0  0  0
  140.1320   73.9010  221.0840 C   0  0  0  0  0  0  0  0  0  0  0  0
  139.0270   73.2650  220.6040 C   0  0  0  0  0  0  0  0  0  0  0  0
  138.4290   72.1750  221.2180 C   0  0  0  0  0  0  0  0  0  0  0  0
  139.0150   71.7340  222.3860 C   0  0  0  0  0  0  0  0  0  0  0  0
  138.4730   70.6550  223.0490 C   0  0  0  0  0  0  0  0  0  0  0  0
  139.0230   70.1730  224.2230 C   0  0  0  0  0  0  0  0  0  0  0  0
  138.4510   69.0210  224.9390 C   0  0  0  0  0  0  0  0  0  0  0  0
  138.8730   69.0660  226.2520 F   0  0  0  0  0  0  0  0  0  0  0  0
  138.9440   67.8560  224.3730 F   0  0  0  0  0  0  0  0  0  0  0  0
  137.0750   69.0160  224.9340 F   0  0  0  0  0  0  0  0  0  0  0  0
  140.1510   70.8160  224.7190 C   0  0  0  0  0  0  0  0  0  0  0  0
  140.7000   71.9040  224.0550 C   0  0  0  0  0  0  0  0  0  0  0  0
  140.1440   72.3760  222.8850 C   0  0  0  0  0  0  0  0  0  0  0  0
  140.6840   73.4410  222.2360 N   0  0  0  0  0  0  0  0  0  0  0  0
  142.1790   75.5640  221.8740 H   0  0  0  0  0  0  0  0  0  0  0  0
  143.2527   77.2055  220.4811 H   0  0  0  0  0  0  0  0  0  0  0  0
  142.2770   76.6058  219.0829 H   0  0  0  0  0  0  0  0  0  0  0  0
  142.1182   80.4652  220.3918 H   0  0  0  0  0  0  0  0  0  0  0  0
  140.8997   80.8979  221.6315 H   0  0  0  0  0  0  0  0  0  0  0  0
  143.7928   80.0382  221.9987 H   0  0  0  0  0  0  0  0  0  0  0  0
  142.9343   81.5049  222.6301 H   0  0  0  0  0  0  0  0  0  0  0  0
  143.1844   78.8118  223.7688 H   0  0  0  0  0  0  0  0  0  0  0  0
  142.7777   80.3986  224.5405 H   0  0  0  0  0  0  0  0  0  0  0  0
  140.8828   78.8667  224.7819 H   0  0  0  0  0  0  0  0  0  0  0  0
  140.4369   80.1804  223.6667 H   0  0  0  0  0  0  0  0  0  0  0  0
  141.4270   77.3715  222.9075 H   0  0  0  0  0  0  0  0  0  0  0  0
  140.0468   75.7470  222.7282 H   0  0  0  0  0  0  0  0  0  0  0  0
  137.7085   74.9199  222.7052 H   0  0  0  0  0  0  0  0  0  0  0  0
  136.2412   78.9663  222.6292 H   0  0  0  0  0  0  0  0  0  0  0  0
  138.5890   79.8256  222.6560 H   0  0  0  0  0  0  0  0  0  0  0  0
  138.5812   73.6397  219.6708 H   0  0  0  0  0  0  0  0  0  0  0  0
  137.5366   71.6889  220.7968 H   0  0  0  0  0  0  0  0  0  0  0  0
  137.5802   70.1643  222.6342 H   0  0  0  0  0  0  0  0  0  0  0  0
  140.6146   70.4578  225.6500 H   0  0  0  0  0  0  0  0  0  0  0  0
  141.5921   72.3972  224.4684 H   0  0  0  0  0  0  0  0  0  0  0  0
  1  2  2  0
  2  3  1  0
  3  4  1  0
  4  5  1  0
  5  6  2  0
  5  7  1  0
  7  8  1  0
  8  9  1  0
  9 10  1  0
 10 11  1  0
 11 12  1  0
 12 13  1  0
 13 14  2  0
 14 15  1  0
 15 16  2  0
 16 17  1  0
 16 18  1  0
 18 19  2  0
  2 20  1  0
 20 21  2  0
 21 22  1  0
 22 23  2  0
 23 24  1  0
 24 25  2  0
 25 26  1  0
 26 27  1  0
 26 28  1  0
 26 29  1  0
 25 30  1  0
 30 31  2  0
 31 32  1  0
 32 33  2  0
 12  7  1  0
 19 13  1  0
 33 20  1  0
 32 23  1  0
  3 34  1  0
  4 35  1  0
  4 36  1  0
  8 37  1  0
  8 38  1  0
  9 39  1  0
  9 40  1  0
 10 41  1  0
 10 42  1  0
 11 43  1  0
 11 44  1  0
 12 45  1  1
 14 46  1  0
 15 47  1  0
 18 48  1  0
 19 49  1  0
 21 50  1  0
 22 51  1  0
 24 52  1  0
 30 53  1  0
 31 54  1  0
M  END
>  <smiles>  (58) 
O=C(NCC(=O)N1CCCCC1c1ccc(Cl)cc1)c1ccc2cc(C(F)(F)F)ccc2n1

>  <score_type>  (58) 
oracle

>  <origin>  (58) 
autodockgpu

>  <m_score__min__energy>  (58) 
-8.3300000000000001

>  <m_primary>  (58) 
energy

>  <rmsd>  (58) 
5.093160220872932

>  <m_score__min__rmsd>  (58) 
5.093160220872932

>  <meeko>  (58) 
{"free_energy": -7.08, "intermolecular_energy": -8.87, "internal_energy": -2.53, "cluster_size": 15, "cluster_id": 6, "rank_in_cluster": 6}

>  <energy>  (58) 
-7.86

>  <cluster_rmsd>  (58) 
1.74

>  <cluster>  (58) 
2

$$$$

     RDKit          3D

 54 57  0  0  0  0  0  0  0  0999 V2000
  141.9110   72.9900  220.5660 O   0  0  0  0  0  0  0  0  0  0  0  0
  141.1890   73.7000  221.3350 C   0  0  0  0  0  0  0  0  0  0  0  0
  140.2660   73.0780  222.2440 N   0  0  0  0  0  0  0  0  0  0  0  0
  140.2380   71.6180  222.2000 C   0  0  0  0  0  0  0  0  0  0  0  0
  138.9690   71.1300  221.6030 C   0  0  0  0  0  0  0  0  0  0  0  0
  138.8980   70.7030  220.4070 O   0  0  0  0  0  0  0  0  0  0  0  0
  137.7880   71.1270  222.3570 N   0  0  0  0  0  0  0  0  0  0  0  0
  136.5350   70.7820  221.6690 C   0  0  0  0  0  0  0  0  0  0  0  0
  135.5440   71.9180  221.8590 C   0  0  0  0  0  0  0  0  0  0  0  0
  135.5790   72.4570  223.2640 C   0  0  0  0  0  0  0  0  0  0  0  0
  136.2990   71.5020  224.2080 C   0  0  0  0  0  0  0  0  0  0  0  0
  137.7450   71.4440  223.7670 C   0  0  1  0  0  0  0  0  0  0  0  0
  138.5410   70.5270  224.6130 C   0  0  0  0  0  0  0  0  0  0  0  0
  139.6320   71.0590  225.2920 C   0  0  0  0  0  0  0  0  0  0  0  0
  140.3900   70.2340  226.0850 C   0  0  0  0  0  0  0  0  0  0  0  0
  140.0680   68.9060  226.2000 C   0  0  0  0  0  0  0  0  0  0  0  0
  141.0560   67.8560  227.2270 Cl  0  0  0  0  0  0  0  0  0  0  0  0
  138.9780   68.3620  225.5260 C   0  0  0  0  0  0  0  0  0  0  0  0
  138.2020   69.1790  224.7220 C   0  0  0  0  0  0  0  0  0  0  0  0
  141.3000   75.1580  221.2950 C   0  0  0  0  0  0  0  0  0  0  0  0
  142.0220   75.7610  220.3100 C   0  0  0  0  0  0  0  0  0  0  0  0
  142.1830   77.1330  220.1910 C   0  0  0  0  0  0  0  0  0  0  0  0
  141.5590   77.9060  221.1480 C   0  0  0  0  0  0  0  0  0  0  0  0
  141.6750   79.2770  221.0920 C   0  0  0  0  0  0  0  0  0  0  0  0
  141.0680   80.0970  222.0250 C   0  0  0  0  0  0  0  0  0  0  0  0
  141.1880   81.5640  221.9740 C   0  0  0  0  0  0  0  0  0  0  0  0
  139.9200   82.1090  221.9950 F   0  0  0  0  0  0  0  0  0  0  0  0
  141.7840   81.9190  220.7740 F   0  0  0  0  0  0  0  0  0  0  0  0
  141.8920   82.0820  223.0350 F   0  0  0  0  0  0  0  0  0  0  0  0
  140.3290   79.4900  223.0340 C   0  0  0  0  0  0  0  0  0  0  0  0
  140.2080   78.1090  223.0960 C   0  0  0  0  0  0  0  0  0  0  0  0
  140.8170   77.3010  222.1580 C   0  0  0  0  0  0  0  0  0  0  0  0
  140.6980   75.9490  222.2200 N   0  0  0  0  0  0  0  0  0  0  0  0
  139.6580   73.6290  222.8900 H   0  0  0  0  0  0  0  0  0  0  0  0
  141.0826   71.2597  221.5932 H   0  0  0  0  0  0  0  0  0  0  0  0
  140.3132   71.2339  223.2280 H   0  0  0  0  0  0  0  0  0  0  0  0
  136.7300   70.6369  220.5962 H   0  0  0  0  0  0  0  0  0  0  0  0
  136.1225   69.8520  222.0872 H   0  0  0  0  0  0  0  0  0  0  0  0
  135.7932   72.7294  221.1594 H   0  0  0  0  0  0  0  0  0  0  0  0
  134.5337   71.5281  221.6659 H   0  0  0  0  0  0  0  0  0  0  0  0
  136.1042   73.4235  223.2636 H   0  0  0  0  0  0  0  0  0  0  0  0
  134.5433   72.5757  223.6152 H   0  0  0  0  0  0  0  0  0  0  0  0
  136.2346   71.8734  225.2414 H   0  0  0  0  0  0  0  0  0  0  0  0
  135.8406   70.5025  224.1773 H   0  0  0  0  0  0  0  0  0  0  0  0
  138.2212   72.4260  223.9045 H   0  0  0  0  0  0  0  0  0  0  0  0
  139.8838   72.1254  225.1949 H   0  0  0  0  0  0  0  0  0  0  0  0
  141.2565   70.6384  226.6287 H   0  0  0  0  0  0  0  0  0  0  0  0
  138.7360   67.2941  225.6313 H   0  0  0  0  0  0  0  0  0  0  0  0
  137.3353   68.7729  224.1799 H   0  0  0  0  0  0  0  0  0  0  0  0
  142.5084   75.1186  219.5612 H   0  0  0  0  0  0  0  0  0  0  0  0
  142.7752   77.5800  219.3789 H   0  0  0  0  0  0  0  0  0  0  0  0
  142.2663   79.7318  220.2835 H   0  0  0  0  0  0  0  0  0  0  0  0
  139.8335   80.1128  223.7934 H   0  0  0  0  0  0  0  0  0  0  0  0
  139.6182   77.6521  223.9043 H   0  0  0  0  0  0  0  0  0  0  0  0
  1  2  2  0
  2  3  1  0
  3  4  1  0
  4  5  1  0
  5  6  2  0
  5  7  1  0
  7  8  1  0
  8  9  1  0
  9 10  1  0
 10 11  1  0
 11 12  1  0
 12 13  1  0
 13 14  2  0
 14 15  1  0
 15 16  2  0
 16 17  1  0
 16 18  1  0
 18 19  2  0
  2 20  1  0
 20 21  2  0
 21 22  1  0
 22 23  2  0
 23 24  1  0
 24 25  2  0
 25 26  1  0
 26 27  1  0
 26 28  1  0
 26 29  1  0
 25 30  1  0
 30 31  2  0
 31 32  1  0
 32 33  2  0
 12  7  1  0
 19 13  1  0
 33 20  1  0
 32 23  1  0
  3 34  1  0
  4 35  1  0
  4 36  1  0
  8 37  1  0
  8 38  1  0
  9 39  1  0
  9 40  1  0
 10 41  1  0
 10 42  1  0
 11 43  1  0
 11 44  1  0
 12 45  1  6
 14 46  1  0
 15 47  1  0
 18 48  1  0
 19 49  1  0
 21 50  1  0
 22 51  1  0
 24 52  1  0
 30 53  1  0
 31 54  1  0
M  END
>  <smiles>  (59) 
O=C(NCC(=O)N1CCCCC1c1ccc(Cl)cc1)c1ccc2cc(C(F)(F)F)ccc2n1

>  <score_type>  (59) 
oracle

>  <origin>  (59) 
autodockgpu

>  <m_score__min__energy>  (59) 
-8.3300000000000001

>  <m_primary>  (59) 
energy

>  <rmsd>  (59) 
7.84273728681299

>  <m_score__min__rmsd>  (59) 
7.84273728681299

>  <meeko>  (59) 
{"free_energy": -7.13, "intermolecular_energy": -8.92, "internal_energy": -1.71, "cluster_size": 1, "cluster_id": 7, "rank_in_cluster": 1}

>  <energy>  (59) 
-7.82

>  <cluster_rmsd>  (59) 
1.84

>  <cluster>  (59) 
2

$$$$

     RDKit          3D

 54 57  0  0  0  0  0  0  0  0999 V2000
  140.2650   75.1590  219.2730 O   0  0  0  0  0  0  0  0  0  0  0  0
  140.7570   74.8460  220.4030 C   0  0  0  0  0  0  0  0  0  0  0  0
  141.7870   75.6540  220.9960 N   0  0  0  0  0  0  0  0  0  0  0  0
  142.1980   76.8150  220.2100 C   0  0  0  0  0  0  0  0  0  0  0  0
  141.1850   77.8960  220.2940 C   0  0  0  0  0  0  0  0  0  0  0  0
  140.3630   78.1370  219.3530 O   0  0  0  0  0  0  0  0  0  0  0  0
  141.1030   78.7020  221.4380 N   0  0  0  0  0  0  0  0  0  0  0  0
  141.4930   80.1150  221.3120 C   0  0  0  0  0  0  0  0  0  0  0  0
  142.5840   80.4120  222.3250 C   0  0  0  0  0  0  0  0  0  0  0  0
  142.3030   79.7610  223.6530 C   0  0  0  0  0  0  0  0  0  0  0  0
  140.8530   79.3050  223.7520 C   0  0  0  0  0  0  0  0  0  0  0  0
  140.6560   78.2130  222.7230 C   0  0  1  0  0  0  0  0  0  0  0  0
  139.2680   77.7030  222.7230 C   0  0  0  0  0  0  0  0  0  0  0  0
  139.0870   76.3240  222.6930 C   0  0  0  0  0  0  0  0  0  0  0  0
  137.8110   75.8200  222.6920 C   0  0  0  0  0  0  0  0  0  0  0  0
  136.7350   76.6710  222.7190 C   0  0  0  0  0  0  0  0  0  0  0  0
  135.0960   76.0030  222.7160 Cl  0  0  0  0  0  0  0  0  0  0  0  0
  136.9030   78.0530  222.7480 C   0  0  0  0  0  0  0  0  0  0  0  0
  138.1840   78.5790  222.7510 C   0  0  0  0  0  0  0  0  0  0  0  0
  140.2690   73.6590  221.1040 C   0  0  0  0  0  0  0  0  0  0  0  0
  139.3490   72.8470  220.5130 C   0  0  0  0  0  0  0  0  0  0  0  0
  138.8310   71.7020  221.0990 C   0  0  0  0  0  0  0  0  0  0  0  0
  139.2980   71.3960  222.3600 C   0  0  0  0  0  0  0  0  0  0  0  0
  138.8270   70.2720  223.0020 C   0  0  0  0  0  0  0  0  0  0  0  0
  139.2640   69.9200  224.2660 C   0  0  0  0  0  0  0  0  0  0  0  0
  138.7650   68.7210  224.9600 C   0  0  0  0  0  0  0  0  0  0  0  0
  137.4030   68.8520  225.1380 F   0  0  0  0  0  0  0  0  0  0  0  0
  139.3530   68.6570  226.2140 F   0  0  0  0  0  0  0  0  0  0  0  0
  138.9950   67.5610  224.2590 F   0  0  0  0  0  0  0  0  0  0  0  0
  140.2030   70.7430  224.8760 C   0  0  0  0  0  0  0  0  0  0  0  0
  140.6820   71.8770  224.2340 C   0  0  0  0  0  0  0  0  0  0  0  0
  140.2390   72.2180  222.9730 C   0  0  0  0  0  0  0  0  0  0  0  0
  140.7080   73.3270  222.3460 N   0  0  0  0  0  0  0  0  0  0  0  0
  142.2140   75.4270  221.9220 H   0  0  0  0  0  0  0  0  0  0  0  0
  143.1576   77.1898  220.5957 H   0  0  0  0  0  0  0  0  0  0  0  0
  142.3000   76.5095  219.1582 H   0  0  0  0  0  0  0  0  0  0  0  0
  141.8695   80.3057  220.2962 H   0  0  0  0  0  0  0  0  0  0  0  0
  140.6229   80.7616  221.4985 H   0  0  0  0  0  0  0  0  0  0  0  0
  143.5419   80.0341  221.9383 H   0  0  0  0  0  0  0  0  0  0  0  0
  142.6226   81.5006  222.4781 H   0  0  0  0  0  0  0  0  0  0  0  0
  142.9617   78.8878  223.7702 H   0  0  0  0  0  0  0  0  0  0  0  0
  142.4890   80.4992  224.4470 H   0  0  0  0  0  0  0  0  0  0  0  0
  140.6487   78.9144  224.7598 H   0  0  0  0  0  0  0  0  0  0  0  0
  140.1663   80.1442  223.5671 H   0  0  0  0  0  0  0  0  0  0  0  0
  141.2685   77.3360  222.9792 H   0  0  0  0  0  0  0  0  0  0  0  0
  139.9542   75.6477  222.6704 H   0  0  0  0  0  0  0  0  0  0  0  0
  137.6503   74.7320  222.6695 H   0  0  0  0  0  0  0  0  0  0  0  0
  136.0280   78.7194  222.7683 H   0  0  0  0  0  0  0  0  0  0  0  0
  138.3431   79.6672  222.7750 H   0  0  0  0  0  0  0  0  0  0  0  0
  138.9945   73.1166  219.5072 H   0  0  0  0  0  0  0  0  0  0  0  0
  138.0886   71.0726  220.5864 H   0  0  0  0  0  0  0  0  0  0  0  0
  138.0840   69.6379  222.4962 H   0  0  0  0  0  0  0  0  0  0  0  0
  140.5719   70.4925  225.8816 H   0  0  0  0  0  0  0  0  0  0  0  0
  141.4252   72.5124  224.7380 H   0  0  0  0  0  0  0  0  0  0  0  0
  1  2  2  0
  2  3  1  0
  3  4  1  0
  4  5  1  0
  5  6  2  0
  5  7  1  0
  7  8  1  0
  8  9  1  0
  9 10  1  0
 10 11  1  0
 11 12  1  0
 12 13  1  0
 13 14  2  0
 14 15  1  0
 15 16  2  0
 16 17  1  0
 16 18  1  0
 18 19  2  0
  2 20  1  0
 20 21  2  0
 21 22  1  0
 22 23  2  0
 23 24  1  0
 24 25  2  0
 25 26  1  0
 26 27  1  0
 26 28  1  0
 26 29  1  0
 25 30  1  0
 30 31  2  0
 31 32  1  0
 32 33  2  0
 12  7  1  0
 19 13  1  0
 33 20  1  0
 32 23  1  0
  3 34  1  0
  4 35  1  0
  4 36  1  0
  8 37  1  0
  8 38  1  0
  9 39  1  0
  9 40  1  0
 10 41  1  0
 10 42  1  0
 11 43  1  0
 11 44  1  0
 12 45  1  1
 14 46  1  0
 15 47  1  0
 18 48  1  0
 19 49  1  0
 21 50  1  0
 22 51  1  0
 24 52  1  0
 30 53  1  0
 31 54  1  0
M  END
>  <smiles>  (60) 
O=C(NCC(=O)N1CCCCC1c1ccc(Cl)cc1)c1ccc2cc(C(F)(F)F)ccc2n1

>  <score_type>  (60) 
oracle

>  <origin>  (60) 
autodockgpu

>  <m_score__min__energy>  (60) 
-8.3300000000000001

>  <m_primary>  (60) 
energy

>  <rmsd>  (60) 
4.932917713541724

>  <m_score__min__rmsd>  (60) 
4.932917713541724

>  <meeko>  (60) 
{"free_energy": -7.08, "intermolecular_energy": -8.87, "internal_energy": -2.51, "cluster_size": 15, "cluster_id": 6, "rank_in_cluster": 9}

>  <energy>  (60) 
-7.81

>  <cluster_rmsd>  (60) 
1.78

>  <cluster>  (60) 
2

$$$$

     RDKit          3D

 54 57  0  0  0  0  0  0  0  0999 V2000
  139.6280   74.5600  220.5610 O   0  0  0  0  0  0  0  0  0  0  0  0
  140.7600   74.7760  221.0980 C   0  0  0  0  0  0  0  0  0  0  0  0
  140.9130   75.8180  222.0760 N   0  0  0  0  0  0  0  0  0  0  0  0
  139.6980   76.5720  222.3780 C   0  0  0  0  0  0  0  0  0  0  0  0
  139.7500   77.9260  221.7730 C   0  0  0  0  0  0  0  0  0  0  0  0
  138.8160   78.3840  221.0420 O   0  0  0  0  0  0  0  0  0  0  0  0
  140.8570   78.7580  221.9960 N   0  0  0  0  0  0  0  0  0  0  0  0
  141.5050   78.7000  223.3150 C   0  0  0  0  0  0  0  0  0  0  0  0
  141.5200   80.0960  223.9130 C   0  0  0  0  0  0  0  0  0  0  0  0
  141.8620   81.1390  222.8830 C   0  0  0  0  0  0  0  0  0  0  0  0
  142.4640   80.5090  221.6330 C   0  0  0  0  0  0  0  0  0  0  0  0
  141.3850   79.6600  220.9970 C   0  0  1  0  0  0  0  0  0  0  0  0
  141.8690   78.9850  219.7730 C   0  0  0  0  0  0  0  0  0  0  0  0
  141.9730   79.7470  218.6140 C   0  0  0  0  0  0  0  0  0  0  0  0
  142.4180   79.1490  217.4620 C   0  0  0  0  0  0  0  0  0  0  0  0
  142.7540   77.8190  217.4630 C   0  0  0  0  0  0  0  0  0  0  0  0
  143.3270   77.0650  215.9670 Cl  0  0  0  0  0  0  0  0  0  0  0  0
  142.6540   77.0460  218.6160 C   0  0  0  0  0  0  0  0  0  0  0  0
  142.2070   77.6330  219.7880 C   0  0  0  0  0  0  0  0  0  0  0  0
  141.9120   73.9580  220.7200 C   0  0  0  0  0  0  0  0  0  0  0  0
  143.1520   74.5180  220.6490 C   0  0  0  0  0  0  0  0  0  0  0  0
  144.3000   73.8230  220.3010 C   0  0  0  0  0  0  0  0  0  0  0  0
  144.1400   72.4840  220.0140 C   0  0  0  0  0  0  0  0  0  0  0  0
  145.2390   71.7320  219.6600 C   0  0  0  0  0  0  0  0  0  0  0  0
  145.1320   70.3850  219.3640 C   0  0  0  0  0  0  0  0  0  0  0  0
  146.3010   69.5730  218.9850 C   0  0  0  0  0  0  0  0  0  0  0  0
  147.3890   69.9990  219.7190 F   0  0  0  0  0  0  0  0  0  0  0  0
  146.5790   69.7930  217.6450 F   0  0  0  0  0  0  0  0  0  0  0  0
  146.1230   68.2310  219.2270 F   0  0  0  0  0  0  0  0  0  0  0  0
  143.8710   69.8060  219.4350 C   0  0  0  0  0  0  0  0  0  0  0  0
  142.7610   70.5590  219.7900 C   0  0  0  0  0  0  0  0  0  0  0  0
  142.8780   71.9020  220.0840 C   0  0  0  0  0  0  0  0  0  0  0  0
  141.7910   72.6370  220.4320 N   0  0  0  0  0  0  0  0  0  0  0  0
  141.8270   76.0240  222.5380 H   0  0  0  0  0  0  0  0  0  0  0  0
  138.8291   76.0309  221.9753 H   0  0  0  0  0  0  0  0  0  0  0  0
  139.6129   76.6782  223.4696 H   0  0  0  0  0  0  0  0  0  0  0  0
  140.9432   78.0214  223.9737 H   0  0  0  0  0  0  0  0  0  0  0  0
  142.5343   78.3264  223.2104 H   0  0  0  0  0  0  0  0  0  0  0  0
  140.5254   80.3170  224.3275 H   0  0  0  0  0  0  0  0  0  0  0  0
  142.2895   80.1244  224.6985 H   0  0  0  0  0  0  0  0  0  0  0  0
  140.9463   81.6813  222.6050 H   0  0  0  0  0  0  0  0  0  0  0  0
  142.6047   81.8244  223.3174 H   0  0  0  0  0  0  0  0  0  0  0  0
  142.7874   81.2939  220.9335 H   0  0  0  0  0  0  0  0  0  0  0  0
  143.3427   79.8982  221.8876 H   0  0  0  0  0  0  0  0  0  0  0  0
  140.5577   80.2961  220.6492 H   0  0  0  0  0  0  0  0  0  0  0  0
  141.7025   80.8132  218.6209 H   0  0  0  0  0  0  0  0  0  0  0  0
  142.5054   79.7369  216.5364 H   0  0  0  0  0  0  0  0  0  0  0  0
  142.9270   75.9806  218.5966 H   0  0  0  0  0  0  0  0  0  0  0  0
  142.1204   77.0436  220.7127 H   0  0  0  0  0  0  0  0  0  0  0  0
  143.2483   75.5886  220.8824 H   0  0  0  0  0  0  0  0  0  0  0  0
  145.2840   74.3127  220.2563 H   0  0  0  0  0  0  0  0  0  0  0  0
  146.2261   72.2149  219.6116 H   0  0  0  0  0  0  0  0  0  0  0  0
  143.7511   68.7366  219.2068 H   0  0  0  0  0  0  0  0  0  0  0  0
  141.7729   70.0781  219.8378 H   0  0  0  0  0  0  0  0  0  0  0  0
  1  2  2  0
  2  3  1  0
  3  4  1  0
  4  5  1  0
  5  6  2  0
  5  7  1  0
  7  8  1  0
  8  9  1  0
  9 10  1  0
 10 11  1  0
 11 12  1  0
 12 13  1  0
 13 14  2  0
 14 15  1  0
 15 16  2  0
 16 17  1  0
 16 18  1  0
 18 19  2  0
  2 20  1  0
 20 21  2  0
 21 22  1  0
 22 23  2  0
 23 24  1  0
 24 25  2  0
 25 26  1  0
 26 27  1  0
 26 28  1  0
 26 29  1  0
 25 30  1  0
 30 31  2  0
 31 32  1  0
 32 33  2  0
 12  7  1  0
 19 13  1  0
 33 20  1  0
 32 23  1  0
  3 34  1  0
  4 35  1  0
  4 36  1  0
  8 37  1  0
  8 38  1  0
  9 39  1  0
  9 40  1  0
 10 41  1  0
 10 42  1  0
 11 43  1  0
 11 44  1  0
 12 45  1  6
 14 46  1  0
 15 47  1  0
 18 48  1  0
 19 49  1  0
 21 50  1  0
 22 51  1  0
 24 52  1  0
 30 53  1  0
 31 54  1  0
M  END
>  <smiles>  (61) 
O=C(NCC(=O)N1CCCCC1c1ccc(Cl)cc1)c1ccc2cc(C(F)(F)F)ccc2n1

>  <score_type>  (61) 
oracle

>  <origin>  (61) 
autodockgpu

>  <m_score__min__energy>  (61) 
-8.3300000000000001

>  <m_primary>  (61) 
energy

>  <rmsd>  (61) 
6.620219512952157

>  <m_score__min__rmsd>  (61) 
6.620219512952157

>  <meeko>  (61) 
{"free_energy": -7.0, "intermolecular_energy": -8.79, "internal_energy": -2.05, "cluster_size": 1, "cluster_id": 8, "rank_in_cluster": 1}

>  <energy>  (61) 
-7.81

>  <cluster_rmsd>  (61) 
1.79

>  <cluster>  (61) 
2

$$$$

     RDKit          3D

 54 57  0  0  0  0  0  0  0  0999 V2000
  140.2830   73.4380  220.5740 O   0  0  0  0  0  0  0  0  0  0  0  0
  139.9650   73.6290  221.7900 C   0  0  0  0  0  0  0  0  0  0  0  0
  139.7730   74.9620  222.2910 N   0  0  0  0  0  0  0  0  0  0  0  0
  139.9700   76.0290  221.3120 C   0  0  0  0  0  0  0  0  0  0  0  0
  139.7060   77.3580  221.9170 C   0  0  0  0  0  0  0  0  0  0  0  0
  138.5500   77.7090  222.3150 O   0  0  0  0  0  0  0  0  0  0  0  0
  140.7450   78.2860  222.0690 N   0  0  0  0  0  0  0  0  0  0  0  0
  141.3470   78.4300  223.4030 C   0  0  0  0  0  0  0  0  0  0  0  0
  141.2480   79.8850  223.8280 C   0  0  0  0  0  0  0  0  0  0  0  0
  141.5580   80.8200  222.6900 C   0  0  0  0  0  0  0  0  0  0  0  0
  142.2450   80.0900  221.5430 C   0  0  0  0  0  0  0  0  0  0  0  0
  141.2490   79.0980  220.9840 C   0  0  1  0  0  0  0  0  0  0  0  0
  141.8210   78.3180  219.8640 C   0  0  0  0  0  0  0  0  0  0  0  0
  141.6060   78.7890  218.5730 C   0  0  0  0  0  0  0  0  0  0  0  0
  142.1230   78.0870  217.5140 C   0  0  0  0  0  0  0  0  0  0  0  0
  142.8410   76.9390  217.7340 C   0  0  0  0  0  0  0  0  0  0  0  0
  143.5020   76.0470  216.3550 Cl  0  0  0  0  0  0  0  0  0  0  0  0
  143.0630   76.4580  219.0210 C   0  0  0  0  0  0  0  0  0  0  0  0
  142.5490   77.1530  220.1020 C   0  0  0  0  0  0  0  0  0  0  0  0
  139.7920   72.4840  222.6840 C   0  0  0  0  0  0  0  0  0  0  0  0
  138.7700   71.6060  222.4800 C   0  0  0  0  0  0  0  0  0  0  0  0
  138.5290   70.4950  223.2730 C   0  0  0  0  0  0  0  0  0  0  0  0
  139.3970   70.2960  224.3270 C   0  0  0  0  0  0  0  0  0  0  0  0
  139.2160   69.2120  225.1560 C   0  0  0  0  0  0  0  0  0  0  0  0
  140.0590   68.9660  226.2250 C   0  0  0  0  0  0  0  0  0  0  0  0
  139.8740   67.8100  227.1180 C   0  0  0  0  0  0  0  0  0  0  0  0
  139.5940   68.2750  228.3860 F   0  0  0  0  0  0  0  0  0  0  0  0
  141.0630   67.0990  227.1770 F   0  0  0  0  0  0  0  0  0  0  0  0
  138.8410   66.9910  226.7270 F   0  0  0  0  0  0  0  0  0  0  0  0
  141.1040   69.8560  226.4400 C   0  0  0  0  0  0  0  0  0  0  0  0
  141.2900   70.9510  225.6080 C   0  0  0  0  0  0  0  0  0  0  0  0
  140.4440   71.1860  224.5440 C   0  0  0  0  0  0  0  0  0  0  0  0
  140.6280   72.2580  223.7300 N   0  0  0  0  0  0  0  0  0  0  0  0
  139.5110   75.1560  223.2830 H   0  0  0  0  0  0  0  0  0  0  0  0
  141.0081   75.9981  220.9496 H   0  0  0  0  0  0  0  0  0  0  0  0
  139.2677   75.8761  220.4793 H   0  0  0  0  0  0  0  0  0  0  0  0
  140.8076   77.7967  224.1227 H   0  0  0  0  0  0  0  0  0  0  0  0
  142.4018   78.1193  223.3735 H   0  0  0  0  0  0  0  0  0  0  0  0
  140.2264   80.0835  224.1842 H   0  0  0  0  0  0  0  0  0  0  0  0
  141.9848   80.0600  224.6258 H   0  0  0  0  0  0  0  0  0  0  0  0
  140.6194   81.2606  222.3228 H   0  0  0  0  0  0  0  0  0  0  0  0
  142.2377   81.6020  223.0595 H   0  0  0  0  0  0  0  0  0  0  0  0
  142.5409   80.8072  220.7632 H   0  0  0  0  0  0  0  0  0  0  0  0
  143.1522   79.5767  221.8944 H   0  0  0  0  0  0  0  0  0  0  0  0
  140.3948   79.6291  220.5386 H   0  0  0  0  0  0  0  0  0  0  0  0
  141.0300   79.7107  218.4038 H   0  0  0  0  0  0  0  0  0  0  0  0
  141.9616   78.4452  216.4866 H   0  0  0  0  0  0  0  0  0  0  0  0
  143.6409   75.5352  219.1774 H   0  0  0  0  0  0  0  0  0  0  0  0
  142.7117   76.7933  221.1287 H   0  0  0  0  0  0  0  0  0  0  0  0
  138.0936   71.7906  221.6325 H   0  0  0  0  0  0  0  0  0  0  0  0
  137.6920   69.8098  223.0731 H   0  0  0  0  0  0  0  0  0  0  0  0
  138.3797   68.5238  224.9635 H   0  0  0  0  0  0  0  0  0  0  0  0
  141.7933   69.6904  227.2811 H   0  0  0  0  0  0  0  0  0  0  0  0
  142.1243   71.6417  225.7998 H   0  0  0  0  0  0  0  0  0  0  0  0
  1  2  2  0
  2  3  1  0
  3  4  1  0
  4  5  1  0
  5  6  2  0
  5  7  1  0
  7  8  1  0
  8  9  1  0
  9 10  1  0
 10 11  1  0
 11 12  1  0
 12 13  1  0
 13 14  2  0
 14 15  1  0
 15 16  2  0
 16 17  1  0
 16 18  1  0
 18 19  2  0
  2 20  1  0
 20 21  2  0
 21 22  1  0
 22 23  2  0
 23 24  1  0
 24 25  2  0
 25 26  1  0
 26 27  1  0
 26 28  1  0
 26 29  1  0
 25 30  1  0
 30 31  2  0
 31 32  1  0
 32 33  2  0
 12  7  1  0
 19 13  1  0
 33 20  1  0
 32 23  1  0
  3 34  1  0
  4 35  1  0
  4 36  1  0
  8 37  1  0
  8 38  1  0
  9 39  1  0
  9 40  1  0
 10 41  1  0
 10 42  1  0
 11 43  1  0
 11 44  1  0
 12 45  1  6
 14 46  1  0
 15 47  1  0
 18 48  1  0
 19 49  1  0
 21 50  1  0
 22 51  1  0
 24 52  1  0
 30 53  1  0
 31 54  1  0
M  END
>  <smiles>  (62) 
O=C(NCC(=O)N1CCCCC1c1ccc(Cl)cc1)c1ccc2cc(C(F)(F)F)ccc2n1

>  <score_type>  (62) 
oracle

>  <origin>  (62) 
autodockgpu

>  <m_score__min__energy>  (62) 
-8.3300000000000001

>  <m_primary>  (62) 
energy

>  <rmsd>  (62) 
3.925273951772513

>  <m_score__min__rmsd>  (62) 
3.925273951772513

>  <meeko>  (62) 
{"free_energy": -8.31, "intermolecular_energy": -10.1, "internal_energy": -1.49, "cluster_size": 13, "cluster_id": 2, "rank_in_cluster": 1}

>  <energy>  (62) 
-7.78

>  <cluster_rmsd>  (62) 
1.79

>  <cluster>  (62) 
2

$$$$

     RDKit          3D

 54 57  0  0  0  0  0  0  0  0999 V2000
  140.5450   79.7480  219.1320 O   0  0  0  0  0  0  0  0  0  0  0  0
  141.6090   79.3290  219.6870 C   0  0  0  0  0  0  0  0  0  0  0  0
  142.1980   80.0590  220.7760 N   0  0  0  0  0  0  0  0  0  0  0  0
  141.4900   81.2760  221.1650 C   0  0  0  0  0  0  0  0  0  0  0  0
  140.9270   81.1480  222.5320 C   0  0  0  0  0  0  0  0  0  0  0  0
  141.6450   81.2470  223.5770 O   0  0  0  0  0  0  0  0  0  0  0  0
  139.5580   80.9070  222.7140 N   0  0  0  0  0  0  0  0  0  0  0  0
  138.6080   81.8180  222.0580 C   0  0  0  0  0  0  0  0  0  0  0  0
  137.6870   82.4060  223.1130 C   0  0  0  0  0  0  0  0  0  0  0  0
  137.2600   81.3700  224.1180 C   0  0  0  0  0  0  0  0  0  0  0  0
  137.5410   79.9590  223.6160 C   0  0  0  0  0  0  0  0  0  0  0  0
  139.0430   79.8140  223.5080 C   0  0  1  0  0  0  0  0  0  0  0  0
  139.4310   78.4760  223.0120 C   0  0  0  0  0  0  0  0  0  0  0  0
  138.4270   77.6630  222.4940 C   0  0  0  0  0  0  0  0  0  0  0  0
  138.7550   76.4160  222.0260 C   0  0  0  0  0  0  0  0  0  0  0  0
  140.0560   75.9850  222.0710 C   0  0  0  0  0  0  0  0  0  0  0  0
  140.4610   74.3720  221.4620 Cl  0  0  0  0  0  0  0  0  0  0  0  0
  141.0700   76.7880  222.5870 C   0  0  0  0  0  0  0  0  0  0  0  0
  140.7570   78.0500  223.0630 C   0  0  0  0  0  0  0  0  0  0  0  0
  142.2360   78.0940  219.2160 C   0  0  0  0  0  0  0  0  0  0  0  0
  142.4460   77.9010  217.8840 C   0  0  0  0  0  0  0  0  0  0  0  0
  143.0320   76.7660  217.3450 C   0  0  0  0  0  0  0  0  0  0  0  0
  143.4140   75.7910  218.2430 C   0  0  0  0  0  0  0  0  0  0  0  0
  144.0030   74.6360  217.7780 C   0  0  0  0  0  0  0  0  0  0  0  0
  144.4050   73.6290  218.6360 C   0  0  0  0  0  0  0  0  0  0  0  0
  145.0350   72.3900  218.1480 C   0  0  0  0  0  0  0  0  0  0  0  0
  145.9290   71.9470  219.1010 F   0  0  0  0  0  0  0  0  0  0  0  0
  145.7510   72.6800  216.9960 F   0  0  0  0  0  0  0  0  0  0  0  0
  144.1280   71.3840  217.9130 F   0  0  0  0  0  0  0  0  0  0  0  0
  144.1950   73.8180  219.9960 C   0  0  0  0  0  0  0  0  0  0  0  0
  143.6010   74.9790  220.4710 C   0  0  0  0  0  0  0  0  0  0  0  0
  143.2050   75.9780  219.6060 C   0  0  0  0  0  0  0  0  0  0  0  0
  142.6240   77.1140  220.0710 N   0  0  0  0  0  0  0  0  0  0  0  0
  143.0710   79.7440  221.2550 H   0  0  0  0  0  0  0  0  0  0  0  0
  142.1912   82.1233  221.1423 H   0  0  0  0  0  0  0  0  0  0  0  0
  140.6631   81.4421  220.4588 H   0  0  0  0  0  0  0  0  0  0  0  0
  139.1583   82.6269  221.5551 H   0  0  0  0  0  0  0  0  0  0  0  0
  138.0175   81.2679  221.3105 H   0  0  0  0  0  0  0  0  0  0  0  0
  138.2164   83.2150  223.6377 H   0  0  0  0  0  0  0  0  0  0  0  0
  136.7865   82.7868  222.6089 H   0  0  0  0  0  0  0  0  0  0  0  0
  137.8114   81.5326  225.0558 H   0  0  0  0  0  0  0  0  0  0  0  0
  136.1766   81.4705  224.2796 H   0  0  0  0  0  0  0  0  0  0  0  0
  137.1410   79.2198  224.3256 H   0  0  0  0  0  0  0  0  0  0  0  0
  137.0609   79.7883  222.6411 H   0  0  0  0  0  0  0  0  0  0  0  0
  139.5021   79.8790  224.5055 H   0  0  0  0  0  0  0  0  0  0  0  0
  137.3855   78.0154  222.4604 H   0  0  0  0  0  0  0  0  0  0  0  0
  137.9733   75.7608  221.6140 H   0  0  0  0  0  0  0  0  0  0  0  0
  142.1076   76.4239  222.6161 H   0  0  0  0  0  0  0  0  0  0  0  0
  141.5402   78.7041  223.4737 H   0  0  0  0  0  0  0  0  0  0  0  0
  142.1307   78.6960  217.1922 H   0  0  0  0  0  0  0  0  0  0  0  0
  143.1838   76.6495  216.2618 H   0  0  0  0  0  0  0  0  0  0  0  0
  144.1576   74.5115  216.6961 H   0  0  0  0  0  0  0  0  0  0  0  0
  144.5037   73.0368  220.7063 H   0  0  0  0  0  0  0  0  0  0  0  0
  143.4438   75.1043  221.5525 H   0  0  0  0  0  0  0  0  0  0  0  0
  1  2  2  0
  2  3  1  0
  3  4  1  0
  4  5  1  0
  5  6  2  0
  5  7  1  0
  7  8  1  0
  8  9  1  0
  9 10  1  0
 10 11  1  0
 11 12  1  0
 12 13  1  0
 13 14  2  0
 14 15  1  0
 15 16  2  0
 16 17  1  0
 16 18  1  0
 18 19  2  0
  2 20  1  0
 20 21  2  0
 21 22  1  0
 22 23  2  0
 23 24  1  0
 24 25  2  0
 25 26  1  0
 26 27  1  0
 26 28  1  0
 26 29  1  0
 25 30  1  0
 30 31  2  0
 31 32  1  0
 32 33  2  0
 12  7  1  0
 19 13  1  0
 33 20  1  0
 32 23  1  0
  3 34  1  0
  4 35  1  0
  4 36  1  0
  8 37  1  0
  8 38  1  0
  9 39  1  0
  9 40  1  0
 10 41  1  0
 10 42  1  0
 11 43  1  0
 11 44  1  0
 12 45  1  1
 14 46  1  0
 15 47  1  0
 18 48  1  0
 19 49  1  0
 21 50  1  0
 22 51  1  0
 24 52  1  0
 30 53  1  0
 31 54  1  0
M  END
>  <smiles>  (63) 
O=C(NCC(=O)N1CCCCC1c1ccc(Cl)cc1)c1ccc2cc(C(F)(F)F)ccc2n1

>  <score_type>  (63) 
oracle

>  <origin>  (63) 
autodockgpu

>  <m_score__min__energy>  (63) 
-8.3300000000000001

>  <m_primary>  (63) 
energy

>  <rmsd>  (63) 
8.859248220636458

>  <m_score__min__rmsd>  (63) 
8.859248220636458

>  <meeko>  (63) 
{"free_energy": -6.54, "intermolecular_energy": -8.33, "internal_energy": -2.69, "cluster_size": 2, "cluster_id": 9, "rank_in_cluster": 2}

>  <energy>  (63) 
-7.76

>  <cluster_rmsd>  (63) 
1.63

>  <cluster>  (63) 
2

$$$$

     RDKit          3D

 54 57  0  0  0  0  0  0  0  0999 V2000
  140.0450   75.3500  219.3700 O   0  0  0  0  0  0  0  0  0  0  0  0
  140.5950   74.9930  220.4590 C   0  0  0  0  0  0  0  0  0  0  0  0
  141.7220   75.7190  220.9770 N   0  0  0  0  0  0  0  0  0  0  0  0
  142.1550   76.8560  220.1670 C   0  0  0  0  0  0  0  0  0  0  0  0
  141.1970   77.9830  220.2800 C   0  0  0  0  0  0  0  0  0  0  0  0
  140.3880   78.2880  219.3460 O   0  0  0  0  0  0  0  0  0  0  0  0
  141.1560   78.7620  221.4440 N   0  0  0  0  0  0  0  0  0  0  0  0
  141.6030   80.1600  221.3510 C   0  0  0  0  0  0  0  0  0  0  0  0
  142.7110   80.3870  222.3640 C   0  0  0  0  0  0  0  0  0  0  0  0
  142.4120   79.7140  223.6780 C   0  0  0  0  0  0  0  0  0  0  0  0
  140.9440   79.3150  223.7750 C   0  0  0  0  0  0  0  0  0  0  0  0
  140.6970   78.2590  222.7200 C   0  0  1  0  0  0  0  0  0  0  0  0
  139.2880   77.8070  222.7160 C   0  0  0  0  0  0  0  0  0  0  0  0
  138.2970   78.7830  222.7210 C   0  0  0  0  0  0  0  0  0  0  0  0
  136.9810   78.3950  222.7170 C   0  0  0  0  0  0  0  0  0  0  0  0
  136.6570   77.0620  222.7100 C   0  0  0  0  0  0  0  0  0  0  0  0
  134.9530   76.5800  222.7060 Cl  0  0  0  0  0  0  0  0  0  0  0  0
  137.6400   76.0760  222.7050 C   0  0  0  0  0  0  0  0  0  0  0  0
  138.9730   76.4490  222.7080 C   0  0  0  0  0  0  0  0  0  0  0  0
  140.0770   73.8360  221.1900 C   0  0  0  0  0  0  0  0  0  0  0  0
  139.0030   73.1500  220.7090 C   0  0  0  0  0  0  0  0  0  0  0  0
  138.4450   72.0440  221.3310 C   0  0  0  0  0  0  0  0  0  0  0  0
  139.0380   71.6410  222.5090 C   0  0  0  0  0  0  0  0  0  0  0  0
  138.5350   70.5490  223.1800 C   0  0  0  0  0  0  0  0  0  0  0  0
  139.0940   70.1030  224.3640 C   0  0  0  0  0  0  0  0  0  0  0  0
  138.5630   68.9370  225.0900 C   0  0  0  0  0  0  0  0  0  0  0  0
  137.1920   68.9080  224.9310 F   0  0  0  0  0  0  0  0  0  0  0  0
  138.8300   69.0950  226.4410 F   0  0  0  0  0  0  0  0  0  0  0  0
  139.0700   67.7440  224.6330 F   0  0  0  0  0  0  0  0  0  0  0  0
  140.1900   70.7970  224.8620 C   0  0  0  0  0  0  0  0  0  0  0  0
  140.7010   71.8990  224.1890 C   0  0  0  0  0  0  0  0  0  0  0  0
  140.1360   72.3340  223.0090 C   0  0  0  0  0  0  0  0  0  0  0  0
  140.6370   73.4120  222.3510 N   0  0  0  0  0  0  0  0  0  0  0  0
  142.1980   75.4550  221.8680 H   0  0  0  0  0  0  0  0  0  0  0  0
  143.1446   77.1887  220.5134 H   0  0  0  0  0  0  0  0  0  0  0  0
  142.2022   76.5395  219.1146 H   0  0  0  0  0  0  0  0  0  0  0  0
  141.9814   80.3607  220.3378 H   0  0  0  0  0  0  0  0  0  0  0  0
  140.7611   80.8366  221.5595 H   0  0  0  0  0  0  0  0  0  0  0  0
  143.6507   79.9809  221.9613 H   0  0  0  0  0  0  0  0  0  0  0  0
  142.7939   81.4689  222.5443 H   0  0  0  0  0  0  0  0  0  0  0  0
  143.0351   78.8120  223.7685 H   0  0  0  0  0  0  0  0  0  0  0  0
  142.6332   80.4231  224.4893 H   0  0  0  0  0  0  0  0  0  0  0  0
  140.7294   78.9073  224.7739 H   0  0  0  0  0  0  0  0  0  0  0  0
  140.2912   80.1860  223.6162 H   0  0  0  0  0  0  0  0  0  0  0  0
  141.2750   77.3518  222.9500 H   0  0  0  0  0  0  0  0  0  0  0  0
  138.5644   79.8500  222.7280 H   0  0  0  0  0  0  0  0  0  0  0  0
  136.1846   79.1538  222.7194 H   0  0  0  0  0  0  0  0  0  0  0  0
  137.3604   75.0122  222.6987 H   0  0  0  0  0  0  0  0  0  0  0  0
  139.7681   75.6889  222.7041 H   0  0  0  0  0  0  0  0  0  0  0  0
  138.5501   73.4954  219.7679 H   0  0  0  0  0  0  0  0  0  0  0  0
  137.5770   71.5168  220.9082 H   0  0  0  0  0  0  0  0  0  0  0  0
  137.6664   70.0177  222.7638 H   0  0  0  0  0  0  0  0  0  0  0  0
  140.6589   70.4692  225.8015 H   0  0  0  0  0  0  0  0  0  0  0  0
  141.5691   72.4326  224.6034 H   0  0  0  0  0  0  0  0  0  0  0  0
  1  2  2  0
  2  3  1  0
  3  4  1  0
  4  5  1  0
  5  6  2  0
  5  7  1  0
  7  8  1  0
  8  9  1  0
  9 10  1  0
 10 11  1  0
 11 12  1  0
 12 13  1  0
 13 14  2  0
 14 15  1  0
 15 16  2  0
 16 17  1  0
 16 18  1  0
 18 19  2  0
  2 20  1  0
 20 21  2  0
 21 22  1  0
 22 23  2  0
 23 24  1  0
 24 25  2  0
 25 26  1  0
 26 27  1  0
 26 28  1  0
 26 29  1  0
 25 30  1  0
 30 31  2  0
 31 32  1  0
 32 33  2  0
 12  7  1  0
 19 13  1  0
 33 20  1  0
 32 23  1  0
  3 34  1  0
  4 35  1  0
  4 36  1  0
  8 37  1  0
  8 38  1  0
  9 39  1  0
  9 40  1  0
 10 41  1  0
 10 42  1  0
 11 43  1  0
 11 44  1  0
 12 45  1  1
 14 46  1  0
 15 47  1  0
 18 48  1  0
 19 49  1  0
 21 50  1  0
 22 51  1  0
 24 52  1  0
 30 53  1  0
 31 54  1  0
M  END
>  <smiles>  (64) 
O=C(NCC(=O)N1CCCCC1c1ccc(Cl)cc1)c1ccc2cc(C(F)(F)F)ccc2n1

>  <score_type>  (64) 
oracle

>  <origin>  (64) 
autodockgpu

>  <m_score__min__energy>  (64) 
-8.3300000000000001

>  <m_primary>  (64) 
energy

>  <rmsd>  (64) 
4.988010834805013

>  <m_score__min__rmsd>  (64) 
4.988010834805013

>  <meeko>  (64) 
{"free_energy": -7.14, "intermolecular_energy": -8.93, "internal_energy": -2.49, "cluster_size": 15, "cluster_id": 6, "rank_in_cluster": 3}

>  <energy>  (64) 
-7.76

>  <cluster_rmsd>  (64) 
1.77

>  <cluster>  (64) 
2

$$$$

     RDKit          3D

 54 57  0  0  0  0  0  0  0  0999 V2000
  140.3180   75.0760  219.2370 O   0  0  0  0  0  0  0  0  0  0  0  0
  140.7540   74.8200  220.4040 C   0  0  0  0  0  0  0  0  0  0  0  0
  141.7960   75.6220  220.9830 N   0  0  0  0  0  0  0  0  0  0  0  0
  142.2870   76.7090  220.1400 C   0  0  0  0  0  0  0  0  0  0  0  0
  141.3630   77.8700  220.1800 C   0  0  0  0  0  0  0  0  0  0  0  0
  140.6830   78.2360  219.1700 O   0  0  0  0  0  0  0  0  0  0  0  0
  141.2110   78.6120  221.3590 N   0  0  0  0  0  0  0  0  0  0  0  0
  141.6070   80.0290  221.3340 C   0  0  0  0  0  0  0  0  0  0  0  0
  142.6340   80.2680  222.4270 C   0  0  0  0  0  0  0  0  0  0  0  0
  142.2730   79.5470  223.6980 C   0  0  0  0  0  0  0  0  0  0  0  0
  140.8200   79.0880  223.6830 C   0  0  0  0  0  0  0  0  0  0  0  0
  140.6880   78.0550  222.5860 C   0  0  1  0  0  0  0  0  0  0  0  0
  139.3030   77.5480  222.4740 C   0  0  0  0  0  0  0  0  0  0  0  0
  139.0860   76.1990  222.7330 C   0  0  0  0  0  0  0  0  0  0  0  0
  137.8120   75.6980  222.6370 C   0  0  0  0  0  0  0  0  0  0  0  0
  136.7730   76.5250  222.2890 C   0  0  0  0  0  0  0  0  0  0  0  0
  135.1360   75.8620  222.1700 Cl  0  0  0  0  0  0  0  0  0  0  0  0
  136.9780   77.8770  222.0270 C   0  0  0  0  0  0  0  0  0  0  0  0
  138.2560   78.3990  222.1200 C   0  0  0  0  0  0  0  0  0  0  0  0
  140.1880   73.7040  221.1620 C   0  0  0  0  0  0  0  0  0  0  0  0
  139.1040   73.0330  220.6820 C   0  0  0  0  0  0  0  0  0  0  0  0
  138.5010   71.9650  221.3290 C   0  0  0  0  0  0  0  0  0  0  0  0
  139.0600   71.5850  222.5310 C   0  0  0  0  0  0  0  0  0  0  0  0
  138.5120   70.5310  223.2280 C   0  0  0  0  0  0  0  0  0  0  0  0
  139.0350   70.1090  224.4370 C   0  0  0  0  0  0  0  0  0  0  0  0
  138.4560   68.9830  225.1900 C   0  0  0  0  0  0  0  0  0  0  0  0
  137.0920   68.9730  224.9840 F   0  0  0  0  0  0  0  0  0  0  0  0
  138.6800   69.1910  226.5420 F   0  0  0  0  0  0  0  0  0  0  0  0
  138.9560   67.7630  224.8000 F   0  0  0  0  0  0  0  0  0  0  0  0
  140.1420   70.7870  224.9340 C   0  0  0  0  0  0  0  0  0  0  0  0
  140.6980   71.8510  224.2360 C   0  0  0  0  0  0  0  0  0  0  0  0
  140.1680   72.2620  223.0300 C   0  0  0  0  0  0  0  0  0  0  0  0
  140.7130   73.3030  222.3480 N   0  0  0  0  0  0  0  0  0  0  0  0
  142.1770   75.4410  221.9390 H   0  0  0  0  0  0  0  0  0  0  0  0
  143.2774   77.0245  220.4999 H   0  0  0  0  0  0  0  0  0  0  0  0
  142.3519   76.3474  219.1032 H   0  0  0  0  0  0  0  0  0  0  0  0
  142.0449   80.2735  220.3550 H   0  0  0  0  0  0  0  0  0  0  0  0
  140.7266   80.6668  221.5017 H   0  0  0  0  0  0  0  0  0  0  0  0
  143.6141   79.9091  222.0797 H   0  0  0  0  0  0  0  0  0  0  0  0
  142.6621   81.3466  222.6410 H   0  0  0  0  0  0  0  0  0  0  0  0
  142.9250   78.6679  223.8084 H   0  0  0  0  0  0  0  0  0  0  0  0
  142.4082   80.2413  224.5404 H   0  0  0  0  0  0  0  0  0  0  0  0
  140.5555   78.6429  224.6535 H   0  0  0  0  0  0  0  0  0  0  0  0
  140.1443   79.9371  223.5028 H   0  0  0  0  0  0  0  0  0  0  0  0
  141.2859   77.1647  222.8306 H   0  0  0  0  0  0  0  0  0  0  0  0
  139.9239   75.5427  223.0109 H   0  0  0  0  0  0  0  0  0  0  0  0
  137.6233   74.6333  222.8390 H   0  0  0  0  0  0  0  0  0  0  0  0
  136.1326   78.5235  221.7489 H   0  0  0  0  0  0  0  0  0  0  0  0
  138.4427   79.4642  221.9187 H   0  0  0  0  0  0  0  0  0  0  0  0
  138.6803   73.3589  219.7206 H   0  0  0  0  0  0  0  0  0  0  0  0
  137.6256   71.4496  220.9070 H   0  0  0  0  0  0  0  0  0  0  0  0
  137.6359   70.0115  222.8125 H   0  0  0  0  0  0  0  0  0  0  0  0
  140.5833   70.4767  225.8926 H   0  0  0  0  0  0  0  0  0  0  0  0
  141.5730   72.3734  224.6501 H   0  0  0  0  0  0  0  0  0  0  0  0
  1  2  2  0
  2  3  1  0
  3  4  1  0
  4  5  1  0
  5  6  2  0
  5  7  1  0
  7  8  1  0
  8  9  1  0
  9 10  1  0
 10 11  1  0
 11 12  1  0
 12 13  1  0
 13 14  2  0
 14 15  1  0
 15 16  2  0
 16 17  1  0
 16 18  1  0
 18 19  2  0
  2 20  1  0
 20 21  2  0
 21 22  1  0
 22 23  2  0
 23 24  1  0
 24 25  2  0
 25 26  1  0
 26 27  1  0
 26 28  1  0
 26 29  1  0
 25 30  1  0
 30 31  2  0
 31 32  1  0
 32 33  2  0
 12  7  1  0
 19 13  1  0
 33 20  1  0
 32 23  1  0
  3 34  1  0
  4 35  1  0
  4 36  1  0
  8 37  1  0
  8 38  1  0
  9 39  1  0
  9 40  1  0
 10 41  1  0
 10 42  1  0
 11 43  1  0
 11 44  1  0
 12 45  1  1
 14 46  1  0
 15 47  1  0
 18 48  1  0
 19 49  1  0
 21 50  1  0
 22 51  1  0
 24 52  1  0
 30 53  1  0
 31 54  1  0
M  END
>  <smiles>  (65) 
O=C(NCC(=O)N1CCCCC1c1ccc(Cl)cc1)c1ccc2cc(C(F)(F)F)ccc2n1

>  <score_type>  (65) 
oracle

>  <origin>  (65) 
autodockgpu

>  <m_score__min__energy>  (65) 
-8.3300000000000001

>  <m_primary>  (65) 
energy

>  <rmsd>  (65) 
4.919916462525574

>  <m_score__min__rmsd>  (65) 
4.919916462525574

>  <meeko>  (65) 
{"free_energy": -6.87, "intermolecular_energy": -8.66, "internal_energy": -2.65, "cluster_size": 15, "cluster_id": 6, "rank_in_cluster": 14}

>  <energy>  (65) 
-7.72

>  <cluster_rmsd>  (65) 
1.84

>  <cluster>  (65) 
2

$$$$

     RDKit          3D

 54 57  0  0  0  0  0  0  0  0999 V2000
  140.8880   73.4620  220.7790 O   0  0  0  0  0  0  0  0  0  0  0  0
  140.0580   73.5320  221.7390 C   0  0  0  0  0  0  0  0  0  0  0  0
  139.2780   74.7220  221.9400 N   0  0  0  0  0  0  0  0  0  0  0  0
  139.5210   75.7960  220.9790 C   0  0  0  0  0  0  0  0  0  0  0  0
  140.7040   76.6020  221.3720 C   0  0  0  0  0  0  0  0  0  0  0  0
  141.1110   76.6750  222.5750 O   0  0  0  0  0  0  0  0  0  0  0  0
  141.4210   77.3230  220.4080 N   0  0  0  0  0  0  0  0  0  0  0  0
  141.8170   78.7010  220.7350 C   0  0  0  0  0  0  0  0  0  0  0  0
  141.2710   79.6320  219.6660 C   0  0  0  0  0  0  0  0  0  0  0  0
  141.4220   79.0480  218.2870 C   0  0  0  0  0  0  0  0  0  0  0  0
  142.4010   77.8800  218.2840 C   0  0  0  0  0  0  0  0  0  0  0  0
  141.7860   76.7780  219.1190 C   0  0  1  0  0  0  0  0  0  0  0  0
  142.6660   75.5920  219.1960 C   0  0  0  0  0  0  0  0  0  0  0  0
  142.3940   74.5300  218.3390 C   0  0  0  0  0  0  0  0  0  0  0  0
  143.1910   73.4150  218.3860 C   0  0  0  0  0  0  0  0  0  0  0  0
  144.2400   73.3560  219.2680 C   0  0  0  0  0  0  0  0  0  0  0  0
  145.2590   71.9090  219.3150 Cl  0  0  0  0  0  0  0  0  0  0  0  0
  144.5230   74.4120  220.1310 C   0  0  0  0  0  0  0  0  0  0  0  0
  143.7290   75.5450  220.0960 C   0  0  0  0  0  0  0  0  0  0  0  0
  139.8950   72.3940  222.6430 C   0  0  0  0  0  0  0  0  0  0  0  0
  138.9540   71.4440  222.3820 C   0  0  0  0  0  0  0  0  0  0  0  0
  138.7280   70.3330  223.1800 C   0  0  0  0  0  0  0  0  0  0  0  0
  139.5230   70.2140  224.3010 C   0  0  0  0  0  0  0  0  0  0  0  0
  139.3530   69.1340  225.1380 C   0  0  0  0  0  0  0  0  0  0  0  0
  140.1250   68.9670  226.2740 C   0  0  0  0  0  0  0  0  0  0  0  0
  139.9500   67.8160  227.1760 C   0  0  0  0  0  0  0  0  0  0  0  0
  141.0770   67.0240  227.1000 F   0  0  0  0  0  0  0  0  0  0  0  0
  138.8710   67.0660  226.7350 F   0  0  0  0  0  0  0  0  0  0  0  0
  139.7770   68.1860  228.4900 F   0  0  0  0  0  0  0  0  0  0  0  0
  141.0870   69.9310  226.5480 C   0  0  0  0  0  0  0  0  0  0  0  0
  141.2620   71.0220  225.7070 C   0  0  0  0  0  0  0  0  0  0  0  0
  140.4870   71.1780  224.5770 C   0  0  0  0  0  0  0  0  0  0  0  0
  140.6600   72.2450  223.7550 N   0  0  0  0  0  0  0  0  0  0  0  0
  138.5870   74.8150  222.7170 H   0  0  0  0  0  0  0  0  0  0  0  0
  139.6981   75.3572  219.9860 H   0  0  0  0  0  0  0  0  0  0  0  0
  138.6396   76.4537  220.9573 H   0  0  0  0  0  0  0  0  0  0  0  0
  141.4051   78.9816  221.7156 H   0  0  0  0  0  0  0  0  0  0  0  0
  142.9138   78.7765  220.7728 H   0  0  0  0  0  0  0  0  0  0  0  0
  140.2036   79.8119  219.8617 H   0  0  0  0  0  0  0  0  0  0  0  0
  141.8434   80.5706  219.7047 H   0  0  0  0  0  0  0  0  0  0  0  0
  140.4406   78.6938  217.9385 H   0  0  0  0  0  0  0  0  0  0  0  0
  141.8130   79.8302  217.6198 H   0  0  0  0  0  0  0  0  0  0  0  0
  142.5633   77.5270  217.2549 H   0  0  0  0  0  0  0  0  0  0  0  0
  143.3741   78.1853  218.6962 H   0  0  0  0  0  0  0  0  0  0  0  0
  140.8683   76.4067  218.6394 H   0  0  0  0  0  0  0  0  0  0  0  0
  141.5515   74.5841  217.6338 H   0  0  0  0  0  0  0  0  0  0  0  0
  142.9888   72.5667  217.7155 H   0  0  0  0  0  0  0  0  0  0  0  0
  145.3679   74.3462  220.8323 H   0  0  0  0  0  0  0  0  0  0  0  0
  143.9332   76.3929  220.7663 H   0  0  0  0  0  0  0  0  0  0  0  0
  138.3344   71.5662  221.4813 H   0  0  0  0  0  0  0  0  0  0  0  0
  137.9575   69.5878  222.9329 H   0  0  0  0  0  0  0  0  0  0  0  0
  138.5840   68.3851  224.8975 H   0  0  0  0  0  0  0  0  0  0  0  0
  141.7184   69.8287  227.4429 H   0  0  0  0  0  0  0  0  0  0  0  0
  142.0299   71.7727  225.9456 H   0  0  0  0  0  0  0  0  0  0  0  0
  1  2  2  0
  2  3  1  0
  3  4  1  0
  4  5  1  0
  5  6  2  0
  5  7  1  0
  7  8  1  0
  8  9  1  0
  9 10  1  0
 10 11  1  0
 11 12  1  0
 12 13  1  0
 13 14  2  0
 14 15  1  0
 15 16  2  0
 16 17  1  0
 16 18  1  0
 18 19  2  0
  2 20  1  0
 20 21  2  0
 21 22  1  0
 22 23  2  0
 23 24  1  0
 24 25  2  0
 25 26  1  0
 26 27  1  0
 26 28  1  0
 26 29  1  0
 25 30  1  0
 30 31  2  0
 31 32  1  0
 32 33  2  0
 12  7  1  0
 19 13  1  0
 33 20  1  0
 32 23  1  0
  3 34  1  0
  4 35  1  0
  4 36  1  0
  8 37  1  0
  8 38  1  0
  9 39  1  0
  9 40  1  0
 10 41  1  0
 10 42  1  0
 11 43  1  0
 11 44  1  0
 12 45  1  6
 14 46  1  0
 15 47  1  0
 18 48  1  0
 19 49  1  0
 21 50  1  0
 22 51  1  0
 24 52  1  0
 30 53  1  0
 31 54  1  0
M  END
>  <smiles>  (66) 
O=C(NCC(=O)N1CCCCC1c1ccc(Cl)cc1)c1ccc2cc(C(F)(F)F)ccc2n1

>  <score_type>  (66) 
oracle

>  <origin>  (66) 
autodockgpu

>  <m_score__min__energy>  (66) 
-8.3300000000000001

>  <m_primary>  (66) 
energy

>  <rmsd>  (66) 
2.88454776367682

>  <m_score__min__rmsd>  (66) 
2.88454776367682

>  <meeko>  (66) 
{"free_energy": -7.78, "intermolecular_energy": -9.57, "internal_energy": -2.0, "cluster_size": 13, "cluster_id": 2, "rank_in_cluster": 6}

>  <energy>  (66) 
-7.67

>  <cluster_rmsd>  (66) 
1.76

>  <cluster>  (66) 
2

$$$$

     RDKit          3D

 54 57  0  0  0  0  0  0  0  0999 V2000
  140.1650   73.3200  220.5130 O   0  0  0  0  0  0  0  0  0  0  0  0
  139.7540   73.5160  221.7000 C   0  0  0  0  0  0  0  0  0  0  0  0
  139.4070   74.8390  222.1410 N   0  0  0  0  0  0  0  0  0  0  0  0
  139.5670   75.8910  221.1390 C   0  0  0  0  0  0  0  0  0  0  0  0
  140.6870   76.7970  221.4950 C   0  0  0  0  0  0  0  0  0  0  0  0
  141.0310   77.0160  222.7000 O   0  0  0  0  0  0  0  0  0  0  0  0
  141.4140   77.4510  220.4910 N   0  0  0  0  0  0  0  0  0  0  0  0
  141.8400   78.8360  220.7440 C   0  0  0  0  0  0  0  0  0  0  0  0
  141.3080   79.7220  219.6310 C   0  0  0  0  0  0  0  0  0  0  0  0
  141.4390   79.0630  218.2840 C   0  0  0  0  0  0  0  0  0  0  0  0
  142.3940   77.8760  218.3370 C   0  0  0  0  0  0  0  0  0  0  0  0
  141.7600   76.8330  219.2310 C   0  0  1  0  0  0  0  0  0  0  0  0
  142.6160   75.6330  219.3650 C   0  0  0  0  0  0  0  0  0  0  0  0
  142.1800   74.4590  218.7610 C   0  0  0  0  0  0  0  0  0  0  0  0
  142.9510   73.3290  218.8670 C   0  0  0  0  0  0  0  0  0  0  0  0
  144.1330   73.3670  219.5630 C   0  0  0  0  0  0  0  0  0  0  0  0
  145.1150   71.8990  219.6900 Cl  0  0  0  0  0  0  0  0  0  0  0  0
  144.5800   74.5360  220.1720 C   0  0  0  0  0  0  0  0  0  0  0  0
  143.8150   75.6850  220.0740 C   0  0  0  0  0  0  0  0  0  0  0  0
  139.6320   72.3870  222.6220 C   0  0  0  0  0  0  0  0  0  0  0  0
  138.6810   71.4340  222.4120 C   0  0  0  0  0  0  0  0  0  0  0  0
  138.4920   70.3310  223.2300 C   0  0  0  0  0  0  0  0  0  0  0  0
  139.3370   70.2220  224.3150 C   0  0  0  0  0  0  0  0  0  0  0  0
  139.2050   69.1510  225.1700 C   0  0  0  0  0  0  0  0  0  0  0  0
  140.0280   68.9950  226.2710 C   0  0  0  0  0  0  0  0  0  0  0  0
  139.8940   67.8530  227.1920 C   0  0  0  0  0  0  0  0  0  0  0  0
  139.6400   68.3370  228.4580 F   0  0  0  0  0  0  0  0  0  0  0  0
  141.1000   67.1710  227.2310 F   0  0  0  0  0  0  0  0  0  0  0  0
  138.8700   67.0030  226.8470 F   0  0  0  0  0  0  0  0  0  0  0  0
  141.0010   69.9610  226.4920 C   0  0  0  0  0  0  0  0  0  0  0  0
  141.1380   71.0440  225.6340 C   0  0  0  0  0  0  0  0  0  0  0  0
  140.3130   71.1890  224.5380 C   0  0  0  0  0  0  0  0  0  0  0  0
  140.4480   72.2480  223.6990 N   0  0  0  0  0  0  0  0  0  0  0  0
  139.0660   75.0360  223.1080 H   0  0  0  0  0  0  0  0  0  0  0  0
  139.7741   75.4293  220.1623 H   0  0  0  0  0  0  0  0  0  0  0  0
  138.6389   76.4800  221.0972 H   0  0  0  0  0  0  0  0  0  0  0  0
  141.4392   79.1755  221.7105 H   0  0  0  0  0  0  0  0  0  0  0  0
  142.9383   78.8902  220.7726 H   0  0  0  0  0  0  0  0  0  0  0  0
  140.2458   79.9350  219.8218 H   0  0  0  0  0  0  0  0  0  0  0  0
  141.8999   80.6491  219.6182 H   0  0  0  0  0  0  0  0  0  0  0  0
  140.4485   78.7114  217.9596 H   0  0  0  0  0  0  0  0  0  0  0  0
  141.8423   79.8009  217.5749 H   0  0  0  0  0  0  0  0  0  0  0  0
  142.5432   77.4666  217.3270 H   0  0  0  0  0  0  0  0  0  0  0  0
  143.3759   78.1813  218.7277 H   0  0  0  0  0  0  0  0  0  0  0  0
  140.8314   76.4579  218.7761 H   0  0  0  0  0  0  0  0  0  0  0  0
  141.2305   74.4364  218.2061 H   0  0  0  0  0  0  0  0  0  0  0  0
  142.6215   72.3922  218.3939 H   0  0  0  0  0  0  0  0  0  0  0  0
  145.5308   74.5464  220.7250 H   0  0  0  0  0  0  0  0  0  0  0  0
  144.1467   76.6213  220.5465 H   0  0  0  0  0  0  0  0  0  0  0  0
  138.0219   71.5470  221.5386 H   0  0  0  0  0  0  0  0  0  0  0  0
  137.7112   69.5837  223.0252 H   0  0  0  0  0  0  0  0  0  0  0  0
  138.4255   68.4004  224.9727 H   0  0  0  0  0  0  0  0  0  0  0  0
  141.6722   69.8669  227.3584 H   0  0  0  0  0  0  0  0  0  0  0  0
  141.9153   71.7970  225.8310 H   0  0  0  0  0  0  0  0  0  0  0  0
  1  2  2  0
  2  3  1  0
  3  4  1  0
  4  5  1  0
  5  6  2  0
  5  7  1  0
  7  8  1  0
  8  9  1  0
  9 10  1  0
 10 11  1  0
 11 12  1  0
 12 13  1  0
 13 14  2  0
 14 15  1  0
 15 16  2  0
 16 17  1  0
 16 18  1  0
 18 19  2  0
  2 20  1  0
 20 21  2  0
 21 22  1  0
 22 23  2  0
 23 24  1  0
 24 25  2  0
 25 26  1  0
 26 27  1  0
 26 28  1  0
 26 29  1  0
 25 30  1  0
 30 31  2  0
 31 32  1  0
 32 33  2  0
 12  7  1  0
 19 13  1  0
 33 20  1  0
 32 23  1  0
  3 34  1  0
  4 35  1  0
  4 36  1  0
  8 37  1  0
  8 38  1  0
  9 39  1  0
  9 40  1  0
 10 41  1  0
 10 42  1  0
 11 43  1  0
 11 44  1  0
 12 45  1  6
 14 46  1  0
 15 47  1  0
 18 48  1  0
 19 49  1  0
 21 50  1  0
 22 51  1  0
 24 52  1  0
 30 53  1  0
 31 54  1  0
M  END
>  <smiles>  (67) 
O=C(NCC(=O)N1CCCCC1c1ccc(Cl)cc1)c1ccc2cc(C(F)(F)F)ccc2n1

>  <score_type>  (67) 
oracle

>  <origin>  (67) 
autodockgpu

>  <m_score__min__energy>  (67) 
-8.3300000000000001

>  <m_primary>  (67) 
energy

>  <rmsd>  (67) 
2.915257500014914

>  <m_score__min__rmsd>  (67) 
2.915257500014914

>  <meeko>  (67) 
{"free_energy": -7.81, "intermolecular_energy": -9.6, "internal_energy": -2.0, "cluster_size": 13, "cluster_id": 2, "rank_in_cluster": 4}

>  <energy>  (67) 
-7.56

>  <cluster_rmsd>  (67) 
1.75

>  <cluster>  (67) 
2

$$$$

     RDKit          3D

 54 57  0  0  0  0  0  0  0  0999 V2000
  140.8730   73.3760  220.7560 O   0  0  0  0  0  0  0  0  0  0  0  0
  140.0770   73.4560  221.7450 C   0  0  0  0  0  0  0  0  0  0  0  0
  139.3200   74.6560  221.9740 N   0  0  0  0  0  0  0  0  0  0  0  0
  139.5450   75.7270  221.0060 C   0  0  0  0  0  0  0  0  0  0  0  0
  140.6200   76.6400  221.4670 C   0  0  0  0  0  0  0  0  0  0  0  0
  140.9060   76.7930  222.6970 O   0  0  0  0  0  0  0  0  0  0  0  0
  141.3680   77.3770  220.5380 N   0  0  0  0  0  0  0  0  0  0  0  0
  141.8160   78.7220  220.9290 C   0  0  0  0  0  0  0  0  0  0  0  0
  141.3100   79.7220  219.9040 C   0  0  0  0  0  0  0  0  0  0  0  0
  141.4440   79.1970  218.5000 C   0  0  0  0  0  0  0  0  0  0  0  0
  142.3770   77.9930  218.4440 C   0  0  0  0  0  0  0  0  0  0  0  0
  141.7170   76.8790  219.2260 C   0  0  1  0  0  0  0  0  0  0  0  0
  142.5510   75.6570  219.2490 C   0  0  0  0  0  0  0  0  0  0  0  0
  143.6660   75.6520  220.0800 C   0  0  0  0  0  0  0  0  0  0  0  0
  144.4600   74.5340  220.1240 C   0  0  0  0  0  0  0  0  0  0  0  0
  144.1490   73.4400  219.3570 C   0  0  0  0  0  0  0  0  0  0  0  0
  145.1840   72.0050  219.4260 Cl  0  0  0  0  0  0  0  0  0  0  0  0
  143.0350   73.4320  218.5210 C   0  0  0  0  0  0  0  0  0  0  0  0
  142.2240   74.5520  218.4650 C   0  0  0  0  0  0  0  0  0  0  0  0
  139.9300   72.3180  222.6530 C   0  0  0  0  0  0  0  0  0  0  0  0
  139.0670   71.3090  222.3480 C   0  0  0  0  0  0  0  0  0  0  0  0
  138.8620   70.1940  223.1450 C   0  0  0  0  0  0  0  0  0  0  0  0
  139.5930   70.1340  224.3130 C   0  0  0  0  0  0  0  0  0  0  0  0
  139.4400   69.0540  225.1530 C   0  0  0  0  0  0  0  0  0  0  0  0
  140.1500   68.9460  226.3350 C   0  0  0  0  0  0  0  0  0  0  0  0
  139.9920   67.7950  227.2410 C   0  0  0  0  0  0  0  0  0  0  0  0
  141.1250   67.0120  227.1560 F   0  0  0  0  0  0  0  0  0  0  0  0
  138.9160   67.0360  226.8100 F   0  0  0  0  0  0  0  0  0  0  0  0
  139.8280   68.1660  228.5550 F   0  0  0  0  0  0  0  0  0  0  0  0
  141.0330   69.9710  226.6540 C   0  0  0  0  0  0  0  0  0  0  0  0
  141.1910   71.0620  225.8100 C   0  0  0  0  0  0  0  0  0  0  0  0
  140.4780   71.1590  224.6340 C   0  0  0  0  0  0  0  0  0  0  0  0
  140.6340   72.2280  223.8100 N   0  0  0  0  0  0  0  0  0  0  0  0
  138.6570   74.7560  222.7740 H   0  0  0  0  0  0  0  0  0  0  0  0
  139.8364   75.2854  220.0416 H   0  0  0  0  0  0  0  0  0  0  0  0
  138.6151   76.3048  220.8986 H   0  0  0  0  0  0  0  0  0  0  0  0
  141.4122   78.9726  221.9210 H   0  0  0  0  0  0  0  0  0  0  0  0
  142.9147   78.7530  220.9716 H   0  0  0  0  0  0  0  0  0  0  0  0
  140.2495   79.9334  220.1057 H   0  0  0  0  0  0  0  0  0  0  0  0
  141.9172   80.6354  219.9877 H   0  0  0  0  0  0  0  0  0  0  0  0
  140.4510   78.8978  218.1333 H   0  0  0  0  0  0  0  0  0  0  0  0
  141.8682   79.9936  217.8712 H   0  0  0  0  0  0  0  0  0  0  0  0
  142.5286   77.6819  217.3998 H   0  0  0  0  0  0  0  0  0  0  0  0
  143.3601   78.2406  218.8710 H   0  0  0  0  0  0  0  0  0  0  0  0
  140.7870   76.5665  218.7285 H   0  0  0  0  0  0  0  0  0  0  0  0
  143.9080   76.5323  220.6936 H   0  0  0  0  0  0  0  0  0  0  0  0
  145.3466   74.5148  220.7748 H   0  0  0  0  0  0  0  0  0  0  0  0
  142.8025   72.5457  217.9123 H   0  0  0  0  0  0  0  0  0  0  0  0
  141.3377   74.5698  217.8138 H   0  0  0  0  0  0  0  0  0  0  0  0
  138.4971   71.3840  221.4102 H   0  0  0  0  0  0  0  0  0  0  0  0
  138.1550   69.4003  222.8616 H   0  0  0  0  0  0  0  0  0  0  0  0
  138.7348   68.2563  224.8769 H   0  0  0  0  0  0  0  0  0  0  0  0
  141.6138   69.9171  227.5866 H   0  0  0  0  0  0  0  0  0  0  0  0
  141.8957   71.8611  226.0837 H   0  0  0  0  0  0  0  0  0  0  0  0
  1  2  2  0
  2  3  1  0
  3  4  1  0
  4  5  1  0
  5  6  2  0
  5  7  1  0
  7  8  1  0
  8  9  1  0
  9 10  1  0
 10 11  1  0
 11 12  1  0
 12 13  1  0
 13 14  2  0
 14 15  1  0
 15 16  2  0
 16 17  1  0
 16 18  1  0
 18 19  2  0
  2 20  1  0
 20 21  2  0
 21 22  1  0
 22 23  2  0
 23 24  1  0
 24 25  2  0
 25 26  1  0
 26 27  1  0
 26 28  1  0
 26 29  1  0
 25 30  1  0
 30 31  2  0
 31 32  1  0
 32 33  2  0
 12  7  1  0
 19 13  1  0
 33 20  1  0
 32 23  1  0
  3 34  1  0
  4 35  1  0
  4 36  1  0
  8 37  1  0
  8 38  1  0
  9 39  1  0
  9 40  1  0
 10 41  1  0
 10 42  1  0
 11 43  1  0
 11 44  1  0
 12 45  1  6
 14 46  1  0
 15 47  1  0
 18 48  1  0
 19 49  1  0
 21 50  1  0
 22 51  1  0
 24 52  1  0
 30 53  1  0
 31 54  1  0
M  END
>  <smiles>  (68) 
O=C(NCC(=O)N1CCCCC1c1ccc(Cl)cc1)c1ccc2cc(C(F)(F)F)ccc2n1

>  <score_type>  (68) 
oracle

>  <origin>  (68) 
autodockgpu

>  <m_score__min__energy>  (68) 
-8.3300000000000001

>  <m_primary>  (68) 
energy

>  <rmsd>  (68) 
2.887041172538692

>  <m_score__min__rmsd>  (68) 
2.887041172538692

>  <meeko>  (68) 
{"free_energy": -7.86, "intermolecular_energy": -9.65, "internal_energy": -1.99, "cluster_size": 13, "cluster_id": 2, "rank_in_cluster": 2}

>  <energy>  (68) 
-7.55

>  <cluster_rmsd>  (68) 
1.77

>  <cluster>  (68) 
2

$$$$

     RDKit          3D

 54 57  0  0  0  0  0  0  0  0999 V2000
  139.7990   73.2500  220.3490 O   0  0  0  0  0  0  0  0  0  0  0  0
  139.7230   73.4460  221.6030 C   0  0  0  0  0  0  0  0  0  0  0  0
  139.6290   74.7810  222.1250 N   0  0  0  0  0  0  0  0  0  0  0  0
  139.6300   75.8440  221.1230 C   0  0  0  0  0  0  0  0  0  0  0  0
  140.5550   76.9380  221.5110 C   0  0  0  0  0  0  0  0  0  0  0  0
  140.6760   77.3350  222.7130 O   0  0  0  0  0  0  0  0  0  0  0  0
  141.3380   77.5790  220.5410 N   0  0  0  0  0  0  0  0  0  0  0  0
  141.7810   78.9540  220.8160 C   0  0  0  0  0  0  0  0  0  0  0  0
  141.3170   79.8520  219.6820 C   0  0  0  0  0  0  0  0  0  0  0  0
  141.4940   79.1930  218.3400 C   0  0  0  0  0  0  0  0  0  0  0  0
  142.4200   77.9870  218.4330 C   0  0  0  0  0  0  0  0  0  0  0  0
  141.7270   76.9550  219.2950 C   0  0  1  0  0  0  0  0  0  0  0  0
  142.5510   75.7380  219.4640 C   0  0  0  0  0  0  0  0  0  0  0  0
  143.7830   75.8760  220.0950 C   0  0  0  0  0  0  0  0  0  0  0  0
  144.5710   74.7650  220.2670 C   0  0  0  0  0  0  0  0  0  0  0  0
  144.1410   73.5420  219.8200 C   0  0  0  0  0  0  0  0  0  0  0  0
  145.1710   72.1200  220.0500 Cl  0  0  0  0  0  0  0  0  0  0  0  0
  142.9100   73.3910  219.1870 C   0  0  0  0  0  0  0  0  0  0  0  0
  142.1020   74.5000  219.0060 C   0  0  0  0  0  0  0  0  0  0  0  0
  139.7300   72.3050  222.5180 C   0  0  0  0  0  0  0  0  0  0  0  0
  139.1160   71.1420  222.1640 C   0  0  0  0  0  0  0  0  0  0  0  0
  139.0720   70.0110  222.9640 C   0  0  0  0  0  0  0  0  0  0  0  0
  139.6980   70.1040  224.1900 C   0  0  0  0  0  0  0  0  0  0  0  0
  139.6940   69.0180  225.0360 C   0  0  0  0  0  0  0  0  0  0  0  0
  140.3080   69.0590  226.2750 C   0  0  0  0  0  0  0  0  0  0  0  0
  140.3080   67.9030  227.1870 C   0  0  0  0  0  0  0  0  0  0  0  0
  139.4850   68.1890  228.2580 F   0  0  0  0  0  0  0  0  0  0  0  0
  141.5920   67.7220  227.6750 F   0  0  0  0  0  0  0  0  0  0  0  0
  139.8490   66.7510  226.5930 F   0  0  0  0  0  0  0  0  0  0  0  0
  140.9370   70.2420  226.6440 C   0  0  0  0  0  0  0  0  0  0  0  0
  140.9440   71.3400  225.7950 C   0  0  0  0  0  0  0  0  0  0  0  0
  140.3290   71.2870  224.5610 C   0  0  0  0  0  0  0  0  0  0  0  0
  140.3370   72.3620  223.7320 N   0  0  0  0  0  0  0  0  0  0  0  0
  139.5640   74.9800  223.1490 H   0  0  0  0  0  0  0  0  0  0  0  0
  139.9504   75.4275  220.1566 H   0  0  0  0  0  0  0  0  0  0  0  0
  138.6126   76.2551  221.0464 H   0  0  0  0  0  0  0  0  0  0  0  0
  141.3449   79.3005  221.7645 H   0  0  0  0  0  0  0  0  0  0  0  0
  142.8778   78.9856  220.8938 H   0  0  0  0  0  0  0  0  0  0  0  0
  140.2519   80.0863  219.8261 H   0  0  0  0  0  0  0  0  0  0  0  0
  141.9281   80.7665  219.6976 H   0  0  0  0  0  0  0  0  0  0  0  0
  140.5119   78.8629  217.9706 H   0  0  0  0  0  0  0  0  0  0  0  0
  141.9436   79.9234  217.6513 H   0  0  0  0  0  0  0  0  0  0  0  0
  142.6056   77.5763  217.4296 H   0  0  0  0  0  0  0  0  0  0  0  0
  143.3890   78.2720  218.8687 H   0  0  0  0  0  0  0  0  0  0  0  0
  140.8127   76.5986  218.7980 H   0  0  0  0  0  0  0  0  0  0  0  0
  144.1208   76.8605  220.4508 H   0  0  0  0  0  0  0  0  0  0  0  0
  145.5482   74.8560  220.7638 H   0  0  0  0  0  0  0  0  0  0  0  0
  142.5834   72.4014  218.8347 H   0  0  0  0  0  0  0  0  0  0  0  0
  141.1245   74.4065  218.5104 H   0  0  0  0  0  0  0  0  0  0  0  0
  138.6240   71.0975  221.1812 H   0  0  0  0  0  0  0  0  0  0  0  0
  138.5658   69.0899  222.6393 H   0  0  0  0  0  0  0  0  0  0  0  0
  139.1894   68.0935  224.7185 H   0  0  0  0  0  0  0  0  0  0  0  0
  141.4360   70.3091  227.6220 H   0  0  0  0  0  0  0  0  0  0  0  0
  141.4472   72.2659  226.1105 H   0  0  0  0  0  0  0  0  0  0  0  0
  1  2  2  0
  2  3  1  0
  3  4  1  0
  4  5  1  0
  5  6  2  0
  5  7  1  0
  7  8  1  0
  8  9  1  0
  9 10  1  0
 10 11  1  0
 11 12  1  0
 12 13  1  0
 13 14  2  0
 14 15  1  0
 15 16  2  0
 16 17  1  0
 16 18  1  0
 18 19  2  0
  2 20  1  0
 20 21  2  0
 21 22  1  0
 22 23  2  0
 23 24  1  0
 24 25  2  0
 25 26  1  0
 26 27  1  0
 26 28  1  0
 26 29  1  0
 25 30  1  0
 30 31  2  0
 31 32  1  0
 32 33  2  0
 12  7  1  0
 19 13  1  0
 33 20  1  0
 32 23  1  0
  3 34  1  0
  4 35  1  0
  4 36  1  0
  8 37  1  0
  8 38  1  0
  9 39  1  0
  9 40  1  0
 10 41  1  0
 10 42  1  0
 11 43  1  0
 11 44  1  0
 12 45  1  6
 14 46  1  0
 15 47  1  0
 18 48  1  0
 19 49  1  0
 21 50  1  0
 22 51  1  0
 24 52  1  0
 30 53  1  0
 31 54  1  0
M  END
>  <smiles>  (69) 
O=C(NCC(=O)N1CCCCC1c1ccc(Cl)cc1)c1ccc2cc(C(F)(F)F)ccc2n1

>  <score_type>  (69) 
oracle

>  <origin>  (69) 
autodockgpu

>  <m_score__min__energy>  (69) 
-8.3300000000000001

>  <m_primary>  (69) 
energy

>  <rmsd>  (69) 
2.9017346961583566

>  <m_score__min__rmsd>  (69) 
2.9017346961583566

>  <meeko>  (69) 
{"free_energy": -7.55, "intermolecular_energy": -9.34, "internal_energy": -2.17, "cluster_size": 13, "cluster_id": 2, "rank_in_cluster": 12}

>  <energy>  (69) 
-7.16

>  <cluster_rmsd>  (69) 
1.86

>  <cluster>  (69) 
2

$$$$

     RDKit          3D

 54 57  0  0  0  0  0  0  0  0999 V2000
  138.2660   71.6260  220.5800 O   0  0  0  0  0  0  0  0  0  0  0  0
  138.2870   72.1810  221.7230 C   0  0  0  0  0  0  0  0  0  0  0  0
  137.9260   73.5650  221.8660 N   0  0  0  0  0  0  0  0  0  0  0  0
  137.5500   74.2420  220.6270 C   0  0  0  0  0  0  0  0  0  0  0  0
  138.6180   75.1750  220.1880 C   0  0  0  0  0  0  0  0  0  0  0  0
  138.3750   76.3700  219.8290 O   0  0  0  0  0  0  0  0  0  0  0  0
  139.9550   74.7540  220.1560 N   0  0  0  0  0  0  0  0  0  0  0  0
  140.4040   73.9820  218.9870 C   0  0  0  0  0  0  0  0  0  0  0  0
  140.9810   72.6620  219.4670 C   0  0  0  0  0  0  0  0  0  0  0  0
  141.8280   72.8390  220.6990 C   0  0  0  0  0  0  0  0  0  0  0  0
  142.1900   74.3030  220.9180 C   0  0  0  0  0  0  0  0  0  0  0  0
  140.9040   75.0440  221.2080 C   0  0  1  0  0  0  0  0  0  0  0  0
  141.1390   76.4890  221.4230 C   0  0  0  0  0  0  0  0  0  0  0  0
  140.9160   76.9950  222.7000 C   0  0  0  0  0  0  0  0  0  0  0  0
  141.1250   78.3310  222.9320 C   0  0  0  0  0  0  0  0  0  0  0  0
  141.5490   79.1480  221.9140 C   0  0  0  0  0  0  0  0  0  0  0  0
  141.8140   80.8690  222.2310 Cl  0  0  0  0  0  0  0  0  0  0  0  0
  141.7750   78.6530  220.6320 C   0  0  0  0  0  0  0  0  0  0  0  0
  141.5700   77.3070  220.3810 C   0  0  0  0  0  0  0  0  0  0  0  0
  138.6790   71.4070  222.9010 C   0  0  0  0  0  0  0  0  0  0  0  0
  138.1740   70.1570  223.0940 C   0  0  0  0  0  0  0  0  0  0  0  0
  138.4890   69.3500  224.1770 C   0  0  0  0  0  0  0  0  0  0  0  0
  139.3700   69.8780  225.0970 C   0  0  0  0  0  0  0  0  0  0  0  0
  139.7270   69.1320  226.1980 C   0  0  0  0  0  0  0  0  0  0  0  0
  140.6080   69.6140  227.1490 C   0  0  0  0  0  0  0  0  0  0  0  0
  140.9950   68.8240  228.3300 C   0  0  0  0  0  0  0  0  0  0  0  0
  141.4650   67.5990  227.9030 F   0  0  0  0  0  0  0  0  0  0  0  0
  139.8670   68.6000  229.1040 F   0  0  0  0  0  0  0  0  0  0  0  0
  141.9820   69.4240  229.0760 F   0  0  0  0  0  0  0  0  0  0  0  0
  141.1280   70.8890  226.9590 C   0  0  0  0  0  0  0  0  0  0  0  0
  140.7710   71.6460  225.8510 C   0  0  0  0  0  0  0  0  0  0  0  0
  139.8920   71.1540  224.9090 C   0  0  0  0  0  0  0  0  0  0  0  0
  139.5450   71.8960  223.8250 N   0  0  0  0  0  0  0  0  0  0  0  0
  137.9310   74.0540  222.7890 H   0  0  0  0  0  0  0  0  0  0  0  0
  137.3837   73.4898  219.8418 H   0  0  0  0  0  0  0  0  0  0  0  0
  136.6311   74.8193  220.8068 H   0  0  0  0  0  0  0  0  0  0  0  0
  139.5509   73.7919  218.3192 H   0  0  0  0  0  0  0  0  0  0  0  0
  141.1702   74.5476  218.4364 H   0  0  0  0  0  0  0  0  0  0  0  0
  140.1539   71.9748  219.6988 H   0  0  0  0  0  0  0  0  0  0  0  0
  141.6189   72.2562  218.6680 H   0  0  0  0  0  0  0  0  0  0  0  0
  141.2692   72.4737  221.5732 H   0  0  0  0  0  0  0  0  0  0  0  0
  142.7586   72.2681  220.5648 H   0  0  0  0  0  0  0  0  0  0  0  0
  142.8794   74.3972  221.7700 H   0  0  0  0  0  0  0  0  0  0  0  0
  142.6880   74.7188  220.0297 H   0  0  0  0  0  0  0  0  0  0  0  0
  140.4713   74.6934  222.1566 H   0  0  0  0  0  0  0  0  0  0  0  0
  140.5773   76.3338  223.5112 H   0  0  0  0  0  0  0  0  0  0  0  0
  140.9525   78.7479  223.9352 H   0  0  0  0  0  0  0  0  0  0  0  0
  142.1125   79.3237  219.8281 H   0  0  0  0  0  0  0  0  0  0  0  0
  141.7442   76.8913  219.3776 H   0  0  0  0  0  0  0  0  0  0  0  0
  137.4724   69.7628  222.3440 H   0  0  0  0  0  0  0  0  0  0  0  0
  138.0597   68.3442  224.2955 H   0  0  0  0  0  0  0  0  0  0  0  0
  139.3002   68.1261  226.3245 H   0  0  0  0  0  0  0  0  0  0  0  0
  141.8315   71.3037  227.6960 H   0  0  0  0  0  0  0  0  0  0  0  0
  141.1954   72.6527  225.7227 H   0  0  0  0  0  0  0  0  0  0  0  0
  1  2  2  0
  2  3  1  0
  3  4  1  0
  4  5  1  0
  5  6  2  0
  5  7  1  0
  7  8  1  0
  8  9  1  0
  9 10  1  0
 10 11  1  0
 11 12  1  0
 12 13  1  0
 13 14  2  0
 14 15  1  0
 15 16  2  0
 16 17  1  0
 16 18  1  0
 18 19  2  0
  2 20  1  0
 20 21  2  0
 21 22  1  0
 22 23  2  0
 23 24  1  0
 24 25  2  0
 25 26  1  0
 26 27  1  0
 26 28  1  0
 26 29  1  0
 25 30  1  0
 30 31  2  0
 31 32  1  0
 32 33  2  0
 12  7  1  0
 19 13  1  0
 33 20  1  0
 32 23  1  0
  3 34  1  0
  4 35  1  0
  4 36  1  0
  8 37  1  0
  8 38  1  0
  9 39  1  0
  9 40  1  0
 10 41  1  0
 10 42  1  0
 11 43  1  0
 11 44  1  0
 12 45  1  1
 14 46  1  0
 15 47  1  0
 18 48  1  0
 19 49  1  0
 21 50  1  0
 22 51  1  0
 24 52  1  0
 30 53  1  0
 31 54  1  0
M  END
>  <smiles>  (70) 
O=C(NCC(=O)N1CCCCC1c1ccc(Cl)cc1)c1ccc2cc(C(F)(F)F)ccc2n1

>  <score_type>  (70) 
oracle

>  <origin>  (70) 
autodockgpu

>  <m_score__min__energy>  (70) 
-8.3300000000000001

>  <m_primary>  (70) 
energy

>  <rmsd>  (70) 
2.204705006803316

>  <m_score__min__rmsd>  (70) 
2.204705006803316

>  <meeko>  (70) 
{"free_energy": -7.32, "intermolecular_energy": -9.11, "internal_energy": -2.25, "cluster_size": 1, "cluster_id": 5, "rank_in_cluster": 1}

>  <energy>  (70) 
-8.09

>  <cluster_rmsd>  (70) 
0.0

>  <cluster>  (70) 
3

$$$$

     RDKit          3D

 54 57  0  0  0  0  0  0  0  0999 V2000
  140.2800   75.1720  219.2390 O   0  0  0  0  0  0  0  0  0  0  0  0
  140.7020   74.9240  220.4130 C   0  0  0  0  0  0  0  0  0  0  0  0
  141.7140   75.7500  221.0110 N   0  0  0  0  0  0  0  0  0  0  0  0
  142.1910   76.8520  220.1790 C   0  0  0  0  0  0  0  0  0  0  0  0
  141.2770   78.0180  220.2670 C   0  0  0  0  0  0  0  0  0  0  0  0
  140.5140   78.3610  219.3090 O   0  0  0  0  0  0  0  0  0  0  0  0
  141.2290   78.7920  221.4340 N   0  0  0  0  0  0  0  0  0  0  0  0
  141.6510   80.1980  221.3440 C   0  0  0  0  0  0  0  0  0  0  0  0
  142.7610   80.4410  222.3510 C   0  0  0  0  0  0  0  0  0  0  0  0
  142.4810   79.7580  223.6640 C   0  0  0  0  0  0  0  0  0  0  0  0
  141.0220   79.3330  223.7680 C   0  0  0  0  0  0  0  0  0  0  0  0
  140.7870   78.2760  222.7110 C   0  0  1  0  0  0  0  0  0  0  0  0
  139.3870   77.7980  222.7140 C   0  0  0  0  0  0  0  0  0  0  0  0
  139.1740   76.4230  222.7100 C   0  0  0  0  0  0  0  0  0  0  0  0
  137.8870   75.9490  222.7120 C   0  0  0  0  0  0  0  0  0  0  0  0
  136.8310   76.8250  222.7180 C   0  0  0  0  0  0  0  0  0  0  0  0
  135.1770   76.1940  222.7210 Cl  0  0  0  0  0  0  0  0  0  0  0  0
  137.0310   78.2030  222.7220 C   0  0  0  0  0  0  0  0  0  0  0  0
  138.3230   78.6990  222.7200 C   0  0  0  0  0  0  0  0  0  0  0  0
  140.1520   73.7920  221.1590 C   0  0  0  0  0  0  0  0  0  0  0  0
  139.0650   73.1240  220.6810 C   0  0  0  0  0  0  0  0  0  0  0  0
  138.4760   72.0420  221.3170 C   0  0  0  0  0  0  0  0  0  0  0  0
  139.0530   71.6430  222.5050 C   0  0  0  0  0  0  0  0  0  0  0  0
  138.5200   70.5750  223.1910 C   0  0  0  0  0  0  0  0  0  0  0  0
  139.0610   70.1350  224.3860 C   0  0  0  0  0  0  0  0  0  0  0  0
  138.4980   68.9930  225.1260 C   0  0  0  0  0  0  0  0  0  0  0  0
  137.1230   69.0240  225.0020 F   0  0  0  0  0  0  0  0  0  0  0  0
  138.8060   69.1400  226.4700 F   0  0  0  0  0  0  0  0  0  0  0  0
  138.9410   67.7790  224.6580 F   0  0  0  0  0  0  0  0  0  0  0  0
  140.1710   70.8100  224.8790 C   0  0  0  0  0  0  0  0  0  0  0  0
  140.7120   71.8880  224.1920 C   0  0  0  0  0  0  0  0  0  0  0  0
  140.1640   72.3180  223.0010 C   0  0  0  0  0  0  0  0  0  0  0  0
  140.6950   73.3730  222.3300 N   0  0  0  0  0  0  0  0  0  0  0  0
  142.0830   75.5770  221.9730 H   0  0  0  0  0  0  0  0  0  0  0  0
  143.1924   77.1532  220.5202 H   0  0  0  0  0  0  0  0  0  0  0  0
  142.2266   76.5122  219.1334 H   0  0  0  0  0  0  0  0  0  0  0  0
  142.0196   80.4092  220.3293 H   0  0  0  0  0  0  0  0  0  0  0  0
  140.7986   80.8587  221.5606 H   0  0  0  0  0  0  0  0  0  0  0  0
  143.7052   80.0528  221.9414 H   0  0  0  0  0  0  0  0  0  0  0  0
  142.8266   81.5236  222.5346 H   0  0  0  0  0  0  0  0  0  0  0  0
  143.1204   78.8669  223.7476 H   0  0  0  0  0  0  0  0  0  0  0  0
  142.6940   80.4682  224.4766 H   0  0  0  0  0  0  0  0  0  0  0  0
  140.8206   78.9184  224.7668 H   0  0  0  0  0  0  0  0  0  0  0  0
  140.3532   80.1929  223.6156 H   0  0  0  0  0  0  0  0  0  0  0  0
  141.3822   77.3784  222.9345 H   0  0  0  0  0  0  0  0  0  0  0  0
  140.0253   75.7264  222.7053 H   0  0  0  0  0  0  0  0  0  0  0  0
  137.7011   74.8648  222.7088 H   0  0  0  0  0  0  0  0  0  0  0  0
  136.1717   78.8897  222.7267 H   0  0  0  0  0  0  0  0  0  0  0  0
  138.5070   79.7835  222.7231 H   0  0  0  0  0  0  0  0  0  0  0  0
  138.6273   73.4645  219.7310 H   0  0  0  0  0  0  0  0  0  0  0  0
  137.5973   71.5300  220.8977 H   0  0  0  0  0  0  0  0  0  0  0  0
  137.6411   70.0580  222.7783 H   0  0  0  0  0  0  0  0  0  0  0  0
  140.6270   70.4858  225.8261 H   0  0  0  0  0  0  0  0  0  0  0  0
  141.5904   72.4070  224.6031 H   0  0  0  0  0  0  0  0  0  0  0  0
  1  2  2  0
  2  3  1  0
  3  4  1  0
  4  5  1  0
  5  6  2  0
  5  7  1  0
  7  8  1  0
  8  9  1  0
  9 10  1  0
 10 11  1  0
 11 12  1  0
 12 13  1  0
 13 14  2  0
 14 15  1  0
 15 16  2  0
 16 17  1  0
 16 18  1  0
 18 19  2  0
  2 20  1  0
 20 21  2  0
 21 22  1  0
 22 23  2  0
 23 24  1  0
 24 25  2  0
 25 26  1  0
 26 27  1  0
 26 28  1  0
 26 29  1  0
 25 30  1  0
 30 31  2  0
 31 32  1  0
 32 33  2  0
 12  7  1  0
 19 13  1  0
 33 20  1  0
 32 23  1  0
  3 34  1  0
  4 35  1  0
  4 36  1  0
  8 37  1  0
  8 38  1  0
  9 39  1  0
  9 40  1  0
 10 41  1  0
 10 42  1  0
 11 43  1  0
 11 44  1  0
 12 45  1  1
 14 46  1  0
 15 47  1  0
 18 48  1  0
 19 49  1  0
 21 50  1  0
 22 51  1  0
 24 52  1  0
 30 53  1  0
 31 54  1  0
M  END
>  <smiles>  (71) 
O=C(NCC(=O)N1CCCCC1c1ccc(Cl)cc1)c1ccc2cc(C(F)(F)F)ccc2n1

>  <score_type>  (71) 
oracle

>  <origin>  (71) 
autodockgpu

>  <m_score__min__energy>  (71) 
-8.3300000000000001

>  <m_primary>  (71) 
energy

>  <rmsd>  (71) 
4.999676273545466

>  <m_score__min__rmsd>  (71) 
4.999676273545466

>  <meeko>  (71) 
{"free_energy": -7.15, "intermolecular_energy": -8.94, "internal_energy": -2.51, "cluster_size": 15, "cluster_id": 6, "rank_in_cluster": 1}

>  <energy>  (71) 
-7.88

>  <cluster_rmsd>  (71) 
0.85

>  <cluster>  (71) 
3

$$$$

     RDKit          3D

 54 57  0  0  0  0  0  0  0  0999 V2000
  140.4490   74.2270  221.7670 O   0  0  0  0  0  0  0  0  0  0  0  0
  140.3240   72.9870  221.5140 C   0  0  0  0  0  0  0  0  0  0  0  0
  140.3450   72.5150  220.1570 N   0  0  0  0  0  0  0  0  0  0  0  0
  140.5130   73.5510  219.1400 C   0  0  0  0  0  0  0  0  0  0  0  0
  141.7600   73.3350  218.3650 C   0  0  0  0  0  0  0  0  0  0  0  0
  141.7530   72.9130  217.1650 O   0  0  0  0  0  0  0  0  0  0  0  0
  143.0090   73.5950  218.9460 N   0  0  0  0  0  0  0  0  0  0  0  0
  144.1630   72.8180  218.4700 C   0  0  0  0  0  0  0  0  0  0  0  0
  144.8050   72.1200  219.6560 C   0  0  0  0  0  0  0  0  0  0  0  0
  144.8710   73.0200  220.8620 C   0  0  0  0  0  0  0  0  0  0  0  0
  144.6360   74.4760  220.4820 C   0  0  0  0  0  0  0  0  0  0  0  0
  143.2120   74.5830  219.9820 C   0  0  1  0  0  0  0  0  0  0  0  0
  142.8770   75.9640  219.5700 C   0  0  0  0  0  0  0  0  0  0  0  0
  142.1050   76.7280  220.4380 C   0  0  0  0  0  0  0  0  0  0  0  0
  141.7770   78.0120  220.0840 C   0  0  0  0  0  0  0  0  0  0  0  0
  142.2100   78.5270  218.8880 C   0  0  0  0  0  0  0  0  0  0  0  0
  141.7780   80.1860  218.4470 Cl  0  0  0  0  0  0  0  0  0  0  0  0
  142.9830   77.7720  218.0100 C   0  0  0  0  0  0  0  0  0  0  0  0
  143.3240   76.4750  218.3520 C   0  0  0  0  0  0  0  0  0  0  0  0
  140.1610   72.0350  222.6120 C   0  0  0  0  0  0  0  0  0  0  0  0
  139.4500   70.8880  222.4220 C   0  0  0  0  0  0  0  0  0  0  0  0
  139.2430   69.9290  223.4010 C   0  0  0  0  0  0  0  0  0  0  0  0
  139.8050   70.1840  224.6350 C   0  0  0  0  0  0  0  0  0  0  0  0
  139.6400   69.2740  225.6550 C   0  0  0  0  0  0  0  0  0  0  0  0
  140.1850   69.4810  226.9090 C   0  0  0  0  0  0  0  0  0  0  0  0
  140.0120   68.5140  228.0060 C   0  0  0  0  0  0  0  0  0  0  0  0
  139.3900   69.1520  229.0600 F   0  0  0  0  0  0  0  0  0  0  0  0
  141.2640   68.1040  228.4370 F   0  0  0  0  0  0  0  0  0  0  0  0
  139.2440   67.4310  227.6510 F   0  0  0  0  0  0  0  0  0  0  0  0
  140.9120   70.6480  227.1120 C   0  0  0  0  0  0  0  0  0  0  0  0
  141.0820   71.5690  226.0880 C   0  0  0  0  0  0  0  0  0  0  0  0
  140.5350   71.3520  224.8400 C   0  0  0  0  0  0  0  0  0  0  0  0
  140.7020   72.2530  223.8390 N   0  0  0  0  0  0  0  0  0  0  0  0
  140.2450   71.5050  219.9120 H   0  0  0  0  0  0  0  0  0  0  0  0
  139.6535   73.5250  218.4540 H   0  0  0  0  0  0  0  0  0  0  0  0
  140.5753   74.5284  219.6409 H   0  0  0  0  0  0  0  0  0  0  0  0
  143.8278   72.0692  217.7373 H   0  0  0  0  0  0  0  0  0  0  0  0
  144.8923   73.4873  217.9903 H   0  0  0  0  0  0  0  0  0  0  0  0
  144.2126   71.2282  219.9085 H   0  0  0  0  0  0  0  0  0  0  0  0
  145.8326   71.8440  219.3769 H   0  0  0  0  0  0  0  0  0  0  0  0
  144.1005   72.7094  221.5830 H   0  0  0  0  0  0  0  0  0  0  0  0
  145.8751   72.9349  221.3031 H   0  0  0  0  0  0  0  0  0  0  0  0
  144.7765   75.1224  221.3609 H   0  0  0  0  0  0  0  0  0  0  0  0
  145.3474   74.7973  219.7070 H   0  0  0  0  0  0  0  0  0  0  0  0
  142.5072   74.3629  220.7974 H   0  0  0  0  0  0  0  0  0  0  0  0
  141.7620   76.3086  221.3953 H   0  0  0  0  0  0  0  0  0  0  0  0
  141.1664   78.6293  220.7593 H   0  0  0  0  0  0  0  0  0  0  0  0
  143.3191   78.2017  217.0548 H   0  0  0  0  0  0  0  0  0  0  0  0
  143.9357   75.8593  217.6762 H   0  0  0  0  0  0  0  0  0  0  0  0
  139.0125   70.7121  221.4282 H   0  0  0  0  0  0  0  0  0  0  0  0
  138.6628   69.0152  223.2050 H   0  0  0  0  0  0  0  0  0  0  0  0
  139.0596   68.3586  225.4676 H   0  0  0  0  0  0  0  0  0  0  0  0
  141.3588   70.8443  228.0978 H   0  0  0  0  0  0  0  0  0  0  0  0
  141.6613   72.4854  226.2739 H   0  0  0  0  0  0  0  0  0  0  0  0
  1  2  2  0
  2  3  1  0
  3  4  1  0
  4  5  1  0
  5  6  2  0
  5  7  1  0
  7  8  1  0
  8  9  1  0
  9 10  1  0
 10 11  1  0
 11 12  1  0
 12 13  1  0
 13 14  2  0
 14 15  1  0
 15 16  2  0
 16 17  1  0
 16 18  1  0
 18 19  2  0
  2 20  1  0
 20 21  2  0
 21 22  1  0
 22 23  2  0
 23 24  1  0
 24 25  2  0
 25 26  1  0
 26 27  1  0
 26 28  1  0
 26 29  1  0
 25 30  1  0
 30 31  2  0
 31 32  1  0
 32 33  2  0
 12  7  1  0
 19 13  1  0
 33 20  1  0
 32 23  1  0
  3 34  1  0
  4 35  1  0
  4 36  1  0
  8 37  1  0
  8 38  1  0
  9 39  1  0
  9 40  1  0
 10 41  1  0
 10 42  1  0
 11 43  1  0
 11 44  1  0
 12 45  1  1
 14 46  1  0
 15 47  1  0
 18 48  1  0
 19 49  1  0
 21 50  1  0
 22 51  1  0
 24 52  1  0
 30 53  1  0
 31 54  1  0
M  END
>  <smiles>  (72) 
O=C(NCC(=O)N1CCCCC1c1ccc(Cl)cc1)c1ccc2cc(C(F)(F)F)ccc2n1

>  <score_type>  (72) 
oracle

>  <origin>  (72) 
autodockgpu

>  <m_score__min__energy>  (72) 
-8.3300000000000001

>  <m_primary>  (72) 
energy

>  <rmsd>  (72) 
3.6139488269667437

>  <m_score__min__rmsd>  (72) 
3.6139488269667437

>  <meeko>  (72) 
{"free_energy": -7.69, "intermolecular_energy": -9.48, "internal_energy": -1.95, "cluster_size": 3, "cluster_id": 4, "rank_in_cluster": 1}

>  <energy>  (72) 
-7.88

>  <cluster_rmsd>  (72) 
0.83

>  <cluster>  (72) 
3

$$$$

     RDKit          3D

 54 57  0  0  0  0  0  0  0  0999 V2000
  133.9140   69.5830  226.4880 O   0  0  0  0  0  0  0  0  0  0  0  0
  134.3320   70.6950  226.0340 C   0  0  0  0  0  0  0  0  0  0  0  0
  135.4550   70.7390  225.1400 N   0  0  0  0  0  0  0  0  0  0  0  0
  136.0460   69.4420  224.8170 C   0  0  0  0  0  0  0  0  0  0  0  0
  136.8150   69.5100  223.5500 C   0  0  0  0  0  0  0  0  0  0  0  0
  136.6500   68.6740  222.6060 O   0  0  0  0  0  0  0  0  0  0  0  0
  137.7670   70.5200  223.3540 N   0  0  0  0  0  0  0  0  0  0  0  0
  137.2800   71.8770  223.0660 C   0  0  0  0  0  0  0  0  0  0  0  0
  137.8890   72.3470  221.7560 C   0  0  0  0  0  0  0  0  0  0  0  0
  139.3410   71.9640  221.6490 C   0  0  0  0  0  0  0  0  0  0  0  0
  139.9090   71.5540  223.0020 C   0  0  0  0  0  0  0  0  0  0  0  0
  139.1930   70.2900  223.4240 C   0  0  1  0  0  0  0  0  0  0  0  0
  139.6610   69.8080  224.7420 C   0  0  0  0  0  0  0  0  0  0  0  0
  139.5430   68.4480  225.0110 C   0  0  0  0  0  0  0  0  0  0  0  0
  139.9680   67.9700  226.2250 C   0  0  0  0  0  0  0  0  0  0  0  0
  140.5000   68.8290  227.1540 C   0  0  0  0  0  0  0  0  0  0  0  0
  141.0430   68.1940  228.7150 Cl  0  0  0  0  0  0  0  0  0  0  0  0
  140.6230   70.1910  226.8960 C   0  0  0  0  0  0  0  0  0  0  0  0
  140.2000   70.6910  225.6760 C   0  0  0  0  0  0  0  0  0  0  0  0
  133.6640   71.9370  226.4240 C   0  0  0  0  0  0  0  0  0  0  0  0
  132.4970   71.8920  227.1260 C   0  0  0  0  0  0  0  0  0  0  0  0
  131.7940   73.0140  227.5390 C   0  0  0  0  0  0  0  0  0  0  0  0
  132.3390   74.2350  227.2000 C   0  0  0  0  0  0  0  0  0  0  0  0
  131.6940   75.3920  227.5780 C   0  0  0  0  0  0  0  0  0  0  0  0
  132.1980   76.6410  227.2650 C   0  0  0  0  0  0  0  0  0  0  0  0
  131.5150   77.8830  227.6640 C   0  0  0  0  0  0  0  0  0  0  0  0
  131.0200   78.4950  226.5300 F   0  0  0  0  0  0  0  0  0  0  0  0
  132.4450   78.7370  228.2360 F   0  0  0  0  0  0  0  0  0  0  0  0
  130.4650   77.6650  228.5240 F   0  0  0  0  0  0  0  0  0  0  0  0
  133.3880   76.6950  226.5490 C   0  0  0  0  0  0  0  0  0  0  0  0
  134.0430   75.5320  226.1660 C   0  0  0  0  0  0  0  0  0  0  0  0
  133.5310   74.2920  226.4840 C   0  0  0  0  0  0  0  0  0  0  0  0
  134.1720   73.1550  226.1080 N   0  0  0  0  0  0  0  0  0  0  0  0
  135.8250   71.6330  224.7470 H   0  0  0  0  0  0  0  0  0  0  0  0
  136.7208   69.1410  225.6319 H   0  0  0  0  0  0  0  0  0  0  0  0
  135.2361   68.7074  224.6969 H   0  0  0  0  0  0  0  0  0  0  0  0
  136.1833   71.8661  222.9812 H   0  0  0  0  0  0  0  0  0  0  0  0
  137.5696   72.5588  223.8791 H   0  0  0  0  0  0  0  0  0  0  0  0
  137.3371   71.8896  220.9217 H   0  0  0  0  0  0  0  0  0  0  0  0
  137.8198   73.4442  221.7193 H   0  0  0  0  0  0  0  0  0  0  0  0
  139.4380   71.1205  220.9497 H   0  0  0  0  0  0  0  0  0  0  0  0
  139.9037   72.8374  221.2876 H   0  0  0  0  0  0  0  0  0  0  0  0
  140.9890   71.3642  222.9153 H   0  0  0  0  0  0  0  0  0  0  0  0
  139.7624   72.3520  223.7448 H   0  0  0  0  0  0  0  0  0  0  0  0
  139.4340   69.4693  222.7324 H   0  0  0  0  0  0  0  0  0  0  0  0
  139.1153   67.7659  224.2614 H   0  0  0  0  0  0  0  0  0  0  0  0
  139.8823   66.8975  226.4539 H   0  0  0  0  0  0  0  0  0  0  0  0
  141.0519   70.8635  227.6535 H   0  0  0  0  0  0  0  0  0  0  0  0
  140.2876   71.7636  225.4485 H   0  0  0  0  0  0  0  0  0  0  0  0
  132.0867   70.9038  227.3812 H   0  0  0  0  0  0  0  0  0  0  0  0
  130.8543   72.9346  228.1053 H   0  0  0  0  0  0  0  0  0  0  0  0
  130.7533   75.3204  228.1437 H   0  0  0  0  0  0  0  0  0  0  0  0
  133.8168   77.6722  226.2821 H   0  0  0  0  0  0  0  0  0  0  0  0
  134.9841   75.6011  225.6007 H   0  0  0  0  0  0  0  0  0  0  0  0
  1  2  2  0
  2  3  1  0
  3  4  1  0
  4  5  1  0
  5  6  2  0
  5  7  1  0
  7  8  1  0
  8  9  1  0
  9 10  1  0
 10 11  1  0
 11 12  1  0
 12 13  1  0
 13 14  2  0
 14 15  1  0
 15 16  2  0
 16 17  1  0
 16 18  1  0
 18 19  2  0
  2 20  1  0
 20 21  2  0
 21 22  1  0
 22 23  2  0
 23 24  1  0
 24 25  2  0
 25 26  1  0
 26 27  1  0
 26 28  1  0
 26 29  1  0
 25 30  1  0
 30 31  2  0
 31 32  1  0
 32 33  2  0
 12  7  1  0
 19 13  1  0
 33 20  1  0
 32 23  1  0
  3 34  1  0
  4 35  1  0
  4 36  1  0
  8 37  1  0
  8 38  1  0
  9 39  1  0
  9 40  1  0
 10 41  1  0
 10 42  1  0
 11 43  1  0
 11 44  1  0
 12 45  1  6
 14 46  1  0
 15 47  1  0
 18 48  1  0
 19 49  1  0
 21 50  1  0
 22 51  1  0
 24 52  1  0
 30 53  1  0
 31 54  1  0
M  END
>  <smiles>  (73) 
O=C(NCC(=O)N1CCCCC1c1ccc(Cl)cc1)c1ccc2cc(C(F)(F)F)ccc2n1

>  <score_type>  (73) 
oracle

>  <origin>  (73) 
autodockgpu

>  <m_score__min__energy>  (73) 
-8.3300000000000001

>  <m_primary>  (73) 
energy

>  <rmsd>  (73) 
7.76827847301846

>  <m_score__min__rmsd>  (73) 
7.76827847301846

>  <meeko>  (73) 
{"free_energy": -8.33, "intermolecular_energy": -10.12, "internal_energy": -1.71, "cluster_size": 6, "cluster_id": 1, "rank_in_cluster": 1}

>  <energy>  (73) 
-7.87

>  <cluster_rmsd>  (73) 
0.86

>  <cluster>  (73) 
3

$$$$

     RDKit          3D

 54 57  0  0  0  0  0  0  0  0999 V2000
  140.4260   73.4360  220.6490 O   0  0  0  0  0  0  0  0  0  0  0  0
  139.8570   73.5780  221.7780 C   0  0  0  0  0  0  0  0  0  0  0  0
  139.3300   74.8560  222.1710 N   0  0  0  0  0  0  0  0  0  0  0  0
  139.5040   75.9280  221.1940 C   0  0  0  0  0  0  0  0  0  0  0  0
  140.7480   76.6920  221.4610 C   0  0  0  0  0  0  0  0  0  0  0  0
  141.2480   76.7960  222.6260 O   0  0  0  0  0  0  0  0  0  0  0  0
  141.4200   77.3370  220.4140 N   0  0  0  0  0  0  0  0  0  0  0  0
  141.7970   78.7460  220.6050 C   0  0  0  0  0  0  0  0  0  0  0  0
  141.2000   79.5690  219.4770 C   0  0  0  0  0  0  0  0  0  0  0  0
  141.3220   78.8660  218.1500 C   0  0  0  0  0  0  0  0  0  0  0  0
  142.3240   77.7200  218.2190 C   0  0  0  0  0  0  0  0  0  0  0  0
  141.7570   76.6870  219.1670 C   0  0  1  0  0  0  0  0  0  0  0  0
  142.6630   75.5270  219.3210 C   0  0  0  0  0  0  0  0  0  0  0  0
  142.3220   74.3500  218.6630 C   0  0  0  0  0  0  0  0  0  0  0  0
  143.1410   73.2570  218.7850 C   0  0  0  0  0  0  0  0  0  0  0  0
  144.2800   73.3330  219.5480 C   0  0  0  0  0  0  0  0  0  0  0  0
  145.3260   71.9120  219.6950 Cl  0  0  0  0  0  0  0  0  0  0  0  0
  144.6320   74.5050  220.2110 C   0  0  0  0  0  0  0  0  0  0  0  0
  143.8170   75.6180  220.0980 C   0  0  0  0  0  0  0  0  0  0  0  0
  139.7380   72.4330  222.6800 C   0  0  0  0  0  0  0  0  0  0  0  0
  138.8190   71.4590  222.4280 C   0  0  0  0  0  0  0  0  0  0  0  0
  138.6350   70.3390  223.2250 C   0  0  0  0  0  0  0  0  0  0  0  0
  139.4490   70.2380  224.3340 C   0  0  0  0  0  0  0  0  0  0  0  0
  139.3210   69.1510  225.1700 C   0  0  0  0  0  0  0  0  0  0  0  0
  140.1130   69.0010  226.2940 C   0  0  0  0  0  0  0  0  0  0  0  0
  139.9820   67.8420  227.1940 C   0  0  0  0  0  0  0  0  0  0  0  0
  141.1210   67.0700  227.0840 F   0  0  0  0  0  0  0  0  0  0  0  0
  138.9060   67.0750  226.7780 F   0  0  0  0  0  0  0  0  0  0  0  0
  139.8380   68.2030  228.5130 F   0  0  0  0  0  0  0  0  0  0  0  0
  141.0530   69.9890  226.5570 C   0  0  0  0  0  0  0  0  0  0  0  0
  141.1860   71.0870  225.7180 C   0  0  0  0  0  0  0  0  0  0  0  0
  140.3910   71.2260  224.6000 C   0  0  0  0  0  0  0  0  0  0  0  0
  140.5230   72.3010  223.7800 N   0  0  0  0  0  0  0  0  0  0  0  0
  138.8560   75.0090  223.0890 H   0  0  0  0  0  0  0  0  0  0  0  0
  139.5592   75.4910  220.1860 H   0  0  0  0  0  0  0  0  0  0  0  0
  138.6475   76.6141  221.2693 H   0  0  0  0  0  0  0  0  0  0  0  0
  141.4095   79.1050  221.5699 H   0  0  0  0  0  0  0  0  0  0  0  0
  142.8926   78.8439  220.6001 H   0  0  0  0  0  0  0  0  0  0  0  0
  140.1355   79.7466  219.6899 H   0  0  0  0  0  0  0  0  0  0  0  0
  141.7529   80.5179  219.4147 H   0  0  0  0  0  0  0  0  0  0  0  0
  140.3381   78.4647  217.8656 H   0  0  0  0  0  0  0  0  0  0  0  0
  141.6772   79.5925  217.4043 H   0  0  0  0  0  0  0  0  0  0  0  0
  142.4623   77.2796  217.2205 H   0  0  0  0  0  0  0  0  0  0  0  0
  143.3028   78.0777  218.5711 H   0  0  0  0  0  0  0  0  0  0  0  0
  140.8328   76.2596  218.7508 H   0  0  0  0  0  0  0  0  0  0  0  0
  141.4080   74.2967  218.0532 H   0  0  0  0  0  0  0  0  0  0  0  0
  142.8853   72.3186  218.2712 H   0  0  0  0  0  0  0  0  0  0  0  0
  145.5482   74.5463  220.8184 H   0  0  0  0  0  0  0  0  0  0  0  0
  144.0748   76.5561  220.6113 H   0  0  0  0  0  0  0  0  0  0  0  0
  138.1834   71.5678  221.5368 H   0  0  0  0  0  0  0  0  0  0  0  0
  137.8818   69.5738  222.9860 H   0  0  0  0  0  0  0  0  0  0  0  0
  138.5694   68.3821  224.9378 H   0  0  0  0  0  0  0  0  0  0  0  0
  141.7006   69.9003  227.4417 H   0  0  0  0  0  0  0  0  0  0  0  0
  141.9366   71.8574  225.9485 H   0  0  0  0  0  0  0  0  0  0  0  0
  1  2  2  0
  2  3  1  0
  3  4  1  0
  4  5  1  0
  5  6  2  0
  5  7  1  0
  7  8  1  0
  8  9  1  0
  9 10  1  0
 10 11  1  0
 11 12  1  0
 12 13  1  0
 13 14  2  0
 14 15  1  0
 15 16  2  0
 16 17  1  0
 16 18  1  0
 18 19  2  0
  2 20  1  0
 20 21  2  0
 21 22  1  0
 22 23  2  0
 23 24  1  0
 24 25  2  0
 25 26  1  0
 26 27  1  0
 26 28  1  0
 26 29  1  0
 25 30  1  0
 30 31  2  0
 31 32  1  0
 32 33  2  0
 12  7  1  0
 19 13  1  0
 33 20  1  0
 32 23  1  0
  3 34  1  0
  4 35  1  0
  4 36  1  0
  8 37  1  0
  8 38  1  0
  9 39  1  0
  9 40  1  0
 10 41  1  0
 10 42  1  0
 11 43  1  0
 11 44  1  0
 12 45  1  6
 14 46  1  0
 15 47  1  0
 18 48  1  0
 19 49  1  0
 21 50  1  0
 22 51  1  0
 24 52  1  0
 30 53  1  0
 31 54  1  0
M  END
>  <smiles>  (74) 
O=C(NCC(=O)N1CCCCC1c1ccc(Cl)cc1)c1ccc2cc(C(F)(F)F)ccc2n1

>  <score_type>  (74) 
oracle

>  <origin>  (74) 
autodockgpu

>  <m_score__min__energy>  (74) 
-8.3300000000000001

>  <m_primary>  (74) 
energy

>  <rmsd>  (74) 
2.8576018295744783

>  <m_score__min__rmsd>  (74) 
2.8576018295744783

>  <meeko>  (74) 
{"free_energy": -7.72, "intermolecular_energy": -9.51, "internal_energy": -1.98, "cluster_size": 13, "cluster_id": 2, "rank_in_cluster": 9}

>  <energy>  (74) 
-7.83

>  <cluster_rmsd>  (74) 
0.84

>  <cluster>  (74) 
3

$$$$

     RDKit          3D

 54 57  0  0  0  0  0  0  0  0999 V2000
  140.3700   73.2720  220.5950 O   0  0  0  0  0  0  0  0  0  0  0  0
  139.8870   73.4790  221.7530 C   0  0  0  0  0  0  0  0  0  0  0  0
  139.4500   74.7940  222.1350 N   0  0  0  0  0  0  0  0  0  0  0  0
  139.6080   75.8240  221.1110 C   0  0  0  0  0  0  0  0  0  0  0  0
  140.7080   76.7560  221.4620 C   0  0  0  0  0  0  0  0  0  0  0  0
  141.0440   76.9940  222.6660 O   0  0  0  0  0  0  0  0  0  0  0  0
  141.4240   77.4160  220.4540 N   0  0  0  0  0  0  0  0  0  0  0  0
  141.8550   78.7990  220.7110 C   0  0  0  0  0  0  0  0  0  0  0  0
  141.3110   79.6930  219.6100 C   0  0  0  0  0  0  0  0  0  0  0  0
  141.4260   79.0430  218.2570 C   0  0  0  0  0  0  0  0  0  0  0  0
  142.3790   77.8540  218.2910 C   0  0  0  0  0  0  0  0  0  0  0  0
  141.7550   76.8060  219.1850 C   0  0  1  0  0  0  0  0  0  0  0  0
  142.6100   75.6040  219.3020 C   0  0  0  0  0  0  0  0  0  0  0  0
  143.7530   75.6990  220.0900 C   0  0  0  0  0  0  0  0  0  0  0  0
  144.5670   74.6020  220.2180 C   0  0  0  0  0  0  0  0  0  0  0  0
  144.2500   73.4330  219.5750 C   0  0  0  0  0  0  0  0  0  0  0  0
  145.3120   72.0270  219.7510 Cl  0  0  0  0  0  0  0  0  0  0  0  0
  143.1100   73.3250  218.7830 C   0  0  0  0  0  0  0  0  0  0  0  0
  142.2770   74.4220  218.6430 C   0  0  0  0  0  0  0  0  0  0  0  0
  139.7750   72.3710  222.7020 C   0  0  0  0  0  0  0  0  0  0  0  0
  138.8470   71.3940  222.5040 C   0  0  0  0  0  0  0  0  0  0  0  0
  138.6680   70.3080  223.3470 C   0  0  0  0  0  0  0  0  0  0  0  0
  139.4990   70.2440  224.4460 C   0  0  0  0  0  0  0  0  0  0  0  0
  139.3780   69.1920  225.3260 C   0  0  0  0  0  0  0  0  0  0  0  0
  140.1870   69.0810  226.4420 C   0  0  0  0  0  0  0  0  0  0  0  0
  140.0640   67.9600  227.3890 C   0  0  0  0  0  0  0  0  0  0  0  0
  141.3050   67.3740  227.5400 F   0  0  0  0  0  0  0  0  0  0  0  0
  139.2090   67.0130  226.8480 F   0  0  0  0  0  0  0  0  0  0  0  0
  139.6250   68.3540  228.6310 F   0  0  0  0  0  0  0  0  0  0  0  0
  141.1380   70.0730  226.6510 C   0  0  0  0  0  0  0  0  0  0  0  0
  141.2640   71.1360  225.7680 C   0  0  0  0  0  0  0  0  0  0  0  0
  140.4520   71.2360  224.6570 C   0  0  0  0  0  0  0  0  0  0  0  0
  140.5780   72.2770  223.7930 N   0  0  0  0  0  0  0  0  0  0  0  0
  139.0490   74.9990  223.0770 H   0  0  0  0  0  0  0  0  0  0  0  0
  139.8370   75.3429  220.1487 H   0  0  0  0  0  0  0  0  0  0  0  0
  138.6713   76.3966  221.0413 H   0  0  0  0  0  0  0  0  0  0  0  0
  141.4662   79.1327  221.6844 H   0  0  0  0  0  0  0  0  0  0  0  0
  142.9536   78.8516  220.7270 H   0  0  0  0  0  0  0  0  0  0  0  0
  140.2513   79.9056  219.8144 H   0  0  0  0  0  0  0  0  0  0  0  0
  141.9036   80.6197  219.5967 H   0  0  0  0  0  0  0  0  0  0  0  0
  140.4313   78.6956  217.9411 H   0  0  0  0  0  0  0  0  0  0  0  0
  141.8231   79.7851  217.5488 H   0  0  0  0  0  0  0  0  0  0  0  0
  142.5153   77.4512  217.2765 H   0  0  0  0  0  0  0  0  0  0  0  0
  143.3657   78.1553  218.6725 H   0  0  0  0  0  0  0  0  0  0  0  0
  140.8212   76.4352  218.7372 H   0  0  0  0  0  0  0  0  0  0  0  0
  144.0004   76.6401  220.6029 H   0  0  0  0  0  0  0  0  0  0  0  0
  145.4745   74.6602  220.8369 H   0  0  0  0  0  0  0  0  0  0  0  0
  142.8738   72.3788  218.2742 H   0  0  0  0  0  0  0  0  0  0  0  0
  141.3699   74.3618  218.0237 H   0  0  0  0  0  0  0  0  0  0  0  0
  138.1983   71.4715  221.6190 H   0  0  0  0  0  0  0  0  0  0  0  0
  137.9055   69.5399  223.1503 H   0  0  0  0  0  0  0  0  0  0  0  0
  138.6180   68.4197  225.1364 H   0  0  0  0  0  0  0  0  0  0  0  0
  141.7995   70.0146  227.5280 H   0  0  0  0  0  0  0  0  0  0  0  0
  142.0223   71.9102  225.9565 H   0  0  0  0  0  0  0  0  0  0  0  0
  1  2  2  0
  2  3  1  0
  3  4  1  0
  4  5  1  0
  5  6  2  0
  5  7  1  0
  7  8  1  0
  8  9  1  0
  9 10  1  0
 10 11  1  0
 11 12  1  0
 12 13  1  0
 13 14  2  0
 14 15  1  0
 15 16  2  0
 16 17  1  0
 16 18  1  0
 18 19  2  0
  2 20  1  0
 20 21  2  0
 21 22  1  0
 22 23  2  0
 23 24  1  0
 24 25  2  0
 25 26  1  0
 26 27  1  0
 26 28  1  0
 26 29  1  0
 25 30  1  0
 30 31  2  0
 31 32  1  0
 32 33  2  0
 12  7  1  0
 19 13  1  0
 33 20  1  0
 32 23  1  0
  3 34  1  0
  4 35  1  0
  4 36  1  0
  8 37  1  0
  8 38  1  0
  9 39  1  0
  9 40  1  0
 10 41  1  0
 10 42  1  0
 11 43  1  0
 11 44  1  0
 12 45  1  6
 14 46  1  0
 15 47  1  0
 18 48  1  0
 19 49  1  0
 21 50  1  0
 22 51  1  0
 24 52  1  0
 30 53  1  0
 31 54  1  0
M  END
>  <smiles>  (75) 
O=C(NCC(=O)N1CCCCC1c1ccc(Cl)cc1)c1ccc2cc(C(F)(F)F)ccc2n1

>  <score_type>  (75) 
oracle

>  <origin>  (75) 
autodockgpu

>  <m_score__min__energy>  (75) 
-8.3300000000000001

>  <m_primary>  (75) 
energy

>  <rmsd>  (75) 
2.8728072211275295

>  <m_score__min__rmsd>  (75) 
2.8728072211275295

>  <meeko>  (75) 
{"free_energy": -7.81, "intermolecular_energy": -9.59, "internal_energy": -2.01, "cluster_size": 13, "cluster_id": 2, "rank_in_cluster": 5}

>  <energy>  (75) 
-7.82

>  <cluster_rmsd>  (75) 
1.02

>  <cluster>  (75) 
3

$$$$

     RDKit          3D

 54 57  0  0  0  0  0  0  0  0999 V2000
  136.7370   74.7930  221.0700 O   0  0  0  0  0  0  0  0  0  0  0  0
  137.7670   74.5460  221.7730 C   0  0  0  0  0  0  0  0  0  0  0  0
  137.9600   73.2430  222.3470 N   0  0  0  0  0  0  0  0  0  0  0  0
  136.9060   72.2730  222.0580 C   0  0  0  0  0  0  0  0  0  0  0  0
  136.9170   71.1680  223.0480 C   0  0  0  0  0  0  0  0  0  0  0  0
  136.2110   71.1930  224.1060 O   0  0  0  0  0  0  0  0  0  0  0  0
  137.7240   70.0410  222.8420 N   0  0  0  0  0  0  0  0  0  0  0  0
  138.1790   69.7640  221.4710 C   0  0  0  0  0  0  0  0  0  0  0  0
  137.7450   68.3610  221.0860 C   0  0  0  0  0  0  0  0  0  0  0  0
  137.9370   67.3880  222.2190 C   0  0  0  0  0  0  0  0  0  0  0  0
  138.8470   67.9640  223.2970 C   0  0  0  0  0  0  0  0  0  0  0  0
  138.1270   69.1470  223.9050 C   0  0  1  0  0  0  0  0  0  0  0  0
  138.9330   69.7960  224.9620 C   0  0  0  0  0  0  0  0  0  0  0  0
  139.6840   70.9120  224.6080 C   0  0  0  0  0  0  0  0  0  0  0  0
  140.4420   71.5360  225.5660 C   0  0  0  0  0  0  0  0  0  0  0  0
  140.4540   71.0600  226.8520 C   0  0  0  0  0  0  0  0  0  0  0  0
  141.4380   71.8780  228.0750 Cl  0  0  0  0  0  0  0  0  0  0  0  0
  139.7060   69.9440  227.2190 C   0  0  0  0  0  0  0  0  0  0  0  0
  138.9350   69.3020  226.2660 C   0  0  0  0  0  0  0  0  0  0  0  0
  138.7610   75.5950  221.9990 C   0  0  0  0  0  0  0  0  0  0  0  0
  140.0710   75.3700  221.6990 C   0  0  0  0  0  0  0  0  0  0  0  0
  141.0810   76.3020  221.8780 C   0  0  0  0  0  0  0  0  0  0  0  0
  140.7010   77.5240  222.3940 C   0  0  0  0  0  0  0  0  0  0  0  0
  141.6530   78.4980  222.5980 C   0  0  0  0  0  0  0  0  0  0  0  0
  141.3250   79.7390  223.1120 C   0  0  0  0  0  0  0  0  0  0  0  0
  142.3360   80.7860  223.3340 C   0  0  0  0  0  0  0  0  0  0  0  0
  141.7310   82.0180  223.1900 F   0  0  0  0  0  0  0  0  0  0  0  0
  143.3130   80.6750  222.3570 F   0  0  0  0  0  0  0  0  0  0  0  0
  142.8980   80.7320  224.5880 F   0  0  0  0  0  0  0  0  0  0  0  0
  139.9910   79.9770  223.4200 C   0  0  0  0  0  0  0  0  0  0  0  0
  139.0270   78.9990  223.2170 C   0  0  0  0  0  0  0  0  0  0  0  0
  139.3660   77.7650  222.7030 C   0  0  0  0  0  0  0  0  0  0  0  0
  138.4220   76.8090  222.5050 N   0  0  0  0  0  0  0  0  0  0  0  0
  138.7940   73.0050  222.9290 H   0  0  0  0  0  0  0  0  0  0  0  0
  135.9304   72.7797  222.0948 H   0  0  0  0  0  0  0  0  0  0  0  0
  137.0822   71.8504  221.0578 H   0  0  0  0  0  0  0  0  0  0  0  0
  137.7318   70.4925  220.7787 H   0  0  0  0  0  0  0  0  0  0  0  0
  139.2747   69.8444  221.4172 H   0  0  0  0  0  0  0  0  0  0  0  0
  136.6805   68.3805  220.8093 H   0  0  0  0  0  0  0  0  0  0  0  0
  138.3660   68.0298  220.2406 H   0  0  0  0  0  0  0  0  0  0  0  0
  136.9573   67.1575  222.6630 H   0  0  0  0  0  0  0  0  0  0  0  0
  138.4073   66.4779  221.8184 H   0  0  0  0  0  0  0  0  0  0  0  0
  139.0439   67.2054  224.0688 H   0  0  0  0  0  0  0  0  0  0  0  0
  139.8124   68.2722  222.8692 H   0  0  0  0  0  0  0  0  0  0  0  0
  137.2169   68.8102  224.4229 H   0  0  0  0  0  0  0  0  0  0  0  0
  139.6703   71.2888  223.5746 H   0  0  0  0  0  0  0  0  0  0  0  0
  141.0413   72.4199  225.3022 H   0  0  0  0  0  0  0  0  0  0  0  0
  139.7279   69.5767  228.2556 H   0  0  0  0  0  0  0  0  0  0  0  0
  138.3353   68.4190  226.5320 H   0  0  0  0  0  0  0  0  0  0  0  0
  140.3441   74.3865  221.2889 H   0  0  0  0  0  0  0  0  0  0  0  0
  142.1277   76.0798  221.6228 H   0  0  0  0  0  0  0  0  0  0  0  0
  142.7018   78.2831  222.3454 H   0  0  0  0  0  0  0  0  0  0  0  0
  139.6949   80.9537  223.8303 H   0  0  0  0  0  0  0  0  0  0  0  0
  137.9777   79.2113  223.4697 H   0  0  0  0  0  0  0  0  0  0  0  0
  1  2  2  0
  2  3  1  0
  3  4  1  0
  4  5  1  0
  5  6  2  0
  5  7  1  0
  7  8  1  0
  8  9  1  0
  9 10  1  0
 10 11  1  0
 11 12  1  0
 12 13  1  0
 13 14  2  0
 14 15  1  0
 15 16  2  0
 16 17  1  0
 16 18  1  0
 18 19  2  0
  2 20  1  0
 20 21  2  0
 21 22  1  0
 22 23  2  0
 23 24  1  0
 24 25  2  0
 25 26  1  0
 26 27  1  0
 26 28  1  0
 26 29  1  0
 25 30  1  0
 30 31  2  0
 31 32  1  0
 32 33  2  0
 12  7  1  0
 19 13  1  0
 33 20  1  0
 32 23  1  0
  3 34  1  0
  4 35  1  0
  4 36  1  0
  8 37  1  0
  8 38  1  0
  9 39  1  0
  9 40  1  0
 10 41  1  0
 10 42  1  0
 11 43  1  0
 11 44  1  0
 12 45  1  1
 14 46  1  0
 15 47  1  0
 18 48  1  0
 19 49  1  0
 21 50  1  0
 22 51  1  0
 24 52  1  0
 30 53  1  0
 31 54  1  0
M  END
>  <smiles>  (76) 
O=C(NCC(=O)N1CCCCC1c1ccc(Cl)cc1)c1ccc2cc(C(F)(F)F)ccc2n1

>  <score_type>  (76) 
oracle

>  <origin>  (76) 
autodockgpu

>  <m_score__min__energy>  (76) 
-8.3300000000000001

>  <m_primary>  (76) 
energy

>  <rmsd>  (76) 
7.957733114864738

>  <m_score__min__rmsd>  (76) 
7.957733114864738

>  <meeko>  (76) 
{"free_energy": -8.09, "intermolecular_energy": -9.88, "internal_energy": -1.53, "cluster_size": 8, "cluster_id": 3, "rank_in_cluster": 1}

>  <energy>  (76) 
-7.6

>  <cluster_rmsd>  (76) 
1.43

>  <cluster>  (76) 
3

$$$$

     RDKit          3D

 54 57  0  0  0  0  0  0  0  0999 V2000
  139.9300   72.1240  220.2570 O   0  0  0  0  0  0  0  0  0  0  0  0
  139.4480   72.5810  221.3410 C   0  0  0  0  0  0  0  0  0  0  0  0
  138.7980   73.8620  221.3650 N   0  0  0  0  0  0  0  0  0  0  0  0
  138.7470   74.5580  220.0810 C   0  0  0  0  0  0  0  0  0  0  0  0
  138.6760   76.0280  220.2780 C   0  0  0  0  0  0  0  0  0  0  0  0
  137.9860   76.7850  219.5230 O   0  0  0  0  0  0  0  0  0  0  0  0
  139.3840   76.6360  221.3230 N   0  0  0  0  0  0  0  0  0  0  0  0
  138.7410   76.6950  222.6450 C   0  0  0  0  0  0  0  0  0  0  0  0
  138.6810   78.1440  223.0950 C   0  0  0  0  0  0  0  0  0  0  0  0
  139.9560   78.8790  222.7770 C   0  0  0  0  0  0  0  0  0  0  0  0
  141.0860   77.9120  222.4440 C   0  0  0  0  0  0  0  0  0  0  0  0
  140.7050   77.2030  221.1640 C   0  0  1  0  0  0  0  0  0  0  0  0
  141.7330   76.2220  220.7520 C   0  0  0  0  0  0  0  0  0  0  0  0
  142.7020   76.6440  219.8480 C   0  0  0  0  0  0  0  0  0  0  0  0
  143.6700   75.7580  219.4470 C   0  0  0  0  0  0  0  0  0  0  0  0
  143.6740   74.4760  219.9360 C   0  0  0  0  0  0  0  0  0  0  0  0
  144.9300   73.3470  219.4070 Cl  0  0  0  0  0  0  0  0  0  0  0  0
  142.7090   74.0420  220.8410 C   0  0  0  0  0  0  0  0  0  0  0  0
  141.7260   74.9230  221.2570 C   0  0  0  0  0  0  0  0  0  0  0  0
  139.5550   71.7970  222.5720 C   0  0  0  0  0  0  0  0  0  0  0  0
  138.8900   70.6130  222.6860 C   0  0  0  0  0  0  0  0  0  0  0  0
  138.9330   69.8030  223.8110 C   0  0  0  0  0  0  0  0  0  0  0  0
  139.7050   70.2550  224.8610 C   0  0  0  0  0  0  0  0  0  0  0  0
  139.7930   69.5010  226.0090 C   0  0  0  0  0  0  0  0  0  0  0  0
  140.5540   69.9080  227.0900 C   0  0  0  0  0  0  0  0  0  0  0  0
  140.6540   69.1090  228.3230 C   0  0  0  0  0  0  0  0  0  0  0  0
  140.6670   67.7720  227.9800 F   0  0  0  0  0  0  0  0  0  0  0  0
  139.5250   69.3390  229.0940 F   0  0  0  0  0  0  0  0  0  0  0  0
  141.7940   69.3750  229.0440 F   0  0  0  0  0  0  0  0  0  0  0  0
  141.2360   71.1140  226.9810 C   0  0  0  0  0  0  0  0  0  0  0  0
  141.1510   71.8780  225.8250 C   0  0  0  0  0  0  0  0  0  0  0  0
  140.3890   71.4620  224.7540 C   0  0  0  0  0  0  0  0  0  0  0  0
  140.3070   72.2110  223.6240 N   0  0  0  0  0  0  0  0  0  0  0  0
  138.3900   74.2680  222.2370 H   0  0  0  0  0  0  0  0  0  0  0  0
  139.6512   74.3152  219.5035 H   0  0  0  0  0  0  0  0  0  0  0  0
  137.8466   74.2319  219.5398 H   0  0  0  0  0  0  0  0  0  0  0  0
  137.7221   76.2857  222.5793 H   0  0  0  0  0  0  0  0  0  0  0  0
  139.3193   76.1022  223.3690 H   0  0  0  0  0  0  0  0  0  0  0  0
  137.8449   78.6422  222.5823 H   0  0  0  0  0  0  0  0  0  0  0  0
  138.5395   78.1588  224.1858 H   0  0  0  0  0  0  0  0  0  0  0  0
  139.7833   79.5387  221.9139 H   0  0  0  0  0  0  0  0  0  0  0  0
  140.2492   79.4632  223.6617 H   0  0  0  0  0  0  0  0  0  0  0  0
  142.0262   78.4653  222.3029 H   0  0  0  0  0  0  0  0  0  0  0  0
  141.2357   77.1903  223.2605 H   0  0  0  0  0  0  0  0  0  0  0  0
  140.6640   77.9219  220.3325 H   0  0  0  0  0  0  0  0  0  0  0  0
  142.6925   77.6733  219.4600 H   0  0  0  0  0  0  0  0  0  0  0  0
  144.4437   76.0759  218.7327 H   0  0  0  0  0  0  0  0  0  0  0  0
  142.7277   73.0100  221.2213 H   0  0  0  0  0  0  0  0  0  0  0  0
  140.9539   74.6040  221.9726 H   0  0  0  0  0  0  0  0  0  0  0  0
  138.2813   70.2790  221.8328 H   0  0  0  0  0  0  0  0  0  0  0  0
  138.3818   68.8525  223.8631 H   0  0  0  0  0  0  0  0  0  0  0  0
  139.2438   68.5498  226.0685 H   0  0  0  0  0  0  0  0  0  0  0  0
  141.8511   71.4678  227.8216 H   0  0  0  0  0  0  0  0  0  0  0  0
  141.6997   72.8293  225.7626 H   0  0  0  0  0  0  0  0  0  0  0  0
  1  2  2  0
  2  3  1  0
  3  4  1  0
  4  5  1  0
  5  6  2  0
  5  7  1  0
  7  8  1  0
  8  9  1  0
  9 10  1  0
 10 11  1  0
 11 12  1  0
 12 13  1  0
 13 14  2  0
 14 15  1  0
 15 16  2  0
 16 17  1  0
 16 18  1  0
 18 19  2  0
  2 20  1  0
 20 21  2  0
 21 22  1  0
 22 23  2  0
 23 24  1  0
 24 25  2  0
 25 26  1  0
 26 27  1  0
 26 28  1  0
 26 29  1  0
 25 30  1  0
 30 31  2  0
 31 32  1  0
 32 33  2  0
 12  7  1  0
 19 13  1  0
 33 20  1  0
 32 23  1  0
  3 34  1  0
  4 35  1  0
  4 36  1  0
  8 37  1  0
  8 38  1  0
  9 39  1  0
  9 40  1  0
 10 41  1  0
 10 42  1  0
 11 43  1  0
 11 44  1  0
 12 45  1  6
 14 46  1  0
 15 47  1  0
 18 48  1  0
 19 49  1  0
 21 50  1  0
 22 51  1  0
 24 52  1  0
 30 53  1  0
 31 54  1  0
M  END
>  <smiles>  (77) 
O=C(NCC(=O)N1CCCCC1c1ccc(Cl)cc1)c1ccc2cc(C(F)(F)F)ccc2n1

>  <score_type>  (77) 
oracle

>  <origin>  (77) 
autodockgpu

>  <m_score__min__energy>  (77) 
-8.3300000000000001

>  <m_primary>  (77) 
energy

>  <rmsd>  (77) 
3.0462283462682977

>  <m_score__min__rmsd>  (77) 
3.0462283462682977

>  <meeko>  (77) 
{"free_energy": -7.56, "intermolecular_energy": -9.35, "internal_energy": -2.0, "cluster_size": 13, "cluster_id": 2, "rank_in_cluster": 11}

>  <energy>  (77) 
-6.71

>  <cluster_rmsd>  (77) 
1.92

>  <cluster>  (77) 
3

$$$$

     RDKit          3D

 54 57  0  0  0  0  0  0  0  0999 V2000
  140.3400   72.1660  220.0950 O   0  0  0  0  0  0  0  0  0  0  0  0
  139.5350   72.4730  221.0310 C   0  0  0  0  0  0  0  0  0  0  0  0
  138.6170   73.5670  220.8700 N   0  0  0  0  0  0  0  0  0  0  0  0
  138.6940   74.2620  219.5870 C   0  0  0  0  0  0  0  0  0  0  0  0
  138.7130   75.7330  219.7810 C   0  0  0  0  0  0  0  0  0  0  0  0
  138.2510   76.5420  218.9150 O   0  0  0  0  0  0  0  0  0  0  0  0
  139.2540   76.2850  220.9510 N   0  0  0  0  0  0  0  0  0  0  0  0
  138.4720   76.1680  222.1910 C   0  0  0  0  0  0  0  0  0  0  0  0
  138.2470   77.5580  222.7590 C   0  0  0  0  0  0  0  0  0  0  0  0
  139.4850   78.4090  222.6550 C   0  0  0  0  0  0  0  0  0  0  0  0
  140.7180   77.5630  222.3670 C   0  0  0  0  0  0  0  0  0  0  0  0
  140.5340   76.9570  220.9930 C   0  0  1  0  0  0  0  0  0  0  0  0
  141.6770   76.0970  220.6140 C   0  0  0  0  0  0  0  0  0  0  0  0
  141.7250   74.8140  221.1510 C   0  0  0  0  0  0  0  0  0  0  0  0
  142.7720   73.9920  220.8190 C   0  0  0  0  0  0  0  0  0  0  0  0
  143.7530   74.4380  219.9700 C   0  0  0  0  0  0  0  0  0  0  0  0
  145.0970   73.3640  219.5530 Cl  0  0  0  0  0  0  0  0  0  0  0  0
  143.7170   75.7200  219.4270 C   0  0  0  0  0  0  0  0  0  0  0  0
  142.6670   76.5620  219.7500 C   0  0  0  0  0  0  0  0  0  0  0  0
  139.5430   71.7080  222.2770 C   0  0  0  0  0  0  0  0  0  0  0  0
  138.9030   70.5070  222.3440 C   0  0  0  0  0  0  0  0  0  0  0  0
  138.8570   69.7120  223.4790 C   0  0  0  0  0  0  0  0  0  0  0  0
  139.5110   70.1980  224.5920 C   0  0  0  0  0  0  0  0  0  0  0  0
  139.5070   69.4610  225.7550 C   0  0  0  0  0  0  0  0  0  0  0  0
  140.1480   69.9030  226.8980 C   0  0  0  0  0  0  0  0  0  0  0  0
  140.1480   69.1220  228.1470 C   0  0  0  0  0  0  0  0  0  0  0  0
  139.2790   69.7180  229.0380 F   0  0  0  0  0  0  0  0  0  0  0  0
  141.4190   69.1650  228.6980 F   0  0  0  0  0  0  0  0  0  0  0  0
  139.7450   67.8200  227.9650 F   0  0  0  0  0  0  0  0  0  0  0  0
  140.8040   71.1260  226.8380 C   0  0  0  0  0  0  0  0  0  0  0  0
  140.8110   71.8740  225.6690 C   0  0  0  0  0  0  0  0  0  0  0  0
  140.1690   71.4230  224.5340 C   0  0  0  0  0  0  0  0  0  0  0  0
  140.1770   72.1560  223.3910 N   0  0  0  0  0  0  0  0  0  0  0  0
  137.9420   73.8470  221.6160 H   0  0  0  0  0  0  0  0  0  0  0  0
  139.6132   73.9557  219.0662 H   0  0  0  0  0  0  0  0  0  0  0  0
  137.8080   73.9979  218.9909 H   0  0  0  0  0  0  0  0  0  0  0  0
  137.5026   75.6957  221.9738 H   0  0  0  0  0  0  0  0  0  0  0  0
  139.0163   75.5494  222.9198 H   0  0  0  0  0  0  0  0  0  0  0  0
  137.4327   78.0436  222.2012 H   0  0  0  0  0  0  0  0  0  0  0  0
  137.9893   77.4560  223.8235 H   0  0  0  0  0  0  0  0  0  0  0  0
  139.3519   79.1365  221.8407 H   0  0  0  0  0  0  0  0  0  0  0  0
  139.6341   78.9223  223.6164 H   0  0  0  0  0  0  0  0  0  0  0  0
  141.6195   78.1931  222.3833 H   0  0  0  0  0  0  0  0  0  0  0  0
  140.8386   76.7773  223.1273 H   0  0  0  0  0  0  0  0  0  0  0  0
  140.5229   77.7483  220.2290 H   0  0  0  0  0  0  0  0  0  0  0  0
  140.9350   74.4641  221.8317 H   0  0  0  0  0  0  0  0  0  0  0  0
  142.8249   72.9746  221.2338 H   0  0  0  0  0  0  0  0  0  0  0  0
  144.5140   76.0595  218.7491 H   0  0  0  0  0  0  0  0  0  0  0  0
  142.6148   77.5785  219.3329 H   0  0  0  0  0  0  0  0  0  0  0  0
  138.3904   70.1453  221.4405 H   0  0  0  0  0  0  0  0  0  0  0  0
  138.3284   68.7474  223.4912 H   0  0  0  0  0  0  0  0  0  0  0  0
  138.9803   68.4955  225.7756 H   0  0  0  0  0  0  0  0  0  0  0  0
  141.3249   71.5067  227.7289 H   0  0  0  0  0  0  0  0  0  0  0  0
  141.3360   72.8404  225.6470 H   0  0  0  0  0  0  0  0  0  0  0  0
  1  2  2  0
  2  3  1  0
  3  4  1  0
  4  5  1  0
  5  6  2  0
  5  7  1  0
  7  8  1  0
  8  9  1  0
  9 10  1  0
 10 11  1  0
 11 12  1  0
 12 13  1  0
 13 14  2  0
 14 15  1  0
 15 16  2  0
 16 17  1  0
 16 18  1  0
 18 19  2  0
  2 20  1  0
 20 21  2  0
 21 22  1  0
 22 23  2  0
 23 24  1  0
 24 25  2  0
 25 26  1  0
 26 27  1  0
 26 28  1  0
 26 29  1  0
 25 30  1  0
 30 31  2  0
 31 32  1  0
 32 33  2  0
 12  7  1  0
 19 13  1  0
 33 20  1  0
 32 23  1  0
  3 34  1  0
  4 35  1  0
  4 36  1  0
  8 37  1  0
  8 38  1  0
  9 39  1  0
  9 40  1  0
 10 41  1  0
 10 42  1  0
 11 43  1  0
 11 44  1  0
 12 45  1  6
 14 46  1  0
 15 47  1  0
 18 48  1  0
 19 49  1  0
 21 50  1  0
 22 51  1  0
 24 52  1  0
 30 53  1  0
 31 54  1  0
M  END
>  <smiles>  (78) 
O=C(NCC(=O)N1CCCCC1c1ccc(Cl)cc1)c1ccc2cc(C(F)(F)F)ccc2n1

>  <score_type>  (78) 
oracle

>  <origin>  (78) 
autodockgpu

>  <m_score__min__energy>  (78) 
-8.3300000000000001

>  <m_primary>  (78) 
energy

>  <rmsd>  (78) 
2.940999683267583

>  <m_score__min__rmsd>  (78) 
2.940999683267583

>  <meeko>  (78) 
{"free_energy": -7.16, "intermolecular_energy": -8.95, "internal_energy": -2.09, "cluster_size": 13, "cluster_id": 2, "rank_in_cluster": 13}

>  <energy>  (78) 
-7.69

>  <cluster_rmsd>  (78) 
0.0

>  <cluster>  (78) 
4

$$$$

     RDKit          3D

 54 57  0  0  0  0  0  0  0  0999 V2000
  140.4550   74.3280  221.9090 O   0  0  0  0  0  0  0  0  0  0  0  0
  140.2220   73.1100  221.6280 C   0  0  0  0  0  0  0  0  0  0  0  0
  140.0960   72.6910  220.2590 N   0  0  0  0  0  0  0  0  0  0  0  0
  140.2520   73.7520  219.2660 C   0  0  0  0  0  0  0  0  0  0  0  0
  141.4700   73.5350  218.4470 C   0  0  0  0  0  0  0  0  0  0  0  0
  141.4180   73.1630  217.2310 O   0  0  0  0  0  0  0  0  0  0  0  0
  142.7410   73.7380  219.0020 N   0  0  0  0  0  0  0  0  0  0  0  0
  143.8510   72.9160  218.4950 C   0  0  0  0  0  0  0  0  0  0  0  0
  144.4890   72.1830  219.6620 C   0  0  0  0  0  0  0  0  0  0  0  0
  144.6200   73.0700  220.8720 C   0  0  0  0  0  0  0  0  0  0  0  0
  144.4380   74.5380  220.5070 C   0  0  0  0  0  0  0  0  0  0  0  0
  143.0090   74.7090  220.0400 C   0  0  1  0  0  0  0  0  0  0  0  0
  142.7240   76.1050  219.6430 C   0  0  0  0  0  0  0  0  0  0  0  0
  143.2150   76.5410  218.4170 C   0  0  0  0  0  0  0  0  0  0  0  0
  142.9680   77.8310  218.0210 C   0  0  0  0  0  0  0  0  0  0  0  0
  142.2460   78.6720  218.8290 C   0  0  0  0  0  0  0  0  0  0  0  0
  141.9370   80.3340  218.3020 Cl  0  0  0  0  0  0  0  0  0  0  0  0
  141.7500   78.2480  220.0590 C   0  0  0  0  0  0  0  0  0  0  0  0
  141.9890   76.9500  220.4740 C   0  0  0  0  0  0  0  0  0  0  0  0
  140.0830   72.1290  222.7040 C   0  0  0  0  0  0  0  0  0  0  0  0
  139.3230   71.0140  222.5180 C   0  0  0  0  0  0  0  0  0  0  0  0
  139.1340   70.0320  223.4790 C   0  0  0  0  0  0  0  0  0  0  0  0
  139.7710   70.2280  224.6860 C   0  0  0  0  0  0  0  0  0  0  0  0
  139.6270   69.2920  225.6860 C   0  0  0  0  0  0  0  0  0  0  0  0
  140.2450   69.4410  226.9150 C   0  0  0  0  0  0  0  0  0  0  0  0
  140.0970   68.4460  227.9900 C   0  0  0  0  0  0  0  0  0  0  0  0
  139.5540   69.0700  229.0950 F   0  0  0  0  0  0  0  0  0  0  0  0
  141.3550   67.9800  228.3410 F   0  0  0  0  0  0  0  0  0  0  0  0
  139.2740   67.4000  227.6440 F   0  0  0  0  0  0  0  0  0  0  0  0
  141.0230   70.5750  227.1130 C   0  0  0  0  0  0  0  0  0  0  0  0
  141.1710   71.5220  226.1090 C   0  0  0  0  0  0  0  0  0  0  0  0
  140.5510   71.3630  224.8870 C   0  0  0  0  0  0  0  0  0  0  0  0
  140.6960   72.2900  223.9050 N   0  0  0  0  0  0  0  0  0  0  0  0
  139.9050   71.7000  219.9910 H   0  0  0  0  0  0  0  0  0  0  0  0
  139.3715   73.7607  218.6068 H   0  0  0  0  0  0  0  0  0  0  0  0
  140.3481   74.7138  219.7911 H   0  0  0  0  0  0  0  0  0  0  0  0
  143.4683   72.1873  217.7653 H   0  0  0  0  0  0  0  0  0  0  0  0
  144.5972   73.5574  218.0032 H   0  0  0  0  0  0  0  0  0  0  0  0
  143.8651   71.3152  219.9220 H   0  0  0  0  0  0  0  0  0  0  0  0
  145.4976   71.8663  219.3580 H   0  0  0  0  0  0  0  0  0  0  0  0
  143.8535   72.7865  221.6083 H   0  0  0  0  0  0  0  0  0  0  0  0
  145.6293   72.9395  221.2895 H   0  0  0  0  0  0  0  0  0  0  0  0
  144.6253   75.1711  221.3868 H   0  0  0  0  0  0  0  0  0  0  0  0
  145.1448   74.8348  219.7181 H   0  0  0  0  0  0  0  0  0  0  0  0
  142.3146   74.5135  220.8704 H   0  0  0  0  0  0  0  0  0  0  0  0
  143.7932   75.8611  217.7740 H   0  0  0  0  0  0  0  0  0  0  0  0
  143.3494   78.1914  217.0542 H   0  0  0  0  0  0  0  0  0  0  0  0
  141.1744   78.9376  220.6939 H   0  0  0  0  0  0  0  0  0  0  0  0
  141.6065   76.5913  221.4410 H   0  0  0  0  0  0  0  0  0  0  0  0
  138.8280   70.8842  221.5443 H   0  0  0  0  0  0  0  0  0  0  0  0
  138.5105   69.1460  223.2888 H   0  0  0  0  0  0  0  0  0  0  0  0
  139.0049   68.4034  225.5030 H   0  0  0  0  0  0  0  0  0  0  0  0
  141.5285   70.7243  228.0785 H   0  0  0  0  0  0  0  0  0  0  0  0
  141.7916   72.4120  226.2904 H   0  0  0  0  0  0  0  0  0  0  0  0
  1  2  2  0
  2  3  1  0
  3  4  1  0
  4  5  1  0
  5  6  2  0
  5  7  1  0
  7  8  1  0
  8  9  1  0
  9 10  1  0
 10 11  1  0
 11 12  1  0
 12 13  1  0
 13 14  2  0
 14 15  1  0
 15 16  2  0
 16 17  1  0
 16 18  1  0
 18 19  2  0
  2 20  1  0
 20 21  2  0
 21 22  1  0
 22 23  2  0
 23 24  1  0
 24 25  2  0
 25 26  1  0
 26 27  1  0
 26 28  1  0
 26 29  1  0
 25 30  1  0
 30 31  2  0
 31 32  1  0
 32 33  2  0
 12  7  1  0
 19 13  1  0
 33 20  1  0
 32 23  1  0
  3 34  1  0
  4 35  1  0
  4 36  1  0
  8 37  1  0
  8 38  1  0
  9 39  1  0
  9 40  1  0
 10 41  1  0
 10 42  1  0
 11 43  1  0
 11 44  1  0
 12 45  1  1
 14 46  1  0
 15 47  1  0
 18 48  1  0
 19 49  1  0
 21 50  1  0
 22 51  1  0
 24 52  1  0
 30 53  1  0
 31 54  1  0
M  END
>  <smiles>  (79) 
O=C(NCC(=O)N1CCCCC1c1ccc(Cl)cc1)c1ccc2cc(C(F)(F)F)ccc2n1

>  <score_type>  (79) 
oracle

>  <origin>  (79) 
autodockgpu

>  <m_score__min__energy>  (79) 
-8.3300000000000001

>  <m_primary>  (79) 
energy

>  <rmsd>  (79) 
3.4638063881236683

>  <m_score__min__rmsd>  (79) 
3.4638063881236683

>  <meeko>  (79) 
{"free_energy": -7.63, "intermolecular_energy": -9.42, "internal_energy": -1.97, "cluster_size": 3, "cluster_id": 4, "rank_in_cluster": 2}

>  <energy>  (79) 
-7.63

>  <cluster_rmsd>  (79) 
0.23

>  <cluster>  (79) 
4

$$$$

     RDKit          3D

 54 57  0  0  0  0  0  0  0  0999 V2000
  140.2490   75.2230  219.2990 O   0  0  0  0  0  0  0  0  0  0  0  0
  140.7270   74.9200  220.4380 C   0  0  0  0  0  0  0  0  0  0  0  0
  141.7810   75.7070  221.0170 N   0  0  0  0  0  0  0  0  0  0  0  0
  142.2310   76.8370  220.2060 C   0  0  0  0  0  0  0  0  0  0  0  0
  141.2610   77.9580  220.2740 C   0  0  0  0  0  0  0  0  0  0  0  0
  140.4790   78.2430  219.3130 O   0  0  0  0  0  0  0  0  0  0  0  0
  141.1790   78.7530  221.4260 N   0  0  0  0  0  0  0  0  0  0  0  0
  141.5580   80.1700  221.3100 C   0  0  0  0  0  0  0  0  0  0  0  0
  142.6520   80.4670  222.3210 C   0  0  0  0  0  0  0  0  0  0  0  0
  142.3820   79.8020  223.6450 C   0  0  0  0  0  0  0  0  0  0  0  0
  140.9350   79.3340  223.7460 C   0  0  0  0  0  0  0  0  0  0  0  0
  140.7420   78.2490  222.7090 C   0  0  1  0  0  0  0  0  0  0  0  0
  139.3580   77.7290  222.7100 C   0  0  0  0  0  0  0  0  0  0  0  0
  138.3200   78.6550  222.7250 C   0  0  0  0  0  0  0  0  0  0  0  0
  137.0240   78.2040  222.7270 C   0  0  0  0  0  0  0  0  0  0  0  0
  136.7650   76.8570  222.7140 C   0  0  0  0  0  0  0  0  0  0  0  0
  135.0870   76.2920  222.7170 Cl  0  0  0  0  0  0  0  0  0  0  0  0
  137.7950   75.9200  222.7000 C   0  0  0  0  0  0  0  0  0  0  0  0
  139.1080   76.3570  222.6970 C   0  0  0  0  0  0  0  0  0  0  0  0
  140.1990   73.7650  221.1640 C   0  0  0  0  0  0  0  0  0  0  0  0
  139.1750   73.0380  220.6370 C   0  0  0  0  0  0  0  0  0  0  0  0
  138.6110   71.9290  221.2510 C   0  0  0  0  0  0  0  0  0  0  0  0
  139.1450   71.5690  222.4700 C   0  0  0  0  0  0  0  0  0  0  0  0
  138.6340   70.4780  223.1370 C   0  0  0  0  0  0  0  0  0  0  0  0
  139.1340   70.0740  224.3610 C   0  0  0  0  0  0  0  0  0  0  0  0
  138.5940   68.9080  225.0810 C   0  0  0  0  0  0  0  0  0  0  0  0
  138.9370   67.7660  224.3880 F   0  0  0  0  0  0  0  0  0  0  0  0
  137.2100   68.9980  225.0970 F   0  0  0  0  0  0  0  0  0  0  0  0
  139.0850   68.7940  226.3610 F   0  0  0  0  0  0  0  0  0  0  0  0
  140.1800   70.8100  224.9060 C   0  0  0  0  0  0  0  0  0  0  0  0
  140.6980   71.9110  224.2390 C   0  0  0  0  0  0  0  0  0  0  0  0
  140.1920   72.3040  223.0170 C   0  0  0  0  0  0  0  0  0  0  0  0
  140.7010   73.3820  222.3660 N   0  0  0  0  0  0  0  0  0  0  0  0
  142.1960   75.4890  221.9490 H   0  0  0  0  0  0  0  0  0  0  0  0
  143.2066   77.1820  220.5790 H   0  0  0  0  0  0  0  0  0  0  0  0
  142.3140   76.5074  219.1598 H   0  0  0  0  0  0  0  0  0  0  0  0
  141.9284   80.3719  220.2941 H   0  0  0  0  0  0  0  0  0  0  0  0
  140.6839   80.8085  221.5058 H   0  0  0  0  0  0  0  0  0  0  0  0
  143.6111   80.1000  221.9267 H   0  0  0  0  0  0  0  0  0  0  0  0
  142.6830   81.5545  222.4834 H   0  0  0  0  0  0  0  0  0  0  0  0
  143.0478   78.9329  223.7516 H   0  0  0  0  0  0  0  0  0  0  0  0
  142.5662   80.5344  224.4448 H   0  0  0  0  0  0  0  0  0  0  0  0
  140.7377   78.9337  224.7514 H   0  0  0  0  0  0  0  0  0  0  0  0
  140.2413   80.1695  223.5706 H   0  0  0  0  0  0  0  0  0  0  0  0
  141.3623   77.3746  222.9555 H   0  0  0  0  0  0  0  0  0  0  0  0
  138.5351   79.7337  222.7351 H   0  0  0  0  0  0  0  0  0  0  0  0
  136.1919   78.9234  222.7390 H   0  0  0  0  0  0  0  0  0  0  0  0
  137.5673   74.8438  222.6914 H   0  0  0  0  0  0  0  0  0  0  0  0
  139.9387   75.6360  222.6846 H   0  0  0  0  0  0  0  0  0  0  0  0
  138.7695   73.3497  219.6631 H   0  0  0  0  0  0  0  0  0  0  0  0
  137.7840   71.3683  220.7909 H   0  0  0  0  0  0  0  0  0  0  0  0
  137.8061   69.9130  222.6839 H   0  0  0  0  0  0  0  0  0  0  0  0
  140.6023   70.5158  225.8782 H   0  0  0  0  0  0  0  0  0  0  0  0
  141.5244   72.4790  224.6912 H   0  0  0  0  0  0  0  0  0  0  0  0
  1  2  2  0
  2  3  1  0
  3  4  1  0
  4  5  1  0
  5  6  2  0
  5  7  1  0
  7  8  1  0
  8  9  1  0
  9 10  1  0
 10 11  1  0
 11 12  1  0
 12 13  1  0
 13 14  2  0
 14 15  1  0
 15 16  2  0
 16 17  1  0
 16 18  1  0
 18 19  2  0
  2 20  1  0
 20 21  2  0
 21 22  1  0
 22 23  2  0
 23 24  1  0
 24 25  2  0
 25 26  1  0
 26 27  1  0
 26 28  1  0
 26 29  1  0
 25 30  1  0
 30 31  2  0
 31 32  1  0
 32 33  2  0
 12  7  1  0
 19 13  1  0
 33 20  1  0
 32 23  1  0
  3 34  1  0
  4 35  1  0
  4 36  1  0
  8 37  1  0
  8 38  1  0
  9 39  1  0
  9 40  1  0
 10 41  1  0
 10 42  1  0
 11 43  1  0
 11 44  1  0
 12 45  1  1
 14 46  1  0
 15 47  1  0
 18 48  1  0
 19 49  1  0
 21 50  1  0
 22 51  1  0
 24 52  1  0
 30 53  1  0
 31 54  1  0
M  END
>  <smiles>  (80) 
O=C(NCC(=O)N1CCCCC1c1ccc(Cl)cc1)c1ccc2cc(C(F)(F)F)ccc2n1

>  <score_type>  (80) 
oracle

>  <origin>  (80) 
autodockgpu

>  <m_score__min__energy>  (80) 
-8.3300000000000001

>  <m_primary>  (80) 
energy

>  <rmsd>  (80) 
4.9718412880665515

>  <m_score__min__rmsd>  (80) 
4.9718412880665515

>  <meeko>  (80) 
{"free_energy": -7.14, "intermolecular_energy": -8.93, "internal_energy": -2.5, "cluster_size": 15, "cluster_id": 6, "rank_in_cluster": 2}

>  <energy>  (80) 
-7.62

>  <cluster_rmsd>  (80) 
0.47

>  <cluster>  (80) 
4

$$$$

     RDKit          3D

 54 57  0  0  0  0  0  0  0  0999 V2000
  140.2390   75.2660  219.2790 O   0  0  0  0  0  0  0  0  0  0  0  0
  140.7090   74.9610  220.4210 C   0  0  0  0  0  0  0  0  0  0  0  0
  141.7620   75.7440  221.0060 N   0  0  0  0  0  0  0  0  0  0  0  0
  142.2220   76.8720  220.1990 C   0  0  0  0  0  0  0  0  0  0  0  0
  141.2590   77.9990  220.2670 C   0  0  0  0  0  0  0  0  0  0  0  0
  140.4700   78.2820  219.3100 O   0  0  0  0  0  0  0  0  0  0  0  0
  141.1910   78.8030  221.4140 N   0  0  0  0  0  0  0  0  0  0  0  0
  141.6090   80.2080  221.2930 C   0  0  0  0  0  0  0  0  0  0  0  0
  142.7030   80.4800  222.3100 C   0  0  0  0  0  0  0  0  0  0  0  0
  142.4060   79.8310  223.6360 C   0  0  0  0  0  0  0  0  0  0  0  0
  140.9470   79.4020  223.7300 C   0  0  0  0  0  0  0  0  0  0  0  0
  140.7320   78.3180  222.6970 C   0  0  1  0  0  0  0  0  0  0  0  0
  139.3330   77.8350  222.6910 C   0  0  0  0  0  0  0  0  0  0  0  0
  139.1250   76.4600  222.6770 C   0  0  0  0  0  0  0  0  0  0  0  0
  137.8400   75.9810  222.6720 C   0  0  0  0  0  0  0  0  0  0  0  0
  136.7810   76.8530  222.6800 C   0  0  0  0  0  0  0  0  0  0  0  0
  135.1290   76.2160  222.6730 Cl  0  0  0  0  0  0  0  0  0  0  0  0
  136.9760   78.2310  222.6940 C   0  0  0  0  0  0  0  0  0  0  0  0
  138.2660   78.7320  222.7000 C   0  0  0  0  0  0  0  0  0  0  0  0
  140.1720   73.8070  221.1420 C   0  0  0  0  0  0  0  0  0  0  0  0
  139.1190   73.1120  220.6300 C   0  0  0  0  0  0  0  0  0  0  0  0
  138.5450   72.0070  221.2420 C   0  0  0  0  0  0  0  0  0  0  0  0
  139.1000   71.6160  222.4420 C   0  0  0  0  0  0  0  0  0  0  0  0
  138.5800   70.5270  223.1050 C   0  0  0  0  0  0  0  0  0  0  0  0
  139.1010   70.0930  224.3110 C   0  0  0  0  0  0  0  0  0  0  0  0
  138.5510   68.9300  225.0270 C   0  0  0  0  0  0  0  0  0  0  0  0
  138.9690   67.7820  224.3850 F   0  0  0  0  0  0  0  0  0  0  0  0
  137.1680   68.9780  224.9560 F   0  0  0  0  0  0  0  0  0  0  0  0
  138.9660   68.8610  226.3360 F   0  0  0  0  0  0  0  0  0  0  0  0
  140.1760   70.7970  224.8400 C   0  0  0  0  0  0  0  0  0  0  0  0
  140.7040   71.8960  224.1760 C   0  0  0  0  0  0  0  0  0  0  0  0
  140.1770   72.3190  222.9740 C   0  0  0  0  0  0  0  0  0  0  0  0
  140.6950   73.3950  222.3260 N   0  0  0  0  0  0  0  0  0  0  0  0
  142.1710   75.5230  221.9410 H   0  0  0  0  0  0  0  0  0  0  0  0
  143.1988   77.2097  220.5756 H   0  0  0  0  0  0  0  0  0  0  0  0
  142.3063   76.5443  219.1524 H   0  0  0  0  0  0  0  0  0  0  0  0
  141.9919   80.3942  220.2788 H   0  0  0  0  0  0  0  0  0  0  0  0
  140.7514   80.8714  221.4788 H   0  0  0  0  0  0  0  0  0  0  0  0
  143.6542   80.0841  221.9246 H   0  0  0  0  0  0  0  0  0  0  0  0
  142.7625   81.5672  222.4665 H   0  0  0  0  0  0  0  0  0  0  0  0
  143.0478   78.9453  223.7528 H   0  0  0  0  0  0  0  0  0  0  0  0
  142.6036   80.5637  224.4323 H   0  0  0  0  0  0  0  0  0  0  0  0
  140.7330   79.0118  224.7359 H   0  0  0  0  0  0  0  0  0  0  0  0
  140.2767   80.2547  223.5465 H   0  0  0  0  0  0  0  0  0  0  0  0
  141.3273   77.4289  222.9522 H   0  0  0  0  0  0  0  0  0  0  0  0
  139.9789   75.7666  222.6700 H   0  0  0  0  0  0  0  0  0  0  0  0
  137.6582   74.8962  222.6616 H   0  0  0  0  0  0  0  0  0  0  0  0
  136.1141   78.9144  222.7002 H   0  0  0  0  0  0  0  0  0  0  0  0
  138.4459   79.8171  222.7116 H   0  0  0  0  0  0  0  0  0  0  0  0
  138.6970   73.4476  219.6712 H   0  0  0  0  0  0  0  0  0  0  0  0
  137.6941   71.4724  220.7945 H   0  0  0  0  0  0  0  0  0  0  0  0
  137.7283   69.9881  222.6644 H   0  0  0  0  0  0  0  0  0  0  0  0
  140.6144   70.4793  225.7975 H   0  0  0  0  0  0  0  0  0  0  0  0
  141.5551   72.4372  224.6151 H   0  0  0  0  0  0  0  0  0  0  0  0
  1  2  2  0
  2  3  1  0
  3  4  1  0
  4  5  1  0
  5  6  2  0
  5  7  1  0
  7  8  1  0
  8  9  1  0
  9 10  1  0
 10 11  1  0
 11 12  1  0
 12 13  1  0
 13 14  2  0
 14 15  1  0
 15 16  2  0
 16 17  1  0
 16 18  1  0
 18 19  2  0
  2 20  1  0
 20 21  2  0
 21 22  1  0
 22 23  2  0
 23 24  1  0
 24 25  2  0
 25 26  1  0
 26 27  1  0
 26 28  1  0
 26 29  1  0
 25 30  1  0
 30 31  2  0
 31 32  1  0
 32 33  2  0
 12  7  1  0
 19 13  1  0
 33 20  1  0
 32 23  1  0
  3 34  1  0
  4 35  1  0
  4 36  1  0
  8 37  1  0
  8 38  1  0
  9 39  1  0
  9 40  1  0
 10 41  1  0
 10 42  1  0
 11 43  1  0
 11 44  1  0
 12 45  1  1
 14 46  1  0
 15 47  1  0
 18 48  1  0
 19 49  1  0
 21 50  1  0
 22 51  1  0
 24 52  1  0
 30 53  1  0
 31 54  1  0
M  END
>  <smiles>  (81) 
O=C(NCC(=O)N1CCCCC1c1ccc(Cl)cc1)c1ccc2cc(C(F)(F)F)ccc2n1

>  <score_type>  (81) 
oracle

>  <origin>  (81) 
autodockgpu

>  <m_score__min__energy>  (81) 
-8.3300000000000001

>  <m_primary>  (81) 
energy

>  <rmsd>  (81) 
5.006724975275809

>  <m_score__min__rmsd>  (81) 
5.006724975275809

>  <meeko>  (81) 
{"free_energy": -7.13, "intermolecular_energy": -8.92, "internal_energy": -2.51, "cluster_size": 15, "cluster_id": 6, "rank_in_cluster": 4}

>  <energy>  (81) 
-7.32

>  <cluster_rmsd>  (81) 
0.0

>  <cluster>  (81) 
5

$$$$

     RDKit          3D

 54 57  0  0  0  0  0  0  0  0999 V2000
  138.8310   72.9050  220.6040 O   0  0  0  0  0  0  0  0  0  0  0  0
  138.5140   73.7530  221.4970 C   0  0  0  0  0  0  0  0  0  0  0  0
  137.3670   73.5330  222.3340 N   0  0  0  0  0  0  0  0  0  0  0  0
  136.6320   72.2980  222.0710 C   0  0  0  0  0  0  0  0  0  0  0  0
  136.8910   71.2910  223.1300 C   0  0  0  0  0  0  0  0  0  0  0  0
  136.4050   71.3920  224.3010 O   0  0  0  0  0  0  0  0  0  0  0  0
  137.6990   70.1770  222.8640 N   0  0  0  0  0  0  0  0  0  0  0  0
  138.1270   69.9550  221.4740 C   0  0  0  0  0  0  0  0  0  0  0  0
  137.6900   68.5650  221.0450 C   0  0  0  0  0  0  0  0  0  0  0  0
  137.9090   67.5510  222.1350 C   0  0  0  0  0  0  0  0  0  0  0  0
  138.8390   68.0890  223.2160 C   0  0  0  0  0  0  0  0  0  0  0  0
  138.1260   69.2450  223.8840 C   0  0  1  0  0  0  0  0  0  0  0  0
  138.9520   69.8560  224.9490 C   0  0  0  0  0  0  0  0  0  0  0  0
  138.9140   69.2710  226.2100 C   0  0  0  0  0  0  0  0  0  0  0  0
  139.6680   69.8150  227.2190 C   0  0  0  0  0  0  0  0  0  0  0  0
  140.4450   70.9200  226.9780 C   0  0  0  0  0  0  0  0  0  0  0  0
  141.4110   71.6080  228.2920 Cl  0  0  0  0  0  0  0  0  0  0  0  0
  140.4900   71.5150  225.7200 C   0  0  0  0  0  0  0  0  0  0  0  0
  139.7370   70.9790  224.6900 C   0  0  0  0  0  0  0  0  0  0  0  0
  139.3230   74.9590  221.6730 C   0  0  0  0  0  0  0  0  0  0  0  0
  140.6000   74.9980  221.2010 C   0  0  0  0  0  0  0  0  0  0  0  0
  141.4400   76.0950  221.3210 C   0  0  0  0  0  0  0  0  0  0  0  0
  140.9180   77.1970  221.9650 C   0  0  0  0  0  0  0  0  0  0  0  0
  141.6970   78.3220  222.1200 C   0  0  0  0  0  0  0  0  0  0  0  0
  141.2200   79.4540  222.7570 C   0  0  0  0  0  0  0  0  0  0  0  0
  142.0460   80.6610  222.9290 C   0  0  0  0  0  0  0  0  0  0  0  0
  141.9480   81.4260  221.7840 F   0  0  0  0  0  0  0  0  0  0  0  0
  143.3700   80.2780  223.0730 F   0  0  0  0  0  0  0  0  0  0  0  0
  141.6480   81.4360  223.9930 F   0  0  0  0  0  0  0  0  0  0  0  0
  139.9180   79.4220  223.2420 C   0  0  0  0  0  0  0  0  0  0  0  0
  139.1290   78.2900  223.0890 C   0  0  0  0  0  0  0  0  0  0  0  0
  139.6140   77.1670  222.4510 C   0  0  0  0  0  0  0  0  0  0  0  0
  138.8400   76.0610  222.3020 N   0  0  0  0  0  0  0  0  0  0  0  0
  137.0770   74.2070  223.0770 H   0  0  0  0  0  0  0  0  0  0  0  0
  135.5550   72.5196  222.0406 H   0  0  0  0  0  0  0  0  0  0  0  0
  136.9677   71.8881  221.1070 H   0  0  0  0  0  0  0  0  0  0  0  0
  137.6628   70.7073  220.8193 H   0  0  0  0  0  0  0  0  0  0  0  0
  139.2210   70.0428  221.4006 H   0  0  0  0  0  0  0  0  0  0  0  0
  136.6199   68.5902  220.7915 H   0  0  0  0  0  0  0  0  0  0  0  0
  138.2946   68.2690  220.1751 H   0  0  0  0  0  0  0  0  0  0  0  0
  136.9395   67.2992  222.5897 H   0  0  0  0  0  0  0  0  0  0  0  0
  138.3746   66.6593  221.6900 H   0  0  0  0  0  0  0  0  0  0  0  0
  139.0546   67.3020  223.9537 H   0  0  0  0  0  0  0  0  0  0  0  0
  139.7945   68.4178  222.7813 H   0  0  0  0  0  0  0  0  0  0  0  0
  137.2274   68.8855  224.4067 H   0  0  0  0  0  0  0  0  0  0  0  0
  138.2887   68.3853  226.3958 H   0  0  0  0  0  0  0  0  0  0  0  0
  139.6496   69.3647  228.2224 H   0  0  0  0  0  0  0  0  0  0  0  0
  141.1174   72.4017  225.5467 H   0  0  0  0  0  0  0  0  0  0  0  0
  139.7573   71.4299  223.6869 H   0  0  0  0  0  0  0  0  0  0  0  0
  140.9895   74.1035  220.6929 H   0  0  0  0  0  0  0  0  0  0  0  0
  142.4660   76.0865  220.9244 H   0  0  0  0  0  0  0  0  0  0  0  0
  142.7246   78.3207  221.7274 H   0  0  0  0  0  0  0  0  0  0  0  0
  139.5074   80.3049  223.7537 H   0  0  0  0  0  0  0  0  0  0  0  0
  138.1017   78.2884  223.4824 H   0  0  0  0  0  0  0  0  0  0  0  0
  1  2  2  0
  2  3  1  0
  3  4  1  0
  4  5  1  0
  5  6  2  0
  5  7  1  0
  7  8  1  0
  8  9  1  0
  9 10  1  0
 10 11  1  0
 11 12  1  0
 12 13  1  0
 13 14  2  0
 14 15  1  0
 15 16  2  0
 16 17  1  0
 16 18  1  0
 18 19  2  0
  2 20  1  0
 20 21  2  0
 21 22  1  0
 22 23  2  0
 23 24  1  0
 24 25  2  0
 25 26  1  0
 26 27  1  0
 26 28  1  0
 26 29  1  0
 25 30  1  0
 30 31  2  0
 31 32  1  0
 32 33  2  0
 12  7  1  0
 19 13  1  0
 33 20  1  0
 32 23  1  0
  3 34  1  0
  4 35  1  0
  4 36  1  0
  8 37  1  0
  8 38  1  0
  9 39  1  0
  9 40  1  0
 10 41  1  0
 10 42  1  0
 11 43  1  0
 11 44  1  0
 12 45  1  1
 14 46  1  0
 15 47  1  0
 18 48  1  0
 19 49  1  0
 21 50  1  0
 22 51  1  0
 24 52  1  0
 30 53  1  0
 31 54  1  0
M  END
>  <smiles>  (82) 
O=C(NCC(=O)N1CCCCC1c1ccc(Cl)cc1)c1ccc2cc(C(F)(F)F)ccc2n1

>  <score_type>  (82) 
oracle

>  <origin>  (82) 
autodockgpu

>  <m_score__min__energy>  (82) 
-8.3300000000000001

>  <m_primary>  (82) 
energy

>  <rmsd>  (82) 
7.790685407136706

>  <m_score__min__rmsd>  (82) 
7.790685407136706

>  <meeko>  (82) 
{"free_energy": -7.83, "intermolecular_energy": -9.62, "internal_energy": -1.91, "cluster_size": 8, "cluster_id": 3, "rank_in_cluster": 5}

>  <energy>  (82) 
-7.15

>  <cluster_rmsd>  (82) 
0.0

>  <cluster>  (82) 
6

$$$$

     RDKit          3D

 54 57  0  0  0  0  0  0  0  0999 V2000
  140.2200   75.2570  219.2800 O   0  0  0  0  0  0  0  0  0  0  0  0
  140.7080   74.9460  220.4120 C   0  0  0  0  0  0  0  0  0  0  0  0
  141.7680   75.7270  220.9870 N   0  0  0  0  0  0  0  0  0  0  0  0
  142.2130   76.8610  220.1810 C   0  0  0  0  0  0  0  0  0  0  0  0
  141.2430   77.9820  220.2610 C   0  0  0  0  0  0  0  0  0  0  0  0
  140.4570   78.2740  219.3050 O   0  0  0  0  0  0  0  0  0  0  0  0
  141.1650   78.7680  221.4190 N   0  0  0  0  0  0  0  0  0  0  0  0
  141.5710   80.1780  221.3210 C   0  0  0  0  0  0  0  0  0  0  0  0
  142.6600   80.4450  222.3440 C   0  0  0  0  0  0  0  0  0  0  0  0
  142.3660   79.7730  223.6590 C   0  0  0  0  0  0  0  0  0  0  0  0
  140.9100   79.3310  223.7430 C   0  0  0  0  0  0  0  0  0  0  0  0
  140.7070   78.2600  222.6940 C   0  0  1  0  0  0  0  0  0  0  0  0
  139.3130   77.7650  222.6770 C   0  0  0  0  0  0  0  0  0  0  0  0
  139.1170   76.3880  222.7020 C   0  0  0  0  0  0  0  0  0  0  0  0
  137.8360   75.8970  222.6870 C   0  0  0  0  0  0  0  0  0  0  0  0
  136.7700   76.7600  222.6500 C   0  0  0  0  0  0  0  0  0  0  0  0
  135.1240   76.1090  222.6310 Cl  0  0  0  0  0  0  0  0  0  0  0  0
  136.9530   78.1390  222.6250 C   0  0  0  0  0  0  0  0  0  0  0  0
  138.2390   78.6520  222.6400 C   0  0  0  0  0  0  0  0  0  0  0  0
  140.1840   73.7860  221.1350 C   0  0  0  0  0  0  0  0  0  0  0  0
  139.1670   73.0530  220.6020 C   0  0  0  0  0  0  0  0  0  0  0  0
  138.6090   71.9400  221.2120 C   0  0  0  0  0  0  0  0  0  0  0  0
  139.1390   71.5820  222.4340 C   0  0  0  0  0  0  0  0  0  0  0  0
  138.6330   70.4860  223.0970 C   0  0  0  0  0  0  0  0  0  0  0  0
  139.1300   70.0850  224.3230 C   0  0  0  0  0  0  0  0  0  0  0  0
  138.5940   68.9150  225.0400 C   0  0  0  0  0  0  0  0  0  0  0  0
  138.9120   67.7780  224.3240 F   0  0  0  0  0  0  0  0  0  0  0  0
  137.2130   69.0170  225.0860 F   0  0  0  0  0  0  0  0  0  0  0  0
  139.1110   68.7790  226.3070 F   0  0  0  0  0  0  0  0  0  0  0  0
  140.1680   70.8270  224.8730 C   0  0  0  0  0  0  0  0  0  0  0  0
  140.6820   71.9330  224.2100 C   0  0  0  0  0  0  0  0  0  0  0  0
  140.1790   72.3240  222.9860 C   0  0  0  0  0  0  0  0  0  0  0  0
  140.6840   73.4050  222.3380 N   0  0  0  0  0  0  0  0  0  0  0  0
  142.1920   75.5010  221.9140 H   0  0  0  0  0  0  0  0  0  0  0  0
  143.1906   77.2038  220.5507 H   0  0  0  0  0  0  0  0  0  0  0  0
  142.2901   76.5377  219.1324 H   0  0  0  0  0  0  0  0  0  0  0  0
  141.9545   80.3831  220.3106 H   0  0  0  0  0  0  0  0  0  0  0  0
  140.7070   80.8304  221.5156 H   0  0  0  0  0  0  0  0  0  0  0  0
  143.6157   80.0640  221.9549 H   0  0  0  0  0  0  0  0  0  0  0  0
  142.7092   81.5302  222.5170 H   0  0  0  0  0  0  0  0  0  0  0  0
  143.0146   78.8907  223.7632 H   0  0  0  0  0  0  0  0  0  0  0  0
  142.5565   80.4945  224.4672 H   0  0  0  0  0  0  0  0  0  0  0  0
  140.6964   78.9248  224.7427 H   0  0  0  0  0  0  0  0  0  0  0  0
  140.2331   80.1807  223.5700 H   0  0  0  0  0  0  0  0  0  0  0  0
  141.3092   77.3725  222.9382 H   0  0  0  0  0  0  0  0  0  0  0  0
  139.9768   75.7026  222.7333 H   0  0  0  0  0  0  0  0  0  0  0  0
  137.6635   74.8108  222.7046 H   0  0  0  0  0  0  0  0  0  0  0  0
  136.0854   78.8145  222.5937 H   0  0  0  0  0  0  0  0  0  0  0  0
  138.4095   79.7386  222.6230 H   0  0  0  0  0  0  0  0  0  0  0  0
  138.7634   73.3635  219.6270 H   0  0  0  0  0  0  0  0  0  0  0  0
  137.7887   71.3736  220.7470 H   0  0  0  0  0  0  0  0  0  0  0  0
  137.8120   69.9149  222.6390 H   0  0  0  0  0  0  0  0  0  0  0  0
  140.5880   70.5342  225.8466 H   0  0  0  0  0  0  0  0  0  0  0  0
  141.5022   72.5060  224.6670 H   0  0  0  0  0  0  0  0  0  0  0  0
  1  2  2  0
  2  3  1  0
  3  4  1  0
  4  5  1  0
  5  6  2  0
  5  7  1  0
  7  8  1  0
  8  9  1  0
  9 10  1  0
 10 11  1  0
 11 12  1  0
 12 13  1  0
 13 14  2  0
 14 15  1  0
 15 16  2  0
 16 17  1  0
 16 18  1  0
 18 19  2  0
  2 20  1  0
 20 21  2  0
 21 22  1  0
 22 23  2  0
 23 24  1  0
 24 25  2  0
 25 26  1  0
 26 27  1  0
 26 28  1  0
 26 29  1  0
 25 30  1  0
 30 31  2  0
 31 32  1  0
 32 33  2  0
 12  7  1  0
 19 13  1  0
 33 20  1  0
 32 23  1  0
  3 34  1  0
  4 35  1  0
  4 36  1  0
  8 37  1  0
  8 38  1  0
  9 39  1  0
  9 40  1  0
 10 41  1  0
 10 42  1  0
 11 43  1  0
 11 44  1  0
 12 45  1  1
 14 46  1  0
 15 47  1  0
 18 48  1  0
 19 49  1  0
 21 50  1  0
 22 51  1  0
 24 52  1  0
 30 53  1  0
 31 54  1  0
M  END
>  <smiles>  (83) 
O=C(NCC(=O)N1CCCCC1c1ccc(Cl)cc1)c1ccc2cc(C(F)(F)F)ccc2n1

>  <score_type>  (83) 
oracle

>  <origin>  (83) 
autodockgpu

>  <m_score__min__energy>  (83) 
-8.3300000000000001

>  <m_primary>  (83) 
energy

>  <rmsd>  (83) 
4.987092240625059

>  <m_score__min__rmsd>  (83) 
4.987092240625059

>  <meeko>  (83) 
{"free_energy": -7.08, "intermolecular_energy": -8.87, "internal_energy": -2.53, "cluster_size": 15, "cluster_id": 6, "rank_in_cluster": 8}

>  <energy>  (83) 
-7.14

>  <cluster_rmsd>  (83) 
0.13

>  <cluster>  (83) 
6

$$$$

     RDKit          3D

 54 57  0  0  0  0  0  0  0  0999 V2000
  140.1900   75.5520  219.1720 O   0  0  0  0  0  0  0  0  0  0  0  0
  140.6740   75.1880  220.2910 C   0  0  0  0  0  0  0  0  0  0  0  0
  141.7730   75.9040  220.8760 N   0  0  0  0  0  0  0  0  0  0  0  0
  142.2610   77.0400  220.0970 C   0  0  0  0  0  0  0  0  0  0  0  0
  141.3380   78.1960  220.2110 C   0  0  0  0  0  0  0  0  0  0  0  0
  140.6240   78.5980  219.2380 O   0  0  0  0  0  0  0  0  0  0  0  0
  141.2260   78.8950  221.4210 N   0  0  0  0  0  0  0  0  0  0  0  0
  141.6250   80.3110  221.4360 C   0  0  0  0  0  0  0  0  0  0  0  0
  142.6860   80.5070  222.5040 C   0  0  0  0  0  0  0  0  0  0  0  0
  142.3630   79.7400  223.7580 C   0  0  0  0  0  0  0  0  0  0  0  0
  140.9080   79.2860  223.7720 C   0  0  0  0  0  0  0  0  0  0  0  0
  140.7390   78.2940  222.6420 C   0  0  1  0  0  0  0  0  0  0  0  0
  139.3490   77.7960  222.5540 C   0  0  0  0  0  0  0  0  0  0  0  0
  138.3440   78.7260  222.3080 C   0  0  0  0  0  0  0  0  0  0  0  0
  137.0440   78.2950  222.2200 C   0  0  0  0  0  0  0  0  0  0  0  0
  136.7490   76.9640  222.3750 C   0  0  0  0  0  0  0  0  0  0  0  0
  135.0670   76.4260  222.2590 Cl  0  0  0  0  0  0  0  0  0  0  0  0
  137.7460   76.0240  222.6230 C   0  0  0  0  0  0  0  0  0  0  0  0
  139.0620   76.4410  222.7130 C   0  0  0  0  0  0  0  0  0  0  0  0
  140.1060   74.0320  220.9850 C   0  0  0  0  0  0  0  0  0  0  0  0
  138.9810   73.4330  220.5050 C   0  0  0  0  0  0  0  0  0  0  0  0
  138.3720   72.3350  221.0950 C   0  0  0  0  0  0  0  0  0  0  0  0
  138.9700   71.8460  222.2380 C   0  0  0  0  0  0  0  0  0  0  0  0
  138.4190   70.7570  222.8760 C   0  0  0  0  0  0  0  0  0  0  0  0
  138.9800   70.2270  224.0240 C   0  0  0  0  0  0  0  0  0  0  0  0
  138.3980   69.0640  224.7140 C   0  0  0  0  0  0  0  0  0  0  0  0
  138.5290   67.9580  223.8980 F   0  0  0  0  0  0  0  0  0  0  0  0
  137.0440   69.2920  224.9050 F   0  0  0  0  0  0  0  0  0  0  0  0
  139.0150   68.7860  225.9110 F   0  0  0  0  0  0  0  0  0  0  0  0
  140.1280   70.8330  224.5200 C   0  0  0  0  0  0  0  0  0  0  0  0
  140.6870   71.9310  223.8810 C   0  0  0  0  0  0  0  0  0  0  0  0
  140.1200   72.4500  222.7360 C   0  0  0  0  0  0  0  0  0  0  0  0
  140.6680   73.5250  222.1120 N   0  0  0  0  0  0  0  0  0  0  0  0
  142.1950   75.6330  221.7920 H   0  0  0  0  0  0  0  0  0  0  0  0
  143.2532   77.3332  220.4706 H   0  0  0  0  0  0  0  0  0  0  0  0
  142.3212   76.7413  219.0400 H   0  0  0  0  0  0  0  0  0  0  0  0
  142.0328   80.5910  220.4535 H   0  0  0  0  0  0  0  0  0  0  0  0
  140.7522   80.9438  221.6545 H   0  0  0  0  0  0  0  0  0  0  0  0
  143.6537   80.1595  222.1130 H   0  0  0  0  0  0  0  0  0  0  0  0
  142.7239   81.5768  222.7570 H   0  0  0  0  0  0  0  0  0  0  0  0
  143.0146   78.8556  223.8146 H   0  0  0  0  0  0  0  0  0  0  0  0
  142.5279   80.4017  224.6211 H   0  0  0  0  0  0  0  0  0  0  0  0
  140.6719   78.8063  224.7333 H   0  0  0  0  0  0  0  0  0  0  0  0
  140.2299   80.1428  223.6447 H   0  0  0  0  0  0  0  0  0  0  0  0
  141.3408   77.3937  222.8349 H   0  0  0  0  0  0  0  0  0  0  0  0
  138.5879   79.7916  222.1858 H   0  0  0  0  0  0  0  0  0  0  0  0
  136.2377   79.0174  222.0250 H   0  0  0  0  0  0  0  0  0  0  0  0
  137.4899   74.9613  222.7460 H   0  0  0  0  0  0  0  0  0  0  0  0
  139.8671   75.7168  222.9064 H   0  0  0  0  0  0  0  0  0  0  0  0
  138.5267   73.8457  219.5922 H   0  0  0  0  0  0  0  0  0  0  0  0
  137.4630   71.8797  220.6749 H   0  0  0  0  0  0  0  0  0  0  0  0
  137.5096   70.2969  222.4622 H   0  0  0  0  0  0  0  0  0  0  0  0
  140.6000   70.4372  225.4313 H   0  0  0  0  0  0  0  0  0  0  0  0
  141.5954   72.3939  224.2938 H   0  0  0  0  0  0  0  0  0  0  0  0
  1  2  2  0
  2  3  1  0
  3  4  1  0
  4  5  1  0
  5  6  2  0
  5  7  1  0
  7  8  1  0
  8  9  1  0
  9 10  1  0
 10 11  1  0
 11 12  1  0
 12 13  1  0
 13 14  2  0
 14 15  1  0
 15 16  2  0
 16 17  1  0
 16 18  1  0
 18 19  2  0
  2 20  1  0
 20 21  2  0
 21 22  1  0
 22 23  2  0
 23 24  1  0
 24 25  2  0
 25 26  1  0
 26 27  1  0
 26 28  1  0
 26 29  1  0
 25 30  1  0
 30 31  2  0
 31 32  1  0
 32 33  2  0
 12  7  1  0
 19 13  1  0
 33 20  1  0
 32 23  1  0
  3 34  1  0
  4 35  1  0
  4 36  1  0
  8 37  1  0
  8 38  1  0
  9 39  1  0
  9 40  1  0
 10 41  1  0
 10 42  1  0
 11 43  1  0
 11 44  1  0
 12 45  1  1
 14 46  1  0
 15 47  1  0
 18 48  1  0
 19 49  1  0
 21 50  1  0
 22 51  1  0
 24 52  1  0
 30 53  1  0
 31 54  1  0
M  END
>  <smiles>  (84) 
O=C(NCC(=O)N1CCCCC1c1ccc(Cl)cc1)c1ccc2cc(C(F)(F)F)ccc2n1

>  <score_type>  (84) 
oracle

>  <origin>  (84) 
autodockgpu

>  <m_score__min__energy>  (84) 
-8.3300000000000001

>  <m_primary>  (84) 
energy

>  <rmsd>  (84) 
5.189589063396581

>  <m_score__min__rmsd>  (84) 
5.189589063396581

>  <meeko>  (84) 
{"free_energy": -6.88, "intermolecular_energy": -8.67, "internal_energy": -2.62, "cluster_size": 15, "cluster_id": 6, "rank_in_cluster": 13}

>  <energy>  (84) 
-7.14

>  <cluster_rmsd>  (84) 
0.15

>  <cluster>  (84) 
6

$$$$

     RDKit          3D

 54 57  0  0  0  0  0  0  0  0999 V2000
  140.3600   73.0680  222.3400 O   0  0  0  0  0  0  0  0  0  0  0  0
  139.4890   73.8260  221.8080 C   0  0  0  0  0  0  0  0  0  0  0  0
  138.4310   73.2690  221.0100 N   0  0  0  0  0  0  0  0  0  0  0  0
  138.4520   71.8140  220.8750 C   0  0  0  0  0  0  0  0  0  0  0  0
  138.1510   71.1570  222.1710 C   0  0  0  0  0  0  0  0  0  0  0  0
  137.5080   71.7410  223.1000 O   0  0  0  0  0  0  0  0  0  0  0  0
  138.5770   69.8440  222.4140 N   0  0  0  0  0  0  0  0  0  0  0  0
  139.2010   69.1080  221.3030 C   0  0  0  0  0  0  0  0  0  0  0  0
  138.4310   67.8180  221.0790 C   0  0  0  0  0  0  0  0  0  0  0  0
  138.0540   67.1610  222.3800 C   0  0  0  0  0  0  0  0  0  0  0  0
  138.8480   67.7390  223.5450 C   0  0  0  0  0  0  0  0  0  0  0  0
  138.4340   69.1870  223.6940 C   0  0  1  0  0  0  0  0  0  0  0  0
  139.1610   69.8540  224.7960 C   0  0  0  0  0  0  0  0  0  0  0  0
  138.9310   69.3970  226.0900 C   0  0  0  0  0  0  0  0  0  0  0  0
  139.5900   69.9960  227.1350 C   0  0  0  0  0  0  0  0  0  0  0  0
  140.4600   71.0290  226.8970 C   0  0  0  0  0  0  0  0  0  0  0  0
  141.3010   71.7900  228.2560 Cl  0  0  0  0  0  0  0  0  0  0  0  0
  140.6980   71.4960  225.6060 C   0  0  0  0  0  0  0  0  0  0  0  0
  140.0430   70.9030  224.5410 C   0  0  0  0  0  0  0  0  0  0  0  0
  139.5630   75.2730  222.0100 C   0  0  0  0  0  0  0  0  0  0  0  0
  138.5090   75.9400  222.5560 C   0  0  0  0  0  0  0  0  0  0  0  0
  138.4890   77.3080  222.7860 C   0  0  0  0  0  0  0  0  0  0  0  0
  139.6240   78.0040  222.4250 C   0  0  0  0  0  0  0  0  0  0  0  0
  139.6730   79.3660  222.6250 C   0  0  0  0  0  0  0  0  0  0  0  0
  140.7870   80.1110  222.2820 C   0  0  0  0  0  0  0  0  0  0  0  0
  140.8490   81.5670  222.4910 C   0  0  0  0  0  0  0  0  0  0  0  0
  141.6030   81.8170  223.6190 F   0  0  0  0  0  0  0  0  0  0  0  0
  139.5660   82.0380  222.7230 F   0  0  0  0  0  0  0  0  0  0  0  0
  141.4260   82.2360  221.4360 F   0  0  0  0  0  0  0  0  0  0  0  0
  141.8670   79.4370  221.7240 C   0  0  0  0  0  0  0  0  0  0  0  0
  141.8220   78.0650  221.5200 C   0  0  0  0  0  0  0  0  0  0  0  0
  140.7070   77.3320  221.8670 C   0  0  0  0  0  0  0  0  0  0  0  0
  140.6640   75.9890  221.6670 N   0  0  0  0  0  0  0  0  0  0  0  0
  137.6980   73.8610  220.5590 H   0  0  0  0  0  0  0  0  0  0  0  0
  137.6982   71.5103  220.1337 H   0  0  0  0  0  0  0  0  0  0  0  0
  139.4567   71.5059  220.5501 H   0  0  0  0  0  0  0  0  0  0  0  0
  139.1703   69.7206  220.3899 H   0  0  0  0  0  0  0  0  0  0  0  0
  140.2494   68.8808  221.5464 H   0  0  0  0  0  0  0  0  0  0  0  0
  137.5141   68.0436  220.5148 H   0  0  0  0  0  0  0  0  0  0  0  0
  139.0776   67.1255  220.5201 H   0  0  0  0  0  0  0  0  0  0  0  0
  136.9813   67.3205  222.5639 H   0  0  0  0  0  0  0  0  0  0  0  0
  138.2816   66.0875  222.3046 H   0  0  0  0  0  0  0  0  0  0  0  0
  138.6206   67.1851  224.4678 H   0  0  0  0  0  0  0  0  0  0  0  0
  139.9291   67.6592  223.3585 H   0  0  0  0  0  0  0  0  0  0  0  0
  137.3755   69.2500  223.9865 H   0  0  0  0  0  0  0  0  0  0  0  0
  138.2315   68.5680  226.2730 H   0  0  0  0  0  0  0  0  0  0  0  0
  139.4199   69.6470  228.1642 H   0  0  0  0  0  0  0  0  0  0  0  0
  141.3986   72.3267  225.4353 H   0  0  0  0  0  0  0  0  0  0  0  0
  140.2151   71.2528  223.5124 H   0  0  0  0  0  0  0  0  0  0  0  0
  137.6175   75.3577  222.8320 H   0  0  0  0  0  0  0  0  0  0  0  0
  137.6171   77.8095  223.2312 H   0  0  0  0  0  0  0  0  0  0  0  0
  138.8042   79.8742  223.0688 H   0  0  0  0  0  0  0  0  0  0  0  0
  142.7693   79.9985  221.4403 H   0  0  0  0  0  0  0  0  0  0  0  0
  142.6889   77.5547  221.0748 H   0  0  0  0  0  0  0  0  0  0  0  0
  1  2  2  0
  2  3  1  0
  3  4  1  0
  4  5  1  0
  5  6  2  0
  5  7  1  0
  7  8  1  0
  8  9  1  0
  9 10  1  0
 10 11  1  0
 11 12  1  0
 12 13  1  0
 13 14  2  0
 14 15  1  0
 15 16  2  0
 16 17  1  0
 16 18  1  0
 18 19  2  0
  2 20  1  0
 20 21  2  0
 21 22  1  0
 22 23  2  0
 23 24  1  0
 24 25  2  0
 25 26  1  0
 26 27  1  0
 26 28  1  0
 26 29  1  0
 25 30  1  0
 30 31  2  0
 31 32  1  0
 32 33  2  0
 12  7  1  0
 19 13  1  0
 33 20  1  0
 32 23  1  0
  3 34  1  0
  4 35  1  0
  4 36  1  0
  8 37  1  0
  8 38  1  0
  9 39  1  0
  9 40  1  0
 10 41  1  0
 10 42  1  0
 11 43  1  0
 11 44  1  0
 12 45  1  1
 14 46  1  0
 15 47  1  0
 18 48  1  0
 19 49  1  0
 21 50  1  0
 22 51  1  0
 24 52  1  0
 30 53  1  0
 31 54  1  0
M  END
>  <smiles>  (85) 
O=C(NCC(=O)N1CCCCC1c1ccc(Cl)cc1)c1ccc2cc(C(F)(F)F)ccc2n1

>  <score_type>  (85) 
oracle

>  <origin>  (85) 
autodockgpu

>  <m_score__min__energy>  (85) 
-8.3300000000000001

>  <m_primary>  (85) 
energy

>  <rmsd>  (85) 
8.131066980648026

>  <m_score__min__rmsd>  (85) 
8.131066980648026

>  <meeko>  (85) 
{"free_energy": -7.6, "intermolecular_energy": -9.39, "internal_energy": -1.62, "cluster_size": 8, "cluster_id": 3, "rank_in_cluster": 7}

>  <energy>  (85) 
-7.13

>  <cluster_rmsd>  (85) 
0.11

>  <cluster>  (85) 
6

$$$$

     RDKit          3D

 54 57  0  0  0  0  0  0  0  0999 V2000
  133.6750   70.4930  226.1620 O   0  0  0  0  0  0  0  0  0  0  0  0
  134.0660   71.6520  225.8150 C   0  0  0  0  0  0  0  0  0  0  0  0
  135.1080   71.8060  224.8380 N   0  0  0  0  0  0  0  0  0  0  0  0
  135.6530   70.5580  224.3070 C   0  0  0  0  0  0  0  0  0  0  0  0
  136.8280   70.8200  223.4390 C   0  0  0  0  0  0  0  0  0  0  0  0
  137.0510   71.9580  222.9170 O   0  0  0  0  0  0  0  0  0  0  0  0
  137.7460   69.7970  223.1640 N   0  0  0  0  0  0  0  0  0  0  0  0
  138.1690   69.6120  221.7670 C   0  0  0  0  0  0  0  0  0  0  0  0
  137.8770   68.1800  221.3540 C   0  0  0  0  0  0  0  0  0  0  0  0
  138.2240   67.2030  222.4460 C   0  0  0  0  0  0  0  0  0  0  0  0
  139.1100   67.8460  223.5050 C   0  0  0  0  0  0  0  0  0  0  0  0
  138.2900   68.9240  224.1800 C   0  0  1  0  0  0  0  0  0  0  0  0
  139.0640   69.6290  225.2250 C   0  0  0  0  0  0  0  0  0  0  0  0
  139.6630   70.8370  224.8810 C   0  0  0  0  0  0  0  0  0  0  0  0
  140.3880   71.5150  225.8280 C   0  0  0  0  0  0  0  0  0  0  0  0
  140.5150   71.0010  227.0940 C   0  0  0  0  0  0  0  0  0  0  0  0
  141.4540   71.8900  228.3040 Cl  0  0  0  0  0  0  0  0  0  0  0  0
  139.9210   69.7940  227.4510 C   0  0  0  0  0  0  0  0  0  0  0  0
  139.1850   69.0970  226.5080 C   0  0  0  0  0  0  0  0  0  0  0  0
  133.4490   72.8360  226.4130 C   0  0  0  0  0  0  0  0  0  0  0  0
  132.3380   72.7070  227.1910 C   0  0  0  0  0  0  0  0  0  0  0  0
  131.6860   73.7690  227.7990 C   0  0  0  0  0  0  0  0  0  0  0  0
  132.2230   75.0210  227.5800 C   0  0  0  0  0  0  0  0  0  0  0  0
  131.6270   76.1220  228.1530 C   0  0  0  0  0  0  0  0  0  0  0  0
  132.1260   77.3980  227.9670 C   0  0  0  0  0  0  0  0  0  0  0  0
  131.4950   78.5820  228.5750 C   0  0  0  0  0  0  0  0  0  0  0  0
  132.4690   79.3160  229.2200 F   0  0  0  0  0  0  0  0  0  0  0  0
  130.5810   78.1580  229.5270 F   0  0  0  0  0  0  0  0  0  0  0  0
  130.8870   79.3990  227.6510 F   0  0  0  0  0  0  0  0  0  0  0  0
  133.2590   77.5390  227.1750 C   0  0  0  0  0  0  0  0  0  0  0  0
  133.8640   76.4320  226.5940 C   0  0  0  0  0  0  0  0  0  0  0  0
  133.3580   75.1640  226.7880 C   0  0  0  0  0  0  0  0  0  0  0  0
  133.9510   74.0820  226.2190 N   0  0  0  0  0  0  0  0  0  0  0  0
  135.4540   72.7420  224.5290 H   0  0  0  0  0  0  0  0  0  0  0  0
  135.9602   69.9141  225.1443 H   0  0  0  0  0  0  0  0  0  0  0  0
  134.8759   70.0626  223.7064 H   0  0  0  0  0  0  0  0  0  0  0  0
  137.6138   70.3048  221.1176 H   0  0  0  0  0  0  0  0  0  0  0  0
  139.2456   69.8169  221.6717 H   0  0  0  0  0  0  0  0  0  0  0  0
  136.8060   68.0878  221.1204 H   0  0  0  0  0  0  0  0  0  0  0  0
  138.4943   67.9444  220.4746 H   0  0  0  0  0  0  0  0  0  0  0  0
  137.2958   66.8521  222.9207 H   0  0  0  0  0  0  0  0  0  0  0  0
  138.7743   66.3629  221.9973 H   0  0  0  0  0  0  0  0  0  0  0  0
  139.4226   67.0926  224.2430 H   0  0  0  0  0  0  0  0  0  0  0  0
  140.0162   68.2721  223.0498 H   0  0  0  0  0  0  0  0  0  0  0  0
  137.4458   68.4729  224.7221 H   0  0  0  0  0  0  0  0  0  0  0  0
  139.5567   71.2426  223.8640 H   0  0  0  0  0  0  0  0  0  0  0  0
  140.8678   72.4712  225.5723 H   0  0  0  0  0  0  0  0  0  0  0  0
  140.0350   69.3983  228.4710 H   0  0  0  0  0  0  0  0  0  0  0  0
  138.7048   68.1416  226.7661 H   0  0  0  0  0  0  0  0  0  0  0  0
  131.9326   71.6964  227.3466 H   0  0  0  0  0  0  0  0  0  0  0  0
  130.7908   73.6216  228.4211 H   0  0  0  0  0  0  0  0  0  0  0  0
  130.7305   75.9828  228.7750 H   0  0  0  0  0  0  0  0  0  0  0  0
  133.6822   78.5402  227.0060 H   0  0  0  0  0  0  0  0  0  0  0  0
  134.7596   76.5687  225.9702 H   0  0  0  0  0  0  0  0  0  0  0  0
  1  2  2  0
  2  3  1  0
  3  4  1  0
  4  5  1  0
  5  6  2  0
  5  7  1  0
  7  8  1  0
  8  9  1  0
  9 10  1  0
 10 11  1  0
 11 12  1  0
 12 13  1  0
 13 14  2  0
 14 15  1  0
 15 16  2  0
 16 17  1  0
 16 18  1  0
 18 19  2  0
  2 20  1  0
 20 21  2  0
 21 22  1  0
 22 23  2  0
 23 24  1  0
 24 25  2  0
 25 26  1  0
 26 27  1  0
 26 28  1  0
 26 29  1  0
 25 30  1  0
 30 31  2  0
 31 32  1  0
 32 33  2  0
 12  7  1  0
 19 13  1  0
 33 20  1  0
 32 23  1  0
  3 34  1  0
  4 35  1  0
  4 36  1  0
  8 37  1  0
  8 38  1  0
  9 39  1  0
  9 40  1  0
 10 41  1  0
 10 42  1  0
 11 43  1  0
 11 44  1  0
 12 45  1  1
 14 46  1  0
 15 47  1  0
 18 48  1  0
 19 49  1  0
 21 50  1  0
 22 51  1  0
 24 52  1  0
 30 53  1  0
 31 54  1  0
M  END
>  <smiles>  (86) 
O=C(NCC(=O)N1CCCCC1c1ccc(Cl)cc1)c1ccc2cc(C(F)(F)F)ccc2n1

>  <score_type>  (86) 
oracle

>  <origin>  (86) 
autodockgpu

>  <m_score__min__energy>  (86) 
-8.3300000000000001

>  <m_primary>  (86) 
energy

>  <rmsd>  (86) 
8.609293097516396

>  <m_score__min__rmsd>  (86) 
8.609293097516396

>  <meeko>  (86) 
{"free_energy": -7.84, "intermolecular_energy": -9.63, "internal_energy": -1.98, "cluster_size": 6, "cluster_id": 1, "rank_in_cluster": 6}

>  <energy>  (86) 
-7.13

>  <cluster_rmsd>  (86) 
0.11

>  <cluster>  (86) 
6

$$$$

     RDKit          3D

 54 57  0  0  0  0  0  0  0  0999 V2000
  133.5750   69.6340  226.4660 O   0  0  0  0  0  0  0  0  0  0  0  0
  134.0740   70.7560  226.1370 C   0  0  0  0  0  0  0  0  0  0  0  0
  135.2740   70.8160  225.3500 N   0  0  0  0  0  0  0  0  0  0  0  0
  135.8420   69.5210  224.9800 C   0  0  0  0  0  0  0  0  0  0  0  0
  136.4880   69.5870  223.6460 C   0  0  0  0  0  0  0  0  0  0  0  0
  136.2040   68.7750  222.7090 O   0  0  0  0  0  0  0  0  0  0  0  0
  137.4520   70.5680  223.3740 N   0  0  0  0  0  0  0  0  0  0  0  0
  136.9800   71.9250  223.0570 C   0  0  0  0  0  0  0  0  0  0  0  0
  137.5440   72.3330  221.7070 C   0  0  0  0  0  0  0  0  0  0  0  0
  138.9820   71.9150  221.5540 C   0  0  0  0  0  0  0  0  0  0  0  0
  139.5980   71.5420  222.8960 C   0  0  0  0  0  0  0  0  0  0  0  0
  138.8750   70.3100  223.3930 C   0  0  1  0  0  0  0  0  0  0  0  0
  139.3870   69.8650  224.7080 C   0  0  0  0  0  0  0  0  0  0  0  0
  139.2710   68.5150  225.0230 C   0  0  0  0  0  0  0  0  0  0  0  0
  139.7370   68.0710  226.2350 C   0  0  0  0  0  0  0  0  0  0  0  0
  140.3070   68.9540  227.1170 C   0  0  0  0  0  0  0  0  0  0  0  0
  140.9030   68.3640  228.6760 Cl  0  0  0  0  0  0  0  0  0  0  0  0
  140.4280   70.3070  226.8130 C   0  0  0  0  0  0  0  0  0  0  0  0
  139.9650   70.7720  225.5950 C   0  0  0  0  0  0  0  0  0  0  0  0
  133.4200   71.9940  226.5630 C   0  0  0  0  0  0  0  0  0  0  0  0
  132.2140   71.9470  227.1950 C   0  0  0  0  0  0  0  0  0  0  0  0
  131.5220   73.0650  227.6330 C   0  0  0  0  0  0  0  0  0  0  0  0
  132.1200   74.2850  227.3990 C   0  0  0  0  0  0  0  0  0  0  0  0
  131.4880   75.4380  227.8080 C   0  0  0  0  0  0  0  0  0  0  0  0
  132.0450   76.6860  227.5990 C   0  0  0  0  0  0  0  0  0  0  0  0
  131.3770   77.9250  228.0320 C   0  0  0  0  0  0  0  0  0  0  0  0
  132.2960   78.7090  228.6990 F   0  0  0  0  0  0  0  0  0  0  0  0
  130.3690   77.5960  228.9260 F   0  0  0  0  0  0  0  0  0  0  0  0
  130.8720   78.6570  226.9830 F   0  0  0  0  0  0  0  0  0  0  0  0
  133.2760   76.7440  226.9550 C   0  0  0  0  0  0  0  0  0  0  0  0
  133.9170   75.5850  226.5400 C   0  0  0  0  0  0  0  0  0  0  0  0
  133.3520   74.3450  226.7550 C   0  0  0  0  0  0  0  0  0  0  0  0
  133.9810   73.2120  226.3490 N   0  0  0  0  0  0  0  0  0  0  0  0
  135.7110   71.7200  225.0610 H   0  0  0  0  0  0  0  0  0  0  0  0
  136.5926   69.2298  225.7295 H   0  0  0  0  0  0  0  0  0  0  0  0
  135.0301   68.7799  224.9406 H   0  0  0  0  0  0  0  0  0  0  0  0
  135.8808   71.9349  223.0174 H   0  0  0  0  0  0  0  0  0  0  0  0
  137.3157   72.6295  223.8322 H   0  0  0  0  0  0  0  0  0  0  0  0
  136.9484   71.8577  220.9137 H   0  0  0  0  0  0  0  0  0  0  0  0
  137.4963   73.4295  221.6331 H   0  0  0  0  0  0  0  0  0  0  0  0
  139.0323   71.0449  220.8829 H   0  0  0  0  0  0  0  0  0  0  0  0
  139.5464   72.7623  221.1375 H   0  0  0  0  0  0  0  0  0  0  0  0
  140.6694   71.3258  222.7718 H   0  0  0  0  0  0  0  0  0  0  0  0
  139.4992   72.3691  223.6144 H   0  0  0  0  0  0  0  0  0  0  0  0
  139.0711   69.4607  222.7219 H   0  0  0  0  0  0  0  0  0  0  0  0
  138.8123   67.8134  224.3107 H   0  0  0  0  0  0  0  0  0  0  0  0
  139.6535   67.0066  226.4995 H   0  0  0  0  0  0  0  0  0  0  0  0
  140.8871   70.9995  227.5339 H   0  0  0  0  0  0  0  0  0  0  0  0
  140.0513   71.8365  225.3316 H   0  0  0  0  0  0  0  0  0  0  0  0
  131.7611   70.9597  227.3685 H   0  0  0  0  0  0  0  0  0  0  0  0
  130.5490   72.9835  228.1396 H   0  0  0  0  0  0  0  0  0  0  0  0
  130.5143   75.3642  228.3144 H   0  0  0  0  0  0  0  0  0  0  0  0
  133.7478   77.7207  226.7721 H   0  0  0  0  0  0  0  0  0  0  0  0
  134.8901   75.6563  226.0320 H   0  0  0  0  0  0  0  0  0  0  0  0
  1  2  2  0
  2  3  1  0
  3  4  1  0
  4  5  1  0
  5  6  2  0
  5  7  1  0
  7  8  1  0
  8  9  1  0
  9 10  1  0
 10 11  1  0
 11 12  1  0
 12 13  1  0
 13 14  2  0
 14 15  1  0
 15 16  2  0
 16 17  1  0
 16 18  1  0
 18 19  2  0
  2 20  1  0
 20 21  2  0
 21 22  1  0
 22 23  2  0
 23 24  1  0
 24 25  2  0
 25 26  1  0
 26 27  1  0
 26 28  1  0
 26 29  1  0
 25 30  1  0
 30 31  2  0
 31 32  1  0
 32 33  2  0
 12  7  1  0
 19 13  1  0
 33 20  1  0
 32 23  1  0
  3 34  1  0
  4 35  1  0
  4 36  1  0
  8 37  1  0
  8 38  1  0
  9 39  1  0
  9 40  1  0
 10 41  1  0
 10 42  1  0
 11 43  1  0
 11 44  1  0
 12 45  1  6
 14 46  1  0
 15 47  1  0
 18 48  1  0
 19 49  1  0
 21 50  1  0
 22 51  1  0
 24 52  1  0
 30 53  1  0
 31 54  1  0
M  END
>  <smiles>  (87) 
O=C(NCC(=O)N1CCCCC1c1ccc(Cl)cc1)c1ccc2cc(C(F)(F)F)ccc2n1

>  <score_type>  (87) 
oracle

>  <origin>  (87) 
autodockgpu

>  <m_score__min__energy>  (87) 
-8.3300000000000001

>  <m_primary>  (87) 
energy

>  <rmsd>  (87) 
7.9052100995632735

>  <m_score__min__rmsd>  (87) 
7.9052100995632735

>  <meeko>  (87) 
{"free_energy": -8.21, "intermolecular_energy": -10.0, "internal_energy": -1.76, "cluster_size": 6, "cluster_id": 1, "rank_in_cluster": 3}

>  <energy>  (87) 
-7.08

>  <cluster_rmsd>  (87) 
0.14

>  <cluster>  (87) 
6

$$$$

     RDKit          3D

 54 57  0  0  0  0  0  0  0  0999 V2000
  133.4140   69.5360  226.1760 O   0  0  0  0  0  0  0  0  0  0  0  0
  134.0580   70.6140  225.9750 C   0  0  0  0  0  0  0  0  0  0  0  0
  135.3360   70.5850  225.3180 N   0  0  0  0  0  0  0  0  0  0  0  0
  135.8030   69.2590  224.9220 C   0  0  0  0  0  0  0  0  0  0  0  0
  136.6650   69.3390  223.7160 C   0  0  0  0  0  0  0  0  0  0  0  0
  136.6570   68.4450  222.8110 O   0  0  0  0  0  0  0  0  0  0  0  0
  137.5320   70.4250  223.5370 N   0  0  0  0  0  0  0  0  0  0  0  0
  136.9350   71.7490  223.3050 C   0  0  0  0  0  0  0  0  0  0  0  0
  137.4780   72.3070  222.0010 C   0  0  0  0  0  0  0  0  0  0  0  0
  138.9530   72.0420  221.8530 C   0  0  0  0  0  0  0  0  0  0  0  0
  139.5790   71.6350  223.1800 C   0  0  0  0  0  0  0  0  0  0  0  0
  138.9730   70.3050  223.5720 C   0  0  1  0  0  0  0  0  0  0  0  0
  139.5040   69.8180  224.8640 C   0  0  0  0  0  0  0  0  0  0  0  0
  139.4590   68.4490  225.1050 C   0  0  0  0  0  0  0  0  0  0  0  0
  139.9440   67.9660  226.2940 C   0  0  0  0  0  0  0  0  0  0  0  0
  140.4640   68.8290  227.2260 C   0  0  0  0  0  0  0  0  0  0  0  0
  141.0860   68.1890  228.7550 Cl  0  0  0  0  0  0  0  0  0  0  0  0
  140.5140   70.2010  226.9960 C   0  0  0  0  0  0  0  0  0  0  0  0
  140.0300   70.7060  225.8010 C   0  0  0  0  0  0  0  0  0  0  0  0
  133.4940   71.8900  226.4140 C   0  0  0  0  0  0  0  0  0  0  0  0
  132.3460   71.9120  227.1480 C   0  0  0  0  0  0  0  0  0  0  0  0
  131.7390   73.0710  227.6080 C   0  0  0  0  0  0  0  0  0  0  0  0
  132.3630   74.2570  227.2840 C   0  0  0  0  0  0  0  0  0  0  0  0
  131.8160   75.4480  227.7080 C   0  0  0  0  0  0  0  0  0  0  0  0
  132.4030   76.6640  227.4110 C   0  0  0  0  0  0  0  0  0  0  0  0
  131.8240   77.9420  227.8600 C   0  0  0  0  0  0  0  0  0  0  0  0
  131.2040   78.5450  226.7850 F   0  0  0  0  0  0  0  0  0  0  0  0
  132.8520   78.7730  228.2780 F   0  0  0  0  0  0  0  0  0  0  0  0
  130.8920   77.7870  228.8590 F   0  0  0  0  0  0  0  0  0  0  0  0
  133.5740   76.6510  226.6640 C   0  0  0  0  0  0  0  0  0  0  0  0
  134.1300   75.4540  226.2330 C   0  0  0  0  0  0  0  0  0  0  0  0
  133.5370   74.2460  226.5360 C   0  0  0  0  0  0  0  0  0  0  0  0
  134.0820   73.0760  226.1140 N   0  0  0  0  0  0  0  0  0  0  0  0
  135.8920   71.4500  225.1360 H   0  0  0  0  0  0  0  0  0  0  0  0
  136.3801   68.8188  225.7485 H   0  0  0  0  0  0  0  0  0  0  0  0
  134.9286   68.6339  224.6881 H   0  0  0  0  0  0  0  0  0  0  0  0
  135.8409   71.6554  223.2403 H   0  0  0  0  0  0  0  0  0  0  0  0
  137.1878   72.4245  224.1355 H   0  0  0  0  0  0  0  0  0  0  0  0
  136.9452   71.8354  221.1622 H   0  0  0  0  0  0  0  0  0  0  0  0
  137.3239   73.3961  222.0036 H   0  0  0  0  0  0  0  0  0  0  0  0
  139.0998   71.2313  221.1242 H   0  0  0  0  0  0  0  0  0  0  0  0
  139.4388   72.9673  221.5098 H   0  0  0  0  0  0  0  0  0  0  0  0
  140.6685   71.5341  223.0674 H   0  0  0  0  0  0  0  0  0  0  0  0
  139.3858   72.3945  223.9519 H   0  0  0  0  0  0  0  0  0  0  0  0
  139.2635   69.5291  222.8484 H   0  0  0  0  0  0  0  0  0  0  0  0
  139.0407   67.7635  224.3533 H   0  0  0  0  0  0  0  0  0  0  0  0
  139.9161   66.8859  226.5006 H   0  0  0  0  0  0  0  0  0  0  0  0
  140.9336   70.8769  227.7556 H   0  0  0  0  0  0  0  0  0  0  0  0
  140.0600   71.7862  225.5952 H   0  0  0  0  0  0  0  0  0  0  0  0
  131.8710   70.9500  227.3909 H   0  0  0  0  0  0  0  0  0  0  0  0
  130.8113   73.0455  228.1985 H   0  0  0  0  0  0  0  0  0  0  0  0
  130.8879   75.4311  228.2983 H   0  0  0  0  0  0  0  0  0  0  0  0
  134.0671   77.6011  226.4107 H   0  0  0  0  0  0  0  0  0  0  0  0
  135.0571   75.4692  225.6412 H   0  0  0  0  0  0  0  0  0  0  0  0
  1  2  2  0
  2  3  1  0
  3  4  1  0
  4  5  1  0
  5  6  2  0
  5  7  1  0
  7  8  1  0
  8  9  1  0
  9 10  1  0
 10 11  1  0
 11 12  1  0
 12 13  1  0
 13 14  2  0
 14 15  1  0
 15 16  2  0
 16 17  1  0
 16 18  1  0
 18 19  2  0
  2 20  1  0
 20 21  2  0
 21 22  1  0
 22 23  2  0
 23 24  1  0
 24 25  2  0
 25 26  1  0
 26 27  1  0
 26 28  1  0
 26 29  1  0
 25 30  1  0
 30 31  2  0
 31 32  1  0
 32 33  2  0
 12  7  1  0
 19 13  1  0
 33 20  1  0
 32 23  1  0
  3 34  1  0
  4 35  1  0
  4 36  1  0
  8 37  1  0
  8 38  1  0
  9 39  1  0
  9 40  1  0
 10 41  1  0
 10 42  1  0
 11 43  1  0
 11 44  1  0
 12 45  1  6
 14 46  1  0
 15 47  1  0
 18 48  1  0
 19 49  1  0
 21 50  1  0
 22 51  1  0
 24 52  1  0
 30 53  1  0
 31 54  1  0
M  END
>  <smiles>  (88) 
O=C(NCC(=O)N1CCCCC1c1ccc(Cl)cc1)c1ccc2cc(C(F)(F)F)ccc2n1

>  <score_type>  (88) 
oracle

>  <origin>  (88) 
autodockgpu

>  <m_score__min__energy>  (88) 
-8.3300000000000001

>  <m_primary>  (88) 
energy

>  <rmsd>  (88) 
7.870416716512547

>  <m_score__min__rmsd>  (88) 
7.870416716512547

>  <meeko>  (88) 
{"free_energy": -8.27, "intermolecular_energy": -10.06, "internal_energy": -1.64, "cluster_size": 6, "cluster_id": 1, "rank_in_cluster": 2}

>  <energy>  (88) 
-7.08

>  <cluster_rmsd>  (88) 
0.12

>  <cluster>  (88) 
6

$$$$

     RDKit          3D

 54 57  0  0  0  0  0  0  0  0999 V2000
  140.9120   72.8720  220.6190 O   0  0  0  0  0  0  0  0  0  0  0  0
  140.2840   73.1680  221.6840 C   0  0  0  0  0  0  0  0  0  0  0  0
  139.7360   74.4850  221.8630 N   0  0  0  0  0  0  0  0  0  0  0  0
  139.9630   75.4090  220.7550 C   0  0  0  0  0  0  0  0  0  0  0  0
  140.5180   76.6960  221.2430 C   0  0  0  0  0  0  0  0  0  0  0  0
  140.2480   77.1630  222.3950 O   0  0  0  0  0  0  0  0  0  0  0  0
  141.3730   77.4510  220.4290 N   0  0  0  0  0  0  0  0  0  0  0  0
  141.7990   78.7710  220.9190 C   0  0  0  0  0  0  0  0  0  0  0  0
  141.4230   79.8190  219.8860 C   0  0  0  0  0  0  0  0  0  0  0  0
  141.6990   79.3440  218.4840 C   0  0  0  0  0  0  0  0  0  0  0  0
  142.6120   78.1240  218.4810 C   0  0  0  0  0  0  0  0  0  0  0  0
  141.8530   76.9950  219.1430 C   0  0  1  0  0  0  0  0  0  0  0  0
  142.6580   75.7560  219.2070 C   0  0  0  0  0  0  0  0  0  0  0  0
  142.3120   74.7170  218.3490 C   0  0  0  0  0  0  0  0  0  0  0  0
  143.0390   73.5540  218.3850 C   0  0  0  0  0  0  0  0  0  0  0  0
  144.0910   73.4270  219.2560 C   0  0  0  0  0  0  0  0  0  0  0  0
  145.0180   71.9190  219.2880 Cl  0  0  0  0  0  0  0  0  0  0  0  0
  144.4470   74.4600  220.1200 C   0  0  0  0  0  0  0  0  0  0  0  0
  143.7240   75.6400  220.0970 C   0  0  0  0  0  0  0  0  0  0  0  0
  140.1150   72.1620  222.7320 C   0  0  0  0  0  0  0  0  0  0  0  0
  139.3120   71.0820  222.5190 C   0  0  0  0  0  0  0  0  0  0  0  0
  139.0930   70.0800  223.4520 C   0  0  0  0  0  0  0  0  0  0  0  0
  139.7450   70.2150  224.6600 C   0  0  0  0  0  0  0  0  0  0  0  0
  139.5730   69.2560  225.6320 C   0  0  0  0  0  0  0  0  0  0  0  0
  140.2050   69.3440  226.8600 C   0  0  0  0  0  0  0  0  0  0  0  0
  140.0270   68.3230  227.9060 C   0  0  0  0  0  0  0  0  0  0  0  0
  139.4880   68.9290  229.0230 F   0  0  0  0  0  0  0  0  0  0  0  0
  141.2720   67.8210  228.2530 F   0  0  0  0  0  0  0  0  0  0  0  0
  139.1850   67.3060  227.5250 F   0  0  0  0  0  0  0  0  0  0  0  0
  141.0270   70.4410  227.0850 C   0  0  0  0  0  0  0  0  0  0  0  0
  141.2030   71.4120  226.1080 C   0  0  0  0  0  0  0  0  0  0  0  0
  140.5690   71.3130  224.8870 C   0  0  0  0  0  0  0  0  0  0  0  0
  140.7430   72.2630  223.9320 N   0  0  0  0  0  0  0  0  0  0  0  0
  139.2140   74.7630  222.7240 H   0  0  0  0  0  0  0  0  0  0  0  0
  140.6733   74.9556  220.0479 H   0  0  0  0  0  0  0  0  0  0  0  0
  139.0008   75.6067  220.2599 H   0  0  0  0  0  0  0  0  0  0  0  0
  141.2950   78.9926  221.8713 H   0  0  0  0  0  0  0  0  0  0  0  0
  142.8871   78.7774  221.0803 H   0  0  0  0  0  0  0  0  0  0  0  0
  140.3506   80.0446  219.9812 H   0  0  0  0  0  0  0  0  0  0  0  0
  142.0327   80.7159  220.0702 H   0  0  0  0  0  0  0  0  0  0  0  0
  140.7465   79.0796  218.0015 H   0  0  0  0  0  0  0  0  0  0  0  0
  142.2018   80.1546  217.9361 H   0  0  0  0  0  0  0  0  0  0  0  0
  142.8704   77.8493  217.4477 H   0  0  0  0  0  0  0  0  0  0  0  0
  143.5470   78.3349  219.0207 H   0  0  0  0  0  0  0  0  0  0  0  0
  140.9774   76.7207  218.5363 H   0  0  0  0  0  0  0  0  0  0  0  0
  141.4680   74.8263  217.6520 H   0  0  0  0  0  0  0  0  0  0  0  0
  142.7778   72.7221  217.7143 H   0  0  0  0  0  0  0  0  0  0  0  0
  145.2930   74.3393  220.8126 H   0  0  0  0  0  0  0  0  0  0  0  0
  143.9860   76.4708  220.7687 H   0  0  0  0  0  0  0  0  0  0  0  0
  138.8057   70.9999  221.5459 H   0  0  0  0  0  0  0  0  0  0  0  0
  138.4352   69.2241  223.2404 H   0  0  0  0  0  0  0  0  0  0  0  0
  138.9163   68.3975  225.4276 H   0  0  0  0  0  0  0  0  0  0  0  0
  141.5454   70.5419  228.0499 H   0  0  0  0  0  0  0  0  0  0  0  0
  141.8575   72.2726  226.3107 H   0  0  0  0  0  0  0  0  0  0  0  0
  1  2  2  0
  2  3  1  0
  3  4  1  0
  4  5  1  0
  5  6  2  0
  5  7  1  0
  7  8  1  0
  8  9  1  0
  9 10  1  0
 10 11  1  0
 11 12  1  0
 12 13  1  0
 13 14  2  0
 14 15  1  0
 15 16  2  0
 16 17  1  0
 16 18  1  0
 18 19  2  0
  2 20  1  0
 20 21  2  0
 21 22  1  0
 22 23  2  0
 23 24  1  0
 24 25  2  0
 25 26  1  0
 26 27  1  0
 26 28  1  0
 26 29  1  0
 25 30  1  0
 30 31  2  0
 31 32  1  0
 32 33  2  0
 12  7  1  0
 19 13  1  0
 33 20  1  0
 32 23  1  0
  3 34  1  0
  4 35  1  0
  4 36  1  0
  8 37  1  0
  8 38  1  0
  9 39  1  0
  9 40  1  0
 10 41  1  0
 10 42  1  0
 11 43  1  0
 11 44  1  0
 12 45  1  6
 14 46  1  0
 15 47  1  0
 18 48  1  0
 19 49  1  0
 21 50  1  0
 22 51  1  0
 24 52  1  0
 30 53  1  0
 31 54  1  0
M  END
>  <smiles>  (89) 
O=C(NCC(=O)N1CCCCC1c1ccc(Cl)cc1)c1ccc2cc(C(F)(F)F)ccc2n1

>  <score_type>  (89) 
oracle

>  <origin>  (89) 
autodockgpu

>  <m_score__min__energy>  (89) 
-8.3300000000000001

>  <m_primary>  (89) 
energy

>  <rmsd>  (89) 
2.8547881661164913

>  <m_score__min__rmsd>  (89) 
2.8547881661164913

>  <meeko>  (89) 
{"free_energy": -7.67, "intermolecular_energy": -9.46, "internal_energy": -2.05, "cluster_size": 13, "cluster_id": 2, "rank_in_cluster": 10}

>  <energy>  (89) 
-7.08

>  <cluster_rmsd>  (89) 
0.15

>  <cluster>  (89) 
6

$$$$

     RDKit          3D

 54 57  0  0  0  0  0  0  0  0999 V2000
  139.8140   73.1420  220.3380 O   0  0  0  0  0  0  0  0  0  0  0  0
  139.7150   73.3530  221.5880 C   0  0  0  0  0  0  0  0  0  0  0  0
  139.6320   74.6960  222.0940 N   0  0  0  0  0  0  0  0  0  0  0  0
  139.6710   75.7470  221.0810 C   0  0  0  0  0  0  0  0  0  0  0  0
  140.5490   76.8640  221.5090 C   0  0  0  0  0  0  0  0  0  0  0  0
  140.5960   77.2730  222.7130 O   0  0  0  0  0  0  0  0  0  0  0  0
  141.3700   77.5160  220.5780 N   0  0  0  0  0  0  0  0  0  0  0  0
  141.8330   78.8730  220.9030 C   0  0  0  0  0  0  0  0  0  0  0  0
  141.4160   79.8120  219.7850 C   0  0  0  0  0  0  0  0  0  0  0  0
  141.6150   79.1870  218.4290 C   0  0  0  0  0  0  0  0  0  0  0  0
  142.5140   77.9600  218.5100 C   0  0  0  0  0  0  0  0  0  0  0  0
  141.7780   76.9190  219.3260 C   0  0  1  0  0  0  0  0  0  0  0  0
  142.5730   75.6810  219.4800 C   0  0  0  0  0  0  0  0  0  0  0  0
  142.0120   74.4930  219.0240 C   0  0  0  0  0  0  0  0  0  0  0  0
  142.7240   73.3270  219.1540 C   0  0  0  0  0  0  0  0  0  0  0  0
  143.9710   73.3430  219.7260 C   0  0  0  0  0  0  0  0  0  0  0  0
  144.8750   71.8300  219.8850 Cl  0  0  0  0  0  0  0  0  0  0  0  0
  144.5430   74.5260  220.1870 C   0  0  0  0  0  0  0  0  0  0  0  0
  143.8390   75.7110  220.0640 C   0  0  0  0  0  0  0  0  0  0  0  0
  139.6840   72.2230  222.5160 C   0  0  0  0  0  0  0  0  0  0  0  0
  138.9980   71.0920  222.1920 C   0  0  0  0  0  0  0  0  0  0  0  0
  138.9130   69.9730  223.0050 C   0  0  0  0  0  0  0  0  0  0  0  0
  139.5770   70.0430  224.2120 C   0  0  0  0  0  0  0  0  0  0  0  0
  139.5360   68.9670  225.0710 C   0  0  0  0  0  0  0  0  0  0  0  0
  140.1860   68.9860  226.2920 C   0  0  0  0  0  0  0  0  0  0  0  0
  140.1470   67.8410  227.2170 C   0  0  0  0  0  0  0  0  0  0  0  0
  139.1090   67.0110  226.8440 F   0  0  0  0  0  0  0  0  0  0  0  0
  139.8800   68.3100  228.4930 F   0  0  0  0  0  0  0  0  0  0  0  0
  141.3070   67.1030  227.2060 F   0  0  0  0  0  0  0  0  0  0  0  0
  140.8890   70.1360  226.6310 C   0  0  0  0  0  0  0  0  0  0  0  0
  140.9330   71.2230  225.7690 C   0  0  0  0  0  0  0  0  0  0  0  0
  140.2820   71.1930  224.5540 C   0  0  0  0  0  0  0  0  0  0  0  0
  140.3270   72.2580  223.7120 N   0  0  0  0  0  0  0  0  0  0  0  0
  139.5490   74.9070  223.1140 H   0  0  0  0  0  0  0  0  0  0  0  0
  140.0563   75.3263  220.1405 H   0  0  0  0  0  0  0  0  0  0  0  0
  138.6519   76.1360  220.9394 H   0  0  0  0  0  0  0  0  0  0  0  0
  141.3801   79.2014  221.8501 H   0  0  0  0  0  0  0  0  0  0  0  0
  142.9279   78.8796  221.0084 H   0  0  0  0  0  0  0  0  0  0  0  0
  140.3523   80.0636  219.9089 H   0  0  0  0  0  0  0  0  0  0  0  0
  142.0437   80.7135  219.8424 H   0  0  0  0  0  0  0  0  0  0  0  0
  140.6364   78.8878  218.0255 H   0  0  0  0  0  0  0  0  0  0  0  0
  142.0972   79.9272  217.7736 H   0  0  0  0  0  0  0  0  0  0  0  0
  142.7161   77.5735  217.5001 H   0  0  0  0  0  0  0  0  0  0  0  0
  143.4777   78.2121  218.9765 H   0  0  0  0  0  0  0  0  0  0  0  0
  140.8690   76.5956  218.7977 H   0  0  0  0  0  0  0  0  0  0  0  0
  141.0120   74.4880  218.5657 H   0  0  0  0  0  0  0  0  0  0  0  0
  142.2944   72.3785  218.7992 H   0  0  0  0  0  0  0  0  0  0  0  0
  145.5436   74.5186  220.6440 H   0  0  0  0  0  0  0  0  0  0  0  0
  144.2698   76.6585  220.4201 H   0  0  0  0  0  0  0  0  0  0  0  0
  138.4781   71.0650  221.2230 H   0  0  0  0  0  0  0  0  0  0  0  0
  138.3474   69.0787  222.7045 H   0  0  0  0  0  0  0  0  0  0  0  0
  138.9717   68.0692  224.7785 H   0  0  0  0  0  0  0  0  0  0  0  0
  141.4172   70.1854  227.5946 H   0  0  0  0  0  0  0  0  0  0  0  0
  141.4959   72.1222  226.0597 H   0  0  0  0  0  0  0  0  0  0  0  0
  1  2  2  0
  2  3  1  0
  3  4  1  0
  4  5  1  0
  5  6  2  0
  5  7  1  0
  7  8  1  0
  8  9  1  0
  9 10  1  0
 10 11  1  0
 11 12  1  0
 12 13  1  0
 13 14  2  0
 14 15  1  0
 15 16  2  0
 16 17  1  0
 16 18  1  0
 18 19  2  0
  2 20  1  0
 20 21  2  0
 21 22  1  0
 22 23  2  0
 23 24  1  0
 24 25  2  0
 25 26  1  0
 26 27  1  0
 26 28  1  0
 26 29  1  0
 25 30  1  0
 30 31  2  0
 31 32  1  0
 32 33  2  0
 12  7  1  0
 19 13  1  0
 33 20  1  0
 32 23  1  0
  3 34  1  0
  4 35  1  0
  4 36  1  0
  8 37  1  0
  8 38  1  0
  9 39  1  0
  9 40  1  0
 10 41  1  0
 10 42  1  0
 11 43  1  0
 11 44  1  0
 12 45  1  6
 14 46  1  0
 15 47  1  0
 18 48  1  0
 19 49  1  0
 21 50  1  0
 22 51  1  0
 24 52  1  0
 30 53  1  0
 31 54  1  0
M  END
>  <smiles>  (90) 
O=C(NCC(=O)N1CCCCC1c1ccc(Cl)cc1)c1ccc2cc(C(F)(F)F)ccc2n1

>  <score_type>  (90) 
oracle

>  <origin>  (90) 
autodockgpu

>  <m_score__min__energy>  (90) 
-8.3300000000000001

>  <m_primary>  (90) 
energy

>  <rmsd>  (90) 
2.892041168584034

>  <m_score__min__rmsd>  (90) 
2.892041168584034

>  <meeko>  (90) 
{"free_energy": -7.76, "intermolecular_energy": -9.55, "internal_energy": -2.14, "cluster_size": 13, "cluster_id": 2, "rank_in_cluster": 8}

>  <energy>  (90) 
-7.08

>  <cluster_rmsd>  (90) 
0.28

>  <cluster>  (90) 
6

$$$$

     RDKit          3D

 54 57  0  0  0  0  0  0  0  0999 V2000
  138.1140   72.4050  220.2340 O   0  0  0  0  0  0  0  0  0  0  0  0
  138.9940   72.8540  221.0350 C   0  0  0  0  0  0  0  0  0  0  0  0
  140.0470   72.0000  221.5120 N   0  0  0  0  0  0  0  0  0  0  0  0
  140.0110   70.6280  221.0110 C   0  0  0  0  0  0  0  0  0  0  0  0
  139.2520   69.7470  221.9330 C   0  0  0  0  0  0  0  0  0  0  0  0
  139.5680   68.5310  222.1300 O   0  0  0  0  0  0  0  0  0  0  0  0
  138.1390   70.2410  222.6270 N   0  0  0  0  0  0  0  0  0  0  0  0
  136.8030   69.8950  222.1180 C   0  0  0  0  0  0  0  0  0  0  0  0
  136.0330   71.1780  221.8570 C   0  0  0  0  0  0  0  0  0  0  0  0
  136.2500   72.1900  222.9510 C   0  0  0  0  0  0  0  0  0  0  0  0
  136.8600   71.5470  224.1900 C   0  0  0  0  0  0  0  0  0  0  0  0
  138.2440   71.0670  223.8090 C   0  0  1  0  0  0  0  0  0  0  0  0
  138.9270   70.4080  224.9440 C   0  0  0  0  0  0  0  0  0  0  0  0
  139.9190   71.1250  225.6040 C   0  0  0  0  0  0  0  0  0  0  0  0
  140.5720   70.5410  226.6610 C   0  0  0  0  0  0  0  0  0  0  0  0
  140.2440   69.2680  227.0520 C   0  0  0  0  0  0  0  0  0  0  0  0
  141.0960   68.5300  228.4170 Cl  0  0  0  0  0  0  0  0  0  0  0  0
  139.2530   68.5400  226.3990 C   0  0  0  0  0  0  0  0  0  0  0  0
  138.5840   69.1140  225.3320 C   0  0  0  0  0  0  0  0  0  0  0  0
  138.9330   74.2480  221.4730 C   0  0  0  0  0  0  0  0  0  0  0  0
  137.7400   74.9050  221.4960 C   0  0  0  0  0  0  0  0  0  0  0  0
  137.5850   76.2240  221.8950 C   0  0  0  0  0  0  0  0  0  0  0  0
  138.7320   76.8820  222.2870 C   0  0  0  0  0  0  0  0  0  0  0  0
  138.6530   78.1950  222.6960 C   0  0  0  0  0  0  0  0  0  0  0  0
  139.7730   78.8990  223.1000 C   0  0  0  0  0  0  0  0  0  0  0  0
  139.6980   80.3030  223.5380 C   0  0  0  0  0  0  0  0  0  0  0  0
  138.7920   80.3910  224.5760 F   0  0  0  0  0  0  0  0  0  0  0  0
  139.2190   81.0710  222.4890 F   0  0  0  0  0  0  0  0  0  0  0  0
  140.9040   80.7910  223.9830 F   0  0  0  0  0  0  0  0  0  0  0  0
  140.9940   78.2360  223.0800 C   0  0  0  0  0  0  0  0  0  0  0  0
  141.0800   76.9130  222.6680 C   0  0  0  0  0  0  0  0  0  0  0  0
  139.9570   76.2200  222.2680 C   0  0  0  0  0  0  0  0  0  0  0  0
  140.0420   74.9260  221.8660 N   0  0  0  0  0  0  0  0  0  0  0  0
  140.7860   72.3350  222.1690 H   0  0  0  0  0  0  0  0  0  0  0  0
  139.5269   70.6179  220.0233 H   0  0  0  0  0  0  0  0  0  0  0  0
  141.0427   70.2537  220.9373 H   0  0  0  0  0  0  0  0  0  0  0  0
  136.8998   69.3247  221.1824 H   0  0  0  0  0  0  0  0  0  0  0  0
  136.2680   69.2811  222.8575 H   0  0  0  0  0  0  0  0  0  0  0  0
  136.3695   71.6077  220.9020 H   0  0  0  0  0  0  0  0  0  0  0  0
  134.9610   70.9338  221.8233 H   0  0  0  0  0  0  0  0  0  0  0  0
  136.9285   72.9741  222.5838 H   0  0  0  0  0  0  0  0  0  0  0  0
  135.2741   72.6161  223.2269 H   0  0  0  0  0  0  0  0  0  0  0  0
  136.9274   72.2847  225.0032 H   0  0  0  0  0  0  0  0  0  0  0  0
  136.2391   70.7098  224.5416 H   0  0  0  0  0  0  0  0  0  0  0  0
  138.8877   71.9242  223.5623 H   0  0  0  0  0  0  0  0  0  0  0  0
  140.1767   72.1453  225.2838 H   0  0  0  0  0  0  0  0  0  0  0  0
  141.3588   71.0944  227.1946 H   0  0  0  0  0  0  0  0  0  0  0  0
  139.0045   67.5200  226.7275 H   0  0  0  0  0  0  0  0  0  0  0  0
  137.7966   68.5596  224.8004 H   0  0  0  0  0  0  0  0  0  0  0  0
  136.8425   74.3543  221.1779 H   0  0  0  0  0  0  0  0  0  0  0  0
  136.6021   76.7179  221.8987 H   0  0  0  0  0  0  0  0  0  0  0  0
  137.6740   78.6966  222.7015 H   0  0  0  0  0  0  0  0  0  0  0  0
  141.9047   78.7665  223.3948 H   0  0  0  0  0  0  0  0  0  0  0  0
  142.0583   76.4102  222.6605 H   0  0  0  0  0  0  0  0  0  0  0  0
  1  2  2  0
  2  3  1  0
  3  4  1  0
  4  5  1  0
  5  6  2  0
  5  7  1  0
  7  8  1  0
  8  9  1  0
  9 10  1  0
 10 11  1  0
 11 12  1  0
 12 13  1  0
 13 14  2  0
 14 15  1  0
 15 16  2  0
 16 17  1  0
 16 18  1  0
 18 19  2  0
  2 20  1  0
 20 21  2  0
 21 22  1  0
 22 23  2  0
 23 24  1  0
 24 25  2  0
 25 26  1  0
 26 27  1  0
 26 28  1  0
 26 29  1  0
 25 30  1  0
 30 31  2  0
 31 32  1  0
 32 33  2  0
 12  7  1  0
 19 13  1  0
 33 20  1  0
 32 23  1  0
  3 34  1  0
  4 35  1  0
  4 36  1  0
  8 37  1  0
  8 38  1  0
  9 39  1  0
  9 40  1  0
 10 41  1  0
 10 42  1  0
 11 43  1  0
 11 44  1  0
 12 45  1  6
 14 46  1  0
 15 47  1  0
 18 48  1  0
 19 49  1  0
 21 50  1  0
 22 51  1  0
 24 52  1  0
 30 53  1  0
 31 54  1  0
M  END
>  <smiles>  (91) 
O=C(NCC(=O)N1CCCCC1c1ccc(Cl)cc1)c1ccc2cc(C(F)(F)F)ccc2n1

>  <score_type>  (91) 
oracle

>  <origin>  (91) 
autodockgpu

>  <m_score__min__energy>  (91) 
-8.3300000000000001

>  <m_primary>  (91) 
energy

>  <rmsd>  (91) 
7.236115456970735

>  <m_score__min__rmsd>  (91) 
7.236115456970735

>  <meeko>  (91) 
{"free_energy": -6.71, "intermolecular_energy": -8.5, "internal_energy": -2.39, "cluster_size": 8, "cluster_id": 3, "rank_in_cluster": 8}

>  <energy>  (91) 
-7.04

>  <cluster_rmsd>  (91) 
0.09

>  <cluster>  (91) 
6

$$$$

     RDKit          3D

 54 57  0  0  0  0  0  0  0  0999 V2000
  138.8100   72.8870  220.5710 O   0  0  0  0  0  0  0  0  0  0  0  0
  138.5000   73.7080  221.4920 C   0  0  0  0  0  0  0  0  0  0  0  0
  137.3730   73.4520  222.3450 N   0  0  0  0  0  0  0  0  0  0  0  0
  136.6480   72.2150  222.0650 C   0  0  0  0  0  0  0  0  0  0  0  0
  136.8780   71.2120  223.1340 C   0  0  0  0  0  0  0  0  0  0  0  0
  136.3610   71.3160  224.2910 O   0  0  0  0  0  0  0  0  0  0  0  0
  137.6920   70.0960  222.8930 N   0  0  0  0  0  0  0  0  0  0  0  0
  138.1380   69.8570  221.5110 C   0  0  0  0  0  0  0  0  0  0  0  0
  137.7110   68.4610  221.0950 C   0  0  0  0  0  0  0  0  0  0  0  0
  137.9180   67.4610  222.2010 C   0  0  0  0  0  0  0  0  0  0  0  0
  138.8330   68.0160  223.2870 C   0  0  0  0  0  0  0  0  0  0  0  0
  138.1090   69.1790  223.9300 C   0  0  1  0  0  0  0  0  0  0  0  0
  138.9190   69.8060  224.9970 C   0  0  0  0  0  0  0  0  0  0  0  0
  139.7070   70.8990  224.6510 C   0  0  0  0  0  0  0  0  0  0  0  0
  140.4700   71.5030  225.6180 C   0  0  0  0  0  0  0  0  0  0  0  0
  140.4490   71.0300  226.9050 C   0  0  0  0  0  0  0  0  0  0  0  0
  141.4390   71.8220  228.1410 Cl  0  0  0  0  0  0  0  0  0  0  0  0
  139.6640   69.9370  227.2640 C   0  0  0  0  0  0  0  0  0  0  0  0
  138.8880   69.3160  226.3010 C   0  0  0  0  0  0  0  0  0  0  0  0
  139.2990   74.9180  221.6840 C   0  0  0  0  0  0  0  0  0  0  0  0
  140.5860   74.9640  221.2410 C   0  0  0  0  0  0  0  0  0  0  0  0
  141.4170   76.0660  221.3780 C   0  0  0  0  0  0  0  0  0  0  0  0
  140.8730   77.1670  222.0070 C   0  0  0  0  0  0  0  0  0  0  0  0
  141.6420   78.2970  222.1770 C   0  0  0  0  0  0  0  0  0  0  0  0
  141.1440   79.4270  222.7990 C   0  0  0  0  0  0  0  0  0  0  0  0
  141.9590   80.6400  222.9860 C   0  0  0  0  0  0  0  0  0  0  0  0
  143.2850   80.2680  223.0770 F   0  0  0  0  0  0  0  0  0  0  0  0
  141.6010   81.2350  224.1860 F   0  0  0  0  0  0  0  0  0  0  0  0
  141.8360   81.5340  221.9480 F   0  0  0  0  0  0  0  0  0  0  0  0
  139.8320   79.3890  223.2530 C   0  0  0  0  0  0  0  0  0  0  0  0
  139.0520   78.2530  223.0850 C   0  0  0  0  0  0  0  0  0  0  0  0
  139.5590   77.1310  222.4620 C   0  0  0  0  0  0  0  0  0  0  0  0
  138.7950   76.0200  222.2980 N   0  0  0  0  0  0  0  0  0  0  0  0
  137.0900   74.1030  223.1110 H   0  0  0  0  0  0  0  0  0  0  0  0
  135.5719   72.4346  222.0029 H   0  0  0  0  0  0  0  0  0  0  0  0
  137.0120   71.8026  221.1124 H   0  0  0  0  0  0  0  0  0  0  0  0
  137.6797   70.5991  220.8408 H   0  0  0  0  0  0  0  0  0  0  0  0
  139.2326   69.9473  221.4501 H   0  0  0  0  0  0  0  0  0  0  0  0
  136.6443   68.4799  220.8269 H   0  0  0  0  0  0  0  0  0  0  0  0
  138.3285   68.1555  220.2375 H   0  0  0  0  0  0  0  0  0  0  0  0
  136.9433   67.2127  222.6463 H   0  0  0  0  0  0  0  0  0  0  0  0
  138.3910   66.5645  221.7738 H   0  0  0  0  0  0  0  0  0  0  0  0
  139.0408   67.2396  224.0380 H   0  0  0  0  0  0  0  0  0  0  0  0
  139.7933   68.3413  222.8603 H   0  0  0  0  0  0  0  0  0  0  0  0
  137.2047   68.8239  224.4459 H   0  0  0  0  0  0  0  0  0  0  0  0
  139.7181   71.2736  223.6168 H   0  0  0  0  0  0  0  0  0  0  0  0
  141.0994   72.3677  225.3607 H   0  0  0  0  0  0  0  0  0  0  0  0
  139.6608   69.5714  228.3015 H   0  0  0  0  0  0  0  0  0  0  0  0
  138.2586   68.4519  226.5601 H   0  0  0  0  0  0  0  0  0  0  0  0
  140.9920   74.0710  220.7432 H   0  0  0  0  0  0  0  0  0  0  0  0
  142.4522   76.0624  221.0059 H   0  0  0  0  0  0  0  0  0  0  0  0
  142.6785   78.3005  221.8086 H   0  0  0  0  0  0  0  0  0  0  0  0
  139.4051   80.2711  223.7526 H   0  0  0  0  0  0  0  0  0  0  0  0
  138.0156   78.2472  223.4536 H   0  0  0  0  0  0  0  0  0  0  0  0
  1  2  2  0
  2  3  1  0
  3  4  1  0
  4  5  1  0
  5  6  2  0
  5  7  1  0
  7  8  1  0
  8  9  1  0
  9 10  1  0
 10 11  1  0
 11 12  1  0
 12 13  1  0
 13 14  2  0
 14 15  1  0
 15 16  2  0
 16 17  1  0
 16 18  1  0
 18 19  2  0
  2 20  1  0
 20 21  2  0
 21 22  1  0
 22 23  2  0
 23 24  1  0
 24 25  2  0
 25 26  1  0
 26 27  1  0
 26 28  1  0
 26 29  1  0
 25 30  1  0
 30 31  2  0
 31 32  1  0
 32 33  2  0
 12  7  1  0
 19 13  1  0
 33 20  1  0
 32 23  1  0
  3 34  1  0
  4 35  1  0
  4 36  1  0
  8 37  1  0
  8 38  1  0
  9 39  1  0
  9 40  1  0
 10 41  1  0
 10 42  1  0
 11 43  1  0
 11 44  1  0
 12 45  1  1
 14 46  1  0
 15 47  1  0
 18 48  1  0
 19 49  1  0
 21 50  1  0
 22 51  1  0
 24 52  1  0
 30 53  1  0
 31 54  1  0
M  END
>  <smiles>  (92) 
O=C(NCC(=O)N1CCCCC1c1ccc(Cl)cc1)c1ccc2cc(C(F)(F)F)ccc2n1

>  <score_type>  (92) 
oracle

>  <origin>  (92) 
autodockgpu

>  <m_score__min__energy>  (92) 
-8.3300000000000001

>  <m_primary>  (92) 
energy

>  <rmsd>  (92) 
7.811247884268271

>  <m_score__min__rmsd>  (92) 
7.811247884268271

>  <meeko>  (92) 
{"free_energy": -7.88, "intermolecular_energy": -9.67, "internal_energy": -1.91, "cluster_size": 8, "cluster_id": 3, "rank_in_cluster": 3}

>  <energy>  (92) 
-6.93

>  <cluster_rmsd>  (92) 
0.34

>  <cluster>  (92) 
6

$$$$

     RDKit          3D

 54 57  0  0  0  0  0  0  0  0999 V2000
  139.4660   73.4960  219.6080 O   0  0  0  0  0  0  0  0  0  0  0  0
  139.3250   74.0100  220.7620 C   0  0  0  0  0  0  0  0  0  0  0  0
  138.5360   73.3460  221.7630 N   0  0  0  0  0  0  0  0  0  0  0  0
  137.9370   72.0810  221.3450 C   0  0  0  0  0  0  0  0  0  0  0  0
  137.6750   71.2060  222.5150 C   0  0  0  0  0  0  0  0  0  0  0  0
  136.9410   71.5690  223.4880 O   0  0  0  0  0  0  0  0  0  0  0  0
  138.2440   69.9270  222.5820 N   0  0  0  0  0  0  0  0  0  0  0  0
  138.8120   69.3620  221.3490 C   0  0  0  0  0  0  0  0  0  0  0  0
  138.1450   68.0260  221.0710 C   0  0  0  0  0  0  0  0  0  0  0  0
  137.9680   67.2190  222.3290 C   0  0  0  0  0  0  0  0  0  0  0  0
  138.8240   67.7660  223.4640 C   0  0  0  0  0  0  0  0  0  0  0  0
  138.2970   69.1450  223.7980 C   0  0  1  0  0  0  0  0  0  0  0  0
  139.0720   69.7800  224.8870 C   0  0  0  0  0  0  0  0  0  0  0  0
  138.9260   69.2610  226.1690 C   0  0  0  0  0  0  0  0  0  0  0  0
  139.6310   69.8280  227.2010 C   0  0  0  0  0  0  0  0  0  0  0  0
  140.4640   70.8910  226.9620 C   0  0  0  0  0  0  0  0  0  0  0  0
  141.3650   71.6110  228.3050 Cl  0  0  0  0  0  0  0  0  0  0  0  0
  140.6180   71.4200  225.6830 C   0  0  0  0  0  0  0  0  0  0  0  0
  139.9150   70.8590  224.6300 C   0  0  0  0  0  0  0  0  0  0  0  0
  139.9720   75.2850  221.0730 C   0  0  0  0  0  0  0  0  0  0  0  0
  141.1300   75.6340  220.4460 C   0  0  0  0  0  0  0  0  0  0  0  0
  141.8120   76.8190  220.6750 C   0  0  0  0  0  0  0  0  0  0  0  0
  141.2570   77.6740  221.6030 C   0  0  0  0  0  0  0  0  0  0  0  0
  141.8810   78.8700  221.8810 C   0  0  0  0  0  0  0  0  0  0  0  0
  141.3650   79.7630  222.8020 C   0  0  0  0  0  0  0  0  0  0  0  0
  142.0260   81.0430  223.1060 C   0  0  0  0  0  0  0  0  0  0  0  0
  141.4440   81.5810  224.2360 F   0  0  0  0  0  0  0  0  0  0  0  0
  141.8040   81.9190  222.0550 F   0  0  0  0  0  0  0  0  0  0  0  0
  143.3740   80.9070  223.3440 F   0  0  0  0  0  0  0  0  0  0  0  0
  140.1840   79.4150  223.4460 C   0  0  0  0  0  0  0  0  0  0  0  0
  139.5500   78.2120  223.1700 C   0  0  0  0  0  0  0  0  0  0  0  0
  140.0740   77.3280  222.2490 C   0  0  0  0  0  0  0  0  0  0  0  0
  139.4520   76.1510  221.9810 N   0  0  0  0  0  0  0  0  0  0  0  0
  138.4000   73.7390  222.7210 H   0  0  0  0  0  0  0  0  0  0  0  0
  136.9875   72.2855  220.8286 H   0  0  0  0  0  0  0  0  0  0  0  0
  138.6380   71.5662  220.6715 H   0  0  0  0  0  0  0  0  0  0  0  0
  138.6292   70.0485  220.5092 H   0  0  0  0  0  0  0  0  0  0  0  0
  139.8965   69.2212  221.4671 H   0  0  0  0  0  0  0  0  0  0  0  0
  137.1573   68.2074  220.6220 H   0  0  0  0  0  0  0  0  0  0  0  0
  138.7909   67.4564  220.3866 H   0  0  0  0  0  0  0  0  0  0  0  0
  136.9105   67.2523  222.6300 H   0  0  0  0  0  0  0  0  0  0  0  0
  138.2828   66.1850  222.1247 H   0  0  0  0  0  0  0  0  0  0  0  0
  138.7473   67.1100  224.3437 H   0  0  0  0  0  0  0  0  0  0  0  0
  139.8820   67.8139  223.1668 H   0  0  0  0  0  0  0  0  0  0  0  0
  137.2742   69.0733  224.1963 H   0  0  0  0  0  0  0  0  0  0  0  0
  138.2554   68.4087  226.3531 H   0  0  0  0  0  0  0  0  0  0  0  0
  139.5278   69.4294  228.2210 H   0  0  0  0  0  0  0  0  0  0  0  0
  141.2902   72.2736  225.5112 H   0  0  0  0  0  0  0  0  0  0  0  0
  140.0202   71.2577  223.6102 H   0  0  0  0  0  0  0  0  0  0  0  0
  141.5504   74.9312  219.7117 H   0  0  0  0  0  0  0  0  0  0  0  0
  142.7446   77.0635  220.1454 H   0  0  0  0  0  0  0  0  0  0  0  0
  142.8146   79.1214  221.3564 H   0  0  0  0  0  0  0  0  0  0  0  0
  139.7458   80.1024  224.1845 H   0  0  0  0  0  0  0  0  0  0  0  0
  138.6159   77.9592  223.6931 H   0  0  0  0  0  0  0  0  0  0  0  0
  1  2  2  0
  2  3  1  0
  3  4  1  0
  4  5  1  0
  5  6  2  0
  5  7  1  0
  7  8  1  0
  8  9  1  0
  9 10  1  0
 10 11  1  0
 11 12  1  0
 12 13  1  0
 13 14  2  0
 14 15  1  0
 15 16  2  0
 16 17  1  0
 16 18  1  0
 18 19  2  0
  2 20  1  0
 20 21  2  0
 21 22  1  0
 22 23  2  0
 23 24  1  0
 24 25  2  0
 25 26  1  0
 26 27  1  0
 26 28  1  0
 26 29  1  0
 25 30  1  0
 30 31  2  0
 31 32  1  0
 32 33  2  0
 12  7  1  0
 19 13  1  0
 33 20  1  0
 32 23  1  0
  3 34  1  0
  4 35  1  0
  4 36  1  0
  8 37  1  0
  8 38  1  0
  9 39  1  0
  9 40  1  0
 10 41  1  0
 10 42  1  0
 11 43  1  0
 11 44  1  0
 12 45  1  1
 14 46  1  0
 15 47  1  0
 18 48  1  0
 19 49  1  0
 21 50  1  0
 22 51  1  0
 24 52  1  0
 30 53  1  0
 31 54  1  0
M  END
>  <smiles>  (93) 
O=C(NCC(=O)N1CCCCC1c1ccc(Cl)cc1)c1ccc2cc(C(F)(F)F)ccc2n1

>  <score_type>  (93) 
oracle

>  <origin>  (93) 
autodockgpu

>  <m_score__min__energy>  (93) 
-8.3300000000000001

>  <m_primary>  (93) 
energy

>  <rmsd>  (93) 
8.053069660852046

>  <m_score__min__rmsd>  (93) 
8.053069660852046

>  <meeko>  (93) 
{"free_energy": -7.82, "intermolecular_energy": -9.61, "internal_energy": -1.69, "cluster_size": 8, "cluster_id": 3, "rank_in_cluster": 6}

>  <energy>  (93) 
-6.92

>  <cluster_rmsd>  (93) 
0.34

>  <cluster>  (93) 
6

$$$$

     RDKit          3D

 54 57  0  0  0  0  0  0  0  0999 V2000
  140.2250   75.3030  219.2210 O   0  0  0  0  0  0  0  0  0  0  0  0
  140.6950   74.9900  220.3600 C   0  0  0  0  0  0  0  0  0  0  0  0
  141.8020   75.7200  220.9150 N   0  0  0  0  0  0  0  0  0  0  0  0
  142.3120   76.8070  220.0820 C   0  0  0  0  0  0  0  0  0  0  0  0
  141.4200   77.9910  220.1510 C   0  0  0  0  0  0  0  0  0  0  0  0
  140.7970   78.4370  219.1350 O   0  0  0  0  0  0  0  0  0  0  0  0
  141.2350   78.6680  221.3650 N   0  0  0  0  0  0  0  0  0  0  0  0
  141.6720   80.0700  221.4420 C   0  0  0  0  0  0  0  0  0  0  0  0
  142.6530   80.2120  222.5920 C   0  0  0  0  0  0  0  0  0  0  0  0
  142.2130   79.4290  223.8010 C   0  0  0  0  0  0  0  0  0  0  0  0
  140.7500   79.0190  223.6930 C   0  0  0  0  0  0  0  0  0  0  0  0
  140.6390   78.0560  222.5320 C   0  0  1  0  0  0  0  0  0  0  0  0
  139.2460   77.6010  222.3270 C   0  0  0  0  0  0  0  0  0  0  0  0
  138.9200   76.3140  222.7410 C   0  0  0  0  0  0  0  0  0  0  0  0
  137.6370   75.8620  222.5650 C   0  0  0  0  0  0  0  0  0  0  0  0
  136.6950   76.6760  221.9870 C   0  0  0  0  0  0  0  0  0  0  0  0
  135.0440   76.0770  221.7670 Cl  0  0  0  0  0  0  0  0  0  0  0  0
  137.0090   77.9660  221.5680 C   0  0  0  0  0  0  0  0  0  0  0  0
  138.2990   78.4380  221.7390 C   0  0  0  0  0  0  0  0  0  0  0  0
  140.1060   73.8810  221.1100 C   0  0  0  0  0  0  0  0  0  0  0  0
  138.9380   73.3180  220.6900 C   0  0  0  0  0  0  0  0  0  0  0  0
  138.3070   72.2660  221.3340 C   0  0  0  0  0  0  0  0  0  0  0  0
  138.9260   71.7830  222.4680 C   0  0  0  0  0  0  0  0  0  0  0  0
  138.3550   70.7380  223.1590 C   0  0  0  0  0  0  0  0  0  0  0  0
  138.9360   70.2160  224.3000 C   0  0  0  0  0  0  0  0  0  0  0  0
  138.3320   69.0990  225.0460 C   0  0  0  0  0  0  0  0  0  0  0  0
  138.6780   69.2210  226.3760 F   0  0  0  0  0  0  0  0  0  0  0  0
  138.8660   67.9100  224.5740 F   0  0  0  0  0  0  0  0  0  0  0  0
  136.9590   69.0800  224.9630 F   0  0  0  0  0  0  0  0  0  0  0  0
  140.1270   70.7850  224.7350 C   0  0  0  0  0  0  0  0  0  0  0  0
  140.7080   71.8390  224.0430 C   0  0  0  0  0  0  0  0  0  0  0  0
  140.1200   72.3500  222.9050 C   0  0  0  0  0  0  0  0  0  0  0  0
  140.6890   73.3810  222.2290 N   0  0  0  0  0  0  0  0  0  0  0  0
  142.2130   75.4920  221.8470 H   0  0  0  0  0  0  0  0  0  0  0  0
  143.3147   77.0906  220.4343 H   0  0  0  0  0  0  0  0  0  0  0  0
  142.3549   76.4599  219.0391 H   0  0  0  0  0  0  0  0  0  0  0  0
  142.1620   80.3572  220.5000 H   0  0  0  0  0  0  0  0  0  0  0  0
  140.8036   80.7246  221.6074 H   0  0  0  0  0  0  0  0  0  0  0  0
  143.6375   79.8437  222.2679 H   0  0  0  0  0  0  0  0  0  0  0  0
  142.7015   81.2748  222.8714 H   0  0  0  0  0  0  0  0  0  0  0  0
  142.8331   78.5245  223.8872 H   0  0  0  0  0  0  0  0  0  0  0  0
  142.3298   80.0673  224.6892 H   0  0  0  0  0  0  0  0  0  0  0  0
  140.4270   78.5273  224.6225 H   0  0  0  0  0  0  0  0  0  0  0  0
  140.1092   79.8986  223.5329 H   0  0  0  0  0  0  0  0  0  0  0  0
  141.1978   77.1339  222.7500 H   0  0  0  0  0  0  0  0  0  0  0  0
  139.6805   75.6675  223.2032 H   0  0  0  0  0  0  0  0  0  0  0  0
  137.3628   74.8466  222.8872 H   0  0  0  0  0  0  0  0  0  0  0  0
  136.2404   78.6032  221.1061 H   0  0  0  0  0  0  0  0  0  0  0  0
  138.5715   79.4539  221.4171 H   0  0  0  0  0  0  0  0  0  0  0  0
  138.4668   73.7243  219.7829 H   0  0  0  0  0  0  0  0  0  0  0  0
  137.3641   71.8394  220.9613 H   0  0  0  0  0  0  0  0  0  0  0  0
  137.4113   70.3068  222.7936 H   0  0  0  0  0  0  0  0  0  0  0  0
  140.6159   70.3950  225.6399 H   0  0  0  0  0  0  0  0  0  0  0  0
  141.6508   72.2727  224.4076 H   0  0  0  0  0  0  0  0  0  0  0  0
  1  2  2  0
  2  3  1  0
  3  4  1  0
  4  5  1  0
  5  6  2  0
  5  7  1  0
  7  8  1  0
  8  9  1  0
  9 10  1  0
 10 11  1  0
 11 12  1  0
 12 13  1  0
 13 14  2  0
 14 15  1  0
 15 16  2  0
 16 17  1  0
 16 18  1  0
 18 19  2  0
  2 20  1  0
 20 21  2  0
 21 22  1  0
 22 23  2  0
 23 24  1  0
 24 25  2  0
 25 26  1  0
 26 27  1  0
 26 28  1  0
 26 29  1  0
 25 30  1  0
 30 31  2  0
 31 32  1  0
 32 33  2  0
 12  7  1  0
 19 13  1  0
 33 20  1  0
 32 23  1  0
  3 34  1  0
  4 35  1  0
  4 36  1  0
  8 37  1  0
  8 38  1  0
  9 39  1  0
  9 40  1  0
 10 41  1  0
 10 42  1  0
 11 43  1  0
 11 44  1  0
 12 45  1  1
 14 46  1  0
 15 47  1  0
 18 48  1  0
 19 49  1  0
 21 50  1  0
 22 51  1  0
 24 52  1  0
 30 53  1  0
 31 54  1  0
M  END
>  <smiles>  (94) 
O=C(NCC(=O)N1CCCCC1c1ccc(Cl)cc1)c1ccc2cc(C(F)(F)F)ccc2n1

>  <score_type>  (94) 
oracle

>  <origin>  (94) 
autodockgpu

>  <m_score__min__energy>  (94) 
-8.3300000000000001

>  <m_primary>  (94) 
energy

>  <rmsd>  (94) 
5.037449948284123

>  <m_score__min__rmsd>  (94) 
5.037449948284123

>  <meeko>  (94) 
{"free_energy": -6.72, "intermolecular_energy": -8.51, "internal_energy": -2.74, "cluster_size": 15, "cluster_id": 6, "rank_in_cluster": 15}

>  <energy>  (94) 
-6.88

>  <cluster_rmsd>  (94) 
0.35

>  <cluster>  (94) 
6

$$$$

     RDKit          3D

 54 57  0  0  0  0  0  0  0  0999 V2000
  137.9930   73.0250  220.5890 O   0  0  0  0  0  0  0  0  0  0  0  0
  137.9380   73.6590  221.6900 C   0  0  0  0  0  0  0  0  0  0  0  0
  137.0200   73.2520  222.7180 N   0  0  0  0  0  0  0  0  0  0  0  0
  136.1920   72.0930  222.3900 C   0  0  0  0  0  0  0  0  0  0  0  0
  136.5020   70.9500  223.2850 C   0  0  0  0  0  0  0  0  0  0  0  0
  135.9470   70.8010  224.4190 O   0  0  0  0  0  0  0  0  0  0  0  0
  137.4380   69.9820  222.8960 N   0  0  0  0  0  0  0  0  0  0  0  0
  137.7860   69.8980  221.4690 C   0  0  0  0  0  0  0  0  0  0  0  0
  137.5210   68.4830  220.9840 C   0  0  0  0  0  0  0  0  0  0  0  0
  137.9650   67.4560  221.9920 C   0  0  0  0  0  0  0  0  0  0  0  0
  138.8870   68.0680  223.0390 C   0  0  0  0  0  0  0  0  0  0  0  0
  138.0700   69.0710  223.8240 C   0  0  1  0  0  0  0  0  0  0  0  0
  138.8770   69.7410  224.8670 C   0  0  0  0  0  0  0  0  0  0  0  0
  139.5880   70.8790  224.5010 C   0  0  0  0  0  0  0  0  0  0  0  0
  140.3470   71.5230  225.4460 C   0  0  0  0  0  0  0  0  0  0  0  0
  140.3980   71.0440  226.7300 C   0  0  0  0  0  0  0  0  0  0  0  0
  141.3820   71.8870  227.9360 Cl  0  0  0  0  0  0  0  0  0  0  0  0
  139.6910   69.9050  227.1080 C   0  0  0  0  0  0  0  0  0  0  0  0
  138.9200   69.2430  226.1690 C   0  0  0  0  0  0  0  0  0  0  0  0
  138.8160   74.8080  221.9120 C   0  0  0  0  0  0  0  0  0  0  0  0
  140.1510   74.7040  221.6640 C   0  0  0  0  0  0  0  0  0  0  0  0
  141.0580   75.7370  221.8440 C   0  0  0  0  0  0  0  0  0  0  0  0
  140.5420   76.9300  222.3050 C   0  0  0  0  0  0  0  0  0  0  0  0
  141.3860   78.0000  222.5060 C   0  0  0  0  0  0  0  0  0  0  0  0
  140.9190   79.2180  222.9650 C   0  0  0  0  0  0  0  0  0  0  0  0
  141.8140   80.3670  223.1850 C   0  0  0  0  0  0  0  0  0  0  0  0
  141.8660   81.1110  222.0230 F   0  0  0  0  0  0  0  0  0  0  0  0
  143.0900   79.8930  223.4440 F   0  0  0  0  0  0  0  0  0  0  0  0
  141.3890   81.1910  224.2000 F   0  0  0  0  0  0  0  0  0  0  0  0
  139.5580   79.3320  223.2210 C   0  0  0  0  0  0  0  0  0  0  0  0
  138.7020   78.2580  223.0200 C   0  0  0  0  0  0  0  0  0  0  0  0
  139.1790   77.0470  222.5610 C   0  0  0  0  0  0  0  0  0  0  0  0
  138.3410   75.9970  222.3640 N   0  0  0  0  0  0  0  0  0  0  0  0
  136.9480   73.7480  223.6340 H   0  0  0  0  0  0  0  0  0  0  0  0
  135.1320   72.3635  222.5053 H   0  0  0  0  0  0  0  0  0  0  0  0
  136.4016   71.7938  221.3524 H   0  0  0  0  0  0  0  0  0  0  0  0
  137.1704   70.6069  220.8958 H   0  0  0  0  0  0  0  0  0  0  0  0
  138.8474   70.1495  221.3273 H   0  0  0  0  0  0  0  0  0  0  0  0
  136.4422   68.3637  220.8051 H   0  0  0  0  0  0  0  0  0  0  0  0
  138.0941   68.3249  220.0585 H   0  0  0  0  0  0  0  0  0  0  0  0
  137.0788   67.0408  222.4942 H   0  0  0  0  0  0  0  0  0  0  0  0
  138.5184   66.6669  221.4619 H   0  0  0  0  0  0  0  0  0  0  0  0
  139.2675   67.2841  223.7103 H   0  0  0  0  0  0  0  0  0  0  0  0
  139.7500   68.5555  222.5619 H   0  0  0  0  0  0  0  0  0  0  0  0
  137.2748   68.5557  224.3826 H   0  0  0  0  0  0  0  0  0  0  0  0
  139.5427   71.2574  223.4691 H   0  0  0  0  0  0  0  0  0  0  0  0
  140.9151   72.4245  225.1731 H   0  0  0  0  0  0  0  0  0  0  0  0
  139.7451   69.5355  228.1427 H   0  0  0  0  0  0  0  0  0  0  0  0
  138.3523   68.3418  226.4439 H   0  0  0  0  0  0  0  0  0  0  0  0
  140.5337   73.7399  221.2979 H   0  0  0  0  0  0  0  0  0  0  0  0
  142.1299   75.6120  221.6309 H   0  0  0  0  0  0  0  0  0  0  0  0
  142.4593   77.8825  222.2959 H   0  0  0  0  0  0  0  0  0  0  0  0
  139.1533   80.2867  223.5881 H   0  0  0  0  0  0  0  0  0  0  0  0
  137.6283   78.3737  223.2295 H   0  0  0  0  0  0  0  0  0  0  0  0
  1  2  2  0
  2  3  1  0
  3  4  1  0
  4  5  1  0
  5  6  2  0
  5  7  1  0
  7  8  1  0
  8  9  1  0
  9 10  1  0
 10 11  1  0
 11 12  1  0
 12 13  1  0
 13 14  2  0
 14 15  1  0
 15 16  2  0
 16 17  1  0
 16 18  1  0
 18 19  2  0
  2 20  1  0
 20 21  2  0
 21 22  1  0
 22 23  2  0
 23 24  1  0
 24 25  2  0
 25 26  1  0
 26 27  1  0
 26 28  1  0
 26 29  1  0
 25 30  1  0
 30 31  2  0
 31 32  1  0
 32 33  2  0
 12  7  1  0
 19 13  1  0
 33 20  1  0
 32 23  1  0
  3 34  1  0
  4 35  1  0
  4 36  1  0
  8 37  1  0
  8 38  1  0
  9 39  1  0
  9 40  1  0
 10 41  1  0
 10 42  1  0
 11 43  1  0
 11 44  1  0
 12 45  1  1
 14 46  1  0
 15 47  1  0
 18 48  1  0
 19 49  1  0
 21 50  1  0
 22 51  1  0
 24 52  1  0
 30 53  1  0
 31 54  1  0
M  END
>  <smiles>  (95) 
O=C(NCC(=O)N1CCCCC1c1ccc(Cl)cc1)c1ccc2cc(C(F)(F)F)ccc2n1

>  <score_type>  (95) 
oracle

>  <origin>  (95) 
autodockgpu

>  <m_score__min__energy>  (95) 
-8.3300000000000001

>  <m_primary>  (95) 
energy

>  <rmsd>  (95) 
7.728204887388806

>  <m_score__min__rmsd>  (95) 
7.728204887388806

>  <meeko>  (95) 
{"free_energy": -7.88, "intermolecular_energy": -9.67, "internal_energy": -1.92, "cluster_size": 8, "cluster_id": 3, "rank_in_cluster": 2}

>  <energy>  (95) 
-6.87

>  <cluster_rmsd>  (95) 
0.28

>  <cluster>  (95) 
6

$$$$

     RDKit          3D

 54 57  0  0  0  0  0  0  0  0999 V2000
  140.2820   75.2330  219.2400 O   0  0  0  0  0  0  0  0  0  0  0  0
  140.7370   74.9400  220.3910 C   0  0  0  0  0  0  0  0  0  0  0  0
  141.7820   75.7290  220.9820 N   0  0  0  0  0  0  0  0  0  0  0  0
  142.2520   76.8490  220.1700 C   0  0  0  0  0  0  0  0  0  0  0  0
  141.3150   77.9970  220.2580 C   0  0  0  0  0  0  0  0  0  0  0  0
  140.5610   78.3380  219.2920 O   0  0  0  0  0  0  0  0  0  0  0  0
  141.2350   78.7550  221.4340 N   0  0  0  0  0  0  0  0  0  0  0  0
  141.6270   80.1710  221.3660 C   0  0  0  0  0  0  0  0  0  0  0  0
  142.7180   80.4250  222.3910 C   0  0  0  0  0  0  0  0  0  0  0  0
  142.4350   79.7210  223.6920 C   0  0  0  0  0  0  0  0  0  0  0  0
  140.9840   79.2630  223.7710 C   0  0  0  0  0  0  0  0  0  0  0  0
  140.7870   78.2140  222.6980 C   0  0  1  0  0  0  0  0  0  0  0  0
  139.3980   77.7070  222.6760 C   0  0  0  0  0  0  0  0  0  0  0  0
  138.3690   78.6420  222.6190 C   0  0  0  0  0  0  0  0  0  0  0  0
  137.0700   78.2030  222.5980 C   0  0  0  0  0  0  0  0  0  0  0  0
  136.7980   76.8590  222.6320 C   0  0  0  0  0  0  0  0  0  0  0  0
  135.1150   76.3100  222.6040 Cl  0  0  0  0  0  0  0  0  0  0  0  0
  137.8180   75.9130  222.6900 C   0  0  0  0  0  0  0  0  0  0  0  0
  139.1350   76.3380  222.7110 C   0  0  0  0  0  0  0  0  0  0  0  0
  140.1910   73.7930  221.1170 C   0  0  0  0  0  0  0  0  0  0  0  0
  139.1340   73.1020  220.6060 C   0  0  0  0  0  0  0  0  0  0  0  0
  138.5520   72.0050  221.2220 C   0  0  0  0  0  0  0  0  0  0  0  0
  139.1020   71.6160  222.4260 C   0  0  0  0  0  0  0  0  0  0  0  0
  138.5730   70.5330  223.0930 C   0  0  0  0  0  0  0  0  0  0  0  0
  139.0890   70.1020  224.3020 C   0  0  0  0  0  0  0  0  0  0  0  0
  138.5300   68.9460  225.0230 C   0  0  0  0  0  0  0  0  0  0  0  0
  138.9000   67.7940  224.3590 F   0  0  0  0  0  0  0  0  0  0  0  0
  137.1460   69.0290  224.9920 F   0  0  0  0  0  0  0  0  0  0  0  0
  138.9790   68.8540  226.3190 F   0  0  0  0  0  0  0  0  0  0  0  0
  140.1670   70.8010  224.8300 C   0  0  0  0  0  0  0  0  0  0  0  0
  140.7040   71.8940  224.1620 C   0  0  0  0  0  0  0  0  0  0  0  0
  140.1820   72.3140  222.9560 C   0  0  0  0  0  0  0  0  0  0  0  0
  140.7080   73.3830  222.3040 N   0  0  0  0  0  0  0  0  0  0  0  0
  142.1790   75.5180  221.9250 H   0  0  0  0  0  0  0  0  0  0  0  0
  143.2425   77.1641  220.5300 H   0  0  0  0  0  0  0  0  0  0  0  0
  142.3104   76.5226  219.1212 H   0  0  0  0  0  0  0  0  0  0  0  0
  142.0043   80.4025  220.3590 H   0  0  0  0  0  0  0  0  0  0  0  0
  140.7577   80.8107  221.5783 H   0  0  0  0  0  0  0  0  0  0  0  0
  143.6756   80.0614  221.9899 H   0  0  0  0  0  0  0  0  0  0  0  0
  142.7583   81.5065  222.5881 H   0  0  0  0  0  0  0  0  0  0  0  0
  143.0926   78.8431  223.7745 H   0  0  0  0  0  0  0  0  0  0  0  0
  142.6211   80.4263  224.5154 H   0  0  0  0  0  0  0  0  0  0  0  0
  140.7782   78.8319  224.7619 H   0  0  0  0  0  0  0  0  0  0  0  0
  140.2984   80.1098  223.6199 H   0  0  0  0  0  0  0  0  0  0  0  0
  141.3986   77.3267  222.9185 H   0  0  0  0  0  0  0  0  0  0  0  0
  138.5944   79.7183  222.5912 H   0  0  0  0  0  0  0  0  0  0  0  0
  136.2452   78.9295  222.5539 H   0  0  0  0  0  0  0  0  0  0  0  0
  137.5797   74.8395  222.7188 H   0  0  0  0  0  0  0  0  0  0  0  0
  139.9584   75.6099  222.7545 H   0  0  0  0  0  0  0  0  0  0  0  0
  138.7163   73.4354  219.6446 H   0  0  0  0  0  0  0  0  0  0  0  0
  137.6985   71.4738  220.7754 H   0  0  0  0  0  0  0  0  0  0  0  0
  137.7188   69.9974  222.6532 H   0  0  0  0  0  0  0  0  0  0  0  0
  140.6012   70.4847  225.7899 H   0  0  0  0  0  0  0  0  0  0  0  0
  141.5572   72.4321  224.6006 H   0  0  0  0  0  0  0  0  0  0  0  0
  1  2  2  0
  2  3  1  0
  3  4  1  0
  4  5  1  0
  5  6  2  0
  5  7  1  0
  7  8  1  0
  8  9  1  0
  9 10  1  0
 10 11  1  0
 11 12  1  0
 12 13  1  0
 13 14  2  0
 14 15  1  0
 15 16  2  0
 16 17  1  0
 16 18  1  0
 18 19  2  0
  2 20  1  0
 20 21  2  0
 21 22  1  0
 22 23  2  0
 23 24  1  0
 24 25  2  0
 25 26  1  0
 26 27  1  0
 26 28  1  0
 26 29  1  0
 25 30  1  0
 30 31  2  0
 31 32  1  0
 32 33  2  0
 12  7  1  0
 19 13  1  0
 33 20  1  0
 32 23  1  0
  3 34  1  0
  4 35  1  0
  4 36  1  0
  8 37  1  0
  8 38  1  0
  9 39  1  0
  9 40  1  0
 10 41  1  0
 10 42  1  0
 11 43  1  0
 11 44  1  0
 12 45  1  1
 14 46  1  0
 15 47  1  0
 18 48  1  0
 19 49  1  0
 21 50  1  0
 22 51  1  0
 24 52  1  0
 30 53  1  0
 31 54  1  0
M  END
>  <smiles>  (96) 
O=C(NCC(=O)N1CCCCC1c1ccc(Cl)cc1)c1ccc2cc(C(F)(F)F)ccc2n1

>  <score_type>  (96) 
oracle

>  <origin>  (96) 
autodockgpu

>  <m_score__min__energy>  (96) 
-8.3300000000000001

>  <m_primary>  (96) 
energy

>  <rmsd>  (96) 
5.012512508168078

>  <m_score__min__rmsd>  (96) 
5.012512508168078

>  <meeko>  (96) 
{"free_energy": -7.08, "intermolecular_energy": -8.87, "internal_energy": -2.53, "cluster_size": 15, "cluster_id": 6, "rank_in_cluster": 7}

>  <energy>  (96) 
-6.72

>  <cluster_rmsd>  (96) 
0.41

>  <cluster>  (96) 
6

$$$$

     RDKit          3D

 54 57  0  0  0  0  0  0  0  0999 V2000
  140.8350   72.8410  220.6590 O   0  0  0  0  0  0  0  0  0  0  0  0
  140.2270   73.1560  221.7310 C   0  0  0  0  0  0  0  0  0  0  0  0
  139.6890   74.4770  221.9020 N   0  0  0  0  0  0  0  0  0  0  0  0
  139.9000   75.3850  220.7760 C   0  0  0  0  0  0  0  0  0  0  0  0
  140.5120   76.6590  221.2300 C   0  0  0  0  0  0  0  0  0  0  0  0
  140.2900   77.1510  222.3810 O   0  0  0  0  0  0  0  0  0  0  0  0
  141.3700   77.3720  220.3810 N   0  0  0  0  0  0  0  0  0  0  0  0
  141.8080   78.7080  220.8140 C   0  0  0  0  0  0  0  0  0  0  0  0
  141.4370   79.7150  219.7400 C   0  0  0  0  0  0  0  0  0  0  0  0
  141.7020   79.1800  218.3580 C   0  0  0  0  0  0  0  0  0  0  0  0
  142.6050   77.9530  218.4020 C   0  0  0  0  0  0  0  0  0  0  0  0
  141.8400   76.8590  219.1140 C   0  0  1  0  0  0  0  0  0  0  0  0
  142.6350   75.6170  219.2260 C   0  0  0  0  0  0  0  0  0  0  0  0
  143.7440   75.6340  220.0660 C   0  0  0  0  0  0  0  0  0  0  0  0
  144.5020   74.4980  220.1910 C   0  0  0  0  0  0  0  0  0  0  0  0
  144.1640   73.3650  219.4940 C   0  0  0  0  0  0  0  0  0  0  0  0
  145.1540   71.9080  219.6680 Cl  0  0  0  0  0  0  0  0  0  0  0  0
  143.0580   73.3360  218.6500 C   0  0  0  0  0  0  0  0  0  0  0  0
  142.2810   74.4730  218.5120 C   0  0  0  0  0  0  0  0  0  0  0  0
  140.0740   72.1650  222.7960 C   0  0  0  0  0  0  0  0  0  0  0  0
  139.2410   71.1000  222.6230 C   0  0  0  0  0  0  0  0  0  0  0  0
  139.0330   70.1130  223.5740 C   0  0  0  0  0  0  0  0  0  0  0  0
  139.7270   70.2490  224.7580 C   0  0  0  0  0  0  0  0  0  0  0  0
  139.5690   69.3040  225.7480 C   0  0  0  0  0  0  0  0  0  0  0  0
  140.2430   69.3930  226.9520 C   0  0  0  0  0  0  0  0  0  0  0  0
  140.0790   68.3890  228.0160 C   0  0  0  0  0  0  0  0  0  0  0  0
  139.2670   67.3780  227.5450 F   0  0  0  0  0  0  0  0  0  0  0  0
  139.4380   68.9820  229.0930 F   0  0  0  0  0  0  0  0  0  0  0  0
  141.2710   67.8280  228.4130 F   0  0  0  0  0  0  0  0  0  0  0  0
  141.0950   70.4760  227.1370 C   0  0  0  0  0  0  0  0  0  0  0  0
  141.2580   71.4310  226.1430 C   0  0  0  0  0  0  0  0  0  0  0  0
  140.5810   71.3320  224.9450 C   0  0  0  0  0  0  0  0  0  0  0  0
  140.7420   72.2670  223.9740 N   0  0  0  0  0  0  0  0  0  0  0  0
  139.1840   74.7700  222.7680 H   0  0  0  0  0  0  0  0  0  0  0  0
  140.5682   74.9045  220.0462 H   0  0  0  0  0  0  0  0  0  0  0  0
  138.9256   75.6074  220.3166 H   0  0  0  0  0  0  0  0  0  0  0  0
  141.3091   78.9730  221.7578 H   0  0  0  0  0  0  0  0  0  0  0  0
  142.8967   78.7123  220.9711 H   0  0  0  0  0  0  0  0  0  0  0  0
  140.3671   79.9543  219.8303 H   0  0  0  0  0  0  0  0  0  0  0  0
  142.0559   80.6129  219.8841 H   0  0  0  0  0  0  0  0  0  0  0  0
  140.7450   78.9038  217.8912 H   0  0  0  0  0  0  0  0  0  0  0  0
  142.2086   79.9627  217.7743 H   0  0  0  0  0  0  0  0  0  0  0  0
  142.8562   77.6332  217.3799 H   0  0  0  0  0  0  0  0  0  0  0  0
  143.5442   78.1784  218.9283 H   0  0  0  0  0  0  0  0  0  0  0  0
  140.9593   76.5669  218.5232 H   0  0  0  0  0  0  0  0  0  0  0  0
  144.0090   76.5455  220.6218 H   0  0  0  0  0  0  0  0  0  0  0  0
  145.3821   74.4949  220.8508 H   0  0  0  0  0  0  0  0  0  0  0  0
  142.8039   72.4189  218.0982 H   0  0  0  0  0  0  0  0  0  0  0  0
  141.4012   74.4741  217.8517 H   0  0  0  0  0  0  0  0  0  0  0  0
  138.6998   71.0186  221.6688 H   0  0  0  0  0  0  0  0  0  0  0  0
  138.3520   69.2680  223.3942 H   0  0  0  0  0  0  0  0  0  0  0  0
  138.8890   68.4567  225.5761 H   0  0  0  0  0  0  0  0  0  0  0  0
  141.6469   70.5773  228.0831 H   0  0  0  0  0  0  0  0  0  0  0  0
  141.9371   72.2795  226.3130 H   0  0  0  0  0  0  0  0  0  0  0  0
  1  2  2  0
  2  3  1  0
  3  4  1  0
  4  5  1  0
  5  6  2  0
  5  7  1  0
  7  8  1  0
  8  9  1  0
  9 10  1  0
 10 11  1  0
 11 12  1  0
 12 13  1  0
 13 14  2  0
 14 15  1  0
 15 16  2  0
 16 17  1  0
 16 18  1  0
 18 19  2  0
  2 20  1  0
 20 21  2  0
 21 22  1  0
 22 23  2  0
 23 24  1  0
 24 25  2  0
 25 26  1  0
 26 27  1  0
 26 28  1  0
 26 29  1  0
 25 30  1  0
 30 31  2  0
 31 32  1  0
 32 33  2  0
 12  7  1  0
 19 13  1  0
 33 20  1  0
 32 23  1  0
  3 34  1  0
  4 35  1  0
  4 36  1  0
  8 37  1  0
  8 38  1  0
  9 39  1  0
  9 40  1  0
 10 41  1  0
 10 42  1  0
 11 43  1  0
 11 44  1  0
 12 45  1  6
 14 46  1  0
 15 47  1  0
 18 48  1  0
 19 49  1  0
 21 50  1  0
 22 51  1  0
 24 52  1  0
 30 53  1  0
 31 54  1  0
M  END
>  <smiles>  (97) 
O=C(NCC(=O)N1CCCCC1c1ccc(Cl)cc1)c1ccc2cc(C(F)(F)F)ccc2n1

>  <score_type>  (97) 
oracle

>  <origin>  (97) 
autodockgpu

>  <m_score__min__energy>  (97) 
-8.3300000000000001

>  <m_primary>  (97) 
energy

>  <rmsd>  (97) 
2.7980688475568787

>  <m_score__min__rmsd>  (97) 
2.7980688475568787

>  <meeko>  (97) 
{"free_energy": -7.82, "intermolecular_energy": -9.61, "internal_energy": -2.03, "cluster_size": 13, "cluster_id": 2, "rank_in_cluster": 3}

>  <energy>  (97) 
-7.13

>  <cluster_rmsd>  (97) 
0.0

>  <cluster>  (97) 
7

$$$$

     RDKit          3D

 54 57  0  0  0  0  0  0  0  0999 V2000
  138.0350   72.9630  220.6390 O   0  0  0  0  0  0  0  0  0  0  0  0
  137.9380   73.6560  221.7010 C   0  0  0  0  0  0  0  0  0  0  0  0
  136.9680   73.3150  222.7050 N   0  0  0  0  0  0  0  0  0  0  0  0
  136.1410   72.1500  222.4020 C   0  0  0  0  0  0  0  0  0  0  0  0
  136.4660   71.0190  223.3070 C   0  0  0  0  0  0  0  0  0  0  0  0
  135.9350   70.8880  224.4550 O   0  0  0  0  0  0  0  0  0  0  0  0
  137.3890   70.0410  222.9120 N   0  0  0  0  0  0  0  0  0  0  0  0
  137.7340   69.9580  221.4840 C   0  0  0  0  0  0  0  0  0  0  0  0
  137.4520   68.5490  220.9950 C   0  0  0  0  0  0  0  0  0  0  0  0
  137.8850   67.5130  221.9980 C   0  0  0  0  0  0  0  0  0  0  0  0
  138.8170   68.1100  223.0450 C   0  0  0  0  0  0  0  0  0  0  0  0
  138.0130   69.1190  223.8360 C   0  0  1  0  0  0  0  0  0  0  0  0
  138.8310   69.7760  224.8790 C   0  0  0  0  0  0  0  0  0  0  0  0
  139.5550   70.9060  224.5150 C   0  0  0  0  0  0  0  0  0  0  0  0
  140.3230   71.5380  225.4600 C   0  0  0  0  0  0  0  0  0  0  0  0
  140.3700   71.0550  226.7430 C   0  0  0  0  0  0  0  0  0  0  0  0
  141.3660   71.8830  227.9500 Cl  0  0  0  0  0  0  0  0  0  0  0  0
  139.6500   69.9240  227.1200 C   0  0  0  0  0  0  0  0  0  0  0  0
  138.8690   69.2750  226.1790 C   0  0  0  0  0  0  0  0  0  0  0  0
  138.8200   74.8050  221.9020 C   0  0  0  0  0  0  0  0  0  0  0  0
  140.1420   74.7140  221.5860 C   0  0  0  0  0  0  0  0  0  0  0  0
  141.0510   75.7490  221.7410 C   0  0  0  0  0  0  0  0  0  0  0  0
  140.5530   76.9300  222.2500 C   0  0  0  0  0  0  0  0  0  0  0  0
  141.4000   78.0010  222.4300 C   0  0  0  0  0  0  0  0  0  0  0  0
  140.9500   79.2070  222.9350 C   0  0  0  0  0  0  0  0  0  0  0  0
  141.8490   80.3570  223.1330 C   0  0  0  0  0  0  0  0  0  0  0  0
  141.3730   81.1100  224.1870 F   0  0  0  0  0  0  0  0  0  0  0  0
  141.8140   81.1480  221.9950 F   0  0  0  0  0  0  0  0  0  0  0  0
  143.1400   79.9840  223.4230 F   0  0  0  0  0  0  0  0  0  0  0  0
  139.6020   79.3080  223.2600 C   0  0  0  0  0  0  0  0  0  0  0  0
  138.7440   78.2320  223.0800 C   0  0  0  0  0  0  0  0  0  0  0  0
  139.2030   77.0340  222.5750 C   0  0  0  0  0  0  0  0  0  0  0  0
  138.3620   75.9830  222.4000 N   0  0  0  0  0  0  0  0  0  0  0  0
  136.8600   73.8610  223.5890 H   0  0  0  0  0  0  0  0  0  0  0  0
  135.0816   72.4182  222.5271 H   0  0  0  0  0  0  0  0  0  0  0  0
  136.3391   71.8387  221.3657 H   0  0  0  0  0  0  0  0  0  0  0  0
  137.1259   70.6760  220.9142 H   0  0  0  0  0  0  0  0  0  0  0  0
  138.7981   70.1977  221.3415 H   0  0  0  0  0  0  0  0  0  0  0  0
  136.3716   68.4431  220.8173 H   0  0  0  0  0  0  0  0  0  0  0  0
  138.0223   68.3877  220.0683 H   0  0  0  0  0  0  0  0  0  0  0  0
  136.9947   67.1072  222.5008 H   0  0  0  0  0  0  0  0  0  0  0  0
  138.4270   66.7187  221.4639 H   0  0  0  0  0  0  0  0  0  0  0  0
  139.1903   67.3191  223.7122 H   0  0  0  0  0  0  0  0  0  0  0  0
  139.6845   68.5894  222.5679 H   0  0  0  0  0  0  0  0  0  0  0  0
  137.2132   68.6111  224.3950 H   0  0  0  0  0  0  0  0  0  0  0  0
  139.5126   71.2877  223.4842 H   0  0  0  0  0  0  0  0  0  0  0  0
  140.9018   72.4331  225.1885 H   0  0  0  0  0  0  0  0  0  0  0  0
  139.7013   69.5507  228.1534 H   0  0  0  0  0  0  0  0  0  0  0  0
  138.2894   68.3809  226.4522 H   0  0  0  0  0  0  0  0  0  0  0  0
  140.5112   73.7595  221.1826 H   0  0  0  0  0  0  0  0  0  0  0  0
  142.1116   75.6346  221.4727 H   0  0  0  0  0  0  0  0  0  0  0  0
  142.4623   77.8942  222.1651 H   0  0  0  0  0  0  0  0  0  0  0  0
  139.2105   80.2528  223.6650 H   0  0  0  0  0  0  0  0  0  0  0  0
  137.6814   78.3366  223.3443 H   0  0  0  0  0  0  0  0  0  0  0  0
  1  2  2  0
  2  3  1  0
  3  4  1  0
  4  5  1  0
  5  6  2  0
  5  7  1  0
  7  8  1  0
  8  9  1  0
  9 10  1  0
 10 11  1  0
 11 12  1  0
 12 13  1  0
 13 14  2  0
 14 15  1  0
 15 16  2  0
 16 17  1  0
 16 18  1  0
 18 19  2  0
  2 20  1  0
 20 21  2  0
 21 22  1  0
 22 23  2  0
 23 24  1  0
 24 25  2  0
 25 26  1  0
 26 27  1  0
 26 28  1  0
 26 29  1  0
 25 30  1  0
 30 31  2  0
 31 32  1  0
 32 33  2  0
 12  7  1  0
 19 13  1  0
 33 20  1  0
 32 23  1  0
  3 34  1  0
  4 35  1  0
  4 36  1  0
  8 37  1  0
  8 38  1  0
  9 39  1  0
  9 40  1  0
 10 41  1  0
 10 42  1  0
 11 43  1  0
 11 44  1  0
 12 45  1  1
 14 46  1  0
 15 47  1  0
 18 48  1  0
 19 49  1  0
 21 50  1  0
 22 51  1  0
 24 52  1  0
 30 53  1  0
 31 54  1  0
M  END
>  <smiles>  (98) 
O=C(NCC(=O)N1CCCCC1c1ccc(Cl)cc1)c1ccc2cc(C(F)(F)F)ccc2n1

>  <score_type>  (98) 
oracle

>  <origin>  (98) 
autodockgpu

>  <m_score__min__energy>  (98) 
-8.3300000000000001

>  <m_primary>  (98) 
energy

>  <rmsd>  (98) 
7.719232518648827

>  <m_score__min__rmsd>  (98) 
7.719232518648827

>  <meeko>  (98) 
{"free_energy": -7.87, "intermolecular_energy": -9.65, "internal_energy": -1.94, "cluster_size": 8, "cluster_id": 3, "rank_in_cluster": 4}

>  <energy>  (98) 
-7.0

>  <cluster_rmsd>  (98) 
0.0

>  <cluster>  (98) 
8

$$$$

     RDKit          3D

 54 57  0  0  0  0  0  0  0  0999 V2000
  140.2630   75.2310  219.2510 O   0  0  0  0  0  0  0  0  0  0  0  0
  140.6870   74.9700  220.4210 C   0  0  0  0  0  0  0  0  0  0  0  0
  141.7180   75.7750  221.0170 N   0  0  0  0  0  0  0  0  0  0  0  0
  142.2110   76.8700  220.1870 C   0  0  0  0  0  0  0  0  0  0  0  0
  141.3060   78.0440  220.2640 C   0  0  0  0  0  0  0  0  0  0  0  0
  140.5720   78.4050  219.2900 O   0  0  0  0  0  0  0  0  0  0  0  0
  141.2320   78.8040  221.4390 N   0  0  0  0  0  0  0  0  0  0  0  0
  141.6610   80.2100  221.3750 C   0  0  0  0  0  0  0  0  0  0  0  0
  142.7480   80.4360  222.4120 C   0  0  0  0  0  0  0  0  0  0  0  0
  142.4350   79.7390  223.7090 C   0  0  0  0  0  0  0  0  0  0  0  0
  140.9720   79.3180  223.7740 C   0  0  0  0  0  0  0  0  0  0  0  0
  140.7590   78.2750  222.6990 C   0  0  1  0  0  0  0  0  0  0  0  0
  139.3570   77.8020  222.6630 C   0  0  0  0  0  0  0  0  0  0  0  0
  139.1370   76.4300  222.7330 C   0  0  0  0  0  0  0  0  0  0  0  0
  137.8480   75.9610  222.7020 C   0  0  0  0  0  0  0  0  0  0  0  0
  136.7980   76.8380  222.6030 C   0  0  0  0  0  0  0  0  0  0  0  0
  135.1420   76.2140  222.5640 Cl  0  0  0  0  0  0  0  0  0  0  0  0
  137.0060   78.2130  222.5310 C   0  0  0  0  0  0  0  0  0  0  0  0
  138.3000   78.7050  222.5620 C   0  0  0  0  0  0  0  0  0  0  0  0
  140.1210   73.8460  221.1660 C   0  0  0  0  0  0  0  0  0  0  0  0
  138.9850   73.2370  220.7230 C   0  0  0  0  0  0  0  0  0  0  0  0
  138.3770   72.1670  221.3600 C   0  0  0  0  0  0  0  0  0  0  0  0
  138.9860   71.7150  222.5120 C   0  0  0  0  0  0  0  0  0  0  0  0
  138.4360   70.6540  223.1970 C   0  0  0  0  0  0  0  0  0  0  0  0
  139.0090   70.1630  224.3560 C   0  0  0  0  0  0  0  0  0  0  0  0
  138.4280   69.0290  225.0960 C   0  0  0  0  0  0  0  0  0  0  0  0
  138.7930   69.1370  226.4220 F   0  0  0  0  0  0  0  0  0  0  0  0
  138.9670   67.8520  224.6000 F   0  0  0  0  0  0  0  0  0  0  0  0
  137.0540   68.9960  225.0330 F   0  0  0  0  0  0  0  0  0  0  0  0
  140.1680   70.7770  224.8150 C   0  0  0  0  0  0  0  0  0  0  0  0
  140.7260   71.8470  224.1280 C   0  0  0  0  0  0  0  0  0  0  0  0
  140.1470   72.3290  222.9730 C   0  0  0  0  0  0  0  0  0  0  0  0
  140.6950   73.3750  222.3030 N   0  0  0  0  0  0  0  0  0  0  0  0
  142.0900   75.5900  221.9760 H   0  0  0  0  0  0  0  0  0  0  0  0
  143.2119   77.1637  220.5361 H   0  0  0  0  0  0  0  0  0  0  0  0
  142.2527   76.5272  219.1426 H   0  0  0  0  0  0  0  0  0  0  0  0
  142.0547   80.4315  220.3720 H   0  0  0  0  0  0  0  0  0  0  0  0
  140.8063   80.8720  221.5781 H   0  0  0  0  0  0  0  0  0  0  0  0
  143.7002   80.0489  222.0202 H   0  0  0  0  0  0  0  0  0  0  0  0
  142.8128   81.5160  222.6105 H   0  0  0  0  0  0  0  0  0  0  0  0
  143.0692   78.8445  223.7969 H   0  0  0  0  0  0  0  0  0  0  0  0
  142.6312   80.4388  224.5347 H   0  0  0  0  0  0  0  0  0  0  0  0
  140.7459   78.8920  224.7626 H   0  0  0  0  0  0  0  0  0  0  0  0
  140.3095   80.1819  223.6169 H   0  0  0  0  0  0  0  0  0  0  0  0
  141.3466   77.3732  222.9259 H   0  0  0  0  0  0  0  0  0  0  0  0
  139.9835   75.7320  222.8120 H   0  0  0  0  0  0  0  0  0  0  0  0
  137.6562   74.8792  222.7567 H   0  0  0  0  0  0  0  0  0  0  0  0
  136.1515   78.9010  222.4504 H   0  0  0  0  0  0  0  0  0  0  0  0
  138.4900   79.7871  222.5080 H   0  0  0  0  0  0  0  0  0  0  0  0
  138.5214   73.6190  219.8015 H   0  0  0  0  0  0  0  0  0  0  0  0
  137.4593   71.7037  220.9685 H   0  0  0  0  0  0  0  0  0  0  0  0
  137.5180   70.1855  222.8125 H   0  0  0  0  0  0  0  0  0  0  0  0
  140.6494   70.4109  225.7339 H   0  0  0  0  0  0  0  0  0  0  0  0
  141.6437   72.3172  224.5109 H   0  0  0  0  0  0  0  0  0  0  0  0
  1  2  2  0
  2  3  1  0
  3  4  1  0
  4  5  1  0
  5  6  2  0
  5  7  1  0
  7  8  1  0
  8  9  1  0
  9 10  1  0
 10 11  1  0
 11 12  1  0
 12 13  1  0
 13 14  2  0
 14 15  1  0
 15 16  2  0
 16 17  1  0
 16 18  1  0
 18 19  2  0
  2 20  1  0
 20 21  2  0
 21 22  1  0
 22 23  2  0
 23 24  1  0
 24 25  2  0
 25 26  1  0
 26 27  1  0
 26 28  1  0
 26 29  1  0
 25 30  1  0
 30 31  2  0
 31 32  1  0
 32 33  2  0
 12  7  1  0
 19 13  1  0
 33 20  1  0
 32 23  1  0
  3 34  1  0
  4 35  1  0
  4 36  1  0
  8 37  1  0
  8 38  1  0
  9 39  1  0
  9 40  1  0
 10 41  1  0
 10 42  1  0
 11 43  1  0
 11 44  1  0
 12 45  1  1
 14 46  1  0
 15 47  1  0
 18 48  1  0
 19 49  1  0
 21 50  1  0
 22 51  1  0
 24 52  1  0
 30 53  1  0
 31 54  1  0
M  END
>  <smiles>  (99) 
O=C(NCC(=O)N1CCCCC1c1ccc(Cl)cc1)c1ccc2cc(C(F)(F)F)ccc2n1

>  <score_type>  (99) 
oracle

>  <origin>  (99) 
autodockgpu

>  <m_score__min__energy>  (99) 
-8.3300000000000001

>  <m_primary>  (99) 
energy

>  <rmsd>  (99) 
5.035526315142099

>  <m_score__min__rmsd>  (99) 
5.035526315142099

>  <meeko>  (99) 
{"free_energy": -7.04, "intermolecular_energy": -8.83, "internal_energy": -2.54, "cluster_size": 15, "cluster_id": 6, "rank_in_cluster": 10}

>  <energy>  (99) 
-6.64

>  <cluster_rmsd>  (99) 
0.0

>  <cluster>  (99) 
9

$$$$

     RDKit          3D

 54 57  0  0  0  0  0  0  0  0999 V2000
  140.3400   75.4230  219.1210 O   0  0  0  0  0  0  0  0  0  0  0  0
  140.7530   75.1270  220.2870 C   0  0  0  0  0  0  0  0  0  0  0  0
  141.8010   75.8930  220.9030 N   0  0  0  0  0  0  0  0  0  0  0  0
  142.3220   76.9960  220.0980 C   0  0  0  0  0  0  0  0  0  0  0  0
  141.4520   78.1930  220.2120 C   0  0  0  0  0  0  0  0  0  0  0  0
  140.7500   78.6210  219.2420 O   0  0  0  0  0  0  0  0  0  0  0  0
  141.3790   78.9020  221.4190 N   0  0  0  0  0  0  0  0  0  0  0  0
  141.8080   80.3090  221.4170 C   0  0  0  0  0  0  0  0  0  0  0  0
  142.8950   80.4900  222.4620 C   0  0  0  0  0  0  0  0  0  0  0  0
  142.5810   79.7370  223.7280 C   0  0  0  0  0  0  0  0  0  0  0  0
  141.1190   79.3140  223.7740 C   0  0  0  0  0  0  0  0  0  0  0  0
  140.9050   78.3180  222.6550 C   0  0  1  0  0  0  0  0  0  0  0  0
  139.5040   77.8480  222.5990 C   0  0  0  0  0  0  0  0  0  0  0  0
  139.2770   76.4800  222.7130 C   0  0  0  0  0  0  0  0  0  0  0  0
  137.9880   76.0130  222.6640 C   0  0  0  0  0  0  0  0  0  0  0  0
  136.9440   76.8890  222.5050 C   0  0  0  0  0  0  0  0  0  0  0  0
  135.2880   76.2680  222.4440 Cl  0  0  0  0  0  0  0  0  0  0  0  0
  137.1580   78.2600  222.3890 C   0  0  0  0  0  0  0  0  0  0  0  0
  138.4520   78.7490  222.4370 C   0  0  0  0  0  0  0  0  0  0  0  0
  140.1580   73.9990  221.0040 C   0  0  0  0  0  0  0  0  0  0  0  0
  139.0170   73.4190  220.5370 C   0  0  0  0  0  0  0  0  0  0  0  0
  138.3830   72.3480  221.1480 C   0  0  0  0  0  0  0  0  0  0  0  0
  138.9710   71.8660  222.2990 C   0  0  0  0  0  0  0  0  0  0  0  0
  138.3940   70.8030  222.9580 C   0  0  0  0  0  0  0  0  0  0  0  0
  138.9440   70.2810  224.1150 C   0  0  0  0  0  0  0  0  0  0  0  0
  138.3340   69.1450  224.8270 C   0  0  0  0  0  0  0  0  0  0  0  0
  138.2510   68.0760  223.9590 F   0  0  0  0  0  0  0  0  0  0  0  0
  137.0450   69.4930  225.1980 F   0  0  0  0  0  0  0  0  0  0  0  0
  139.0620   68.7470  225.9240 F   0  0  0  0  0  0  0  0  0  0  0  0
  140.1080   70.8660  224.5980 C   0  0  0  0  0  0  0  0  0  0  0  0
  140.6930   71.9380  223.9370 C   0  0  0  0  0  0  0  0  0  0  0  0
  140.1370   72.4500  222.7840 C   0  0  0  0  0  0  0  0  0  0  0  0
  140.7100   73.4990  222.1390 N   0  0  0  0  0  0  0  0  0  0  0  0
  142.1650   75.6790  221.8590 H   0  0  0  0  0  0  0  0  0  0  0  0
  143.3330   77.2511  220.4483 H   0  0  0  0  0  0  0  0  0  0  0  0
  142.3482   76.6801  219.0447 H   0  0  0  0  0  0  0  0  0  0  0  0
  142.2012   80.5743  220.4246 H   0  0  0  0  0  0  0  0  0  0  0  0
  140.9532   80.9610  221.6497 H   0  0  0  0  0  0  0  0  0  0  0  0
  143.8471   80.1200  222.0539 H   0  0  0  0  0  0  0  0  0  0  0  0
  142.9608   81.5604  222.7068 H   0  0  0  0  0  0  0  0  0  0  0  0
  143.2151   78.8395  223.7773 H   0  0  0  0  0  0  0  0  0  0  0  0
  142.7768   80.4004  224.5833 H   0  0  0  0  0  0  0  0  0  0  0  0
  140.8926   78.8459  224.7434 H   0  0  0  0  0  0  0  0  0  0  0  0
  140.4571   80.1843  223.6535 H   0  0  0  0  0  0  0  0  0  0  0  0
  141.4912   77.4062  222.8421 H   0  0  0  0  0  0  0  0  0  0  0  0
  140.1186   75.7833  222.8405 H   0  0  0  0  0  0  0  0  0  0  0  0
  137.7911   74.9344  222.7523 H   0  0  0  0  0  0  0  0  0  0  0  0
  136.3083   78.9467  222.2607 H   0  0  0  0  0  0  0  0  0  0  0  0
  138.6469   79.8280  222.3490 H   0  0  0  0  0  0  0  0  0  0  0  0
  138.5708   73.8260  219.6176 H   0  0  0  0  0  0  0  0  0  0  0  0
  137.4624   71.9072  220.7378 H   0  0  0  0  0  0  0  0  0  0  0  0
  137.4727   70.3580  222.5541 H   0  0  0  0  0  0  0  0  0  0  0  0
  140.5720   70.4751  225.5155 H   0  0  0  0  0  0  0  0  0  0  0  0
  141.6138   72.3854  224.3394 H   0  0  0  0  0  0  0  0  0  0  0  0
  1  2  2  0
  2  3  1  0
  3  4  1  0
  4  5  1  0
  5  6  2  0
  5  7  1  0
  7  8  1  0
  8  9  1  0
  9 10  1  0
 10 11  1  0
 11 12  1  0
 12 13  1  0
 13 14  2  0
 14 15  1  0
 15 16  2  0
 16 17  1  0
 16 18  1  0
 18 19  2  0
  2 20  1  0
 20 21  2  0
 21 22  1  0
 22 23  2  0
 23 24  1  0
 24 25  2  0
 25 26  1  0
 26 27  1  0
 26 28  1  0
 26 29  1  0
 25 30  1  0
 30 31  2  0
 31 32  1  0
 32 33  2  0
 12  7  1  0
 19 13  1  0
 33 20  1  0
 32 23  1  0
  3 34  1  0
  4 35  1  0
  4 36  1  0
  8 37  1  0
  8 38  1  0
  9 39  1  0
  9 40  1  0
 10 41  1  0
 10 42  1  0
 11 43  1  0
 11 44  1  0
 12 45  1  1
 14 46  1  0
 15 47  1  0
 18 48  1  0
 19 49  1  0
 21 50  1  0
 22 51  1  0
 24 52  1  0
 30 53  1  0
 31 54  1  0
M  END
>  <smiles>  (100) 
O=C(NCC(=O)N1CCCCC1c1ccc(Cl)cc1)c1ccc2cc(C(F)(F)F)ccc2n1

>  <score_type>  (100) 
oracle

>  <origin>  (100) 
autodockgpu

>  <m_score__min__energy>  (100) 
-8.3300000000000001

>  <m_primary>  (100) 
energy

>  <rmsd>  (100) 
5.189259559714221

>  <m_score__min__rmsd>  (100) 
5.189259559714221

>  <meeko>  (100) 
{"free_energy": -6.93, "intermolecular_energy": -8.72, "internal_energy": -2.58, "cluster_size": 15, "cluster_id": 6, "rank_in_cluster": 11}

>  <energy>  (100) 
-6.54

>  <cluster_rmsd>  (100) 
1.84

>  <cluster>  (100) 
9

$$$$
