
     RDKit          3D

 67 71  0  0  0  0  0  0  0  0999 V2000
  136.8530   70.1640  224.9740 O   0  0  0  0  0  0  0  0  0  0  0  0
  137.2270   70.8720  223.9860 C   0  0  0  0  0  0  0  0  0  0  0  0
  136.3260   71.7690  223.4940 C   0  0  0  0  0  0  0  0  0  0  0  0
  135.0730   71.9250  224.0170 C   0  0  0  0  0  0  0  0  0  0  0  0
  134.2030   72.8590  223.4660 C   0  0  0  0  0  0  0  0  0  0  0  0
  134.5830   73.6520  222.3810 C   0  0  0  0  0  0  0  0  0  0  0  0
  135.8630   73.4830  221.8590 C   0  0  0  0  0  0  0  0  0  0  0  0
  136.7190   72.5460  222.4190 C   0  0  0  0  0  0  0  0  0  0  0  0
  137.9510   72.3550  221.9480 N   0  0  0  0  0  0  0  0  0  0  0  0
  138.8270   71.4680  222.4430 C   0  0  0  0  0  0  0  0  0  0  0  0
  140.1610   71.3500  221.8500 C   0  0  0  0  0  0  0  0  0  0  0  0
  141.0690   72.2650  222.1290 C   0  0  0  0  0  0  0  0  0  0  0  0
  140.9380   73.6750  221.7930 C   0  0  0  0  0  0  0  0  0  0  0  0
  141.7880   74.3360  220.9320 C   0  0  0  0  0  0  0  0  0  0  0  0
  141.6290   75.6880  220.6360 C   0  0  0  0  0  0  0  0  0  0  0  0
  140.5900   76.3770  221.2260 C   0  0  0  0  0  0  0  0  0  0  0  0
  140.4540   77.8160  220.8900 C   0  0  0  0  0  0  0  0  0  0  0  0
  141.2260   78.5900  221.8100 N   0  0  0  0  0  0  0  0  0  0  0  0
  141.8420   79.7610  221.2870 C   0  0  0  0  0  0  0  0  0  0  0  0
  142.0830   80.8290  222.3290 C   0  0  0  0  0  0  0  0  0  0  0  0
  142.4660   80.3000  223.6740 C   0  0  0  0  0  0  0  0  0  0  0  0
  141.8030   79.0200  224.0660 C   0  0  0  0  0  0  0  0  0  0  0  0
  140.6410   78.7930  223.0970 C   0  0  0  0  0  0  0  0  0  0  0  0
  139.7440   75.7120  222.0870 C   0  0  0  0  0  0  0  0  0  0  0  0
  139.9440   74.4050  222.3350 N   0  0  0  0  0  0  0  0  0  0  0  0
  138.4770   70.7050  223.4770 N   0  0  0  0  0  0  0  0  0  0  0  0
  139.3190   69.7150  224.0780 C   0  0  0  0  0  0  0  0  0  0  0  0
  139.5570   69.8970  225.5430 C   0  0  0  0  0  0  0  0  0  0  0  0
  140.6680   70.9460  225.6830 C   0  0  0  0  0  0  0  0  0  0  0  0
  140.6840   71.3900  227.1230 C   0  0  0  0  0  0  0  0  0  0  0  0
  141.0740   70.1980  227.9790 C   0  0  0  0  0  0  0  0  0  0  0  0
  140.0890   69.0790  227.7580 C   0  0  0  0  0  0  0  0  0  0  0  0
  139.9840   68.6820  226.2890 C   0  0  0  0  0  0  0  0  0  0  0  0
  134.7533   71.3123  224.8728 H   0  0  0  0  0  0  0  0  0  0  0  0
  133.1959   72.9757  223.8929 H   0  0  0  0  0  0  0  0  0  0  0  0
  133.8901   74.3900  221.9505 H   0  0  0  0  0  0  0  0  0  0  0  0
  136.1945   74.0912  221.0045 H   0  0  0  0  0  0  0  0  0  0  0  0
  140.4021   70.5103  221.1816 H   0  0  0  0  0  0  0  0  0  0  0  0
  141.9832   71.9420  222.6485 H   0  0  0  0  0  0  0  0  0  0  0  0
  142.6149   73.7803  220.4657 H   0  0  0  0  0  0  0  0  0  0  0  0
  142.3184   76.1959  219.9455 H   0  0  0  0  0  0  0  0  0  0  0  0
  140.8181   77.9906  219.8668 H   0  0  0  0  0  0  0  0  0  0  0  0
  139.3965   78.1117  220.9558 H   0  0  0  0  0  0  0  0  0  0  0  0
  142.8097   79.4789  220.8466 H   0  0  0  0  0  0  0  0  0  0  0  0
  141.1534   80.1846  220.5411 H   0  0  0  0  0  0  0  0  0  0  0  0
  142.8929   81.4822  221.9721 H   0  0  0  0  0  0  0  0  0  0  0  0
  141.1301   81.3628  222.4597 H   0  0  0  0  0  0  0  0  0  0  0  0
  143.5536   80.1351  223.6778 H   0  0  0  0  0  0  0  0  0  0  0  0
  142.1333   81.0524  224.4042 H   0  0  0  0  0  0  0  0  0  0  0  0
  142.5194   78.1883  223.9958 H   0  0  0  0  0  0  0  0  0  0  0  0
  141.4402   79.0715  225.1032 H   0  0  0  0  0  0  0  0  0  0  0  0
  140.0628   77.9065  223.3967 H   0  0  0  0  0  0  0  0  0  0  0  0
  139.9514   79.6500  223.0920 H   0  0  0  0  0  0  0  0  0  0  0  0
  138.9113   76.2460  222.5680 H   0  0  0  0  0  0  0  0  0  0  0  0
  138.8508   68.7310  223.9274 H   0  0  0  0  0  0  0  0  0  0  0  0
  140.3012   69.8085  223.5917 H   0  0  0  0  0  0  0  0  0  0  0  0
  138.5907   70.1856  225.9823 H   0  0  0  0  0  0  0  0  0  0  0  0
  141.6390   70.5045  225.4141 H   0  0  0  0  0  0  0  0  0  0  0  0
  140.4852   71.7995  225.0136 H   0  0  0  0  0  0  0  0  0  0  0  0
  141.4164   72.1999  227.2555 H   0  0  0  0  0  0  0  0  0  0  0  0
  139.6923   71.7633  227.4181 H   0  0  0  0  0  0  0  0  0  0  0  0
  142.0826   69.8596  227.6992 H   0  0  0  0  0  0  0  0  0  0  0  0
  141.0669   70.4895  229.0397 H   0  0  0  0  0  0  0  0  0  0  0  0
  140.4128   68.2028  228.3389 H   0  0  0  0  0  0  0  0  0  0  0  0
  139.0993   69.4328  228.0826 H   0  0  0  0  0  0  0  0  0  0  0  0
  140.9605   68.3351  225.9200 H   0  0  0  0  0  0  0  0  0  0  0  0
  139.2630   67.8624  226.1529 H   0  0  0  0  0  0  0  0  0  0  0  0
  1  2  2  0
  2  3  1  0
  3  4  2  0
  4  5  1  0
  5  6  2  0
  6  7  1  0
  7  8  2  0
  8  9  1  0
  9 10  2  0
 10 11  1  0
 11 12  2  0
 12 13  1  0
 13 14  2  0
 14 15  1  0
 15 16  2  0
 16 17  1  0
 17 18  1  0
 18 19  1  0
 19 20  1  0
 20 21  1  0
 21 22  1  0
 22 23  1  0
 16 24  1  0
 24 25  2  0
 10 26  1  0
 26 27  1  0
 27 28  1  0
 28 29  1  0
 29 30  1  0
 30 31  1  0
 31 32  1  0
 32 33  1  0
 26  2  1  0
 33 28  1  0
  8  3  1  0
 25 13  1  0
 23 18  1  0
  4 34  1  0
  5 35  1  0
  6 36  1  0
  7 37  1  0
 11 38  1  0
 12 39  1  0
 14 40  1  0
 15 41  1  0
 17 42  1  0
 17 43  1  0
 19 44  1  0
 19 45  1  0
 20 46  1  0
 20 47  1  0
 21 48  1  0
 21 49  1  0
 22 50  1  0
 22 51  1  0
 23 52  1  0
 23 53  1  0
 24 54  1  0
 27 55  1  0
 27 56  1  0
 28 57  1  0
 29 58  1  0
 29 59  1  0
 30 60  1  0
 30 61  1  0
 31 62  1  0
 31 63  1  0
 32 64  1  0
 32 65  1  0
 33 66  1  0
 33 67  1  0
M  END
>  <smiles>  (1) 
O=c1c2ccccc2nc(/C=C/c2ccc(CN3CCCCC3)cn2)n1CC1CCCCC1

>  <score_type>  (1) 
oracle

>  <origin>  (1) 
autodockgpu

>  <m_score__min__energy>  (1) 
-9.8000000000000007

>  <m_primary>  (1) 
energy

>  <rmsd>  (1) 
6.754020925756316

>  <m_score__min__rmsd>  (1) 
6.754020925756316

>  <meeko>  (1) 
{"free_energy": -8.64, "intermolecular_energy": -10.73, "internal_energy": -1.85, "cluster_size": 3, "cluster_id": 3, "rank_in_cluster": 1}

>  <energy>  (1) 
-9.8

>  <cluster_rmsd>  (1) 
0.0

>  <cluster>  (1) 
1

$$$$

     RDKit          3D

 67 71  0  0  0  0  0  0  0  0999 V2000
  138.8760   68.0410  225.2600 O   0  0  0  0  0  0  0  0  0  0  0  0
  139.4090   69.1640  224.9890 C   0  0  0  0  0  0  0  0  0  0  0  0
  139.9370   69.8640  226.0330 C   0  0  0  0  0  0  0  0  0  0  0  0
  139.9120   69.4080  227.3210 C   0  0  0  0  0  0  0  0  0  0  0  0
  140.4690   70.1730  228.3390 C   0  0  0  0  0  0  0  0  0  0  0  0
  141.0610   71.4100  228.0740 C   0  0  0  0  0  0  0  0  0  0  0  0
  141.0810   71.8620  226.7580 C   0  0  0  0  0  0  0  0  0  0  0  0
  140.5200   71.0870  225.7530 C   0  0  0  0  0  0  0  0  0  0  0  0
  140.5190   71.4850  224.4810 N   0  0  0  0  0  0  0  0  0  0  0  0
  139.9950   70.7840  223.4640 C   0  0  0  0  0  0  0  0  0  0  0  0
  140.0590   71.3160  222.1010 C   0  0  0  0  0  0  0  0  0  0  0  0
  140.9530   72.2430  221.8160 C   0  0  0  0  0  0  0  0  0  0  0  0
  140.6630   73.6680  221.7610 C   0  0  0  0  0  0  0  0  0  0  0  0
  141.4840   74.5900  221.1460 C   0  0  0  0  0  0  0  0  0  0  0  0
  141.1710   75.9480  221.1150 C   0  0  0  0  0  0  0  0  0  0  0  0
  140.0060   76.3720  221.7200 C   0  0  0  0  0  0  0  0  0  0  0  0
  139.7090   77.8250  221.6690 C   0  0  0  0  0  0  0  0  0  0  0  0
  140.8420   78.5550  222.1420 N   0  0  0  0  0  0  0  0  0  0  0  0
  141.4600   79.4340  221.2090 C   0  0  0  0  0  0  0  0  0  0  0  0
  142.1820   80.5900  221.8610 C   0  0  0  0  0  0  0  0  0  0  0  0
  142.8600   80.2450  223.1500 C   0  0  0  0  0  0  0  0  0  0  0  0
  142.1390   79.2490  223.9990 C   0  0  0  0  0  0  0  0  0  0  0  0
  140.7180   79.1230  223.4470 C   0  0  0  0  0  0  0  0  0  0  0  0
  139.1910   75.4470  222.3340 C   0  0  0  0  0  0  0  0  0  0  0  0
  139.5420   74.1490  222.3330 N   0  0  0  0  0  0  0  0  0  0  0  0
  139.4260   69.6040  223.7030 N   0  0  0  0  0  0  0  0  0  0  0  0
  138.8210   68.7770  222.7030 C   0  0  0  0  0  0  0  0  0  0  0  0
  137.3460   68.9680  222.5370 C   0  0  0  0  0  0  0  0  0  0  0  0
  137.1510   69.8350  221.2870 C   0  0  0  0  0  0  0  0  0  0  0  0
  135.6940   69.7540  220.9110 C   0  0  0  0  0  0  0  0  0  0  0  0
  134.8830   70.3810  222.0310 C   0  0  0  0  0  0  0  0  0  0  0  0
  135.1600   69.6510  223.3190 C   0  0  0  0  0  0  0  0  0  0  0  0
  136.6460   69.6360  223.6670 C   0  0  0  0  0  0  0  0  0  0  0  0
  139.4514   68.4361  227.5519 H   0  0  0  0  0  0  0  0  0  0  0  0
  140.4431   69.7973  229.3725 H   0  0  0  0  0  0  0  0  0  0  0  0
  141.4998   72.0110  228.8841 H   0  0  0  0  0  0  0  0  0  0  0  0
  141.5405   72.8315  226.5150 H   0  0  0  0  0  0  0  0  0  0  0  0
  139.3711   70.9476  221.3257 H   0  0  0  0  0  0  0  0  0  0  0  0
  141.9830   71.9184  221.6066 H   0  0  0  0  0  0  0  0  0  0  0  0
  142.4116   74.2440  220.6666 H   0  0  0  0  0  0  0  0  0  0  0  0
  141.8393   76.6668  220.6183 H   0  0  0  0  0  0  0  0  0  0  0  0
  139.4891   78.1190  220.6321 H   0  0  0  0  0  0  0  0  0  0  0  0
  138.8375   78.0456  222.3029 H   0  0  0  0  0  0  0  0  0  0  0  0
  142.1866   78.8587  220.6165 H   0  0  0  0  0  0  0  0  0  0  0  0
  140.6602   79.8606  220.5859 H   0  0  0  0  0  0  0  0  0  0  0  0
  142.9440   80.9600  221.1593 H   0  0  0  0  0  0  0  0  0  0  0  0
  141.4178   81.3444  222.0993 H   0  0  0  0  0  0  0  0  0  0  0  0
  143.8532   79.8356  222.9136 H   0  0  0  0  0  0  0  0  0  0  0  0
  142.8975   81.1758  223.7349 H   0  0  0  0  0  0  0  0  0  0  0  0
  142.6487   78.2754  223.9517 H   0  0  0  0  0  0  0  0  0  0  0  0
  142.1207   79.5743  225.0496 H   0  0  0  0  0  0  0  0  0  0  0  0
  140.1159   78.4664  224.0922 H   0  0  0  0  0  0  0  0  0  0  0  0
  140.2158   80.1010  223.4106 H   0  0  0  0  0  0  0  0  0  0  0  0
  138.2589   75.7680  222.8221 H   0  0  0  0  0  0  0  0  0  0  0  0
  139.3047   68.9960  221.7397 H   0  0  0  0  0  0  0  0  0  0  0  0
  138.9627   67.7377  223.0343 H   0  0  0  0  0  0  0  0  0  0  0  0
  136.9058   67.9619  222.4741 H   0  0  0  0  0  0  0  0  0  0  0  0
  137.4266   70.8774  221.5047 H   0  0  0  0  0  0  0  0  0  0  0  0
  137.7872   69.4802  220.4627 H   0  0  0  0  0  0  0  0  0  0  0  0
  135.5199   70.3014  219.9729 H   0  0  0  0  0  0  0  0  0  0  0  0
  135.3955   68.7054  220.7649 H   0  0  0  0  0  0  0  0  0  0  0  0
  135.1651   71.4385  222.1406 H   0  0  0  0  0  0  0  0  0  0  0  0
  133.8115   70.3109  221.7922 H   0  0  0  0  0  0  0  0  0  0  0  0
  134.6110   70.1477  224.1325 H   0  0  0  0  0  0  0  0  0  0  0  0
  134.8330   68.6084  223.1925 H   0  0  0  0  0  0  0  0  0  0  0  0
  137.0171   70.6645  223.7873 H   0  0  0  0  0  0  0  0  0  0  0  0
  136.8244   69.1024  224.6122 H   0  0  0  0  0  0  0  0  0  0  0  0
  1  2  2  0
  2  3  1  0
  3  4  2  0
  4  5  1  0
  5  6  2  0
  6  7  1  0
  7  8  2  0
  8  9  1  0
  9 10  2  0
 10 11  1  0
 11 12  2  0
 12 13  1  0
 13 14  2  0
 14 15  1  0
 15 16  2  0
 16 17  1  0
 17 18  1  0
 18 19  1  0
 19 20  1  0
 20 21  1  0
 21 22  1  0
 22 23  1  0
 16 24  1  0
 24 25  2  0
 10 26  1  0
 26 27  1  0
 27 28  1  0
 28 29  1  0
 29 30  1  0
 30 31  1  0
 31 32  1  0
 32 33  1  0
 26  2  1  0
 33 28  1  0
  8  3  1  0
 25 13  1  0
 23 18  1  0
  4 34  1  0
  5 35  1  0
  6 36  1  0
  7 37  1  0
 11 38  1  0
 12 39  1  0
 14 40  1  0
 15 41  1  0
 17 42  1  0
 17 43  1  0
 19 44  1  0
 19 45  1  0
 20 46  1  0
 20 47  1  0
 21 48  1  0
 21 49  1  0
 22 50  1  0
 22 51  1  0
 23 52  1  0
 23 53  1  0
 24 54  1  0
 27 55  1  0
 27 56  1  0
 28 57  1  0
 29 58  1  0
 29 59  1  0
 30 60  1  0
 30 61  1  0
 31 62  1  0
 31 63  1  0
 32 64  1  0
 32 65  1  0
 33 66  1  0
 33 67  1  0
M  END
>  <smiles>  (2) 
O=c1c2ccccc2nc(/C=C/c2ccc(CN3CCCCC3)cn2)n1CC1CCCCC1

>  <score_type>  (2) 
oracle

>  <origin>  (2) 
autodockgpu

>  <m_score__min__energy>  (2) 
-9.8000000000000007

>  <m_primary>  (2) 
energy

>  <rmsd>  (2) 
6.680415792469306

>  <m_score__min__rmsd>  (2) 
6.680415792469306

>  <meeko>  (2) 
{"free_energy": -9.48, "intermolecular_energy": -11.57, "internal_energy": -1.73, "cluster_size": 36, "cluster_id": 1, "rank_in_cluster": 13}

>  <energy>  (2) 
-9.79

>  <cluster_rmsd>  (2) 
0.4

>  <cluster>  (2) 
1

$$$$

     RDKit          3D

 67 71  0  0  0  0  0  0  0  0999 V2000
  139.1930   67.7680  225.3780 O   0  0  0  0  0  0  0  0  0  0  0  0
  139.5110   68.9630  225.0810 C   0  0  0  0  0  0  0  0  0  0  0  0
  140.0360   69.7270  226.0800 C   0  0  0  0  0  0  0  0  0  0  0  0
  140.2240   69.2610  227.3510 C   0  0  0  0  0  0  0  0  0  0  0  0
  140.7640   70.0950  228.3230 C   0  0  0  0  0  0  0  0  0  0  0  0
  141.1230   71.4120  228.0300 C   0  0  0  0  0  0  0  0  0  0  0  0
  140.9260   71.8740  226.7310 C   0  0  0  0  0  0  0  0  0  0  0  0
  140.3860   71.0300  225.7720 C   0  0  0  0  0  0  0  0  0  0  0  0
  140.1820   71.4350  224.5190 N   0  0  0  0  0  0  0  0  0  0  0  0
  139.6650   70.6700  223.5460 C   0  0  0  0  0  0  0  0  0  0  0  0
  139.4940   71.2190  222.1990 C   0  0  0  0  0  0  0  0  0  0  0  0
  140.3100   72.1690  221.7850 C   0  0  0  0  0  0  0  0  0  0  0  0
  140.0230   73.5920  221.8830 C   0  0  0  0  0  0  0  0  0  0  0  0
  138.7470   74.1100  221.9520 C   0  0  0  0  0  0  0  0  0  0  0  0
  138.5140   75.4810  222.0440 C   0  0  0  0  0  0  0  0  0  0  0  0
  139.5960   76.3360  222.0650 C   0  0  0  0  0  0  0  0  0  0  0  0
  139.3090   77.7880  222.1610 C   0  0  0  0  0  0  0  0  0  0  0  0
  140.5300   78.4980  222.3780 N   0  0  0  0  0  0  0  0  0  0  0  0
  141.1380   79.0740  221.2280 C   0  0  0  0  0  0  0  0  0  0  0  0
  141.9980   80.2760  221.5430 C   0  0  0  0  0  0  0  0  0  0  0  0
  142.7470   80.1760  222.8340 C   0  0  0  0  0  0  0  0  0  0  0  0
  142.0210   79.4770  223.9370 C   0  0  0  0  0  0  0  0  0  0  0  0
  140.5550   79.3620  223.5160 C   0  0  0  0  0  0  0  0  0  0  0  0
  140.8690   75.8130  221.9950 C   0  0  0  0  0  0  0  0  0  0  0  0
  141.0350   74.4810  221.9080 N   0  0  0  0  0  0  0  0  0  0  0  0
  139.3170   69.4130  223.8120 N   0  0  0  0  0  0  0  0  0  0  0  0
  138.7420   68.5100  222.8610 C   0  0  0  0  0  0  0  0  0  0  0  0
  137.3010   68.7610  222.5470 C   0  0  0  0  0  0  0  0  0  0  0  0
  136.6360   69.2130  223.8540 C   0  0  0  0  0  0  0  0  0  0  0  0
  135.2920   69.7910  223.4950 C   0  0  0  0  0  0  0  0  0  0  0  0
  134.4400   68.6770  222.9130 C   0  0  0  0  0  0  0  0  0  0  0  0
  135.1300   68.0970  221.7060 C   0  0  0  0  0  0  0  0  0  0  0  0
  136.5350   67.5950  222.0290 C   0  0  0  0  0  0  0  0  0  0  0  0
  139.9482   68.2268  227.6045 H   0  0  0  0  0  0  0  0  0  0  0  0
  140.9114   69.7099  229.3428 H   0  0  0  0  0  0  0  0  0  0  0  0
  141.5498   72.0668  228.8040 H   0  0  0  0  0  0  0  0  0  0  0  0
  141.1982   72.9064  226.4661 H   0  0  0  0  0  0  0  0  0  0  0  0
  138.6958   70.8441  221.5415 H   0  0  0  0  0  0  0  0  0  0  0  0
  141.2681   71.8663  221.3373 H   0  0  0  0  0  0  0  0  0  0  0  0
  137.8890   73.4219  221.9339 H   0  0  0  0  0  0  0  0  0  0  0  0
  137.4878   75.8733  222.0988 H   0  0  0  0  0  0  0  0  0  0  0  0
  138.8446   78.1333  221.2255 H   0  0  0  0  0  0  0  0  0  0  0  0
  138.6215   77.9728  222.9996 H   0  0  0  0  0  0  0  0  0  0  0  0
  141.7678   78.3109  220.7473 H   0  0  0  0  0  0  0  0  0  0  0  0
  140.3269   79.4183  220.5696 H   0  0  0  0  0  0  0  0  0  0  0  0
  142.7283   80.3997  220.7298 H   0  0  0  0  0  0  0  0  0  0  0  0
  141.3166   81.1340  221.6399 H   0  0  0  0  0  0  0  0  0  0  0  0
  143.6830   79.6306  222.6432 H   0  0  0  0  0  0  0  0  0  0  0  0
  142.9033   81.2092  223.1776 H   0  0  0  0  0  0  0  0  0  0  0  0
  142.4476   78.4751  224.0926 H   0  0  0  0  0  0  0  0  0  0  0  0
  142.1126   80.0370  224.8794 H   0  0  0  0  0  0  0  0  0  0  0  0
  139.9568   78.9326  224.3332 H   0  0  0  0  0  0  0  0  0  0  0  0
  140.1293   80.3480  223.2782 H   0  0  0  0  0  0  0  0  0  0  0  0
  141.7434   76.4802  222.0101 H   0  0  0  0  0  0  0  0  0  0  0  0
  139.3146   68.5889  221.9251 H   0  0  0  0  0  0  0  0  0  0  0  0
  138.7893   67.5100  223.3168 H   0  0  0  0  0  0  0  0  0  0  0  0
  137.2838   69.5058  221.7377 H   0  0  0  0  0  0  0  0  0  0  0  0
  136.5083   68.3535  224.5285 H   0  0  0  0  0  0  0  0  0  0  0  0
  137.2570   69.9607  224.3691 H   0  0  0  0  0  0  0  0  0  0  0  0
  134.8088   70.1985  224.3953 H   0  0  0  0  0  0  0  0  0  0  0  0
  135.4097   70.6033  222.7626 H   0  0  0  0  0  0  0  0  0  0  0  0
  134.2991   67.8900  223.6685 H   0  0  0  0  0  0  0  0  0  0  0  0
  133.4603   69.0803  222.6173 H   0  0  0  0  0  0  0  0  0  0  0  0
  134.5319   67.2554  221.3267 H   0  0  0  0  0  0  0  0  0  0  0  0
  135.2216   68.8948  220.9543 H   0  0  0  0  0  0  0  0  0  0  0  0
  136.4882   66.8039  222.7918 H   0  0  0  0  0  0  0  0  0  0  0  0
  137.0175   67.1718  221.1356 H   0  0  0  0  0  0  0  0  0  0  0  0
  1  2  2  0
  2  3  1  0
  3  4  2  0
  4  5  1  0
  5  6  2  0
  6  7  1  0
  7  8  2  0
  8  9  1  0
  9 10  2  0
 10 11  1  0
 11 12  2  0
 12 13  1  0
 13 14  2  0
 14 15  1  0
 15 16  2  0
 16 17  1  0
 17 18  1  0
 18 19  1  0
 19 20  1  0
 20 21  1  0
 21 22  1  0
 22 23  1  0
 16 24  1  0
 24 25  2  0
 10 26  1  0
 26 27  1  0
 27 28  1  0
 28 29  1  0
 29 30  1  0
 30 31  1  0
 31 32  1  0
 32 33  1  0
 26  2  1  0
 33 28  1  0
  8  3  1  0
 25 13  1  0
 23 18  1  0
  4 34  1  0
  5 35  1  0
  6 36  1  0
  7 37  1  0
 11 38  1  0
 12 39  1  0
 14 40  1  0
 15 41  1  0
 17 42  1  0
 17 43  1  0
 19 44  1  0
 19 45  1  0
 20 46  1  0
 20 47  1  0
 21 48  1  0
 21 49  1  0
 22 50  1  0
 22 51  1  0
 23 52  1  0
 23 53  1  0
 24 54  1  0
 27 55  1  0
 27 56  1  0
 28 57  1  0
 29 58  1  0
 29 59  1  0
 30 60  1  0
 30 61  1  0
 31 62  1  0
 31 63  1  0
 32 64  1  0
 32 65  1  0
 33 66  1  0
 33 67  1  0
M  END
>  <smiles>  (3) 
O=c1c2ccccc2nc(/C=C/c2ccc(CN3CCCCC3)cn2)n1CC1CCCCC1

>  <score_type>  (3) 
oracle

>  <origin>  (3) 
autodockgpu

>  <m_score__min__energy>  (3) 
-9.8000000000000007

>  <m_primary>  (3) 
energy

>  <rmsd>  (3) 
6.868819887822942

>  <m_score__min__rmsd>  (3) 
6.868819887822942

>  <meeko>  (3) 
{"free_energy": -9.61, "intermolecular_energy": -11.7, "internal_energy": -1.64, "cluster_size": 36, "cluster_id": 1, "rank_in_cluster": 9}

>  <energy>  (3) 
-9.68

>  <cluster_rmsd>  (3) 
0.6

>  <cluster>  (3) 
1

$$$$

     RDKit          3D

 67 71  0  0  0  0  0  0  0  0999 V2000
  139.2440   67.7210  225.1080 O   0  0  0  0  0  0  0  0  0  0  0  0
  139.5800   68.9450  225.0220 C   0  0  0  0  0  0  0  0  0  0  0  0
  140.1280   69.5130  226.1330 C   0  0  0  0  0  0  0  0  0  0  0  0
  140.3220   68.8270  227.3000 C   0  0  0  0  0  0  0  0  0  0  0  0
  140.8860   69.4680  228.3960 C   0  0  0  0  0  0  0  0  0  0  0  0
  141.2660   70.8110  228.3340 C   0  0  0  0  0  0  0  0  0  0  0  0
  141.0630   71.4980  227.1400 C   0  0  0  0  0  0  0  0  0  0  0  0
  140.4980   70.8440  226.0550 C   0  0  0  0  0  0  0  0  0  0  0  0
  140.2890   71.4660  224.8950 N   0  0  0  0  0  0  0  0  0  0  0  0
  139.7480   70.8930  223.8100 C   0  0  0  0  0  0  0  0  0  0  0  0
  139.5730   71.6730  222.5820 C   0  0  0  0  0  0  0  0  0  0  0  0
  140.5930   72.3640  222.1110 C   0  0  0  0  0  0  0  0  0  0  0  0
  140.5490   73.7890  221.8180 C   0  0  0  0  0  0  0  0  0  0  0  0
  141.5580   74.4640  221.1640 C   0  0  0  0  0  0  0  0  0  0  0  0
  141.4780   75.8300  220.9020 C   0  0  0  0  0  0  0  0  0  0  0  0
  140.3550   76.5180  221.3130 C   0  0  0  0  0  0  0  0  0  0  0  0
  140.3080   77.9720  221.0190 C   0  0  0  0  0  0  0  0  0  0  0  0
  141.1610   78.6660  221.9320 N   0  0  0  0  0  0  0  0  0  0  0  0
  141.8530   79.7950  221.4130 C   0  0  0  0  0  0  0  0  0  0  0  0
  142.2040   80.8200  222.4670 C   0  0  0  0  0  0  0  0  0  0  0  0
  142.5790   80.2370  223.7920 C   0  0  0  0  0  0  0  0  0  0  0  0
  141.8270   79.0050  224.1790 C   0  0  0  0  0  0  0  0  0  0  0  0
  140.6270   78.8880  223.2380 C   0  0  0  0  0  0  0  0  0  0  0  0
  139.3510   75.8390  221.9670 C   0  0  0  0  0  0  0  0  0  0  0  0
  139.4810   74.5190  222.1930 N   0  0  0  0  0  0  0  0  0  0  0  0
  139.3810   69.6140  223.8550 N   0  0  0  0  0  0  0  0  0  0  0  0
  138.7800   68.9020  222.7680 C   0  0  0  0  0  0  0  0  0  0  0  0
  137.2990   69.0740  222.6460 C   0  0  0  0  0  0  0  0  0  0  0  0
  136.7970   69.5630  224.0100 C   0  0  0  0  0  0  0  0  0  0  0  0
  135.3890   70.0630  223.8150 C   0  0  0  0  0  0  0  0  0  0  0  0
  134.5220   68.8840  223.4080 C   0  0  0  0  0  0  0  0  0  0  0  0
  135.0700   68.2730  222.1450 C   0  0  0  0  0  0  0  0  0  0  0  0
  136.5290   67.8500  222.2910 C   0  0  0  0  0  0  0  0  0  0  0  0
  140.0317   67.7684  227.3709 H   0  0  0  0  0  0  0  0  0  0  0  0
  141.0362   68.9074  229.3304 H   0  0  0  0  0  0  0  0  0  0  0  0
  141.7135   71.3122  229.2050 H   0  0  0  0  0  0  0  0  0  0  0  0
  141.3500   72.5567  227.0574 H   0  0  0  0  0  0  0  0  0  0  0  0
  138.6046   71.6822  222.0603 H   0  0  0  0  0  0  0  0  0  0  0  0
  141.5368   71.8294  221.9280 H   0  0  0  0  0  0  0  0  0  0  0  0
  142.4506   73.9087  220.8403 H   0  0  0  0  0  0  0  0  0  0  0  0
  142.2938   76.3495  220.3780 H   0  0  0  0  0  0  0  0  0  0  0  0
  140.6501   78.1499  219.9888 H   0  0  0  0  0  0  0  0  0  0  0  0
  139.2761   78.3371  221.1284 H   0  0  0  0  0  0  0  0  0  0  0  0
  142.7838   79.4470  220.9413 H   0  0  0  0  0  0  0  0  0  0  0  0
  141.1808   80.2857  220.6937 H   0  0  0  0  0  0  0  0  0  0  0  0
  143.0532   81.4149  222.0997 H   0  0  0  0  0  0  0  0  0  0  0  0
  141.2993   81.4233  222.6331 H   0  0  0  0  0  0  0  0  0  0  0  0
  143.6500   79.9875  223.7636 H   0  0  0  0  0  0  0  0  0  0  0  0
  142.3261   80.9988  224.5441 H   0  0  0  0  0  0  0  0  0  0  0  0
  142.4739   78.1214  224.0753 H   0  0  0  0  0  0  0  0  0  0  0  0
  141.4954   79.0648  225.2261 H   0  0  0  0  0  0  0  0  0  0  0  0
  139.9894   78.0431  223.5373 H   0  0  0  0  0  0  0  0  0  0  0  0
  140.0066   79.7959  223.2669 H   0  0  0  0  0  0  0  0  0  0  0  0
  138.4491   76.3721  222.3022 H   0  0  0  0  0  0  0  0  0  0  0  0
  139.2429   69.2510  221.8332 H   0  0  0  0  0  0  0  0  0  0  0  0
  138.9517   67.8337  222.9659 H   0  0  0  0  0  0  0  0  0  0  0  0
  137.1339   69.7753  221.8148 H   0  0  0  0  0  0  0  0  0  0  0  0
  136.8057   68.7346  224.7336 H   0  0  0  0  0  0  0  0  0  0  0  0
  137.4442   70.3624  224.3999 H   0  0  0  0  0  0  0  0  0  0  0  0
  135.0134   70.4954  224.7541 H   0  0  0  0  0  0  0  0  0  0  0  0
  135.3648   70.8404  223.0372 H   0  0  0  0  0  0  0  0  0  0  0  0
  134.5247   68.1320  224.2108 H   0  0  0  0  0  0  0  0  0  0  0  0
  133.4920   69.2282  223.2330 H   0  0  0  0  0  0  0  0  0  0  0  0
  134.4689   67.3875  221.8908 H   0  0  0  0  0  0  0  0  0  0  0  0
  135.0185   69.0348  221.3532 H   0  0  0  0  0  0  0  0  0  0  0  0
  136.6270   67.0970  223.0868 H   0  0  0  0  0  0  0  0  0  0  0  0
  136.9055   67.4037  221.3587 H   0  0  0  0  0  0  0  0  0  0  0  0
  1  2  2  0
  2  3  1  0
  3  4  2  0
  4  5  1  0
  5  6  2  0
  6  7  1  0
  7  8  2  0
  8  9  1  0
  9 10  2  0
 10 11  1  0
 11 12  2  0
 12 13  1  0
 13 14  2  0
 14 15  1  0
 15 16  2  0
 16 17  1  0
 17 18  1  0
 18 19  1  0
 19 20  1  0
 20 21  1  0
 21 22  1  0
 22 23  1  0
 16 24  1  0
 24 25  2  0
 10 26  1  0
 26 27  1  0
 27 28  1  0
 28 29  1  0
 29 30  1  0
 30 31  1  0
 31 32  1  0
 32 33  1  0
 26  2  1  0
 33 28  1  0
  8  3  1  0
 25 13  1  0
 23 18  1  0
  4 34  1  0
  5 35  1  0
  6 36  1  0
  7 37  1  0
 11 38  1  0
 12 39  1  0
 14 40  1  0
 15 41  1  0
 17 42  1  0
 17 43  1  0
 19 44  1  0
 19 45  1  0
 20 46  1  0
 20 47  1  0
 21 48  1  0
 21 49  1  0
 22 50  1  0
 22 51  1  0
 23 52  1  0
 23 53  1  0
 24 54  1  0
 27 55  1  0
 27 56  1  0
 28 57  1  0
 29 58  1  0
 29 59  1  0
 30 60  1  0
 30 61  1  0
 31 62  1  0
 31 63  1  0
 32 64  1  0
 32 65  1  0
 33 66  1  0
 33 67  1  0
M  END
>  <smiles>  (4) 
O=c1c2ccccc2nc(/C=C/c2ccc(CN3CCCCC3)cn2)n1CC1CCCCC1

>  <score_type>  (4) 
oracle

>  <origin>  (4) 
autodockgpu

>  <m_score__min__energy>  (4) 
-9.8000000000000007

>  <m_primary>  (4) 
energy

>  <rmsd>  (4) 
6.735998891620622

>  <m_score__min__rmsd>  (4) 
6.735998891620622

>  <meeko>  (4) 
{"free_energy": -9.8, "intermolecular_energy": -11.89, "internal_energy": -1.5, "cluster_size": 36, "cluster_id": 1, "rank_in_cluster": 1}

>  <energy>  (4) 
-9.67

>  <cluster_rmsd>  (4) 
0.49

>  <cluster>  (4) 
1

$$$$

     RDKit          3D

 67 71  0  0  0  0  0  0  0  0999 V2000
  138.8250   68.1060  225.3370 O   0  0  0  0  0  0  0  0  0  0  0  0
  139.3720   69.2110  225.0290 C   0  0  0  0  0  0  0  0  0  0  0  0
  139.9110   69.9380  226.0490 C   0  0  0  0  0  0  0  0  0  0  0  0
  139.8810   69.5260  227.3520 C   0  0  0  0  0  0  0  0  0  0  0  0
  140.4480   70.3170  228.3430 C   0  0  0  0  0  0  0  0  0  0  0  0
  141.0570   71.5360  228.0370 C   0  0  0  0  0  0  0  0  0  0  0  0
  141.0810   71.9450  226.7070 C   0  0  0  0  0  0  0  0  0  0  0  0
  140.5090   71.1440  225.7290 C   0  0  0  0  0  0  0  0  0  0  0  0
  140.5120   71.5000  224.4440 N   0  0  0  0  0  0  0  0  0  0  0  0
  139.9780   70.7730  223.4510 C   0  0  0  0  0  0  0  0  0  0  0  0
  140.0470   71.2590  222.0710 C   0  0  0  0  0  0  0  0  0  0  0  0
  140.9370   72.1820  221.7610 C   0  0  0  0  0  0  0  0  0  0  0  0
  140.6460   73.6060  221.6900 C   0  0  0  0  0  0  0  0  0  0  0  0
  141.4140   74.5070  220.9840 C   0  0  0  0  0  0  0  0  0  0  0  0
  141.1030   75.8650  220.9400 C   0  0  0  0  0  0  0  0  0  0  0  0
  139.9930   76.3100  221.6280 C   0  0  0  0  0  0  0  0  0  0  0  0
  139.6940   77.7620  221.5610 C   0  0  0  0  0  0  0  0  0  0  0  0
  140.7500   78.4900  222.1920 N   0  0  0  0  0  0  0  0  0  0  0  0
  141.5000   79.3640  221.3560 C   0  0  0  0  0  0  0  0  0  0  0  0
  142.1250   80.5200  222.1030 C   0  0  0  0  0  0  0  0  0  0  0  0
  142.6070   80.1760  223.4770 C   0  0  0  0  0  0  0  0  0  0  0  0
  141.7660   79.1850  224.2150 C   0  0  0  0  0  0  0  0  0  0  0  0
  140.4400   79.0620  223.4640 C   0  0  0  0  0  0  0  0  0  0  0  0
  139.2290   75.4060  222.3320 C   0  0  0  0  0  0  0  0  0  0  0  0
  139.5770   74.1070  222.3380 N   0  0  0  0  0  0  0  0  0  0  0  0
  139.3940   69.6090  223.7290 N   0  0  0  0  0  0  0  0  0  0  0  0
  138.7770   68.7570  222.7570 C   0  0  0  0  0  0  0  0  0  0  0  0
  137.3610   69.1070  222.4220 C   0  0  0  0  0  0  0  0  0  0  0  0
  136.8510   70.0110  223.5500 C   0  0  0  0  0  0  0  0  0  0  0  0
  135.5700   70.6430  223.0720 C   0  0  0  0  0  0  0  0  0  0  0  0
  134.5450   69.5400  222.8750 C   0  0  0  0  0  0  0  0  0  0  0  0
  135.0720   68.5400  221.8790 C   0  0  0  0  0  0  0  0  0  0  0  0
  136.4200   67.9610  222.2980 C   0  0  0  0  0  0  0  0  0  0  0  0
  139.4081   68.5685  227.6156 H   0  0  0  0  0  0  0  0  0  0  0  0
  140.4168   69.9769  229.3886 H   0  0  0  0  0  0  0  0  0  0  0  0
  141.5059   72.1566  228.8265 H   0  0  0  0  0  0  0  0  0  0  0  0
  141.5519   72.9003  226.4319 H   0  0  0  0  0  0  0  0  0  0  0  0
  139.3666   70.8601  221.3043 H   0  0  0  0  0  0  0  0  0  0  0  0
  141.9641   71.8545  221.5423 H   0  0  0  0  0  0  0  0  0  0  0  0
  142.2980   74.1437  220.4395 H   0  0  0  0  0  0  0  0  0  0  0  0
  141.7289   76.5667  220.3692 H   0  0  0  0  0  0  0  0  0  0  0  0
  139.6111   78.0722  220.5089 H   0  0  0  0  0  0  0  0  0  0  0  0
  138.7445   77.9675  222.0769 H   0  0  0  0  0  0  0  0  0  0  0  0
  142.3024   78.7843  220.8763 H   0  0  0  0  0  0  0  0  0  0  0  0
  140.8004   79.7916  220.6227 H   0  0  0  0  0  0  0  0  0  0  0  0
  142.9824   80.8848  221.5183 H   0  0  0  0  0  0  0  0  0  0  0  0
  141.3378   81.2785  222.2258 H   0  0  0  0  0  0  0  0  0  0  0  0
  143.6222   79.7620  223.3881 H   0  0  0  0  0  0  0  0  0  0  0  0
  142.5631   81.1083  224.0591 H   0  0  0  0  0  0  0  0  0  0  0  0
  142.2733   78.2094  224.2446 H   0  0  0  0  0  0  0  0  0  0  0  0
  141.5968   79.5140  225.2509 H   0  0  0  0  0  0  0  0  0  0  0  0
  139.7486   78.4090  224.0168 H   0  0  0  0  0  0  0  0  0  0  0  0
  139.9515   80.0413  223.3532 H   0  0  0  0  0  0  0  0  0  0  0  0
  138.3405   75.7440  222.8854 H   0  0  0  0  0  0  0  0  0  0  0  0
  139.3699   68.8083  221.8319 H   0  0  0  0  0  0  0  0  0  0  0  0
  138.7498   67.7509  223.2009 H   0  0  0  0  0  0  0  0  0  0  0  0
  137.3825   69.5770  221.4277 H   0  0  0  0  0  0  0  0  0  0  0  0
  136.6618   69.4142  224.4545 H   0  0  0  0  0  0  0  0  0  0  0  0
  137.5960   70.7809  223.7995 H   0  0  0  0  0  0  0  0  0  0  0  0
  135.2059   71.3608  223.8218 H   0  0  0  0  0  0  0  0  0  0  0  0
  135.7392   71.1795  222.1267 H   0  0  0  0  0  0  0  0  0  0  0  0
  134.3572   69.0376  223.8354 H   0  0  0  0  0  0  0  0  0  0  0  0
  133.6063   69.9733  222.4994 H   0  0  0  0  0  0  0  0  0  0  0  0
  134.3473   67.7177  221.7860 H   0  0  0  0  0  0  0  0  0  0  0  0
  135.2129   69.0615  220.9208 H   0  0  0  0  0  0  0  0  0  0  0  0
  136.3256   67.4425  223.2635 H   0  0  0  0  0  0  0  0  0  0  0  0
  136.7826   67.2311  221.5593 H   0  0  0  0  0  0  0  0  0  0  0  0
  1  2  2  0
  2  3  1  0
  3  4  2  0
  4  5  1  0
  5  6  2  0
  6  7  1  0
  7  8  2  0
  8  9  1  0
  9 10  2  0
 10 11  1  0
 11 12  2  0
 12 13  1  0
 13 14  2  0
 14 15  1  0
 15 16  2  0
 16 17  1  0
 17 18  1  0
 18 19  1  0
 19 20  1  0
 20 21  1  0
 21 22  1  0
 22 23  1  0
 16 24  1  0
 24 25  2  0
 10 26  1  0
 26 27  1  0
 27 28  1  0
 28 29  1  0
 29 30  1  0
 30 31  1  0
 31 32  1  0
 32 33  1  0
 26  2  1  0
 33 28  1  0
  8  3  1  0
 25 13  1  0
 23 18  1  0
  4 34  1  0
  5 35  1  0
  6 36  1  0
  7 37  1  0
 11 38  1  0
 12 39  1  0
 14 40  1  0
 15 41  1  0
 17 42  1  0
 17 43  1  0
 19 44  1  0
 19 45  1  0
 20 46  1  0
 20 47  1  0
 21 48  1  0
 21 49  1  0
 22 50  1  0
 22 51  1  0
 23 52  1  0
 23 53  1  0
 24 54  1  0
 27 55  1  0
 27 56  1  0
 28 57  1  0
 29 58  1  0
 29 59  1  0
 30 60  1  0
 30 61  1  0
 31 62  1  0
 31 63  1  0
 32 64  1  0
 32 65  1  0
 33 66  1  0
 33 67  1  0
M  END
>  <smiles>  (5) 
O=c1c2ccccc2nc(/C=C/c2ccc(CN3CCCCC3)cn2)n1CC1CCCCC1

>  <score_type>  (5) 
oracle

>  <origin>  (5) 
autodockgpu

>  <m_score__min__energy>  (5) 
-9.8000000000000007

>  <m_primary>  (5) 
energy

>  <rmsd>  (5) 
6.726013112054358

>  <m_score__min__rmsd>  (5) 
6.726013112054358

>  <meeko>  (5) 
{"free_energy": -9.64, "intermolecular_energy": -11.73, "internal_energy": -1.65, "cluster_size": 36, "cluster_id": 1, "rank_in_cluster": 6}

>  <energy>  (5) 
-9.65

>  <cluster_rmsd>  (5) 
0.58

>  <cluster>  (5) 
1

$$$$

     RDKit          3D

 67 71  0  0  0  0  0  0  0  0999 V2000
  139.2440   67.7310  225.3770 O   0  0  0  0  0  0  0  0  0  0  0  0
  139.5310   68.9450  225.1320 C   0  0  0  0  0  0  0  0  0  0  0  0
  140.1020   69.6590  226.1430 C   0  0  0  0  0  0  0  0  0  0  0  0
  140.3680   69.1240  227.3720 C   0  0  0  0  0  0  0  0  0  0  0  0
  140.9510   69.9090  228.3590 C   0  0  0  0  0  0  0  0  0  0  0  0
  141.2780   71.2460  228.1230 C   0  0  0  0  0  0  0  0  0  0  0  0
  141.0030   71.7790  226.8670 C   0  0  0  0  0  0  0  0  0  0  0  0
  140.4190   70.9820  225.8920 C   0  0  0  0  0  0  0  0  0  0  0  0
  140.1400   71.4550  224.6770 N   0  0  0  0  0  0  0  0  0  0  0  0
  139.5770   70.7400  223.6920 C   0  0  0  0  0  0  0  0  0  0  0  0
  139.3240   71.3610  222.3910 C   0  0  0  0  0  0  0  0  0  0  0  0
  138.7110   72.5280  222.3470 C   0  0  0  0  0  0  0  0  0  0  0  0
  139.3770   73.7910  222.0600 C   0  0  0  0  0  0  0  0  0  0  0  0
  138.7160   74.9980  221.9710 C   0  0  0  0  0  0  0  0  0  0  0  0
  139.3900   76.1860  221.6940 C   0  0  0  0  0  0  0  0  0  0  0  0
  140.7560   76.1430  221.5050 C   0  0  0  0  0  0  0  0  0  0  0  0
  141.4380   77.4270  221.2090 C   0  0  0  0  0  0  0  0  0  0  0  0
  141.0020   78.4190  222.1410 N   0  0  0  0  0  0  0  0  0  0  0  0
  141.8490   78.6480  223.2610 C   0  0  0  0  0  0  0  0  0  0  0  0
  141.7200   80.0400  223.8350 C   0  0  0  0  0  0  0  0  0  0  0  0
  140.3310   80.5940  223.8020 C   0  0  0  0  0  0  0  0  0  0  0  0
  139.5230   80.2090  222.6060 C   0  0  0  0  0  0  0  0  0  0  0  0
  140.4870   79.6250  221.5730 C   0  0  0  0  0  0  0  0  0  0  0  0
  141.4110   74.9340  221.5950 C   0  0  0  0  0  0  0  0  0  0  0  0
  140.7090   73.8180  221.8650 N   0  0  0  0  0  0  0  0  0  0  0  0
  139.2600   69.4640  223.9050 N   0  0  0  0  0  0  0  0  0  0  0  0
  138.6420   68.6090  222.9370 C   0  0  0  0  0  0  0  0  0  0  0  0
  137.1510   68.5310  223.0260 C   0  0  0  0  0  0  0  0  0  0  0  0
  136.6000   69.0730  221.7020 C   0  0  0  0  0  0  0  0  0  0  0  0
  135.1440   68.6920  221.6340 C   0  0  0  0  0  0  0  0  0  0  0  0
  134.4160   69.4100  222.7560 C   0  0  0  0  0  0  0  0  0  0  0  0
  135.0270   69.0220  224.0780 C   0  0  0  0  0  0  0  0  0  0  0  0
  136.5240   69.3090  224.1300 C   0  0  0  0  0  0  0  0  0  0  0  0
  140.1207   68.0725  227.5797 H   0  0  0  0  0  0  0  0  0  0  0  0
  141.1590   69.4689  229.3454 H   0  0  0  0  0  0  0  0  0  0  0  0
  141.7405   71.8614  228.9087 H   0  0  0  0  0  0  0  0  0  0  0  0
  141.2477   72.8288  226.6476 H   0  0  0  0  0  0  0  0  0  0  0  0
  139.6405   70.8617  221.4634 H   0  0  0  0  0  0  0  0  0  0  0  0
  137.6281   72.5487  222.5392 H   0  0  0  0  0  0  0  0  0  0  0  0
  137.6268   75.0238  222.1228 H   0  0  0  0  0  0  0  0  0  0  0  0
  138.8440   77.1386  221.6274 H   0  0  0  0  0  0  0  0  0  0  0  0
  142.5264   77.2937  221.2965 H   0  0  0  0  0  0  0  0  0  0  0  0
  141.1912   77.7483  220.1863 H   0  0  0  0  0  0  0  0  0  0  0  0
  141.5929   77.9216  224.0464 H   0  0  0  0  0  0  0  0  0  0  0  0
  142.8863   78.5346  222.9128 H   0  0  0  0  0  0  0  0  0  0  0  0
  142.0552   80.0130  224.8824 H   0  0  0  0  0  0  0  0  0  0  0  0
  142.3364   80.6984  223.2053 H   0  0  0  0  0  0  0  0  0  0  0  0
  139.8017   80.2402  224.6990 H   0  0  0  0  0  0  0  0  0  0  0  0
  140.4386   81.6879  223.7595 H   0  0  0  0  0  0  0  0  0  0  0  0
  138.7711   79.4567  222.8863 H   0  0  0  0  0  0  0  0  0  0  0  0
  138.9956   81.0827  222.1954 H   0  0  0  0  0  0  0  0  0  0  0  0
  139.9544   79.4072  220.6355 H   0  0  0  0  0  0  0  0  0  0  0  0
  141.2955   80.3323  221.3363 H   0  0  0  0  0  0  0  0  0  0  0  0
  142.4998   74.8814  221.4472 H   0  0  0  0  0  0  0  0  0  0  0  0
  138.9055   68.9801  221.9356 H   0  0  0  0  0  0  0  0  0  0  0  0
  139.0164   67.5944  223.1379 H   0  0  0  0  0  0  0  0  0  0  0  0
  136.9057   67.4787  223.2320 H   0  0  0  0  0  0  0  0  0  0  0  0
  136.7047   70.1676  221.6705 H   0  0  0  0  0  0  0  0  0  0  0  0
  137.1530   68.6532  220.8488 H   0  0  0  0  0  0  0  0  0  0  0  0
  134.7242   68.9948  220.6634 H   0  0  0  0  0  0  0  0  0  0  0  0
  135.0295   67.6032  221.7407 H   0  0  0  0  0  0  0  0  0  0  0  0
  134.5059   70.4972  222.6151 H   0  0  0  0  0  0  0  0  0  0  0  0
  133.3532   69.1264  222.7450 H   0  0  0  0  0  0  0  0  0  0  0  0
  134.5298   69.5903  224.8779 H   0  0  0  0  0  0  0  0  0  0  0  0
  134.8872   67.9387  224.2084 H   0  0  0  0  0  0  0  0  0  0  0  0
  136.7084   70.3840  223.9876 H   0  0  0  0  0  0  0  0  0  0  0  0
  136.9468   69.0220  225.1041 H   0  0  0  0  0  0  0  0  0  0  0  0
  1  2  2  0
  2  3  1  0
  3  4  2  0
  4  5  1  0
  5  6  2  0
  6  7  1  0
  7  8  2  0
  8  9  1  0
  9 10  2  0
 10 11  1  0
 11 12  2  0
 12 13  1  0
 13 14  2  0
 14 15  1  0
 15 16  2  0
 16 17  1  0
 17 18  1  0
 18 19  1  0
 19 20  1  0
 20 21  1  0
 21 22  1  0
 22 23  1  0
 16 24  1  0
 24 25  2  0
 10 26  1  0
 26 27  1  0
 27 28  1  0
 28 29  1  0
 29 30  1  0
 30 31  1  0
 31 32  1  0
 32 33  1  0
 26  2  1  0
 33 28  1  0
  8  3  1  0
 25 13  1  0
 23 18  1  0
  4 34  1  0
  5 35  1  0
  6 36  1  0
  7 37  1  0
 11 38  1  0
 12 39  1  0
 14 40  1  0
 15 41  1  0
 17 42  1  0
 17 43  1  0
 19 44  1  0
 19 45  1  0
 20 46  1  0
 20 47  1  0
 21 48  1  0
 21 49  1  0
 22 50  1  0
 22 51  1  0
 23 52  1  0
 23 53  1  0
 24 54  1  0
 27 55  1  0
 27 56  1  0
 28 57  1  0
 29 58  1  0
 29 59  1  0
 30 60  1  0
 30 61  1  0
 31 62  1  0
 31 63  1  0
 32 64  1  0
 32 65  1  0
 33 66  1  0
 33 67  1  0
M  END
>  <smiles>  (6) 
O=c1c2ccccc2nc(/C=C/c2ccc(CN3CCCCC3)cn2)n1CC1CCCCC1

>  <score_type>  (6) 
oracle

>  <origin>  (6) 
autodockgpu

>  <m_score__min__energy>  (6) 
-9.8000000000000007

>  <m_primary>  (6) 
energy

>  <rmsd>  (6) 
6.5059339754089756

>  <m_score__min__rmsd>  (6) 
6.5059339754089756

>  <meeko>  (6) 
{"free_energy": -9.18, "intermolecular_energy": -11.26, "internal_energy": -1.73, "cluster_size": 36, "cluster_id": 1, "rank_in_cluster": 24}

>  <energy>  (6) 
-9.64

>  <cluster_rmsd>  (6) 
0.55

>  <cluster>  (6) 
1

$$$$

     RDKit          3D

 67 71  0  0  0  0  0  0  0  0999 V2000
  142.8950   77.1940  219.2650 O   0  0  0  0  0  0  0  0  0  0  0  0
  142.1080   76.4850  219.9680 C   0  0  0  0  0  0  0  0  0  0  0  0
  141.4090   77.1260  220.9480 C   0  0  0  0  0  0  0  0  0  0  0  0
  141.5250   78.4660  221.1870 C   0  0  0  0  0  0  0  0  0  0  0  0
  140.7830   79.0560  222.2030 C   0  0  0  0  0  0  0  0  0  0  0  0
  139.9100   78.3050  222.9930 C   0  0  0  0  0  0  0  0  0  0  0  0
  139.8010   76.9400  222.7380 C   0  0  0  0  0  0  0  0  0  0  0  0
  140.5490   76.3660  221.7210 C   0  0  0  0  0  0  0  0  0  0  0  0
  140.4720   75.0640  221.4460 N   0  0  0  0  0  0  0  0  0  0  0  0
  141.1670   74.4480  220.4780 C   0  0  0  0  0  0  0  0  0  0  0  0
  140.9960   73.0100  220.2590 C   0  0  0  0  0  0  0  0  0  0  0  0
  141.4550   72.1650  221.1610 C   0  0  0  0  0  0  0  0  0  0  0  0
  140.6380   71.5480  222.1940 C   0  0  0  0  0  0  0  0  0  0  0  0
  140.3680   72.1410  223.4090 C   0  0  0  0  0  0  0  0  0  0  0  0
  139.5790   71.5160  224.3740 C   0  0  0  0  0  0  0  0  0  0  0  0
  139.0590   70.2690  224.0960 C   0  0  0  0  0  0  0  0  0  0  0  0
  138.2270   69.6340  225.1480 C   0  0  0  0  0  0  0  0  0  0  0  0
  139.0800   69.0650  226.1440 N   0  0  0  0  0  0  0  0  0  0  0  0
  139.8590   67.9450  225.7400 C   0  0  0  0  0  0  0  0  0  0  0  0
  141.1330   67.7820  226.5370 C   0  0  0  0  0  0  0  0  0  0  0  0
  141.0040   68.1420  227.9840 C   0  0  0  0  0  0  0  0  0  0  0  0
  140.0910   69.2890  228.2730 C   0  0  0  0  0  0  0  0  0  0  0  0
  139.8100   69.9950  226.9460 C   0  0  0  0  0  0  0  0  0  0  0  0
  139.3320   69.6810  222.8810 C   0  0  0  0  0  0  0  0  0  0  0  0
  140.0990   70.3300  221.9870 N   0  0  0  0  0  0  0  0  0  0  0  0
  142.0030   75.1520  219.7180 N   0  0  0  0  0  0  0  0  0  0  0  0
  142.8070   74.6010  218.6690 C   0  0  0  0  0  0  0  0  0  0  0  0
  144.1310   74.0610  219.1090 C   0  0  0  0  0  0  0  0  0  0  0  0
  144.0560   72.5360  218.9650 C   0  0  0  0  0  0  0  0  0  0  0  0
  145.4620   72.0070  219.0710 C   0  0  0  0  0  0  0  0  0  0  0  0
  145.9740   72.3070  220.4690 C   0  0  0  0  0  0  0  0  0  0  0  0
  145.9240   73.7930  220.7120 C   0  0  0  0  0  0  0  0  0  0  0  0
  144.5240   74.3650  220.5120 C   0  0  0  0  0  0  0  0  0  0  0  0
  142.2051   79.0774  220.5757 H   0  0  0  0  0  0  0  0  0  0  0  0
  140.8853   80.1354  222.3886 H   0  0  0  0  0  0  0  0  0  0  0  0
  139.3244   78.7785  223.7948 H   0  0  0  0  0  0  0  0  0  0  0  0
  139.1232   76.3188  223.3419 H   0  0  0  0  0  0  0  0  0  0  0  0
  140.4915   72.6400  219.3543 H   0  0  0  0  0  0  0  0  0  0  0  0
  142.5247   71.9103  221.1303 H   0  0  0  0  0  0  0  0  0  0  0  0
  140.7868   73.1353  223.6232 H   0  0  0  0  0  0  0  0  0  0  0  0
  139.3755   72.0072  225.3370 H   0  0  0  0  0  0  0  0  0  0  0  0
  137.5770   70.3917  225.6099 H   0  0  0  0  0  0  0  0  0  0  0  0
  137.6050   68.8449  224.7003 H   0  0  0  0  0  0  0  0  0  0  0  0
  139.2522   67.0357  225.8624 H   0  0  0  0  0  0  0  0  0  0  0  0
  140.1500   68.1123  224.6925 H   0  0  0  0  0  0  0  0  0  0  0  0
  141.4490   66.7305  226.4704 H   0  0  0  0  0  0  0  0  0  0  0  0
  141.8671   68.4770  226.1035 H   0  0  0  0  0  0  0  0  0  0  0  0
  140.6247   67.2606  228.5219 H   0  0  0  0  0  0  0  0  0  0  0  0
  142.0055   68.4577  228.3115 H   0  0  0  0  0  0  0  0  0  0  0  0
  139.1509   68.9206  228.7094 H   0  0  0  0  0  0  0  0  0  0  0  0
  140.5532   69.9819  228.9915 H   0  0  0  0  0  0  0  0  0  0  0  0
  139.2121   70.9025  227.1165 H   0  0  0  0  0  0  0  0  0  0  0  0
  140.7430   70.3033  226.4516 H   0  0  0  0  0  0  0  0  0  0  0  0
  138.9254   68.6870  222.6433 H   0  0  0  0  0  0  0  0  0  0  0  0
  142.2424   73.7817  218.1999 H   0  0  0  0  0  0  0  0  0  0  0  0
  143.0251   75.4296  217.9792 H   0  0  0  0  0  0  0  0  0  0  0  0
  144.8908   74.5478  218.4799 H   0  0  0  0  0  0  0  0  0  0  0  0
  143.4329   72.1123  219.7664 H   0  0  0  0  0  0  0  0  0  0  0  0
  143.6065   72.2573  218.0005 H   0  0  0  0  0  0  0  0  0  0  0  0
  145.4659   70.9208  218.8975 H   0  0  0  0  0  0  0  0  0  0  0  0
  146.1068   72.4840  218.3182 H   0  0  0  0  0  0  0  0  0  0  0  0
  145.3433   71.7927  221.2090 H   0  0  0  0  0  0  0  0  0  0  0  0
  147.0114   71.9538  220.5640 H   0  0  0  0  0  0  0  0  0  0  0  0
  146.2439   73.9935  221.7452 H   0  0  0  0  0  0  0  0  0  0  0  0
  146.5923   74.2760  219.9839 H   0  0  0  0  0  0  0  0  0  0  0  0
  143.8190   73.8943  221.2131 H   0  0  0  0  0  0  0  0  0  0  0  0
  144.5102   75.4488  220.6995 H   0  0  0  0  0  0  0  0  0  0  0  0
  1  2  2  0
  2  3  1  0
  3  4  2  0
  4  5  1  0
  5  6  2  0
  6  7  1  0
  7  8  2  0
  8  9  1  0
  9 10  2  0
 10 11  1  0
 11 12  2  0
 12 13  1  0
 13 14  2  0
 14 15  1  0
 15 16  2  0
 16 17  1  0
 17 18  1  0
 18 19  1  0
 19 20  1  0
 20 21  1  0
 21 22  1  0
 22 23  1  0
 16 24  1  0
 24 25  2  0
 10 26  1  0
 26 27  1  0
 27 28  1  0
 28 29  1  0
 29 30  1  0
 30 31  1  0
 31 32  1  0
 32 33  1  0
 26  2  1  0
 33 28  1  0
  8  3  1  0
 25 13  1  0
 23 18  1  0
  4 34  1  0
  5 35  1  0
  6 36  1  0
  7 37  1  0
 11 38  1  0
 12 39  1  0
 14 40  1  0
 15 41  1  0
 17 42  1  0
 17 43  1  0
 19 44  1  0
 19 45  1  0
 20 46  1  0
 20 47  1  0
 21 48  1  0
 21 49  1  0
 22 50  1  0
 22 51  1  0
 23 52  1  0
 23 53  1  0
 24 54  1  0
 27 55  1  0
 27 56  1  0
 28 57  1  0
 29 58  1  0
 29 59  1  0
 30 60  1  0
 30 61  1  0
 31 62  1  0
 31 63  1  0
 32 64  1  0
 32 65  1  0
 33 66  1  0
 33 67  1  0
M  END
>  <smiles>  (7) 
O=c1c2ccccc2nc(/C=C/c2ccc(CN3CCCCC3)cn2)n1CC1CCCCC1

>  <score_type>  (7) 
oracle

>  <origin>  (7) 
autodockgpu

>  <m_score__min__energy>  (7) 
-9.8000000000000007

>  <m_primary>  (7) 
energy

>  <rmsd>  (7) 
11.350619181044456

>  <m_score__min__rmsd>  (7) 
11.350619181044456

>  <meeko>  (7) 
{"free_energy": -8.33, "intermolecular_energy": -10.42, "internal_energy": -1.83, "cluster_size": 1, "cluster_id": 5, "rank_in_cluster": 1}

>  <energy>  (7) 
-9.64

>  <cluster_rmsd>  (7) 
0.61

>  <cluster>  (7) 
1

$$$$

     RDKit          3D

 67 71  0  0  0  0  0  0  0  0999 V2000
  144.0150   76.7120  219.9740 O   0  0  0  0  0  0  0  0  0  0  0  0
  143.1860   75.7520  220.0690 C   0  0  0  0  0  0  0  0  0  0  0  0
  143.7070   74.4970  220.1810 C   0  0  0  0  0  0  0  0  0  0  0  0
  145.0520   74.2490  220.1950 C   0  0  0  0  0  0  0  0  0  0  0  0
  145.5150   72.9450  220.3120 C   0  0  0  0  0  0  0  0  0  0  0  0
  144.6320   71.8680  220.4180 C   0  0  0  0  0  0  0  0  0  0  0  0
  143.2650   72.1340  220.4030 C   0  0  0  0  0  0  0  0  0  0  0  0
  142.8180   73.4420  220.2850 C   0  0  0  0  0  0  0  0  0  0  0  0
  141.5180   73.7380  220.2670 N   0  0  0  0  0  0  0  0  0  0  0  0
  141.0210   74.9780  220.1560 C   0  0  0  0  0  0  0  0  0  0  0  0
  139.5710   75.1870  220.1560 C   0  0  0  0  0  0  0  0  0  0  0  0
  138.8810   74.8850  221.2390 C   0  0  0  0  0  0  0  0  0  0  0  0
  139.0250   73.6410  221.9800 C   0  0  0  0  0  0  0  0  0  0  0  0
  138.0380   72.6810  222.0580 C   0  0  0  0  0  0  0  0  0  0  0  0
  138.2140   71.5010  222.7780 C   0  0  0  0  0  0  0  0  0  0  0  0
  139.4130   71.2970  223.4290 C   0  0  0  0  0  0  0  0  0  0  0  0
  139.5630   70.0310  224.1880 C   0  0  0  0  0  0  0  0  0  0  0  0
  139.8190   70.3320  225.5610 N   0  0  0  0  0  0  0  0  0  0  0  0
  139.2870   69.4200  226.5160 C   0  0  0  0  0  0  0  0  0  0  0  0
  140.0610   69.3920  227.8140 C   0  0  0  0  0  0  0  0  0  0  0  0
  140.5940   70.7220  228.2420 C   0  0  0  0  0  0  0  0  0  0  0  0
  141.0450   71.6130  227.1310 C   0  0  0  0  0  0  0  0  0  0  0  0
  141.1490   70.7530  225.8700 C   0  0  0  0  0  0  0  0  0  0  0  0
  140.3960   72.2590  223.3480 C   0  0  0  0  0  0  0  0  0  0  0  0
  140.1710   73.3790  222.6380 N   0  0  0  0  0  0  0  0  0  0  0  0
  141.8520   76.0130  220.0530 N   0  0  0  0  0  0  0  0  0  0  0  0
  141.4380   77.3770  219.9140 C   0  0  0  0  0  0  0  0  0  0  0  0
  141.8130   78.2680  221.0550 C   0  0  0  0  0  0  0  0  0  0  0  0
  140.9490   77.8450  222.2490 C   0  0  0  0  0  0  0  0  0  0  0  0
  141.5410   78.4840  223.4780 C   0  0  0  0  0  0  0  0  0  0  0  0
  141.4110   79.9900  223.3350 C   0  0  0  0  0  0  0  0  0  0  0  0
  142.1220   80.4370  222.0850 C   0  0  0  0  0  0  0  0  0  0  0  0
  141.6040   79.7260  220.8380 C   0  0  0  0  0  0  0  0  0  0  0  0
  145.7662   75.0816  220.1137 H   0  0  0  0  0  0  0  0  0  0  0  0
  146.5987   72.7565  220.3214 H   0  0  0  0  0  0  0  0  0  0  0  0
  145.0061   70.8377  220.5108 H   0  0  0  0  0  0  0  0  0  0  0  0
  142.5417   71.3092  220.4845 H   0  0  0  0  0  0  0  0  0  0  0  0
  139.0651   75.5898  219.2661 H   0  0  0  0  0  0  0  0  0  0  0  0
  138.1499   75.6207  221.6054 H   0  0  0  0  0  0  0  0  0  0  0  0
  137.0844   72.8517  221.5369 H   0  0  0  0  0  0  0  0  0  0  0  0
  137.4136   70.7480  222.8262 H   0  0  0  0  0  0  0  0  0  0  0  0
  138.6375   69.4421  224.1072 H   0  0  0  0  0  0  0  0  0  0  0  0
  140.4012   69.4506  223.7752 H   0  0  0  0  0  0  0  0  0  0  0  0
  138.2489   69.7104  226.7351 H   0  0  0  0  0  0  0  0  0  0  0  0
  139.3528   68.4138  226.0764 H   0  0  0  0  0  0  0  0  0  0  0  0
  139.3941   69.0176  228.6046 H   0  0  0  0  0  0  0  0  0  0  0  0
  140.9329   68.7425  227.6466 H   0  0  0  0  0  0  0  0  0  0  0  0
  139.8005   71.2443  228.7966 H   0  0  0  0  0  0  0  0  0  0  0  0
  141.4879   70.5125  228.8478 H   0  0  0  0  0  0  0  0  0  0  0  0
  140.3144   72.4207  226.9763 H   0  0  0  0  0  0  0  0  0  0  0  0
  142.0158   72.0717  227.3700 H   0  0  0  0  0  0  0  0  0  0  0  0
  141.5643   71.3430  225.0397 H   0  0  0  0  0  0  0  0  0  0  0  0
  141.8147   69.8915  226.0273 H   0  0  0  0  0  0  0  0  0  0  0  0
  141.3582   72.1121  223.8605 H   0  0  0  0  0  0  0  0  0  0  0  0
  141.8962   77.7817  218.9995 H   0  0  0  0  0  0  0  0  0  0  0  0
  140.3386   77.3640  219.8811 H   0  0  0  0  0  0  0  0  0  0  0  0
  142.8962   78.1459  221.2025 H   0  0  0  0  0  0  0  0  0  0  0  0
  139.9144   78.1903  222.1063 H   0  0  0  0  0  0  0  0  0  0  0  0
  140.9318   76.7497  222.3490 H   0  0  0  0  0  0  0  0  0  0  0  0
  140.9975   78.1460  224.3726 H   0  0  0  0  0  0  0  0  0  0  0  0
  142.5987   78.2008  223.5832 H   0  0  0  0  0  0  0  0  0  0  0  0
  140.3472   80.2619  223.2693 H   0  0  0  0  0  0  0  0  0  0  0  0
  141.8610   80.4823  224.2097 H   0  0  0  0  0  0  0  0  0  0  0  0
  141.9738   81.5200  221.9619 H   0  0  0  0  0  0  0  0  0  0  0  0
  143.1875   80.1872  222.1965 H   0  0  0  0  0  0  0  0  0  0  0  0
  140.5338   79.9383  220.6983 H   0  0  0  0  0  0  0  0  0  0  0  0
  142.1348   80.0708  219.9383 H   0  0  0  0  0  0  0  0  0  0  0  0
  1  2  2  0
  2  3  1  0
  3  4  2  0
  4  5  1  0
  5  6  2  0
  6  7  1  0
  7  8  2  0
  8  9  1  0
  9 10  2  0
 10 11  1  0
 11 12  2  0
 12 13  1  0
 13 14  2  0
 14 15  1  0
 15 16  2  0
 16 17  1  0
 17 18  1  0
 18 19  1  0
 19 20  1  0
 20 21  1  0
 21 22  1  0
 22 23  1  0
 16 24  1  0
 24 25  2  0
 10 26  1  0
 26 27  1  0
 27 28  1  0
 28 29  1  0
 29 30  1  0
 30 31  1  0
 31 32  1  0
 32 33  1  0
 26  2  1  0
 33 28  1  0
  8  3  1  0
 25 13  1  0
 23 18  1  0
  4 34  1  0
  5 35  1  0
  6 36  1  0
  7 37  1  0
 11 38  1  0
 12 39  1  0
 14 40  1  0
 15 41  1  0
 17 42  1  0
 17 43  1  0
 19 44  1  0
 19 45  1  0
 20 46  1  0
 20 47  1  0
 21 48  1  0
 21 49  1  0
 22 50  1  0
 22 51  1  0
 23 52  1  0
 23 53  1  0
 24 54  1  0
 27 55  1  0
 27 56  1  0
 28 57  1  0
 29 58  1  0
 29 59  1  0
 30 60  1  0
 30 61  1  0
 31 62  1  0
 31 63  1  0
 32 64  1  0
 32 65  1  0
 33 66  1  0
 33 67  1  0
M  END
>  <smiles>  (8) 
O=c1c2ccccc2nc(/C=C/c2ccc(CN3CCCCC3)cn2)n1CC1CCCCC1

>  <score_type>  (8) 
oracle

>  <origin>  (8) 
autodockgpu

>  <m_score__min__energy>  (8) 
-9.8000000000000007

>  <m_primary>  (8) 
energy

>  <rmsd>  (8) 
10.095247844767124

>  <m_score__min__rmsd>  (8) 
10.095247844767124

>  <meeko>  (8) 
{"free_energy": -9.33, "intermolecular_energy": -11.42, "internal_energy": -1.88, "cluster_size": 7, "cluster_id": 2, "rank_in_cluster": 2}

>  <energy>  (8) 
-9.62

>  <cluster_rmsd>  (8) 
0.73

>  <cluster>  (8) 
1

$$$$

     RDKit          3D

 67 71  0  0  0  0  0  0  0  0999 V2000
  138.5650   67.8390  224.5220 O   0  0  0  0  0  0  0  0  0  0  0  0
  139.0040   69.0310  224.4660 C   0  0  0  0  0  0  0  0  0  0  0  0
  139.6830   69.4900  225.5560 C   0  0  0  0  0  0  0  0  0  0  0  0
  139.9000   68.7280  226.6700 C   0  0  0  0  0  0  0  0  0  0  0  0
  140.6000   69.2590  227.7470 C   0  0  0  0  0  0  0  0  0  0  0  0
  141.0950   70.5640  227.7170 C   0  0  0  0  0  0  0  0  0  0  0  0
  140.8670   71.3290  226.5760 C   0  0  0  0  0  0  0  0  0  0  0  0
  140.1650   70.7850  225.5100 C   0  0  0  0  0  0  0  0  0  0  0  0
  139.9270   71.4850  224.4000 N   0  0  0  0  0  0  0  0  0  0  0  0
  139.2570   71.0200  223.3360 C   0  0  0  0  0  0  0  0  0  0  0  0
  139.0620   71.8760  222.1640 C   0  0  0  0  0  0  0  0  0  0  0  0
  138.5970   73.0980  222.3340 C   0  0  0  0  0  0  0  0  0  0  0  0
  139.2660   74.3010  221.8610 C   0  0  0  0  0  0  0  0  0  0  0  0
  138.6070   75.3590  221.2730 C   0  0  0  0  0  0  0  0  0  0  0  0
  139.2850   76.4950  220.8330 C   0  0  0  0  0  0  0  0  0  0  0  0
  140.6530   76.5520  220.9940 C   0  0  0  0  0  0  0  0  0  0  0  0
  141.3410   77.7750  220.5110 C   0  0  0  0  0  0  0  0  0  0  0  0
  141.7330   78.5700  221.6320 N   0  0  0  0  0  0  0  0  0  0  0  0
  142.0940   79.9180  221.3530 C   0  0  0  0  0  0  0  0  0  0  0  0
  141.8840   80.8500  222.5240 C   0  0  0  0  0  0  0  0  0  0  0  0
  142.1810   80.2390  223.8570 C   0  0  0  0  0  0  0  0  0  0  0  0
  141.8230   78.7950  223.9880 C   0  0  0  0  0  0  0  0  0  0  0  0
  140.9240   78.4380  222.8030 C   0  0  0  0  0  0  0  0  0  0  0  0
  141.3070   75.4910  221.5820 C   0  0  0  0  0  0  0  0  0  0  0  0
  140.6020   74.4200  221.9890 N   0  0  0  0  0  0  0  0  0  0  0  0
  138.7800   69.7770  223.3510 N   0  0  0  0  0  0  0  0  0  0  0  0
  138.0370   69.1790  222.2830 C   0  0  0  0  0  0  0  0  0  0  0  0
  138.8710   68.5520  221.2110 C   0  0  0  0  0  0  0  0  0  0  0  0
  139.1710   67.1190  221.6660 C   0  0  0  0  0  0  0  0  0  0  0  0
  139.7070   66.3730  220.4710 C   0  0  0  0  0  0  0  0  0  0  0  0
  141.0270   67.0090  220.0720 C   0  0  0  0  0  0  0  0  0  0  0  0
  140.8060   68.4660  219.7590 C   0  0  0  0  0  0  0  0  0  0  0  0
  140.1710   69.2190  220.9250 C   0  0  0  0  0  0  0  0  0  0  0  0
  139.5212   67.6962  226.7140 H   0  0  0  0  0  0  0  0  0  0  0  0
  140.7672   68.6391  228.6401 H   0  0  0  0  0  0  0  0  0  0  0  0
  141.6504   70.9770  228.5720 H   0  0  0  0  0  0  0  0  0  0  0  0
  141.2423   72.3615  226.5200 H   0  0  0  0  0  0  0  0  0  0  0  0
  139.3000   71.5048  221.1562 H   0  0  0  0  0  0  0  0  0  0  0  0
  137.6423   73.2159  222.8675 H   0  0  0  0  0  0  0  0  0  0  0  0
  137.5155   75.3057  221.1473 H   0  0  0  0  0  0  0  0  0  0  0  0
  138.7395   77.3288  220.3669 H   0  0  0  0  0  0  0  0  0  0  0  0
  142.2323   77.4910  219.9323 H   0  0  0  0  0  0  0  0  0  0  0  0
  140.6590   78.3527  219.8699 H   0  0  0  0  0  0  0  0  0  0  0  0
  143.1576   79.9435  221.0734 H   0  0  0  0  0  0  0  0  0  0  0  0
  141.4417   80.2671  220.5389 H   0  0  0  0  0  0  0  0  0  0  0  0
  142.5396   81.7233  222.3914 H   0  0  0  0  0  0  0  0  0  0  0  0
  140.8163   81.1145  222.5291 H   0  0  0  0  0  0  0  0  0  0  0  0
  143.2600   80.3406  224.0452 H   0  0  0  0  0  0  0  0  0  0  0  0
  141.5557   80.7761  224.5854 H   0  0  0  0  0  0  0  0  0  0  0  0
  142.7337   78.1784  223.9683 H   0  0  0  0  0  0  0  0  0  0  0  0
  141.3041   78.6080  224.9397 H   0  0  0  0  0  0  0  0  0  0  0  0
  140.5591   77.4048  222.8994 H   0  0  0  0  0  0  0  0  0  0  0  0
  140.0433   79.0954  222.7568 H   0  0  0  0  0  0  0  0  0  0  0  0
  142.3982   75.5197  221.7176 H   0  0  0  0  0  0  0  0  0  0  0  0
  137.3889   68.4003  222.7115 H   0  0  0  0  0  0  0  0  0  0  0  0
  137.4770   69.9943  221.8017 H   0  0  0  0  0  0  0  0  0  0  0  0
  138.2910   68.6286  220.2795 H   0  0  0  0  0  0  0  0  0  0  0  0
  139.9205   67.1287  222.4711 H   0  0  0  0  0  0  0  0  0  0  0  0
  138.2622   66.6345  222.0524 H   0  0  0  0  0  0  0  0  0  0  0  0
  139.8658   65.3162  220.7315 H   0  0  0  0  0  0  0  0  0  0  0  0
  138.9915   66.4241  219.6371 H   0  0  0  0  0  0  0  0  0  0  0  0
  141.7443   66.9164  220.9008 H   0  0  0  0  0  0  0  0  0  0  0  0
  141.4269   66.4988  219.1833 H   0  0  0  0  0  0  0  0  0  0  0  0
  141.7762   68.9288  219.5254 H   0  0  0  0  0  0  0  0  0  0  0  0
  140.1163   68.5258  218.9042 H   0  0  0  0  0  0  0  0  0  0  0  0
  140.8244   69.1695  221.8085 H   0  0  0  0  0  0  0  0  0  0  0  0
  140.0237   70.2803  220.6760 H   0  0  0  0  0  0  0  0  0  0  0  0
  1  2  2  0
  2  3  1  0
  3  4  2  0
  4  5  1  0
  5  6  2  0
  6  7  1  0
  7  8  2  0
  8  9  1  0
  9 10  2  0
 10 11  1  0
 11 12  2  0
 12 13  1  0
 13 14  2  0
 14 15  1  0
 15 16  2  0
 16 17  1  0
 17 18  1  0
 18 19  1  0
 19 20  1  0
 20 21  1  0
 21 22  1  0
 22 23  1  0
 16 24  1  0
 24 25  2  0
 10 26  1  0
 26 27  1  0
 27 28  1  0
 28 29  1  0
 29 30  1  0
 30 31  1  0
 31 32  1  0
 32 33  1  0
 26  2  1  0
 33 28  1  0
  8  3  1  0
 25 13  1  0
 23 18  1  0
  4 34  1  0
  5 35  1  0
  6 36  1  0
  7 37  1  0
 11 38  1  0
 12 39  1  0
 14 40  1  0
 15 41  1  0
 17 42  1  0
 17 43  1  0
 19 44  1  0
 19 45  1  0
 20 46  1  0
 20 47  1  0
 21 48  1  0
 21 49  1  0
 22 50  1  0
 22 51  1  0
 23 52  1  0
 23 53  1  0
 24 54  1  0
 27 55  1  0
 27 56  1  0
 28 57  1  0
 29 58  1  0
 29 59  1  0
 30 60  1  0
 30 61  1  0
 31 62  1  0
 31 63  1  0
 32 64  1  0
 32 65  1  0
 33 66  1  0
 33 67  1  0
M  END
>  <smiles>  (9) 
O=c1c2ccccc2nc(/C=C/c2ccc(CN3CCCCC3)cn2)n1CC1CCCCC1

>  <score_type>  (9) 
oracle

>  <origin>  (9) 
autodockgpu

>  <m_score__min__energy>  (9) 
-9.8000000000000007

>  <m_primary>  (9) 
energy

>  <rmsd>  (9) 
6.355806911480986

>  <m_score__min__rmsd>  (9) 
6.355806911480986

>  <meeko>  (9) 
{"free_energy": -8.57, "intermolecular_energy": -10.66, "internal_energy": -1.5, "cluster_size": 36, "cluster_id": 1, "rank_in_cluster": 35}

>  <energy>  (9) 
-9.61

>  <cluster_rmsd>  (9) 
0.74

>  <cluster>  (9) 
1

$$$$

     RDKit          3D

 67 71  0  0  0  0  0  0  0  0999 V2000
  143.6660   76.7660  219.7070 O   0  0  0  0  0  0  0  0  0  0  0  0
  142.8520   75.8210  219.9540 C   0  0  0  0  0  0  0  0  0  0  0  0
  143.3890   74.5900  220.1880 C   0  0  0  0  0  0  0  0  0  0  0  0
  144.7340   74.3510  220.1660 C   0  0  0  0  0  0  0  0  0  0  0  0
  145.2150   73.0700  220.4130 C   0  0  0  0  0  0  0  0  0  0  0  0
  144.3470   72.0110  220.6870 C   0  0  0  0  0  0  0  0  0  0  0  0
  142.9790   72.2690  220.7070 C   0  0  0  0  0  0  0  0  0  0  0  0
  142.5150   73.5520  220.4580 C   0  0  0  0  0  0  0  0  0  0  0  0
  141.2130   73.8390  220.4680 N   0  0  0  0  0  0  0  0  0  0  0  0
  140.7000   75.0560  220.2360 C   0  0  0  0  0  0  0  0  0  0  0  0
  139.2500   75.2580  220.2820 C   0  0  0  0  0  0  0  0  0  0  0  0
  138.5800   74.8480  221.3410 C   0  0  0  0  0  0  0  0  0  0  0  0
  138.8240   73.5870  222.0250 C   0  0  0  0  0  0  0  0  0  0  0  0
  137.9280   72.5390  222.0360 C   0  0  0  0  0  0  0  0  0  0  0  0
  138.1990   71.3460  222.7040 C   0  0  0  0  0  0  0  0  0  0  0  0
  139.4000   71.2200  223.3700 C   0  0  0  0  0  0  0  0  0  0  0  0
  139.6530   69.9370  224.0720 C   0  0  0  0  0  0  0  0  0  0  0  0
  139.7720   70.1820  225.4750 N   0  0  0  0  0  0  0  0  0  0  0  0
  139.2850   69.1610  226.3370 C   0  0  0  0  0  0  0  0  0  0  0  0
  139.9610   69.1430  227.6880 C   0  0  0  0  0  0  0  0  0  0  0  0
  140.3010   70.4980  228.2250 C   0  0  0  0  0  0  0  0  0  0  0  0
  140.7230   71.4990  227.1990 C   0  0  0  0  0  0  0  0  0  0  0  0
  141.0170   70.7330  225.9080 C   0  0  0  0  0  0  0  0  0  0  0  0
  140.2920   72.2700  223.3570 C   0  0  0  0  0  0  0  0  0  0  0  0
  139.9770   73.3990  222.6950 N   0  0  0  0  0  0  0  0  0  0  0  0
  141.5160   76.0750  219.9720 N   0  0  0  0  0  0  0  0  0  0  0  0
  141.0830   77.4110  219.6940 C   0  0  0  0  0  0  0  0  0  0  0  0
  140.8640   78.2660  220.9020 C   0  0  0  0  0  0  0  0  0  0  0  0
  141.8170   79.4610  220.7760 C   0  0  0  0  0  0  0  0  0  0  0  0
  141.3790   80.4910  221.7840 C   0  0  0  0  0  0  0  0  0  0  0  0
  141.5700   79.9020  223.1710 C   0  0  0  0  0  0  0  0  0  0  0  0
  140.7640   78.6350  223.2920 C   0  0  0  0  0  0  0  0  0  0  0  0
  141.1250   77.6160  222.2150 C   0  0  0  0  0  0  0  0  0  0  0  0
  145.4356   75.1711  219.9531 H   0  0  0  0  0  0  0  0  0  0  0  0
  146.2995   72.8874  220.3922 H   0  0  0  0  0  0  0  0  0  0  0  0
  144.7338   70.9999  220.8818 H   0  0  0  0  0  0  0  0  0  0  0  0
  142.2679   71.4572  220.9198 H   0  0  0  0  0  0  0  0  0  0  0  0
  138.7276   75.7447  219.4452 H   0  0  0  0  0  0  0  0  0  0  0  0
  137.7859   75.5008  221.7324 H   0  0  0  0  0  0  0  0  0  0  0  0
  136.9722   72.6475  221.5025 H   0  0  0  0  0  0  0  0  0  0  0  0
  137.4701   70.5222  222.7000 H   0  0  0  0  0  0  0  0  0  0  0  0
  138.8162   69.2468  223.8892 H   0  0  0  0  0  0  0  0  0  0  0  0
  140.5843   69.4884  223.6959 H   0  0  0  0  0  0  0  0  0  0  0  0
  138.2068   69.3177  226.4887 H   0  0  0  0  0  0  0  0  0  0  0  0
  139.5012   68.1971  225.8530 H   0  0  0  0  0  0  0  0  0  0  0  0
  139.2879   68.6479  228.4034 H   0  0  0  0  0  0  0  0  0  0  0  0
  140.9133   68.6084  227.5565 H   0  0  0  0  0  0  0  0  0  0  0  0
  139.4133   70.8926  228.7411 H   0  0  0  0  0  0  0  0  0  0  0  0
  141.1667   70.3561  228.8886 H   0  0  0  0  0  0  0  0  0  0  0  0
  139.9158   72.2267  227.0291 H   0  0  0  0  0  0  0  0  0  0  0  0
  141.6138   72.0493  227.5360 H   0  0  0  0  0  0  0  0  0  0  0  0
  141.4179   71.4149  225.1436 H   0  0  0  0  0  0  0  0  0  0  0  0
  141.7666   69.9450  226.0731 H   0  0  0  0  0  0  0  0  0  0  0  0
  141.2542   72.1864  223.8835 H   0  0  0  0  0  0  0  0  0  0  0  0
  141.8468   77.8943  219.0671 H   0  0  0  0  0  0  0  0  0  0  0  0
  140.1054   77.3217  219.1977 H   0  0  0  0  0  0  0  0  0  0  0  0
  139.7951   78.5256  220.9103 H   0  0  0  0  0  0  0  0  0  0  0  0
  142.8489   79.1434  220.9863 H   0  0  0  0  0  0  0  0  0  0  0  0
  141.7890   79.8760  219.7577 H   0  0  0  0  0  0  0  0  0  0  0  0
  141.9887   81.4003  221.6775 H   0  0  0  0  0  0  0  0  0  0  0  0
  140.3237   80.7572  221.6241 H   0  0  0  0  0  0  0  0  0  0  0  0
  142.6347   79.6763  223.3304 H   0  0  0  0  0  0  0  0  0  0  0  0
  141.2323   80.6259  223.9273 H   0  0  0  0  0  0  0  0  0  0  0  0
  140.9525   78.1884  224.2794 H   0  0  0  0  0  0  0  0  0  0  0  0
  139.7030   78.8969  223.1665 H   0  0  0  0  0  0  0  0  0  0  0  0
  142.1866   77.3395  222.2961 H   0  0  0  0  0  0  0  0  0  0  0  0
  140.5296   76.6977  222.3256 H   0  0  0  0  0  0  0  0  0  0  0  0
  1  2  2  0
  2  3  1  0
  3  4  2  0
  4  5  1  0
  5  6  2  0
  6  7  1  0
  7  8  2  0
  8  9  1  0
  9 10  2  0
 10 11  1  0
 11 12  2  0
 12 13  1  0
 13 14  2  0
 14 15  1  0
 15 16  2  0
 16 17  1  0
 17 18  1  0
 18 19  1  0
 19 20  1  0
 20 21  1  0
 21 22  1  0
 22 23  1  0
 16 24  1  0
 24 25  2  0
 10 26  1  0
 26 27  1  0
 27 28  1  0
 28 29  1  0
 29 30  1  0
 30 31  1  0
 31 32  1  0
 32 33  1  0
 26  2  1  0
 33 28  1  0
  8  3  1  0
 25 13  1  0
 23 18  1  0
  4 34  1  0
  5 35  1  0
  6 36  1  0
  7 37  1  0
 11 38  1  0
 12 39  1  0
 14 40  1  0
 15 41  1  0
 17 42  1  0
 17 43  1  0
 19 44  1  0
 19 45  1  0
 20 46  1  0
 20 47  1  0
 21 48  1  0
 21 49  1  0
 22 50  1  0
 22 51  1  0
 23 52  1  0
 23 53  1  0
 24 54  1  0
 27 55  1  0
 27 56  1  0
 28 57  1  0
 29 58  1  0
 29 59  1  0
 30 60  1  0
 30 61  1  0
 31 62  1  0
 31 63  1  0
 32 64  1  0
 32 65  1  0
 33 66  1  0
 33 67  1  0
M  END
>  <smiles>  (10) 
O=c1c2ccccc2nc(/C=C/c2ccc(CN3CCCCC3)cn2)n1CC1CCCCC1

>  <score_type>  (10) 
oracle

>  <origin>  (10) 
autodockgpu

>  <m_score__min__energy>  (10) 
-9.8000000000000007

>  <m_primary>  (10) 
energy

>  <rmsd>  (10) 
10.19122491818915

>  <m_score__min__rmsd>  (10) 
10.19122491818915

>  <meeko>  (10) 
{"free_energy": -8.99, "intermolecular_energy": -11.08, "internal_energy": -1.85, "cluster_size": 7, "cluster_id": 2, "rank_in_cluster": 3}

>  <energy>  (10) 
-9.55

>  <cluster_rmsd>  (10) 
0.65

>  <cluster>  (10) 
1

$$$$

     RDKit          3D

 67 71  0  0  0  0  0  0  0  0999 V2000
  142.6510   77.2280  219.8020 O   0  0  0  0  0  0  0  0  0  0  0  0
  142.1450   76.1780  220.3090 C   0  0  0  0  0  0  0  0  0  0  0  0
  142.9080   75.0480  220.2780 C   0  0  0  0  0  0  0  0  0  0  0  0
  144.1620   75.0150  219.7360 C   0  0  0  0  0  0  0  0  0  0  0  0
  144.8860   73.8290  219.7370 C   0  0  0  0  0  0  0  0  0  0  0  0
  144.3590   72.6570  220.2850 C   0  0  0  0  0  0  0  0  0  0  0  0
  143.0800   72.7060  220.8330 C   0  0  0  0  0  0  0  0  0  0  0  0
  142.3690   73.8970  220.8240 C   0  0  0  0  0  0  0  0  0  0  0  0
  141.1430   73.9840  221.3400 N   0  0  0  0  0  0  0  0  0  0  0  0
  140.4040   75.1030  221.3630 C   0  0  0  0  0  0  0  0  0  0  0  0
  139.0690   75.0850  221.9650 C   0  0  0  0  0  0  0  0  0  0  0  0
  138.2580   74.0800  221.6940 C   0  0  0  0  0  0  0  0  0  0  0  0
  138.3470   72.7680  222.3160 C   0  0  0  0  0  0  0  0  0  0  0  0
  137.3380   72.2130  223.0740 C   0  0  0  0  0  0  0  0  0  0  0  0
  137.4610   70.9520  223.6540 C   0  0  0  0  0  0  0  0  0  0  0  0
  138.6300   70.2460  223.4590 C   0  0  0  0  0  0  0  0  0  0  0  0
  138.7270   68.9090  224.0940 C   0  0  0  0  0  0  0  0  0  0  0  0
  139.2800   69.0470  225.4040 N   0  0  0  0  0  0  0  0  0  0  0  0
  139.6020   67.8390  226.0830 C   0  0  0  0  0  0  0  0  0  0  0  0
  140.7030   68.0010  227.1060 C   0  0  0  0  0  0  0  0  0  0  0  0
  140.6760   69.3060  227.8380 C   0  0  0  0  0  0  0  0  0  0  0  0
  140.2440   70.4810  227.0240 C   0  0  0  0  0  0  0  0  0  0  0  0
  140.2800   70.0570  225.5550 C   0  0  0  0  0  0  0  0  0  0  0  0
  139.6360   70.8050  222.7010 C   0  0  0  0  0  0  0  0  0  0  0  0
  139.4610   72.0260  222.1650 N   0  0  0  0  0  0  0  0  0  0  0  0
  140.8950   76.2260  220.8430 N   0  0  0  0  0  0  0  0  0  0  0  0
  140.1940   77.4740  220.7970 C   0  0  0  0  0  0  0  0  0  0  0  0
  140.6030   78.4650  221.8410 C   0  0  0  0  0  0  0  0  0  0  0  0
  141.4810   79.5090  221.1400 C   0  0  0  0  0  0  0  0  0  0  0  0
  141.6170   80.6800  222.0780 C   0  0  0  0  0  0  0  0  0  0  0  0
  142.3670   80.2110  223.3120 C   0  0  0  0  0  0  0  0  0  0  0  0
  141.6130   79.0750  223.9540 C   0  0  0  0  0  0  0  0  0  0  0  0
  141.3770   77.9180  222.9880 C   0  0  0  0  0  0  0  0  0  0  0  0
  144.5976   75.9259  219.2996 H   0  0  0  0  0  0  0  0  0  0  0  0
  145.8943   73.8126  219.2975 H   0  0  0  0  0  0  0  0  0  0  0  0
  144.9382   71.7218  220.2836 H   0  0  0  0  0  0  0  0  0  0  0  0
  142.6340   71.8016  221.2724 H   0  0  0  0  0  0  0  0  0  0  0  0
  138.7471   75.8973  222.6332 H   0  0  0  0  0  0  0  0  0  0  0  0
  137.4642   74.2448  220.9505 H   0  0  0  0  0  0  0  0  0  0  0  0
  136.4089   72.7821  223.2253 H   0  0  0  0  0  0  0  0  0  0  0  0
  136.6429   70.5283  224.2549 H   0  0  0  0  0  0  0  0  0  0  0  0
  137.7244   68.4618  224.1637 H   0  0  0  0  0  0  0  0  0  0  0  0
  139.3749   68.2593  223.4873 H   0  0  0  0  0  0  0  0  0  0  0  0
  138.6994   67.4763  226.5965 H   0  0  0  0  0  0  0  0  0  0  0  0
  139.9638   67.1274  225.3262 H   0  0  0  0  0  0  0  0  0  0  0  0
  140.6100   67.1902  227.8436 H   0  0  0  0  0  0  0  0  0  0  0  0
  141.6537   67.9692  226.5535 H   0  0  0  0  0  0  0  0  0  0  0  0
  139.9832   69.2063  228.6866 H   0  0  0  0  0  0  0  0  0  0  0  0
  141.7139   69.5085  228.1407 H   0  0  0  0  0  0  0  0  0  0  0  0
  139.2228   70.7780  227.3048 H   0  0  0  0  0  0  0  0  0  0  0  0
  140.9095   71.3395  227.1971 H   0  0  0  0  0  0  0  0  0  0  0  0
  140.0552   70.9156  224.9052 H   0  0  0  0  0  0  0  0  0  0  0  0
  141.2741   69.6806  225.2719 H   0  0  0  0  0  0  0  0  0  0  0  0
  140.5751   70.2566  222.5356 H   0  0  0  0  0  0  0  0  0  0  0  0
  140.3669   77.9269  219.8096 H   0  0  0  0  0  0  0  0  0  0  0  0
  139.1364   77.2412  220.9900 H   0  0  0  0  0  0  0  0  0  0  0  0
  139.6737   78.8610  222.2764 H   0  0  0  0  0  0  0  0  0  0  0  0
  142.4717   79.0833  220.9227 H   0  0  0  0  0  0  0  0  0  0  0  0
  141.0291   79.8226  220.1874 H   0  0  0  0  0  0  0  0  0  0  0  0
  142.1773   81.4887  221.5860 H   0  0  0  0  0  0  0  0  0  0  0  0
  140.6240   81.0617  222.3576 H   0  0  0  0  0  0  0  0  0  0  0  0
  143.3713   79.8679  223.0228 H   0  0  0  0  0  0  0  0  0  0  0  0
  142.4563   81.0429  224.0261 H   0  0  0  0  0  0  0  0  0  0  0  0
  142.1929   78.7061  224.8129 H   0  0  0  0  0  0  0  0  0  0  0  0
  140.6305   79.4577  224.2674 H   0  0  0  0  0  0  0  0  0  0  0  0
  142.3388   77.5152  222.6378 H   0  0  0  0  0  0  0  0  0  0  0  0
  140.8292   77.1001  223.4789 H   0  0  0  0  0  0  0  0  0  0  0  0
  1  2  2  0
  2  3  1  0
  3  4  2  0
  4  5  1  0
  5  6  2  0
  6  7  1  0
  7  8  2  0
  8  9  1  0
  9 10  2  0
 10 11  1  0
 11 12  2  0
 12 13  1  0
 13 14  2  0
 14 15  1  0
 15 16  2  0
 16 17  1  0
 17 18  1  0
 18 19  1  0
 19 20  1  0
 20 21  1  0
 21 22  1  0
 22 23  1  0
 16 24  1  0
 24 25  2  0
 10 26  1  0
 26 27  1  0
 27 28  1  0
 28 29  1  0
 29 30  1  0
 30 31  1  0
 31 32  1  0
 32 33  1  0
 26  2  1  0
 33 28  1  0
  8  3  1  0
 25 13  1  0
 23 18  1  0
  4 34  1  0
  5 35  1  0
  6 36  1  0
  7 37  1  0
 11 38  1  0
 12 39  1  0
 14 40  1  0
 15 41  1  0
 17 42  1  0
 17 43  1  0
 19 44  1  0
 19 45  1  0
 20 46  1  0
 20 47  1  0
 21 48  1  0
 21 49  1  0
 22 50  1  0
 22 51  1  0
 23 52  1  0
 23 53  1  0
 24 54  1  0
 27 55  1  0
 27 56  1  0
 28 57  1  0
 29 58  1  0
 29 59  1  0
 30 60  1  0
 30 61  1  0
 31 62  1  0
 31 63  1  0
 32 64  1  0
 32 65  1  0
 33 66  1  0
 33 67  1  0
M  END
>  <smiles>  (11) 
O=c1c2ccccc2nc(/C=C/c2ccc(CN3CCCCC3)cn2)n1CC1CCCCC1

>  <score_type>  (11) 
oracle

>  <origin>  (11) 
autodockgpu

>  <m_score__min__energy>  (11) 
-9.8000000000000007

>  <m_primary>  (11) 
energy

>  <rmsd>  (11) 
10.828331307424891

>  <m_score__min__rmsd>  (11) 
10.828331307424891

>  <meeko>  (11) 
{"free_energy": -8.86, "intermolecular_energy": -10.95, "internal_energy": -1.65, "cluster_size": 7, "cluster_id": 2, "rank_in_cluster": 6}

>  <energy>  (11) 
-9.54

>  <cluster_rmsd>  (11) 
0.6

>  <cluster>  (11) 
1

$$$$

     RDKit          3D

 67 71  0  0  0  0  0  0  0  0999 V2000
  139.1410   67.4540  225.0060 O   0  0  0  0  0  0  0  0  0  0  0  0
  139.4330   68.6890  225.1010 C   0  0  0  0  0  0  0  0  0  0  0  0
  140.0850   69.0830  226.2320 C   0  0  0  0  0  0  0  0  0  0  0  0
  140.4240   68.2170  227.2330 C   0  0  0  0  0  0  0  0  0  0  0  0
  141.0880   68.6860  228.3600 C   0  0  0  0  0  0  0  0  0  0  0  0
  141.4220   70.0350  228.4950 C   0  0  0  0  0  0  0  0  0  0  0  0
  141.0710   70.9070  227.4680 C   0  0  0  0  0  0  0  0  0  0  0  0
  140.4080   70.4230  226.3490 C   0  0  0  0  0  0  0  0  0  0  0  0
  140.0550   71.2250  225.3450 N   0  0  0  0  0  0  0  0  0  0  0  0
  139.4140   70.8220  224.2380 C   0  0  0  0  0  0  0  0  0  0  0  0
  139.0830   71.7910  223.1910 C   0  0  0  0  0  0  0  0  0  0  0  0
  140.0440   72.2410  222.4080 C   0  0  0  0  0  0  0  0  0  0  0  0
  140.1550   73.6220  221.9610 C   0  0  0  0  0  0  0  0  0  0  0  0
  139.1030   74.5120  221.9660 C   0  0  0  0  0  0  0  0  0  0  0  0
  139.2490   75.8270  221.5290 C   0  0  0  0  0  0  0  0  0  0  0  0
  140.4870   76.2400  221.0800 C   0  0  0  0  0  0  0  0  0  0  0  0
  140.6040   77.6460  220.6190 C   0  0  0  0  0  0  0  0  0  0  0  0
  141.2840   78.4130  221.6150 N   0  0  0  0  0  0  0  0  0  0  0  0
  141.7960   79.6740  221.1980 C   0  0  0  0  0  0  0  0  0  0  0  0
  141.9180   80.6730  222.3250 C   0  0  0  0  0  0  0  0  0  0  0  0
  142.3280   80.0770  223.6350 C   0  0  0  0  0  0  0  0  0  0  0  0
  141.7820   78.7150  223.9100 C   0  0  0  0  0  0  0  0  0  0  0  0
  140.6620   78.4590  222.9000 C   0  0  0  0  0  0  0  0  0  0  0  0
  141.5350   75.3460  221.0760 C   0  0  0  0  0  0  0  0  0  0  0  0
  141.3360   74.0890  221.5100 N   0  0  0  0  0  0  0  0  0  0  0  0
  139.0880   69.5380  224.0970 N   0  0  0  0  0  0  0  0  0  0  0  0
  138.3910   68.9960  222.9700 C   0  0  0  0  0  0  0  0  0  0  0  0
  139.1890   68.0460  222.1340 C   0  0  0  0  0  0  0  0  0  0  0  0
  139.5020   68.7700  220.8190 C   0  0  0  0  0  0  0  0  0  0  0  0
  140.5740   67.9790  220.1170 C   0  0  0  0  0  0  0  0  0  0  0  0
  139.9990   66.6200  219.7600 C   0  0  0  0  0  0  0  0  0  0  0  0
  139.5350   65.9270  221.0150 C   0  0  0  0  0  0  0  0  0  0  0  0
  138.5210   66.7600  221.7940 C   0  0  0  0  0  0  0  0  0  0  0  0
  140.1716   67.1498  227.1469 H   0  0  0  0  0  0  0  0  0  0  0  0
  141.3556   67.9811  229.1610 H   0  0  0  0  0  0  0  0  0  0  0  0
  141.9487   70.3993  229.3894 H   0  0  0  0  0  0  0  0  0  0  0  0
  141.3184   71.9762  227.5433 H   0  0  0  0  0  0  0  0  0  0  0  0
  138.0476   72.1385  223.0596 H   0  0  0  0  0  0  0  0  0  0  0  0
  140.8105   71.5275  222.0712 H   0  0  0  0  0  0  0  0  0  0  0  0
  138.1196   74.1746  222.3253 H   0  0  0  0  0  0  0  0  0  0  0  0
  138.3958   76.5211  221.5416 H   0  0  0  0  0  0  0  0  0  0  0  0
  141.1728   77.6784  219.6780 H   0  0  0  0  0  0  0  0  0  0  0  0
  139.6005   78.0645  220.4521 H   0  0  0  0  0  0  0  0  0  0  0  0
  142.7931   79.5183  220.7603 H   0  0  0  0  0  0  0  0  0  0  0  0
  141.0836   80.0899  220.4703 H   0  0  0  0  0  0  0  0  0  0  0  0
  142.6681   81.4251  222.0389 H   0  0  0  0  0  0  0  0  0  0  0  0
  140.9166   81.1030  222.4744 H   0  0  0  0  0  0  0  0  0  0  0  0
  143.4260   80.0136  223.6517 H   0  0  0  0  0  0  0  0  0  0  0  0
  141.9151   80.7353  224.4135 H   0  0  0  0  0  0  0  0  0  0  0  0
  142.5744   77.9613  223.7918 H   0  0  0  0  0  0  0  0  0  0  0  0
  141.3993   78.6504  224.9392 H   0  0  0  0  0  0  0  0  0  0  0  0
  140.1648   77.5021  223.1170 H   0  0  0  0  0  0  0  0  0  0  0  0
  139.8952   79.2464  222.9451 H   0  0  0  0  0  0  0  0  0  0  0  0
  142.5279   75.6583  220.7202 H   0  0  0  0  0  0  0  0  0  0  0  0
  137.5037   68.4623  223.3412 H   0  0  0  0  0  0  0  0  0  0  0  0
  138.1455   69.8485  222.3196 H   0  0  0  0  0  0  0  0  0  0  0  0
  140.0706   67.7704  222.7314 H   0  0  0  0  0  0  0  0  0  0  0  0
  138.5993   68.8195  220.1924 H   0  0  0  0  0  0  0  0  0  0  0  0
  139.8400   69.7989  221.0116 H   0  0  0  0  0  0  0  0  0  0  0  0
  140.8862   68.5039  219.2021 H   0  0  0  0  0  0  0  0  0  0  0  0
  141.4513   67.8623  220.7702 H   0  0  0  0  0  0  0  0  0  0  0  0
  139.1471   66.7501  219.0764 H   0  0  0  0  0  0  0  0  0  0  0  0
  140.7726   66.0114  219.2690 H   0  0  0  0  0  0  0  0  0  0  0  0
  139.0691   64.9695  220.7390 H   0  0  0  0  0  0  0  0  0  0  0  0
  140.4128   65.7748  221.6602 H   0  0  0  0  0  0  0  0  0  0  0  0
  137.6308   66.9479  221.1757 H   0  0  0  0  0  0  0  0  0  0  0  0
  138.1937   66.2337  222.7028 H   0  0  0  0  0  0  0  0  0  0  0  0
  1  2  2  0
  2  3  1  0
  3  4  2  0
  4  5  1  0
  5  6  2  0
  6  7  1  0
  7  8  2  0
  8  9  1  0
  9 10  2  0
 10 11  1  0
 11 12  2  0
 12 13  1  0
 13 14  2  0
 14 15  1  0
 15 16  2  0
 16 17  1  0
 17 18  1  0
 18 19  1  0
 19 20  1  0
 20 21  1  0
 21 22  1  0
 22 23  1  0
 16 24  1  0
 24 25  2  0
 10 26  1  0
 26 27  1  0
 27 28  1  0
 28 29  1  0
 29 30  1  0
 30 31  1  0
 31 32  1  0
 32 33  1  0
 26  2  1  0
 33 28  1  0
  8  3  1  0
 25 13  1  0
 23 18  1  0
  4 34  1  0
  5 35  1  0
  6 36  1  0
  7 37  1  0
 11 38  1  0
 12 39  1  0
 14 40  1  0
 15 41  1  0
 17 42  1  0
 17 43  1  0
 19 44  1  0
 19 45  1  0
 20 46  1  0
 20 47  1  0
 21 48  1  0
 21 49  1  0
 22 50  1  0
 22 51  1  0
 23 52  1  0
 23 53  1  0
 24 54  1  0
 27 55  1  0
 27 56  1  0
 28 57  1  0
 29 58  1  0
 29 59  1  0
 30 60  1  0
 30 61  1  0
 31 62  1  0
 31 63  1  0
 32 64  1  0
 32 65  1  0
 33 66  1  0
 33 67  1  0
M  END
>  <smiles>  (12) 
O=c1c2ccccc2nc(/C=C/c2ccc(CN3CCCCC3)cn2)n1CC1CCCCC1

>  <score_type>  (12) 
oracle

>  <origin>  (12) 
autodockgpu

>  <m_score__min__energy>  (12) 
-9.8000000000000007

>  <m_primary>  (12) 
energy

>  <rmsd>  (12) 
6.7350315653546255

>  <m_score__min__rmsd>  (12) 
6.7350315653546255

>  <meeko>  (12) 
{"free_energy": -9.35, "intermolecular_energy": -11.44, "internal_energy": -1.51, "cluster_size": 36, "cluster_id": 1, "rank_in_cluster": 19}

>  <energy>  (12) 
-9.52

>  <cluster_rmsd>  (12) 
0.44

>  <cluster>  (12) 
1

$$$$

     RDKit          3D

 67 71  0  0  0  0  0  0  0  0999 V2000
  138.8670   68.3400  224.9890 O   0  0  0  0  0  0  0  0  0  0  0  0
  139.4620   69.4580  224.8650 C   0  0  0  0  0  0  0  0  0  0  0  0
  139.9450   70.0290  226.0040 C   0  0  0  0  0  0  0  0  0  0  0  0
  139.8140   69.4530  227.2370 C   0  0  0  0  0  0  0  0  0  0  0  0
  140.3310   70.0900  228.3590 C   0  0  0  0  0  0  0  0  0  0  0  0
  140.9890   71.3170  228.2560 C   0  0  0  0  0  0  0  0  0  0  0  0
  141.1160   71.8930  226.9950 C   0  0  0  0  0  0  0  0  0  0  0  0
  140.5940   71.2450  225.8850 C   0  0  0  0  0  0  0  0  0  0  0  0
  140.6960   71.7630  224.6610 N   0  0  0  0  0  0  0  0  0  0  0  0
  140.2150   71.1880  223.5490 C   0  0  0  0  0  0  0  0  0  0  0  0
  140.3920   71.8450  222.2510 C   0  0  0  0  0  0  0  0  0  0  0  0
  139.4170   72.5940  221.7740 C   0  0  0  0  0  0  0  0  0  0  0  0
  139.3550   74.0420  221.9140 C   0  0  0  0  0  0  0  0  0  0  0  0
  140.4630   74.8610  221.8620 C   0  0  0  0  0  0  0  0  0  0  0  0
  140.3620   76.2440  222.0010 C   0  0  0  0  0  0  0  0  0  0  0  0
  139.1140   76.7990  222.1960 C   0  0  0  0  0  0  0  0  0  0  0  0
  139.0460   78.2750  222.3430 C   0  0  0  0  0  0  0  0  0  0  0  0
  140.3700   78.7990  222.4540 N   0  0  0  0  0  0  0  0  0  0  0  0
  140.8610   79.5180  221.3290 C   0  0  0  0  0  0  0  0  0  0  0  0
  141.9140   80.5420  221.6830 C   0  0  0  0  0  0  0  0  0  0  0  0
  142.8370   80.1210  222.7820 C   0  0  0  0  0  0  0  0  0  0  0  0
  142.2070   79.3040  223.8620 C   0  0  0  0  0  0  0  0  0  0  0  0
  140.6910   79.4230  223.6990 C   0  0  0  0  0  0  0  0  0  0  0  0
  138.0110   75.9760  222.2480 C   0  0  0  0  0  0  0  0  0  0  0  0
  138.1680   74.6470  222.1070 N   0  0  0  0  0  0  0  0  0  0  0  0
  139.5840   70.0190  223.6320 N   0  0  0  0  0  0  0  0  0  0  0  0
  139.0160   69.3200  222.5180 C   0  0  0  0  0  0  0  0  0  0  0  0
  137.5650   69.5950  222.2780 C   0  0  0  0  0  0  0  0  0  0  0  0
  137.4440   70.0990  220.8350 C   0  0  0  0  0  0  0  0  0  0  0  0
  135.9840   70.0550  220.4660 C   0  0  0  0  0  0  0  0  0  0  0  0
  135.2440   71.0390  221.3550 C   0  0  0  0  0  0  0  0  0  0  0  0
  135.4600   70.6690  222.8000 C   0  0  0  0  0  0  0  0  0  0  0  0
  136.9390   70.6110  223.1670 C   0  0  0  0  0  0  0  0  0  0  0  0
  139.2998   68.4862  227.3410 H   0  0  0  0  0  0  0  0  0  0  0  0
  140.2196   69.6185  229.3466 H   0  0  0  0  0  0  0  0  0  0  0  0
  141.3964   71.8156  229.1479 H   0  0  0  0  0  0  0  0  0  0  0  0
  141.6288   72.8592  226.8791 H   0  0  0  0  0  0  0  0  0  0  0  0
  141.3248   71.7152  221.6827 H   0  0  0  0  0  0  0  0  0  0  0  0
  138.5986   72.0930  221.2362 H   0  0  0  0  0  0  0  0  0  0  0  0
  141.4543   74.4102  221.7065 H   0  0  0  0  0  0  0  0  0  0  0  0
  141.2585   76.8798  221.9562 H   0  0  0  0  0  0  0  0  0  0  0  0
  138.5513   78.7098  221.4620 H   0  0  0  0  0  0  0  0  0  0  0  0
  138.4716   78.5297  223.2459 H   0  0  0  0  0  0  0  0  0  0  0  0
  141.2980   78.7995  220.6199 H   0  0  0  0  0  0  0  0  0  0  0  0
  140.0098   80.0643  220.8966 H   0  0  0  0  0  0  0  0  0  0  0  0
  142.5165   80.7414  220.7845 H   0  0  0  0  0  0  0  0  0  0  0  0
  141.3787   81.4322  222.0449 H   0  0  0  0  0  0  0  0  0  0  0  0
  143.6491   79.5280  222.3362 H   0  0  0  0  0  0  0  0  0  0  0  0
  143.1833   81.0480  223.2624 H   0  0  0  0  0  0  0  0  0  0  0  0
  142.5142   78.2522  223.7657 H   0  0  0  0  0  0  0  0  0  0  0  0
  142.5207   79.6623  224.8536 H   0  0  0  0  0  0  0  0  0  0  0  0
  140.1778   78.9097  224.5255 H   0  0  0  0  0  0  0  0  0  0  0  0
  140.3692   80.4748  223.7131 H   0  0  0  0  0  0  0  0  0  0  0  0
  137.0089   76.4020  222.4037 H   0  0  0  0  0  0  0  0  0  0  0  0
  139.5728   69.6073  221.6139 H   0  0  0  0  0  0  0  0  0  0  0  0
  139.0931   68.2482  222.7532 H   0  0  0  0  0  0  0  0  0  0  0  0
  137.0315   68.6558  222.4860 H   0  0  0  0  0  0  0  0  0  0  0  0
  137.8193   71.1305  220.7639 H   0  0  0  0  0  0  0  0  0  0  0  0
  138.0372   69.4725  220.1527 H   0  0  0  0  0  0  0  0  0  0  0  0
  135.8573   70.3376  219.4105 H   0  0  0  0  0  0  0  0  0  0  0  0
  135.5854   69.0394  220.6065 H   0  0  0  0  0  0  0  0  0  0  0  0
  135.6259   72.0548  221.1753 H   0  0  0  0  0  0  0  0  0  0  0  0
  134.1690   71.0060  221.1241 H   0  0  0  0  0  0  0  0  0  0  0  0
  134.9670   71.4198  223.4350 H   0  0  0  0  0  0  0  0  0  0  0  0
  135.0341   69.6672  222.9585 H   0  0  0  0  0  0  0  0  0  0  0  0
  137.4073   71.5935  223.0073 H   0  0  0  0  0  0  0  0  0  0  0  0
  137.0720   70.3435  224.2257 H   0  0  0  0  0  0  0  0  0  0  0  0
  1  2  2  0
  2  3  1  0
  3  4  2  0
  4  5  1  0
  5  6  2  0
  6  7  1  0
  7  8  2  0
  8  9  1  0
  9 10  2  0
 10 11  1  0
 11 12  2  0
 12 13  1  0
 13 14  2  0
 14 15  1  0
 15 16  2  0
 16 17  1  0
 17 18  1  0
 18 19  1  0
 19 20  1  0
 20 21  1  0
 21 22  1  0
 22 23  1  0
 16 24  1  0
 24 25  2  0
 10 26  1  0
 26 27  1  0
 27 28  1  0
 28 29  1  0
 29 30  1  0
 30 31  1  0
 31 32  1  0
 32 33  1  0
 26  2  1  0
 33 28  1  0
  8  3  1  0
 25 13  1  0
 23 18  1  0
  4 34  1  0
  5 35  1  0
  6 36  1  0
  7 37  1  0
 11 38  1  0
 12 39  1  0
 14 40  1  0
 15 41  1  0
 17 42  1  0
 17 43  1  0
 19 44  1  0
 19 45  1  0
 20 46  1  0
 20 47  1  0
 21 48  1  0
 21 49  1  0
 22 50  1  0
 22 51  1  0
 23 52  1  0
 23 53  1  0
 24 54  1  0
 27 55  1  0
 27 56  1  0
 28 57  1  0
 29 58  1  0
 29 59  1  0
 30 60  1  0
 30 61  1  0
 31 62  1  0
 31 63  1  0
 32 64  1  0
 32 65  1  0
 33 66  1  0
 33 67  1  0
M  END
>  <smiles>  (13) 
O=c1c2ccccc2nc(/C=C/c2ccc(CN3CCCCC3)cn2)n1CC1CCCCC1

>  <score_type>  (13) 
oracle

>  <origin>  (13) 
autodockgpu

>  <m_score__min__energy>  (13) 
-9.8000000000000007

>  <m_primary>  (13) 
energy

>  <rmsd>  (13) 
6.491868718687243

>  <m_score__min__rmsd>  (13) 
6.491868718687243

>  <meeko>  (13) 
{"free_energy": -8.47, "intermolecular_energy": -10.55, "internal_energy": -1.97, "cluster_size": 36, "cluster_id": 1, "rank_in_cluster": 36}

>  <energy>  (13) 
-9.48

>  <cluster_rmsd>  (13) 
0.74

>  <cluster>  (13) 
1

$$$$

     RDKit          3D

 67 71  0  0  0  0  0  0  0  0999 V2000
  139.1770   67.7810  225.1470 O   0  0  0  0  0  0  0  0  0  0  0  0
  139.5710   68.9780  224.9790 C   0  0  0  0  0  0  0  0  0  0  0  0
  140.0670   69.6240  226.0720 C   0  0  0  0  0  0  0  0  0  0  0  0
  140.1520   69.0390  227.3050 C   0  0  0  0  0  0  0  0  0  0  0  0
  140.6680   69.7550  228.3780 C   0  0  0  0  0  0  0  0  0  0  0  0
  141.1090   71.0720  228.2260 C   0  0  0  0  0  0  0  0  0  0  0  0
  141.0170   71.6550  226.9650 C   0  0  0  0  0  0  0  0  0  0  0  0
  140.4990   70.9270  225.9040 C   0  0  0  0  0  0  0  0  0  0  0  0
  140.3950   71.4500  224.6820 N   0  0  0  0  0  0  0  0  0  0  0  0
  139.9050   70.8020  223.6160 C   0  0  0  0  0  0  0  0  0  0  0  0
  139.8460   71.4730  222.3150 C   0  0  0  0  0  0  0  0  0  0  0  0
  140.7690   72.3670  222.0140 C   0  0  0  0  0  0  0  0  0  0  0  0
  140.4890   73.7670  221.7320 C   0  0  0  0  0  0  0  0  0  0  0  0
  139.2740   74.3680  221.9840 C   0  0  0  0  0  0  0  0  0  0  0  0
  139.0450   75.7130  221.6990 C   0  0  0  0  0  0  0  0  0  0  0  0
  140.0700   76.4550  221.1480 C   0  0  0  0  0  0  0  0  0  0  0  0
  139.7880   77.8820  220.8560 C   0  0  0  0  0  0  0  0  0  0  0  0
  140.5460   78.7050  221.7450 N   0  0  0  0  0  0  0  0  0  0  0  0
  140.5980   78.2840  223.1030 C   0  0  0  0  0  0  0  0  0  0  0  0
  141.8380   78.7530  223.8300 C   0  0  0  0  0  0  0  0  0  0  0  0
  142.3020   80.1190  223.4350 C   0  0  0  0  0  0  0  0  0  0  0  0
  142.1170   80.4600  221.9920 C   0  0  0  0  0  0  0  0  0  0  0  0
  141.8080   79.1590  221.2510 C   0  0  0  0  0  0  0  0  0  0  0  0
  141.2810   75.8490  220.8980 C   0  0  0  0  0  0  0  0  0  0  0  0
  141.4460   74.5480  221.1940 N   0  0  0  0  0  0  0  0  0  0  0  0
  139.4800   69.5470  223.7470 N   0  0  0  0  0  0  0  0  0  0  0  0
  138.9240   68.7620  222.6860 C   0  0  0  0  0  0  0  0  0  0  0  0
  137.4300   68.7860  222.6030 C   0  0  0  0  0  0  0  0  0  0  0  0
  137.0670   69.7130  221.4370 C   0  0  0  0  0  0  0  0  0  0  0  0
  135.6110   69.4860  221.1210 C   0  0  0  0  0  0  0  0  0  0  0  0
  134.7950   69.9270  222.3230 C   0  0  0  0  0  0  0  0  0  0  0  0
  135.2250   69.1430  223.5360 C   0  0  0  0  0  0  0  0  0  0  0  0
  136.7190   69.2810  223.8140 C   0  0  0  0  0  0  0  0  0  0  0  0
  139.8122   68.0025  227.4472 H   0  0  0  0  0  0  0  0  0  0  0  0
  140.7305   69.2758  229.3662 H   0  0  0  0  0  0  0  0  0  0  0  0
  141.5177   71.6330  229.0793 H   0  0  0  0  0  0  0  0  0  0  0  0
  141.3543   72.6905  226.8105 H   0  0  0  0  0  0  0  0  0  0  0  0
  139.0446   71.2353  221.6000 H   0  0  0  0  0  0  0  0  0  0  0  0
  141.8162   72.0328  221.9737 H   0  0  0  0  0  0  0  0  0  0  0  0
  138.4623   73.7690  222.4224 H   0  0  0  0  0  0  0  0  0  0  0  0
  138.0682   76.1733  221.9088 H   0  0  0  0  0  0  0  0  0  0  0  0
  140.0698   78.1070  219.8168 H   0  0  0  0  0  0  0  0  0  0  0  0
  138.7151   78.0812  220.9942 H   0  0  0  0  0  0  0  0  0  0  0  0
  139.7158   78.6823  223.6256 H   0  0  0  0  0  0  0  0  0  0  0  0
  140.6189   77.1842  223.1014 H   0  0  0  0  0  0  0  0  0  0  0  0
  141.6230   78.7605  224.9088 H   0  0  0  0  0  0  0  0  0  0  0  0
  142.6447   78.0555  223.5603 H   0  0  0  0  0  0  0  0  0  0  0  0
  141.7438   80.8544  224.0330 H   0  0  0  0  0  0  0  0  0  0  0  0
  143.3867   80.1380  223.6170 H   0  0  0  0  0  0  0  0  0  0  0  0
  141.2814   81.1660  221.8766 H   0  0  0  0  0  0  0  0  0  0  0  0
  143.0231   80.9329  221.5853 H   0  0  0  0  0  0  0  0  0  0  0  0
  141.7493   79.3424  220.1680 H   0  0  0  0  0  0  0  0  0  0  0  0
  142.5951   78.4085  221.4163 H   0  0  0  0  0  0  0  0  0  0  0  0
  142.1083   76.4258  220.4588 H   0  0  0  0  0  0  0  0  0  0  0  0
  139.3256   69.1400  221.7342 H   0  0  0  0  0  0  0  0  0  0  0  0
  139.2056   67.7189  222.8927 H   0  0  0  0  0  0  0  0  0  0  0  0
  137.1078   67.7414  222.4802 H   0  0  0  0  0  0  0  0  0  0  0  0
  137.2307   70.7620  221.7249 H   0  0  0  0  0  0  0  0  0  0  0  0
  137.6942   69.4987  220.5591 H   0  0  0  0  0  0  0  0  0  0  0  0
  135.3242   70.0765  220.2383 H   0  0  0  0  0  0  0  0  0  0  0  0
  135.4284   68.4230  220.9048 H   0  0  0  0  0  0  0  0  0  0  0  0
  134.9576   70.9999  222.5031 H   0  0  0  0  0  0  0  0  0  0  0  0
  133.7276   69.7459  222.1284 H   0  0  0  0  0  0  0  0  0  0  0  0
  134.6670   69.5094  224.4103 H   0  0  0  0  0  0  0  0  0  0  0  0
  135.0151   68.0807  223.3423 H   0  0  0  0  0  0  0  0  0  0  0  0
  136.9740   70.3350  223.9984 H   0  0  0  0  0  0  0  0  0  0  0  0
  137.0093   68.7049  224.7050 H   0  0  0  0  0  0  0  0  0  0  0  0
  1  2  2  0
  2  3  1  0
  3  4  2  0
  4  5  1  0
  5  6  2  0
  6  7  1  0
  7  8  2  0
  8  9  1  0
  9 10  2  0
 10 11  1  0
 11 12  2  0
 12 13  1  0
 13 14  2  0
 14 15  1  0
 15 16  2  0
 16 17  1  0
 17 18  1  0
 18 19  1  0
 19 20  1  0
 20 21  1  0
 21 22  1  0
 22 23  1  0
 16 24  1  0
 24 25  2  0
 10 26  1  0
 26 27  1  0
 27 28  1  0
 28 29  1  0
 29 30  1  0
 30 31  1  0
 31 32  1  0
 32 33  1  0
 26  2  1  0
 33 28  1  0
  8  3  1  0
 25 13  1  0
 23 18  1  0
  4 34  1  0
  5 35  1  0
  6 36  1  0
  7 37  1  0
 11 38  1  0
 12 39  1  0
 14 40  1  0
 15 41  1  0
 17 42  1  0
 17 43  1  0
 19 44  1  0
 19 45  1  0
 20 46  1  0
 20 47  1  0
 21 48  1  0
 21 49  1  0
 22 50  1  0
 22 51  1  0
 23 52  1  0
 23 53  1  0
 24 54  1  0
 27 55  1  0
 27 56  1  0
 28 57  1  0
 29 58  1  0
 29 59  1  0
 30 60  1  0
 30 61  1  0
 31 62  1  0
 31 63  1  0
 32 64  1  0
 32 65  1  0
 33 66  1  0
 33 67  1  0
M  END
>  <smiles>  (14) 
O=c1c2ccccc2nc(/C=C/c2ccc(CN3CCCCC3)cn2)n1CC1CCCCC1

>  <score_type>  (14) 
oracle

>  <origin>  (14) 
autodockgpu

>  <m_score__min__energy>  (14) 
-9.8000000000000007

>  <m_primary>  (14) 
energy

>  <rmsd>  (14) 
6.63128509361983

>  <m_score__min__rmsd>  (14) 
6.63128509361983

>  <meeko>  (14) 
{"free_energy": -8.93, "intermolecular_energy": -11.01, "internal_energy": -1.67, "cluster_size": 36, "cluster_id": 1, "rank_in_cluster": 31}

>  <energy>  (14) 
-9.4

>  <cluster_rmsd>  (14) 
1.49

>  <cluster>  (14) 
1

$$$$

     RDKit          3D

 67 71  0  0  0  0  0  0  0  0999 V2000
  139.2020   67.7760  225.1320 O   0  0  0  0  0  0  0  0  0  0  0  0
  139.5790   68.9850  225.0120 C   0  0  0  0  0  0  0  0  0  0  0  0
  140.0920   69.5840  226.1250 C   0  0  0  0  0  0  0  0  0  0  0  0
  140.2100   68.9420  227.3260 C   0  0  0  0  0  0  0  0  0  0  0  0
  140.7420   69.6120  228.4210 C   0  0  0  0  0  0  0  0  0  0  0  0
  141.1640   70.9400  228.3230 C   0  0  0  0  0  0  0  0  0  0  0  0
  141.0390   71.5820  227.0930 C   0  0  0  0  0  0  0  0  0  0  0  0
  140.5050   70.8990  226.0100 C   0  0  0  0  0  0  0  0  0  0  0  0
  140.3690   71.4780  224.8170 N   0  0  0  0  0  0  0  0  0  0  0  0
  139.8620   70.8750  223.7310 C   0  0  0  0  0  0  0  0  0  0  0  0
  139.7680   71.6070  222.4660 C   0  0  0  0  0  0  0  0  0  0  0  0
  140.7350   72.4420  222.1360 C   0  0  0  0  0  0  0  0  0  0  0  0
  140.5250   73.8410  221.7950 C   0  0  0  0  0  0  0  0  0  0  0  0
  141.4050   74.5800  221.0330 C   0  0  0  0  0  0  0  0  0  0  0  0
  141.1690   75.9200  220.7280 C   0  0  0  0  0  0  0  0  0  0  0  0
  140.0190   76.5130  221.2070 C   0  0  0  0  0  0  0  0  0  0  0  0
  139.8030   77.9410  220.8640 C   0  0  0  0  0  0  0  0  0  0  0  0
  140.5650   78.7600  221.7540 N   0  0  0  0  0  0  0  0  0  0  0  0
  140.6070   78.3440  223.1140 C   0  0  0  0  0  0  0  0  0  0  0  0
  141.8470   78.8050  223.8440 C   0  0  0  0  0  0  0  0  0  0  0  0
  142.3250   80.1650  223.4470 C   0  0  0  0  0  0  0  0  0  0  0  0
  142.1490   80.5030  222.0020 C   0  0  0  0  0  0  0  0  0  0  0  0
  141.8320   79.2010  221.2640 C   0  0  0  0  0  0  0  0  0  0  0  0
  139.1440   75.7710  221.9680 C   0  0  0  0  0  0  0  0  0  0  0  0
  139.4230   74.4810  222.2310 N   0  0  0  0  0  0  0  0  0  0  0  0
  139.4550   69.6100  223.8110 N   0  0  0  0  0  0  0  0  0  0  0  0
  138.8840   68.8700  222.7260 C   0  0  0  0  0  0  0  0  0  0  0  0
  137.4530   68.4760  222.9180 C   0  0  0  0  0  0  0  0  0  0  0  0
  136.9190   68.0660  221.5400 C   0  0  0  0  0  0  0  0  0  0  0  0
  135.6120   67.3510  221.7620 C   0  0  0  0  0  0  0  0  0  0  0  0
  134.6270   68.3440  222.3540 C   0  0  0  0  0  0  0  0  0  0  0  0
  135.1820   68.8910  223.6440 C   0  0  0  0  0  0  0  0  0  0  0  0
  136.5540   69.5320  223.4580 C   0  0  0  0  0  0  0  0  0  0  0  0
  139.8842   67.8961  227.4256 H   0  0  0  0  0  0  0  0  0  0  0  0
  140.8325   69.0867  229.3832 H   0  0  0  0  0  0  0  0  0  0  0  0
  141.5838   71.4648  229.1938 H   0  0  0  0  0  0  0  0  0  0  0  0
  141.3627   72.6273  226.9809 H   0  0  0  0  0  0  0  0  0  0  0  0
  138.9039   71.4628  221.8007 H   0  0  0  0  0  0  0  0  0  0  0  0
  141.7649   72.0562  222.1175 H   0  0  0  0  0  0  0  0  0  0  0  0
  142.3191   74.0988  220.6550 H   0  0  0  0  0  0  0  0  0  0  0  0
  141.8842   76.4920  220.1187 H   0  0  0  0  0  0  0  0  0  0  0  0
  140.1265   78.1234  219.8286 H   0  0  0  0  0  0  0  0  0  0  0  0
  138.7350   78.1861  220.9602 H   0  0  0  0  0  0  0  0  0  0  0  0
  139.7260   78.7521  223.6309 H   0  0  0  0  0  0  0  0  0  0  0  0
  140.6181   77.2441  223.1172 H   0  0  0  0  0  0  0  0  0  0  0  0
  141.6274   78.8181  224.9218 H   0  0  0  0  0  0  0  0  0  0  0  0
  142.6487   78.0998  223.5795 H   0  0  0  0  0  0  0  0  0  0  0  0
  141.7710   80.9073  224.0403 H   0  0  0  0  0  0  0  0  0  0  0  0
  143.4090   80.1748  223.6337 H   0  0  0  0  0  0  0  0  0  0  0  0
  141.3199   81.2156  221.8806 H   0  0  0  0  0  0  0  0  0  0  0  0
  143.0605   80.9672  221.5975 H   0  0  0  0  0  0  0  0  0  0  0  0
  141.7794   79.3808  220.1801 H   0  0  0  0  0  0  0  0  0  0  0  0
  142.6120   78.4445  221.4354 H   0  0  0  0  0  0  0  0  0  0  0  0
  138.2233   76.2293  222.3583 H   0  0  0  0  0  0  0  0  0  0  0  0
  138.9497   69.4881  221.8185 H   0  0  0  0  0  0  0  0  0  0  0  0
  139.4559   67.9330  222.6560 H   0  0  0  0  0  0  0  0  0  0  0  0
  137.4486   67.6750  223.6719 H   0  0  0  0  0  0  0  0  0  0  0  0
  136.7590   68.9585  220.9173 H   0  0  0  0  0  0  0  0  0  0  0  0
  137.6372   67.4136  221.0218 H   0  0  0  0  0  0  0  0  0  0  0  0
  135.2277   66.9702  220.8042 H   0  0  0  0  0  0  0  0  0  0  0  0
  135.7535   66.5005  222.4451 H   0  0  0  0  0  0  0  0  0  0  0  0
  134.4664   69.1691  221.6445 H   0  0  0  0  0  0  0  0  0  0  0  0
  133.6697   67.8392  222.5507 H   0  0  0  0  0  0  0  0  0  0  0  0
  134.4873   69.6491  224.0348 H   0  0  0  0  0  0  0  0  0  0  0  0
  135.2952   68.0508  224.3449 H   0  0  0  0  0  0  0  0  0  0  0  0
  136.4871   70.3708  222.7495 H   0  0  0  0  0  0  0  0  0  0  0  0
  136.9372   69.9271  224.4104 H   0  0  0  0  0  0  0  0  0  0  0  0
  1  2  2  0
  2  3  1  0
  3  4  2  0
  4  5  1  0
  5  6  2  0
  6  7  1  0
  7  8  2  0
  8  9  1  0
  9 10  2  0
 10 11  1  0
 11 12  2  0
 12 13  1  0
 13 14  2  0
 14 15  1  0
 15 16  2  0
 16 17  1  0
 17 18  1  0
 18 19  1  0
 19 20  1  0
 20 21  1  0
 21 22  1  0
 22 23  1  0
 16 24  1  0
 24 25  2  0
 10 26  1  0
 26 27  1  0
 27 28  1  0
 28 29  1  0
 29 30  1  0
 30 31  1  0
 31 32  1  0
 32 33  1  0
 26  2  1  0
 33 28  1  0
  8  3  1  0
 25 13  1  0
 23 18  1  0
  4 34  1  0
  5 35  1  0
  6 36  1  0
  7 37  1  0
 11 38  1  0
 12 39  1  0
 14 40  1  0
 15 41  1  0
 17 42  1  0
 17 43  1  0
 19 44  1  0
 19 45  1  0
 20 46  1  0
 20 47  1  0
 21 48  1  0
 21 49  1  0
 22 50  1  0
 22 51  1  0
 23 52  1  0
 23 53  1  0
 24 54  1  0
 27 55  1  0
 27 56  1  0
 28 57  1  0
 29 58  1  0
 29 59  1  0
 30 60  1  0
 30 61  1  0
 31 62  1  0
 31 63  1  0
 32 64  1  0
 32 65  1  0
 33 66  1  0
 33 67  1  0
M  END
>  <smiles>  (15) 
O=c1c2ccccc2nc(/C=C/c2ccc(CN3CCCCC3)cn2)n1CC1CCCCC1

>  <score_type>  (15) 
oracle

>  <origin>  (15) 
autodockgpu

>  <m_score__min__energy>  (15) 
-9.8000000000000007

>  <m_primary>  (15) 
energy

>  <rmsd>  (15) 
6.454804823300597

>  <m_score__min__rmsd>  (15) 
6.454804823300597

>  <meeko>  (15) 
{"free_energy": -9.52, "intermolecular_energy": -11.61, "internal_energy": -1.53, "cluster_size": 36, "cluster_id": 1, "rank_in_cluster": 12}

>  <energy>  (15) 
-9.38

>  <cluster_rmsd>  (15) 
0.77

>  <cluster>  (15) 
1

$$$$

     RDKit          3D

 67 71  0  0  0  0  0  0  0  0999 V2000
  138.9710   68.0170  225.3290 O   0  0  0  0  0  0  0  0  0  0  0  0
  139.4650   69.1510  225.0340 C   0  0  0  0  0  0  0  0  0  0  0  0
  140.0010   69.8760  226.0570 C   0  0  0  0  0  0  0  0  0  0  0  0
  140.0240   69.4310  227.3490 C   0  0  0  0  0  0  0  0  0  0  0  0
  140.5860   70.2220  228.3450 C   0  0  0  0  0  0  0  0  0  0  0  0
  141.1360   71.4720  228.0530 C   0  0  0  0  0  0  0  0  0  0  0  0
  141.1070   71.9120  226.7330 C   0  0  0  0  0  0  0  0  0  0  0  0
  140.5410   71.1120  225.7510 C   0  0  0  0  0  0  0  0  0  0  0  0
  140.4950   71.4970  224.4760 N   0  0  0  0  0  0  0  0  0  0  0  0
  139.9640   70.7730  223.4800 C   0  0  0  0  0  0  0  0  0  0  0  0
  139.9760   71.2940  222.1110 C   0  0  0  0  0  0  0  0  0  0  0  0
  140.8250   72.2530  221.7980 C   0  0  0  0  0  0  0  0  0  0  0  0
  140.5150   73.6730  221.8630 C   0  0  0  0  0  0  0  0  0  0  0  0
  141.4050   74.6650  221.5120 C   0  0  0  0  0  0  0  0  0  0  0  0
  141.0700   76.0160  221.5890 C   0  0  0  0  0  0  0  0  0  0  0  0
  139.8090   76.3590  222.0300 C   0  0  0  0  0  0  0  0  0  0  0  0
  139.4890   77.8070  222.1020 C   0  0  0  0  0  0  0  0  0  0  0  0
  140.6890   78.5440  222.3460 N   0  0  0  0  0  0  0  0  0  0  0  0
  141.2470   79.2260  221.2290 C   0  0  0  0  0  0  0  0  0  0  0  0
  142.0710   80.4330  221.6140 C   0  0  0  0  0  0  0  0  0  0  0  0
  142.8550   80.2660  222.8780 C   0  0  0  0  0  0  0  0  0  0  0  0
  142.1810   79.4600  223.9400 C   0  0  0  0  0  0  0  0  0  0  0  0
  140.7100   79.3210  223.5440 C   0  0  0  0  0  0  0  0  0  0  0  0
  138.9230   75.3640  222.3810 C   0  0  0  0  0  0  0  0  0  0  0  0
  139.3010   74.0770  222.2860 N   0  0  0  0  0  0  0  0  0  0  0  0
  139.4350   69.5800  223.7440 N   0  0  0  0  0  0  0  0  0  0  0  0
  138.8270   68.7270  222.7680 C   0  0  0  0  0  0  0  0  0  0  0  0
  137.3420   68.8670  222.6480 C   0  0  0  0  0  0  0  0  0  0  0  0
  137.0790   69.7320  221.4090 C   0  0  0  0  0  0  0  0  0  0  0  0
  135.6160   69.6020  221.0760 C   0  0  0  0  0  0  0  0  0  0  0  0
  134.8180   70.1970  222.2230 C   0  0  0  0  0  0  0  0  0  0  0  0
  135.1590   69.4720  223.4990 C   0  0  0  0  0  0  0  0  0  0  0  0
  136.6540   69.5070  223.8020 C   0  0  0  0  0  0  0  0  0  0  0  0
  139.5985   68.4484  227.6007 H   0  0  0  0  0  0  0  0  0  0  0  0
  140.5976   69.8563  229.3824 H   0  0  0  0  0  0  0  0  0  0  0  0
  141.5804   72.0923  228.8453 H   0  0  0  0  0  0  0  0  0  0  0  0
  141.5318   72.8917  226.4689 H   0  0  0  0  0  0  0  0  0  0  0  0
  139.2864   70.8908  221.3547 H   0  0  0  0  0  0  0  0  0  0  0  0
  141.8323   71.9607  221.4665 H   0  0  0  0  0  0  0  0  0  0  0  0
  142.4085   74.3826  221.1610 H   0  0  0  0  0  0  0  0  0  0  0  0
  141.7959   76.7919  221.3041 H   0  0  0  0  0  0  0  0  0  0  0  0
  139.0446   78.1330  221.1500 H   0  0  0  0  0  0  0  0  0  0  0  0
  138.7738   77.9863  222.9183 H   0  0  0  0  0  0  0  0  0  0  0  0
  141.8915   78.5248  220.6786 H   0  0  0  0  0  0  0  0  0  0  0  0
  140.4078   79.5873  220.6164 H   0  0  0  0  0  0  0  0  0  0  0  0
  142.7762   80.6436  220.7965 H   0  0  0  0  0  0  0  0  0  0  0  0
  141.3619   81.2554  221.7895 H   0  0  0  0  0  0  0  0  0  0  0  0
  143.8052   79.7721  222.6269 H   0  0  0  0  0  0  0  0  0  0  0  0
  142.9829   81.2759  223.2948 H   0  0  0  0  0  0  0  0  0  0  0  0
  142.6470   78.4661  224.0104 H   0  0  0  0  0  0  0  0  0  0  0  0
  142.2749   79.9519  224.9194 H   0  0  0  0  0  0  0  0  0  0  0  0
  140.1481   78.8096  224.3395 H   0  0  0  0  0  0  0  0  0  0  0  0
  140.2426   80.3049  223.3906 H   0  0  0  0  0  0  0  0  0  0  0  0
  137.9140   75.6204  222.7363 H   0  0  0  0  0  0  0  0  0  0  0  0
  139.2723   68.9563  221.7887 H   0  0  0  0  0  0  0  0  0  0  0  0
  139.0142   67.6951  223.1000 H   0  0  0  0  0  0  0  0  0  0  0  0
  136.9355   67.8463  222.5938 H   0  0  0  0  0  0  0  0  0  0  0  0
  137.3244   70.7825  221.6240 H   0  0  0  0  0  0  0  0  0  0  0  0
  137.7020   69.4029  220.5642 H   0  0  0  0  0  0  0  0  0  0  0  0
  135.3952   70.1463  220.1460 H   0  0  0  0  0  0  0  0  0  0  0  0
  135.3494   68.5443  220.9337 H   0  0  0  0  0  0  0  0  0  0  0  0
  135.0669   71.2632  222.3290 H   0  0  0  0  0  0  0  0  0  0  0  0
  133.7428   70.0911  222.0164 H   0  0  0  0  0  0  0  0  0  0  0  0
  134.6180   69.9464  224.3310 H   0  0  0  0  0  0  0  0  0  0  0  0
  134.8644   68.4192  223.3773 H   0  0  0  0  0  0  0  0  0  0  0  0
  136.9931   70.5473  223.9155 H   0  0  0  0  0  0  0  0  0  0  0  0
  136.8792   68.9768  224.7391 H   0  0  0  0  0  0  0  0  0  0  0  0
  1  2  2  0
  2  3  1  0
  3  4  2  0
  4  5  1  0
  5  6  2  0
  6  7  1  0
  7  8  2  0
  8  9  1  0
  9 10  2  0
 10 11  1  0
 11 12  2  0
 12 13  1  0
 13 14  2  0
 14 15  1  0
 15 16  2  0
 16 17  1  0
 17 18  1  0
 18 19  1  0
 19 20  1  0
 20 21  1  0
 21 22  1  0
 22 23  1  0
 16 24  1  0
 24 25  2  0
 10 26  1  0
 26 27  1  0
 27 28  1  0
 28 29  1  0
 29 30  1  0
 30 31  1  0
 31 32  1  0
 32 33  1  0
 26  2  1  0
 33 28  1  0
  8  3  1  0
 25 13  1  0
 23 18  1  0
  4 34  1  0
  5 35  1  0
  6 36  1  0
  7 37  1  0
 11 38  1  0
 12 39  1  0
 14 40  1  0
 15 41  1  0
 17 42  1  0
 17 43  1  0
 19 44  1  0
 19 45  1  0
 20 46  1  0
 20 47  1  0
 21 48  1  0
 21 49  1  0
 22 50  1  0
 22 51  1  0
 23 52  1  0
 23 53  1  0
 24 54  1  0
 27 55  1  0
 27 56  1  0
 28 57  1  0
 29 58  1  0
 29 59  1  0
 30 60  1  0
 30 61  1  0
 31 62  1  0
 31 63  1  0
 32 64  1  0
 32 65  1  0
 33 66  1  0
 33 67  1  0
M  END
>  <smiles>  (16) 
O=c1c2ccccc2nc(/C=C/c2ccc(CN3CCCCC3)cn2)n1CC1CCCCC1

>  <score_type>  (16) 
oracle

>  <origin>  (16) 
autodockgpu

>  <m_score__min__energy>  (16) 
-9.8000000000000007

>  <m_primary>  (16) 
energy

>  <rmsd>  (16) 
6.659716579145701

>  <m_score__min__rmsd>  (16) 
6.659716579145701

>  <meeko>  (16) 
{"free_energy": -9.38, "intermolecular_energy": -11.47, "internal_energy": -1.72, "cluster_size": 36, "cluster_id": 1, "rank_in_cluster": 15}

>  <energy>  (16) 
-9.37

>  <cluster_rmsd>  (16) 
0.48

>  <cluster>  (16) 
1

$$$$

     RDKit          3D

 67 71  0  0  0  0  0  0  0  0999 V2000
  139.1410   67.8000  224.9060 O   0  0  0  0  0  0  0  0  0  0  0  0
  139.5970   68.9860  224.8520 C   0  0  0  0  0  0  0  0  0  0  0  0
  140.0620   69.5210  226.0160 C   0  0  0  0  0  0  0  0  0  0  0  0
  140.0540   68.8410  227.2020 C   0  0  0  0  0  0  0  0  0  0  0  0
  140.5440   69.4470  228.3520 C   0  0  0  0  0  0  0  0  0  0  0  0
  141.0510   70.7480  228.3270 C   0  0  0  0  0  0  0  0  0  0  0  0
  141.0540   71.4300  227.1130 C   0  0  0  0  0  0  0  0  0  0  0  0
  140.5600   70.8110  225.9730 C   0  0  0  0  0  0  0  0  0  0  0  0
  140.5460   71.4300  224.7920 N   0  0  0  0  0  0  0  0  0  0  0  0
  140.0850   70.8900  223.6550 C   0  0  0  0  0  0  0  0  0  0  0  0
  140.1260   71.6610  222.4100 C   0  0  0  0  0  0  0  0  0  0  0  0
  139.4460   72.7880  222.3320 C   0  0  0  0  0  0  0  0  0  0  0  0
  140.0270   74.0690  221.9600 C   0  0  0  0  0  0  0  0  0  0  0  0
  141.1830   74.1970  221.2190 C   0  0  0  0  0  0  0  0  0  0  0  0
  141.7080   75.4430  220.8830 C   0  0  0  0  0  0  0  0  0  0  0  0
  141.0450   76.5760  221.3090 C   0  0  0  0  0  0  0  0  0  0  0  0
  141.6350   77.8850  220.9350 C   0  0  0  0  0  0  0  0  0  0  0  0
  141.4090   78.8230  221.9890 N   0  0  0  0  0  0  0  0  0  0  0  0
  142.5680   79.3810  222.5960 C   0  0  0  0  0  0  0  0  0  0  0  0
  142.3310   80.7450  223.2020 C   0  0  0  0  0  0  0  0  0  0  0  0
  140.9830   80.9130  223.8300 C   0  0  0  0  0  0  0  0  0  0  0  0
  139.8660   80.2090  223.1330 C   0  0  0  0  0  0  0  0  0  0  0  0
  140.3800   79.7870  221.7560 C   0  0  0  0  0  0  0  0  0  0  0  0
  139.8910   76.4430  222.0490 C   0  0  0  0  0  0  0  0  0  0  0  0
  139.4290   75.2140  222.3440 N   0  0  0  0  0  0  0  0  0  0  0  0
  139.5980   69.6510  223.6660 N   0  0  0  0  0  0  0  0  0  0  0  0
  139.0640   68.9780  222.5200 C   0  0  0  0  0  0  0  0  0  0  0  0
  137.5840   69.1110  222.3450 C   0  0  0  0  0  0  0  0  0  0  0  0
  137.0760   69.9640  223.5140 C   0  0  0  0  0  0  0  0  0  0  0  0
  135.6710   70.3920  223.1780 C   0  0  0  0  0  0  0  0  0  0  0  0
  134.8030   69.1470  223.1130 C   0  0  0  0  0  0  0  0  0  0  0  0
  135.3560   68.2040  222.0760 C   0  0  0  0  0  0  0  0  0  0  0  0
  136.8120   67.8380  222.3440 C   0  0  0  0  0  0  0  0  0  0  0  0
  139.6599   67.8149  227.2456 H   0  0  0  0  0  0  0  0  0  0  0  0
  140.5324   68.8911  229.3011 H   0  0  0  0  0  0  0  0  0  0  0  0
  141.4375   71.2212  229.2417 H   0  0  0  0  0  0  0  0  0  0  0  0
  141.4466   72.4561  227.0576 H   0  0  0  0  0  0  0  0  0  0  0  0
  140.7157   71.3048  221.5525 H   0  0  0  0  0  0  0  0  0  0  0  0
  138.3709   72.7578  222.5629 H   0  0  0  0  0  0  0  0  0  0  0  0
  141.7057   73.2891  220.8835 H   0  0  0  0  0  0  0  0  0  0  0  0
  142.6315   75.5221  220.2906 H   0  0  0  0  0  0  0  0  0  0  0  0
  142.7167   77.7678  220.7731 H   0  0  0  0  0  0  0  0  0  0  0  0
  141.1654   78.2501  220.0097 H   0  0  0  0  0  0  0  0  0  0  0  0
  142.9071   78.7005  223.3909 H   0  0  0  0  0  0  0  0  0  0  0  0
  143.3216   79.5041  221.8043 H   0  0  0  0  0  0  0  0  0  0  0  0
  143.0950   80.9164  223.9746 H   0  0  0  0  0  0  0  0  0  0  0  0
  142.3875   81.4707  222.3773 H   0  0  0  0  0  0  0  0  0  0  0  0
  141.0370   80.5300  224.8598 H   0  0  0  0  0  0  0  0  0  0  0  0
  140.7507   81.9867  223.7728 H   0  0  0  0  0  0  0  0  0  0  0  0
  139.5628   79.3223  223.7091 H   0  0  0  0  0  0  0  0  0  0  0  0
  138.9915   80.8692  223.0356 H   0  0  0  0  0  0  0  0  0  0  0  0
  139.5660   79.3400  221.1664 H   0  0  0  0  0  0  0  0  0  0  0  0
  140.7617   80.6499  221.1905 H   0  0  0  0  0  0  0  0  0  0  0  0
  139.3504   77.3357  222.3967 H   0  0  0  0  0  0  0  0  0  0  0  0
  139.5524   69.3887  221.6240 H   0  0  0  0  0  0  0  0  0  0  0  0
  139.2620   67.9066  222.6710 H   0  0  0  0  0  0  0  0  0  0  0  0
  137.4260   69.5506  221.3491 H   0  0  0  0  0  0  0  0  0  0  0  0
  137.0777   69.3717  224.4409 H   0  0  0  0  0  0  0  0  0  0  0  0
  137.7238   70.8395  223.6680 H   0  0  0  0  0  0  0  0  0  0  0  0
  135.2917   71.0711  223.9558 H   0  0  0  0  0  0  0  0  0  0  0  0
  135.6533   70.9206  222.2135 H   0  0  0  0  0  0  0  0  0  0  0  0
  134.7988   68.6510  224.0948 H   0  0  0  0  0  0  0  0  0  0  0  0
  133.7753   69.4298  222.8412 H   0  0  0  0  0  0  0  0  0  0  0  0
  134.7538   67.2835  222.0780 H   0  0  0  0  0  0  0  0  0  0  0  0
  135.3107   68.7118  221.1013 H   0  0  0  0  0  0  0  0  0  0  0  0
  136.9033   67.3393  223.3202 H   0  0  0  0  0  0  0  0  0  0  0  0
  137.1922   67.1472  221.5771 H   0  0  0  0  0  0  0  0  0  0  0  0
  1  2  2  0
  2  3  1  0
  3  4  2  0
  4  5  1  0
  5  6  2  0
  6  7  1  0
  7  8  2  0
  8  9  1  0
  9 10  2  0
 10 11  1  0
 11 12  2  0
 12 13  1  0
 13 14  2  0
 14 15  1  0
 15 16  2  0
 16 17  1  0
 17 18  1  0
 18 19  1  0
 19 20  1  0
 20 21  1  0
 21 22  1  0
 22 23  1  0
 16 24  1  0
 24 25  2  0
 10 26  1  0
 26 27  1  0
 27 28  1  0
 28 29  1  0
 29 30  1  0
 30 31  1  0
 31 32  1  0
 32 33  1  0
 26  2  1  0
 33 28  1  0
  8  3  1  0
 25 13  1  0
 23 18  1  0
  4 34  1  0
  5 35  1  0
  6 36  1  0
  7 37  1  0
 11 38  1  0
 12 39  1  0
 14 40  1  0
 15 41  1  0
 17 42  1  0
 17 43  1  0
 19 44  1  0
 19 45  1  0
 20 46  1  0
 20 47  1  0
 21 48  1  0
 21 49  1  0
 22 50  1  0
 22 51  1  0
 23 52  1  0
 23 53  1  0
 24 54  1  0
 27 55  1  0
 27 56  1  0
 28 57  1  0
 29 58  1  0
 29 59  1  0
 30 60  1  0
 30 61  1  0
 31 62  1  0
 31 63  1  0
 32 64  1  0
 32 65  1  0
 33 66  1  0
 33 67  1  0
M  END
>  <smiles>  (17) 
O=c1c2ccccc2nc(/C=C/c2ccc(CN3CCCCC3)cn2)n1CC1CCCCC1

>  <score_type>  (17) 
oracle

>  <origin>  (17) 
autodockgpu

>  <m_score__min__energy>  (17) 
-9.8000000000000007

>  <m_primary>  (17) 
energy

>  <rmsd>  (17) 
6.611209055353577

>  <m_score__min__rmsd>  (17) 
6.611209055353577

>  <meeko>  (17) 
{"free_energy": -9.36, "intermolecular_energy": -11.45, "internal_energy": -1.52, "cluster_size": 36, "cluster_id": 1, "rank_in_cluster": 17}

>  <energy>  (17) 
-9.36

>  <cluster_rmsd>  (17) 
0.75

>  <cluster>  (17) 
1

$$$$

     RDKit          3D

 67 71  0  0  0  0  0  0  0  0999 V2000
  139.1980   67.7740  225.2260 O   0  0  0  0  0  0  0  0  0  0  0  0
  139.5990   68.9600  225.0010 C   0  0  0  0  0  0  0  0  0  0  0  0
  140.0760   69.6620  226.0680 C   0  0  0  0  0  0  0  0  0  0  0  0
  140.1350   69.1450  227.3320 C   0  0  0  0  0  0  0  0  0  0  0  0
  140.6320   69.9170  228.3740 C   0  0  0  0  0  0  0  0  0  0  0  0
  141.0800   71.2220  228.1600 C   0  0  0  0  0  0  0  0  0  0  0  0
  141.0150   71.7370  226.8680 C   0  0  0  0  0  0  0  0  0  0  0  0
  140.5150   70.9540  225.8380 C   0  0  0  0  0  0  0  0  0  0  0  0
  140.4370   71.4100  224.5880 N   0  0  0  0  0  0  0  0  0  0  0  0
  139.9650   70.7060  223.5480 C   0  0  0  0  0  0  0  0  0  0  0  0
  139.9340   71.3070  222.2130 C   0  0  0  0  0  0  0  0  0  0  0  0
  140.8640   72.1820  221.8830 C   0  0  0  0  0  0  0  0  0  0  0  0
  140.6280   73.6120  221.7430 C   0  0  0  0  0  0  0  0  0  0  0  0
  141.4570   74.4560  221.0350 C   0  0  0  0  0  0  0  0  0  0  0  0
  141.1960   75.8200  220.9240 C   0  0  0  0  0  0  0  0  0  0  0  0
  140.0750   76.3320  221.5440 C   0  0  0  0  0  0  0  0  0  0  0  0
  139.8320   77.7890  221.4070 C   0  0  0  0  0  0  0  0  0  0  0  0
  140.8520   78.5050  222.1070 N   0  0  0  0  0  0  0  0  0  0  0  0
  141.6390   79.4010  221.3300 C   0  0  0  0  0  0  0  0  0  0  0  0
  142.2210   80.5400  222.1350 C   0  0  0  0  0  0  0  0  0  0  0  0
  142.6350   80.1660  223.5220 C   0  0  0  0  0  0  0  0  0  0  0  0
  141.7640   79.1550  224.1940 C   0  0  0  0  0  0  0  0  0  0  0  0
  140.4770   79.0460  223.3750 C   0  0  0  0  0  0  0  0  0  0  0  0
  139.2510   75.4840  222.2510 C   0  0  0  0  0  0  0  0  0  0  0  0
  139.5510   74.1750  222.3240 N   0  0  0  0  0  0  0  0  0  0  0  0
  139.5340   69.4610  223.7390 N   0  0  0  0  0  0  0  0  0  0  0  0
  138.9950   68.6220  222.7110 C   0  0  0  0  0  0  0  0  0  0  0  0
  137.5440   68.8360  222.4200 C   0  0  0  0  0  0  0  0  0  0  0  0
  136.9010   69.3360  223.7200 C   0  0  0  0  0  0  0  0  0  0  0  0
  135.5400   69.8770  223.3670 C   0  0  0  0  0  0  0  0  0  0  0  0
  134.6940   68.7250  222.8560 C   0  0  0  0  0  0  0  0  0  0  0  0
  135.3660   68.1010  221.6610 C   0  0  0  0  0  0  0  0  0  0  0  0
  136.7860   67.6360  221.9720 C   0  0  0  0  0  0  0  0  0  0  0  0
  139.7892   68.1185  227.5237 H   0  0  0  0  0  0  0  0  0  0  0  0
  140.6735   69.4920  229.3877 H   0  0  0  0  0  0  0  0  0  0  0  0
  141.4738   71.8271  228.9899 H   0  0  0  0  0  0  0  0  0  0  0  0
  141.3592   72.7618  226.6647 H   0  0  0  0  0  0  0  0  0  0  0  0
  139.1464   71.0326  221.4958 H   0  0  0  0  0  0  0  0  0  0  0  0
  141.8824   71.8078  221.7021 H   0  0  0  0  0  0  0  0  0  0  0  0
  142.3495   74.0408  220.5440 H   0  0  0  0  0  0  0  0  0  0  0  0
  141.8703   76.4756  220.3534 H   0  0  0  0  0  0  0  0  0  0  0  0
  139.8523   78.0666  220.3428 H   0  0  0  0  0  0  0  0  0  0  0  0
  138.8482   78.0403  221.8302 H   0  0  0  0  0  0  0  0  0  0  0  0
  142.4666   78.8354  220.8770 H   0  0  0  0  0  0  0  0  0  0  0  0
  140.9752   79.8439  220.5729 H   0  0  0  0  0  0  0  0  0  0  0  0
  143.1050   80.9212  221.6028 H   0  0  0  0  0  0  0  0  0  0  0  0
  141.4249   81.2923  222.2365 H   0  0  0  0  0  0  0  0  0  0  0  0
  143.6556   79.7584  223.4745 H   0  0  0  0  0  0  0  0  0  0  0  0
  142.5567   81.0843  224.1225 H   0  0  0  0  0  0  0  0  0  0  0  0
  142.2737   78.1807  224.2254 H   0  0  0  0  0  0  0  0  0  0  0  0
  141.5427   79.4580  225.2280 H   0  0  0  0  0  0  0  0  0  0  0  0
  139.7616   78.3782  223.8772 H   0  0  0  0  0  0  0  0  0  0  0  0
  139.9907   80.0263  223.2629 H   0  0  0  0  0  0  0  0  0  0  0  0
  138.3535   75.8750  222.7526 H   0  0  0  0  0  0  0  0  0  0  0  0
  139.5602   68.8090  221.7860 H   0  0  0  0  0  0  0  0  0  0  0  0
  139.0872   67.5885  223.0763 H   0  0  0  0  0  0  0  0  0  0  0  0
  137.4964   69.5435  221.5791 H   0  0  0  0  0  0  0  0  0  0  0  0
  136.8023   68.5057  224.4348 H   0  0  0  0  0  0  0  0  0  0  0  0
  137.5211   70.1156  224.1866 H   0  0  0  0  0  0  0  0  0  0  0  0
  135.0707   70.3174  224.2591 H   0  0  0  0  0  0  0  0  0  0  0  0
  135.6276   70.6572  222.5966 H   0  0  0  0  0  0  0  0  0  0  0  0
  134.5829   67.9713  223.6495 H   0  0  0  0  0  0  0  0  0  0  0  0
  133.7015   69.0994  222.5649 H   0  0  0  0  0  0  0  0  0  0  0  0
  134.7733   67.2337  221.3347 H   0  0  0  0  0  0  0  0  0  0  0  0
  135.4274   68.8653  220.8723 H   0  0  0  0  0  0  0  0  0  0  0  0
  136.7701   66.8787  222.7697 H   0  0  0  0  0  0  0  0  0  0  0  0
  137.2548   67.1813  221.0869 H   0  0  0  0  0  0  0  0  0  0  0  0
  1  2  2  0
  2  3  1  0
  3  4  2  0
  4  5  1  0
  5  6  2  0
  6  7  1  0
  7  8  2  0
  8  9  1  0
  9 10  2  0
 10 11  1  0
 11 12  2  0
 12 13  1  0
 13 14  2  0
 14 15  1  0
 15 16  2  0
 16 17  1  0
 17 18  1  0
 18 19  1  0
 19 20  1  0
 20 21  1  0
 21 22  1  0
 22 23  1  0
 16 24  1  0
 24 25  2  0
 10 26  1  0
 26 27  1  0
 27 28  1  0
 28 29  1  0
 29 30  1  0
 30 31  1  0
 31 32  1  0
 32 33  1  0
 26  2  1  0
 33 28  1  0
  8  3  1  0
 25 13  1  0
 23 18  1  0
  4 34  1  0
  5 35  1  0
  6 36  1  0
  7 37  1  0
 11 38  1  0
 12 39  1  0
 14 40  1  0
 15 41  1  0
 17 42  1  0
 17 43  1  0
 19 44  1  0
 19 45  1  0
 20 46  1  0
 20 47  1  0
 21 48  1  0
 21 49  1  0
 22 50  1  0
 22 51  1  0
 23 52  1  0
 23 53  1  0
 24 54  1  0
 27 55  1  0
 27 56  1  0
 28 57  1  0
 29 58  1  0
 29 59  1  0
 30 60  1  0
 30 61  1  0
 31 62  1  0
 31 63  1  0
 32 64  1  0
 32 65  1  0
 33 66  1  0
 33 67  1  0
M  END
>  <smiles>  (18) 
O=c1c2ccccc2nc(/C=C/c2ccc(CN3CCCCC3)cn2)n1CC1CCCCC1

>  <score_type>  (18) 
oracle

>  <origin>  (18) 
autodockgpu

>  <m_score__min__energy>  (18) 
-9.8000000000000007

>  <m_primary>  (18) 
energy

>  <rmsd>  (18) 
6.735201254621439

>  <m_score__min__rmsd>  (18) 
6.735201254621439

>  <meeko>  (18) 
{"free_energy": -9.79, "intermolecular_energy": -11.87, "internal_energy": -1.55, "cluster_size": 36, "cluster_id": 1, "rank_in_cluster": 2}

>  <energy>  (18) 
-9.36

>  <cluster_rmsd>  (18) 
0.77

>  <cluster>  (18) 
1

$$$$

     RDKit          3D

 67 71  0  0  0  0  0  0  0  0999 V2000
  139.1960   67.7940  225.2760 O   0  0  0  0  0  0  0  0  0  0  0  0
  139.5740   68.9820  225.0260 C   0  0  0  0  0  0  0  0  0  0  0  0
  140.0660   69.7060  226.0710 C   0  0  0  0  0  0  0  0  0  0  0  0
  140.1630   69.2060  227.3400 C   0  0  0  0  0  0  0  0  0  0  0  0
  140.6740   69.9990  228.3600 C   0  0  0  0  0  0  0  0  0  0  0  0
  141.0970   71.3070  228.1190 C   0  0  0  0  0  0  0  0  0  0  0  0
  140.9940   71.8040  226.8220 C   0  0  0  0  0  0  0  0  0  0  0  0
  140.4800   71.0000  225.8140 C   0  0  0  0  0  0  0  0  0  0  0  0
  140.3660   71.4390  224.5610 N   0  0  0  0  0  0  0  0  0  0  0  0
  139.8790   70.7150  223.5420 C   0  0  0  0  0  0  0  0  0  0  0  0
  139.8080   71.2970  222.2000 C   0  0  0  0  0  0  0  0  0  0  0  0
  140.8930   71.8350  221.6770 C   0  0  0  0  0  0  0  0  0  0  0  0
  141.0710   73.2620  221.4530 C   0  0  0  0  0  0  0  0  0  0  0  0
  142.0660   73.7910  220.6590 C   0  0  0  0  0  0  0  0  0  0  0  0
  142.2040   75.1650  220.4690 C   0  0  0  0  0  0  0  0  0  0  0  0
  141.3150   76.0110  221.0990 C   0  0  0  0  0  0  0  0  0  0  0  0
  141.4950   77.4670  220.8760 C   0  0  0  0  0  0  0  0  0  0  0  0
  140.8850   78.1870  221.9490 N   0  0  0  0  0  0  0  0  0  0  0  0
  141.7640   78.8980  222.8120 C   0  0  0  0  0  0  0  0  0  0  0  0
  141.1160   80.0870  223.4830 C   0  0  0  0  0  0  0  0  0  0  0  0
  139.6830   79.8770  223.8570 C   0  0  0  0  0  0  0  0  0  0  0  0
  138.8920   79.0450  222.9000 C   0  0  0  0  0  0  0  0  0  0  0  0
  139.7100   78.9290  221.6130 C   0  0  0  0  0  0  0  0  0  0  0  0
  140.3230   75.4780  221.8920 C   0  0  0  0  0  0  0  0  0  0  0  0
  140.2370   74.1430  222.0380 N   0  0  0  0  0  0  0  0  0  0  0  0
  139.4710   69.4660  223.7590 N   0  0  0  0  0  0  0  0  0  0  0  0
  138.9210   68.6060  222.7550 C   0  0  0  0  0  0  0  0  0  0  0  0
  137.4340   68.4500  222.8070 C   0  0  0  0  0  0  0  0  0  0  0  0
  137.0590   67.4290  221.7260 C   0  0  0  0  0  0  0  0  0  0  0  0
  135.6360   67.0060  221.9850 C   0  0  0  0  0  0  0  0  0  0  0  0
  134.7420   68.2190  221.7940 C   0  0  0  0  0  0  0  0  0  0  0  0
  135.1730   69.3120  222.7370 C   0  0  0  0  0  0  0  0  0  0  0  0
  136.6420   69.6850  222.5580 C   0  0  0  0  0  0  0  0  0  0  0  0
  139.8369   68.1773  227.5530 H   0  0  0  0  0  0  0  0  0  0  0  0
  140.7466   69.5878  229.3777 H   0  0  0  0  0  0  0  0  0  0  0  0
  141.5009   71.9287  228.9316 H   0  0  0  0  0  0  0  0  0  0  0  0
  141.3190   72.8306  226.5972 H   0  0  0  0  0  0  0  0  0  0  0  0
  138.8635   71.2857  221.6362 H   0  0  0  0  0  0  0  0  0  0  0  0
  141.7154   71.1624  221.3921 H   0  0  0  0  0  0  0  0  0  0  0  0
  142.7713   73.1093  220.1611 H   0  0  0  0  0  0  0  0  0  0  0  0
  143.0047   75.5661  219.8303 H   0  0  0  0  0  0  0  0  0  0  0  0
  142.5687   77.7032  220.8383 H   0  0  0  0  0  0  0  0  0  0  0  0
  141.0252   77.7553  219.9241 H   0  0  0  0  0  0  0  0  0  0  0  0
  142.1197   78.2087  223.5920 H   0  0  0  0  0  0  0  0  0  0  0  0
  142.5860   79.2840  222.1913 H   0  0  0  0  0  0  0  0  0  0  0  0
  141.6810   80.3162  224.3986 H   0  0  0  0  0  0  0  0  0  0  0  0
  141.1338   80.9094  222.7527 H   0  0  0  0  0  0  0  0  0  0  0  0
  139.6564   79.3836  224.8398 H   0  0  0  0  0  0  0  0  0  0  0  0
  139.2169   80.8734  223.8534 H   0  0  0  0  0  0  0  0  0  0  0  0
  138.7167   78.0460  223.3258 H   0  0  0  0  0  0  0  0  0  0  0  0
  137.9141   79.5069  222.6991 H   0  0  0  0  0  0  0  0  0  0  0  0
  139.1326   78.3988  220.8413 H   0  0  0  0  0  0  0  0  0  0  0  0
  139.9651   79.9206  221.2110 H   0  0  0  0  0  0  0  0  0  0  0  0
  139.6065   76.1386  222.4021 H   0  0  0  0  0  0  0  0  0  0  0  0
  139.1876   69.0163  221.7698 H   0  0  0  0  0  0  0  0  0  0  0  0
  139.3433   67.6070  222.9385 H   0  0  0  0  0  0  0  0  0  0  0  0
  137.1878   68.1458  223.8350 H   0  0  0  0  0  0  0  0  0  0  0  0
  137.1400   67.8884  220.7298 H   0  0  0  0  0  0  0  0  0  0  0  0
  137.7353   66.5620  221.7572 H   0  0  0  0  0  0  0  0  0  0  0  0
  135.3474   66.2148  221.2774 H   0  0  0  0  0  0  0  0  0  0  0  0
  135.5345   66.6146  223.0080 H   0  0  0  0  0  0  0  0  0  0  0  0
  134.8242   68.5757  220.7567 H   0  0  0  0  0  0  0  0  0  0  0  0
  133.6982   67.9428  222.0043 H   0  0  0  0  0  0  0  0  0  0  0  0
  134.5563   70.2036  222.5506 H   0  0  0  0  0  0  0  0  0  0  0  0
  135.0426   68.9411  223.7643 H   0  0  0  0  0  0  0  0  0  0  0  0
  136.8184   70.0478  221.5346 H   0  0  0  0  0  0  0  0  0  0  0  0
  136.9327   70.4865  223.2531 H   0  0  0  0  0  0  0  0  0  0  0  0
  1  2  2  0
  2  3  1  0
  3  4  2  0
  4  5  1  0
  5  6  2  0
  6  7  1  0
  7  8  2  0
  8  9  1  0
  9 10  2  0
 10 11  1  0
 11 12  2  0
 12 13  1  0
 13 14  2  0
 14 15  1  0
 15 16  2  0
 16 17  1  0
 17 18  1  0
 18 19  1  0
 19 20  1  0
 20 21  1  0
 21 22  1  0
 22 23  1  0
 16 24  1  0
 24 25  2  0
 10 26  1  0
 26 27  1  0
 27 28  1  0
 28 29  1  0
 29 30  1  0
 30 31  1  0
 31 32  1  0
 32 33  1  0
 26  2  1  0
 33 28  1  0
  8  3  1  0
 25 13  1  0
 23 18  1  0
  4 34  1  0
  5 35  1  0
  6 36  1  0
  7 37  1  0
 11 38  1  0
 12 39  1  0
 14 40  1  0
 15 41  1  0
 17 42  1  0
 17 43  1  0
 19 44  1  0
 19 45  1  0
 20 46  1  0
 20 47  1  0
 21 48  1  0
 21 49  1  0
 22 50  1  0
 22 51  1  0
 23 52  1  0
 23 53  1  0
 24 54  1  0
 27 55  1  0
 27 56  1  0
 28 57  1  0
 29 58  1  0
 29 59  1  0
 30 60  1  0
 30 61  1  0
 31 62  1  0
 31 63  1  0
 32 64  1  0
 32 65  1  0
 33 66  1  0
 33 67  1  0
M  END
>  <smiles>  (19) 
O=c1c2ccccc2nc(/C=C/c2ccc(CN3CCCCC3)cn2)n1CC1CCCCC1

>  <score_type>  (19) 
oracle

>  <origin>  (19) 
autodockgpu

>  <m_score__min__energy>  (19) 
-9.8000000000000007

>  <m_primary>  (19) 
energy

>  <rmsd>  (19) 
6.768494017499842

>  <m_score__min__rmsd>  (19) 
6.768494017499842

>  <meeko>  (19) 
{"free_energy": -9.31, "intermolecular_energy": -11.4, "internal_energy": -1.52, "cluster_size": 36, "cluster_id": 1, "rank_in_cluster": 21}

>  <energy>  (19) 
-9.35

>  <cluster_rmsd>  (19) 
1.38

>  <cluster>  (19) 
1

$$$$

     RDKit          3D

 67 71  0  0  0  0  0  0  0  0999 V2000
  139.1770   67.7030  225.1890 O   0  0  0  0  0  0  0  0  0  0  0  0
  139.4660   68.9400  225.1360 C   0  0  0  0  0  0  0  0  0  0  0  0
  140.1030   69.4720  226.2180 C   0  0  0  0  0  0  0  0  0  0  0  0
  140.4320   68.7360  227.3220 C   0  0  0  0  0  0  0  0  0  0  0  0
  141.0810   69.3410  228.3910 C   0  0  0  0  0  0  0  0  0  0  0  0
  141.4110   70.6980  228.3640 C   0  0  0  0  0  0  0  0  0  0  0  0
  141.0710   71.4360  227.2340 C   0  0  0  0  0  0  0  0  0  0  0  0
  140.4220   70.8170  226.1750 C   0  0  0  0  0  0  0  0  0  0  0  0
  140.0800   71.4890  225.0750 N   0  0  0  0  0  0  0  0  0  0  0  0
  139.4530   70.9520  224.0190 C   0  0  0  0  0  0  0  0  0  0  0  0
  139.1330   71.7850  222.8570 C   0  0  0  0  0  0  0  0  0  0  0  0
  140.0950   72.4830  222.2860 C   0  0  0  0  0  0  0  0  0  0  0  0
  139.9790   73.8870  221.9190 C   0  0  0  0  0  0  0  0  0  0  0  0
  138.7870   74.5790  221.9210 C   0  0  0  0  0  0  0  0  0  0  0  0
  138.7170   75.9240  221.5620 C   0  0  0  0  0  0  0  0  0  0  0  0
  139.8790   76.5720  221.1960 C   0  0  0  0  0  0  0  0  0  0  0  0
  139.7650   78.0020  220.8180 C   0  0  0  0  0  0  0  0  0  0  0  0
  140.5320   78.7930  221.7270 N   0  0  0  0  0  0  0  0  0  0  0  0
  140.5560   78.3540  223.0800 C   0  0  0  0  0  0  0  0  0  0  0  0
  141.7970   78.7820  223.8290 C   0  0  0  0  0  0  0  0  0  0  0  0
  142.3010   80.1400  223.4580 C   0  0  0  0  0  0  0  0  0  0  0  0
  142.1430   80.5050  222.0180 C   0  0  0  0  0  0  0  0  0  0  0  0
  141.8120   79.2210  221.2560 C   0  0  0  0  0  0  0  0  0  0  0  0
  141.0670   75.8750  221.1950 C   0  0  0  0  0  0  0  0  0  0  0  0
  141.0750   74.5780  221.5510 N   0  0  0  0  0  0  0  0  0  0  0  0
  139.1320   69.6600  224.0320 N   0  0  0  0  0  0  0  0  0  0  0  0
  138.4490   68.9810  222.9720 C   0  0  0  0  0  0  0  0  0  0  0  0
  136.9600   68.9340  223.1110 C   0  0  0  0  0  0  0  0  0  0  0  0
  136.3880   69.9180  222.0840 C   0  0  0  0  0  0  0  0  0  0  0  0
  134.9120   69.6390  221.9700 C   0  0  0  0  0  0  0  0  0  0  0  0
  134.2690   69.9550  223.3090 C   0  0  0  0  0  0  0  0  0  0  0  0
  134.9080   69.1140  224.3830 C   0  0  0  0  0  0  0  0  0  0  0  0
  136.4200   69.3090  224.4470 C   0  0  0  0  0  0  0  0  0  0  0  0
  140.1830   67.6654  227.3639 H   0  0  0  0  0  0  0  0  0  0  0  0
  141.3398   68.7401  229.2753 H   0  0  0  0  0  0  0  0  0  0  0  0
  141.9259   71.1708  229.2133 H   0  0  0  0  0  0  0  0  0  0  0  0
  141.3161   72.5070  227.1805 H   0  0  0  0  0  0  0  0  0  0  0  0
  138.1054   71.8275  222.4667 H   0  0  0  0  0  0  0  0  0  0  0  0
  141.0456   71.9719  222.0734 H   0  0  0  0  0  0  0  0  0  0  0  0
  137.8652   74.0552  222.2141 H   0  0  0  0  0  0  0  0  0  0  0  0
  137.7553   76.4579  221.5703 H   0  0  0  0  0  0  0  0  0  0  0  0
  140.1462   78.1434  219.7959 H   0  0  0  0  0  0  0  0  0  0  0  0
  138.7102   78.3113  220.8597 H   0  0  0  0  0  0  0  0  0  0  0  0
  139.6773   78.7678  223.5963 H   0  0  0  0  0  0  0  0  0  0  0  0
  140.5499   77.2541  223.0642 H   0  0  0  0  0  0  0  0  0  0  0  0
  141.5676   78.7816  224.9048 H   0  0  0  0  0  0  0  0  0  0  0  0
  142.5892   78.0675  223.5610 H   0  0  0  0  0  0  0  0  0  0  0  0
  141.7547   80.8818  224.0591 H   0  0  0  0  0  0  0  0  0  0  0  0
  143.3835   80.1279  223.6531 H   0  0  0  0  0  0  0  0  0  0  0  0
  141.3263   81.2327  221.9017 H   0  0  0  0  0  0  0  0  0  0  0  0
  143.0651   80.9615  221.6290 H   0  0  0  0  0  0  0  0  0  0  0  0
  141.7731   79.4192  220.1747 H   0  0  0  0  0  0  0  0  0  0  0  0
  142.5776   78.4489  221.4224 H   0  0  0  0  0  0  0  0  0  0  0  0
  142.0026   76.3756  220.9051 H   0  0  0  0  0  0  0  0  0  0  0  0
  138.6882   69.4929  222.0282 H   0  0  0  0  0  0  0  0  0  0  0  0
  138.7948   67.9372  223.0007 H   0  0  0  0  0  0  0  0  0  0  0  0
  136.6659   67.8851  222.9586 H   0  0  0  0  0  0  0  0  0  0  0  0
  136.5506   70.9520  222.4222 H   0  0  0  0  0  0  0  0  0  0  0  0
  136.8838   69.7960  221.1097 H   0  0  0  0  0  0  0  0  0  0  0  0
  134.4719   70.2727  221.1859 H   0  0  0  0  0  0  0  0  0  0  0  0
  134.7421   68.5852  221.7041 H   0  0  0  0  0  0  0  0  0  0  0  0
  134.4131   71.0201  223.5429 H   0  0  0  0  0  0  0  0  0  0  0  0
  133.1927   69.7329  223.2608 H   0  0  0  0  0  0  0  0  0  0  0  0
  134.4739   69.3914  225.3549 H   0  0  0  0  0  0  0  0  0  0  0  0
  134.7143   68.0579  224.1438 H   0  0  0  0  0  0  0  0  0  0  0  0
  136.6570   70.3598  224.6697 H   0  0  0  0  0  0  0  0  0  0  0  0
  136.8643   68.6894  225.2399 H   0  0  0  0  0  0  0  0  0  0  0  0
  1  2  2  0
  2  3  1  0
  3  4  2  0
  4  5  1  0
  5  6  2  0
  6  7  1  0
  7  8  2  0
  8  9  1  0
  9 10  2  0
 10 11  1  0
 11 12  2  0
 12 13  1  0
 13 14  2  0
 14 15  1  0
 15 16  2  0
 16 17  1  0
 17 18  1  0
 18 19  1  0
 19 20  1  0
 20 21  1  0
 21 22  1  0
 22 23  1  0
 16 24  1  0
 24 25  2  0
 10 26  1  0
 26 27  1  0
 27 28  1  0
 28 29  1  0
 29 30  1  0
 30 31  1  0
 31 32  1  0
 32 33  1  0
 26  2  1  0
 33 28  1  0
  8  3  1  0
 25 13  1  0
 23 18  1  0
  4 34  1  0
  5 35  1  0
  6 36  1  0
  7 37  1  0
 11 38  1  0
 12 39  1  0
 14 40  1  0
 15 41  1  0
 17 42  1  0
 17 43  1  0
 19 44  1  0
 19 45  1  0
 20 46  1  0
 20 47  1  0
 21 48  1  0
 21 49  1  0
 22 50  1  0
 22 51  1  0
 23 52  1  0
 23 53  1  0
 24 54  1  0
 27 55  1  0
 27 56  1  0
 28 57  1  0
 29 58  1  0
 29 59  1  0
 30 60  1  0
 30 61  1  0
 31 62  1  0
 31 63  1  0
 32 64  1  0
 32 65  1  0
 33 66  1  0
 33 67  1  0
M  END
>  <smiles>  (20) 
O=c1c2ccccc2nc(/C=C/c2ccc(CN3CCCCC3)cn2)n1CC1CCCCC1

>  <score_type>  (20) 
oracle

>  <origin>  (20) 
autodockgpu

>  <m_score__min__energy>  (20) 
-9.8000000000000007

>  <m_primary>  (20) 
energy

>  <rmsd>  (20) 
6.569685511769813

>  <m_score__min__rmsd>  (20) 
6.569685511769813

>  <meeko>  (20) 
{"free_energy": -9.19, "intermolecular_energy": -11.28, "internal_energy": -1.6, "cluster_size": 36, "cluster_id": 1, "rank_in_cluster": 23}

>  <energy>  (20) 
-9.34

>  <cluster_rmsd>  (20) 
0.74

>  <cluster>  (20) 
1

$$$$

     RDKit          3D

 67 71  0  0  0  0  0  0  0  0999 V2000
  139.1980   67.6130  225.2910 O   0  0  0  0  0  0  0  0  0  0  0  0
  139.4490   68.8540  225.1710 C   0  0  0  0  0  0  0  0  0  0  0  0
  140.0400   69.4690  226.2350 C   0  0  0  0  0  0  0  0  0  0  0  0
  140.3610   68.8110  227.3890 C   0  0  0  0  0  0  0  0  0  0  0  0
  140.9620   69.5000  228.4360 C   0  0  0  0  0  0  0  0  0  0  0  0
  141.2500   70.8630  228.3360 C   0  0  0  0  0  0  0  0  0  0  0  0
  140.9180   71.5210  227.1550 C   0  0  0  0  0  0  0  0  0  0  0  0
  140.3180   70.8200  226.1190 C   0  0  0  0  0  0  0  0  0  0  0  0
  139.9860   71.4140  224.9730 N   0  0  0  0  0  0  0  0  0  0  0  0
  139.4050   70.7950  223.9350 C   0  0  0  0  0  0  0  0  0  0  0  0
  139.0920   71.5470  222.7180 C   0  0  0  0  0  0  0  0  0  0  0  0
  140.0210   72.3130  222.1820 C   0  0  0  0  0  0  0  0  0  0  0  0
  139.8950   73.7530  222.0110 C   0  0  0  0  0  0  0  0  0  0  0  0
  138.6860   74.4040  221.8940 C   0  0  0  0  0  0  0  0  0  0  0  0
  138.6070   75.7860  221.7310 C   0  0  0  0  0  0  0  0  0  0  0  0
  139.7780   76.5140  221.6860 C   0  0  0  0  0  0  0  0  0  0  0  0
  139.6540   77.9820  221.5080 C   0  0  0  0  0  0  0  0  0  0  0  0
  140.7460   78.6300  222.1640 N   0  0  0  0  0  0  0  0  0  0  0  0
  141.5020   79.5430  221.3780 C   0  0  0  0  0  0  0  0  0  0  0  0
  142.1780   80.6210  222.1930 C   0  0  0  0  0  0  0  0  0  0  0  0
  142.6810   80.1610  223.5250 C   0  0  0  0  0  0  0  0  0  0  0  0
  141.8290   79.1410  224.2080 C   0  0  0  0  0  0  0  0  0  0  0  0
  140.4820   79.1130  223.4830 C   0  0  0  0  0  0  0  0  0  0  0  0
  140.9840   75.8580  221.8020 C   0  0  0  0  0  0  0  0  0  0  0  0
  141.0000   74.5220  221.9590 N   0  0  0  0  0  0  0  0  0  0  0  0
  139.1240   69.4960  224.0170 N   0  0  0  0  0  0  0  0  0  0  0  0
  138.4910   68.7340  222.9820 C   0  0  0  0  0  0  0  0  0  0  0  0
  137.0110   68.5780  223.1310 C   0  0  0  0  0  0  0  0  0  0  0  0
  136.3920   68.9120  221.7690 C   0  0  0  0  0  0  0  0  0  0  0  0
  134.9630   68.4380  221.7980 C   0  0  0  0  0  0  0  0  0  0  0  0
  134.2190   69.2480  222.8450 C   0  0  0  0  0  0  0  0  0  0  0  0
  134.8870   69.0690  224.1840 C   0  0  0  0  0  0  0  0  0  0  0  0
  136.3640   69.4510  224.1490 C   0  0  0  0  0  0  0  0  0  0  0  0
  140.1440   67.7373  227.4892 H   0  0  0  0  0  0  0  0  0  0  0  0
  141.2157   68.9615  229.3610 H   0  0  0  0  0  0  0  0  0  0  0  0
  141.7264   71.4021  229.1681 H   0  0  0  0  0  0  0  0  0  0  0  0
  141.1309   72.5944  227.0435 H   0  0  0  0  0  0  0  0  0  0  0  0
  138.0956   71.4736  222.2577 H   0  0  0  0  0  0  0  0  0  0  0  0
  140.9509   71.8335  221.8422 H   0  0  0  0  0  0  0  0  0  0  0  0
  137.7569   73.8162  221.9303 H   0  0  0  0  0  0  0  0  0  0  0  0
  137.6313   76.2858  221.6401 H   0  0  0  0  0  0  0  0  0  0  0  0
  139.6728   78.2252  220.4354 H   0  0  0  0  0  0  0  0  0  0  0  0
  138.7046   78.3276  221.9430 H   0  0  0  0  0  0  0  0  0  0  0  0
  142.2755   78.9790  220.8362 H   0  0  0  0  0  0  0  0  0  0  0  0
  140.7986   80.0443  220.6969 H   0  0  0  0  0  0  0  0  0  0  0  0
  143.0322   81.0047  221.6158 H   0  0  0  0  0  0  0  0  0  0  0  0
  141.4168   81.3898  222.3919 H   0  0  0  0  0  0  0  0  0  0  0  0
  143.6813   79.7271  223.3799 H   0  0  0  0  0  0  0  0  0  0  0  0
  142.6775   81.0477  224.1760 H   0  0  0  0  0  0  0  0  0  0  0  0
  142.3075   78.1521  224.1513 H   0  0  0  0  0  0  0  0  0  0  0  0
  141.6942   79.3946  225.2698 H   0  0  0  0  0  0  0  0  0  0  0  0
  139.7839   78.4400  224.0024 H   0  0  0  0  0  0  0  0  0  0  0  0
  140.0206   80.1113  223.4582 H   0  0  0  0  0  0  0  0  0  0  0  0
  141.9273   76.4228  221.7665 H   0  0  0  0  0  0  0  0  0  0  0  0
  138.6871   69.2330  222.0215 H   0  0  0  0  0  0  0  0  0  0  0  0
  138.9157   67.7210  223.0407 H   0  0  0  0  0  0  0  0  0  0  0  0
  136.8395   67.5478  223.4762 H   0  0  0  0  0  0  0  0  0  0  0  0
  136.4249   69.9979  221.5967 H   0  0  0  0  0  0  0  0  0  0  0  0
  136.9487   68.4208  220.9573 H   0  0  0  0  0  0  0  0  0  0  0  0
  134.5000   68.5886  220.8116 H   0  0  0  0  0  0  0  0  0  0  0  0
  134.9215   67.3667  222.0443 H   0  0  0  0  0  0  0  0  0  0  0  0
  134.2355   70.3119  222.5659 H   0  0  0  0  0  0  0  0  0  0  0  0
  133.1766   68.9017  222.9051 H   0  0  0  0  0  0  0  0  0  0  0  0
  134.3748   69.7032  224.9226 H   0  0  0  0  0  0  0  0  0  0  0  0
  134.8205   68.0047  224.4541 H   0  0  0  0  0  0  0  0  0  0  0  0
  136.4749   70.5083  223.8665 H   0  0  0  0  0  0  0  0  0  0  0  0
  136.8295   69.3169  225.1366 H   0  0  0  0  0  0  0  0  0  0  0  0
  1  2  2  0
  2  3  1  0
  3  4  2  0
  4  5  1  0
  5  6  2  0
  6  7  1  0
  7  8  2  0
  8  9  1  0
  9 10  2  0
 10 11  1  0
 11 12  2  0
 12 13  1  0
 13 14  2  0
 14 15  1  0
 15 16  2  0
 16 17  1  0
 17 18  1  0
 18 19  1  0
 19 20  1  0
 20 21  1  0
 21 22  1  0
 22 23  1  0
 16 24  1  0
 24 25  2  0
 10 26  1  0
 26 27  1  0
 27 28  1  0
 28 29  1  0
 29 30  1  0
 30 31  1  0
 31 32  1  0
 32 33  1  0
 26  2  1  0
 33 28  1  0
  8  3  1  0
 25 13  1  0
 23 18  1  0
  4 34  1  0
  5 35  1  0
  6 36  1  0
  7 37  1  0
 11 38  1  0
 12 39  1  0
 14 40  1  0
 15 41  1  0
 17 42  1  0
 17 43  1  0
 19 44  1  0
 19 45  1  0
 20 46  1  0
 20 47  1  0
 21 48  1  0
 21 49  1  0
 22 50  1  0
 22 51  1  0
 23 52  1  0
 23 53  1  0
 24 54  1  0
 27 55  1  0
 27 56  1  0
 28 57  1  0
 29 58  1  0
 29 59  1  0
 30 60  1  0
 30 61  1  0
 31 62  1  0
 31 63  1  0
 32 64  1  0
 32 65  1  0
 33 66  1  0
 33 67  1  0
M  END
>  <smiles>  (21) 
O=c1c2ccccc2nc(/C=C/c2ccc(CN3CCCCC3)cn2)n1CC1CCCCC1

>  <score_type>  (21) 
oracle

>  <origin>  (21) 
autodockgpu

>  <m_score__min__energy>  (21) 
-9.8000000000000007

>  <m_primary>  (21) 
energy

>  <rmsd>  (21) 
6.845690261958621

>  <m_score__min__rmsd>  (21) 
6.845690261958621

>  <meeko>  (21) 
{"free_energy": -9.55, "intermolecular_energy": -11.64, "internal_energy": -1.59, "cluster_size": 36, "cluster_id": 1, "rank_in_cluster": 10}

>  <energy>  (21) 
-9.31

>  <cluster_rmsd>  (21) 
0.86

>  <cluster>  (21) 
1

$$$$

     RDKit          3D

 67 71  0  0  0  0  0  0  0  0999 V2000
  138.9900   68.0620  225.3070 O   0  0  0  0  0  0  0  0  0  0  0  0
  139.4910   69.1960  225.0210 C   0  0  0  0  0  0  0  0  0  0  0  0
  140.0270   69.9110  226.0510 C   0  0  0  0  0  0  0  0  0  0  0  0
  140.0430   69.4580  227.3400 C   0  0  0  0  0  0  0  0  0  0  0  0
  140.6060   70.2380  228.3430 C   0  0  0  0  0  0  0  0  0  0  0  0
  141.1630   71.4880  228.0620 C   0  0  0  0  0  0  0  0  0  0  0  0
  141.1400   71.9370  226.7450 C   0  0  0  0  0  0  0  0  0  0  0  0
  140.5740   71.1470  225.7550 C   0  0  0  0  0  0  0  0  0  0  0  0
  140.5330   71.5410  224.4830 N   0  0  0  0  0  0  0  0  0  0  0  0
  140.0020   70.8270  223.4800 C   0  0  0  0  0  0  0  0  0  0  0  0
  140.0210   71.3560  222.1150 C   0  0  0  0  0  0  0  0  0  0  0  0
  140.8920   72.2970  221.8050 C   0  0  0  0  0  0  0  0  0  0  0  0
  140.5910   73.7210  221.8000 C   0  0  0  0  0  0  0  0  0  0  0  0
  141.4520   74.6810  221.3140 C   0  0  0  0  0  0  0  0  0  0  0  0
  141.1260   76.0360  221.3270 C   0  0  0  0  0  0  0  0  0  0  0  0
  139.9050   76.4170  221.8430 C   0  0  0  0  0  0  0  0  0  0  0  0
  139.5940   77.8680  221.8430 C   0  0  0  0  0  0  0  0  0  0  0  0
  140.7660   78.6020  222.2070 N   0  0  0  0  0  0  0  0  0  0  0  0
  141.3640   79.3850  221.1810 C   0  0  0  0  0  0  0  0  0  0  0  0
  142.1430   80.5680  221.7070 C   0  0  0  0  0  0  0  0  0  0  0  0
  142.8680   80.3080  222.9890 C   0  0  0  0  0  0  0  0  0  0  0  0
  142.1600   79.4040  223.9460 C   0  0  0  0  0  0  0  0  0  0  0  0
  140.7130   79.2750  223.4660 C   0  0  0  0  0  0  0  0  0  0  0  0
  139.0480   75.4540  222.3280 C   0  0  0  0  0  0  0  0  0  0  0  0
  139.4150   74.1600  222.2900 N   0  0  0  0  0  0  0  0  0  0  0  0
  139.4670   69.6340  223.7340 N   0  0  0  0  0  0  0  0  0  0  0  0
  138.8580   68.7910  222.7500 C   0  0  0  0  0  0  0  0  0  0  0  0
  137.4020   68.5210  222.9670 C   0  0  0  0  0  0  0  0  0  0  0  0
  136.8240   68.1010  221.6110 C   0  0  0  0  0  0  0  0  0  0  0  0
  135.4650   67.5040  221.8700 C   0  0  0  0  0  0  0  0  0  0  0  0
  134.5690   68.5950  222.4280 C   0  0  0  0  0  0  0  0  0  0  0  0
  135.1790   69.1470  223.6910 C   0  0  0  0  0  0  0  0  0  0  0  0
  136.5960   69.6670  223.4700 C   0  0  0  0  0  0  0  0  0  0  0  0
  139.6105   68.4764  227.5837 H   0  0  0  0  0  0  0  0  0  0  0  0
  140.6132   69.8642  229.3775 H   0  0  0  0  0  0  0  0  0  0  0  0
  141.6077   72.1007  228.8601 H   0  0  0  0  0  0  0  0  0  0  0  0
  141.5699   72.9167  226.4894 H   0  0  0  0  0  0  0  0  0  0  0  0
  139.3191   70.9743  221.3589 H   0  0  0  0  0  0  0  0  0  0  0  0
  141.9112   71.9854  221.5328 H   0  0  0  0  0  0  0  0  0  0  0  0
  142.4240   74.3690  220.9042 H   0  0  0  0  0  0  0  0  0  0  0  0
  141.8280   76.7861  220.9338 H   0  0  0  0  0  0  0  0  0  0  0  0
  139.2661   78.1736  220.8385 H   0  0  0  0  0  0  0  0  0  0  0  0
  138.7911   78.0730  222.5664 H   0  0  0  0  0  0  0  0  0  0  0  0
  142.0490   78.7436  220.6071 H   0  0  0  0  0  0  0  0  0  0  0  0
  140.5488   79.7832  220.5590 H   0  0  0  0  0  0  0  0  0  0  0  0
  142.8823   80.8591  220.9463 H   0  0  0  0  0  0  0  0  0  0  0  0
  141.4090   81.3602  221.9159 H   0  0  0  0  0  0  0  0  0  0  0  0
  143.8391   79.8525  222.7450 H   0  0  0  0  0  0  0  0  0  0  0  0
  142.9551   81.2811  223.4944 H   0  0  0  0  0  0  0  0  0  0  0  0
  142.6424   78.4155  223.9567 H   0  0  0  0  0  0  0  0  0  0  0  0
  142.1963   79.8128  224.9666 H   0  0  0  0  0  0  0  0  0  0  0  0
  140.1236   78.6889  224.1865 H   0  0  0  0  0  0  0  0  0  0  0  0
  140.2338   80.2607  223.3723 H   0  0  0  0  0  0  0  0  0  0  0  0
  138.0706   75.7407  222.7434 H   0  0  0  0  0  0  0  0  0  0  0  0
  138.9737   69.2730  221.7680 H   0  0  0  0  0  0  0  0  0  0  0  0
  139.3664   67.8180  222.8195 H   0  0  0  0  0  0  0  0  0  0  0  0
  137.3403   67.7533  223.7524 H   0  0  0  0  0  0  0  0  0  0  0  0
  136.7311   68.9778  220.9533 H   0  0  0  0  0  0  0  0  0  0  0  0
  137.4821   67.3720  221.1156 H   0  0  0  0  0  0  0  0  0  0  0  0
  135.0420   67.1183  220.9307 H   0  0  0  0  0  0  0  0  0  0  0  0
  135.5442   66.6727  222.5860 H   0  0  0  0  0  0  0  0  0  0  0  0
  134.4675   69.4013  221.6867 H   0  0  0  0  0  0  0  0  0  0  0  0
  133.5766   68.1766  222.6518 H   0  0  0  0  0  0  0  0  0  0  0  0
  134.5514   69.9739  224.0549 H   0  0  0  0  0  0  0  0  0  0  0  0
  135.2311   68.3293  224.4249 H   0  0  0  0  0  0  0  0  0  0  0  0
  136.5897   70.4797  222.7287 H   0  0  0  0  0  0  0  0  0  0  0  0
  137.0192   70.0673  224.4031 H   0  0  0  0  0  0  0  0  0  0  0  0
  1  2  2  0
  2  3  1  0
  3  4  2  0
  4  5  1  0
  5  6  2  0
  6  7  1  0
  7  8  2  0
  8  9  1  0
  9 10  2  0
 10 11  1  0
 11 12  2  0
 12 13  1  0
 13 14  2  0
 14 15  1  0
 15 16  2  0
 16 17  1  0
 17 18  1  0
 18 19  1  0
 19 20  1  0
 20 21  1  0
 21 22  1  0
 22 23  1  0
 16 24  1  0
 24 25  2  0
 10 26  1  0
 26 27  1  0
 27 28  1  0
 28 29  1  0
 29 30  1  0
 30 31  1  0
 31 32  1  0
 32 33  1  0
 26  2  1  0
 33 28  1  0
  8  3  1  0
 25 13  1  0
 23 18  1  0
  4 34  1  0
  5 35  1  0
  6 36  1  0
  7 37  1  0
 11 38  1  0
 12 39  1  0
 14 40  1  0
 15 41  1  0
 17 42  1  0
 17 43  1  0
 19 44  1  0
 19 45  1  0
 20 46  1  0
 20 47  1  0
 21 48  1  0
 21 49  1  0
 22 50  1  0
 22 51  1  0
 23 52  1  0
 23 53  1  0
 24 54  1  0
 27 55  1  0
 27 56  1  0
 28 57  1  0
 29 58  1  0
 29 59  1  0
 30 60  1  0
 30 61  1  0
 31 62  1  0
 31 63  1  0
 32 64  1  0
 32 65  1  0
 33 66  1  0
 33 67  1  0
M  END
>  <smiles>  (22) 
O=c1c2ccccc2nc(/C=C/c2ccc(CN3CCCCC3)cn2)n1CC1CCCCC1

>  <score_type>  (22) 
oracle

>  <origin>  (22) 
autodockgpu

>  <m_score__min__energy>  (22) 
-9.8000000000000007

>  <m_primary>  (22) 
energy

>  <rmsd>  (22) 
6.651964242416335

>  <m_score__min__rmsd>  (22) 
6.651964242416335

>  <meeko>  (22) 
{"free_energy": -9.64, "intermolecular_energy": -11.73, "internal_energy": -1.6, "cluster_size": 36, "cluster_id": 1, "rank_in_cluster": 7}

>  <energy>  (22) 
-9.28

>  <cluster_rmsd>  (22) 
0.65

>  <cluster>  (22) 
1

$$$$

     RDKit          3D

 67 71  0  0  0  0  0  0  0  0999 V2000
  139.1960   67.9000  225.3420 O   0  0  0  0  0  0  0  0  0  0  0  0
  139.5690   69.0810  225.0520 C   0  0  0  0  0  0  0  0  0  0  0  0
  140.0890   69.8300  226.0660 C   0  0  0  0  0  0  0  0  0  0  0  0
  140.2160   69.3630  227.3440 C   0  0  0  0  0  0  0  0  0  0  0  0
  140.7540   70.1800  228.3310 C   0  0  0  0  0  0  0  0  0  0  0  0
  141.1730   71.4810  228.0450 C   0  0  0  0  0  0  0  0  0  0  0  0
  141.0370   71.9450  226.7390 C   0  0  0  0  0  0  0  0  0  0  0  0
  140.4980   71.1170  225.7660 C   0  0  0  0  0  0  0  0  0  0  0  0
  140.3530   71.5230  224.5040 N   0  0  0  0  0  0  0  0  0  0  0  0
  139.8400   70.7740  223.5170 C   0  0  0  0  0  0  0  0  0  0  0  0
  139.7360   71.3220  222.1630 C   0  0  0  0  0  0  0  0  0  0  0  0
  138.7170   72.1050  221.8660 C   0  0  0  0  0  0  0  0  0  0  0  0
  138.7460   73.5570  221.9630 C   0  0  0  0  0  0  0  0  0  0  0  0
  139.9010   74.3040  221.8730 C   0  0  0  0  0  0  0  0  0  0  0  0
  139.8870   75.6940  221.9710 C   0  0  0  0  0  0  0  0  0  0  0  0
  138.6790   76.3310  222.1640 C   0  0  0  0  0  0  0  0  0  0  0  0
  138.7040   77.8110  222.2670 C   0  0  0  0  0  0  0  0  0  0  0  0
  140.0570   78.2510  222.4090 N   0  0  0  0  0  0  0  0  0  0  0  0
  140.7250   78.6320  221.2120 C   0  0  0  0  0  0  0  0  0  0  0  0
  141.8330   79.6340  221.4360 C   0  0  0  0  0  0  0  0  0  0  0  0
  142.5970   79.4340  222.7070 C   0  0  0  0  0  0  0  0  0  0  0  0
  141.7850   78.9560  223.8670 C   0  0  0  0  0  0  0  0  0  0  0  0
  140.3120   79.1400  223.4990 C   0  0  0  0  0  0  0  0  0  0  0  0
  137.5280   75.5800  222.2540 C   0  0  0  0  0  0  0  0  0  0  0  0
  137.6010   74.2400  222.1520 N   0  0  0  0  0  0  0  0  0  0  0  0
  139.4360   69.5320  223.7760 N   0  0  0  0  0  0  0  0  0  0  0  0
  138.8590   68.6470  222.8090 C   0  0  0  0  0  0  0  0  0  0  0  0
  137.3640   68.5880  222.8230 C   0  0  0  0  0  0  0  0  0  0  0  0
  136.8900   69.0740  221.4480 C   0  0  0  0  0  0  0  0  0  0  0  0
  135.4360   68.7050  221.3200 C   0  0  0  0  0  0  0  0  0  0  0  0
  134.6590   69.4820  222.3680 C   0  0  0  0  0  0  0  0  0  0  0  0
  135.1940   69.1490  223.7370 C   0  0  0  0  0  0  0  0  0  0  0  0
  136.6900   69.4230  223.8550 C   0  0  0  0  0  0  0  0  0  0  0  0
  139.8926   68.3411  227.5912 H   0  0  0  0  0  0  0  0  0  0  0  0
  140.8516   69.7947  229.3567 H   0  0  0  0  0  0  0  0  0  0  0  0
  141.5992   72.1224  228.8305 H   0  0  0  0  0  0  0  0  0  0  0  0
  141.3562   72.9653  226.4800 H   0  0  0  0  0  0  0  0  0  0  0  0
  140.4965   71.0841  221.4047 H   0  0  0  0  0  0  0  0  0  0  0  0
  137.7858   71.6304  221.5231 H   0  0  0  0  0  0  0  0  0  0  0  0
  140.8605   73.7885  221.7195 H   0  0  0  0  0  0  0  0  0  0  0  0
  140.8203   76.2714  221.8959 H   0  0  0  0  0  0  0  0  0  0  0  0
  138.2681   78.2502  221.3576 H   0  0  0  0  0  0  0  0  0  0  0  0
  138.1186   78.1299  223.1420 H   0  0  0  0  0  0  0  0  0  0  0  0
  141.1574   77.7311  220.7521 H   0  0  0  0  0  0  0  0  0  0  0  0
  139.9786   79.1130  220.5627 H   0  0  0  0  0  0  0  0  0  0  0  0
  142.5384   79.5613  220.5951 H   0  0  0  0  0  0  0  0  0  0  0  0
  141.3543   80.6217  221.5085 H   0  0  0  0  0  0  0  0  0  0  0  0
  143.3875   78.6933  222.5163 H   0  0  0  0  0  0  0  0  0  0  0  0
  142.9831   80.4241  222.9910 H   0  0  0  0  0  0  0  0  0  0  0  0
  141.9946   77.8937  224.0607 H   0  0  0  0  0  0  0  0  0  0  0  0
  142.0328   79.5241  224.7758 H   0  0  0  0  0  0  0  0  0  0  0  0
  139.6707   78.8859  224.3558 H   0  0  0  0  0  0  0  0  0  0  0  0
  140.0958   80.1828  223.2236 H   0  0  0  0  0  0  0  0  0  0  0  0
  136.5562   76.0718  222.4081 H   0  0  0  0  0  0  0  0  0  0  0  0
  139.1787   68.9773  221.8097 H   0  0  0  0  0  0  0  0  0  0  0  0
  139.2103   67.6369  223.0664 H   0  0  0  0  0  0  0  0  0  0  0  0
  137.0951   67.5490  223.0641 H   0  0  0  0  0  0  0  0  0  0  0  0
  137.0097   70.1649  221.3724 H   0  0  0  0  0  0  0  0  0  0  0  0
  137.4819   68.6098  220.6454 H   0  0  0  0  0  0  0  0  0  0  0  0
  135.0718   68.9666  220.3156 H   0  0  0  0  0  0  0  0  0  0  0  0
  135.3023   67.6235  221.4700 H   0  0  0  0  0  0  0  0  0  0  0  0
  134.7705   70.5605  222.1828 H   0  0  0  0  0  0  0  0  0  0  0  0
  133.5947   69.2095  222.3132 H   0  0  0  0  0  0  0  0  0  0  0  0
  134.6626   69.7586  224.4826 H   0  0  0  0  0  0  0  0  0  0  0  0
  135.0335   68.0745  223.9094 H   0  0  0  0  0  0  0  0  0  0  0  0
  136.8952   70.4883  223.6731 H   0  0  0  0  0  0  0  0  0  0  0  0
  137.0575   69.1776  224.8623 H   0  0  0  0  0  0  0  0  0  0  0  0
  1  2  2  0
  2  3  1  0
  3  4  2  0
  4  5  1  0
  5  6  2  0
  6  7  1  0
  7  8  2  0
  8  9  1  0
  9 10  2  0
 10 11  1  0
 11 12  2  0
 12 13  1  0
 13 14  2  0
 14 15  1  0
 15 16  2  0
 16 17  1  0
 17 18  1  0
 18 19  1  0
 19 20  1  0
 20 21  1  0
 21 22  1  0
 22 23  1  0
 16 24  1  0
 24 25  2  0
 10 26  1  0
 26 27  1  0
 27 28  1  0
 28 29  1  0
 29 30  1  0
 30 31  1  0
 31 32  1  0
 32 33  1  0
 26  2  1  0
 33 28  1  0
  8  3  1  0
 25 13  1  0
 23 18  1  0
  4 34  1  0
  5 35  1  0
  6 36  1  0
  7 37  1  0
 11 38  1  0
 12 39  1  0
 14 40  1  0
 15 41  1  0
 17 42  1  0
 17 43  1  0
 19 44  1  0
 19 45  1  0
 20 46  1  0
 20 47  1  0
 21 48  1  0
 21 49  1  0
 22 50  1  0
 22 51  1  0
 23 52  1  0
 23 53  1  0
 24 54  1  0
 27 55  1  0
 27 56  1  0
 28 57  1  0
 29 58  1  0
 29 59  1  0
 30 60  1  0
 30 61  1  0
 31 62  1  0
 31 63  1  0
 32 64  1  0
 32 65  1  0
 33 66  1  0
 33 67  1  0
M  END
>  <smiles>  (23) 
O=c1c2ccccc2nc(/C=C/c2ccc(CN3CCCCC3)cn2)n1CC1CCCCC1

>  <score_type>  (23) 
oracle

>  <origin>  (23) 
autodockgpu

>  <m_score__min__energy>  (23) 
-9.8000000000000007

>  <m_primary>  (23) 
energy

>  <rmsd>  (23) 
6.551447945180334

>  <m_score__min__rmsd>  (23) 
6.551447945180334

>  <meeko>  (23) 
{"free_energy": -8.62, "intermolecular_energy": -10.71, "internal_energy": -1.83, "cluster_size": 36, "cluster_id": 1, "rank_in_cluster": 34}

>  <energy>  (23) 
-9.19

>  <cluster_rmsd>  (23) 
0.71

>  <cluster>  (23) 
1

$$$$

     RDKit          3D

 67 71  0  0  0  0  0  0  0  0999 V2000
  139.1940   67.5950  225.0180 O   0  0  0  0  0  0  0  0  0  0  0  0
  139.5500   68.8150  224.9830 C   0  0  0  0  0  0  0  0  0  0  0  0
  140.1080   69.3280  226.1160 C   0  0  0  0  0  0  0  0  0  0  0  0
  140.2920   68.5900  227.2520 C   0  0  0  0  0  0  0  0  0  0  0  0
  140.8680   69.1750  228.3730 C   0  0  0  0  0  0  0  0  0  0  0  0
  141.2690   70.5130  228.3670 C   0  0  0  0  0  0  0  0  0  0  0  0
  141.0760   71.2530  227.2030 C   0  0  0  0  0  0  0  0  0  0  0  0
  140.5000   70.6540  226.0930 C   0  0  0  0  0  0  0  0  0  0  0  0
  140.2990   71.3280  224.9600 N   0  0  0  0  0  0  0  0  0  0  0  0
  139.7480   70.8100  223.8530 C   0  0  0  0  0  0  0  0  0  0  0  0
  139.5830   71.6440  222.6600 C   0  0  0  0  0  0  0  0  0  0  0  0
  140.6180   72.3240  222.2070 C   0  0  0  0  0  0  0  0  0  0  0  0
  140.5830   73.7410  221.8760 C   0  0  0  0  0  0  0  0  0  0  0  0
  141.5620   74.3770  221.1420 C   0  0  0  0  0  0  0  0  0  0  0  0
  141.4920   75.7380  220.8460 C   0  0  0  0  0  0  0  0  0  0  0  0
  140.4100   76.4590  221.3050 C   0  0  0  0  0  0  0  0  0  0  0  0
  140.3710   77.9050  220.9730 C   0  0  0  0  0  0  0  0  0  0  0  0
  141.1930   78.6230  221.8960 N   0  0  0  0  0  0  0  0  0  0  0  0
  141.8640   79.7680  221.3830 C   0  0  0  0  0  0  0  0  0  0  0  0
  142.1720   80.8050  222.4390 C   0  0  0  0  0  0  0  0  0  0  0  0
  142.5420   80.2350  223.7720 C   0  0  0  0  0  0  0  0  0  0  0  0
  141.8160   78.9860  224.1520 C   0  0  0  0  0  0  0  0  0  0  0  0
  140.6330   78.8360  223.1930 C   0  0  0  0  0  0  0  0  0  0  0  0
  139.4350   75.8190  222.0380 C   0  0  0  0  0  0  0  0  0  0  0  0
  139.5540   74.5030  222.2930 N   0  0  0  0  0  0  0  0  0  0  0  0
  139.3600   69.5370  223.8460 N   0  0  0  0  0  0  0  0  0  0  0  0
  138.7460   68.8810  222.7300 C   0  0  0  0  0  0  0  0  0  0  0  0
  137.2500   68.9050  222.7320 C   0  0  0  0  0  0  0  0  0  0  0  0
  136.8240   69.9280  221.6710 C   0  0  0  0  0  0  0  0  0  0  0  0
  135.3540   69.7230  221.4170 C   0  0  0  0  0  0  0  0  0  0  0  0
  134.6050   70.0560  222.6960 C   0  0  0  0  0  0  0  0  0  0  0  0
  135.1000   69.1720  223.8110 C   0  0  0  0  0  0  0  0  0  0  0  0
  136.6070   69.2910  224.0170 C   0  0  0  0  0  0  0  0  0  0  0  0
  139.9844   67.5342  227.2786 H   0  0  0  0  0  0  0  0  0  0  0  0
  141.0109   68.5730  229.2825 H   0  0  0  0  0  0  0  0  0  0  0  0
  141.7250   70.9699  229.2577 H   0  0  0  0  0  0  0  0  0  0  0  0
  141.3796   72.3096  227.1643 H   0  0  0  0  0  0  0  0  0  0  0  0
  138.6103   71.7021  222.1497 H   0  0  0  0  0  0  0  0  0  0  0  0
  141.5679   71.7864  222.0706 H   0  0  0  0  0  0  0  0  0  0  0  0
  142.4221   73.7946  220.7799 H   0  0  0  0  0  0  0  0  0  0  0  0
  142.2836   76.2262  220.2585 H   0  0  0  0  0  0  0  0  0  0  0  0
  140.7466   78.0577  219.9504 H   0  0  0  0  0  0  0  0  0  0  0  0
  139.3357   78.2709  221.0391 H   0  0  0  0  0  0  0  0  0  0  0  0
  142.8106   79.4425  220.9270 H   0  0  0  0  0  0  0  0  0  0  0  0
  141.1910   80.2388  220.6512 H   0  0  0  0  0  0  0  0  0  0  0  0
  143.0109   81.4209  222.0828 H   0  0  0  0  0  0  0  0  0  0  0  0
  141.2496   81.3851  222.5894 H   0  0  0  0  0  0  0  0  0  0  0  0
  143.6192   80.0125  223.7601 H   0  0  0  0  0  0  0  0  0  0  0  0
  142.2587   80.9923  224.5178 H   0  0  0  0  0  0  0  0  0  0  0  0
  142.4864   78.1187  224.0609 H   0  0  0  0  0  0  0  0  0  0  0  0
  141.4675   79.0405  225.1939 H   0  0  0  0  0  0  0  0  0  0  0  0
  140.0120   77.9765  223.4856 H   0  0  0  0  0  0  0  0  0  0  0  0
  139.9895   79.7280  223.2092 H   0  0  0  0  0  0  0  0  0  0  0  0
  138.5656   76.3795  222.4121 H   0  0  0  0  0  0  0  0  0  0  0  0
  139.0947   69.3729  221.8100 H   0  0  0  0  0  0  0  0  0  0  0  0
  139.0383   67.8225  222.7945 H   0  0  0  0  0  0  0  0  0  0  0  0
  136.9212   67.8733  222.5384 H   0  0  0  0  0  0  0  0  0  0  0  0
  137.0038   70.9490  222.0388 H   0  0  0  0  0  0  0  0  0  0  0  0
  137.4021   69.7927  220.7450 H   0  0  0  0  0  0  0  0  0  0  0  0
  135.0196   70.3858  220.6053 H   0  0  0  0  0  0  0  0  0  0  0  0
  135.1593   68.6817  221.1206 H   0  0  0  0  0  0  0  0  0  0  0  0
  134.7784   71.1100  222.9589 H   0  0  0  0  0  0  0  0  0  0  0  0
  133.5283   69.8887  222.5452 H   0  0  0  0  0  0  0  0  0  0  0  0
  134.5915   69.4596  224.7431 H   0  0  0  0  0  0  0  0  0  0  0  0
  134.8784   68.1296  223.5384 H   0  0  0  0  0  0  0  0  0  0  0  0
  136.8728   70.3262  224.2771 H   0  0  0  0  0  0  0  0  0  0  0  0
  136.9450   68.6411  224.8376 H   0  0  0  0  0  0  0  0  0  0  0  0
  1  2  2  0
  2  3  1  0
  3  4  2  0
  4  5  1  0
  5  6  2  0
  6  7  1  0
  7  8  2  0
  8  9  1  0
  9 10  2  0
 10 11  1  0
 11 12  2  0
 12 13  1  0
 13 14  2  0
 14 15  1  0
 15 16  2  0
 16 17  1  0
 17 18  1  0
 18 19  1  0
 19 20  1  0
 20 21  1  0
 21 22  1  0
 22 23  1  0
 16 24  1  0
 24 25  2  0
 10 26  1  0
 26 27  1  0
 27 28  1  0
 28 29  1  0
 29 30  1  0
 30 31  1  0
 31 32  1  0
 32 33  1  0
 26  2  1  0
 33 28  1  0
  8  3  1  0
 25 13  1  0
 23 18  1  0
  4 34  1  0
  5 35  1  0
  6 36  1  0
  7 37  1  0
 11 38  1  0
 12 39  1  0
 14 40  1  0
 15 41  1  0
 17 42  1  0
 17 43  1  0
 19 44  1  0
 19 45  1  0
 20 46  1  0
 20 47  1  0
 21 48  1  0
 21 49  1  0
 22 50  1  0
 22 51  1  0
 23 52  1  0
 23 53  1  0
 24 54  1  0
 27 55  1  0
 27 56  1  0
 28 57  1  0
 29 58  1  0
 29 59  1  0
 30 60  1  0
 30 61  1  0
 31 62  1  0
 31 63  1  0
 32 64  1  0
 32 65  1  0
 33 66  1  0
 33 67  1  0
M  END
>  <smiles>  (24) 
O=c1c2ccccc2nc(/C=C/c2ccc(CN3CCCCC3)cn2)n1CC1CCCCC1

>  <score_type>  (24) 
oracle

>  <origin>  (24) 
autodockgpu

>  <m_score__min__energy>  (24) 
-9.8000000000000007

>  <m_primary>  (24) 
energy

>  <rmsd>  (24) 
6.749933802271789

>  <m_score__min__rmsd>  (24) 
6.749933802271789

>  <meeko>  (24) 
{"free_energy": -9.67, "intermolecular_energy": -11.75, "internal_energy": -1.59, "cluster_size": 36, "cluster_id": 1, "rank_in_cluster": 4}

>  <energy>  (24) 
-9.18

>  <cluster_rmsd>  (24) 
0.86

>  <cluster>  (24) 
1

$$$$

     RDKit          3D

 67 71  0  0  0  0  0  0  0  0999 V2000
  139.1830   67.9260  225.0030 O   0  0  0  0  0  0  0  0  0  0  0  0
  139.6220   69.1140  224.8800 C   0  0  0  0  0  0  0  0  0  0  0  0
  140.0890   69.7180  226.0090 C   0  0  0  0  0  0  0  0  0  0  0  0
  140.0990   69.1050  227.2300 C   0  0  0  0  0  0  0  0  0  0  0  0
  140.5900   69.7800  228.3410 C   0  0  0  0  0  0  0  0  0  0  0  0
  141.0790   71.0840  228.2400 C   0  0  0  0  0  0  0  0  0  0  0  0
  141.0630   71.6970  226.9900 C   0  0  0  0  0  0  0  0  0  0  0  0
  140.5690   71.0100  225.8900 C   0  0  0  0  0  0  0  0  0  0  0  0
  140.5380   71.5630  224.6770 N   0  0  0  0  0  0  0  0  0  0  0  0
  140.0750   70.9540  223.5750 C   0  0  0  0  0  0  0  0  0  0  0  0
  140.0960   71.6550  222.2900 C   0  0  0  0  0  0  0  0  0  0  0  0
  139.4320   72.7880  222.1670 C   0  0  0  0  0  0  0  0  0  0  0  0
  140.0440   74.0600  221.8130 C   0  0  0  0  0  0  0  0  0  0  0  0
  141.1060   74.1800  220.9420 C   0  0  0  0  0  0  0  0  0  0  0  0
  141.6650   75.4180  220.6290 C   0  0  0  0  0  0  0  0  0  0  0  0
  141.1330   76.5500  221.2130 C   0  0  0  0  0  0  0  0  0  0  0  0
  141.7560   77.8490  220.8580 C   0  0  0  0  0  0  0  0  0  0  0  0
  141.4740   78.8030  221.8840 N   0  0  0  0  0  0  0  0  0  0  0  0
  142.5300   79.0780  222.7970 C   0  0  0  0  0  0  0  0  0  0  0  0
  142.4450   80.4540  223.4160 C   0  0  0  0  0  0  0  0  0  0  0  0
  141.0510   80.9170  223.6990 C   0  0  0  0  0  0  0  0  0  0  0  0
  140.0250   80.4900  222.6990 C   0  0  0  0  0  0  0  0  0  0  0  0
  140.7740   79.9770  221.4680 C   0  0  0  0  0  0  0  0  0  0  0  0
  140.0720   76.4240  222.0830 C   0  0  0  0  0  0  0  0  0  0  0  0
  139.5730   75.2040  222.3480 N   0  0  0  0  0  0  0  0  0  0  0  0
  139.6050   69.7110  223.6580 N   0  0  0  0  0  0  0  0  0  0  0  0
  139.0710   68.9690  222.5560 C   0  0  0  0  0  0  0  0  0  0  0  0
  137.5950   69.1120  222.3570 C   0  0  0  0  0  0  0  0  0  0  0  0
  137.0650   69.9220  223.5460 C   0  0  0  0  0  0  0  0  0  0  0  0
  135.6680   70.3650  223.1980 C   0  0  0  0  0  0  0  0  0  0  0  0
  134.8000   69.1260  223.0690 C   0  0  0  0  0  0  0  0  0  0  0  0
  135.3720   68.2220  222.0080 C   0  0  0  0  0  0  0  0  0  0  0  0
  136.8220   67.8420  222.2920 C   0  0  0  0  0  0  0  0  0  0  0  0
  139.7187   68.0780  227.3335 H   0  0  0  0  0  0  0  0  0  0  0  0
  140.5935   69.2771  229.3193 H   0  0  0  0  0  0  0  0  0  0  0  0
  141.4662   71.6124  229.1237 H   0  0  0  0  0  0  0  0  0  0  0  0
  141.4411   72.7235  226.8746 H   0  0  0  0  0  0  0  0  0  0  0  0
  140.6577   71.2426  221.4389 H   0  0  0  0  0  0  0  0  0  0  0  0
  138.3464   72.7703  222.3433 H   0  0  0  0  0  0  0  0  0  0  0  0
  141.5241   73.2730  220.4810 H   0  0  0  0  0  0  0  0  0  0  0  0
  142.5122   75.4913  219.9313 H   0  0  0  0  0  0  0  0  0  0  0  0
  142.8445   77.7212  220.7640 H   0  0  0  0  0  0  0  0  0  0  0  0
  141.3472   78.2049  219.9008 H   0  0  0  0  0  0  0  0  0  0  0  0
  142.4975   78.3304  223.6032 H   0  0  0  0  0  0  0  0  0  0  0  0
  143.4705   79.0353  222.2281 H   0  0  0  0  0  0  0  0  0  0  0  0
  143.0025   80.4402  224.3641 H   0  0  0  0  0  0  0  0  0  0  0  0
  142.8670   81.1561  222.6819 H   0  0  0  0  0  0  0  0  0  0  0  0
  140.7538   80.5222  224.6818 H   0  0  0  0  0  0  0  0  0  0  0  0
  141.0793   82.0159  223.6583 H   0  0  0  0  0  0  0  0  0  0  0  0
  139.3999   79.6888  223.1200 H   0  0  0  0  0  0  0  0  0  0  0  0
  139.3682   81.3311  222.4322 H   0  0  0  0  0  0  0  0  0  0  0  0
  140.0636   79.7321  220.6647 H   0  0  0  0  0  0  0  0  0  0  0  0
  141.4660   80.7369  221.0760 H   0  0  0  0  0  0  0  0  0  0  0  0
  139.6362   77.3156  222.5575 H   0  0  0  0  0  0  0  0  0  0  0  0
  139.5741   69.3094  221.6389 H   0  0  0  0  0  0  0  0  0  0  0  0
  139.2506   67.9077  222.7825 H   0  0  0  0  0  0  0  0  0  0  0  0
  137.4573   69.5894  221.3756 H   0  0  0  0  0  0  0  0  0  0  0  0
  137.0472   69.2959  224.4502 H   0  0  0  0  0  0  0  0  0  0  0  0
  137.7108   70.7898  223.7453 H   0  0  0  0  0  0  0  0  0  0  0  0
  135.2740   71.0154  223.9928 H   0  0  0  0  0  0  0  0  0  0  0  0
  135.6707   70.9291  222.2536 H   0  0  0  0  0  0  0  0  0  0  0  0
  134.7758   68.5931  224.0310 H   0  0  0  0  0  0  0  0  0  0  0  0
  133.7782   69.4210  222.7883 H   0  0  0  0  0  0  0  0  0  0  0  0
  134.7680   67.3038  221.9623 H   0  0  0  0  0  0  0  0  0  0  0  0
  135.3475   68.7666  221.0526 H   0  0  0  0  0  0  0  0  0  0  0  0
  136.8923   67.3065  223.2503 H   0  0  0  0  0  0  0  0  0  0  0  0
  137.2170   67.1794  221.5078 H   0  0  0  0  0  0  0  0  0  0  0  0
  1  2  2  0
  2  3  1  0
  3  4  2  0
  4  5  1  0
  5  6  2  0
  6  7  1  0
  7  8  2  0
  8  9  1  0
  9 10  2  0
 10 11  1  0
 11 12  2  0
 12 13  1  0
 13 14  2  0
 14 15  1  0
 15 16  2  0
 16 17  1  0
 17 18  1  0
 18 19  1  0
 19 20  1  0
 20 21  1  0
 21 22  1  0
 22 23  1  0
 16 24  1  0
 24 25  2  0
 10 26  1  0
 26 27  1  0
 27 28  1  0
 28 29  1  0
 29 30  1  0
 30 31  1  0
 31 32  1  0
 32 33  1  0
 26  2  1  0
 33 28  1  0
  8  3  1  0
 25 13  1  0
 23 18  1  0
  4 34  1  0
  5 35  1  0
  6 36  1  0
  7 37  1  0
 11 38  1  0
 12 39  1  0
 14 40  1  0
 15 41  1  0
 17 42  1  0
 17 43  1  0
 19 44  1  0
 19 45  1  0
 20 46  1  0
 20 47  1  0
 21 48  1  0
 21 49  1  0
 22 50  1  0
 22 51  1  0
 23 52  1  0
 23 53  1  0
 24 54  1  0
 27 55  1  0
 27 56  1  0
 28 57  1  0
 29 58  1  0
 29 59  1  0
 30 60  1  0
 30 61  1  0
 31 62  1  0
 31 63  1  0
 32 64  1  0
 32 65  1  0
 33 66  1  0
 33 67  1  0
M  END
>  <smiles>  (25) 
O=c1c2ccccc2nc(/C=C/c2ccc(CN3CCCCC3)cn2)n1CC1CCCCC1

>  <score_type>  (25) 
oracle

>  <origin>  (25) 
autodockgpu

>  <m_score__min__energy>  (25) 
-9.8000000000000007

>  <m_primary>  (25) 
energy

>  <rmsd>  (25) 
6.582536684321694

>  <m_score__min__rmsd>  (25) 
6.582536684321694

>  <meeko>  (25) 
{"free_energy": -9.36, "intermolecular_energy": -11.45, "internal_energy": -1.52, "cluster_size": 36, "cluster_id": 1, "rank_in_cluster": 18}

>  <energy>  (25) 
-9.16

>  <cluster_rmsd>  (25) 
0.84

>  <cluster>  (25) 
1

$$$$

     RDKit          3D

 67 71  0  0  0  0  0  0  0  0999 V2000
  146.3090   72.4110  219.3920 O   0  0  0  0  0  0  0  0  0  0  0  0
  145.2500   71.7640  219.6690 C   0  0  0  0  0  0  0  0  0  0  0  0
  145.2210   70.4480  219.3140 C   0  0  0  0  0  0  0  0  0  0  0  0
  146.2650   69.8240  218.6900 C   0  0  0  0  0  0  0  0  0  0  0  0
  146.1690   68.4790  218.3550 C   0  0  0  0  0  0  0  0  0  0  0  0
  145.0200   67.7400  218.6450 C   0  0  0  0  0  0  0  0  0  0  0  0
  143.9640   68.3880  219.2810 C   0  0  0  0  0  0  0  0  0  0  0  0
  144.0750   69.7320  219.6080 C   0  0  0  0  0  0  0  0  0  0  0  0
  143.0870   70.3870  220.2170 N   0  0  0  0  0  0  0  0  0  0  0  0
  143.1300   71.6830  220.5600 C   0  0  0  0  0  0  0  0  0  0  0  0
  141.9860   72.2980  221.2360 C   0  0  0  0  0  0  0  0  0  0  0  0
  141.0590   72.8940  220.5120 C   0  0  0  0  0  0  0  0  0  0  0  0
  140.5640   74.2390  220.7630 C   0  0  0  0  0  0  0  0  0  0  0  0
  139.9890   75.0340  219.7940 C   0  0  0  0  0  0  0  0  0  0  0  0
  139.5270   76.3190  220.0740 C   0  0  0  0  0  0  0  0  0  0  0  0
  139.6540   76.8000  221.3610 C   0  0  0  0  0  0  0  0  0  0  0  0
  139.1540   78.1730  221.6210 C   0  0  0  0  0  0  0  0  0  0  0  0
  140.2320   78.9870  222.0890 N   0  0  0  0  0  0  0  0  0  0  0  0
  140.4320   79.0190  223.4970 C   0  0  0  0  0  0  0  0  0  0  0  0
  141.8580   79.3260  223.8930 C   0  0  0  0  0  0  0  0  0  0  0  0
  142.5460   80.3100  223.0010 C   0  0  0  0  0  0  0  0  0  0  0  0
  142.1850   80.2160  221.5550 C   0  0  0  0  0  0  0  0  0  0  0  0
  141.4530   78.8880  221.3520 C   0  0  0  0  0  0  0  0  0  0  0  0
  140.2300   76.0030  222.3250 C   0  0  0  0  0  0  0  0  0  0  0  0
  140.6580   74.7700  221.9970 N   0  0  0  0  0  0  0  0  0  0  0  0
  144.2190   72.3990  220.2890 N   0  0  0  0  0  0  0  0  0  0  0  0
  144.3740   73.7900  220.5930 C   0  0  0  0  0  0  0  0  0  0  0  0
  144.0680   74.7180  219.4600 C   0  0  0  0  0  0  0  0  0  0  0  0
  143.2150   75.8540  220.0380 C   0  0  0  0  0  0  0  0  0  0  0  0
  143.1850   76.9570  219.0130 C   0  0  0  0  0  0  0  0  0  0  0  0
  142.4700   76.4340  217.7790 C   0  0  0  0  0  0  0  0  0  0  0  0
  143.1920   75.2180  217.2590 C   0  0  0  0  0  0  0  0  0  0  0  0
  143.3200   74.1260  218.3170 C   0  0  0  0  0  0  0  0  0  0  0  0
  147.1803   70.3863  218.4533 H   0  0  0  0  0  0  0  0  0  0  0  0
  147.0142   67.9868  217.8517 H   0  0  0  0  0  0  0  0  0  0  0  0
  144.9510   66.6750  218.3783 H   0  0  0  0  0  0  0  0  0  0  0  0
  143.0441   67.8357  219.5236 H   0  0  0  0  0  0  0  0  0  0  0  0
  141.9011   72.2633  222.3322 H   0  0  0  0  0  0  0  0  0  0  0  0
  140.6325   72.3386  219.6637 H   0  0  0  0  0  0  0  0  0  0  0  0
  139.8921   74.6428  218.7705 H   0  0  0  0  0  0  0  0  0  0  0  0
  139.0710   76.9363  219.2859 H   0  0  0  0  0  0  0  0  0  0  0  0
  138.7487   78.5988  220.6913 H   0  0  0  0  0  0  0  0  0  0  0  0
  138.3606   78.1385  222.3821 H   0  0  0  0  0  0  0  0  0  0  0  0
  139.7770   79.7922  223.9249 H   0  0  0  0  0  0  0  0  0  0  0  0
  140.1966   78.0157  223.8817 H   0  0  0  0  0  0  0  0  0  0  0  0
  141.8518   79.7330  224.9149 H   0  0  0  0  0  0  0  0  0  0  0  0
  142.4176   78.3824  223.8122 H   0  0  0  0  0  0  0  0  0  0  0  0
  142.2923   81.3217  223.3503 H   0  0  0  0  0  0  0  0  0  0  0  0
  143.6200   80.0808  223.0637 H   0  0  0  0  0  0  0  0  0  0  0  0
  141.5288   81.0536  221.2760 H   0  0  0  0  0  0  0  0  0  0  0  0
  143.0860   80.2632  220.9257 H   0  0  0  0  0  0  0  0  0  0  0  0
  141.2417   78.7287  220.2843 H   0  0  0  0  0  0  0  0  0  0  0  0
  142.0612   78.0390  221.6974 H   0  0  0  0  0  0  0  0  0  0  0  0
  140.3395   76.3715  223.3556 H   0  0  0  0  0  0  0  0  0  0  0  0
  143.7004   74.0350  221.4274 H   0  0  0  0  0  0  0  0  0  0  0  0
  145.4368   73.9373  220.8354 H   0  0  0  0  0  0  0  0  0  0  0  0
  145.0367   75.0324  219.0444 H   0  0  0  0  0  0  0  0  0  0  0  0
  142.1940   75.4953  220.2351 H   0  0  0  0  0  0  0  0  0  0  0  0
  143.6384   76.2152  220.9868 H   0  0  0  0  0  0  0  0  0  0  0  0
  142.6453   77.8265  219.4164 H   0  0  0  0  0  0  0  0  0  0  0  0
  144.2086   77.2683  218.7575 H   0  0  0  0  0  0  0  0  0  0  0  0
  141.4366   76.1629  218.0411 H   0  0  0  0  0  0  0  0  0  0  0  0
  142.4585   77.2138  217.0033 H   0  0  0  0  0  0  0  0  0  0  0  0
  142.6345   74.8155  216.4004 H   0  0  0  0  0  0  0  0  0  0  0  0
  144.2070   75.5270  216.9688 H   0  0  0  0  0  0  0  0  0  0  0  0
  142.3226   73.7992  218.6461 H   0  0  0  0  0  0  0  0  0  0  0  0
  143.8456   73.2473  217.9149 H   0  0  0  0  0  0  0  0  0  0  0  0
  1  2  2  0
  2  3  1  0
  3  4  2  0
  4  5  1  0
  5  6  2  0
  6  7  1  0
  7  8  2  0
  8  9  1  0
  9 10  2  0
 10 11  1  0
 11 12  2  0
 12 13  1  0
 13 14  2  0
 14 15  1  0
 15 16  2  0
 16 17  1  0
 17 18  1  0
 18 19  1  0
 19 20  1  0
 20 21  1  0
 21 22  1  0
 22 23  1  0
 16 24  1  0
 24 25  2  0
 10 26  1  0
 26 27  1  0
 27 28  1  0
 28 29  1  0
 29 30  1  0
 30 31  1  0
 31 32  1  0
 32 33  1  0
 26  2  1  0
 33 28  1  0
  8  3  1  0
 25 13  1  0
 23 18  1  0
  4 34  1  0
  5 35  1  0
  6 36  1  0
  7 37  1  0
 11 38  1  0
 12 39  1  0
 14 40  1  0
 15 41  1  0
 17 42  1  0
 17 43  1  0
 19 44  1  0
 19 45  1  0
 20 46  1  0
 20 47  1  0
 21 48  1  0
 21 49  1  0
 22 50  1  0
 22 51  1  0
 23 52  1  0
 23 53  1  0
 24 54  1  0
 27 55  1  0
 27 56  1  0
 28 57  1  0
 29 58  1  0
 29 59  1  0
 30 60  1  0
 30 61  1  0
 31 62  1  0
 31 63  1  0
 32 64  1  0
 32 65  1  0
 33 66  1  0
 33 67  1  0
M  END
>  <smiles>  (26) 
O=c1c2ccccc2nc(/C=C/c2ccc(CN3CCCCC3)cn2)n1CC1CCCCC1

>  <score_type>  (26) 
oracle

>  <origin>  (26) 
autodockgpu

>  <m_score__min__energy>  (26) 
-9.8000000000000007

>  <m_primary>  (26) 
energy

>  <rmsd>  (26) 
6.188499176618804

>  <m_score__min__rmsd>  (26) 
6.188499176618804

>  <meeko>  (26) 
{"free_energy": -7.68, "intermolecular_energy": -9.77, "internal_energy": -2.79, "cluster_size": 2, "cluster_id": 6, "rank_in_cluster": 2}

>  <energy>  (26) 
-9.16

>  <cluster_rmsd>  (26) 
1.48

>  <cluster>  (26) 
1

$$$$

     RDKit          3D

 67 71  0  0  0  0  0  0  0  0999 V2000
  138.9880   67.8480  224.9620 O   0  0  0  0  0  0  0  0  0  0  0  0
  139.4720   69.0230  224.9000 C   0  0  0  0  0  0  0  0  0  0  0  0
  139.9830   69.5410  226.0530 C   0  0  0  0  0  0  0  0  0  0  0  0
  139.9900   68.8560  227.2360 C   0  0  0  0  0  0  0  0  0  0  0  0
  140.5260   69.4440  228.3750 C   0  0  0  0  0  0  0  0  0  0  0  0
  141.0650   70.7310  228.3400 C   0  0  0  0  0  0  0  0  0  0  0  0
  141.0520   71.4180  227.1290 C   0  0  0  0  0  0  0  0  0  0  0  0
  140.5120   70.8180  226.0010 C   0  0  0  0  0  0  0  0  0  0  0  0
  140.4810   71.4420  224.8230 N   0  0  0  0  0  0  0  0  0  0  0  0
  139.9750   70.9180  223.6970 C   0  0  0  0  0  0  0  0  0  0  0  0
  140.0030   71.6940  222.4550 C   0  0  0  0  0  0  0  0  0  0  0  0
  139.2400   72.7650  222.3510 C   0  0  0  0  0  0  0  0  0  0  0  0
  139.7050   74.0560  221.8670 C   0  0  0  0  0  0  0  0  0  0  0  0
  141.0290   74.3430  221.6110 C   0  0  0  0  0  0  0  0  0  0  0  0
  141.4340   75.5930  221.1470 C   0  0  0  0  0  0  0  0  0  0  0  0
  140.4760   76.5640  220.9420 C   0  0  0  0  0  0  0  0  0  0  0  0
  140.9460   77.8830  220.4510 C   0  0  0  0  0  0  0  0  0  0  0  0
  141.4610   78.6390  221.5490 N   0  0  0  0  0  0  0  0  0  0  0  0
  141.7970   79.9950  221.2780 C   0  0  0  0  0  0  0  0  0  0  0  0
  141.7200   80.8870  222.4960 C   0  0  0  0  0  0  0  0  0  0  0  0
  142.1570   80.2310  223.7680 C   0  0  0  0  0  0  0  0  0  0  0  0
  141.8070   78.7830  223.8870 C   0  0  0  0  0  0  0  0  0  0  0  0
  140.7830   78.4690  222.7950 C   0  0  0  0  0  0  0  0  0  0  0  0
  139.1550   76.2720  221.2000 C   0  0  0  0  0  0  0  0  0  0  0  0
  138.8210   75.0480  221.6450 N   0  0  0  0  0  0  0  0  0  0  0  0
  139.4570   69.6920  223.7160 N   0  0  0  0  0  0  0  0  0  0  0  0
  138.8750   69.0380  222.5830 C   0  0  0  0  0  0  0  0  0  0  0  0
  137.4080   69.2720  222.4070 C   0  0  0  0  0  0  0  0  0  0  0  0
  137.2480   70.1450  221.1560 C   0  0  0  0  0  0  0  0  0  0  0  0
  135.7930   70.1080  220.7680 C   0  0  0  0  0  0  0  0  0  0  0  0
  134.9920   70.7590  221.8830 C   0  0  0  0  0  0  0  0  0  0  0  0
  135.2380   70.0200  223.1730 C   0  0  0  0  0  0  0  0  0  0  0  0
  136.7200   69.9610  223.5320 C   0  0  0  0  0  0  0  0  0  0  0  0
  139.5716   67.8399  227.2861 H   0  0  0  0  0  0  0  0  0  0  0  0
  140.5256   68.8847  229.3222 H   0  0  0  0  0  0  0  0  0  0  0  0
  141.4888   71.1904  229.2452 H   0  0  0  0  0  0  0  0  0  0  0  0
  141.4689   72.4340  227.0670 H   0  0  0  0  0  0  0  0  0  0  0  0
  140.6512   71.3879  221.6207 H   0  0  0  0  0  0  0  0  0  0  0  0
  138.1849   72.6765  222.6492 H   0  0  0  0  0  0  0  0  0  0  0  0
  141.7869   73.5634  221.7777 H   0  0  0  0  0  0  0  0  0  0  0  0
  142.4957   75.8011  220.9483 H   0  0  0  0  0  0  0  0  0  0  0  0
  141.7385   77.7355  219.7025 H   0  0  0  0  0  0  0  0  0  0  0  0
  140.1069   78.4256  219.9911 H   0  0  0  0  0  0  0  0  0  0  0  0
  142.8242   80.0281  220.8858 H   0  0  0  0  0  0  0  0  0  0  0  0
  141.0625   80.3728  220.5516 H   0  0  0  0  0  0  0  0  0  0  0  0
  142.3616   81.7635  222.3223 H   0  0  0  0  0  0  0  0  0  0  0  0
  140.6604   81.1520  222.6260 H   0  0  0  0  0  0  0  0  0  0  0  0
  143.2506   80.3245  223.8415 H   0  0  0  0  0  0  0  0  0  0  0  0
  141.6182   80.7441  224.5782 H   0  0  0  0  0  0  0  0  0  0  0  0
  142.7069   78.1659  223.7473 H   0  0  0  0  0  0  0  0  0  0  0  0
  141.3931   78.5639  224.8823 H   0  0  0  0  0  0  0  0  0  0  0  0
  140.4243   77.4340  222.8954 H   0  0  0  0  0  0  0  0  0  0  0  0
  139.9065   79.1298  222.8668 H   0  0  0  0  0  0  0  0  0  0  0  0
  138.3784   77.0351  221.0430 H   0  0  0  0  0  0  0  0  0  0  0  0
  139.3894   69.3971  221.6794 H   0  0  0  0  0  0  0  0  0  0  0  0
  138.9975   67.9581  222.7529 H   0  0  0  0  0  0  0  0  0  0  0  0
  136.9388   68.2793  222.3410 H   0  0  0  0  0  0  0  0  0  0  0  0
  137.5527   71.1787  221.3767 H   0  0  0  0  0  0  0  0  0  0  0  0
  137.8795   69.7713  220.3365 H   0  0  0  0  0  0  0  0  0  0  0  0
  135.6431   70.6610  219.8290 H   0  0  0  0  0  0  0  0  0  0  0  0
  135.4642   69.0690  220.6182 H   0  0  0  0  0  0  0  0  0  0  0  0
  135.3045   71.8077  221.9954 H   0  0  0  0  0  0  0  0  0  0  0  0
  133.9207   70.7211  221.6363 H   0  0  0  0  0  0  0  0  0  0  0  0
  134.6978   70.5322  223.9829 H   0  0  0  0  0  0  0  0  0  0  0  0
  134.8814   68.9875  223.0431 H   0  0  0  0  0  0  0  0  0  0  0  0
  137.1206   70.9781  223.6549 H   0  0  0  0  0  0  0  0  0  0  0  0
  136.8756   69.4228  224.4786 H   0  0  0  0  0  0  0  0  0  0  0  0
  1  2  2  0
  2  3  1  0
  3  4  2  0
  4  5  1  0
  5  6  2  0
  6  7  1  0
  7  8  2  0
  8  9  1  0
  9 10  2  0
 10 11  1  0
 11 12  2  0
 12 13  1  0
 13 14  2  0
 14 15  1  0
 15 16  2  0
 16 17  1  0
 17 18  1  0
 18 19  1  0
 19 20  1  0
 20 21  1  0
 21 22  1  0
 22 23  1  0
 16 24  1  0
 24 25  2  0
 10 26  1  0
 26 27  1  0
 27 28  1  0
 28 29  1  0
 29 30  1  0
 30 31  1  0
 31 32  1  0
 32 33  1  0
 26  2  1  0
 33 28  1  0
  8  3  1  0
 25 13  1  0
 23 18  1  0
  4 34  1  0
  5 35  1  0
  6 36  1  0
  7 37  1  0
 11 38  1  0
 12 39  1  0
 14 40  1  0
 15 41  1  0
 17 42  1  0
 17 43  1  0
 19 44  1  0
 19 45  1  0
 20 46  1  0
 20 47  1  0
 21 48  1  0
 21 49  1  0
 22 50  1  0
 22 51  1  0
 23 52  1  0
 23 53  1  0
 24 54  1  0
 27 55  1  0
 27 56  1  0
 28 57  1  0
 29 58  1  0
 29 59  1  0
 30 60  1  0
 30 61  1  0
 31 62  1  0
 31 63  1  0
 32 64  1  0
 32 65  1  0
 33 66  1  0
 33 67  1  0
M  END
>  <smiles>  (27) 
O=c1c2ccccc2nc(/C=C/c2ccc(CN3CCCCC3)cn2)n1CC1CCCCC1

>  <score_type>  (27) 
oracle

>  <origin>  (27) 
autodockgpu

>  <m_score__min__energy>  (27) 
-9.8000000000000007

>  <m_primary>  (27) 
energy

>  <rmsd>  (27) 
6.527198754336057

>  <m_score__min__rmsd>  (27) 
6.527198754336057

>  <meeko>  (27) 
{"free_energy": -8.72, "intermolecular_energy": -10.81, "internal_energy": -1.74, "cluster_size": 36, "cluster_id": 1, "rank_in_cluster": 33}

>  <energy>  (27) 
-9.15

>  <cluster_rmsd>  (27) 
1.29

>  <cluster>  (27) 
1

$$$$

     RDKit          3D

 67 71  0  0  0  0  0  0  0  0999 V2000
  138.8610   68.0790  225.2920 O   0  0  0  0  0  0  0  0  0  0  0  0
  139.4000   69.1950  225.0080 C   0  0  0  0  0  0  0  0  0  0  0  0
  139.9300   69.9060  226.0440 C   0  0  0  0  0  0  0  0  0  0  0  0
  139.8990   69.4670  227.3380 C   0  0  0  0  0  0  0  0  0  0  0  0
  140.4570   70.2430  228.3470 C   0  0  0  0  0  0  0  0  0  0  0  0
  141.0570   71.4730  228.0680 C   0  0  0  0  0  0  0  0  0  0  0  0
  141.0820   71.9080  226.7450 C   0  0  0  0  0  0  0  0  0  0  0  0
  140.5190   71.1220  225.7500 C   0  0  0  0  0  0  0  0  0  0  0  0
  140.5230   71.5040  224.4720 N   0  0  0  0  0  0  0  0  0  0  0  0
  139.9980   70.7930  223.4640 C   0  0  0  0  0  0  0  0  0  0  0  0
  140.0680   71.3060  222.0940 C   0  0  0  0  0  0  0  0  0  0  0  0
  140.9500   72.2440  221.8050 C   0  0  0  0  0  0  0  0  0  0  0  0
  140.6540   73.6680  221.7910 C   0  0  0  0  0  0  0  0  0  0  0  0
  141.5030   74.6180  221.2640 C   0  0  0  0  0  0  0  0  0  0  0  0
  141.1820   75.9750  221.2690 C   0  0  0  0  0  0  0  0  0  0  0  0
  139.9810   76.3680  221.8210 C   0  0  0  0  0  0  0  0  0  0  0  0
  139.6760   77.8200  221.8120 C   0  0  0  0  0  0  0  0  0  0  0  0
  140.8320   78.5480  222.2310 N   0  0  0  0  0  0  0  0  0  0  0  0
  141.4600   79.3570  221.2430 C   0  0  0  0  0  0  0  0  0  0  0  0
  142.2180   80.5300  221.8220 C   0  0  0  0  0  0  0  0  0  0  0  0
  142.9010   80.2410  223.1210 C   0  0  0  0  0  0  0  0  0  0  0  0
  142.1670   79.3120  224.0320 C   0  0  0  0  0  0  0  0  0  0  0  0
  140.7370   79.1910  223.5030 C   0  0  0  0  0  0  0  0  0  0  0  0
  139.1370   75.4150  222.3470 C   0  0  0  0  0  0  0  0  0  0  0  0
  139.4970   74.1190  222.3140 N   0  0  0  0  0  0  0  0  0  0  0  0
  139.4230   69.6190  223.7160 N   0  0  0  0  0  0  0  0  0  0  0  0
  138.8160   68.7820  222.7250 C   0  0  0  0  0  0  0  0  0  0  0  0
  137.3590   68.5120  222.9360 C   0  0  0  0  0  0  0  0  0  0  0  0
  136.8070   68.0010  221.6010 C   0  0  0  0  0  0  0  0  0  0  0  0
  135.4490   67.4080  221.8760 C   0  0  0  0  0  0  0  0  0  0  0  0
  134.5350   68.5250  222.3480 C   0  0  0  0  0  0  0  0  0  0  0  0
  135.1190   69.1620  223.5820 C   0  0  0  0  0  0  0  0  0  0  0  0
  136.5350   69.6810  223.3500 C   0  0  0  0  0  0  0  0  0  0  0  0
  139.4329   68.5006  227.5806 H   0  0  0  0  0  0  0  0  0  0  0  0
  140.4255   69.8815  229.3854 H   0  0  0  0  0  0  0  0  0  0  0  0
  141.4978   72.0817  228.8712 H   0  0  0  0  0  0  0  0  0  0  0  0
  141.5467   72.8718  226.4899 H   0  0  0  0  0  0  0  0  0  0  0  0
  139.3948   70.9149  221.3169 H   0  0  0  0  0  0  0  0  0  0  0  0
  141.9747   71.9288  221.5589 H   0  0  0  0  0  0  0  0  0  0  0  0
  142.4602   74.2965  220.8275 H   0  0  0  0  0  0  0  0  0  0  0  0
  141.8726   76.7167  220.8414 H   0  0  0  0  0  0  0  0  0  0  0  0
  139.3952   78.1302  220.7947 H   0  0  0  0  0  0  0  0  0  0  0  0
  138.8420   78.0256  222.4991 H   0  0  0  0  0  0  0  0  0  0  0  0
  142.1653   78.7313  220.6764 H   0  0  0  0  0  0  0  0  0  0  0  0
  140.6638   79.7675  220.6046 H   0  0  0  0  0  0  0  0  0  0  0  0
  142.9811   80.8406  221.0932 H   0  0  0  0  0  0  0  0  0  0  0  0
  141.4754   81.3158  222.0246 H   0  0  0  0  0  0  0  0  0  0  0  0
  143.8816   79.7952  222.8982 H   0  0  0  0  0  0  0  0  0  0  0  0
  142.9661   81.2019  223.6524 H   0  0  0  0  0  0  0  0  0  0  0  0
  142.6524   78.3249  224.0337 H   0  0  0  0  0  0  0  0  0  0  0  0
  142.1695   79.6952  225.0631 H   0  0  0  0  0  0  0  0  0  0  0  0
  140.1267   78.5868  224.1904 H   0  0  0  0  0  0  0  0  0  0  0  0
  140.2582   80.1776  223.4170 H   0  0  0  0  0  0  0  0  0  0  0  0
  138.1752   75.7115  222.7910 H   0  0  0  0  0  0  0  0  0  0  0  0
  138.9351   69.2696  221.7462 H   0  0  0  0  0  0  0  0  0  0  0  0
  139.3233   67.8081  222.7904 H   0  0  0  0  0  0  0  0  0  0  0  0
  137.2912   67.7957  223.7680 H   0  0  0  0  0  0  0  0  0  0  0  0
  136.7170   68.8333  220.8874 H   0  0  0  0  0  0  0  0  0  0  0  0
  137.4796   67.2485  221.1635 H   0  0  0  0  0  0  0  0  0  0  0  0
  135.0450   66.9586  220.9569 H   0  0  0  0  0  0  0  0  0  0  0  0
  135.5231   66.6248  222.6448 H   0  0  0  0  0  0  0  0  0  0  0  0
  134.4398   69.2811  221.5548 H   0  0  0  0  0  0  0  0  0  0  0  0
  133.5422   68.1131  222.5820 H   0  0  0  0  0  0  0  0  0  0  0  0
  134.4783   70.0041  223.8826 H   0  0  0  0  0  0  0  0  0  0  0  0
  135.1664   68.3934  224.3675 H   0  0  0  0  0  0  0  0  0  0  0  0
  136.5338   70.4433  222.5570 H   0  0  0  0  0  0  0  0  0  0  0  0
  136.9392   70.1460  224.2612 H   0  0  0  0  0  0  0  0  0  0  0  0
  1  2  2  0
  2  3  1  0
  3  4  2  0
  4  5  1  0
  5  6  2  0
  6  7  1  0
  7  8  2  0
  8  9  1  0
  9 10  2  0
 10 11  1  0
 11 12  2  0
 12 13  1  0
 13 14  2  0
 14 15  1  0
 15 16  2  0
 16 17  1  0
 17 18  1  0
 18 19  1  0
 19 20  1  0
 20 21  1  0
 21 22  1  0
 22 23  1  0
 16 24  1  0
 24 25  2  0
 10 26  1  0
 26 27  1  0
 27 28  1  0
 28 29  1  0
 29 30  1  0
 30 31  1  0
 31 32  1  0
 32 33  1  0
 26  2  1  0
 33 28  1  0
  8  3  1  0
 25 13  1  0
 23 18  1  0
  4 34  1  0
  5 35  1  0
  6 36  1  0
  7 37  1  0
 11 38  1  0
 12 39  1  0
 14 40  1  0
 15 41  1  0
 17 42  1  0
 17 43  1  0
 19 44  1  0
 19 45  1  0
 20 46  1  0
 20 47  1  0
 21 48  1  0
 21 49  1  0
 22 50  1  0
 22 51  1  0
 23 52  1  0
 23 53  1  0
 24 54  1  0
 27 55  1  0
 27 56  1  0
 28 57  1  0
 29 58  1  0
 29 59  1  0
 30 60  1  0
 30 61  1  0
 31 62  1  0
 31 63  1  0
 32 64  1  0
 32 65  1  0
 33 66  1  0
 33 67  1  0
M  END
>  <smiles>  (28) 
O=c1c2ccccc2nc(/C=C/c2ccc(CN3CCCCC3)cn2)n1CC1CCCCC1

>  <score_type>  (28) 
oracle

>  <origin>  (28) 
autodockgpu

>  <m_score__min__energy>  (28) 
-9.8000000000000007

>  <m_primary>  (28) 
energy

>  <rmsd>  (28) 
6.690994394837553

>  <m_score__min__rmsd>  (28) 
6.690994394837553

>  <meeko>  (28) 
{"free_energy": -9.68, "intermolecular_energy": -11.77, "internal_energy": -1.59, "cluster_size": 36, "cluster_id": 1, "rank_in_cluster": 3}

>  <energy>  (28) 
-9.14

>  <cluster_rmsd>  (28) 
0.67

>  <cluster>  (28) 
1

$$$$

     RDKit          3D

 67 71  0  0  0  0  0  0  0  0999 V2000
  142.7980   77.1260  219.9510 O   0  0  0  0  0  0  0  0  0  0  0  0
  142.2630   76.0480  220.3610 C   0  0  0  0  0  0  0  0  0  0  0  0
  143.0540   74.9380  220.3870 C   0  0  0  0  0  0  0  0  0  0  0  0
  144.3640   74.9500  219.9980 C   0  0  0  0  0  0  0  0  0  0  0  0
  145.1140   73.7820  220.0490 C   0  0  0  0  0  0  0  0  0  0  0  0
  144.5560   72.5810  220.4940 C   0  0  0  0  0  0  0  0  0  0  0  0
  143.2200   72.5820  220.8880 C   0  0  0  0  0  0  0  0  0  0  0  0
  142.4850   73.7570  220.8300 C   0  0  0  0  0  0  0  0  0  0  0  0
  141.2040   73.7990  221.1980 N   0  0  0  0  0  0  0  0  0  0  0  0
  140.4390   74.9000  221.1670 C   0  0  0  0  0  0  0  0  0  0  0  0
  139.0430   74.8320  221.6060 C   0  0  0  0  0  0  0  0  0  0  0  0
  138.3640   73.7180  221.4090 C   0  0  0  0  0  0  0  0  0  0  0  0
  138.5870   72.4830  222.1460 C   0  0  0  0  0  0  0  0  0  0  0  0
  139.6410   71.6290  221.9000 C   0  0  0  0  0  0  0  0  0  0  0  0
  139.8210   70.4540  222.6280 C   0  0  0  0  0  0  0  0  0  0  0  0
  138.9140   70.1460  223.6210 C   0  0  0  0  0  0  0  0  0  0  0  0
  139.1360   68.8860  224.3720 C   0  0  0  0  0  0  0  0  0  0  0  0
  139.8820   69.1700  225.5580 N   0  0  0  0  0  0  0  0  0  0  0  0
  140.4230   70.4810  225.6640 C   0  0  0  0  0  0  0  0  0  0  0  0
  140.6260   70.9330  227.0920 C   0  0  0  0  0  0  0  0  0  0  0  0
  141.0630   69.8480  228.0240 C   0  0  0  0  0  0  0  0  0  0  0  0
  140.4780   68.5010  227.7500 C   0  0  0  0  0  0  0  0  0  0  0  0
  139.3120   68.6990  226.7810 C   0  0  0  0  0  0  0  0  0  0  0  0
  137.8620   71.0030  223.8620 C   0  0  0  0  0  0  0  0  0  0  0  0
  137.7380   72.1240  223.1280 N   0  0  0  0  0  0  0  0  0  0  0  0
  140.9580   76.0510  220.7440 N   0  0  0  0  0  0  0  0  0  0  0  0
  140.2350   77.2830  220.6520 C   0  0  0  0  0  0  0  0  0  0  0  0
  140.5720   78.2900  221.7070 C   0  0  0  0  0  0  0  0  0  0  0  0
  141.4650   79.3440  221.0410 C   0  0  0  0  0  0  0  0  0  0  0  0
  141.5320   80.5260  221.9730 C   0  0  0  0  0  0  0  0  0  0  0  0
  142.2260   80.0810  223.2480 C   0  0  0  0  0  0  0  0  0  0  0  0
  141.4610   78.9380  223.8630 C   0  0  0  0  0  0  0  0  0  0  0  0
  141.2960   77.7680  222.8970 C   0  0  0  0  0  0  0  0  0  0  0  0
  144.8244   75.8844  219.6446 H   0  0  0  0  0  0  0  0  0  0  0  0
  146.1674   73.8030  219.7330 H   0  0  0  0  0  0  0  0  0  0  0  0
  145.1555   71.6595  220.5322 H   0  0  0  0  0  0  0  0  0  0  0  0
  142.7492   71.6538  221.2441 H   0  0  0  0  0  0  0  0  0  0  0  0
  138.5680   75.6967  222.0926 H   0  0  0  0  0  0  0  0  0  0  0  0
  137.5791   73.7230  220.6384 H   0  0  0  0  0  0  0  0  0  0  0  0
  140.3601   71.8820  221.1070 H   0  0  0  0  0  0  0  0  0  0  0  0
  140.6687   69.7861  222.4152 H   0  0  0  0  0  0  0  0  0  0  0  0
  138.1660   68.4445  224.6445 H   0  0  0  0  0  0  0  0  0  0  0  0
  139.6954   68.1761  223.7450 H   0  0  0  0  0  0  0  0  0  0  0  0
  141.3958   70.4993  225.1508 H   0  0  0  0  0  0  0  0  0  0  0  0
  139.6980   71.1695  225.2054 H   0  0  0  0  0  0  0  0  0  0  0  0
  141.3925   71.7220  227.0981 H   0  0  0  0  0  0  0  0  0  0  0  0
  139.6484   71.2844  227.4535 H   0  0  0  0  0  0  0  0  0  0  0  0
  142.1578   69.7634  227.9584 H   0  0  0  0  0  0  0  0  0  0  0  0
  140.7041   70.1397  229.0221 H   0  0  0  0  0  0  0  0  0  0  0  0
  141.2369   67.8464  227.2967 H   0  0  0  0  0  0  0  0  0  0  0  0
  140.1333   68.0297  228.6822 H   0  0  0  0  0  0  0  0  0  0  0  0
  138.7887   67.7458  226.6150 H   0  0  0  0  0  0  0  0  0  0  0  0
  138.5771   69.4133  227.1806 H   0  0  0  0  0  0  0  0  0  0  0  0
  137.1288   70.7723  224.6489 H   0  0  0  0  0  0  0  0  0  0  0  0
  140.4475   77.7318  219.6705 H   0  0  0  0  0  0  0  0  0  0  0  0
  139.1739   77.0301  220.7936 H   0  0  0  0  0  0  0  0  0  0  0  0
  139.6147   78.6716  222.0917 H   0  0  0  0  0  0  0  0  0  0  0  0
  142.4731   78.9351  220.8782 H   0  0  0  0  0  0  0  0  0  0  0  0
  141.0561   79.6405  220.0638 H   0  0  0  0  0  0  0  0  0  0  0  0
  142.1025   81.3403  221.5024 H   0  0  0  0  0  0  0  0  0  0  0  0
  140.5195   80.8927  222.1977 H   0  0  0  0  0  0  0  0  0  0  0  0
  143.2494   79.7531  223.0132 H   0  0  0  0  0  0  0  0  0  0  0  0
  142.2639   80.9209  223.9574 H   0  0  0  0  0  0  0  0  0  0  0  0
  142.0029   78.5879  224.7540 H   0  0  0  0  0  0  0  0  0  0  0  0
  140.4572   79.3050  224.1231 H   0  0  0  0  0  0  0  0  0  0  0  0
  142.2817   77.3804  222.6003 H   0  0  0  0  0  0  0  0  0  0  0  0
  140.7389   76.9443  223.3672 H   0  0  0  0  0  0  0  0  0  0  0  0
  1  2  2  0
  2  3  1  0
  3  4  2  0
  4  5  1  0
  5  6  2  0
  6  7  1  0
  7  8  2  0
  8  9  1  0
  9 10  2  0
 10 11  1  0
 11 12  2  0
 12 13  1  0
 13 14  2  0
 14 15  1  0
 15 16  2  0
 16 17  1  0
 17 18  1  0
 18 19  1  0
 19 20  1  0
 20 21  1  0
 21 22  1  0
 22 23  1  0
 16 24  1  0
 24 25  2  0
 10 26  1  0
 26 27  1  0
 27 28  1  0
 28 29  1  0
 29 30  1  0
 30 31  1  0
 31 32  1  0
 32 33  1  0
 26  2  1  0
 33 28  1  0
  8  3  1  0
 25 13  1  0
 23 18  1  0
  4 34  1  0
  5 35  1  0
  6 36  1  0
  7 37  1  0
 11 38  1  0
 12 39  1  0
 14 40  1  0
 15 41  1  0
 17 42  1  0
 17 43  1  0
 19 44  1  0
 19 45  1  0
 20 46  1  0
 20 47  1  0
 21 48  1  0
 21 49  1  0
 22 50  1  0
 22 51  1  0
 23 52  1  0
 23 53  1  0
 24 54  1  0
 27 55  1  0
 27 56  1  0
 28 57  1  0
 29 58  1  0
 29 59  1  0
 30 60  1  0
 30 61  1  0
 31 62  1  0
 31 63  1  0
 32 64  1  0
 32 65  1  0
 33 66  1  0
 33 67  1  0
M  END
>  <smiles>  (29) 
O=c1c2ccccc2nc(/C=C/c2ccc(CN3CCCCC3)cn2)n1CC1CCCCC1

>  <score_type>  (29) 
oracle

>  <origin>  (29) 
autodockgpu

>  <m_score__min__energy>  (29) 
-9.8000000000000007

>  <m_primary>  (29) 
energy

>  <rmsd>  (29) 
10.816166417806032

>  <m_score__min__rmsd>  (29) 
10.816166417806032

>  <meeko>  (29) 
{"free_energy": -8.64, "intermolecular_energy": -10.72, "internal_energy": -1.57, "cluster_size": 7, "cluster_id": 2, "rank_in_cluster": 7}

>  <energy>  (29) 
-9.1

>  <cluster_rmsd>  (29) 
0.71

>  <cluster>  (29) 
1

$$$$

     RDKit          3D

 67 71  0  0  0  0  0  0  0  0999 V2000
  146.2500   72.6330  219.2990 O   0  0  0  0  0  0  0  0  0  0  0  0
  145.2190   71.9630  219.6230 C   0  0  0  0  0  0  0  0  0  0  0  0
  145.2310   70.6320  219.3270 C   0  0  0  0  0  0  0  0  0  0  0  0
  146.2850   70.0170  218.7130 C   0  0  0  0  0  0  0  0  0  0  0  0
  146.2310   68.6560  218.4400 C   0  0  0  0  0  0  0  0  0  0  0  0
  145.1130   67.8920  218.7820 C   0  0  0  0  0  0  0  0  0  0  0  0
  144.0460   68.5310  219.4080 C   0  0  0  0  0  0  0  0  0  0  0  0
  144.1150   69.8910  219.6730 C   0  0  0  0  0  0  0  0  0  0  0  0
  143.1150   70.5380  220.2700 N   0  0  0  0  0  0  0  0  0  0  0  0
  143.1180   71.8490  220.5550 C   0  0  0  0  0  0  0  0  0  0  0  0
  141.9640   72.4540  221.2230 C   0  0  0  0  0  0  0  0  0  0  0  0
  141.0440   73.0550  220.4940 C   0  0  0  0  0  0  0  0  0  0  0  0
  140.5590   74.4050  220.7400 C   0  0  0  0  0  0  0  0  0  0  0  0
  139.9970   75.2030  219.7660 C   0  0  0  0  0  0  0  0  0  0  0  0
  139.5440   76.4920  220.0410 C   0  0  0  0  0  0  0  0  0  0  0  0
  139.6660   76.9740  221.3280 C   0  0  0  0  0  0  0  0  0  0  0  0
  139.1750   78.3510  221.5830 C   0  0  0  0  0  0  0  0  0  0  0  0
  140.2530   79.1530  222.0720 N   0  0  0  0  0  0  0  0  0  0  0  0
  140.4980   79.0930  223.4720 C   0  0  0  0  0  0  0  0  0  0  0  0
  141.9300   79.4010  223.8440 C   0  0  0  0  0  0  0  0  0  0  0  0
  142.5710   80.4570  223.0000 C   0  0  0  0  0  0  0  0  0  0  0  0
  142.1640   80.4550  221.5630 C   0  0  0  0  0  0  0  0  0  0  0  0
  141.4500   79.1290  221.2930 C   0  0  0  0  0  0  0  0  0  0  0  0
  140.2280   76.1730  222.2980 C   0  0  0  0  0  0  0  0  0  0  0  0
  140.6480   74.9360  221.9740 N   0  0  0  0  0  0  0  0  0  0  0  0
  144.1770   72.5890  220.2330 N   0  0  0  0  0  0  0  0  0  0  0  0
  144.2880   73.9960  220.4720 C   0  0  0  0  0  0  0  0  0  0  0  0
  143.4880   74.8560  219.5440 C   0  0  0  0  0  0  0  0  0  0  0  0
  143.9060   74.4760  218.1190 C   0  0  0  0  0  0  0  0  0  0  0  0
  142.8880   75.0700  217.1810 C   0  0  0  0  0  0  0  0  0  0  0  0
  142.9730   76.5830  217.2910 C   0  0  0  0  0  0  0  0  0  0  0  0
  142.7160   76.9960  218.7170 C   0  0  0  0  0  0  0  0  0  0  0  0
  143.6760   76.3250  219.6950 C   0  0  0  0  0  0  0  0  0  0  0  0
  147.1760   70.5991  218.4349 H   0  0  0  0  0  0  0  0  0  0  0  0
  147.0851   68.1708  217.9450 H   0  0  0  0  0  0  0  0  0  0  0  0
  145.0764   66.8147  218.5628 H   0  0  0  0  0  0  0  0  0  0  0  0
  143.1504   67.9588  219.6918 H   0  0  0  0  0  0  0  0  0  0  0  0
  141.8658   72.4078  222.3176 H   0  0  0  0  0  0  0  0  0  0  0  0
  140.6158   72.5006  219.6459 H   0  0  0  0  0  0  0  0  0  0  0  0
  139.9035   74.8109  218.7425 H   0  0  0  0  0  0  0  0  0  0  0  0
  139.0987   77.1119  219.2489 H   0  0  0  0  0  0  0  0  0  0  0  0
  138.7902   78.7832  220.6475 H   0  0  0  0  0  0  0  0  0  0  0  0
  138.3680   78.3225  222.3299 H   0  0  0  0  0  0  0  0  0  0  0  0
  139.8433   79.8218  223.9722 H   0  0  0  0  0  0  0  0  0  0  0  0
  140.2934   78.0612  223.7937 H   0  0  0  0  0  0  0  0  0  0  0  0
  141.9493   79.7378  224.8910 H   0  0  0  0  0  0  0  0  0  0  0  0
  142.5037   78.4765  223.6821 H   0  0  0  0  0  0  0  0  0  0  0  0
  142.3115   81.4374  223.4260 H   0  0  0  0  0  0  0  0  0  0  0  0
  143.6503   80.2449  223.0124 H   0  0  0  0  0  0  0  0  0  0  0  0
  141.4837   81.2961  221.3635 H   0  0  0  0  0  0  0  0  0  0  0  0
  143.0423   80.5639  220.9098 H   0  0  0  0  0  0  0  0  0  0  0  0
  141.2071   79.0379  220.2240 H   0  0  0  0  0  0  0  0  0  0  0  0
  142.0845   78.2712  221.5608 H   0  0  0  0  0  0  0  0  0  0  0  0
  140.3326   76.5416  223.3291 H   0  0  0  0  0  0  0  0  0  0  0  0
  143.9509   74.1960  221.4998 H   0  0  0  0  0  0  0  0  0  0  0  0
  145.3432   74.2563  220.3026 H   0  0  0  0  0  0  0  0  0  0  0  0
  142.4299   74.6697  219.7801 H   0  0  0  0  0  0  0  0  0  0  0  0
  144.9039   74.8827  217.8982 H   0  0  0  0  0  0  0  0  0  0  0  0
  143.9506   73.3829  218.0043 H   0  0  0  0  0  0  0  0  0  0  0  0
  143.1052   74.7582  216.1487 H   0  0  0  0  0  0  0  0  0  0  0  0
  141.8778   74.7243  217.4455 H   0  0  0  0  0  0  0  0  0  0  0  0
  143.9759   76.9173  216.9871 H   0  0  0  0  0  0  0  0  0  0  0  0
  142.2198   77.0422  216.6339 H   0  0  0  0  0  0  0  0  0  0  0  0
  142.8348   78.0867  218.7965 H   0  0  0  0  0  0  0  0  0  0  0  0
  141.6945   76.6835  218.9795 H   0  0  0  0  0  0  0  0  0  0  0  0
  144.7138   76.6004  219.4559 H   0  0  0  0  0  0  0  0  0  0  0  0
  143.4736   76.6443  220.7280 H   0  0  0  0  0  0  0  0  0  0  0  0
  1  2  2  0
  2  3  1  0
  3  4  2  0
  4  5  1  0
  5  6  2  0
  6  7  1  0
  7  8  2  0
  8  9  1  0
  9 10  2  0
 10 11  1  0
 11 12  2  0
 12 13  1  0
 13 14  2  0
 14 15  1  0
 15 16  2  0
 16 17  1  0
 17 18  1  0
 18 19  1  0
 19 20  1  0
 20 21  1  0
 21 22  1  0
 22 23  1  0
 16 24  1  0
 24 25  2  0
 10 26  1  0
 26 27  1  0
 27 28  1  0
 28 29  1  0
 29 30  1  0
 30 31  1  0
 31 32  1  0
 32 33  1  0
 26  2  1  0
 33 28  1  0
  8  3  1  0
 25 13  1  0
 23 18  1  0
  4 34  1  0
  5 35  1  0
  6 36  1  0
  7 37  1  0
 11 38  1  0
 12 39  1  0
 14 40  1  0
 15 41  1  0
 17 42  1  0
 17 43  1  0
 19 44  1  0
 19 45  1  0
 20 46  1  0
 20 47  1  0
 21 48  1  0
 21 49  1  0
 22 50  1  0
 22 51  1  0
 23 52  1  0
 23 53  1  0
 24 54  1  0
 27 55  1  0
 27 56  1  0
 28 57  1  0
 29 58  1  0
 29 59  1  0
 30 60  1  0
 30 61  1  0
 31 62  1  0
 31 63  1  0
 32 64  1  0
 32 65  1  0
 33 66  1  0
 33 67  1  0
M  END
>  <smiles>  (30) 
O=c1c2ccccc2nc(/C=C/c2ccc(CN3CCCCC3)cn2)n1CC1CCCCC1

>  <score_type>  (30) 
oracle

>  <origin>  (30) 
autodockgpu

>  <m_score__min__energy>  (30) 
-9.8000000000000007

>  <m_primary>  (30) 
energy

>  <rmsd>  (30) 
6.163166275020656

>  <m_score__min__rmsd>  (30) 
6.163166275020656

>  <meeko>  (30) 
{"free_energy": -7.93, "intermolecular_energy": -10.02, "internal_energy": -2.65, "cluster_size": 2, "cluster_id": 6, "rank_in_cluster": 1}

>  <energy>  (30) 
-9.08

>  <cluster_rmsd>  (30) 
1.01

>  <cluster>  (30) 
1

$$$$

     RDKit          3D

 67 71  0  0  0  0  0  0  0  0999 V2000
  143.3790   76.5880  219.6720 O   0  0  0  0  0  0  0  0  0  0  0  0
  142.7820   75.6000  220.2050 C   0  0  0  0  0  0  0  0  0  0  0  0
  143.4480   74.4110  220.2170 C   0  0  0  0  0  0  0  0  0  0  0  0
  144.6990   74.2550  219.6900 C   0  0  0  0  0  0  0  0  0  0  0  0
  145.3210   73.0130  219.7360 C   0  0  0  0  0  0  0  0  0  0  0  0
  144.6930   71.9080  220.3140 C   0  0  0  0  0  0  0  0  0  0  0  0
  143.4180   72.0810  220.8470 C   0  0  0  0  0  0  0  0  0  0  0  0
  142.8100   73.3270  220.7940 C   0  0  0  0  0  0  0  0  0  0  0  0
  141.5910   73.5320  221.2930 N   0  0  0  0  0  0  0  0  0  0  0  0
  140.9490   74.7090  221.2740 C   0  0  0  0  0  0  0  0  0  0  0  0
  139.6120   74.8220  221.8620 C   0  0  0  0  0  0  0  0  0  0  0  0
  138.7340   73.8630  221.6440 C   0  0  0  0  0  0  0  0  0  0  0  0
  138.7260   72.5870  222.3430 C   0  0  0  0  0  0  0  0  0  0  0  0
  137.6190   72.0780  222.9890 C   0  0  0  0  0  0  0  0  0  0  0  0
  137.6520   70.8500  223.6490 C   0  0  0  0  0  0  0  0  0  0  0  0
  138.8290   70.1320  223.6490 C   0  0  0  0  0  0  0  0  0  0  0  0
  138.8270   68.8310  224.3630 C   0  0  0  0  0  0  0  0  0  0  0  0
  139.6800   68.9190  225.5070 N   0  0  0  0  0  0  0  0  0  0  0  0
  139.7500   70.1900  226.1440 C   0  0  0  0  0  0  0  0  0  0  0  0
  140.1050   70.1060  227.6110 C   0  0  0  0  0  0  0  0  0  0  0  0
  141.0850   69.0270  227.9470 C   0  0  0  0  0  0  0  0  0  0  0  0
  140.9480   67.7730  227.1460 C   0  0  0  0  0  0  0  0  0  0  0  0
  139.5970   67.8340  226.4320 C   0  0  0  0  0  0  0  0  0  0  0  0
  139.9320   70.6450  223.0020 C   0  0  0  0  0  0  0  0  0  0  0  0
  139.8430   71.8350  222.3810 N   0  0  0  0  0  0  0  0  0  0  0  0
  141.5360   75.7700  220.7250 N   0  0  0  0  0  0  0  0  0  0  0  0
  140.9430   77.0700  220.6320 C   0  0  0  0  0  0  0  0  0  0  0  0
  141.5810   78.1160  221.4910 C   0  0  0  0  0  0  0  0  0  0  0  0
  140.9600   77.9800  222.8870 C   0  0  0  0  0  0  0  0  0  0  0  0
  141.8160   78.7760  223.8370 C   0  0  0  0  0  0  0  0  0  0  0  0
  141.7260   80.2390  223.4390 C   0  0  0  0  0  0  0  0  0  0  0  0
  142.1870   80.4000  222.0140 C   0  0  0  0  0  0  0  0  0  0  0  0
  141.3960   79.5240  221.0470 C   0  0  0  0  0  0  0  0  0  0  0  0
  145.2133   75.1116  219.2298 H   0  0  0  0  0  0  0  0  0  0  0  0
  146.3280   72.8983  219.3085 H   0  0  0  0  0  0  0  0  0  0  0  0
  145.1914   70.9280  220.3475 H   0  0  0  0  0  0  0  0  0  0  0  0
  142.8940   71.2314  221.3091 H   0  0  0  0  0  0  0  0  0  0  0  0
  139.3445   75.6943  222.4765 H   0  0  0  0  0  0  0  0  0  0  0  0
  137.9576   74.0389  220.8849 H   0  0  0  0  0  0  0  0  0  0  0  0
  136.6837   72.6569  222.9835 H   0  0  0  0  0  0  0  0  0  0  0  0
  136.7577   70.4623  224.1589 H   0  0  0  0  0  0  0  0  0  0  0  0
  137.8032   68.5903  224.6855 H   0  0  0  0  0  0  0  0  0  0  0  0
  139.1924   68.0409  223.6906 H   0  0  0  0  0  0  0  0  0  0  0  0
  140.5147   70.7943  225.6340 H   0  0  0  0  0  0  0  0  0  0  0  0
  138.7500   70.6432  226.0767 H   0  0  0  0  0  0  0  0  0  0  0  0
  140.5365   71.0705  227.9167 H   0  0  0  0  0  0  0  0  0  0  0  0
  139.1750   69.8644  228.1465 H   0  0  0  0  0  0  0  0  0  0  0  0
  142.0979   69.4248  227.7863 H   0  0  0  0  0  0  0  0  0  0  0  0
  140.8846   68.7462  228.9915 H   0  0  0  0  0  0  0  0  0  0  0  0
  141.7610   67.7072  226.4080 H   0  0  0  0  0  0  0  0  0  0  0  0
  141.0049   66.8876  227.7963 H   0  0  0  0  0  0  0  0  0  0  0  0
  139.4060   66.8918  225.8975 H   0  0  0  0  0  0  0  0  0  0  0  0
  138.7738   67.9806  227.1467 H   0  0  0  0  0  0  0  0  0  0  0  0
  140.8789   70.0853  222.9933 H   0  0  0  0  0  0  0  0  0  0  0  0
  141.0080   77.4012  219.5851 H   0  0  0  0  0  0  0  0  0  0  0  0
  139.9088   76.9640  220.9915 H   0  0  0  0  0  0  0  0  0  0  0  0
  142.6653   77.9360  221.4483 H   0  0  0  0  0  0  0  0  0  0  0  0
  139.9338   78.3761  222.8828 H   0  0  0  0  0  0  0  0  0  0  0  0
  140.9166   76.9243  223.1929 H   0  0  0  0  0  0  0  0  0  0  0  0
  141.4505   78.6463  224.8664 H   0  0  0  0  0  0  0  0  0  0  0  0
  142.8596   78.4314  223.7902 H   0  0  0  0  0  0  0  0  0  0  0  0
  140.6840   80.5800  223.5282 H   0  0  0  0  0  0  0  0  0  0  0  0
  142.3660   80.8398  224.1019 H   0  0  0  0  0  0  0  0  0  0  0  0
  142.0640   81.4526  221.7192 H   0  0  0  0  0  0  0  0  0  0  0  0
  143.2410   80.0894  221.9642 H   0  0  0  0  0  0  0  0  0  0  0  0
  140.3300   79.7935  221.0776 H   0  0  0  0  0  0  0  0  0  0  0  0
  141.7473   79.6609  220.0136 H   0  0  0  0  0  0  0  0  0  0  0  0
  1  2  2  0
  2  3  1  0
  3  4  2  0
  4  5  1  0
  5  6  2  0
  6  7  1  0
  7  8  2  0
  8  9  1  0
  9 10  2  0
 10 11  1  0
 11 12  2  0
 12 13  1  0
 13 14  2  0
 14 15  1  0
 15 16  2  0
 16 17  1  0
 17 18  1  0
 18 19  1  0
 19 20  1  0
 20 21  1  0
 21 22  1  0
 22 23  1  0
 16 24  1  0
 24 25  2  0
 10 26  1  0
 26 27  1  0
 27 28  1  0
 28 29  1  0
 29 30  1  0
 30 31  1  0
 31 32  1  0
 32 33  1  0
 26  2  1  0
 33 28  1  0
  8  3  1  0
 25 13  1  0
 23 18  1  0
  4 34  1  0
  5 35  1  0
  6 36  1  0
  7 37  1  0
 11 38  1  0
 12 39  1  0
 14 40  1  0
 15 41  1  0
 17 42  1  0
 17 43  1  0
 19 44  1  0
 19 45  1  0
 20 46  1  0
 20 47  1  0
 21 48  1  0
 21 49  1  0
 22 50  1  0
 22 51  1  0
 23 52  1  0
 23 53  1  0
 24 54  1  0
 27 55  1  0
 27 56  1  0
 28 57  1  0
 29 58  1  0
 29 59  1  0
 30 60  1  0
 30 61  1  0
 31 62  1  0
 31 63  1  0
 32 64  1  0
 32 65  1  0
 33 66  1  0
 33 67  1  0
M  END
>  <smiles>  (31) 
O=c1c2ccccc2nc(/C=C/c2ccc(CN3CCCCC3)cn2)n1CC1CCCCC1

>  <score_type>  (31) 
oracle

>  <origin>  (31) 
autodockgpu

>  <m_score__min__energy>  (31) 
-9.8000000000000007

>  <m_primary>  (31) 
energy

>  <rmsd>  (31) 
11.077389310337832

>  <m_score__min__rmsd>  (31) 
11.077389310337832

>  <meeko>  (31) 
{"free_energy": -8.95, "intermolecular_energy": -11.04, "internal_energy": -1.58, "cluster_size": 7, "cluster_id": 2, "rank_in_cluster": 5}

>  <energy>  (31) 
-8.93

>  <cluster_rmsd>  (31) 
0.74

>  <cluster>  (31) 
1

$$$$

     RDKit          3D

 67 71  0  0  0  0  0  0  0  0999 V2000
  137.1600   69.0500  225.3770 O   0  0  0  0  0  0  0  0  0  0  0  0
  137.0400   70.0110  224.5530 C   0  0  0  0  0  0  0  0  0  0  0  0
  135.8710   70.7120  224.5890 C   0  0  0  0  0  0  0  0  0  0  0  0
  134.8570   70.4220  225.4580 C   0  0  0  0  0  0  0  0  0  0  0  0
  133.6910   71.1770  225.4400 C   0  0  0  0  0  0  0  0  0  0  0  0
  133.5280   72.2380  224.5480 C   0  0  0  0  0  0  0  0  0  0  0  0
  134.5690   72.5240  223.6680 C   0  0  0  0  0  0  0  0  0  0  0  0
  135.7270   71.7600  223.6970 C   0  0  0  0  0  0  0  0  0  0  0  0
  136.7450   72.0020  222.8720 N   0  0  0  0  0  0  0  0  0  0  0  0
  137.8890   71.3030  222.8490 C   0  0  0  0  0  0  0  0  0  0  0  0
  138.9480   71.6650  221.9030 C   0  0  0  0  0  0  0  0  0  0  0  0
  139.9100   72.4750  222.2980 C   0  0  0  0  0  0  0  0  0  0  0  0
  139.9680   73.8930  221.9780 C   0  0  0  0  0  0  0  0  0  0  0  0
  141.1260   74.5460  221.6100 C   0  0  0  0  0  0  0  0  0  0  0  0
  141.1400   75.9070  221.3110 C   0  0  0  0  0  0  0  0  0  0  0  0
  139.9570   76.6130  221.3880 C   0  0  0  0  0  0  0  0  0  0  0  0
  140.0110   78.0600  221.0660 C   0  0  0  0  0  0  0  0  0  0  0  0
  140.9670   78.6970  221.9160 N   0  0  0  0  0  0  0  0  0  0  0  0
  141.7220   79.7540  221.3350 C   0  0  0  0  0  0  0  0  0  0  0  0
  142.2120   80.7670  222.3450 C   0  0  0  0  0  0  0  0  0  0  0  0
  142.6080   80.1790  223.6620 C   0  0  0  0  0  0  0  0  0  0  0  0
  141.7790   79.0230  224.1170 C   0  0  0  0  0  0  0  0  0  0  0  0
  140.5250   78.9890  223.2430 C   0  0  0  0  0  0  0  0  0  0  0  0
  138.8030   75.9560  221.7570 C   0  0  0  0  0  0  0  0  0  0  0  0
  138.8490   74.6400  222.0340 N   0  0  0  0  0  0  0  0  0  0  0  0
  138.0570   70.2880  223.6940 N   0  0  0  0  0  0  0  0  0  0  0  0
  139.2260   69.4620  223.7510 C   0  0  0  0  0  0  0  0  0  0  0  0
  140.1590   69.7690  224.8790 C   0  0  0  0  0  0  0  0  0  0  0  0
  139.8860   68.7300  225.9730 C   0  0  0  0  0  0  0  0  0  0  0  0
  141.0270   68.8050  226.9550 C   0  0  0  0  0  0  0  0  0  0  0  0
  140.9940   70.1740  227.6110 C   0  0  0  0  0  0  0  0  0  0  0  0
  141.1080   71.2390  226.5520 C   0  0  0  0  0  0  0  0  0  0  0  0
  140.0180   71.1190  225.4910 C   0  0  0  0  0  0  0  0  0  0  0  0
  134.9639   69.5914  226.1712 H   0  0  0  0  0  0  0  0  0  0  0  0
  132.8803   70.9338  226.1426 H   0  0  0  0  0  0  0  0  0  0  0  0
  132.6024   72.8323  224.5402 H   0  0  0  0  0  0  0  0  0  0  0  0
  134.4734   73.3534  222.9518 H   0  0  0  0  0  0  0  0  0  0  0  0
  138.9403   71.2664  220.8778 H   0  0  0  0  0  0  0  0  0  0  0  0
  140.7210   72.0516  222.9088 H   0  0  0  0  0  0  0  0  0  0  0  0
  142.0651   73.9762  221.5509 H   0  0  0  0  0  0  0  0  0  0  0  0
  142.0749   76.4081  221.0196 H   0  0  0  0  0  0  0  0  0  0  0  0
  140.3081   78.1919  220.0151 H   0  0  0  0  0  0  0  0  0  0  0  0
  139.0197   78.5101  221.2236 H   0  0  0  0  0  0  0  0  0  0  0  0
  142.5946   79.3199  220.8249 H   0  0  0  0  0  0  0  0  0  0  0  0
  141.0556   80.2850  220.6393 H   0  0  0  0  0  0  0  0  0  0  0  0
  143.0864   81.2820  221.9205 H   0  0  0  0  0  0  0  0  0  0  0  0
  141.3707   81.4474  222.5433 H   0  0  0  0  0  0  0  0  0  0  0  0
  143.6513   79.8395  223.5833 H   0  0  0  0  0  0  0  0  0  0  0  0
  142.4597   80.9735  224.4081 H   0  0  0  0  0  0  0  0  0  0  0  0
  142.3439   78.0863  224.0010 H   0  0  0  0  0  0  0  0  0  0  0  0
  141.5105   79.1309  225.1783 H   0  0  0  0  0  0  0  0  0  0  0  0
  139.8365   78.2069  223.5955 H   0  0  0  0  0  0  0  0  0  0  0  0
  139.9850   79.9466  223.2822 H   0  0  0  0  0  0  0  0  0  0  0  0
  137.8513   76.5034  221.8246 H   0  0  0  0  0  0  0  0  0  0  0  0
  138.9008   68.4160  223.8514 H   0  0  0  0  0  0  0  0  0  0  0  0
  139.7868   69.6563  222.8249 H   0  0  0  0  0  0  0  0  0  0  0  0
  141.1753   69.7420  224.4591 H   0  0  0  0  0  0  0  0  0  0  0  0
  138.9369   68.9576  226.4803 H   0  0  0  0  0  0  0  0  0  0  0  0
  139.8080   67.7210  225.5420 H   0  0  0  0  0  0  0  0  0  0  0  0
  140.9134   68.0222  227.7194 H   0  0  0  0  0  0  0  0  0  0  0  0
  141.9859   68.6526  226.4381 H   0  0  0  0  0  0  0  0  0  0  0  0
  140.0460   70.2975  228.1551 H   0  0  0  0  0  0  0  0  0  0  0  0
  141.8343   70.2644  228.3150 H   0  0  0  0  0  0  0  0  0  0  0  0
  141.0274   72.2254  227.0321 H   0  0  0  0  0  0  0  0  0  0  0  0
  142.0798   71.1140  226.0520 H   0  0  0  0  0  0  0  0  0  0  0  0
  139.0257   71.2229  225.9543 H   0  0  0  0  0  0  0  0  0  0  0  0
  140.1181   71.9086  224.7317 H   0  0  0  0  0  0  0  0  0  0  0  0
  1  2  2  0
  2  3  1  0
  3  4  2  0
  4  5  1  0
  5  6  2  0
  6  7  1  0
  7  8  2  0
  8  9  1  0
  9 10  2  0
 10 11  1  0
 11 12  2  0
 12 13  1  0
 13 14  2  0
 14 15  1  0
 15 16  2  0
 16 17  1  0
 17 18  1  0
 18 19  1  0
 19 20  1  0
 20 21  1  0
 21 22  1  0
 22 23  1  0
 16 24  1  0
 24 25  2  0
 10 26  1  0
 26 27  1  0
 27 28  1  0
 28 29  1  0
 29 30  1  0
 30 31  1  0
 31 32  1  0
 32 33  1  0
 26  2  1  0
 33 28  1  0
  8  3  1  0
 25 13  1  0
 23 18  1  0
  4 34  1  0
  5 35  1  0
  6 36  1  0
  7 37  1  0
 11 38  1  0
 12 39  1  0
 14 40  1  0
 15 41  1  0
 17 42  1  0
 17 43  1  0
 19 44  1  0
 19 45  1  0
 20 46  1  0
 20 47  1  0
 21 48  1  0
 21 49  1  0
 22 50  1  0
 22 51  1  0
 23 52  1  0
 23 53  1  0
 24 54  1  0
 27 55  1  0
 27 56  1  0
 28 57  1  0
 29 58  1  0
 29 59  1  0
 30 60  1  0
 30 61  1  0
 31 62  1  0
 31 63  1  0
 32 64  1  0
 32 65  1  0
 33 66  1  0
 33 67  1  0
M  END
>  <smiles>  (32) 
O=c1c2ccccc2nc(/C=C/c2ccc(CN3CCCCC3)cn2)n1CC1CCCCC1

>  <score_type>  (32) 
oracle

>  <origin>  (32) 
autodockgpu

>  <m_score__min__energy>  (32) 
-9.8000000000000007

>  <m_primary>  (32) 
energy

>  <rmsd>  (32) 
6.644612717913809

>  <m_score__min__rmsd>  (32) 
6.644612717913809

>  <meeko>  (32) 
{"free_energy": -8.09, "intermolecular_energy": -10.18, "internal_energy": -1.79, "cluster_size": 3, "cluster_id": 3, "rank_in_cluster": 3}

>  <energy>  (32) 
-8.81

>  <cluster_rmsd>  (32) 
0.91

>  <cluster>  (32) 
1

$$$$

     RDKit          3D

 67 71  0  0  0  0  0  0  0  0999 V2000
  138.4550   67.7750  224.0130 O   0  0  0  0  0  0  0  0  0  0  0  0
  138.9810   68.5170  223.1240 C   0  0  0  0  0  0  0  0  0  0  0  0
  139.2730   67.9330  221.9270 C   0  0  0  0  0  0  0  0  0  0  0  0
  139.0230   66.6160  221.6630 C   0  0  0  0  0  0  0  0  0  0  0  0
  139.3450   66.0840  220.4200 C   0  0  0  0  0  0  0  0  0  0  0  0
  139.9240   66.8710  219.4230 C   0  0  0  0  0  0  0  0  0  0  0  0
  140.1730   68.2120  219.7050 C   0  0  0  0  0  0  0  0  0  0  0  0
  139.8460   68.7280  220.9500 C   0  0  0  0  0  0  0  0  0  0  0  0
  140.0690   70.0060  221.2580 N   0  0  0  0  0  0  0  0  0  0  0  0
  139.7760   70.5660  222.4410 C   0  0  0  0  0  0  0  0  0  0  0  0
  140.0560   71.9860  222.6660 C   0  0  0  0  0  0  0  0  0  0  0  0
  139.1400   72.8780  222.3450 C   0  0  0  0  0  0  0  0  0  0  0  0
  139.4350   74.2460  221.9440 C   0  0  0  0  0  0  0  0  0  0  0  0
  138.4750   75.1410  221.5210 C   0  0  0  0  0  0  0  0  0  0  0  0
  138.7990   76.4430  221.1450 C   0  0  0  0  0  0  0  0  0  0  0  0
  140.1200   76.8380  221.1990 C   0  0  0  0  0  0  0  0  0  0  0  0
  140.4260   78.2300  220.7880 C   0  0  0  0  0  0  0  0  0  0  0  0
  141.2260   78.8550  221.7940 N   0  0  0  0  0  0  0  0  0  0  0  0
  141.8830   80.0590  221.4200 C   0  0  0  0  0  0  0  0  0  0  0  0
  142.1620   80.9780  222.5870 C   0  0  0  0  0  0  0  0  0  0  0  0
  142.5270   80.2710  223.8540 C   0  0  0  0  0  0  0  0  0  0  0  0
  141.8170   78.9760  224.0840 C   0  0  0  0  0  0  0  0  0  0  0  0
  140.6480   78.9150  223.1000 C   0  0  0  0  0  0  0  0  0  0  0  0
  141.0750   75.9390  221.6220 C   0  0  0  0  0  0  0  0  0  0  0  0
  140.7050   74.6950  221.9740 N   0  0  0  0  0  0  0  0  0  0  0  0
  139.2250   69.8260  223.4010 N   0  0  0  0  0  0  0  0  0  0  0  0
  138.8850   70.3090  224.7050 C   0  0  0  0  0  0  0  0  0  0  0  0
  139.9050   70.0320  225.7640 C   0  0  0  0  0  0  0  0  0  0  0  0
  139.5130   68.7010  226.4170 C   0  0  0  0  0  0  0  0  0  0  0  0
  140.6920   68.2400  227.2330 C   0  0  0  0  0  0  0  0  0  0  0  0
  140.9150   69.2450  228.3500 C   0  0  0  0  0  0  0  0  0  0  0  0
  141.1560   70.6080  227.7550 C   0  0  0  0  0  0  0  0  0  0  0  0
  140.0150   71.0520  226.8430 C   0  0  0  0  0  0  0  0  0  0  0  0
  138.5671   65.9771  222.4337 H   0  0  0  0  0  0  0  0  0  0  0  0
  139.1396   65.0224  220.2180 H   0  0  0  0  0  0  0  0  0  0  0  0
  140.1767   66.4437  218.4414 H   0  0  0  0  0  0  0  0  0  0  0  0
  140.6281   68.8604  218.9418 H   0  0  0  0  0  0  0  0  0  0  0  0
  141.0170   72.3036  223.0967 H   0  0  0  0  0  0  0  0  0  0  0  0
  138.0850   72.5688  222.3826 H   0  0  0  0  0  0  0  0  0  0  0  0
  137.4243   74.8181  221.4792 H   0  0  0  0  0  0  0  0  0  0  0  0
  138.0175   77.1418  220.8119 H   0  0  0  0  0  0  0  0  0  0  0  0
  140.9760   78.2193  219.8354 H   0  0  0  0  0  0  0  0  0  0  0  0
  139.4884   78.7913  220.6617 H   0  0  0  0  0  0  0  0  0  0  0  0
  142.8400   79.8004  220.9433 H   0  0  0  0  0  0  0  0  0  0  0  0
  141.2100   80.5973  220.7364 H   0  0  0  0  0  0  0  0  0  0  0  0
  142.9943   81.6422  222.3111 H   0  0  0  0  0  0  0  0  0  0  0  0
  141.2283   81.5236  222.7885 H   0  0  0  0  0  0  0  0  0  0  0  0
  143.6079   80.0679  223.8318 H   0  0  0  0  0  0  0  0  0  0  0  0
  142.2235   80.9371  224.6751 H   0  0  0  0  0  0  0  0  0  0  0  0
  142.5026   78.1344  223.9061 H   0  0  0  0  0  0  0  0  0  0  0  0
  141.4560   78.9095  225.1210 H   0  0  0  0  0  0  0  0  0  0  0  0
  140.0381   78.0191  223.2882 H   0  0  0  0  0  0  0  0  0  0  0  0
  139.9898   79.7899  223.2062 H   0  0  0  0  0  0  0  0  0  0  0  0
  142.1327   76.2370  221.6713 H   0  0  0  0  0  0  0  0  0  0  0  0
  138.7461   71.3983  224.6407 H   0  0  0  0  0  0  0  0  0  0  0  0
  137.9736   69.7714  225.0057 H   0  0  0  0  0  0  0  0  0  0  0  0
  140.8838   70.0294  225.2621 H   0  0  0  0  0  0  0  0  0  0  0  0
  138.6375   68.8439  227.0674 H   0  0  0  0  0  0  0  0  0  0  0  0
  139.2511   67.9539  225.6533 H   0  0  0  0  0  0  0  0  0  0  0  0
  140.4846   67.2478  227.6602 H   0  0  0  0  0  0  0  0  0  0  0  0
  141.5888   68.1686  226.6001 H   0  0  0  0  0  0  0  0  0  0  0  0
  140.0257   69.2787  228.9965 H   0  0  0  0  0  0  0  0  0  0  0  0
  141.7891   68.9442  228.9463 H   0  0  0  0  0  0  0  0  0  0  0  0
  141.2601   71.3372  228.5719 H   0  0  0  0  0  0  0  0  0  0  0  0
  142.0709   70.5527  227.1468 H   0  0  0  0  0  0  0  0  0  0  0  0
  139.0747   71.1050  227.4113 H   0  0  0  0  0  0  0  0  0  0  0  0
  140.2101   72.0502  226.4241 H   0  0  0  0  0  0  0  0  0  0  0  0
  1  2  2  0
  2  3  1  0
  3  4  2  0
  4  5  1  0
  5  6  2  0
  6  7  1  0
  7  8  2  0
  8  9  1  0
  9 10  2  0
 10 11  1  0
 11 12  2  0
 12 13  1  0
 13 14  2  0
 14 15  1  0
 15 16  2  0
 16 17  1  0
 17 18  1  0
 18 19  1  0
 19 20  1  0
 20 21  1  0
 21 22  1  0
 22 23  1  0
 16 24  1  0
 24 25  2  0
 10 26  1  0
 26 27  1  0
 27 28  1  0
 28 29  1  0
 29 30  1  0
 30 31  1  0
 31 32  1  0
 32 33  1  0
 26  2  1  0
 33 28  1  0
  8  3  1  0
 25 13  1  0
 23 18  1  0
  4 34  1  0
  5 35  1  0
  6 36  1  0
  7 37  1  0
 11 38  1  0
 12 39  1  0
 14 40  1  0
 15 41  1  0
 17 42  1  0
 17 43  1  0
 19 44  1  0
 19 45  1  0
 20 46  1  0
 20 47  1  0
 21 48  1  0
 21 49  1  0
 22 50  1  0
 22 51  1  0
 23 52  1  0
 23 53  1  0
 24 54  1  0
 27 55  1  0
 27 56  1  0
 28 57  1  0
 29 58  1  0
 29 59  1  0
 30 60  1  0
 30 61  1  0
 31 62  1  0
 31 63  1  0
 32 64  1  0
 32 65  1  0
 33 66  1  0
 33 67  1  0
M  END
>  <smiles>  (33) 
O=c1c2ccccc2nc(/C=C/c2ccc(CN3CCCCC3)cn2)n1CC1CCCCC1

>  <score_type>  (33) 
oracle

>  <origin>  (33) 
autodockgpu

>  <m_score__min__energy>  (33) 
-9.8000000000000007

>  <m_primary>  (33) 
energy

>  <rmsd>  (33) 
6.538940713269022

>  <m_score__min__rmsd>  (33) 
6.538940713269022

>  <meeko>  (33) 
{"free_energy": -8.58, "intermolecular_energy": -10.66, "internal_energy": -1.38, "cluster_size": 1, "cluster_id": 4, "rank_in_cluster": 1}

>  <energy>  (33) 
-8.72

>  <cluster_rmsd>  (33) 
0.82

>  <cluster>  (33) 
1

$$$$

     RDKit          3D

 67 71  0  0  0  0  0  0  0  0999 V2000
  137.6990   68.8810  224.9560 O   0  0  0  0  0  0  0  0  0  0  0  0
  138.6420   69.7000  224.7170 C   0  0  0  0  0  0  0  0  0  0  0  0
  139.4130   70.0790  225.7760 C   0  0  0  0  0  0  0  0  0  0  0  0
  139.2080   69.6180  227.0460 C   0  0  0  0  0  0  0  0  0  0  0  0
  140.0310   70.0470  228.0810 C   0  0  0  0  0  0  0  0  0  0  0  0
  141.0750   70.9450  227.8510 C   0  0  0  0  0  0  0  0  0  0  0  0
  141.2730   71.4060  226.5530 C   0  0  0  0  0  0  0  0  0  0  0  0
  140.4420   70.9700  225.5310 C   0  0  0  0  0  0  0  0  0  0  0  0
  140.6000   71.3880  224.2750 N   0  0  0  0  0  0  0  0  0  0  0  0
  139.8330   71.0050  223.2430 C   0  0  0  0  0  0  0  0  0  0  0  0
  140.1040   71.5230  221.9000 C   0  0  0  0  0  0  0  0  0  0  0  0
  140.9990   72.4800  221.7510 C   0  0  0  0  0  0  0  0  0  0  0  0
  140.6800   73.8990  221.7120 C   0  0  0  0  0  0  0  0  0  0  0  0
  141.4560   74.8380  221.0670 C   0  0  0  0  0  0  0  0  0  0  0  0
  141.1170   76.1900  221.0530 C   0  0  0  0  0  0  0  0  0  0  0  0
  139.9690   76.5890  221.7060 C   0  0  0  0  0  0  0  0  0  0  0  0
  139.6420   78.0360  221.6720 C   0  0  0  0  0  0  0  0  0  0  0  0
  140.7700   78.7860  222.1270 N   0  0  0  0  0  0  0  0  0  0  0  0
  141.2530   79.7950  221.2470 C   0  0  0  0  0  0  0  0  0  0  0  0
  141.9640   80.9220  221.9600 C   0  0  0  0  0  0  0  0  0  0  0  0
  142.7700   80.4910  223.1440 C   0  0  0  0  0  0  0  0  0  0  0  0
  142.1840   79.3680  223.9360 C   0  0  0  0  0  0  0  0  0  0  0  0
  140.7290   79.2080  223.4920 C   0  0  0  0  0  0  0  0  0  0  0  0
  139.1980   75.6470  222.3500 C   0  0  0  0  0  0  0  0  0  0  0  0
  139.5740   74.3560  222.3300 N   0  0  0  0  0  0  0  0  0  0  0  0
  138.8340   70.1500  223.4480 N   0  0  0  0  0  0  0  0  0  0  0  0
  137.9410   69.6840  222.4300 C   0  0  0  0  0  0  0  0  0  0  0  0
  138.4050   68.4660  221.6960 C   0  0  0  0  0  0  0  0  0  0  0  0
  138.4480   67.3230  222.7170 C   0  0  0  0  0  0  0  0  0  0  0  0
  138.5780   66.0370  221.9450 C   0  0  0  0  0  0  0  0  0  0  0  0
  139.9150   66.0530  221.2250 C   0  0  0  0  0  0  0  0  0  0  0  0
  139.9790   67.2520  220.3140 C   0  0  0  0  0  0  0  0  0  0  0  0
  139.7500   68.5600  221.0650 C   0  0  0  0  0  0  0  0  0  0  0  0
  138.3926   68.9082  227.2491 H   0  0  0  0  0  0  0  0  0  0  0  0
  139.8564   69.6719  229.1002 H   0  0  0  0  0  0  0  0  0  0  0  0
  141.7238   71.2793  228.6740 H   0  0  0  0  0  0  0  0  0  0  0  0
  142.0865   72.1144  226.3377 H   0  0  0  0  0  0  0  0  0  0  0  0
  139.5685   71.1194  221.0280 H   0  0  0  0  0  0  0  0  0  0  0  0
  142.0543   72.1867  221.6497 H   0  0  0  0  0  0  0  0  0  0  0  0
  142.3692   74.5110  220.5483 H   0  0  0  0  0  0  0  0  0  0  0  0
  141.7510   76.9229  220.5326 H   0  0  0  0  0  0  0  0  0  0  0  0
  139.3947   78.3327  220.6420 H   0  0  0  0  0  0  0  0  0  0  0  0
  138.7797   78.2343  222.3256 H   0  0  0  0  0  0  0  0  0  0  0  0
  141.9555   79.3325  220.5381 H   0  0  0  0  0  0  0  0  0  0  0  0
  140.3789   80.2307  220.7410 H   0  0  0  0  0  0  0  0  0  0  0  0
  142.6398   81.4110  221.2430 H   0  0  0  0  0  0  0  0  0  0  0  0
  141.1825   81.5965  222.3401 H   0  0  0  0  0  0  0  0  0  0  0  0
  143.7602   80.1740  222.7848 H   0  0  0  0  0  0  0  0  0  0  0  0
  142.8057   81.3570  223.8213 H   0  0  0  0  0  0  0  0  0  0  0  0
  142.7410   78.4396  223.7415 H   0  0  0  0  0  0  0  0  0  0  0  0
  142.2408   79.5808  225.0137 H   0  0  0  0  0  0  0  0  0  0  0  0
  140.2234   78.4511  224.1096 H   0  0  0  0  0  0  0  0  0  0  0  0
  140.1715   80.1497  223.6027 H   0  0  0  0  0  0  0  0  0  0  0  0
  138.2808   75.9485  222.8772 H   0  0  0  0  0  0  0  0  0  0  0  0
  136.9754   69.4512  222.9026 H   0  0  0  0  0  0  0  0  0  0  0  0
  137.8767   70.4891  221.6832 H   0  0  0  0  0  0  0  0  0  0  0  0
  137.7002   68.3164  220.8648 H   0  0  0  0  0  0  0  0  0  0  0  0
  139.3115   67.4489  223.3867 H   0  0  0  0  0  0  0  0  0  0  0  0
  137.5366   67.3168  223.3329 H   0  0  0  0  0  0  0  0  0  0  0  0
  138.5364   65.1817  222.6354 H   0  0  0  0  0  0  0  0  0  0  0  0
  137.7557   65.9423  221.2205 H   0  0  0  0  0  0  0  0  0  0  0  0
  140.7286   66.1092  221.9632 H   0  0  0  0  0  0  0  0  0  0  0  0
  140.0230   65.1338  220.6305 H   0  0  0  0  0  0  0  0  0  0  0  0
  140.9714   67.2845  219.8406 H   0  0  0  0  0  0  0  0  0  0  0  0
  139.1807   67.1491  219.5643 H   0  0  0  0  0  0  0  0  0  0  0  0
  140.5218   68.6929  221.8374 H   0  0  0  0  0  0  0  0  0  0  0  0
  139.8057   69.4210  220.3826 H   0  0  0  0  0  0  0  0  0  0  0  0
  1  2  2  0
  2  3  1  0
  3  4  2  0
  4  5  1  0
  5  6  2  0
  6  7  1  0
  7  8  2  0
  8  9  1  0
  9 10  2  0
 10 11  1  0
 11 12  2  0
 12 13  1  0
 13 14  2  0
 14 15  1  0
 15 16  2  0
 16 17  1  0
 17 18  1  0
 18 19  1  0
 19 20  1  0
 20 21  1  0
 21 22  1  0
 22 23  1  0
 16 24  1  0
 24 25  2  0
 10 26  1  0
 26 27  1  0
 27 28  1  0
 28 29  1  0
 29 30  1  0
 30 31  1  0
 31 32  1  0
 32 33  1  0
 26  2  1  0
 33 28  1  0
  8  3  1  0
 25 13  1  0
 23 18  1  0
  4 34  1  0
  5 35  1  0
  6 36  1  0
  7 37  1  0
 11 38  1  0
 12 39  1  0
 14 40  1  0
 15 41  1  0
 17 42  1  0
 17 43  1  0
 19 44  1  0
 19 45  1  0
 20 46  1  0
 20 47  1  0
 21 48  1  0
 21 49  1  0
 22 50  1  0
 22 51  1  0
 23 52  1  0
 23 53  1  0
 24 54  1  0
 27 55  1  0
 27 56  1  0
 28 57  1  0
 29 58  1  0
 29 59  1  0
 30 60  1  0
 30 61  1  0
 31 62  1  0
 31 63  1  0
 32 64  1  0
 32 65  1  0
 33 66  1  0
 33 67  1  0
M  END
>  <smiles>  (34) 
O=c1c2ccccc2nc(/C=C/c2ccc(CN3CCCCC3)cn2)n1CC1CCCCC1

>  <score_type>  (34) 
oracle

>  <origin>  (34) 
autodockgpu

>  <m_score__min__energy>  (34) 
-9.8000000000000007

>  <m_primary>  (34) 
energy

>  <rmsd>  (34) 
6.618211373328496

>  <m_score__min__rmsd>  (34) 
6.618211373328496

>  <meeko>  (34) 
{"free_energy": -9.15, "intermolecular_energy": -11.24, "internal_energy": -1.55, "cluster_size": 36, "cluster_id": 1, "rank_in_cluster": 27}

>  <energy>  (34) 
-8.62

>  <cluster_rmsd>  (34) 
0.95

>  <cluster>  (34) 
1

$$$$

     RDKit          3D

 67 71  0  0  0  0  0  0  0  0999 V2000
  139.1300   67.7600  225.3860 O   0  0  0  0  0  0  0  0  0  0  0  0
  139.4560   68.9550  225.0960 C   0  0  0  0  0  0  0  0  0  0  0  0
  139.9860   69.7100  226.0990 C   0  0  0  0  0  0  0  0  0  0  0  0
  140.1730   69.2350  227.3670 C   0  0  0  0  0  0  0  0  0  0  0  0
  140.7190   70.0600  228.3430 C   0  0  0  0  0  0  0  0  0  0  0  0
  141.0870   71.3760  228.0570 C   0  0  0  0  0  0  0  0  0  0  0  0
  140.8920   71.8470  226.7620 C   0  0  0  0  0  0  0  0  0  0  0  0
  140.3450   71.0120  225.7990 C   0  0  0  0  0  0  0  0  0  0  0  0
  140.1430   71.4250  224.5470 N   0  0  0  0  0  0  0  0  0  0  0  0
  139.6200   70.6700  223.5710 C   0  0  0  0  0  0  0  0  0  0  0  0
  139.4520   71.2270  222.2270 C   0  0  0  0  0  0  0  0  0  0  0  0
  140.2790   72.1680  221.8150 C   0  0  0  0  0  0  0  0  0  0  0  0
  139.9990   73.5940  221.8920 C   0  0  0  0  0  0  0  0  0  0  0  0
  138.7260   74.1180  221.9690 C   0  0  0  0  0  0  0  0  0  0  0  0
  138.4990   75.4910  222.0410 C   0  0  0  0  0  0  0  0  0  0  0  0
  139.5850   76.3410  222.0350 C   0  0  0  0  0  0  0  0  0  0  0  0
  139.3040   77.7970  222.1100 C   0  0  0  0  0  0  0  0  0  0  0  0
  140.5290   78.5040  222.3110 N   0  0  0  0  0  0  0  0  0  0  0  0
  141.0980   79.1190  221.1620 C   0  0  0  0  0  0  0  0  0  0  0  0
  141.9640   80.3140  221.4870 C   0  0  0  0  0  0  0  0  0  0  0  0
  142.7540   80.1760  222.7500 C   0  0  0  0  0  0  0  0  0  0  0  0
  142.0650   79.4390  223.8520 C   0  0  0  0  0  0  0  0  0  0  0  0
  140.5870   79.3310  223.4750 C   0  0  0  0  0  0  0  0  0  0  0  0
  140.8540   75.8130  221.9580 C   0  0  0  0  0  0  0  0  0  0  0  0
  141.0140   74.4790  221.8910 N   0  0  0  0  0  0  0  0  0  0  0  0
  139.2640   69.4130  223.8300 N   0  0  0  0  0  0  0  0  0  0  0  0
  138.6820   68.5200  222.8750 C   0  0  0  0  0  0  0  0  0  0  0  0
  137.2420   68.7820  222.5640 C   0  0  0  0  0  0  0  0  0  0  0  0
  136.5860   69.2480  223.8700 C   0  0  0  0  0  0  0  0  0  0  0  0
  135.2460   69.8360  223.5120 C   0  0  0  0  0  0  0  0  0  0  0  0
  134.3820   68.7250  222.9410 C   0  0  0  0  0  0  0  0  0  0  0  0
  135.0630   68.1310  221.7350 C   0  0  0  0  0  0  0  0  0  0  0  0
  136.4640   67.6190  222.0560 C   0  0  0  0  0  0  0  0  0  0  0  0
  139.8916   68.2008  227.6146 H   0  0  0  0  0  0  0  0  0  0  0  0
  140.8640   69.6685  229.3607 H   0  0  0  0  0  0  0  0  0  0  0  0
  141.5194   72.0232  228.8343 H   0  0  0  0  0  0  0  0  0  0  0  0
  141.1710   72.8790  226.5028 H   0  0  0  0  0  0  0  0  0  0  0  0
  138.6471   70.8654  221.5702 H   0  0  0  0  0  0  0  0  0  0  0  0
  141.2422   71.8550  221.3857 H   0  0  0  0  0  0  0  0  0  0  0  0
  137.8654   73.4330  221.9737 H   0  0  0  0  0  0  0  0  0  0  0  0
  137.4751   75.8885  222.1014 H   0  0  0  0  0  0  0  0  0  0  0  0
  138.8372   78.1301  221.1713 H   0  0  0  0  0  0  0  0  0  0  0  0
  138.6205   77.9979  222.9481 H   0  0  0  0  0  0  0  0  0  0  0  0
  141.7144   78.3742  220.6372 H   0  0  0  0  0  0  0  0  0  0  0  0
  140.2649   79.4811  220.5417 H   0  0  0  0  0  0  0  0  0  0  0  0
  142.6677   80.4660  220.6553 H   0  0  0  0  0  0  0  0  0  0  0  0
  141.2837   81.1661  221.6323 H   0  0  0  0  0  0  0  0  0  0  0  0
  143.6853   79.6409  222.5125 H   0  0  0  0  0  0  0  0  0  0  0  0
  142.9182   81.1983  223.1215 H   0  0  0  0  0  0  0  0  0  0  0  0
  142.4995   78.4344  223.9617 H   0  0  0  0  0  0  0  0  0  0  0  0
  142.1844   79.9694  224.8082 H   0  0  0  0  0  0  0  0  0  0  0  0
  140.0170   78.8727  224.2966 H   0  0  0  0  0  0  0  0  0  0  0  0
  140.1500   80.3221  223.2833 H   0  0  0  0  0  0  0  0  0  0  0  0
  141.7309   76.4771  221.9513 H   0  0  0  0  0  0  0  0  0  0  0  0
  139.2540   68.6006  221.9389 H   0  0  0  0  0  0  0  0  0  0  0  0
  138.7231   67.5172  223.3252 H   0  0  0  0  0  0  0  0  0  0  0  0
  137.2283   69.5218  221.7501 H   0  0  0  0  0  0  0  0  0  0  0  0
  136.4529   68.3939  224.5503 H   0  0  0  0  0  0  0  0  0  0  0  0
  137.2155   69.9932  224.3783 H   0  0  0  0  0  0  0  0  0  0  0  0
  134.7699   70.2542  224.4111 H   0  0  0  0  0  0  0  0  0  0  0  0
  135.3680   70.6423  222.7737 H   0  0  0  0  0  0  0  0  0  0  0  0
  134.2374   67.9444  223.7024 H   0  0  0  0  0  0  0  0  0  0  0  0
  133.4044   69.1343  222.6465 H   0  0  0  0  0  0  0  0  0  0  0  0
  134.4562   67.2922  221.3632 H   0  0  0  0  0  0  0  0  0  0  0  0
  135.1590   68.9232  220.9779 H   0  0  0  0  0  0  0  0  0  0  0  0
  136.4131   66.8331  222.8240 H   0  0  0  0  0  0  0  0  0  0  0  0
  136.9396   67.1859  221.1637 H   0  0  0  0  0  0  0  0  0  0  0  0
  1  2  2  0
  2  3  1  0
  3  4  2  0
  4  5  1  0
  5  6  2  0
  6  7  1  0
  7  8  2  0
  8  9  1  0
  9 10  2  0
 10 11  1  0
 11 12  2  0
 12 13  1  0
 13 14  2  0
 14 15  1  0
 15 16  2  0
 16 17  1  0
 17 18  1  0
 18 19  1  0
 19 20  1  0
 20 21  1  0
 21 22  1  0
 22 23  1  0
 16 24  1  0
 24 25  2  0
 10 26  1  0
 26 27  1  0
 27 28  1  0
 28 29  1  0
 29 30  1  0
 30 31  1  0
 31 32  1  0
 32 33  1  0
 26  2  1  0
 33 28  1  0
  8  3  1  0
 25 13  1  0
 23 18  1  0
  4 34  1  0
  5 35  1  0
  6 36  1  0
  7 37  1  0
 11 38  1  0
 12 39  1  0
 14 40  1  0
 15 41  1  0
 17 42  1  0
 17 43  1  0
 19 44  1  0
 19 45  1  0
 20 46  1  0
 20 47  1  0
 21 48  1  0
 21 49  1  0
 22 50  1  0
 22 51  1  0
 23 52  1  0
 23 53  1  0
 24 54  1  0
 27 55  1  0
 27 56  1  0
 28 57  1  0
 29 58  1  0
 29 59  1  0
 30 60  1  0
 30 61  1  0
 31 62  1  0
 31 63  1  0
 32 64  1  0
 32 65  1  0
 33 66  1  0
 33 67  1  0
M  END
>  <smiles>  (35) 
O=c1c2ccccc2nc(/C=C/c2ccc(CN3CCCCC3)cn2)n1CC1CCCCC1

>  <score_type>  (35) 
oracle

>  <origin>  (35) 
autodockgpu

>  <m_score__min__energy>  (35) 
-9.8000000000000007

>  <m_primary>  (35) 
energy

>  <rmsd>  (35) 
6.8474739384320396

>  <m_score__min__rmsd>  (35) 
6.8474739384320396

>  <meeko>  (35) 
{"free_energy": -9.62, "intermolecular_energy": -11.71, "internal_energy": -1.63, "cluster_size": 36, "cluster_id": 1, "rank_in_cluster": 8}

>  <energy>  (35) 
-8.57

>  <cluster_rmsd>  (35) 
1.49

>  <cluster>  (35) 
1

$$$$

     RDKit          3D

 67 71  0  0  0  0  0  0  0  0999 V2000
  138.9590   68.0740  225.2860 O   0  0  0  0  0  0  0  0  0  0  0  0
  139.4480   69.2170  225.0180 C   0  0  0  0  0  0  0  0  0  0  0  0
  139.9920   69.9140  226.0560 C   0  0  0  0  0  0  0  0  0  0  0  0
  140.0270   69.4350  227.3350 C   0  0  0  0  0  0  0  0  0  0  0  0
  140.5970   70.1980  228.3460 C   0  0  0  0  0  0  0  0  0  0  0  0
  141.1410   71.4580  228.0850 C   0  0  0  0  0  0  0  0  0  0  0  0
  141.0990   71.9340  226.7780 C   0  0  0  0  0  0  0  0  0  0  0  0
  140.5260   71.1600  225.7790 C   0  0  0  0  0  0  0  0  0  0  0  0
  140.4670   71.5810  224.5150 N   0  0  0  0  0  0  0  0  0  0  0  0
  139.9290   70.8830  223.5050 C   0  0  0  0  0  0  0  0  0  0  0  0
  139.9270   71.4410  222.1510 C   0  0  0  0  0  0  0  0  0  0  0  0
  138.9060   72.1830  221.7650 C   0  0  0  0  0  0  0  0  0  0  0  0
  138.8430   73.6290  221.9180 C   0  0  0  0  0  0  0  0  0  0  0  0
  137.6680   74.3490  221.8760 C   0  0  0  0  0  0  0  0  0  0  0  0
  137.6490   75.7350  222.0260 C   0  0  0  0  0  0  0  0  0  0  0  0
  138.8450   76.3950  222.2210 C   0  0  0  0  0  0  0  0  0  0  0  0
  138.7850   77.8700  222.3730 C   0  0  0  0  0  0  0  0  0  0  0  0
  140.1140   78.3880  222.4670 N   0  0  0  0  0  0  0  0  0  0  0  0
  140.6830   78.8860  221.2620 C   0  0  0  0  0  0  0  0  0  0  0  0
  141.7390   79.9430  221.4890 C   0  0  0  0  0  0  0  0  0  0  0  0
  142.5890   79.7140  222.6980 C   0  0  0  0  0  0  0  0  0  0  0  0
  141.8810   79.1130  223.8680 C   0  0  0  0  0  0  0  0  0  0  0  0
  140.3790   79.2210  223.5970 C   0  0  0  0  0  0  0  0  0  0  0  0
  140.0160   75.6700  222.2610 C   0  0  0  0  0  0  0  0  0  0  0  0
  139.9740   74.3340  222.1110 N   0  0  0  0  0  0  0  0  0  0  0  0
  139.4050   69.6820  223.7400 N   0  0  0  0  0  0  0  0  0  0  0  0
  138.7900   68.8540  222.7470 C   0  0  0  0  0  0  0  0  0  0  0  0
  137.2970   68.9440  222.6900 C   0  0  0  0  0  0  0  0  0  0  0  0
  136.9380   69.4340  221.2820 C   0  0  0  0  0  0  0  0  0  0  0  0
  135.4610   69.2060  221.0930 C   0  0  0  0  0  0  0  0  0  0  0  0
  134.7180   70.0860  222.0830 C   0  0  0  0  0  0  0  0  0  0  0  0
  135.1540   69.7430  223.4840 C   0  0  0  0  0  0  0  0  0  0  0  0
  136.6640   69.8710  223.6670 C   0  0  0  0  0  0  0  0  0  0  0  0
  139.6040   68.4457  227.5640 H   0  0  0  0  0  0  0  0  0  0  0  0
  140.6205   69.8025  229.3721 H   0  0  0  0  0  0  0  0  0  0  0  0
  141.5902   72.0574  228.8905 H   0  0  0  0  0  0  0  0  0  0  0  0
  141.5191   72.9217  226.5373 H   0  0  0  0  0  0  0  0  0  0  0  0
  140.7645   71.2445  221.4654 H   0  0  0  0  0  0  0  0  0  0  0  0
  138.0484   71.6765  221.2981 H   0  0  0  0  0  0  0  0  0  0  0  0
  136.7190   73.8151  221.7198 H   0  0  0  0  0  0  0  0  0  0  0  0
  136.7004   76.2908  221.9897 H   0  0  0  0  0  0  0  0  0  0  0  0
  138.2799   78.3094  221.5002 H   0  0  0  0  0  0  0  0  0  0  0  0
  138.2241   78.1248  223.2843 H   0  0  0  0  0  0  0  0  0  0  0  0
  141.1414   78.0460  220.7196 H   0  0  0  0  0  0  0  0  0  0  0  0
  139.8703   79.3566  220.6893 H   0  0  0  0  0  0  0  0  0  0  0  0
  142.3952   79.9695  220.6065 H   0  0  0  0  0  0  0  0  0  0  0  0
  141.2057   80.8908  221.6538 H   0  0  0  0  0  0  0  0  0  0  0  0
  143.4103   79.0396  222.4139 H   0  0  0  0  0  0  0  0  0  0  0  0
  142.9298   80.7076  223.0245 H   0  0  0  0  0  0  0  0  0  0  0  0
  142.1682   78.0570  223.9797 H   0  0  0  0  0  0  0  0  0  0  0  0
  142.1476   79.6395  224.7963 H   0  0  0  0  0  0  0  0  0  0  0  0
  139.8084   78.8713  224.4700 H   0  0  0  0  0  0  0  0  0  0  0  0
  140.0816   80.2624  223.4043 H   0  0  0  0  0  0  0  0  0  0  0  0
  140.9784   76.1802  222.4145 H   0  0  0  0  0  0  0  0  0  0  0  0
  139.1880   69.1460  221.7640 H   0  0  0  0  0  0  0  0  0  0  0  0
  139.0269   67.8153  223.0207 H   0  0  0  0  0  0  0  0  0  0  0  0
  136.9141   67.9444  222.9433 H   0  0  0  0  0  0  0  0  0  0  0  0
  137.1692   70.5051  221.1855 H   0  0  0  0  0  0  0  0  0  0  0  0
  137.5171   68.8910  220.5206 H   0  0  0  0  0  0  0  0  0  0  0  0
  135.1708   69.4727  220.0660 H   0  0  0  0  0  0  0  0  0  0  0  0
  135.2136   68.1477  221.2630 H   0  0  0  0  0  0  0  0  0  0  0  0
  134.9444   71.1425  221.8766 H   0  0  0  0  0  0  0  0  0  0  0  0
  133.6356   69.9173  221.9837 H   0  0  0  0  0  0  0  0  0  0  0  0
  134.6531   70.4244  224.1874 H   0  0  0  0  0  0  0  0  0  0  0  0
  134.8788   68.6954  223.6757 H   0  0  0  0  0  0  0  0  0  0  0  0
  136.9829   70.9050  223.4690 H   0  0  0  0  0  0  0  0  0  0  0  0
  136.9589   69.6200  224.6966 H   0  0  0  0  0  0  0  0  0  0  0  0
  1  2  2  0
  2  3  1  0
  3  4  2  0
  4  5  1  0
  5  6  2  0
  6  7  1  0
  7  8  2  0
  8  9  1  0
  9 10  2  0
 10 11  1  0
 11 12  2  0
 12 13  1  0
 13 14  2  0
 14 15  1  0
 15 16  2  0
 16 17  1  0
 17 18  1  0
 18 19  1  0
 19 20  1  0
 20 21  1  0
 21 22  1  0
 22 23  1  0
 16 24  1  0
 24 25  2  0
 10 26  1  0
 26 27  1  0
 27 28  1  0
 28 29  1  0
 29 30  1  0
 30 31  1  0
 31 32  1  0
 32 33  1  0
 26  2  1  0
 33 28  1  0
  8  3  1  0
 25 13  1  0
 23 18  1  0
  4 34  1  0
  5 35  1  0
  6 36  1  0
  7 37  1  0
 11 38  1  0
 12 39  1  0
 14 40  1  0
 15 41  1  0
 17 42  1  0
 17 43  1  0
 19 44  1  0
 19 45  1  0
 20 46  1  0
 20 47  1  0
 21 48  1  0
 21 49  1  0
 22 50  1  0
 22 51  1  0
 23 52  1  0
 23 53  1  0
 24 54  1  0
 27 55  1  0
 27 56  1  0
 28 57  1  0
 29 58  1  0
 29 59  1  0
 30 60  1  0
 30 61  1  0
 31 62  1  0
 31 63  1  0
 32 64  1  0
 32 65  1  0
 33 66  1  0
 33 67  1  0
M  END
>  <smiles>  (36) 
O=c1c2ccccc2nc(/C=C/c2ccc(CN3CCCCC3)cn2)n1CC1CCCCC1

>  <score_type>  (36) 
oracle

>  <origin>  (36) 
autodockgpu

>  <m_score__min__energy>  (36) 
-9.8000000000000007

>  <m_primary>  (36) 
energy

>  <rmsd>  (36) 
6.75160542884587

>  <m_score__min__rmsd>  (36) 
6.75160542884587

>  <meeko>  (36) 
{"free_energy": -9.08, "intermolecular_energy": -11.16, "internal_energy": -1.91, "cluster_size": 36, "cluster_id": 1, "rank_in_cluster": 30}

>  <energy>  (36) 
-8.47

>  <cluster_rmsd>  (36) 
1.15

>  <cluster>  (36) 
1

$$$$

     RDKit          3D

 67 71  0  0  0  0  0  0  0  0999 V2000
  139.2290   67.5090  225.2470 O   0  0  0  0  0  0  0  0  0  0  0  0
  139.4960   68.7480  225.1400 C   0  0  0  0  0  0  0  0  0  0  0  0
  140.0980   69.3430  226.2090 C   0  0  0  0  0  0  0  0  0  0  0  0
  140.4130   68.6680  227.3550 C   0  0  0  0  0  0  0  0  0  0  0  0
  141.0250   69.3370  228.4080 C   0  0  0  0  0  0  0  0  0  0  0  0
  141.3310   70.6970  228.3230 C   0  0  0  0  0  0  0  0  0  0  0  0
  141.0050   71.3730  227.1500 C   0  0  0  0  0  0  0  0  0  0  0  0
  140.3930   70.6910  226.1080 C   0  0  0  0  0  0  0  0  0  0  0  0
  140.0660   71.3020  224.9700 N   0  0  0  0  0  0  0  0  0  0  0  0
  139.4740   70.7030  223.9260 C   0  0  0  0  0  0  0  0  0  0  0  0
  139.1670   71.4730  222.7180 C   0  0  0  0  0  0  0  0  0  0  0  0
  140.0980   72.2510  222.2020 C   0  0  0  0  0  0  0  0  0  0  0  0
  139.9530   73.6880  222.0190 C   0  0  0  0  0  0  0  0  0  0  0  0
  138.7350   74.3260  221.9320 C   0  0  0  0  0  0  0  0  0  0  0  0
  138.6380   75.7060  221.7560 C   0  0  0  0  0  0  0  0  0  0  0  0
  139.8000   76.4440  221.6680 C   0  0  0  0  0  0  0  0  0  0  0  0
  139.6570   77.9090  221.4780 C   0  0  0  0  0  0  0  0  0  0  0  0
  140.7390   78.5770  222.1300 N   0  0  0  0  0  0  0  0  0  0  0  0
  141.4760   79.5030  221.3410 C   0  0  0  0  0  0  0  0  0  0  0  0
  142.1350   80.5930  222.1540 C   0  0  0  0  0  0  0  0  0  0  0  0
  142.6510   80.1420  223.4840 C   0  0  0  0  0  0  0  0  0  0  0  0
  141.8190   79.1080  224.1690 C   0  0  0  0  0  0  0  0  0  0  0  0
  140.4710   79.0550  223.4490 C   0  0  0  0  0  0  0  0  0  0  0  0
  141.0150   75.8010  221.7550 C   0  0  0  0  0  0  0  0  0  0  0  0
  141.0480   74.4670  221.9250 N   0  0  0  0  0  0  0  0  0  0  0  0
  139.1760   69.4070  223.9940 N   0  0  0  0  0  0  0  0  0  0  0  0
  138.5310   68.6650  222.9530 C   0  0  0  0  0  0  0  0  0  0  0  0
  137.0590   68.9020  222.8320 C   0  0  0  0  0  0  0  0  0  0  0  0
  136.5510   69.2550  224.2350 C   0  0  0  0  0  0  0  0  0  0  0  0
  135.1640   69.8230  224.0790 C   0  0  0  0  0  0  0  0  0  0  0  0
  134.2650   68.7270  223.5330 C   0  0  0  0  0  0  0  0  0  0  0  0
  134.8130   68.2400  222.2160 C   0  0  0  0  0  0  0  0  0  0  0  0
  136.2540   67.7520  222.3340 C   0  0  0  0  0  0  0  0  0  0  0  0
  140.1822   67.5961  227.4436 H   0  0  0  0  0  0  0  0  0  0  0  0
  141.2733   68.7847  229.3263 H   0  0  0  0  0  0  0  0  0  0  0  0
  141.8164   71.2201  229.1601 H   0  0  0  0  0  0  0  0  0  0  0  0
  141.2320   72.4446  227.0497 H   0  0  0  0  0  0  0  0  0  0  0  0
  138.1747   71.4031  222.2486 H   0  0  0  0  0  0  0  0  0  0  0  0
  141.0442   71.7848  221.8900 H   0  0  0  0  0  0  0  0  0  0  0  0
  137.8131   73.7301  222.0034 H   0  0  0  0  0  0  0  0  0  0  0  0
  137.6553   76.1958  221.6887 H   0  0  0  0  0  0  0  0  0  0  0  0
  139.6742   78.1437  220.4035 H   0  0  0  0  0  0  0  0  0  0  0  0
  138.7025   78.2453  221.9091 H   0  0  0  0  0  0  0  0  0  0  0  0
  142.2578   78.9528  220.7969 H   0  0  0  0  0  0  0  0  0  0  0  0
  140.7619   79.9913  220.6616 H   0  0  0  0  0  0  0  0  0  0  0  0
  142.9800   80.9924  221.5740 H   0  0  0  0  0  0  0  0  0  0  0  0
  141.3605   81.3477  222.3558 H   0  0  0  0  0  0  0  0  0  0  0  0
  143.6581   79.7253  223.3353 H   0  0  0  0  0  0  0  0  0  0  0  0
  142.6354   81.0284  224.1352 H   0  0  0  0  0  0  0  0  0  0  0  0
  142.3148   78.1278  224.1113 H   0  0  0  0  0  0  0  0  0  0  0  0
  141.6824   79.3605  225.2309 H   0  0  0  0  0  0  0  0  0  0  0  0
  139.7872   78.3694  223.9709 H   0  0  0  0  0  0  0  0  0  0  0  0
  139.9913   80.0446  223.4256 H   0  0  0  0  0  0  0  0  0  0  0  0
  141.9514   76.3741  221.6860 H   0  0  0  0  0  0  0  0  0  0  0  0
  139.0011   68.9380  221.9967 H   0  0  0  0  0  0  0  0  0  0  0  0
  138.6531   67.6023  223.2095 H   0  0  0  0  0  0  0  0  0  0  0  0
  136.9317   69.6963  222.0817 H   0  0  0  0  0  0  0  0  0  0  0  0
  136.5197   68.3520  224.8624 H   0  0  0  0  0  0  0  0  0  0  0  0
  137.2182   69.9833  224.7192 H   0  0  0  0  0  0  0  0  0  0  0  0
  134.7878   70.1622  225.0554 H   0  0  0  0  0  0  0  0  0  0  0  0
  135.1786   70.6820  223.3921 H   0  0  0  0  0  0  0  0  0  0  0  0
  134.2297   67.8913  224.2474 H   0  0  0  0  0  0  0  0  0  0  0  0
  133.2500   69.1242  223.3844 H   0  0  0  0  0  0  0  0  0  0  0  0
  134.1866   67.4100  221.8573 H   0  0  0  0  0  0  0  0  0  0  0  0
  134.8003   69.0856  221.5126 H   0  0  0  0  0  0  0  0  0  0  0  0
  136.3128   66.9133  223.0433 H   0  0  0  0  0  0  0  0  0  0  0  0
  136.6311   67.3974  221.3634 H   0  0  0  0  0  0  0  0  0  0  0  0
  1  2  2  0
  2  3  1  0
  3  4  2  0
  4  5  1  0
  5  6  2  0
  6  7  1  0
  7  8  2  0
  8  9  1  0
  9 10  2  0
 10 11  1  0
 11 12  2  0
 12 13  1  0
 13 14  2  0
 14 15  1  0
 15 16  2  0
 16 17  1  0
 17 18  1  0
 18 19  1  0
 19 20  1  0
 20 21  1  0
 21 22  1  0
 22 23  1  0
 16 24  1  0
 24 25  2  0
 10 26  1  0
 26 27  1  0
 27 28  1  0
 28 29  1  0
 29 30  1  0
 30 31  1  0
 31 32  1  0
 32 33  1  0
 26  2  1  0
 33 28  1  0
  8  3  1  0
 25 13  1  0
 23 18  1  0
  4 34  1  0
  5 35  1  0
  6 36  1  0
  7 37  1  0
 11 38  1  0
 12 39  1  0
 14 40  1  0
 15 41  1  0
 17 42  1  0
 17 43  1  0
 19 44  1  0
 19 45  1  0
 20 46  1  0
 20 47  1  0
 21 48  1  0
 21 49  1  0
 22 50  1  0
 22 51  1  0
 23 52  1  0
 23 53  1  0
 24 54  1  0
 27 55  1  0
 27 56  1  0
 28 57  1  0
 29 58  1  0
 29 59  1  0
 30 60  1  0
 30 61  1  0
 31 62  1  0
 31 63  1  0
 32 64  1  0
 32 65  1  0
 33 66  1  0
 33 67  1  0
M  END
>  <smiles>  (37) 
O=c1c2ccccc2nc(/C=C/c2ccc(CN3CCCCC3)cn2)n1CC1CCCCC1

>  <score_type>  (37) 
oracle

>  <origin>  (37) 
autodockgpu

>  <m_score__min__energy>  (37) 
-9.8000000000000007

>  <m_primary>  (37) 
energy

>  <rmsd>  (37) 
6.8563218510459985

>  <m_score__min__rmsd>  (37) 
6.8563218510459985

>  <meeko>  (37) 
{"free_energy": -9.65, "intermolecular_energy": -11.74, "internal_energy": -1.53, "cluster_size": 36, "cluster_id": 1, "rank_in_cluster": 5}

>  <energy>  (37) 
-9.38

>  <cluster_rmsd>  (37) 
0.0

>  <cluster>  (37) 
2

$$$$

     RDKit          3D

 67 71  0  0  0  0  0  0  0  0999 V2000
  139.2110   67.7310  225.3440 O   0  0  0  0  0  0  0  0  0  0  0  0
  139.5210   68.9570  225.2120 C   0  0  0  0  0  0  0  0  0  0  0  0
  140.1350   69.5550  226.2730 C   0  0  0  0  0  0  0  0  0  0  0  0
  140.4170   68.8950  227.4360 C   0  0  0  0  0  0  0  0  0  0  0  0
  141.0440   69.5650  228.4790 C   0  0  0  0  0  0  0  0  0  0  0  0
  141.3980   70.9120  228.3670 C   0  0  0  0  0  0  0  0  0  0  0  0
  141.1050   71.5720  227.1760 C   0  0  0  0  0  0  0  0  0  0  0  0
  140.4780   70.8890  226.1440 C   0  0  0  0  0  0  0  0  0  0  0  0
  140.1810   71.4850  224.9900 N   0  0  0  0  0  0  0  0  0  0  0  0
  139.5770   70.8830  223.9550 C   0  0  0  0  0  0  0  0  0  0  0  0
  139.3070   71.6360  222.7270 C   0  0  0  0  0  0  0  0  0  0  0  0
  140.2620   72.3880  222.2140 C   0  0  0  0  0  0  0  0  0  0  0  0
  140.1030   73.7950  221.8780 C   0  0  0  0  0  0  0  0  0  0  0  0
  138.8930   74.4550  221.9130 C   0  0  0  0  0  0  0  0  0  0  0  0
  138.7810   75.8050  221.5830 C   0  0  0  0  0  0  0  0  0  0  0  0
  139.9200   76.4900  221.2120 C   0  0  0  0  0  0  0  0  0  0  0  0
  139.7620   77.9240  220.8650 C   0  0  0  0  0  0  0  0  0  0  0  0
  140.5320   78.7160  221.7720 N   0  0  0  0  0  0  0  0  0  0  0  0
  140.5850   78.2610  223.1190 C   0  0  0  0  0  0  0  0  0  0  0  0
  141.8320   78.7000  223.8510 C   0  0  0  0  0  0  0  0  0  0  0  0
  142.3100   80.0700  223.4880 C   0  0  0  0  0  0  0  0  0  0  0  0
  142.1220   80.4490  222.0560 C   0  0  0  0  0  0  0  0  0  0  0  0
  141.7970   79.1690  221.2840 C   0  0  0  0  0  0  0  0  0  0  0  0
  141.1260   75.8250  221.1780 C   0  0  0  0  0  0  0  0  0  0  0  0
  141.1740   74.5220  221.5080 N   0  0  0  0  0  0  0  0  0  0  0  0
  139.2340   69.6000  224.0490 N   0  0  0  0  0  0  0  0  0  0  0  0
  138.5720   68.8580  223.0190 C   0  0  0  0  0  0  0  0  0  0  0  0
  137.0800   68.8210  223.1300 C   0  0  0  0  0  0  0  0  0  0  0  0
  136.5300   69.6870  221.9910 C   0  0  0  0  0  0  0  0  0  0  0  0
  135.0570   69.3920  221.8750 C   0  0  0  0  0  0  0  0  0  0  0  0
  134.3840   69.8470  223.1580 C   0  0  0  0  0  0  0  0  0  0  0  0
  135.0000   69.1270  224.3290 C   0  0  0  0  0  0  0  0  0  0  0  0
  136.5100   69.3330  224.4060 C   0  0  0  0  0  0  0  0  0  0  0  0
  140.1478   67.8342  227.5461 H   0  0  0  0  0  0  0  0  0  0  0  0
  141.2661   69.0246  229.4110 H   0  0  0  0  0  0  0  0  0  0  0  0
  141.8944   71.4368  229.1966 H   0  0  0  0  0  0  0  0  0  0  0  0
  141.3702   72.6326  227.0539 H   0  0  0  0  0  0  0  0  0  0  0  0
  138.3225   71.5751  222.2401 H   0  0  0  0  0  0  0  0  0  0  0  0
  141.2408   71.9217  222.0284 H   0  0  0  0  0  0  0  0  0  0  0  0
  137.9904   73.9007  222.2097 H   0  0  0  0  0  0  0  0  0  0  0  0
  137.8059   76.3130  221.6176 H   0  0  0  0  0  0  0  0  0  0  0  0
  140.1148   78.0946  219.8372 H   0  0  0  0  0  0  0  0  0  0  0  0
  138.7013   78.2064  220.9374 H   0  0  0  0  0  0  0  0  0  0  0  0
  139.7089   78.6549  223.6550 H   0  0  0  0  0  0  0  0  0  0  0  0
  140.5947   77.1614  223.0907 H   0  0  0  0  0  0  0  0  0  0  0  0
  141.6213   78.6837  224.9305 H   0  0  0  0  0  0  0  0  0  0  0  0
  142.6300   78.0011  223.5599 H   0  0  0  0  0  0  0  0  0  0  0  0
  141.7634   80.7965  224.1071 H   0  0  0  0  0  0  0  0  0  0  0  0
  143.3957   80.0719  223.6648 H   0  0  0  0  0  0  0  0  0  0  0  0
  141.2927   81.1656  221.9623 H   0  0  0  0  0  0  0  0  0  0  0  0
  143.0305   80.9237  221.6569 H   0  0  0  0  0  0  0  0  0  0  0  0
  141.7361   79.3795  220.2060 H   0  0  0  0  0  0  0  0  0  0  0  0
  142.5770   78.4068  221.4275 H   0  0  0  0  0  0  0  0  0  0  0  0
  142.0432   76.3559  220.8831 H   0  0  0  0  0  0  0  0  0  0  0  0
  138.8317   69.3108  222.0507 H   0  0  0  0  0  0  0  0  0  0  0  0
  138.9151   67.8176  223.1186 H   0  0  0  0  0  0  0  0  0  0  0  0
  136.7903   67.7608  223.0845 H   0  0  0  0  0  0  0  0  0  0  0  0
  136.6838   70.7519  222.2198 H   0  0  0  0  0  0  0  0  0  0  0  0
  137.0476   69.4629  221.0466 H   0  0  0  0  0  0  0  0  0  0  0  0
  134.6337   69.9366  221.0181 H   0  0  0  0  0  0  0  0  0  0  0  0
  134.8944   68.3152  221.7197 H   0  0  0  0  0  0  0  0  0  0  0  0
  134.5220   70.9314  223.2801 H   0  0  0  0  0  0  0  0  0  0  0  0
  133.3092   69.6180  223.1101 H   0  0  0  0  0  0  0  0  0  0  0  0
  134.5437   69.5043  225.2561 H   0  0  0  0  0  0  0  0  0  0  0  0
  134.8133   68.0508  224.1985 H   0  0  0  0  0  0  0  0  0  0  0  0
  136.7408   70.4023  224.5217 H   0  0  0  0  0  0  0  0  0  0  0  0
  136.9370   68.8024  225.2698 H   0  0  0  0  0  0  0  0  0  0  0  0
  1  2  2  0
  2  3  1  0
  3  4  2  0
  4  5  1  0
  5  6  2  0
  6  7  1  0
  7  8  2  0
  8  9  1  0
  9 10  2  0
 10 11  1  0
 11 12  2  0
 12 13  1  0
 13 14  2  0
 14 15  1  0
 15 16  2  0
 16 17  1  0
 17 18  1  0
 18 19  1  0
 19 20  1  0
 20 21  1  0
 21 22  1  0
 22 23  1  0
 16 24  1  0
 24 25  2  0
 10 26  1  0
 26 27  1  0
 27 28  1  0
 28 29  1  0
 29 30  1  0
 30 31  1  0
 31 32  1  0
 32 33  1  0
 26  2  1  0
 33 28  1  0
  8  3  1  0
 25 13  1  0
 23 18  1  0
  4 34  1  0
  5 35  1  0
  6 36  1  0
  7 37  1  0
 11 38  1  0
 12 39  1  0
 14 40  1  0
 15 41  1  0
 17 42  1  0
 17 43  1  0
 19 44  1  0
 19 45  1  0
 20 46  1  0
 20 47  1  0
 21 48  1  0
 21 49  1  0
 22 50  1  0
 22 51  1  0
 23 52  1  0
 23 53  1  0
 24 54  1  0
 27 55  1  0
 27 56  1  0
 28 57  1  0
 29 58  1  0
 29 59  1  0
 30 60  1  0
 30 61  1  0
 31 62  1  0
 31 63  1  0
 32 64  1  0
 32 65  1  0
 33 66  1  0
 33 67  1  0
M  END
>  <smiles>  (38) 
O=c1c2ccccc2nc(/C=C/c2ccc(CN3CCCCC3)cn2)n1CC1CCCCC1

>  <score_type>  (38) 
oracle

>  <origin>  (38) 
autodockgpu

>  <m_score__min__energy>  (38) 
-9.8000000000000007

>  <m_primary>  (38) 
energy

>  <rmsd>  (38) 
6.6080673168410025

>  <m_score__min__rmsd>  (38) 
6.6080673168410025

>  <meeko>  (38) 
{"free_energy": -9.14, "intermolecular_energy": -11.23, "internal_energy": -1.61, "cluster_size": 36, "cluster_id": 1, "rank_in_cluster": 28}

>  <energy>  (38) 
-9.33

>  <cluster_rmsd>  (38) 
0.1

>  <cluster>  (38) 
2

$$$$

     RDKit          3D

 67 71  0  0  0  0  0  0  0  0999 V2000
  139.2020   67.7350  225.4470 O   0  0  0  0  0  0  0  0  0  0  0  0
  139.4320   68.9710  225.2590 C   0  0  0  0  0  0  0  0  0  0  0  0
  140.0670   69.6390  226.2640 C   0  0  0  0  0  0  0  0  0  0  0  0
  140.4530   69.0370  227.4280 C   0  0  0  0  0  0  0  0  0  0  0  0
  141.0970   69.7780  228.4120 C   0  0  0  0  0  0  0  0  0  0  0  0
  141.3640   71.1380  228.2370 C   0  0  0  0  0  0  0  0  0  0  0  0
  140.9660   71.7390  227.0460 C   0  0  0  0  0  0  0  0  0  0  0  0
  140.3240   70.9850  226.0740 C   0  0  0  0  0  0  0  0  0  0  0  0
  139.9280   71.5240  224.9200 N   0  0  0  0  0  0  0  0  0  0  0  0
  139.3040   70.8530  223.9410 C   0  0  0  0  0  0  0  0  0  0  0  0
  138.9210   71.5460  222.7090 C   0  0  0  0  0  0  0  0  0  0  0  0
  139.8630   71.9070  221.8590 C   0  0  0  0  0  0  0  0  0  0  0  0
  140.3150   73.2770  221.6720 C   0  0  0  0  0  0  0  0  0  0  0  0
  141.5140   73.6110  221.0790 C   0  0  0  0  0  0  0  0  0  0  0  0
  141.9110   74.9370  220.9180 C   0  0  0  0  0  0  0  0  0  0  0  0
  141.0750   75.9370  221.3700 C   0  0  0  0  0  0  0  0  0  0  0  0
  141.5320   77.3360  221.1840 C   0  0  0  0  0  0  0  0  0  0  0  0
  140.9060   78.1710  222.1610 N   0  0  0  0  0  0  0  0  0  0  0  0
  141.7760   78.8650  223.0480 C   0  0  0  0  0  0  0  0  0  0  0  0
  141.1800   80.1430  223.5940 C   0  0  0  0  0  0  0  0  0  0  0  0
  139.7110   80.0700  223.8650 C   0  0  0  0  0  0  0  0  0  0  0  0
  138.9270   79.2420  222.9000 C   0  0  0  0  0  0  0  0  0  0  0  0
  139.8260   78.9790  221.6900 C   0  0  0  0  0  0  0  0  0  0  0  0
  139.8780   75.5980  221.9620 C   0  0  0  0  0  0  0  0  0  0  0  0
  139.5450   74.3010  222.0900 N   0  0  0  0  0  0  0  0  0  0  0  0
  139.0420   69.5570  224.0960 N   0  0  0  0  0  0  0  0  0  0  0  0
  138.3680   68.7430  223.1290 C   0  0  0  0  0  0  0  0  0  0  0  0
  136.8810   68.6890  223.2800 C   0  0  0  0  0  0  0  0  0  0  0  0
  136.2870   69.4180  222.0690 C   0  0  0  0  0  0  0  0  0  0  0  0
  134.8180   69.0840  222.0210 C   0  0  0  0  0  0  0  0  0  0  0  0
  134.1640   69.6600  223.2650 C   0  0  0  0  0  0  0  0  0  0  0  0
  134.8210   69.0810  224.4910 C   0  0  0  0  0  0  0  0  0  0  0  0
  136.3280   69.3230  224.5080 C   0  0  0  0  0  0  0  0  0  0  0  0
  140.2543   67.9667  227.5864 H   0  0  0  0  0  0  0  0  0  0  0  0
  141.4022   69.2841  229.3463 H   0  0  0  0  0  0  0  0  0  0  0  0
  141.8750   71.7184  229.0193 H   0  0  0  0  0  0  0  0  0  0  0  0
  141.1599   72.8083  226.8760 H   0  0  0  0  0  0  0  0  0  0  0  0
  137.8638   71.7622  222.4956 H   0  0  0  0  0  0  0  0  0  0  0  0
  140.3373   71.1214  221.2525 H   0  0  0  0  0  0  0  0  0  0  0  0
  142.1760   72.8080  220.7228 H   0  0  0  0  0  0  0  0  0  0  0  0
  142.8713   75.1814  220.4403 H   0  0  0  0  0  0  0  0  0  0  0  0
  142.6243   77.3849  221.3044 H   0  0  0  0  0  0  0  0  0  0  0  0
  141.2607   77.6814  220.1755 H   0  0  0  0  0  0  0  0  0  0  0  0
  142.0141   78.2022  223.8930 H   0  0  0  0  0  0  0  0  0  0  0  0
  142.6719   79.1433  222.4736 H   0  0  0  0  0  0  0  0  0  0  0  0
  141.6925   80.3872  224.5362 H   0  0  0  0  0  0  0  0  0  0  0  0
  141.3198   80.9118  222.8198 H   0  0  0  0  0  0  0  0  0  0  0  0
  139.5710   79.6453  224.8700 H   0  0  0  0  0  0  0  0  0  0  0  0
  139.3306   81.0973  223.7654 H   0  0  0  0  0  0  0  0  0  0  0  0
  138.6388   78.2895  223.3688 H   0  0  0  0  0  0  0  0  0  0  0  0
  138.0080   79.7645  222.5958 H   0  0  0  0  0  0  0  0  0  0  0  0
  139.2653   78.4468  220.9074 H   0  0  0  0  0  0  0  0  0  0  0  0
  140.1917   79.9193  221.2517 H   0  0  0  0  0  0  0  0  0  0  0  0
  139.1992   76.3826  222.3275 H   0  0  0  0  0  0  0  0  0  0  0  0
  138.5960   69.1405  222.1290 H   0  0  0  0  0  0  0  0  0  0  0  0
  138.7317   67.7162  223.2820 H   0  0  0  0  0  0  0  0  0  0  0  0
  136.6138   67.6246  223.3547 H   0  0  0  0  0  0  0  0  0  0  0  0
  136.4227   70.5040  222.1796 H   0  0  0  0  0  0  0  0  0  0  0  0
  136.7882   69.1044  221.1414 H   0  0  0  0  0  0  0  0  0  0  0  0
  134.3640   69.5262  221.1219 H   0  0  0  0  0  0  0  0  0  0  0  0
  134.6753   67.9939  221.9845 H   0  0  0  0  0  0  0  0  0  0  0  0
  134.2812   70.7537  223.2680 H   0  0  0  0  0  0  0  0  0  0  0  0
  133.0937   69.4062  223.2678 H   0  0  0  0  0  0  0  0  0  0  0  0
  134.3776   69.5466  225.3835 H   0  0  0  0  0  0  0  0  0  0  0  0
  134.6543   67.9938  224.4811 H   0  0  0  0  0  0  0  0  0  0  0  0
  136.5379   70.4028  224.5037 H   0  0  0  0  0  0  0  0  0  0  0  0
  136.7855   68.8954  225.4123 H   0  0  0  0  0  0  0  0  0  0  0  0
  1  2  2  0
  2  3  1  0
  3  4  2  0
  4  5  1  0
  5  6  2  0
  6  7  1  0
  7  8  2  0
  8  9  1  0
  9 10  2  0
 10 11  1  0
 11 12  2  0
 12 13  1  0
 13 14  2  0
 14 15  1  0
 15 16  2  0
 16 17  1  0
 17 18  1  0
 18 19  1  0
 19 20  1  0
 20 21  1  0
 21 22  1  0
 22 23  1  0
 16 24  1  0
 24 25  2  0
 10 26  1  0
 26 27  1  0
 27 28  1  0
 28 29  1  0
 29 30  1  0
 30 31  1  0
 31 32  1  0
 32 33  1  0
 26  2  1  0
 33 28  1  0
  8  3  1  0
 25 13  1  0
 23 18  1  0
  4 34  1  0
  5 35  1  0
  6 36  1  0
  7 37  1  0
 11 38  1  0
 12 39  1  0
 14 40  1  0
 15 41  1  0
 17 42  1  0
 17 43  1  0
 19 44  1  0
 19 45  1  0
 20 46  1  0
 20 47  1  0
 21 48  1  0
 21 49  1  0
 22 50  1  0
 22 51  1  0
 23 52  1  0
 23 53  1  0
 24 54  1  0
 27 55  1  0
 27 56  1  0
 28 57  1  0
 29 58  1  0
 29 59  1  0
 30 60  1  0
 30 61  1  0
 31 62  1  0
 31 63  1  0
 32 64  1  0
 32 65  1  0
 33 66  1  0
 33 67  1  0
M  END
>  <smiles>  (39) 
O=c1c2ccccc2nc(/C=C/c2ccc(CN3CCCCC3)cn2)n1CC1CCCCC1

>  <score_type>  (39) 
oracle

>  <origin>  (39) 
autodockgpu

>  <m_score__min__energy>  (39) 
-9.8000000000000007

>  <m_primary>  (39) 
energy

>  <rmsd>  (39) 
6.789886293021878

>  <m_score__min__rmsd>  (39) 
6.789886293021878

>  <meeko>  (39) 
{"free_energy": -9.16, "intermolecular_energy": -11.25, "internal_energy": -1.62, "cluster_size": 36, "cluster_id": 1, "rank_in_cluster": 25}

>  <energy>  (39) 
-8.99

>  <cluster_rmsd>  (39) 
0.36

>  <cluster>  (39) 
2

$$$$

     RDKit          3D

 67 71  0  0  0  0  0  0  0  0999 V2000
  138.7790   68.1340  225.3150 O   0  0  0  0  0  0  0  0  0  0  0  0
  139.3660   69.2190  225.0040 C   0  0  0  0  0  0  0  0  0  0  0  0
  139.9060   69.9420  226.0260 C   0  0  0  0  0  0  0  0  0  0  0  0
  139.8370   69.5480  227.3320 C   0  0  0  0  0  0  0  0  0  0  0  0
  140.4090   70.3340  228.3250 C   0  0  0  0  0  0  0  0  0  0  0  0
  141.0600   71.5300  228.0170 C   0  0  0  0  0  0  0  0  0  0  0  0
  141.1230   71.9210  226.6820 C   0  0  0  0  0  0  0  0  0  0  0  0
  140.5470   71.1250  225.7030 C   0  0  0  0  0  0  0  0  0  0  0  0
  140.5860   71.4640  224.4140 N   0  0  0  0  0  0  0  0  0  0  0  0
  140.0500   70.7410  223.4200 C   0  0  0  0  0  0  0  0  0  0  0  0
  140.1620   71.2070  222.0350 C   0  0  0  0  0  0  0  0  0  0  0  0
  141.0530   72.1340  221.7420 C   0  0  0  0  0  0  0  0  0  0  0  0
  140.7520   73.5540  221.6440 C   0  0  0  0  0  0  0  0  0  0  0  0
  141.5070   74.4450  220.9110 C   0  0  0  0  0  0  0  0  0  0  0  0
  141.1860   75.8000  220.8430 C   0  0  0  0  0  0  0  0  0  0  0  0
  140.0800   76.2520  221.5320 C   0  0  0  0  0  0  0  0  0  0  0  0
  139.7720   77.7010  221.4390 C   0  0  0  0  0  0  0  0  0  0  0  0
  140.8160   78.4470  222.0660 N   0  0  0  0  0  0  0  0  0  0  0  0
  141.5590   79.3220  221.2250 C   0  0  0  0  0  0  0  0  0  0  0  0
  142.1670   80.4920  221.9640 C   0  0  0  0  0  0  0  0  0  0  0  0
  142.6480   80.1670  223.3430 C   0  0  0  0  0  0  0  0  0  0  0  0
  141.8170   79.1730  224.0870 C   0  0  0  0  0  0  0  0  0  0  0  0
  140.4950   79.0270  223.3320 C   0  0  0  0  0  0  0  0  0  0  0  0
  139.3300   75.3580  222.2640 C   0  0  0  0  0  0  0  0  0  0  0  0
  139.6860   74.0610  222.2940 N   0  0  0  0  0  0  0  0  0  0  0  0
  139.4250   69.5990  223.7000 N   0  0  0  0  0  0  0  0  0  0  0  0
  138.8020   68.7540  222.7260 C   0  0  0  0  0  0  0  0  0  0  0  0
  137.4000   69.1340  222.3680 C   0  0  0  0  0  0  0  0  0  0  0  0
  136.9350   70.1480  223.4200 C   0  0  0  0  0  0  0  0  0  0  0  0
  135.6780   70.7920  222.8950 C   0  0  0  0  0  0  0  0  0  0  0  0
  134.6080   69.7200  222.7930 C   0  0  0  0  0  0  0  0  0  0  0  0
  135.0860   68.6200  221.8810 C   0  0  0  0  0  0  0  0  0  0  0  0
  136.4110   68.0220  222.3420 C   0  0  0  0  0  0  0  0  0  0  0  0
  139.3290   68.6092  227.5975 H   0  0  0  0  0  0  0  0  0  0  0  0
  140.3477   70.0076  229.3737 H   0  0  0  0  0  0  0  0  0  0  0  0
  141.5112   72.1471  228.8079 H   0  0  0  0  0  0  0  0  0  0  0  0
  141.6279   72.8581  226.4047 H   0  0  0  0  0  0  0  0  0  0  0  0
  139.5125   70.7897  221.2515 H   0  0  0  0  0  0  0  0  0  0  0  0
  142.0894   71.8133  221.5602 H   0  0  0  0  0  0  0  0  0  0  0  0
  142.3875   74.0763  220.3644 H   0  0  0  0  0  0  0  0  0  0  0  0
  141.8019   76.4940  220.2523 H   0  0  0  0  0  0  0  0  0  0  0  0
  139.6959   77.9932  220.3813 H   0  0  0  0  0  0  0  0  0  0  0  0
  138.8170   77.9077  221.9442 H   0  0  0  0  0  0  0  0  0  0  0  0
  142.3702   78.7475  220.7539 H   0  0  0  0  0  0  0  0  0  0  0  0
  140.8576   79.7344  220.4848 H   0  0  0  0  0  0  0  0  0  0  0  0
  143.0221   80.8619  221.3792 H   0  0  0  0  0  0  0  0  0  0  0  0
  141.3699   81.2415  222.0771 H   0  0  0  0  0  0  0  0  0  0  0  0
  143.6687   79.7649  223.2618 H   0  0  0  0  0  0  0  0  0  0  0  0
  142.5902   81.1042  223.9160 H   0  0  0  0  0  0  0  0  0  0  0  0
  142.3360   78.2040  224.1275 H   0  0  0  0  0  0  0  0  0  0  0  0
  141.6401   79.5093  225.1193 H   0  0  0  0  0  0  0  0  0  0  0  0
  139.8095   78.3708  223.8884 H   0  0  0  0  0  0  0  0  0  0  0  0
  139.9955   79.9995  223.2103 H   0  0  0  0  0  0  0  0  0  0  0  0
  138.4458   75.7024  222.8204 H   0  0  0  0  0  0  0  0  0  0  0  0
  139.4090   68.7840  221.8091 H   0  0  0  0  0  0  0  0  0  0  0  0
  138.7448   67.7525  223.1774 H   0  0  0  0  0  0  0  0  0  0  0  0
  137.4347   69.5194  221.3383 H   0  0  0  0  0  0  0  0  0  0  0  0
  136.7268   69.6356  224.3708 H   0  0  0  0  0  0  0  0  0  0  0  0
  137.7129   70.9038  223.6037 H   0  0  0  0  0  0  0  0  0  0  0  0
  135.3485   71.5837  223.5840 H   0  0  0  0  0  0  0  0  0  0  0  0
  135.8629   71.2419  221.9084 H   0  0  0  0  0  0  0  0  0  0  0  0
  134.4065   69.3065  223.7922 H   0  0  0  0  0  0  0  0  0  0  0  0
  133.6855   70.1596  222.3858 H   0  0  0  0  0  0  0  0  0  0  0  0
  134.3272   67.8240  221.8587 H   0  0  0  0  0  0  0  0  0  0  0  0
  135.2416   69.0541  220.8823 H   0  0  0  0  0  0  0  0  0  0  0  0
  136.3015   67.5892  223.3473 H   0  0  0  0  0  0  0  0  0  0  0  0
  136.7381   67.2192  221.6648 H   0  0  0  0  0  0  0  0  0  0  0  0
  1  2  2  0
  2  3  1  0
  3  4  2  0
  4  5  1  0
  5  6  2  0
  6  7  1  0
  7  8  2  0
  8  9  1  0
  9 10  2  0
 10 11  1  0
 11 12  2  0
 12 13  1  0
 13 14  2  0
 14 15  1  0
 15 16  2  0
 16 17  1  0
 17 18  1  0
 18 19  1  0
 19 20  1  0
 20 21  1  0
 21 22  1  0
 22 23  1  0
 16 24  1  0
 24 25  2  0
 10 26  1  0
 26 27  1  0
 27 28  1  0
 28 29  1  0
 29 30  1  0
 30 31  1  0
 31 32  1  0
 32 33  1  0
 26  2  1  0
 33 28  1  0
  8  3  1  0
 25 13  1  0
 23 18  1  0
  4 34  1  0
  5 35  1  0
  6 36  1  0
  7 37  1  0
 11 38  1  0
 12 39  1  0
 14 40  1  0
 15 41  1  0
 17 42  1  0
 17 43  1  0
 19 44  1  0
 19 45  1  0
 20 46  1  0
 20 47  1  0
 21 48  1  0
 21 49  1  0
 22 50  1  0
 22 51  1  0
 23 52  1  0
 23 53  1  0
 24 54  1  0
 27 55  1  0
 27 56  1  0
 28 57  1  0
 29 58  1  0
 29 59  1  0
 30 60  1  0
 30 61  1  0
 31 62  1  0
 31 63  1  0
 32 64  1  0
 32 65  1  0
 33 66  1  0
 33 67  1  0
M  END
>  <smiles>  (40) 
O=c1c2ccccc2nc(/C=C/c2ccc(CN3CCCCC3)cn2)n1CC1CCCCC1

>  <score_type>  (40) 
oracle

>  <origin>  (40) 
autodockgpu

>  <m_score__min__energy>  (40) 
-9.8000000000000007

>  <m_primary>  (40) 
energy

>  <rmsd>  (40) 
6.716182130456313

>  <m_score__min__rmsd>  (40) 
6.716182130456313

>  <meeko>  (40) 
{"free_energy": -9.54, "intermolecular_energy": -11.63, "internal_energy": -1.67, "cluster_size": 36, "cluster_id": 1, "rank_in_cluster": 11}

>  <energy>  (40) 
-8.98

>  <cluster_rmsd>  (40) 
0.76

>  <cluster>  (40) 
2

$$$$

     RDKit          3D

 67 71  0  0  0  0  0  0  0  0999 V2000
  138.9870   67.7360  225.4280 O   0  0  0  0  0  0  0  0  0  0  0  0
  139.1800   68.9590  225.1380 C   0  0  0  0  0  0  0  0  0  0  0  0
  139.8720   69.7060  226.0450 C   0  0  0  0  0  0  0  0  0  0  0  0
  140.3480   69.1940  227.2190 C   0  0  0  0  0  0  0  0  0  0  0  0
  141.0450   70.0120  228.1000 C   0  0  0  0  0  0  0  0  0  0  0  0
  141.2740   71.3590  227.8120 C   0  0  0  0  0  0  0  0  0  0  0  0
  140.7840   71.8680  226.6130 C   0  0  0  0  0  0  0  0  0  0  0  0
  140.0890   71.0380  225.7440 C   0  0  0  0  0  0  0  0  0  0  0  0
  139.6040   71.4880  224.5860 N   0  0  0  0  0  0  0  0  0  0  0  0
  138.9260   70.7400  223.7030 C   0  0  0  0  0  0  0  0  0  0  0  0
  138.4460   71.3390  222.4560 C   0  0  0  0  0  0  0  0  0  0  0  0
  139.2200   72.1950  221.8170 C   0  0  0  0  0  0  0  0  0  0  0  0
  139.1040   73.6410  221.9270 C   0  0  0  0  0  0  0  0  0  0  0  0
  137.8990   74.3120  221.9250 C   0  0  0  0  0  0  0  0  0  0  0  0
  137.8290   75.7000  222.0320 C   0  0  0  0  0  0  0  0  0  0  0  0
  139.0050   76.4140  222.1410 C   0  0  0  0  0  0  0  0  0  0  0  0
  138.8910   77.8890  222.2500 C   0  0  0  0  0  0  0  0  0  0  0  0
  140.1950   78.4510  222.4170 N   0  0  0  0  0  0  0  0  0  0  0  0
  140.8580   78.8690  221.2290 C   0  0  0  0  0  0  0  0  0  0  0  0
  141.8660   79.9710  221.4610 C   0  0  0  0  0  0  0  0  0  0  0  0
  142.6100   79.8620  222.7540 C   0  0  0  0  0  0  0  0  0  0  0  0
  141.8140   79.3350  223.9020 C   0  0  0  0  0  0  0  0  0  0  0  0
  140.3400   79.3790  223.4940 C   0  0  0  0  0  0  0  0  0  0  0  0
  140.2060   75.7390  222.1420 C   0  0  0  0  0  0  0  0  0  0  0  0
  140.2130   74.3980  222.0360 N   0  0  0  0  0  0  0  0  0  0  0  0
  138.7000   69.4550  223.9660 N   0  0  0  0  0  0  0  0  0  0  0  0
  137.9750   68.5650  223.1090 C   0  0  0  0  0  0  0  0  0  0  0  0
  138.8250   67.7470  222.1890 C   0  0  0  0  0  0  0  0  0  0  0  0
  139.4250   68.7160  221.1630 C   0  0  0  0  0  0  0  0  0  0  0  0
  140.5340   67.9850  220.4520 C   0  0  0  0  0  0  0  0  0  0  0  0
  139.9180   66.8310  219.6810 C   0  0  0  0  0  0  0  0  0  0  0  0
  139.1840   65.9250  220.6360 C   0  0  0  0  0  0  0  0  0  0  0  0
  138.1220   66.6710  221.4390 C   0  0  0  0  0  0  0  0  0  0  0  0
  140.1797   68.1355  227.4665 H   0  0  0  0  0  0  0  0  0  0  0  0
  141.4237   69.5902  229.0427 H   0  0  0  0  0  0  0  0  0  0  0  0
  141.8269   72.0006  228.5140 H   0  0  0  0  0  0  0  0  0  0  0  0
  140.9469   72.9248  226.3547 H   0  0  0  0  0  0  0  0  0  0  0  0
  137.4542   71.0789  222.0578 H   0  0  0  0  0  0  0  0  0  0  0  0
  140.0029   71.7897  221.1592 H   0  0  0  0  0  0  0  0  0  0  0  0
  136.9665   73.7353  221.8364 H   0  0  0  0  0  0  0  0  0  0  0  0
  136.8571   76.2153  222.0296 H   0  0  0  0  0  0  0  0  0  0  0  0
  138.4317   78.2910  221.3349 H   0  0  0  0  0  0  0  0  0  0  0  0
  138.2637   78.1479  223.1157 H   0  0  0  0  0  0  0  0  0  0  0  0
  141.3813   78.0026  220.7983 H   0  0  0  0  0  0  0  0  0  0  0  0
  140.0893   79.2690  220.5514 H   0  0  0  0  0  0  0  0  0  0  0  0
  142.5973   79.9476  220.6396 H   0  0  0  0  0  0  0  0  0  0  0  0
  141.2993   80.9129  221.5019 H   0  0  0  0  0  0  0  0  0  0  0  0
  143.4676   79.1911  222.5978 H   0  0  0  0  0  0  0  0  0  0  0  0
  142.8991   80.8874  223.0277 H   0  0  0  0  0  0  0  0  0  0  0  0
  142.1124   78.2995  224.1228 H   0  0  0  0  0  0  0  0  0  0  0  0
  141.9858   79.9400  224.8045 H   0  0  0  0  0  0  0  0  0  0  0  0
  139.7016   79.0839  224.3398 H   0  0  0  0  0  0  0  0  0  0  0  0
  140.0384   80.3928  223.1920 H   0  0  0  0  0  0  0  0  0  0  0  0
  141.1525   76.2927  222.2289 H   0  0  0  0  0  0  0  0  0  0  0  0
  137.3959   67.8767  223.7421 H   0  0  0  0  0  0  0  0  0  0  0  0
  137.3455   69.1985  222.4668 H   0  0  0  0  0  0  0  0  0  0  0  0
  139.5614   67.2303  222.8219 H   0  0  0  0  0  0  0  0  0  0  0  0
  138.6544   69.0248  220.4413 H   0  0  0  0  0  0  0  0  0  0  0  0
  139.8093   69.6196  221.6588 H   0  0  0  0  0  0  0  0  0  0  0  0
  141.0451   68.6674  219.7570 H   0  0  0  0  0  0  0  0  0  0  0  0
  141.2702   67.6093  221.1779 H   0  0  0  0  0  0  0  0  0  0  0  0
  139.2134   67.2240  218.9333 H   0  0  0  0  0  0  0  0  0  0  0  0
  140.7118   66.2634  219.1733 H   0  0  0  0  0  0  0  0  0  0  0  0
  138.6956   65.1250  220.0604 H   0  0  0  0  0  0  0  0  0  0  0  0
  139.9187   65.5170  221.3458 H   0  0  0  0  0  0  0  0  0  0  0  0
  137.3736   67.1085  220.7619 H   0  0  0  0  0  0  0  0  0  0  0  0
  137.5968   65.9906  222.1255 H   0  0  0  0  0  0  0  0  0  0  0  0
  1  2  2  0
  2  3  1  0
  3  4  2  0
  4  5  1  0
  5  6  2  0
  6  7  1  0
  7  8  2  0
  8  9  1  0
  9 10  2  0
 10 11  1  0
 11 12  2  0
 12 13  1  0
 13 14  2  0
 14 15  1  0
 15 16  2  0
 16 17  1  0
 17 18  1  0
 18 19  1  0
 19 20  1  0
 20 21  1  0
 21 22  1  0
 22 23  1  0
 16 24  1  0
 24 25  2  0
 10 26  1  0
 26 27  1  0
 27 28  1  0
 28 29  1  0
 29 30  1  0
 30 31  1  0
 31 32  1  0
 32 33  1  0
 26  2  1  0
 33 28  1  0
  8  3  1  0
 25 13  1  0
 23 18  1  0
  4 34  1  0
  5 35  1  0
  6 36  1  0
  7 37  1  0
 11 38  1  0
 12 39  1  0
 14 40  1  0
 15 41  1  0
 17 42  1  0
 17 43  1  0
 19 44  1  0
 19 45  1  0
 20 46  1  0
 20 47  1  0
 21 48  1  0
 21 49  1  0
 22 50  1  0
 22 51  1  0
 23 52  1  0
 23 53  1  0
 24 54  1  0
 27 55  1  0
 27 56  1  0
 28 57  1  0
 29 58  1  0
 29 59  1  0
 30 60  1  0
 30 61  1  0
 31 62  1  0
 31 63  1  0
 32 64  1  0
 32 65  1  0
 33 66  1  0
 33 67  1  0
M  END
>  <smiles>  (41) 
O=c1c2ccccc2nc(/C=C/c2ccc(CN3CCCCC3)cn2)n1CC1CCCCC1

>  <score_type>  (41) 
oracle

>  <origin>  (41) 
autodockgpu

>  <m_score__min__energy>  (41) 
-9.8000000000000007

>  <m_primary>  (41) 
energy

>  <rmsd>  (41) 
6.782491043043547

>  <m_score__min__rmsd>  (41) 
6.782491043043547

>  <meeko>  (41) 
{"free_energy": -9.4, "intermolecular_energy": -11.49, "internal_energy": -1.54, "cluster_size": 36, "cluster_id": 1, "rank_in_cluster": 14}

>  <energy>  (41) 
-8.95

>  <cluster_rmsd>  (41) 
0.96

>  <cluster>  (41) 
2

$$$$

     RDKit          3D

 67 71  0  0  0  0  0  0  0  0999 V2000
  143.9810   76.6670  219.9360 O   0  0  0  0  0  0  0  0  0  0  0  0
  143.1290   75.7300  220.0530 C   0  0  0  0  0  0  0  0  0  0  0  0
  143.6180   74.4630  220.1690 C   0  0  0  0  0  0  0  0  0  0  0  0
  144.9550   74.1790  220.1640 C   0  0  0  0  0  0  0  0  0  0  0  0
  145.3860   72.8640  220.2860 C   0  0  0  0  0  0  0  0  0  0  0  0
  144.4760   71.8120  220.4160 C   0  0  0  0  0  0  0  0  0  0  0  0
  143.1160   72.1150  220.4190 C   0  0  0  0  0  0  0  0  0  0  0  0
  142.7030   73.4330  220.2960 C   0  0  0  0  0  0  0  0  0  0  0  0
  141.4110   73.7640  220.2960 N   0  0  0  0  0  0  0  0  0  0  0  0
  140.9450   75.0160  220.1810 C   0  0  0  0  0  0  0  0  0  0  0  0
  139.5020   75.2640  220.2020 C   0  0  0  0  0  0  0  0  0  0  0  0
  138.8090   74.9180  221.2690 C   0  0  0  0  0  0  0  0  0  0  0  0
  138.9830   73.6630  221.9860 C   0  0  0  0  0  0  0  0  0  0  0  0
  137.9980   72.7050  222.0980 C   0  0  0  0  0  0  0  0  0  0  0  0
  138.2040   71.5160  222.7950 C   0  0  0  0  0  0  0  0  0  0  0  0
  139.4320   71.3000  223.3850 C   0  0  0  0  0  0  0  0  0  0  0  0
  139.6140   70.0240  224.1200 C   0  0  0  0  0  0  0  0  0  0  0  0
  139.7730   70.3010  225.5130 N   0  0  0  0  0  0  0  0  0  0  0  0
  139.2690   69.3200  226.4120 C   0  0  0  0  0  0  0  0  0  0  0  0
  139.9740   69.3120  227.7490 C   0  0  0  0  0  0  0  0  0  0  0  0
  140.3740   70.6670  228.2420 C   0  0  0  0  0  0  0  0  0  0  0  0
  140.8080   71.6250  227.1810 C   0  0  0  0  0  0  0  0  0  0  0  0
  141.0460   70.8160  225.9050 C   0  0  0  0  0  0  0  0  0  0  0  0
  140.4130   72.2610  223.2710 C   0  0  0  0  0  0  0  0  0  0  0  0
  140.1580   73.3900  222.5860 N   0  0  0  0  0  0  0  0  0  0  0  0
  141.8020   76.0270  220.0550 N   0  0  0  0  0  0  0  0  0  0  0  0
  141.4230   77.4000  219.9090 C   0  0  0  0  0  0  0  0  0  0  0  0
  141.8070   78.2840  221.0540 C   0  0  0  0  0  0  0  0  0  0  0  0
  140.9370   77.8670  222.2460 C   0  0  0  0  0  0  0  0  0  0  0  0
  141.5350   78.4960  223.4770 C   0  0  0  0  0  0  0  0  0  0  0  0
  141.4220   80.0030  223.3390 C   0  0  0  0  0  0  0  0  0  0  0  0
  142.1390   80.4470  222.0900 C   0  0  0  0  0  0  0  0  0  0  0  0
  141.6140   79.7450  220.8410 C   0  0  0  0  0  0  0  0  0  0  0  0
  145.6896   74.9916  220.0634 H   0  0  0  0  0  0  0  0  0  0  0  0
  146.4644   72.6469  220.2801 H   0  0  0  0  0  0  0  0  0  0  0  0
  144.8236   70.7729  220.5133 H   0  0  0  0  0  0  0  0  0  0  0  0
  142.3720   71.3109  220.5187 H   0  0  0  0  0  0  0  0  0  0  0  0
  139.0035   75.7320  219.3403 H   0  0  0  0  0  0  0  0  0  0  0  0
  138.0509   75.6227  221.6412 H   0  0  0  0  0  0  0  0  0  0  0  0
  137.0218   72.8842  221.6238 H   0  0  0  0  0  0  0  0  0  0  0  0
  137.4039   70.7652  222.8731 H   0  0  0  0  0  0  0  0  0  0  0  0
  138.7314   69.3846  223.9707 H   0  0  0  0  0  0  0  0  0  0  0  0
  140.5075   69.5051  223.7427 H   0  0  0  0  0  0  0  0  0  0  0  0
  138.2007   69.5193  226.5824 H   0  0  0  0  0  0  0  0  0  0  0  0
  139.4400   68.3370  225.9490 H   0  0  0  0  0  0  0  0  0  0  0  0
  139.2996   68.8605  228.4915 H   0  0  0  0  0  0  0  0  0  0  0  0
  140.9033   68.7396  227.6118 H   0  0  0  0  0  0  0  0  0  0  0  0
  139.5128   71.1067  228.7665 H   0  0  0  0  0  0  0  0  0  0  0  0
  141.2489   70.5110  228.8903 H   0  0  0  0  0  0  0  0  0  0  0  0
  140.0234   72.3765  227.0090 H   0  0  0  0  0  0  0  0  0  0  0  0
  141.7250   72.1515  227.4842 H   0  0  0  0  0  0  0  0  0  0  0  0
  141.4548   71.4628  225.1148 H   0  0  0  0  0  0  0  0  0  0  0  0
  141.7699   70.0054  226.0750 H   0  0  0  0  0  0  0  0  0  0  0  0
  141.3974   72.1059  223.7368 H   0  0  0  0  0  0  0  0  0  0  0  0
  141.9013   77.7918  218.9992 H   0  0  0  0  0  0  0  0  0  0  0  0
  140.3241   77.4139  219.8631 H   0  0  0  0  0  0  0  0  0  0  0  0
  142.8886   78.1494  221.2024 H   0  0  0  0  0  0  0  0  0  0  0  0
  139.9064   78.2241  222.1033 H   0  0  0  0  0  0  0  0  0  0  0  0
  140.9073   76.7717  222.3429 H   0  0  0  0  0  0  0  0  0  0  0  0
  140.9872   78.1613  224.3703 H   0  0  0  0  0  0  0  0  0  0  0  0
  142.5895   78.2010  223.5816 H   0  0  0  0  0  0  0  0  0  0  0  0
  140.3613   80.2869  223.2737 H   0  0  0  0  0  0  0  0  0  0  0  0
  141.8773   80.4872  224.2155 H   0  0  0  0  0  0  0  0  0  0  0  0
  142.0021   81.5318  221.9701 H   0  0  0  0  0  0  0  0  0  0  0  0
  143.2019   80.1864  222.2012 H   0  0  0  0  0  0  0  0  0  0  0  0
  140.5462   79.9693  220.7014 H   0  0  0  0  0  0  0  0  0  0  0  0
  142.1490   80.0865  219.9426 H   0  0  0  0  0  0  0  0  0  0  0  0
  1  2  2  0
  2  3  1  0
  3  4  2  0
  4  5  1  0
  5  6  2  0
  6  7  1  0
  7  8  2  0
  8  9  1  0
  9 10  2  0
 10 11  1  0
 11 12  2  0
 12 13  1  0
 13 14  2  0
 14 15  1  0
 15 16  2  0
 16 17  1  0
 17 18  1  0
 18 19  1  0
 19 20  1  0
 20 21  1  0
 21 22  1  0
 22 23  1  0
 16 24  1  0
 24 25  2  0
 10 26  1  0
 26 27  1  0
 27 28  1  0
 28 29  1  0
 29 30  1  0
 30 31  1  0
 31 32  1  0
 32 33  1  0
 26  2  1  0
 33 28  1  0
  8  3  1  0
 25 13  1  0
 23 18  1  0
  4 34  1  0
  5 35  1  0
  6 36  1  0
  7 37  1  0
 11 38  1  0
 12 39  1  0
 14 40  1  0
 15 41  1  0
 17 42  1  0
 17 43  1  0
 19 44  1  0
 19 45  1  0
 20 46  1  0
 20 47  1  0
 21 48  1  0
 21 49  1  0
 22 50  1  0
 22 51  1  0
 23 52  1  0
 23 53  1  0
 24 54  1  0
 27 55  1  0
 27 56  1  0
 28 57  1  0
 29 58  1  0
 29 59  1  0
 30 60  1  0
 30 61  1  0
 31 62  1  0
 31 63  1  0
 32 64  1  0
 32 65  1  0
 33 66  1  0
 33 67  1  0
M  END
>  <smiles>  (42) 
O=c1c2ccccc2nc(/C=C/c2ccc(CN3CCCCC3)cn2)n1CC1CCCCC1

>  <score_type>  (42) 
oracle

>  <origin>  (42) 
autodockgpu

>  <m_score__min__energy>  (42) 
-9.8000000000000007

>  <m_primary>  (42) 
energy

>  <rmsd>  (42) 
10.103823947877851

>  <m_score__min__rmsd>  (42) 
10.103823947877851

>  <meeko>  (42) 
{"free_energy": -9.38, "intermolecular_energy": -11.47, "internal_energy": -1.85, "cluster_size": 7, "cluster_id": 2, "rank_in_cluster": 1}

>  <energy>  (42) 
-8.86

>  <cluster_rmsd>  (42) 
1.09

>  <cluster>  (42) 
2

$$$$

     RDKit          3D

 67 71  0  0  0  0  0  0  0  0999 V2000
  143.5040   76.5940  219.7150 O   0  0  0  0  0  0  0  0  0  0  0  0
  142.8420   75.6080  220.1690 C   0  0  0  0  0  0  0  0  0  0  0  0
  143.4880   74.4090  220.2340 C   0  0  0  0  0  0  0  0  0  0  0  0
  144.7860   74.2420  219.8390 C   0  0  0  0  0  0  0  0  0  0  0  0
  145.3830   72.9910  219.9310 C   0  0  0  0  0  0  0  0  0  0  0  0
  144.6830   71.8880  220.4240 C   0  0  0  0  0  0  0  0  0  0  0  0
  143.3620   72.0710  220.8240 C   0  0  0  0  0  0  0  0  0  0  0  0
  142.7790   73.3260  220.7240 C   0  0  0  0  0  0  0  0  0  0  0  0
  141.5180   73.5430  221.0960 N   0  0  0  0  0  0  0  0  0  0  0  0
  140.8960   74.7290  221.0260 C   0  0  0  0  0  0  0  0  0  0  0  0
  139.5060   74.8530  221.4730 C   0  0  0  0  0  0  0  0  0  0  0  0
  138.6980   73.8190  221.3440 C   0  0  0  0  0  0  0  0  0  0  0  0
  138.7450   72.6340  222.1890 C   0  0  0  0  0  0  0  0  0  0  0  0
  137.7030   72.2310  222.9960 C   0  0  0  0  0  0  0  0  0  0  0  0
  137.7870   71.0890  223.7910 C   0  0  0  0  0  0  0  0  0  0  0  0
  138.9510   70.3490  223.7620 C   0  0  0  0  0  0  0  0  0  0  0  0
  139.0050   69.1420  224.6240 C   0  0  0  0  0  0  0  0  0  0  0  0
  139.5230   69.5010  225.9070 N   0  0  0  0  0  0  0  0  0  0  0  0
  139.6490   68.4460  226.8540 C   0  0  0  0  0  0  0  0  0  0  0  0
  140.7220   68.6930  227.8880 C   0  0  0  0  0  0  0  0  0  0  0  0
  140.8500   70.1220  228.3140 C   0  0  0  0  0  0  0  0  0  0  0  0
  140.6160   71.1290  227.2350 C   0  0  0  0  0  0  0  0  0  0  0  0
  140.6470   70.3830  225.9000 C   0  0  0  0  0  0  0  0  0  0  0  0
  139.9890   70.7570  222.9550 C   0  0  0  0  0  0  0  0  0  0  0  0
  139.8520   71.8670  222.2080 N   0  0  0  0  0  0  0  0  0  0  0  0
  141.5510   75.7880  220.5570 N   0  0  0  0  0  0  0  0  0  0  0  0
  140.9880   77.0980  220.4210 C   0  0  0  0  0  0  0  0  0  0  0  0
  141.5800   78.1340  221.3230 C   0  0  0  0  0  0  0  0  0  0  0  0
  140.9960   77.8900  222.7200 C   0  0  0  0  0  0  0  0  0  0  0  0
  141.8230   78.6860  223.6960 C   0  0  0  0  0  0  0  0  0  0  0  0
  141.6380   80.1600  223.3770 C   0  0  0  0  0  0  0  0  0  0  0  0
  142.0600   80.4210  221.9550 C   0  0  0  0  0  0  0  0  0  0  0  0
  141.3030   79.5500  220.9570 C   0  0  0  0  0  0  0  0  0  0  0  0
  145.3571   75.0973  219.4487 H   0  0  0  0  0  0  0  0  0  0  0  0
  146.4275   72.8669  219.6092 H   0  0  0  0  0  0  0  0  0  0  0  0
  145.1625   70.9005  220.4945 H   0  0  0  0  0  0  0  0  0  0  0  0
  142.7824   71.2232  221.2181 H   0  0  0  0  0  0  0  0  0  0  0  0
  139.1420   75.7947  221.9097 H   0  0  0  0  0  0  0  0  0  0  0  0
  137.9402   73.8538  220.5474 H   0  0  0  0  0  0  0  0  0  0  0  0
  136.7789   72.8274  223.0133 H   0  0  0  0  0  0  0  0  0  0  0  0
  136.9433   70.7844  224.4278 H   0  0  0  0  0  0  0  0  0  0  0  0
  137.9928   68.7271  224.7393 H   0  0  0  0  0  0  0  0  0  0  0  0
  139.6576   68.3872  224.1610 H   0  0  0  0  0  0  0  0  0  0  0  0
  138.6863   68.3259  227.3724 H   0  0  0  0  0  0  0  0  0  0  0  0
  139.9368   67.5422  226.2969 H   0  0  0  0  0  0  0  0  0  0  0  0
  140.4895   68.0881  228.7769 H   0  0  0  0  0  0  0  0  0  0  0  0
  141.6789   68.4168  227.4210 H   0  0  0  0  0  0  0  0  0  0  0  0
  140.1192   70.3054  229.1154 H   0  0  0  0  0  0  0  0  0  0  0  0
  141.8941   70.2536  228.6343 H   0  0  0  0  0  0  0  0  0  0  0  0
  139.6364   71.6094  227.3748 H   0  0  0  0  0  0  0  0  0  0  0  0
  141.3875   71.9126  227.2605 H   0  0  0  0  0  0  0  0  0  0  0  0
  140.5679   71.0941  225.0645 H   0  0  0  0  0  0  0  0  0  0  0  0
  141.5889   69.8291  225.7734 H   0  0  0  0  0  0  0  0  0  0  0  0
  140.9243   70.1790  222.9214 H   0  0  0  0  0  0  0  0  0  0  0  0
  141.1337   77.4264  219.3813 H   0  0  0  0  0  0  0  0  0  0  0  0
  139.9290   77.0100  220.7051 H   0  0  0  0  0  0  0  0  0  0  0  0
  142.6719   78.0211  221.2527 H   0  0  0  0  0  0  0  0  0  0  0  0
  139.9485   78.2241  222.7538 H   0  0  0  0  0  0  0  0  0  0  0  0
  141.0204   76.8193  222.9710 H   0  0  0  0  0  0  0  0  0  0  0  0
  141.4871   78.4816  224.7233 H   0  0  0  0  0  0  0  0  0  0  0  0
  142.8840   78.4078  223.6132 H   0  0  0  0  0  0  0  0  0  0  0  0
  140.5796   80.4324  223.5016 H   0  0  0  0  0  0  0  0  0  0  0  0
  142.2539   80.7638  224.0597 H   0  0  0  0  0  0  0  0  0  0  0  0
  141.8693   81.4781  221.7178 H   0  0  0  0  0  0  0  0  0  0  0  0
  143.1293   80.1769  221.8712 H   0  0  0  0  0  0  0  0  0  0  0  0
  140.2237   79.7530  221.0200 H   0  0  0  0  0  0  0  0  0  0  0  0
  141.6248   79.7609  219.9265 H   0  0  0  0  0  0  0  0  0  0  0  0
  1  2  2  0
  2  3  1  0
  3  4  2  0
  4  5  1  0
  5  6  2  0
  6  7  1  0
  7  8  2  0
  8  9  1  0
  9 10  2  0
 10 11  1  0
 11 12  2  0
 12 13  1  0
 13 14  2  0
 14 15  1  0
 15 16  2  0
 16 17  1  0
 17 18  1  0
 18 19  1  0
 19 20  1  0
 20 21  1  0
 21 22  1  0
 22 23  1  0
 16 24  1  0
 24 25  2  0
 10 26  1  0
 26 27  1  0
 27 28  1  0
 28 29  1  0
 29 30  1  0
 30 31  1  0
 31 32  1  0
 32 33  1  0
 26  2  1  0
 33 28  1  0
  8  3  1  0
 25 13  1  0
 23 18  1  0
  4 34  1  0
  5 35  1  0
  6 36  1  0
  7 37  1  0
 11 38  1  0
 12 39  1  0
 14 40  1  0
 15 41  1  0
 17 42  1  0
 17 43  1  0
 19 44  1  0
 19 45  1  0
 20 46  1  0
 20 47  1  0
 21 48  1  0
 21 49  1  0
 22 50  1  0
 22 51  1  0
 23 52  1  0
 23 53  1  0
 24 54  1  0
 27 55  1  0
 27 56  1  0
 28 57  1  0
 29 58  1  0
 29 59  1  0
 30 60  1  0
 30 61  1  0
 31 62  1  0
 31 63  1  0
 32 64  1  0
 32 65  1  0
 33 66  1  0
 33 67  1  0
M  END
>  <smiles>  (43) 
O=c1c2ccccc2nc(/C=C/c2ccc(CN3CCCCC3)cn2)n1CC1CCCCC1

>  <score_type>  (43) 
oracle

>  <origin>  (43) 
autodockgpu

>  <m_score__min__energy>  (43) 
-9.8000000000000007

>  <m_primary>  (43) 
energy

>  <rmsd>  (43) 
10.764868004771184

>  <m_score__min__rmsd>  (43) 
10.764868004771184

>  <meeko>  (43) 
{"free_energy": -8.98, "intermolecular_energy": -11.06, "internal_energy": -1.55, "cluster_size": 7, "cluster_id": 2, "rank_in_cluster": 4}

>  <energy>  (43) 
-8.64

>  <cluster_rmsd>  (43) 
1.06

>  <cluster>  (43) 
2

$$$$

     RDKit          3D

 67 71  0  0  0  0  0  0  0  0999 V2000
  138.6350   68.1960  225.1340 O   0  0  0  0  0  0  0  0  0  0  0  0
  139.2000   69.3250  224.9800 C   0  0  0  0  0  0  0  0  0  0  0  0
  139.8240   69.8550  226.0700 C   0  0  0  0  0  0  0  0  0  0  0  0
  139.8600   69.2280  227.2840 C   0  0  0  0  0  0  0  0  0  0  0  0
  140.5130   69.8260  228.3540 C   0  0  0  0  0  0  0  0  0  0  0  0
  141.1430   71.0650  228.2180 C   0  0  0  0  0  0  0  0  0  0  0  0
  141.1000   71.6930  226.9760 C   0  0  0  0  0  0  0  0  0  0  0  0
  140.4420   71.0830  225.9170 C   0  0  0  0  0  0  0  0  0  0  0  0
  140.3790   71.6520  224.7130 N   0  0  0  0  0  0  0  0  0  0  0  0
  139.7610   71.1170  223.6500 C   0  0  0  0  0  0  0  0  0  0  0  0
  139.7630   71.8280  222.3700 C   0  0  0  0  0  0  0  0  0  0  0  0
  139.1210   72.9760  222.2740 C   0  0  0  0  0  0  0  0  0  0  0  0
  139.7570   74.2440  221.9480 C   0  0  0  0  0  0  0  0  0  0  0  0
  139.2210   75.4720  222.2690 C   0  0  0  0  0  0  0  0  0  0  0  0
  139.8620   76.6650  221.9390 C   0  0  0  0  0  0  0  0  0  0  0  0
  141.0670   76.6040  221.2700 C   0  0  0  0  0  0  0  0  0  0  0  0
  141.7180   77.8940  220.9320 C   0  0  0  0  0  0  0  0  0  0  0  0
  141.4530   78.8420  221.9670 N   0  0  0  0  0  0  0  0  0  0  0  0
  142.5020   79.0640  222.9020 C   0  0  0  0  0  0  0  0  0  0  0  0
  142.4560   80.4330  223.5410 C   0  0  0  0  0  0  0  0  0  0  0  0
  141.0750   80.9420  223.8070 C   0  0  0  0  0  0  0  0  0  0  0  0
  140.0520   80.5690  222.7840 C   0  0  0  0  0  0  0  0  0  0  0  0
  140.8030   80.0470  221.5580 C   0  0  0  0  0  0  0  0  0  0  0  0
  141.5990   75.3740  220.9500 C   0  0  0  0  0  0  0  0  0  0  0  0
  140.9360   74.2550  221.2950 N   0  0  0  0  0  0  0  0  0  0  0  0
  139.1560   69.9370  223.7660 N   0  0  0  0  0  0  0  0  0  0  0  0
  138.4520   69.2770  222.7080 C   0  0  0  0  0  0  0  0  0  0  0  0
  139.2130   68.1780  222.0360 C   0  0  0  0  0  0  0  0  0  0  0  0
  139.6680   68.7230  220.6760 C   0  0  0  0  0  0  0  0  0  0  0  0
  140.7070   67.7740  220.1390 C   0  0  0  0  0  0  0  0  0  0  0  0
  140.0380   66.4340  219.8910 C   0  0  0  0  0  0  0  0  0  0  0  0
  139.4410   65.9260  221.1770 C   0  0  0  0  0  0  0  0  0  0  0  0
  138.4580   66.9190  221.7900 C   0  0  0  0  0  0  0  0  0  0  0  0
  139.3722   68.2506  227.4134 H   0  0  0  0  0  0  0  0  0  0  0  0
  140.5344   69.3139  229.3273 H   0  0  0  0  0  0  0  0  0  0  0  0
  141.6594   71.5323  229.0694 H   0  0  0  0  0  0  0  0  0  0  0  0
  141.5860   72.6696  226.8345 H   0  0  0  0  0  0  0  0  0  0  0  0
  140.2924   71.4106  221.5008 H   0  0  0  0  0  0  0  0  0  0  0  0
  138.0354   72.9752  222.4517 H   0  0  0  0  0  0  0  0  0  0  0  0
  138.2592   75.5121  222.8012 H   0  0  0  0  0  0  0  0  0  0  0  0
  139.4165   77.6346  222.2063 H   0  0  0  0  0  0  0  0  0  0  0  0
  142.8039   77.7445  220.8399 H   0  0  0  0  0  0  0  0  0  0  0  0
  141.3193   78.2691  219.9779 H   0  0  0  0  0  0  0  0  0  0  0  0
  142.4280   78.3060  223.6957 H   0  0  0  0  0  0  0  0  0  0  0  0
  143.4503   78.9952  222.3489 H   0  0  0  0  0  0  0  0  0  0  0  0
  142.9957   80.3846  224.4983 H   0  0  0  0  0  0  0  0  0  0  0  0
  142.9163   81.1302  222.8255 H   0  0  0  0  0  0  0  0  0  0  0  0
  140.7464   80.5432  224.7781 H   0  0  0  0  0  0  0  0  0  0  0  0
  141.1442   82.0396  223.7837 H   0  0  0  0  0  0  0  0  0  0  0  0
  139.3903   79.7854  223.1818 H   0  0  0  0  0  0  0  0  0  0  0  0
  139.4315   81.4379  222.5194 H   0  0  0  0  0  0  0  0  0  0  0  0
  140.0980   79.8402  220.7394 H   0  0  0  0  0  0  0  0  0  0  0  0
  141.5289   80.7869  221.1896 H   0  0  0  0  0  0  0  0  0  0  0  0
  142.5586   75.3072  220.4164 H   0  0  0  0  0  0  0  0  0  0  0  0
  137.5297   68.8479  223.1266 H   0  0  0  0  0  0  0  0  0  0  0  0
  138.2660   70.0399  221.9377 H   0  0  0  0  0  0  0  0  0  0  0  0
  140.0291   67.9012  222.7197 H   0  0  0  0  0  0  0  0  0  0  0  0
  138.8129   68.7750  219.9859 H   0  0  0  0  0  0  0  0  0  0  0  0
  140.0829   69.7363  220.7812 H   0  0  0  0  0  0  0  0  0  0  0  0
  141.1183   68.1655  219.1969 H   0  0  0  0  0  0  0  0  0  0  0  0
  141.5298   67.6616  220.8603 H   0  0  0  0  0  0  0  0  0  0  0  0
  139.2433   66.5542  219.1400 H   0  0  0  0  0  0  0  0  0  0  0  0
  140.7838   65.7140  219.5231 H   0  0  0  0  0  0  0  0  0  0  0  0
  138.9114   64.9836  220.9734 H   0  0  0  0  0  0  0  0  0  0  0  0
  140.2618   65.7781  221.8942 H   0  0  0  0  0  0  0  0  0  0  0  0
  137.6263   67.1062  221.0948 H   0  0  0  0  0  0  0  0  0  0  0  0
  138.0323   66.5258  222.7250 H   0  0  0  0  0  0  0  0  0  0  0  0
  1  2  2  0
  2  3  1  0
  3  4  2  0
  4  5  1  0
  5  6  2  0
  6  7  1  0
  7  8  2  0
  8  9  1  0
  9 10  2  0
 10 11  1  0
 11 12  2  0
 12 13  1  0
 13 14  2  0
 14 15  1  0
 15 16  2  0
 16 17  1  0
 17 18  1  0
 18 19  1  0
 19 20  1  0
 20 21  1  0
 21 22  1  0
 22 23  1  0
 16 24  1  0
 24 25  2  0
 10 26  1  0
 26 27  1  0
 27 28  1  0
 28 29  1  0
 29 30  1  0
 30 31  1  0
 31 32  1  0
 32 33  1  0
 26  2  1  0
 33 28  1  0
  8  3  1  0
 25 13  1  0
 23 18  1  0
  4 34  1  0
  5 35  1  0
  6 36  1  0
  7 37  1  0
 11 38  1  0
 12 39  1  0
 14 40  1  0
 15 41  1  0
 17 42  1  0
 17 43  1  0
 19 44  1  0
 19 45  1  0
 20 46  1  0
 20 47  1  0
 21 48  1  0
 21 49  1  0
 22 50  1  0
 22 51  1  0
 23 52  1  0
 23 53  1  0
 24 54  1  0
 27 55  1  0
 27 56  1  0
 28 57  1  0
 29 58  1  0
 29 59  1  0
 30 60  1  0
 30 61  1  0
 31 62  1  0
 31 63  1  0
 32 64  1  0
 32 65  1  0
 33 66  1  0
 33 67  1  0
M  END
>  <smiles>  (44) 
O=c1c2ccccc2nc(/C=C/c2ccc(CN3CCCCC3)cn2)n1CC1CCCCC1

>  <score_type>  (44) 
oracle

>  <origin>  (44) 
autodockgpu

>  <m_score__min__energy>  (44) 
-9.8000000000000007

>  <m_primary>  (44) 
energy

>  <rmsd>  (44) 
6.459020356538057

>  <m_score__min__rmsd>  (44) 
6.459020356538057

>  <meeko>  (44) 
{"free_energy": -9.16, "intermolecular_energy": -11.25, "internal_energy": -1.51, "cluster_size": 36, "cluster_id": 1, "rank_in_cluster": 26}

>  <energy>  (44) 
-8.64

>  <cluster_rmsd>  (44) 
0.0

>  <cluster>  (44) 
3

$$$$

     RDKit          3D

 67 71  0  0  0  0  0  0  0  0999 V2000
  139.2040   67.8250  225.3730 O   0  0  0  0  0  0  0  0  0  0  0  0
  139.5130   69.0300  225.1090 C   0  0  0  0  0  0  0  0  0  0  0  0
  140.0800   69.7560  226.1140 C   0  0  0  0  0  0  0  0  0  0  0  0
  140.3180   69.2420  227.3580 C   0  0  0  0  0  0  0  0  0  0  0  0
  140.8990   70.0380  228.3380 C   0  0  0  0  0  0  0  0  0  0  0  0
  141.2500   71.3650  228.0800 C   0  0  0  0  0  0  0  0  0  0  0  0
  141.0020   71.8760  226.8090 C   0  0  0  0  0  0  0  0  0  0  0  0
  140.4210   71.0690  225.8420 C   0  0  0  0  0  0  0  0  0  0  0  0
  140.1670   71.5210  224.6130 N   0  0  0  0  0  0  0  0  0  0  0  0
  139.6090   70.7940  223.6350 C   0  0  0  0  0  0  0  0  0  0  0  0
  139.3850   71.3930  222.3170 C   0  0  0  0  0  0  0  0  0  0  0  0
  138.7000   72.5170  222.2320 C   0  0  0  0  0  0  0  0  0  0  0  0
  139.2570   73.7810  221.7740 C   0  0  0  0  0  0  0  0  0  0  0  0
  138.6590   74.5770  220.8210 C   0  0  0  0  0  0  0  0  0  0  0  0
  139.2250   75.7820  220.4080 C   0  0  0  0  0  0  0  0  0  0  0  0
  140.4170   76.1810  220.9760 C   0  0  0  0  0  0  0  0  0  0  0  0
  140.9910   77.4680  220.5100 C   0  0  0  0  0  0  0  0  0  0  0  0
  140.7630   78.4720  221.5010 N   0  0  0  0  0  0  0  0  0  0  0  0
  139.4680   78.4940  222.0900 C   0  0  0  0  0  0  0  0  0  0  0  0
  139.4530   79.0800  223.4830 C   0  0  0  0  0  0  0  0  0  0  0  0
  140.4030   80.2180  223.6830 C   0  0  0  0  0  0  0  0  0  0  0  0
  141.6960   80.1030  222.9430 C   0  0  0  0  0  0  0  0  0  0  0  0
  141.8140   78.6600  222.4510 C   0  0  0  0  0  0  0  0  0  0  0  0
  141.0110   75.3810  221.9280 C   0  0  0  0  0  0  0  0  0  0  0  0
  140.4190   74.2280  222.2880 N   0  0  0  0  0  0  0  0  0  0  0  0
  139.2690   69.5280  223.8670 N   0  0  0  0  0  0  0  0  0  0  0  0
  138.6530   68.6620  222.9070 C   0  0  0  0  0  0  0  0  0  0  0  0
  137.1660   68.5450  223.0280 C   0  0  0  0  0  0  0  0  0  0  0  0
  136.5860   68.8420  221.6410 C   0  0  0  0  0  0  0  0  0  0  0  0
  135.1450   68.4010  221.6550 C   0  0  0  0  0  0  0  0  0  0  0  0
  134.3980   69.2660  222.6550 C   0  0  0  0  0  0  0  0  0  0  0  0
  135.0320   69.1220  224.0140 C   0  0  0  0  0  0  0  0  0  0  0  0
  136.5180   69.4690  223.9990 C   0  0  0  0  0  0  0  0  0  0  0  0
  140.0499   68.1992  227.5833 H   0  0  0  0  0  0  0  0  0  0  0  0
  141.0860   69.6148  229.3360 H   0  0  0  0  0  0  0  0  0  0  0  0
  141.7100   71.9895  228.8600 H   0  0  0  0  0  0  0  0  0  0  0  0
  141.2662   72.9172  226.5722 H   0  0  0  0  0  0  0  0  0  0  0  0
  139.7825   70.9122  221.4110 H   0  0  0  0  0  0  0  0  0  0  0  0
  137.6402   72.4977  222.5260 H   0  0  0  0  0  0  0  0  0  0  0  0
  137.7080   74.2522  220.3736 H   0  0  0  0  0  0  0  0  0  0  0  0
  138.7314   76.4018  219.6450 H   0  0  0  0  0  0  0  0  0  0  0  0
  142.0726   77.3508  220.3475 H   0  0  0  0  0  0  0  0  0  0  0  0
  140.5112   77.7657  219.5660 H   0  0  0  0  0  0  0  0  0  0  0  0
  138.8045   79.0955  221.4513 H   0  0  0  0  0  0  0  0  0  0  0  0
  139.1307   77.4503  222.1727 H   0  0  0  0  0  0  0  0  0  0  0  0
  138.4352   79.4398  223.6943 H   0  0  0  0  0  0  0  0  0  0  0  0
  139.7737   78.2787  224.1650 H   0  0  0  0  0  0  0  0  0  0  0  0
  139.9031   81.1409  223.3538 H   0  0  0  0  0  0  0  0  0  0  0  0
  140.6613   80.2166  224.7522 H   0  0  0  0  0  0  0  0  0  0  0  0
  141.7021   80.7938  222.0870 H   0  0  0  0  0  0  0  0  0  0  0  0
  142.5422   80.3610  223.5968 H   0  0  0  0  0  0  0  0  0  0  0  0
  142.7919   78.4993  221.9737 H   0  0  0  0  0  0  0  0  0  0  0  0
  141.7321   77.9461  223.2838 H   0  0  0  0  0  0  0  0  0  0  0  0
  141.9624   75.6831  222.3902 H   0  0  0  0  0  0  0  0  0  0  0  0
  138.8851   69.0452  221.9024 H   0  0  0  0  0  0  0  0  0  0  0  0
  139.0581   67.6564  223.0933 H   0  0  0  0  0  0  0  0  0  0  0  0
  136.9619   67.5325  223.4065 H   0  0  0  0  0  0  0  0  0  0  0  0
  136.6480   69.9198  221.4298 H   0  0  0  0  0  0  0  0  0  0  0  0
  137.1492   68.3091  220.8607 H   0  0  0  0  0  0  0  0  0  0  0  0
  134.7070   68.5254  220.6536 H   0  0  0  0  0  0  0  0  0  0  0  0
  135.0731   67.3407  221.9389 H   0  0  0  0  0  0  0  0  0  0  0  0
  134.4456   70.3181  222.3376 H   0  0  0  0  0  0  0  0  0  0  0  0
  133.3468   68.9457  222.7044 H   0  0  0  0  0  0  0  0  0  0  0  0
  134.5187   69.7946  224.7170 H   0  0  0  0  0  0  0  0  0  0  0  0
  134.9349   68.0702  224.3211 H   0  0  0  0  0  0  0  0  0  0  0  0
  136.6600   70.5125  223.6813 H   0  0  0  0  0  0  0  0  0  0  0  0
  136.9586   69.3607  225.0011 H   0  0  0  0  0  0  0  0  0  0  0  0
  1  2  2  0
  2  3  1  0
  3  4  2  0
  4  5  1  0
  5  6  2  0
  6  7  1  0
  7  8  2  0
  8  9  1  0
  9 10  2  0
 10 11  1  0
 11 12  2  0
 12 13  1  0
 13 14  2  0
 14 15  1  0
 15 16  2  0
 16 17  1  0
 17 18  1  0
 18 19  1  0
 19 20  1  0
 20 21  1  0
 21 22  1  0
 22 23  1  0
 16 24  1  0
 24 25  2  0
 10 26  1  0
 26 27  1  0
 27 28  1  0
 28 29  1  0
 29 30  1  0
 30 31  1  0
 31 32  1  0
 32 33  1  0
 26  2  1  0
 33 28  1  0
  8  3  1  0
 25 13  1  0
 23 18  1  0
  4 34  1  0
  5 35  1  0
  6 36  1  0
  7 37  1  0
 11 38  1  0
 12 39  1  0
 14 40  1  0
 15 41  1  0
 17 42  1  0
 17 43  1  0
 19 44  1  0
 19 45  1  0
 20 46  1  0
 20 47  1  0
 21 48  1  0
 21 49  1  0
 22 50  1  0
 22 51  1  0
 23 52  1  0
 23 53  1  0
 24 54  1  0
 27 55  1  0
 27 56  1  0
 28 57  1  0
 29 58  1  0
 29 59  1  0
 30 60  1  0
 30 61  1  0
 31 62  1  0
 31 63  1  0
 32 64  1  0
 32 65  1  0
 33 66  1  0
 33 67  1  0
M  END
>  <smiles>  (45) 
O=c1c2ccccc2nc(/C=C/c2ccc(CN3CCCCC3)cn2)n1CC1CCCCC1

>  <score_type>  (45) 
oracle

>  <origin>  (45) 
autodockgpu

>  <m_score__min__energy>  (45) 
-9.8000000000000007

>  <m_primary>  (45) 
energy

>  <rmsd>  (45) 
6.517660848216157

>  <m_score__min__rmsd>  (45) 
6.517660848216157

>  <meeko>  (45) 
{"free_energy": -8.81, "intermolecular_energy": -10.9, "internal_energy": -1.71, "cluster_size": 36, "cluster_id": 1, "rank_in_cluster": 32}

>  <energy>  (45) 
-8.63

>  <cluster_rmsd>  (45) 
0.98

>  <cluster>  (45) 
3

$$$$

     RDKit          3D

 67 71  0  0  0  0  0  0  0  0999 V2000
  136.7920   69.0140  225.1550 O   0  0  0  0  0  0  0  0  0  0  0  0
  137.1360   70.0320  224.4750 C   0  0  0  0  0  0  0  0  0  0  0  0
  136.1510   70.9150  224.1440 C   0  0  0  0  0  0  0  0  0  0  0  0
  134.8460   70.7430  224.5120 C   0  0  0  0  0  0  0  0  0  0  0  0
  133.8910   71.6820  224.1400 C   0  0  0  0  0  0  0  0  0  0  0  0
  134.2370   72.8100  223.3930 C   0  0  0  0  0  0  0  0  0  0  0  0
  135.5700   72.9740  223.0260 C   0  0  0  0  0  0  0  0  0  0  0  0
  136.5110   72.0270  223.4040 C   0  0  0  0  0  0  0  0  0  0  0  0
  137.7960   72.1470  223.0720 N   0  0  0  0  0  0  0  0  0  0  0  0
  138.7540   71.2700  223.4060 C   0  0  0  0  0  0  0  0  0  0  0  0
  140.1400   71.5090  222.9940 C   0  0  0  0  0  0  0  0  0  0  0  0
  140.3740   72.0060  221.7950 C   0  0  0  0  0  0  0  0  0  0  0  0
  140.7210   73.3960  221.5390 C   0  0  0  0  0  0  0  0  0  0  0  0
  141.8060   73.7850  220.7830 C   0  0  0  0  0  0  0  0  0  0  0  0
  142.1050   75.1280  220.5610 C   0  0  0  0  0  0  0  0  0  0  0  0
  141.2860   76.0880  221.1190 C   0  0  0  0  0  0  0  0  0  0  0  0
  141.6370   77.5070  220.8640 C   0  0  0  0  0  0  0  0  0  0  0  0
  141.1480   78.3140  221.9370 N   0  0  0  0  0  0  0  0  0  0  0  0
  142.1240   79.0430  222.6720 C   0  0  0  0  0  0  0  0  0  0  0  0
  141.5770   80.2940  223.3190 C   0  0  0  0  0  0  0  0  0  0  0  0
  140.1770   80.1610  223.8300 C   0  0  0  0  0  0  0  0  0  0  0  0
  139.2780   79.3020  223.0020 C   0  0  0  0  0  0  0  0  0  0  0  0
  139.9730   79.0770  221.6580 C   0  0  0  0  0  0  0  0  0  0  0  0
  140.2030   75.6940  221.8740 C   0  0  0  0  0  0  0  0  0  0  0  0
  139.9630   74.3830  222.0550 N   0  0  0  0  0  0  0  0  0  0  0  0
  138.4380   70.1900  224.1170 N   0  0  0  0  0  0  0  0  0  0  0  0
  139.3700   69.1780  224.5160 C   0  0  0  0  0  0  0  0  0  0  0  0
  139.6710   69.1430  225.9810 C   0  0  0  0  0  0  0  0  0  0  0  0
  140.3470   70.4760  226.3250 C   0  0  0  0  0  0  0  0  0  0  0  0
  140.3470   70.6030  227.8260 C   0  0  0  0  0  0  0  0  0  0  0  0
  141.2150   69.4940  228.3930 C   0  0  0  0  0  0  0  0  0  0  0  0
  140.6720   68.1590  227.9530 C   0  0  0  0  0  0  0  0  0  0  0  0
  140.5710   68.0480  226.4350 C   0  0  0  0  0  0  0  0  0  0  0  0
  134.5518   69.8624  225.1019 H   0  0  0  0  0  0  0  0  0  0  0  0
  132.8430   71.5338  224.4397 H   0  0  0  0  0  0  0  0  0  0  0  0
  133.4764   73.5495  223.1022 H   0  0  0  0  0  0  0  0  0  0  0  0
  135.8763   73.8518  222.4381 H   0  0  0  0  0  0  0  0  0  0  0  0
  140.9726   71.2774  223.6746 H   0  0  0  0  0  0  0  0  0  0  0  0
  140.3023   71.3263  220.9331 H   0  0  0  0  0  0  0  0  0  0  0  0
  142.4544   73.0134  220.3423 H   0  0  0  0  0  0  0  0  0  0  0  0
  142.9756   75.4166  219.9537 H   0  0  0  0  0  0  0  0  0  0  0  0
  142.7302   77.6088  220.7962 H   0  0  0  0  0  0  0  0  0  0  0  0
  141.1812   77.8354  219.9183 H   0  0  0  0  0  0  0  0  0  0  0  0
  142.5263   78.3900  223.4605 H   0  0  0  0  0  0  0  0  0  0  0  0
  142.8990   79.3589  221.9582 H   0  0  0  0  0  0  0  0  0  0  0  0
  142.2289   80.5577  224.1649 H   0  0  0  0  0  0  0  0  0  0  0  0
  141.5552   81.0687  222.5384 H   0  0  0  0  0  0  0  0  0  0  0  0
  140.2230   79.7304  224.8412 H   0  0  0  0  0  0  0  0  0  0  0  0
  139.7442   81.1719  223.8030 H   0  0  0  0  0  0  0  0  0  0  0  0
  139.1105   78.3382  223.5050 H   0  0  0  0  0  0  0  0  0  0  0  0
  138.3010   79.7866  222.8583 H   0  0  0  0  0  0  0  0  0  0  0  0
  139.3120   78.5226  220.9755 H   0  0  0  0  0  0  0  0  0  0  0  0
  140.2224   80.0318  221.1721 H   0  0  0  0  0  0  0  0  0  0  0  0
  139.5394   76.4462  222.3255 H   0  0  0  0  0  0  0  0  0  0  0  0
  138.9567   68.2000  224.2284 H   0  0  0  0  0  0  0  0  0  0  0  0
  140.3182   69.4148  224.0112 H   0  0  0  0  0  0  0  0  0  0  0  0
  138.7130   68.9651  226.4915 H   0  0  0  0  0  0  0  0  0  0  0  0
  141.3798   70.4832  225.9465 H   0  0  0  0  0  0  0  0  0  0  0  0
  139.8089   71.3167  225.8627 H   0  0  0  0  0  0  0  0  0  0  0  0
  140.7553   71.5820  228.1174 H   0  0  0  0  0  0  0  0  0  0  0  0
  139.3215   70.5212  228.2154 H   0  0  0  0  0  0  0  0  0  0  0  0
  142.2453   69.6102  228.0257 H   0  0  0  0  0  0  0  0  0  0  0  0
  141.2100   69.5487  229.4916 H   0  0  0  0  0  0  0  0  0  0  0  0
  141.3394   67.3664  228.3222 H   0  0  0  0  0  0  0  0  0  0  0  0
  139.6581   68.0548  228.3666 H   0  0  0  0  0  0  0  0  0  0  0  0
  141.5660   68.1629  225.9802 H   0  0  0  0  0  0  0  0  0  0  0  0
  140.1770   67.0651  226.1372 H   0  0  0  0  0  0  0  0  0  0  0  0
  1  2  2  0
  2  3  1  0
  3  4  2  0
  4  5  1  0
  5  6  2  0
  6  7  1  0
  7  8  2  0
  8  9  1  0
  9 10  2  0
 10 11  1  0
 11 12  2  0
 12 13  1  0
 13 14  2  0
 14 15  1  0
 15 16  2  0
 16 17  1  0
 17 18  1  0
 18 19  1  0
 19 20  1  0
 20 21  1  0
 21 22  1  0
 22 23  1  0
 16 24  1  0
 24 25  2  0
 10 26  1  0
 26 27  1  0
 27 28  1  0
 28 29  1  0
 29 30  1  0
 30 31  1  0
 31 32  1  0
 32 33  1  0
 26  2  1  0
 33 28  1  0
  8  3  1  0
 25 13  1  0
 23 18  1  0
  4 34  1  0
  5 35  1  0
  6 36  1  0
  7 37  1  0
 11 38  1  0
 12 39  1  0
 14 40  1  0
 15 41  1  0
 17 42  1  0
 17 43  1  0
 19 44  1  0
 19 45  1  0
 20 46  1  0
 20 47  1  0
 21 48  1  0
 21 49  1  0
 22 50  1  0
 22 51  1  0
 23 52  1  0
 23 53  1  0
 24 54  1  0
 27 55  1  0
 27 56  1  0
 28 57  1  0
 29 58  1  0
 29 59  1  0
 30 60  1  0
 30 61  1  0
 31 62  1  0
 31 63  1  0
 32 64  1  0
 32 65  1  0
 33 66  1  0
 33 67  1  0
M  END
>  <smiles>  (46) 
O=c1c2ccccc2nc(/C=C/c2ccc(CN3CCCCC3)cn2)n1CC1CCCCC1

>  <score_type>  (46) 
oracle

>  <origin>  (46) 
autodockgpu

>  <m_score__min__energy>  (46) 
-9.8000000000000007

>  <m_primary>  (46) 
energy

>  <rmsd>  (46) 
6.738233717706505

>  <m_score__min__rmsd>  (46) 
6.738233717706505

>  <meeko>  (46) 
{"free_energy": -8.63, "intermolecular_energy": -10.72, "internal_energy": -1.6, "cluster_size": 3, "cluster_id": 3, "rank_in_cluster": 2}

>  <energy>  (46) 
-8.09

>  <cluster_rmsd>  (46) 
1.0

>  <cluster>  (46) 
3

$$$$

     RDKit          3D

 67 71  0  0  0  0  0  0  0  0999 V2000
  139.1990   67.3840  225.1290 O   0  0  0  0  0  0  0  0  0  0  0  0
  139.3730   68.6440  225.1650 C   0  0  0  0  0  0  0  0  0  0  0  0
  140.0250   69.1450  226.2520 C   0  0  0  0  0  0  0  0  0  0  0  0
  140.4830   68.3580  227.2720 C   0  0  0  0  0  0  0  0  0  0  0  0
  141.1390   68.9350  228.3520 C   0  0  0  0  0  0  0  0  0  0  0  0
  141.3450   70.3140  228.4230 C   0  0  0  0  0  0  0  0  0  0  0  0
  140.8740   71.1050  227.3770 C   0  0  0  0  0  0  0  0  0  0  0  0
  140.2200   70.5130  226.3060 C   0  0  0  0  0  0  0  0  0  0  0  0
  139.7550   71.2350  225.2860 N   0  0  0  0  0  0  0  0  0  0  0  0
  139.1160   70.7270  224.2230 C   0  0  0  0  0  0  0  0  0  0  0  0
  138.6550   71.6160  223.1540 C   0  0  0  0  0  0  0  0  0  0  0  0
  139.5420   72.1440  222.3330 C   0  0  0  0  0  0  0  0  0  0  0  0
  139.5990   73.5570  221.9900 C   0  0  0  0  0  0  0  0  0  0  0  0
  138.5090   74.2820  221.5580 C   0  0  0  0  0  0  0  0  0  0  0  0
  138.6040   75.6350  221.2390 C   0  0  0  0  0  0  0  0  0  0  0  0
  139.8290   76.2580  221.3610 C   0  0  0  0  0  0  0  0  0  0  0  0
  139.8930   77.6980  221.0100 C   0  0  0  0  0  0  0  0  0  0  0  0
  140.9030   78.3320  221.7980 N   0  0  0  0  0  0  0  0  0  0  0  0
  141.6640   79.3450  221.1510 C   0  0  0  0  0  0  0  0  0  0  0  0
  142.2270   80.3730  222.1050 C   0  0  0  0  0  0  0  0  0  0  0  0
  142.6600   79.8170  223.4250 C   0  0  0  0  0  0  0  0  0  0  0  0
  141.8150   78.7030  223.9520 C   0  0  0  0  0  0  0  0  0  0  0  0
  140.5250   78.6810  223.1310 C   0  0  0  0  0  0  0  0  0  0  0  0
  140.9160   75.5290  221.7930 C   0  0  0  0  0  0  0  0  0  0  0  0
  140.7650   74.2250  222.0870 N   0  0  0  0  0  0  0  0  0  0  0  0
  138.9110   69.4140  224.1440 N   0  0  0  0  0  0  0  0  0  0  0  0
  138.2290   68.7610  223.0670 C   0  0  0  0  0  0  0  0  0  0  0  0
  136.7590   69.0320  222.9980 C   0  0  0  0  0  0  0  0  0  0  0  0
  136.2830   69.2560  224.4390 C   0  0  0  0  0  0  0  0  0  0  0  0
  134.9040   69.8590  224.3650 C   0  0  0  0  0  0  0  0  0  0  0  0
  133.9760   68.8360  223.7340 C   0  0  0  0  0  0  0  0  0  0  0  0
  134.4910   68.4690  222.3670 C   0  0  0  0  0  0  0  0  0  0  0  0
  135.9250   67.9490  222.4090 C   0  0  0  0  0  0  0  0  0  0  0  0
  140.3321   67.2689  227.2374 H   0  0  0  0  0  0  0  0  0  0  0  0
  141.5033   68.2927  229.1673 H   0  0  0  0  0  0  0  0  0  0  0  0
  141.8651   70.7640  229.2815 H   0  0  0  0  0  0  0  0  0  0  0  0
  141.0201   72.1950  227.4003 H   0  0  0  0  0  0  0  0  0  0  0  0
  137.5844   71.8400  223.0376 H   0  0  0  0  0  0  0  0  0  0  0  0
  140.2862   71.4734  221.8785 H   0  0  0  0  0  0  0  0  0  0  0  0
  137.5361   73.7778  221.4623 H   0  0  0  0  0  0  0  0  0  0  0  0
  137.7209   76.1947  220.8971 H   0  0  0  0  0  0  0  0  0  0  0  0
  140.1380   77.8056  219.9430 H   0  0  0  0  0  0  0  0  0  0  0  0
  138.9196   78.1696  221.2100 H   0  0  0  0  0  0  0  0  0  0  0  0
  142.5003   78.8673  220.6196 H   0  0  0  0  0  0  0  0  0  0  0  0
  140.9851   79.8743  220.4663 H   0  0  0  0  0  0  0  0  0  0  0  0
  143.0984   80.8451  221.6276 H   0  0  0  0  0  0  0  0  0  0  0  0
  141.4156   81.0856  222.3145 H   0  0  0  0  0  0  0  0  0  0  0  0
  143.6885   79.4423  223.3160 H   0  0  0  0  0  0  0  0  0  0  0  0
  142.5678   80.6400  224.1489 H   0  0  0  0  0  0  0  0  0  0  0  0
  142.3455   77.7454  223.8448 H   0  0  0  0  0  0  0  0  0  0  0  0
  141.5942   78.8538  225.0190 H   0  0  0  0  0  0  0  0  0  0  0  0
  139.8279   77.9333  223.5372 H   0  0  0  0  0  0  0  0  0  0  0  0
  140.0165   79.6560  223.1597 H   0  0  0  0  0  0  0  0  0  0  0  0
  141.8998   76.0100  221.8966 H   0  0  0  0  0  0  0  0  0  0  0  0
  138.6830   69.0947  222.1223 H   0  0  0  0  0  0  0  0  0  0  0  0
  138.3364   67.6805  223.2428 H   0  0  0  0  0  0  0  0  0  0  0  0
  136.6323   69.8964  222.3296 H   0  0  0  0  0  0  0  0  0  0  0  0
  136.2466   68.2973  224.9770 H   0  0  0  0  0  0  0  0  0  0  0  0
  136.9719   69.9228  224.9782 H   0  0  0  0  0  0  0  0  0  0  0  0
  134.5513   70.1087  225.3766 H   0  0  0  0  0  0  0  0  0  0  0  0
  134.9221   70.7798  223.7635 H   0  0  0  0  0  0  0  0  0  0  0  0
  133.9380   67.9362  224.3656 H   0  0  0  0  0  0  0  0  0  0  0  0
  132.9661   69.2626  223.6437 H   0  0  0  0  0  0  0  0  0  0  0  0
  133.8435   67.6873  221.9431 H   0  0  0  0  0  0  0  0  0  0  0  0
  134.4807   69.3783  221.7481 H   0  0  0  0  0  0  0  0  0  0  0  0
  135.9818   67.0453  223.0336 H   0  0  0  0  0  0  0  0  0  0  0  0
  136.2778   67.6833  221.4015 H   0  0  0  0  0  0  0  0  0  0  0  0
  1  2  2  0
  2  3  1  0
  3  4  2  0
  4  5  1  0
  5  6  2  0
  6  7  1  0
  7  8  2  0
  8  9  1  0
  9 10  2  0
 10 11  1  0
 11 12  2  0
 12 13  1  0
 13 14  2  0
 14 15  1  0
 15 16  2  0
 16 17  1  0
 17 18  1  0
 18 19  1  0
 19 20  1  0
 20 21  1  0
 21 22  1  0
 22 23  1  0
 16 24  1  0
 24 25  2  0
 10 26  1  0
 26 27  1  0
 27 28  1  0
 28 29  1  0
 29 30  1  0
 30 31  1  0
 31 32  1  0
 32 33  1  0
 26  2  1  0
 33 28  1  0
  8  3  1  0
 25 13  1  0
 23 18  1  0
  4 34  1  0
  5 35  1  0
  6 36  1  0
  7 37  1  0
 11 38  1  0
 12 39  1  0
 14 40  1  0
 15 41  1  0
 17 42  1  0
 17 43  1  0
 19 44  1  0
 19 45  1  0
 20 46  1  0
 20 47  1  0
 21 48  1  0
 21 49  1  0
 22 50  1  0
 22 51  1  0
 23 52  1  0
 23 53  1  0
 24 54  1  0
 27 55  1  0
 27 56  1  0
 28 57  1  0
 29 58  1  0
 29 59  1  0
 30 60  1  0
 30 61  1  0
 31 62  1  0
 31 63  1  0
 32 64  1  0
 32 65  1  0
 33 66  1  0
 33 67  1  0
M  END
>  <smiles>  (47) 
O=c1c2ccccc2nc(/C=C/c2ccc(CN3CCCCC3)cn2)n1CC1CCCCC1

>  <score_type>  (47) 
oracle

>  <origin>  (47) 
autodockgpu

>  <m_score__min__energy>  (47) 
-9.8000000000000007

>  <m_primary>  (47) 
energy

>  <rmsd>  (47) 
6.755210571342434

>  <m_score__min__rmsd>  (47) 
6.755210571342434

>  <meeko>  (47) 
{"free_energy": -9.34, "intermolecular_energy": -11.43, "internal_energy": -1.51, "cluster_size": 36, "cluster_id": 1, "rank_in_cluster": 20}

>  <energy>  (47) 
-8.58

>  <cluster_rmsd>  (47) 
0.0

>  <cluster>  (47) 
4

$$$$

     RDKit          3D

 67 71  0  0  0  0  0  0  0  0999 V2000
  139.2040   67.7210  225.1110 O   0  0  0  0  0  0  0  0  0  0  0  0
  139.5070   68.9500  224.9940 C   0  0  0  0  0  0  0  0  0  0  0  0
  140.0390   69.5610  226.0910 C   0  0  0  0  0  0  0  0  0  0  0  0
  140.2510   68.9110  227.2740 C   0  0  0  0  0  0  0  0  0  0  0  0
  140.7970   69.5940  228.3530 C   0  0  0  0  0  0  0  0  0  0  0  0
  141.1400   70.9450  228.2580 C   0  0  0  0  0  0  0  0  0  0  0  0
  140.9190   71.5950  227.0470 C   0  0  0  0  0  0  0  0  0  0  0  0
  140.3730   70.8990  225.9780 C   0  0  0  0  0  0  0  0  0  0  0  0
  140.1470   71.4860  224.8030 N   0  0  0  0  0  0  0  0  0  0  0  0
  139.6230   70.8710  223.7330 C   0  0  0  0  0  0  0  0  0  0  0  0
  139.4270   71.6140  222.4860 C   0  0  0  0  0  0  0  0  0  0  0  0
  140.4320   72.3100  221.9900 C   0  0  0  0  0  0  0  0  0  0  0  0
  140.3820   73.7380  221.7160 C   0  0  0  0  0  0  0  0  0  0  0  0
  139.2860   74.5290  221.9900 C   0  0  0  0  0  0  0  0  0  0  0  0
  139.2770   75.8950  221.7120 C   0  0  0  0  0  0  0  0  0  0  0  0
  140.4010   76.4620  221.1480 C   0  0  0  0  0  0  0  0  0  0  0  0
  140.3530   77.9180  220.8640 C   0  0  0  0  0  0  0  0  0  0  0  0
  141.1810   78.6090  221.8010 N   0  0  0  0  0  0  0  0  0  0  0  0
  141.8510   79.7670  221.3160 C   0  0  0  0  0  0  0  0  0  0  0  0
  142.1670   80.7730  222.3980 C   0  0  0  0  0  0  0  0  0  0  0  0
  142.5450   80.1670  223.7120 C   0  0  0  0  0  0  0  0  0  0  0  0
  141.8190   78.9080  224.0620 C   0  0  0  0  0  0  0  0  0  0  0  0
  140.6300   78.7860  223.1070 C   0  0  0  0  0  0  0  0  0  0  0  0
  141.4930   75.6670  220.8760 C   0  0  0  0  0  0  0  0  0  0  0  0
  141.4460   74.3540  221.1660 N   0  0  0  0  0  0  0  0  0  0  0  0
  139.2910   69.5840  223.8110 N   0  0  0  0  0  0  0  0  0  0  0  0
  138.7100   68.8290  222.7420 C   0  0  0  0  0  0  0  0  0  0  0  0
  137.2280   68.9780  222.5990 C   0  0  0  0  0  0  0  0  0  0  0  0
  136.6830   69.3290  223.9890 C   0  0  0  0  0  0  0  0  0  0  0  0
  135.2680   69.8140  223.8050 C   0  0  0  0  0  0  0  0  0  0  0  0
  134.4410   68.6580  223.2710 C   0  0  0  0  0  0  0  0  0  0  0  0
  135.0320   68.1770  221.9720 C   0  0  0  0  0  0  0  0  0  0  0  0
  136.4970   67.7750  222.1160 C   0  0  0  0  0  0  0  0  0  0  0  0
  139.9893   67.8471  227.3718 H   0  0  0  0  0  0  0  0  0  0  0  0
  140.9626   69.0609  229.3008 H   0  0  0  0  0  0  0  0  0  0  0  0
  141.5726   71.4801  229.1162 H   0  0  0  0  0  0  0  0  0  0  0  0
  141.1768   72.6588  226.9377 H   0  0  0  0  0  0  0  0  0  0  0  0
  138.4556   71.5920  221.9704 H   0  0  0  0  0  0  0  0  0  0  0  0
  141.3682   71.7762  221.7694 H   0  0  0  0  0  0  0  0  0  0  0  0
  138.3940   74.0692  222.4405 H   0  0  0  0  0  0  0  0  0  0  0  0
  138.3920   76.5080  221.9377 H   0  0  0  0  0  0  0  0  0  0  0  0
  140.7175   78.1056  219.8432 H   0  0  0  0  0  0  0  0  0  0  0  0
  139.3170   78.2769  220.9527 H   0  0  0  0  0  0  0  0  0  0  0  0
  142.7943   79.4529  220.8453 H   0  0  0  0  0  0  0  0  0  0  0  0
  141.1745   80.2591  220.6018 H   0  0  0  0  0  0  0  0  0  0  0  0
  143.0043   81.3977  222.0534 H   0  0  0  0  0  0  0  0  0  0  0  0
  141.2459   81.3489  222.5706 H   0  0  0  0  0  0  0  0  0  0  0  0
  143.6218   79.9437  223.6871 H   0  0  0  0  0  0  0  0  0  0  0  0
  142.2680   80.9040  224.4802 H   0  0  0  0  0  0  0  0  0  0  0  0
  142.4876   78.0427  223.9427 H   0  0  0  0  0  0  0  0  0  0  0  0
  141.4771   78.9341  225.1072 H   0  0  0  0  0  0  0  0  0  0  0  0
  140.0101   77.9192  223.3795 H   0  0  0  0  0  0  0  0  0  0  0  0
  139.9877   79.6779  223.1524 H   0  0  0  0  0  0  0  0  0  0  0  0
  142.3968   76.1027  220.4250 H   0  0  0  0  0  0  0  0  0  0  0  0
  139.1785   69.1528  221.8009 H   0  0  0  0  0  0  0  0  0  0  0  0
  138.8926   67.7701  222.9772 H   0  0  0  0  0  0  0  0  0  0  0  0
  137.0648   69.7482  221.8308 H   0  0  0  0  0  0  0  0  0  0  0  0
  136.6949   68.4382  224.6342 H   0  0  0  0  0  0  0  0  0  0  0  0
  137.3016   70.1033  224.4662 H   0  0  0  0  0  0  0  0  0  0  0  0
  134.8603   70.1502  224.7697 H   0  0  0  0  0  0  0  0  0  0  0  0
  135.2424   70.6591  223.1013 H   0  0  0  0  0  0  0  0  0  0  0  0
  134.4443   67.8361  224.0021 H   0  0  0  0  0  0  0  0  0  0  0  0
  133.4072   68.9936  223.1019 H   0  0  0  0  0  0  0  0  0  0  0  0
  134.4586   67.3053  221.6238 H   0  0  0  0  0  0  0  0  0  0  0  0
  134.9799   69.0062  221.2511 H   0  0  0  0  0  0  0  0  0  0  0  0
  136.5950   66.9552  222.8429 H   0  0  0  0  0  0  0  0  0  0  0  0
  136.9057   67.4236  221.1571 H   0  0  0  0  0  0  0  0  0  0  0  0
  1  2  2  0
  2  3  1  0
  3  4  2  0
  4  5  1  0
  5  6  2  0
  6  7  1  0
  7  8  2  0
  8  9  1  0
  9 10  2  0
 10 11  1  0
 11 12  2  0
 12 13  1  0
 13 14  2  0
 14 15  1  0
 15 16  2  0
 16 17  1  0
 17 18  1  0
 18 19  1  0
 19 20  1  0
 20 21  1  0
 21 22  1  0
 22 23  1  0
 16 24  1  0
 24 25  2  0
 10 26  1  0
 26 27  1  0
 27 28  1  0
 28 29  1  0
 29 30  1  0
 30 31  1  0
 31 32  1  0
 32 33  1  0
 26  2  1  0
 33 28  1  0
  8  3  1  0
 25 13  1  0
 23 18  1  0
  4 34  1  0
  5 35  1  0
  6 36  1  0
  7 37  1  0
 11 38  1  0
 12 39  1  0
 14 40  1  0
 15 41  1  0
 17 42  1  0
 17 43  1  0
 19 44  1  0
 19 45  1  0
 20 46  1  0
 20 47  1  0
 21 48  1  0
 21 49  1  0
 22 50  1  0
 22 51  1  0
 23 52  1  0
 23 53  1  0
 24 54  1  0
 27 55  1  0
 27 56  1  0
 28 57  1  0
 29 58  1  0
 29 59  1  0
 30 60  1  0
 30 61  1  0
 31 62  1  0
 31 63  1  0
 32 64  1  0
 32 65  1  0
 33 66  1  0
 33 67  1  0
M  END
>  <smiles>  (48) 
O=c1c2ccccc2nc(/C=C/c2ccc(CN3CCCCC3)cn2)n1CC1CCCCC1

>  <score_type>  (48) 
oracle

>  <origin>  (48) 
autodockgpu

>  <m_score__min__energy>  (48) 
-9.8000000000000007

>  <m_primary>  (48) 
energy

>  <rmsd>  (48) 
6.793760558355391

>  <m_score__min__rmsd>  (48) 
6.793760558355391

>  <meeko>  (48) 
{"free_energy": -9.37, "intermolecular_energy": -11.46, "internal_energy": -1.5, "cluster_size": 36, "cluster_id": 1, "rank_in_cluster": 16}

>  <energy>  (48) 
-8.33

>  <cluster_rmsd>  (48) 
0.0

>  <cluster>  (48) 
5

$$$$

     RDKit          3D

 67 71  0  0  0  0  0  0  0  0999 V2000
  139.1890   67.7710  225.4920 O   0  0  0  0  0  0  0  0  0  0  0  0
  139.4880   68.9670  225.1810 C   0  0  0  0  0  0  0  0  0  0  0  0
  140.0700   69.7290  226.1500 C   0  0  0  0  0  0  0  0  0  0  0  0
  140.3340   69.2590  227.4060 C   0  0  0  0  0  0  0  0  0  0  0  0
  140.9290   70.0910  228.3470 C   0  0  0  0  0  0  0  0  0  0  0  0
  141.2690   71.4090  228.0370 C   0  0  0  0  0  0  0  0  0  0  0  0
  140.9960   71.8750  226.7530 C   0  0  0  0  0  0  0  0  0  0  0  0
  140.4000   71.0330  225.8260 C   0  0  0  0  0  0  0  0  0  0  0  0
  140.1230   71.4410  224.5870 N   0  0  0  0  0  0  0  0  0  0  0  0
  139.5500   70.6790  223.6450 C   0  0  0  0  0  0  0  0  0  0  0  0
  139.3000   71.2310  222.3110 C   0  0  0  0  0  0  0  0  0  0  0  0
  140.1480   72.1080  221.8120 C   0  0  0  0  0  0  0  0  0  0  0  0
  139.9550   73.5500  221.8570 C   0  0  0  0  0  0  0  0  0  0  0  0
  140.9880   74.4610  221.7920 C   0  0  0  0  0  0  0  0  0  0  0  0
  140.7620   75.8350  221.8390 C   0  0  0  0  0  0  0  0  0  0  0  0
  139.4640   76.2870  221.9560 C   0  0  0  0  0  0  0  0  0  0  0  0
  139.2620   77.7570  222.0060 C   0  0  0  0  0  0  0  0  0  0  0  0
  140.4920   78.3900  222.3660 N   0  0  0  0  0  0  0  0  0  0  0  0
  141.2460   78.9540  221.3000 C   0  0  0  0  0  0  0  0  0  0  0  0
  142.1340   80.0980  221.7340 C   0  0  0  0  0  0  0  0  0  0  0  0
  142.7390   79.9270  223.0910 C   0  0  0  0  0  0  0  0  0  0  0  0
  141.8660   79.2470  224.0940 C   0  0  0  0  0  0  0  0  0  0  0  0
  140.4470   79.2260  223.5240 C   0  0  0  0  0  0  0  0  0  0  0  0
  138.4350   75.3730  222.0210 C   0  0  0  0  0  0  0  0  0  0  0  0
  138.7120   74.0580  221.9710 N   0  0  0  0  0  0  0  0  0  0  0  0
  139.2190   69.4210  223.9270 N   0  0  0  0  0  0  0  0  0  0  0  0
  138.5900   68.5200  223.0090 C   0  0  0  0  0  0  0  0  0  0  0  0
  137.0940   68.5320  223.0420 C   0  0  0  0  0  0  0  0  0  0  0  0
  136.6290   69.1960  221.7400 C   0  0  0  0  0  0  0  0  0  0  0  0
  135.1560   68.9140  221.5950 C   0  0  0  0  0  0  0  0  0  0  0  0
  134.4310   69.6010  222.7390 C   0  0  0  0  0  0  0  0  0  0  0  0
  134.9650   69.0870  224.0510 C   0  0  0  0  0  0  0  0  0  0  0  0
  136.4740   69.2730  224.1740 C   0  0  0  0  0  0  0  0  0  0  0  0
  140.0758   68.2233  227.6718 H   0  0  0  0  0  0  0  0  0  0  0  0
  141.1360   69.7035  229.3555 H   0  0  0  0  0  0  0  0  0  0  0  0
  141.7399   72.0620  228.7866 H   0  0  0  0  0  0  0  0  0  0  0  0
  141.2524   72.9080  226.4751 H   0  0  0  0  0  0  0  0  0  0  0  0
  138.4172   70.9180  221.7342 H   0  0  0  0  0  0  0  0  0  0  0  0
  141.0602   71.7256  221.3306 H   0  0  0  0  0  0  0  0  0  0  0  0
  142.0203   74.0923  221.7004 H   0  0  0  0  0  0  0  0  0  0  0  0
  141.6009   76.5444  221.7840 H   0  0  0  0  0  0  0  0  0  0  0  0
  138.9384   78.1174  221.0184 H   0  0  0  0  0  0  0  0  0  0  0  0
  138.4907   77.9982  222.7523 H   0  0  0  0  0  0  0  0  0  0  0  0
  141.8791   78.1663  220.8655 H   0  0  0  0  0  0  0  0  0  0  0  0
  140.5276   79.3581  220.5716 H   0  0  0  0  0  0  0  0  0  0  0  0
  142.9500   80.1971  221.0030 H   0  0  0  0  0  0  0  0  0  0  0  0
  141.4944   80.9915  221.7846 H   0  0  0  0  0  0  0  0  0  0  0  0
  143.6584   79.3331  222.9816 H   0  0  0  0  0  0  0  0  0  0  0  0
  142.9155   80.9417  223.4772 H   0  0  0  0  0  0  0  0  0  0  0  0
  142.2184   78.2189  224.2639 H   0  0  0  0  0  0  0  0  0  0  0  0
  141.8908   79.7800  225.0559 H   0  0  0  0  0  0  0  0  0  0  0  0
  139.7453   78.8139  224.2642 H   0  0  0  0  0  0  0  0  0  0  0  0
  140.1025   80.2398  223.2719 H   0  0  0  0  0  0  0  0  0  0  0  0
  137.3941   75.7166  222.1132 H   0  0  0  0  0  0  0  0  0  0  0  0
  138.9118   68.7881  221.9919 H   0  0  0  0  0  0  0  0  0  0  0  0
  138.8978   67.5076  223.3095 H   0  0  0  0  0  0  0  0  0  0  0  0
  136.7767   67.4862  223.1671 H   0  0  0  0  0  0  0  0  0  0  0  0
  136.8016   70.2813  221.7883 H   0  0  0  0  0  0  0  0  0  0  0  0
  137.1881   68.8000  220.8794 H   0  0  0  0  0  0  0  0  0  0  0  0
  134.7936   69.3073  220.6338 H   0  0  0  0  0  0  0  0  0  0  0  0
  134.9704   67.8301  221.6214 H   0  0  0  0  0  0  0  0  0  0  0  0
  134.5936   70.6871  222.6769 H   0  0  0  0  0  0  0  0  0  0  0  0
  133.3539   69.3878  222.6720 H   0  0  0  0  0  0  0  0  0  0  0  0
  134.4734   69.6314  224.8707 H   0  0  0  0  0  0  0  0  0  0  0  0
  134.7534   68.0087  224.1014 H   0  0  0  0  0  0  0  0  0  0  0  0
  136.7299   70.3411  224.1124 H   0  0  0  0  0  0  0  0  0  0  0  0
  136.8401   68.8950  225.1399 H   0  0  0  0  0  0  0  0  0  0  0  0
  1  2  2  0
  2  3  1  0
  3  4  2  0
  4  5  1  0
  5  6  2  0
  6  7  1  0
  7  8  2  0
  8  9  1  0
  9 10  2  0
 10 11  1  0
 11 12  2  0
 12 13  1  0
 13 14  2  0
 14 15  1  0
 15 16  2  0
 16 17  1  0
 17 18  1  0
 18 19  1  0
 19 20  1  0
 20 21  1  0
 21 22  1  0
 22 23  1  0
 16 24  1  0
 24 25  2  0
 10 26  1  0
 26 27  1  0
 27 28  1  0
 28 29  1  0
 29 30  1  0
 30 31  1  0
 31 32  1  0
 32 33  1  0
 26  2  1  0
 33 28  1  0
  8  3  1  0
 25 13  1  0
 23 18  1  0
  4 34  1  0
  5 35  1  0
  6 36  1  0
  7 37  1  0
 11 38  1  0
 12 39  1  0
 14 40  1  0
 15 41  1  0
 17 42  1  0
 17 43  1  0
 19 44  1  0
 19 45  1  0
 20 46  1  0
 20 47  1  0
 21 48  1  0
 21 49  1  0
 22 50  1  0
 22 51  1  0
 23 52  1  0
 23 53  1  0
 24 54  1  0
 27 55  1  0
 27 56  1  0
 28 57  1  0
 29 58  1  0
 29 59  1  0
 30 60  1  0
 30 61  1  0
 31 62  1  0
 31 63  1  0
 32 64  1  0
 32 65  1  0
 33 66  1  0
 33 67  1  0
M  END
>  <smiles>  (49) 
O=c1c2ccccc2nc(/C=C/c2ccc(CN3CCCCC3)cn2)n1CC1CCCCC1

>  <score_type>  (49) 
oracle

>  <origin>  (49) 
autodockgpu

>  <m_score__min__energy>  (49) 
-9.8000000000000007

>  <m_primary>  (49) 
energy

>  <rmsd>  (49) 
6.685341677950312

>  <m_score__min__rmsd>  (49) 
6.685341677950312

>  <meeko>  (49) 
{"free_energy": -9.1, "intermolecular_energy": -11.19, "internal_energy": -1.7, "cluster_size": 36, "cluster_id": 1, "rank_in_cluster": 29}

>  <energy>  (49) 
-7.93

>  <cluster_rmsd>  (49) 
0.0

>  <cluster>  (49) 
6

$$$$

     RDKit          3D

 67 71  0  0  0  0  0  0  0  0999 V2000
  138.9160   68.0100  224.8360 O   0  0  0  0  0  0  0  0  0  0  0  0
  139.4520   69.1630  224.8370 C   0  0  0  0  0  0  0  0  0  0  0  0
  139.9710   69.6000  226.0200 C   0  0  0  0  0  0  0  0  0  0  0  0
  139.9340   68.8580  227.1670 C   0  0  0  0  0  0  0  0  0  0  0  0
  140.4810   69.3650  228.3390 C   0  0  0  0  0  0  0  0  0  0  0  0
  141.0760   70.6280  228.3740 C   0  0  0  0  0  0  0  0  0  0  0  0
  141.1070   71.3740  227.1990 C   0  0  0  0  0  0  0  0  0  0  0  0
  140.5550   70.8540  226.0370 C   0  0  0  0  0  0  0  0  0  0  0  0
  140.5660   71.5370  224.8920 N   0  0  0  0  0  0  0  0  0  0  0  0
  140.0510   71.0920  223.7360 C   0  0  0  0  0  0  0  0  0  0  0  0
  140.1270   71.9260  222.5340 C   0  0  0  0  0  0  0  0  0  0  0  0
  139.1630   72.7940  222.2950 C   0  0  0  0  0  0  0  0  0  0  0  0
  139.3870   74.1920  221.9580 C   0  0  0  0  0  0  0  0  0  0  0  0
  138.3750   75.0680  221.6250 C   0  0  0  0  0  0  0  0  0  0  0  0
  138.6300   76.4010  221.3090 C   0  0  0  0  0  0  0  0  0  0  0  0
  139.9360   76.8470  221.3320 C   0  0  0  0  0  0  0  0  0  0  0  0
  140.1690   78.2710  220.9860 C   0  0  0  0  0  0  0  0  0  0  0  0
  141.0670   78.8470  221.9380 N   0  0  0  0  0  0  0  0  0  0  0  0
  141.8250   79.9650  221.4930 C   0  0  0  0  0  0  0  0  0  0  0  0
  142.2420   80.8910  222.6120 C   0  0  0  0  0  0  0  0  0  0  0  0
  142.5850   80.1950  223.8910 C   0  0  0  0  0  0  0  0  0  0  0  0
  141.7600   78.9880  224.1980 C   0  0  0  0  0  0  0  0  0  0  0  0
  140.5520   79.0110  223.2600 C   0  0  0  0  0  0  0  0  0  0  0  0
  140.9430   75.9680  221.6650 C   0  0  0  0  0  0  0  0  0  0  0  0
  140.6380   74.6920  221.9620 N   0  0  0  0  0  0  0  0  0  0  0  0
  139.4810   69.8900  223.6890 N   0  0  0  0  0  0  0  0  0  0  0  0
  138.8850   69.3190  222.5190 C   0  0  0  0  0  0  0  0  0  0  0  0
  137.3970   69.4570  222.4390 C   0  0  0  0  0  0  0  0  0  0  0  0
  136.9900   70.4780  223.5090 C   0  0  0  0  0  0  0  0  0  0  0  0
  135.5680   70.8830  223.2220 C   0  0  0  0  0  0  0  0  0  0  0  0
  134.6850   69.6610  223.4020 C   0  0  0  0  0  0  0  0  0  0  0  0
  135.1450   68.5690  222.4710 C   0  0  0  0  0  0  0  0  0  0  0  0
  136.6150   68.2140  222.6780 C   0  0  0  0  0  0  0  0  0  0  0  0
  139.4714   67.8600  227.1622 H   0  0  0  0  0  0  0  0  0  0  0  0
  140.4448   68.7601  229.2570 H   0  0  0  0  0  0  0  0  0  0  0  0
  141.5086   71.0228  229.3051 H   0  0  0  0  0  0  0  0  0  0  0  0
  141.5678   72.3728  227.1918 H   0  0  0  0  0  0  0  0  0  0  0  0
  140.9757   71.8298  221.8408 H   0  0  0  0  0  0  0  0  0  0  0  0
  138.1237   72.4386  222.3542 H   0  0  0  0  0  0  0  0  0  0  0  0
  137.3371   74.7040  221.6084 H   0  0  0  0  0  0  0  0  0  0  0  0
  137.8080   77.0833  221.0468 H   0  0  0  0  0  0  0  0  0  0  0  0
  140.6079   78.3377  219.9796 H   0  0  0  0  0  0  0  0  0  0  0  0
  139.2136   78.8159  221.0035 H   0  0  0  0  0  0  0  0  0  0  0  0
  142.7310   79.5945  220.9911 H   0  0  0  0  0  0  0  0  0  0  0  0
  141.1814   80.5445  220.8147 H   0  0  0  0  0  0  0  0  0  0  0  0
  143.1250   81.4568  222.2801 H   0  0  0  0  0  0  0  0  0  0  0  0
  141.3770   81.5359  222.8263 H   0  0  0  0  0  0  0  0  0  0  0  0
  143.6384   79.8827  223.8369 H   0  0  0  0  0  0  0  0  0  0  0  0
  142.3822   80.9168  224.6959 H   0  0  0  0  0  0  0  0  0  0  0  0
  142.3506   78.0756  224.0286 H   0  0  0  0  0  0  0  0  0  0  0  0
  141.4364   78.9950  225.2493 H   0  0  0  0  0  0  0  0  0  0  0  0
  139.8638   78.1887  223.5053 H   0  0  0  0  0  0  0  0  0  0  0  0
  139.9896   79.9515  223.3558 H   0  0  0  0  0  0  0  0  0  0  0  0
  141.9892   76.3072  221.6879 H   0  0  0  0  0  0  0  0  0  0  0  0
  139.3218   69.8116  221.6378 H   0  0  0  0  0  0  0  0  0  0  0  0
  139.0930   68.2397  222.5620 H   0  0  0  0  0  0  0  0  0  0  0  0
  137.1664   69.7541  221.4053 H   0  0  0  0  0  0  0  0  0  0  0  0
  137.0578   70.0235  224.5084 H   0  0  0  0  0  0  0  0  0  0  0  0
  137.6566   71.3527  223.4869 H   0  0  0  0  0  0  0  0  0  0  0  0
  135.2572   71.6739  223.9205 H   0  0  0  0  0  0  0  0  0  0  0  0
  135.4810   71.2687  222.1955 H   0  0  0  0  0  0  0  0  0  0  0  0
  134.7529   69.3092  224.4420 H   0  0  0  0  0  0  0  0  0  0  0  0
  133.6421   69.9245  223.1721 H   0  0  0  0  0  0  0  0  0  0  0  0
  134.5354   67.6711  222.6501 H   0  0  0  0  0  0  0  0  0  0  0  0
  135.0284   68.9339  221.4399 H   0  0  0  0  0  0  0  0  0  0  0  0
  136.7769   67.8568  223.7057 H   0  0  0  0  0  0  0  0  0  0  0  0
  136.9275   67.4137  221.9911 H   0  0  0  0  0  0  0  0  0  0  0  0
  1  2  2  0
  2  3  1  0
  3  4  2  0
  4  5  1  0
  5  6  2  0
  6  7  1  0
  7  8  2  0
  8  9  1  0
  9 10  2  0
 10 11  1  0
 11 12  2  0
 12 13  1  0
 13 14  2  0
 14 15  1  0
 15 16  2  0
 16 17  1  0
 17 18  1  0
 18 19  1  0
 19 20  1  0
 20 21  1  0
 21 22  1  0
 22 23  1  0
 16 24  1  0
 24 25  2  0
 10 26  1  0
 26 27  1  0
 27 28  1  0
 28 29  1  0
 29 30  1  0
 30 31  1  0
 31 32  1  0
 32 33  1  0
 26  2  1  0
 33 28  1  0
  8  3  1  0
 25 13  1  0
 23 18  1  0
  4 34  1  0
  5 35  1  0
  6 36  1  0
  7 37  1  0
 11 38  1  0
 12 39  1  0
 14 40  1  0
 15 41  1  0
 17 42  1  0
 17 43  1  0
 19 44  1  0
 19 45  1  0
 20 46  1  0
 20 47  1  0
 21 48  1  0
 21 49  1  0
 22 50  1  0
 22 51  1  0
 23 52  1  0
 23 53  1  0
 24 54  1  0
 27 55  1  0
 27 56  1  0
 28 57  1  0
 29 58  1  0
 29 59  1  0
 30 60  1  0
 30 61  1  0
 31 62  1  0
 31 63  1  0
 32 64  1  0
 32 65  1  0
 33 66  1  0
 33 67  1  0
M  END
>  <smiles>  (50) 
O=c1c2ccccc2nc(/C=C/c2ccc(CN3CCCCC3)cn2)n1CC1CCCCC1

>  <score_type>  (50) 
oracle

>  <origin>  (50) 
autodockgpu

>  <m_score__min__energy>  (50) 
-9.8000000000000007

>  <m_primary>  (50) 
energy

>  <rmsd>  (50) 
6.602360945105523

>  <m_score__min__rmsd>  (50) 
6.602360945105523

>  <meeko>  (50) 
{"free_energy": -9.28, "intermolecular_energy": -11.37, "internal_energy": -1.66, "cluster_size": 36, "cluster_id": 1, "rank_in_cluster": 22}

>  <energy>  (50) 
-7.68

>  <cluster_rmsd>  (50) 
0.32

>  <cluster>  (50) 
6

$$$$
