
     RDKit          3D

 55 57  0  0  0  0  0  0  0  0999 V2000
  139.6870   76.2830  217.8530 C   0  0  0  0  0  0  0  0  0  0  0  0
  141.0610   76.0290  217.2210 C   0  0  0  0  0  0  0  0  0  0  0  0
  141.9510   77.2230  217.4950 C   0  0  0  0  0  0  0  0  0  0  0  0
  143.3480   76.7430  217.7250 C   0  0  0  0  0  0  0  0  0  0  0  0
  143.4420   76.1750  219.0570 N   0  0  0  0  0  0  0  0  0  0  0  0
  143.7750   74.7960  219.1430 C   0  0  0  0  0  0  0  0  0  0  0  0
  143.9590   74.1920  218.0500 O   0  0  0  0  0  0  0  0  0  0  0  0
  143.9100   74.0670  220.4360 C   0  0  2  0  0  0  0  0  0  0  0  0
  145.3550   73.9250  220.8710 C   0  0  0  0  0  0  0  0  0  0  0  0
  145.8220   72.7870  219.9910 C   0  0  2  0  0  0  0  0  0  0  0  0
  146.2710   73.3240  218.7890 O   0  0  0  0  0  0  0  0  0  0  0  0
  144.6540   71.8740  219.8110 C   0  0  0  0  0  0  0  0  0  0  0  0
  143.5370   72.6800  220.2490 N   0  0  0  0  0  0  0  0  0  0  0  0
  142.2160   72.2040  220.4800 C   0  0  0  0  0  0  0  0  0  0  0  0
  141.9530   71.2200  221.2220 O   0  0  0  0  0  0  0  0  0  0  0  0
  141.0550   72.8720  219.8310 C   0  0  0  0  0  0  0  0  0  0  0  0
  141.0740   74.2880  220.0750 N   0  0  0  0  0  0  0  0  0  0  0  0
  140.6980   74.7980  221.3450 C   0  0  0  0  0  0  0  0  0  0  0  0
  140.3380   74.0240  222.2930 O   0  0  0  0  0  0  0  0  0  0  0  0
  140.7300   76.2620  221.5560 C   0  0  0  0  0  0  0  0  0  0  0  0
  140.1950   76.7910  222.7150 C   0  0  0  0  0  0  0  0  0  0  0  0
  140.1900   78.1440  222.9760 C   0  0  0  0  0  0  0  0  0  0  0  0
  140.7510   78.9750  222.0230 C   0  0  0  0  0  0  0  0  0  0  0  0
  140.7460   80.3260  222.2840 C   0  0  0  0  0  0  0  0  0  0  0  0
  141.3050   81.1580  221.3350 C   0  0  0  0  0  0  0  0  0  0  0  0
  141.3360   82.9050  221.6010 Cl  0  0  0  0  0  0  0  0  0  0  0  0
  141.8430   80.6490  220.1740 C   0  0  0  0  0  0  0  0  0  0  0  0
  141.8330   79.2780  219.9390 C   0  0  0  0  0  0  0  0  0  0  0  0
  141.2770   78.4180  220.8770 C   0  0  0  0  0  0  0  0  0  0  0  0
  141.2610   77.0840  220.6590 N   0  0  0  0  0  0  0  0  0  0  0  0
  139.7788   76.2660  218.9490 H   0  0  0  0  0  0  0  0  0  0  0  0
  139.3116   77.2658  217.5316 H   0  0  0  0  0  0  0  0  0  0  0  0
  138.9851   75.4994  217.5316 H   0  0  0  0  0  0  0  0  0  0  0  0
  141.5088   75.1253  217.6601 H   0  0  0  0  0  0  0  0  0  0  0  0
  140.9528   75.8840  216.1360 H   0  0  0  0  0  0  0  0  0  0  0  0
  141.9320   77.9037  216.6311 H   0  0  0  0  0  0  0  0  0  0  0  0
  141.5904   77.7603  218.3845 H   0  0  0  0  0  0  0  0  0  0  0  0
  143.6013   75.9756  216.9787 H   0  0  0  0  0  0  0  0  0  0  0  0
  144.0493   77.5853  217.6311 H   0  0  0  0  0  0  0  0  0  0  0  0
  143.2820   76.7180  219.9330 H   0  0  0  0  0  0  0  0  0  0  0  0
  143.2987   74.6349  221.1528 H   0  0  0  0  0  0  0  0  0  0  0  0
  145.9260   74.8447  220.6759 H   0  0  0  0  0  0  0  0  0  0  0  0
  145.4842   73.7424  221.9480 H   0  0  0  0  0  0  0  0  0  0  0  0
  146.6545   72.2157  220.4276 H   0  0  0  0  0  0  0  0  0  0  0  0
  145.9510   74.2800  218.7400 H   0  0  0  0  0  0  0  0  0  0  0  0
  144.5404   71.5814  218.7567 H   0  0  0  0  0  0  0  0  0  0  0  0
  144.7521   70.9313  220.3694 H   0  0  0  0  0  0  0  0  0  0  0  0
  141.0970   72.6931  218.7464 H   0  0  0  0  0  0  0  0  0  0  0  0
  140.1291   72.4555  220.2543 H   0  0  0  0  0  0  0  0  0  0  0  0
  141.3620   74.9870  219.3350 H   0  0  0  0  0  0  0  0  0  0  0  0
  139.7570   76.1068  223.4566 H   0  0  0  0  0  0  0  0  0  0  0  0
  139.7577   78.5467  223.9039 H   0  0  0  0  0  0  0  0  0  0  0  0
  140.3135   80.7272  223.2124 H   0  0  0  0  0  0  0  0  0  0  0  0
  142.2824   81.3293  219.4295 H   0  0  0  0  0  0  0  0  0  0  0  0
  142.2651   78.8754  219.0110 H   0  0  0  0  0  0  0  0  0  0  0  0
  1  2  1  0
  2  3  1  0
  3  4  1  0
  4  5  1  0
  5  6  1  0
  6  7  2  0
  6  8  1  0
  8  9  1  0
  9 10  1  0
 10 11  1  0
 10 12  1  0
 12 13  1  0
 13 14  1  0
 14 15  2  0
 14 16  1  0
 16 17  1  0
 17 18  1  0
 18 19  2  0
 18 20  1  0
 20 21  2  0
 21 22  1  0
 22 23  2  0
 23 24  1  0
 24 25  2  0
 25 26  1  0
 25 27  1  0
 27 28  2  0
 28 29  1  0
 29 30  2  0
 13  8  1  0
 30 20  1  0
 29 23  1  0
  1 31  1  0
  1 32  1  0
  1 33  1  0
  2 34  1  0
  2 35  1  0
  3 36  1  0
  3 37  1  0
  4 38  1  0
  4 39  1  0
  5 40  1  0
  8 41  1  1
  9 42  1  0
  9 43  1  0
 10 44  1  1
 11 45  1  0
 12 46  1  0
 12 47  1  0
 16 48  1  0
 16 49  1  0
 17 50  1  0
 21 51  1  0
 22 52  1  0
 24 53  1  0
 27 54  1  0
 28 55  1  0
M  END
>  <smiles>  (1) 
CCCCNC(=O)[C@@H]1C[C@H](O)CN1C(=O)CNC(=O)c1ccc2cc(Cl)ccc2n1

>  <score_type>  (1) 
oracle

>  <origin>  (1) 
autodockgpu

>  <m_score__min__energy>  (1) 
-7.9199999999999999

>  <m_primary>  (1) 
energy

>  <rmsd>  (1) 
7.0422927715657435

>  <m_score__min__rmsd>  (1) 
7.0422927715657435

>  <meeko>  (1) 
{"free_energy": -5.94, "intermolecular_energy": -8.63, "internal_energy": -4.03, "cluster_size": 7, "cluster_id": 4, "rank_in_cluster": 6}

>  <energy>  (1) 
-7.92

>  <cluster_rmsd>  (1) 
0.0

>  <cluster>  (1) 
1

$$$$

     RDKit          3D

 55 57  0  0  0  0  0  0  0  0999 V2000
  141.0590   72.2060  227.6110 C   0  0  0  0  0  0  0  0  0  0  0  0
  141.2980   71.0030  226.6910 C   0  0  0  0  0  0  0  0  0  0  0  0
  141.0330   69.7320  227.4710 C   0  0  0  0  0  0  0  0  0  0  0  0
  140.3870   68.7340  226.5650 C   0  0  0  0  0  0  0  0  0  0  0  0
  139.5910   69.4350  225.5760 N   0  0  0  0  0  0  0  0  0  0  0  0
  138.7850   68.6370  224.7180 C   0  0  0  0  0  0  0  0  0  0  0  0
  138.8380   67.3890  224.8980 O   0  0  0  0  0  0  0  0  0  0  0  0
  137.9120   69.2060  223.6530 C   0  0  2  0  0  0  0  0  0  0  0  0
  137.3490   68.1400  222.7350 C   0  0  0  0  0  0  0  0  0  0  0  0
  138.5360   67.8580  221.8420 C   0  0  2  0  0  0  0  0  0  0  0  0
  139.3150   66.8790  222.4490 O   0  0  0  0  0  0  0  0  0  0  0  0
  139.2670   69.1510  221.6750 C   0  0  0  0  0  0  0  0  0  0  0  0
  138.7180   69.9750  222.7270 N   0  0  0  0  0  0  0  0  0  0  0  0
  138.9230   71.3760  222.8700 C   0  0  0  0  0  0  0  0  0  0  0  0
  139.5930   71.8880  223.8070 O   0  0  0  0  0  0  0  0  0  0  0  0
  138.3320   72.3230  221.8850 C   0  0  0  0  0  0  0  0  0  0  0  0
  138.8100   73.6600  222.1060 N   0  0  0  0  0  0  0  0  0  0  0  0
  138.4330   74.7070  221.2240 C   0  0  0  0  0  0  0  0  0  0  0  0
  137.6690   74.4930  220.2250 O   0  0  0  0  0  0  0  0  0  0  0  0
  138.9460   76.0700  221.4850 C   0  0  0  0  0  0  0  0  0  0  0  0
  138.3660   77.1470  220.8420 C   0  0  0  0  0  0  0  0  0  0  0  0
  138.7940   78.4410  221.0370 C   0  0  0  0  0  0  0  0  0  0  0  0
  139.8450   78.6360  221.9170 C   0  0  0  0  0  0  0  0  0  0  0  0
  140.2710   79.9290  222.1110 C   0  0  0  0  0  0  0  0  0  0  0  0
  141.3190   80.1270  222.9870 C   0  0  0  0  0  0  0  0  0  0  0  0
  141.9230   81.7600  223.2880 Cl  0  0  0  0  0  0  0  0  0  0  0  0
  141.9100   79.0670  223.6370 C   0  0  0  0  0  0  0  0  0  0  0  0
  141.4560   77.7690  223.4190 C   0  0  0  0  0  0  0  0  0  0  0  0
  140.4030   77.5420  222.5430 C   0  0  0  0  0  0  0  0  0  0  0  0
  139.9530   76.2860  222.3230 N   0  0  0  0  0  0  0  0  0  0  0  0
  141.1231   71.8833  228.6606 H   0  0  0  0  0  0  0  0  0  0  0  0
  141.8221   72.9739  227.4162 H   0  0  0  0  0  0  0  0  0  0  0  0
  140.0603   72.6239  227.4162 H   0  0  0  0  0  0  0  0  0  0  0  0
  140.6174   71.0562  225.8285 H   0  0  0  0  0  0  0  0  0  0  0  0
  142.3367   71.0098  226.3290 H   0  0  0  0  0  0  0  0  0  0  0  0
  141.9827   69.3264  227.8498 H   0  0  0  0  0  0  0  0  0  0  0  0
  140.3694   69.9479  228.3213 H   0  0  0  0  0  0  0  0  0  0  0  0
  141.1623   68.1396  226.0595 H   0  0  0  0  0  0  0  0  0  0  0  0
  139.7418   68.0641  227.1523 H   0  0  0  0  0  0  0  0  0  0  0  0
  139.5800   70.4720  225.4670 H   0  0  0  0  0  0  0  0  0  0  0  0
  137.1324   69.7669  224.1894 H   0  0  0  0  0  0  0  0  0  0  0  0
  137.0464   67.2441  223.2969 H   0  0  0  0  0  0  0  0  0  0  0  0
  136.4417   68.4462  222.1936 H   0  0  0  0  0  0  0  0  0  0  0  0
  138.2495   67.4810  220.8491 H   0  0  0  0  0  0  0  0  0  0  0  0
  138.9760   66.7560  223.3910 H   0  0  0  0  0  0  0  0  0  0  0  0
  140.3503   69.0122  221.8065 H   0  0  0  0  0  0  0  0  0  0  0  0
  139.1463   69.5902  220.6737 H   0  0  0  0  0  0  0  0  0  0  0  0
  138.6093   72.0051  220.8691 H   0  0  0  0  0  0  0  0  0  0  0  0
  137.2386   72.3171  222.0054 H   0  0  0  0  0  0  0  0  0  0  0  0
  139.4460   73.9090  222.9140 H   0  0  0  0  0  0  0  0  0  0  0  0
  137.5317   76.9637  220.1489 H   0  0  0  0  0  0  0  0  0  0  0  0
  138.3203   79.2854  220.5150 H   0  0  0  0  0  0  0  0  0  0  0  0
  139.7953   80.7722  221.5887 H   0  0  0  0  0  0  0  0  0  0  0  0
  142.7442   79.2463  224.3313 H   0  0  0  0  0  0  0  0  0  0  0  0
  141.9308   76.9246  223.9400 H   0  0  0  0  0  0  0  0  0  0  0  0
  1  2  1  0
  2  3  1  0
  3  4  1  0
  4  5  1  0
  5  6  1  0
  6  7  2  0
  6  8  1  0
  8  9  1  0
  9 10  1  0
 10 11  1  0
 10 12  1  0
 12 13  1  0
 13 14  1  0
 14 15  2  0
 14 16  1  0
 16 17  1  0
 17 18  1  0
 18 19  2  0
 18 20  1  0
 20 21  2  0
 21 22  1  0
 22 23  2  0
 23 24  1  0
 24 25  2  0
 25 26  1  0
 25 27  1  0
 27 28  2  0
 28 29  1  0
 29 30  2  0
 13  8  1  0
 30 20  1  0
 29 23  1  0
  1 31  1  0
  1 32  1  0
  1 33  1  0
  2 34  1  0
  2 35  1  0
  3 36  1  0
  3 37  1  0
  4 38  1  0
  4 39  1  0
  5 40  1  0
  8 41  1  1
  9 42  1  0
  9 43  1  0
 10 44  1  6
 11 45  1  0
 12 46  1  0
 12 47  1  0
 16 48  1  0
 16 49  1  0
 17 50  1  0
 21 51  1  0
 22 52  1  0
 24 53  1  0
 27 54  1  0
 28 55  1  0
M  END
>  <smiles>  (2) 
CCCCNC(=O)[C@@H]1C[C@H](O)CN1C(=O)CNC(=O)c1ccc2cc(Cl)ccc2n1

>  <score_type>  (2) 
oracle

>  <origin>  (2) 
autodockgpu

>  <m_score__min__energy>  (2) 
-7.9199999999999999

>  <m_primary>  (2) 
energy

>  <rmsd>  (2) 
8.935535331570598

>  <m_score__min__rmsd>  (2) 
8.935535331570598

>  <meeko>  (2) 
{"free_energy": -6.16, "intermolecular_energy": -8.85, "internal_energy": -3.45, "cluster_size": 1, "cluster_id": 6, "rank_in_cluster": 1}

>  <energy>  (2) 
-7.84

>  <cluster_rmsd>  (2) 
0.72

>  <cluster>  (2) 
1

$$$$

     RDKit          3D

 55 57  0  0  0  0  0  0  0  0999 V2000
  142.2420   80.5250  222.0170 C   0  0  0  0  0  0  0  0  0  0  0  0
  141.8670   80.3810  223.4970 C   0  0  0  0  0  0  0  0  0  0  0  0
  141.8660   78.9110  223.8600 C   0  0  0  0  0  0  0  0  0  0  0  0
  140.7890   78.2220  223.0840 C   0  0  0  0  0  0  0  0  0  0  0  0
  141.3980   77.2920  222.1520 N   0  0  0  0  0  0  0  0  0  0  0  0
  140.7320   76.0510  221.9580 C   0  0  0  0  0  0  0  0  0  0  0  0
  139.6700   75.8730  222.6170 O   0  0  0  0  0  0  0  0  0  0  0  0
  141.2280   74.9920  221.0350 C   0  0  2  0  0  0  0  0  0  0  0  0
  142.5930   75.3170  220.4620 C   0  0  0  0  0  0  0  0  0  0  0  0
  142.2340   76.3180  219.3860 C   0  0  2  0  0  0  0  0  0  0  0  0
  142.2100   77.5840  219.9620 O   0  0  0  0  0  0  0  0  0  0  0  0
  140.9040   75.9100  218.8420 C   0  0  0  0  0  0  0  0  0  0  0  0
  140.4170   74.9790  219.8350 N   0  0  0  0  0  0  0  0  0  0  0  0
  139.2810   74.1340  219.6870 C   0  0  0  0  0  0  0  0  0  0  0  0
  139.1210   73.3520  218.7120 O   0  0  0  0  0  0  0  0  0  0  0  0
  138.2010   74.1450  220.7110 C   0  0  0  0  0  0  0  0  0  0  0  0
  138.5710   73.3590  221.8560 N   0  0  0  0  0  0  0  0  0  0  0  0
  138.5140   71.9420  221.7970 C   0  0  0  0  0  0  0  0  0  0  0  0
  138.1380   71.3350  220.7390 O   0  0  0  0  0  0  0  0  0  0  0  0
  138.9020   71.1680  222.9960 C   0  0  0  0  0  0  0  0  0  0  0  0
  138.5090   69.8480  223.1070 C   0  0  0  0  0  0  0  0  0  0  0  0
  138.8340   69.0700  224.1960 C   0  0  0  0  0  0  0  0  0  0  0  0
  139.5830   69.6620  225.1980 C   0  0  0  0  0  0  0  0  0  0  0  0
  139.9060   68.8840  226.2850 C   0  0  0  0  0  0  0  0  0  0  0  0
  140.6530   69.4720  227.2860 C   0  0  0  0  0  0  0  0  0  0  0  0
  141.1080   68.5360  228.7150 Cl  0  0  0  0  0  0  0  0  0  0  0  0
  141.0530   70.7860  227.1940 C   0  0  0  0  0  0  0  0  0  0  0  0
  140.7090   71.5480  226.0810 C   0  0  0  0  0  0  0  0  0  0  0  0
  139.9590   70.9810  225.0600 C   0  0  0  0  0  0  0  0  0  0  0  0
  139.6180   71.7110  223.9730 N   0  0  0  0  0  0  0  0  0  0  0  0
  143.2660   80.9182  221.9348 H   0  0  0  0  0  0  0  0  0  0  0  0
  142.1865   79.5416  221.5273 H   0  0  0  0  0  0  0  0  0  0  0  0
  141.5425   81.2185  221.5273 H   0  0  0  0  0  0  0  0  0  0  0  0
  142.6016   80.9145  224.1180 H   0  0  0  0  0  0  0  0  0  0  0  0
  140.8694   80.8098  223.6729 H   0  0  0  0  0  0  0  0  0  0  0  0
  142.8417   78.4683  223.6109 H   0  0  0  0  0  0  0  0  0  0  0  0
  141.6826   78.7931  224.9382 H   0  0  0  0  0  0  0  0  0  0  0  0
  140.1305   77.6741  223.7741 H   0  0  0  0  0  0  0  0  0  0  0  0
  140.1957   78.9657  222.5318 H   0  0  0  0  0  0  0  0  0  0  0  0
  142.2790   77.4850  221.6280 H   0  0  0  0  0  0  0  0  0  0  0  0
  141.2202   74.0658  221.6284 H   0  0  0  0  0  0  0  0  0  0  0  0
  143.2527   75.7619  221.2215 H   0  0  0  0  0  0  0  0  0  0  0  0
  143.1468   74.4406  220.0943 H   0  0  0  0  0  0  0  0  0  0  0  0
  142.9608   76.3448  218.5607 H   0  0  0  0  0  0  0  0  0  0  0  0
  143.1650   77.8910  220.0730 H   0  0  0  0  0  0  0  0  0  0  0  0
  140.2323   76.7762  218.7494 H   0  0  0  0  0  0  0  0  0  0  0  0
  140.9636   75.4754  217.8333 H   0  0  0  0  0  0  0  0  0  0  0  0
  138.0178   75.1817  221.0299 H   0  0  0  0  0  0  0  0  0  0  0  0
  137.2920   73.7128  220.2673 H   0  0  0  0  0  0  0  0  0  0  0  0
  138.8910   73.7960  222.7650 H   0  0  0  0  0  0  0  0  0  0  0  0
  137.9147   69.4021  222.2958 H   0  0  0  0  0  0  0  0  0  0  0  0
  138.5114   68.0207  224.2665 H   0  0  0  0  0  0  0  0  0  0  0  0
  139.5821   67.8350  226.3541 H   0  0  0  0  0  0  0  0  0  0  0  0
  141.6469   71.2357  228.0034 H   0  0  0  0  0  0  0  0  0  0  0  0
  141.0310   72.5975  226.0108 H   0  0  0  0  0  0  0  0  0  0  0  0
  1  2  1  0
  2  3  1  0
  3  4  1  0
  4  5  1  0
  5  6  1  0
  6  7  2  0
  6  8  1  0
  8  9  1  0
  9 10  1  0
 10 11  1  0
 10 12  1  0
 12 13  1  0
 13 14  1  0
 14 15  2  0
 14 16  1  0
 16 17  1  0
 17 18  1  0
 18 19  2  0
 18 20  1  0
 20 21  2  0
 21 22  1  0
 22 23  2  0
 23 24  1  0
 24 25  2  0
 25 26  1  0
 25 27  1  0
 27 28  2  0
 28 29  1  0
 29 30  2  0
 13  8  1  0
 30 20  1  0
 29 23  1  0
  1 31  1  0
  1 32  1  0
  1 33  1  0
  2 34  1  0
  2 35  1  0
  3 36  1  0
  3 37  1  0
  4 38  1  0
  4 39  1  0
  5 40  1  0
  8 41  1  1
  9 42  1  0
  9 43  1  0
 10 44  1  6
 11 45  1  0
 12 46  1  0
 12 47  1  0
 16 48  1  0
 16 49  1  0
 17 50  1  0
 21 51  1  0
 22 52  1  0
 24 53  1  0
 27 54  1  0
 28 55  1  0
M  END
>  <smiles>  (3) 
CCCCNC(=O)[C@@H]1C[C@H](O)CN1C(=O)CNC(=O)c1ccc2cc(Cl)ccc2n1

>  <score_type>  (3) 
oracle

>  <origin>  (3) 
autodockgpu

>  <m_score__min__energy>  (3) 
-7.9199999999999999

>  <m_primary>  (3) 
energy

>  <rmsd>  (3) 
4.970565658684594

>  <m_score__min__rmsd>  (3) 
4.970565658684594

>  <meeko>  (3) 
{"free_energy": -7.82, "intermolecular_energy": -10.51, "internal_energy": -2.7, "cluster_size": 32, "cluster_id": 1, "rank_in_cluster": 3}

>  <energy>  (3) 
-7.82

>  <cluster_rmsd>  (3) 
0.28

>  <cluster>  (3) 
1

$$$$

     RDKit          3D

 55 57  0  0  0  0  0  0  0  0999 V2000
  142.1560   80.3450  218.6490 C   0  0  0  0  0  0  0  0  0  0  0  0
  142.5850   79.0290  217.9900 C   0  0  0  0  0  0  0  0  0  0  0  0
  142.2430   77.8830  218.9190 C   0  0  0  0  0  0  0  0  0  0  0  0
  143.1710   76.7440  218.6450 C   0  0  0  0  0  0  0  0  0  0  0  0
  143.2690   75.9140  219.8310 N   0  0  0  0  0  0  0  0  0  0  0  0
  143.8520   74.6280  219.6680 C   0  0  0  0  0  0  0  0  0  0  0  0
  144.2310   74.3270  218.5030 O   0  0  0  0  0  0  0  0  0  0  0  0
  144.0230   73.6600  220.7880 C   0  0  2  0  0  0  0  0  0  0  0  0
  145.4800   73.4310  221.1360 C   0  0  0  0  0  0  0  0  0  0  0  0
  145.9060   72.4860  220.0350 C   0  0  2  0  0  0  0  0  0  0  0  0
  146.3190   73.2460  218.9460 O   0  0  0  0  0  0  0  0  0  0  0  0
  144.7240   71.6290  219.7210 C   0  0  0  0  0  0  0  0  0  0  0  0
  143.6300   72.3370  220.3460 N   0  0  0  0  0  0  0  0  0  0  0  0
  142.3130   71.8290  220.5260 C   0  0  0  0  0  0  0  0  0  0  0  0
  141.7870   70.9800  219.7590 O   0  0  0  0  0  0  0  0  0  0  0  0
  141.4780   72.2990  221.6660 C   0  0  0  0  0  0  0  0  0  0  0  0
  141.3720   73.7320  221.6690 N   0  0  0  0  0  0  0  0  0  0  0  0
  140.1290   74.3540  221.9630 C   0  0  0  0  0  0  0  0  0  0  0  0
  139.0880   73.6670  222.2280 O   0  0  0  0  0  0  0  0  0  0  0  0
  140.0600   75.8320  221.9550 C   0  0  0  0  0  0  0  0  0  0  0  0
  138.8270   76.4520  221.8970 C   0  0  0  0  0  0  0  0  0  0  0  0
  138.6890   77.8220  221.8860 C   0  0  0  0  0  0  0  0  0  0  0  0
  139.8480   78.5770  221.9380 C   0  0  0  0  0  0  0  0  0  0  0  0
  139.7090   79.9450  221.9270 C   0  0  0  0  0  0  0  0  0  0  0  0
  140.8630   80.7000  221.9780 C   0  0  0  0  0  0  0  0  0  0  0  0
  140.7650   82.4650  221.9680 Cl  0  0  0  0  0  0  0  0  0  0  0  0
  142.1010   80.1010  222.0370 C   0  0  0  0  0  0  0  0  0  0  0  0
  142.2090   78.7130  222.0460 C   0  0  0  0  0  0  0  0  0  0  0  0
  141.0640   77.9300  221.9950 C   0  0  0  0  0  0  0  0  0  0  0  0
  141.1560   76.5810  222.0040 N   0  0  0  0  0  0  0  0  0  0  0  0
  142.1916   80.2359  219.7430 H   0  0  0  0  0  0  0  0  0  0  0  0
  142.8382   81.1501  218.3384 H   0  0  0  0  0  0  0  0  0  0  0  0
  141.1304   80.5933  218.3384 H   0  0  0  0  0  0  0  0  0  0  0  0
  142.0526   78.9027  217.0358 H   0  0  0  0  0  0  0  0  0  0  0  0
  143.6680   79.0433  217.7976 H   0  0  0  0  0  0  0  0  0  0  0  0
  142.3560   78.2083  219.9637 H   0  0  0  0  0  0  0  0  0  0  0  0
  141.2033   77.5651  218.7515 H   0  0  0  0  0  0  0  0  0  0  0  0
  142.7822   76.1455  217.8080 H   0  0  0  0  0  0  0  0  0  0  0  0
  144.1660   77.1324  218.3819 H   0  0  0  0  0  0  0  0  0  0  0  0
  142.9400   76.2100  220.7760 H   0  0  0  0  0  0  0  0  0  0  0  0
  143.4419   74.0785  221.6230 H   0  0  0  0  0  0  0  0  0  0  0  0
  146.0532   74.3693  221.1047 H   0  0  0  0  0  0  0  0  0  0  0  0
  145.6433   73.0406  222.1513 H   0  0  0  0  0  0  0  0  0  0  0  0
  146.7474   71.8383  220.3225 H   0  0  0  0  0  0  0  0  0  0  0  0
  146.0700   74.2070  219.1280 H   0  0  0  0  0  0  0  0  0  0  0  0
  144.5725   71.5481  218.6345 H   0  0  0  0  0  0  0  0  0  0  0  0
  144.8317   70.5952  220.0812 H   0  0  0  0  0  0  0  0  0  0  0  0
  140.4715   71.8639  221.5784 H   0  0  0  0  0  0  0  0  0  0  0  0
  141.9546   71.9805  222.6048 H   0  0  0  0  0  0  0  0  0  0  0  0
  142.1950   74.3630  221.4580 H   0  0  0  0  0  0  0  0  0  0  0  0
  137.9218   75.8282  221.8582 H   0  0  0  0  0  0  0  0  0  0  0  0
  137.6981   78.2971  221.8378 H   0  0  0  0  0  0  0  0  0  0  0  0
  138.7174   80.4187  221.8794 H   0  0  0  0  0  0  0  0  0  0  0  0
  143.0085   80.7214  222.0772 H   0  0  0  0  0  0  0  0  0  0  0  0
  143.1999   78.2377  222.0935 H   0  0  0  0  0  0  0  0  0  0  0  0
  1  2  1  0
  2  3  1  0
  3  4  1  0
  4  5  1  0
  5  6  1  0
  6  7  2  0
  6  8  1  0
  8  9  1  0
  9 10  1  0
 10 11  1  0
 10 12  1  0
 12 13  1  0
 13 14  1  0
 14 15  2  0
 14 16  1  0
 16 17  1  0
 17 18  1  0
 18 19  2  0
 18 20  1  0
 20 21  2  0
 21 22  1  0
 22 23  2  0
 23 24  1  0
 24 25  2  0
 25 26  1  0
 25 27  1  0
 27 28  2  0
 28 29  1  0
 29 30  2  0
 13  8  1  0
 30 20  1  0
 29 23  1  0
  1 31  1  0
  1 32  1  0
  1 33  1  0
  2 34  1  0
  2 35  1  0
  3 36  1  0
  3 37  1  0
  4 38  1  0
  4 39  1  0
  5 40  1  0
  8 41  1  1
  9 42  1  0
  9 43  1  0
 10 44  1  1
 11 45  1  0
 12 46  1  0
 12 47  1  0
 16 48  1  0
 16 49  1  0
 17 50  1  0
 21 51  1  0
 22 52  1  0
 24 53  1  0
 27 54  1  0
 28 55  1  0
M  END
>  <smiles>  (4) 
CCCCNC(=O)[C@@H]1C[C@H](O)CN1C(=O)CNC(=O)c1ccc2cc(Cl)ccc2n1

>  <score_type>  (4) 
oracle

>  <origin>  (4) 
autodockgpu

>  <m_score__min__energy>  (4) 
-7.9199999999999999

>  <m_primary>  (4) 
energy

>  <rmsd>  (4) 
6.853069472795117

>  <m_score__min__rmsd>  (4) 
6.853069472795117

>  <meeko>  (4) 
{"free_energy": -6.67, "intermolecular_energy": -9.35, "internal_energy": -3.36, "cluster_size": 7, "cluster_id": 4, "rank_in_cluster": 2}

>  <energy>  (4) 
-7.75

>  <cluster_rmsd>  (4) 
1.7

>  <cluster>  (4) 
1

$$$$

     RDKit          3D

 55 57  0  0  0  0  0  0  0  0999 V2000
  139.5680   79.9630  223.8480 C   0  0  0  0  0  0  0  0  0  0  0  0
  140.9530   79.3510  224.0930 C   0  0  0  0  0  0  0  0  0  0  0  0
  142.0070   80.4000  223.8050 C   0  0  0  0  0  0  0  0  0  0  0  0
  142.8970   79.9030  222.7110 C   0  0  0  0  0  0  0  0  0  0  0  0
  142.1990   78.8750  221.9610 N   0  0  0  0  0  0  0  0  0  0  0  0
  141.4310   79.3060  220.8450 C   0  0  0  0  0  0  0  0  0  0  0  0
  141.4280   80.5460  220.6090 O   0  0  0  0  0  0  0  0  0  0  0  0
  140.6590   78.3740  219.9750 C   0  0  2  0  0  0  0  0  0  0  0  0
  139.5900   79.0860  219.1710 C   0  0  0  0  0  0  0  0  0  0  0  0
  138.5090   79.2730  220.2120 C   0  0  2  0  0  0  0  0  0  0  0  0
  138.7530   80.4670  220.8820 O   0  0  0  0  0  0  0  0  0  0  0  0
  138.5690   78.0850  221.1160 C   0  0  0  0  0  0  0  0  0  0  0  0
  139.8520   77.5000  220.8020 N   0  0  0  0  0  0  0  0  0  0  0  0
  140.3040   76.2210  221.2330 C   0  0  0  0  0  0  0  0  0  0  0  0
  141.4060   76.0350  221.8160 O   0  0  0  0  0  0  0  0  0  0  0  0
  139.4650   75.0140  221.0050 C   0  0  0  0  0  0  0  0  0  0  0  0
  139.5800   74.0910  222.1010 N   0  0  0  0  0  0  0  0  0  0  0  0
  139.7550   72.7050  221.8510 C   0  0  0  0  0  0  0  0  0  0  0  0
  139.8160   72.2460  220.6620 O   0  0  0  0  0  0  0  0  0  0  0  0
  139.8690   71.7880  223.0060 C   0  0  0  0  0  0  0  0  0  0  0  0
  139.4560   70.4760  222.8720 C   0  0  0  0  0  0  0  0  0  0  0  0
  139.5320   69.5690  223.9050 C   0  0  0  0  0  0  0  0  0  0  0  0
  140.0480   70.0190  225.1080 C   0  0  0  0  0  0  0  0  0  0  0  0
  140.1230   69.1130  226.1400 C   0  0  0  0  0  0  0  0  0  0  0  0
  140.6360   69.5590  227.3400 C   0  0  0  0  0  0  0  0  0  0  0  0
  140.7660   68.4520  228.7120 Cl  0  0  0  0  0  0  0  0  0  0  0  0
  141.0530   70.8630  227.4930 C   0  0  0  0  0  0  0  0  0  0  0  0
  140.9630   71.7560  226.4300 C   0  0  0  0  0  0  0  0  0  0  0  0
  140.4510   71.3330  225.2110 C   0  0  0  0  0  0  0  0  0  0  0  0
  140.3590   72.1930  224.1710 N   0  0  0  0  0  0  0  0  0  0  0  0
  139.0854   80.1762  224.8132 H   0  0  0  0  0  0  0  0  0  0  0  0
  139.6757   80.8973  223.2776 H   0  0  0  0  0  0  0  0  0  0  0  0
  138.9497   79.2543  223.2776 H   0  0  0  0  0  0  0  0  0  0  0  0
  141.0330   79.0241  225.1403 H   0  0  0  0  0  0  0  0  0  0  0  0
  141.1000   78.4823  223.4344 H   0  0  0  0  0  0  0  0  0  0  0  0
  141.5211   81.3352  223.4898 H   0  0  0  0  0  0  0  0  0  0  0  0
  142.6006   80.5913  224.7111 H   0  0  0  0  0  0  0  0  0  0  0  0
  143.1569   80.7356  222.0407 H   0  0  0  0  0  0  0  0  0  0  0  0
  143.8180   79.4852  223.1436 H   0  0  0  0  0  0  0  0  0  0  0  0
  142.2340   77.8600  222.1950 H   0  0  0  0  0  0  0  0  0  0  0  0
  141.4111   77.8770  219.3447 H   0  0  0  0  0  0  0  0  0  0  0  0
  139.9511   80.0518  218.7879 H   0  0  0  0  0  0  0  0  0  0  0  0
  139.2618   78.5387  218.2750 H   0  0  0  0  0  0  0  0  0  0  0  0
  137.4996   79.3384  219.7797 H   0  0  0  0  0  0  0  0  0  0  0  0
  139.5560   80.3270  221.4780 H   0  0  0  0  0  0  0  0  0  0  0  0
  138.5214   78.3893  222.1720 H   0  0  0  0  0  0  0  0  0  0  0  0
  137.7293   77.3891  220.9724 H   0  0  0  0  0  0  0  0  0  0  0  0
  138.4137   75.3211  220.9023 H   0  0  0  0  0  0  0  0  0  0  0  0
  139.8123   74.5143  220.0887 H   0  0  0  0  0  0  0  0  0  0  0  0
  139.5390   74.4030  223.1110 H   0  0  0  0  0  0  0  0  0  0  0  0
  139.0516   70.1441  221.9043 H   0  0  0  0  0  0  0  0  0  0  0  0
  139.1963   68.5290  223.7794 H   0  0  0  0  0  0  0  0  0  0  0  0
  139.7870   68.0733  226.0133 H   0  0  0  0  0  0  0  0  0  0  0  0
  141.4584   71.1992  228.4587 H   0  0  0  0  0  0  0  0  0  0  0  0
  141.2973   72.7964  226.5554 H   0  0  0  0  0  0  0  0  0  0  0  0
  1  2  1  0
  2  3  1  0
  3  4  1  0
  4  5  1  0
  5  6  1  0
  6  7  2  0
  6  8  1  0
  8  9  1  0
  9 10  1  0
 10 11  1  0
 10 12  1  0
 12 13  1  0
 13 14  1  0
 14 15  2  0
 14 16  1  0
 16 17  1  0
 17 18  1  0
 18 19  2  0
 18 20  1  0
 20 21  2  0
 21 22  1  0
 22 23  2  0
 23 24  1  0
 24 25  2  0
 25 26  1  0
 25 27  1  0
 27 28  2  0
 28 29  1  0
 29 30  2  0
 13  8  1  0
 30 20  1  0
 29 23  1  0
  1 31  1  0
  1 32  1  0
  1 33  1  0
  2 34  1  0
  2 35  1  0
  3 36  1  0
  3 37  1  0
  4 38  1  0
  4 39  1  0
  5 40  1  0
  8 41  1  6
  9 42  1  0
  9 43  1  0
 10 44  1  6
 11 45  1  0
 12 46  1  0
 12 47  1  0
 16 48  1  0
 16 49  1  0
 17 50  1  0
 21 51  1  0
 22 52  1  0
 24 53  1  0
 27 54  1  0
 28 55  1  0
M  END
>  <smiles>  (5) 
CCCCNC(=O)[C@@H]1C[C@H](O)CN1C(=O)CNC(=O)c1ccc2cc(Cl)ccc2n1

>  <score_type>  (5) 
oracle

>  <origin>  (5) 
autodockgpu

>  <m_score__min__energy>  (5) 
-7.9199999999999999

>  <m_primary>  (5) 
energy

>  <rmsd>  (5) 
5.835596784554179

>  <m_score__min__rmsd>  (5) 
5.835596784554179

>  <meeko>  (5) 
{"free_energy": -7.07, "intermolecular_energy": -9.76, "internal_energy": -3.23, "cluster_size": 5, "cluster_id": 2, "rank_in_cluster": 3}

>  <energy>  (5) 
-7.72

>  <cluster_rmsd>  (5) 
1.38

>  <cluster>  (5) 
1

$$$$

     RDKit          3D

 55 57  0  0  0  0  0  0  0  0999 V2000
  144.0710   74.4710  218.9440 C   0  0  0  0  0  0  0  0  0  0  0  0
  144.0280   74.2890  220.4660 C   0  0  0  0  0  0  0  0  0  0  0  0
  143.7490   72.8330  220.7750 C   0  0  0  0  0  0  0  0  0  0  0  0
  142.2810   72.6580  220.9950 C   0  0  0  0  0  0  0  0  0  0  0  0
  141.5690   73.7250  220.3180 N   0  0  0  0  0  0  0  0  0  0  0  0
  140.6770   74.5020  221.1070 C   0  0  0  0  0  0  0  0  0  0  0  0
  140.5870   74.1890  222.3260 O   0  0  0  0  0  0  0  0  0  0  0  0
  139.8740   75.6320  220.5600 C   0  0  2  0  0  0  0  0  0  0  0  0
  140.5970   76.9600  220.6670 C   0  0  0  0  0  0  0  0  0  0  0  0
  140.3870   77.2980  222.1260 C   0  0  2  0  0  0  0  0  0  0  0  0
  141.4150   76.7160  222.8600 O   0  0  0  0  0  0  0  0  0  0  0  0
  139.0420   76.7690  222.5020 C   0  0  0  0  0  0  0  0  0  0  0  0
  138.7290   75.8690  221.4150 N   0  0  0  0  0  0  0  0  0  0  0  0
  137.4610   75.2680  221.1800 C   0  0  0  0  0  0  0  0  0  0  0  0
  136.3790   75.9140  221.1650 O   0  0  0  0  0  0  0  0  0  0  0  0
  137.3590   73.8020  220.9380 C   0  0  0  0  0  0  0  0  0  0  0  0
  137.9020   73.0590  222.0420 N   0  0  0  0  0  0  0  0  0  0  0  0
  137.5670   71.6900  222.2130 C   0  0  0  0  0  0  0  0  0  0  0  0
  136.7850   71.0900  221.4020 O   0  0  0  0  0  0  0  0  0  0  0  0
  138.1450   70.9600  223.3610 C   0  0  0  0  0  0  0  0  0  0  0  0
  137.7250   69.6700  223.6260 C   0  0  0  0  0  0  0  0  0  0  0  0
  138.2200   68.9330  224.6780 C   0  0  0  0  0  0  0  0  0  0  0  0
  139.1730   69.5340  225.4810 C   0  0  0  0  0  0  0  0  0  0  0  0
  139.6670   68.7970  226.5310 C   0  0  0  0  0  0  0  0  0  0  0  0
  140.6180   69.3940  227.3340 C   0  0  0  0  0  0  0  0  0  0  0  0
  141.3010   68.5100  228.7030 Cl  0  0  0  0  0  0  0  0  0  0  0  0
  141.0500   70.6780  227.0870 C   0  0  0  0  0  0  0  0  0  0  0  0
  140.5310   71.3990  226.0160 C   0  0  0  0  0  0  0  0  0  0  0  0
  139.5730   70.8220  225.1920 C   0  0  0  0  0  0  0  0  0  0  0  0
  139.0610   71.5120  224.1480 N   0  0  0  0  0  0  0  0  0  0  0  0
  144.3180   75.5163  218.7066 H   0  0  0  0  0  0  0  0  0  0  0  0
  144.8370   73.8071  218.5168 H   0  0  0  0  0  0  0  0  0  0  0  0
  143.0889   74.2201  218.5168 H   0  0  0  0  0  0  0  0  0  0  0  0
  144.9954   74.5805  220.9008 H   0  0  0  0  0  0  0  0  0  0  0  0
  143.2369   74.9209  220.8961 H   0  0  0  0  0  0  0  0  0  0  0  0
  144.0730   72.2075  219.9302 H   0  0  0  0  0  0  0  0  0  0  0  0
  144.3000   72.5312  221.6779 H   0  0  0  0  0  0  0  0  0  0  0  0
  141.9611   71.6867  220.5898 H   0  0  0  0  0  0  0  0  0  0  0  0
  142.0612   72.6912  222.0723 H   0  0  0  0  0  0  0  0  0  0  0  0
  141.6780   73.9460  219.3050 H   0  0  0  0  0  0  0  0  0  0  0  0
  139.6464   75.3478  219.5220 H   0  0  0  0  0  0  0  0  0  0  0  0
  141.6657   76.8566  220.4279 H   0  0  0  0  0  0  0  0  0  0  0  0
  140.2308   77.7285  219.9704 H   0  0  0  0  0  0  0  0  0  0  0  0
  140.4115   78.3792  222.3270 H   0  0  0  0  0  0  0  0  0  0  0  0
  141.8350   76.0000  222.2870 H   0  0  0  0  0  0  0  0  0  0  0  0
  139.0829   76.2313  223.4607 H   0  0  0  0  0  0  0  0  0  0  0  0
  138.2893   77.5592  222.6399 H   0  0  0  0  0  0  0  0  0  0  0  0
  136.3007   73.5316  220.8082 H   0  0  0  0  0  0  0  0  0  0  0  0
  137.9335   73.5553  220.0330 H   0  0  0  0  0  0  0  0  0  0  0  0
  138.5560   73.4930  222.7510 H   0  0  0  0  0  0  0  0  0  0  0  0
  136.9667   69.2153  222.9716 H   0  0  0  0  0  0  0  0  0  0  0  0
  137.8720   67.9078  224.8723 H   0  0  0  0  0  0  0  0  0  0  0  0
  139.3182   67.7717  226.7238 H   0  0  0  0  0  0  0  0  0  0  0  0
  141.8085   71.1356  227.7391 H   0  0  0  0  0  0  0  0  0  0  0  0
  140.8788   72.4244  225.8221 H   0  0  0  0  0  0  0  0  0  0  0  0
  1  2  1  0
  2  3  1  0
  3  4  1  0
  4  5  1  0
  5  6  1  0
  6  7  2  0
  6  8  1  0
  8  9  1  0
  9 10  1  0
 10 11  1  0
 10 12  1  0
 12 13  1  0
 13 14  1  0
 14 15  2  0
 14 16  1  0
 16 17  1  0
 17 18  1  0
 18 19  2  0
 18 20  1  0
 20 21  2  0
 21 22  1  0
 22 23  2  0
 23 24  1  0
 24 25  2  0
 25 26  1  0
 25 27  1  0
 27 28  2  0
 28 29  1  0
 29 30  2  0
 13  8  1  0
 30 20  1  0
 29 23  1  0
  1 31  1  0
  1 32  1  0
  1 33  1  0
  2 34  1  0
  2 35  1  0
  3 36  1  0
  3 37  1  0
  4 38  1  0
  4 39  1  0
  5 40  1  0
  8 41  1  6
  9 42  1  0
  9 43  1  0
 10 44  1  6
 11 45  1  0
 12 46  1  0
 12 47  1  0
 16 48  1  0
 16 49  1  0
 17 50  1  0
 21 51  1  0
 22 52  1  0
 24 53  1  0
 27 54  1  0
 28 55  1  0
M  END
>  <smiles>  (6) 
CCCCNC(=O)[C@@H]1C[C@H](O)CN1C(=O)CNC(=O)c1ccc2cc(Cl)ccc2n1

>  <score_type>  (6) 
oracle

>  <origin>  (6) 
autodockgpu

>  <m_score__min__energy>  (6) 
-7.9199999999999999

>  <m_primary>  (6) 
energy

>  <rmsd>  (6) 
4.419692366650887

>  <m_score__min__rmsd>  (6) 
4.419692366650887

>  <meeko>  (6) 
{"free_energy": -6.67, "intermolecular_energy": -9.35, "internal_energy": -3.21, "cluster_size": 32, "cluster_id": 1, "rank_in_cluster": 28}

>  <energy>  (6) 
-7.71

>  <cluster_rmsd>  (6) 
0.3

>  <cluster>  (6) 
1

$$$$

     RDKit          3D

 55 57  0  0  0  0  0  0  0  0999 V2000
  142.9170   76.7870  219.3210 C   0  0  0  0  0  0  0  0  0  0  0  0
  141.8450   77.7520  218.8000 C   0  0  0  0  0  0  0  0  0  0  0  0
  142.5280   78.9740  218.2230 C   0  0  0  0  0  0  0  0  0  0  0  0
  142.2090   80.1570  219.0800 C   0  0  0  0  0  0  0  0  0  0  0  0
  141.8610   79.6980  220.4120 N   0  0  0  0  0  0  0  0  0  0  0  0
  140.7110   80.2810  221.0100 C   0  0  0  0  0  0  0  0  0  0  0  0
  140.0980   81.1460  220.3250 O   0  0  0  0  0  0  0  0  0  0  0  0
  140.2240   79.9170  222.3700 C   0  0  2  0  0  0  0  0  0  0  0  0
  141.0440   80.5600  223.4710 C   0  0  0  0  0  0  0  0  0  0  0  0
  142.2670   79.6710  223.4900 C   0  0  2  0  0  0  0  0  0  0  0  0
  143.1790   80.1660  222.5650 O   0  0  0  0  0  0  0  0  0  0  0  0
  141.8020   78.2910  223.1560 C   0  0  0  0  0  0  0  0  0  0  0  0
  140.4810   78.5130  222.6150 N   0  0  0  0  0  0  0  0  0  0  0  0
  139.5200   77.4990  222.3430 C   0  0  0  0  0  0  0  0  0  0  0  0
  138.3280   77.5460  222.7480 O   0  0  0  0  0  0  0  0  0  0  0  0
  139.9000   76.3020  221.5430 C   0  0  0  0  0  0  0  0  0  0  0  0
  139.6880   75.0940  222.2920 N   0  0  0  0  0  0  0  0  0  0  0  0
  140.1360   73.8490  221.7770 C   0  0  0  0  0  0  0  0  0  0  0  0
  140.7320   73.7690  220.6520 O   0  0  0  0  0  0  0  0  0  0  0  0
  139.8990   72.6280  222.5780 C   0  0  0  0  0  0  0  0  0  0  0  0
  138.8190   71.8200  222.2760 C   0  0  0  0  0  0  0  0  0  0  0  0
  138.5380   70.6700  222.9800 C   0  0  0  0  0  0  0  0  0  0  0  0
  139.3880   70.3390  224.0200 C   0  0  0  0  0  0  0  0  0  0  0  0
  139.1060   69.1910  224.7220 C   0  0  0  0  0  0  0  0  0  0  0  0
  139.9530   68.8580  225.7610 C   0  0  0  0  0  0  0  0  0  0  0  0
  139.6560   67.3970  226.7090 Cl  0  0  0  0  0  0  0  0  0  0  0  0
  141.0330   69.6510  226.0770 C   0  0  0  0  0  0  0  0  0  0  0  0
  141.2920   70.8070  225.3480 C   0  0  0  0  0  0  0  0  0  0  0  0
  140.4560   71.1650  224.2980 C   0  0  0  0  0  0  0  0  0  0  0  0
  140.6970   72.2870  223.5820 N   0  0  0  0  0  0  0  0  0  0  0  0
  142.9115   76.7920  220.4210 H   0  0  0  0  0  0  0  0  0  0  0  0
  142.7034   75.7709  218.9579 H   0  0  0  0  0  0  0  0  0  0  0  0
  143.9051   77.1059  218.9579 H   0  0  0  0  0  0  0  0  0  0  0  0
  141.2504   77.2570  218.0181 H   0  0  0  0  0  0  0  0  0  0  0  0
  141.1783   78.0498  219.6227 H   0  0  0  0  0  0  0  0  0  0  0  0
  143.6162   78.8144  218.2041 H   0  0  0  0  0  0  0  0  0  0  0  0
  142.1723   79.1502  217.1971 H   0  0  0  0  0  0  0  0  0  0  0  0
  143.0859   80.8187  219.1358 H   0  0  0  0  0  0  0  0  0  0  0  0
  141.3638   80.7117  218.6464 H   0  0  0  0  0  0  0  0  0  0  0  0
  142.4010   78.9780  220.9380 H   0  0  0  0  0  0  0  0  0  0  0  0
  139.1671   80.2213  222.3876 H   0  0  0  0  0  0  0  0  0  0  0  0
  141.3058   81.5992  223.2231 H   0  0  0  0  0  0  0  0  0  0  0  0
  140.5233   80.6293  224.4375 H   0  0  0  0  0  0  0  0  0  0  0  0
  142.7703   79.6489  224.4679 H   0  0  0  0  0  0  0  0  0  0  0  0
  143.7060   79.3850  222.2030 H   0  0  0  0  0  0  0  0  0  0  0  0
  142.4606   77.8220  222.4102 H   0  0  0  0  0  0  0  0  0  0  0  0
  141.8067   77.6117  224.0211 H   0  0  0  0  0  0  0  0  0  0  0  0
  139.2883   76.2709  220.6293 H   0  0  0  0  0  0  0  0  0  0  0  0
  140.9679   76.3744  221.2892 H   0  0  0  0  0  0  0  0  0  0  0  0
  139.2010   75.0870  223.2310 H   0  0  0  0  0  0  0  0  0  0  0  0
  138.1599   72.1058  221.4430 H   0  0  0  0  0  0  0  0  0  0  0  0
  137.6727   70.0403  222.7256 H   0  0  0  0  0  0  0  0  0  0  0  0
  138.2401   68.5626  224.4663 H   0  0  0  0  0  0  0  0  0  0  0  0
  141.6942   69.3692  226.9097 H   0  0  0  0  0  0  0  0  0  0  0  0
  142.1574   71.4366  225.6026 H   0  0  0  0  0  0  0  0  0  0  0  0
  1  2  1  0
  2  3  1  0
  3  4  1  0
  4  5  1  0
  5  6  1  0
  6  7  2  0
  6  8  1  0
  8  9  1  0
  9 10  1  0
 10 11  1  0
 10 12  1  0
 12 13  1  0
 13 14  1  0
 14 15  2  0
 14 16  1  0
 16 17  1  0
 17 18  1  0
 18 19  2  0
 18 20  1  0
 20 21  2  0
 21 22  1  0
 22 23  2  0
 23 24  1  0
 24 25  2  0
 25 26  1  0
 25 27  1  0
 27 28  2  0
 28 29  1  0
 29 30  2  0
 13  8  1  0
 30 20  1  0
 29 23  1  0
  1 31  1  0
  1 32  1  0
  1 33  1  0
  2 34  1  0
  2 35  1  0
  3 36  1  0
  3 37  1  0
  4 38  1  0
  4 39  1  0
  5 40  1  0
  8 41  1  6
  9 42  1  0
  9 43  1  0
 10 44  1  1
 11 45  1  0
 12 46  1  0
 12 47  1  0
 16 48  1  0
 16 49  1  0
 17 50  1  0
 21 51  1  0
 22 52  1  0
 24 53  1  0
 27 54  1  0
 28 55  1  0
M  END
>  <smiles>  (7) 
CCCCNC(=O)[C@@H]1C[C@H](O)CN1C(=O)CNC(=O)c1ccc2cc(Cl)ccc2n1

>  <score_type>  (7) 
oracle

>  <origin>  (7) 
autodockgpu

>  <m_score__min__energy>  (7) 
-7.9199999999999999

>  <m_primary>  (7) 
energy

>  <rmsd>  (7) 
5.181245178602968

>  <m_score__min__rmsd>  (7) 
5.181245178602968

>  <meeko>  (7) 
{"free_energy": -7.58, "intermolecular_energy": -10.27, "internal_energy": -2.39, "cluster_size": 5, "cluster_id": 2, "rank_in_cluster": 1}

>  <energy>  (7) 
-7.69

>  <cluster_rmsd>  (7) 
0.36

>  <cluster>  (7) 
1

$$$$

     RDKit          3D

 55 57  0  0  0  0  0  0  0  0999 V2000
  138.4240   79.4380  222.6430 C   0  0  0  0  0  0  0  0  0  0  0  0
  139.2990   79.8540  223.8320 C   0  0  0  0  0  0  0  0  0  0  0  0
  140.2910   80.8980  223.3660 C   0  0  0  0  0  0  0  0  0  0  0  0
  141.6470   80.2740  223.2800 C   0  0  0  0  0  0  0  0  0  0  0  0
  141.5310   78.9720  222.6520 N   0  0  0  0  0  0  0  0  0  0  0  0
  141.8430   78.8980  221.2670 C   0  0  0  0  0  0  0  0  0  0  0  0
  142.1920   79.9760  220.7110 O   0  0  0  0  0  0  0  0  0  0  0  0
  141.7730   77.6350  220.4790 C   0  0  2  0  0  0  0  0  0  0  0  0
  141.9680   77.8680  218.9940 C   0  0  0  0  0  0  0  0  0  0  0  0
  140.6060   78.3890  218.5930 C   0  0  2  0  0  0  0  0  0  0  0  0
  140.5960   79.7670  218.7750 O   0  0  0  0  0  0  0  0  0  0  0  0
  139.6050   77.6890  219.4530 C   0  0  0  0  0  0  0  0  0  0  0  0
  140.4180   77.1240  220.5060 N   0  0  0  0  0  0  0  0  0  0  0  0
  139.9760   76.1760  221.4720 C   0  0  0  0  0  0  0  0  0  0  0  0
  139.9240   76.4170  222.7070 O   0  0  0  0  0  0  0  0  0  0  0  0
  139.5460   74.8160  221.0440 C   0  0  0  0  0  0  0  0  0  0  0  0
  139.6420   73.8810  222.1310 N   0  0  0  0  0  0  0  0  0  0  0  0
  139.8330   72.4990  221.8660 C   0  0  0  0  0  0  0  0  0  0  0  0
  139.9250   72.0560  220.6730 O   0  0  0  0  0  0  0  0  0  0  0  0
  139.9270   71.5670  223.0110 C   0  0  0  0  0  0  0  0  0  0  0  0
  139.4890   70.2650  222.8620 C   0  0  0  0  0  0  0  0  0  0  0  0
  139.5460   69.3450  223.8860 C   0  0  0  0  0  0  0  0  0  0  0  0
  140.0660   69.7730  225.0950 C   0  0  0  0  0  0  0  0  0  0  0  0
  140.1220   68.8540  226.1160 C   0  0  0  0  0  0  0  0  0  0  0  0
  140.6400   69.2780  227.3230 C   0  0  0  0  0  0  0  0  0  0  0  0
  140.7440   68.1530  228.6830 Cl  0  0  0  0  0  0  0  0  0  0  0  0
  141.0800   70.5710  227.4910 C   0  0  0  0  0  0  0  0  0  0  0  0
  141.0100   71.4780  226.4390 C   0  0  0  0  0  0  0  0  0  0  0  0
  140.4940   71.0780  225.2130 C   0  0  0  0  0  0  0  0  0  0  0  0
  140.4200   71.9500  224.1820 N   0  0  0  0  0  0  0  0  0  0  0  0
  137.4887   78.9934  223.0139 H   0  0  0  0  0  0  0  0  0  0  0  0
  138.1922   80.3223  222.0312 H   0  0  0  0  0  0  0  0  0  0  0  0
  138.9635   78.7000  222.0312 H   0  0  0  0  0  0  0  0  0  0  0  0
  138.6662   80.2744  224.6275 H   0  0  0  0  0  0  0  0  0  0  0  0
  139.8355   78.9781  224.2257 H   0  0  0  0  0  0  0  0  0  0  0  0
  139.9939   81.2735  222.3757 H   0  0  0  0  0  0  0  0  0  0  0  0
  140.3113   81.7365  224.0777 H   0  0  0  0  0  0  0  0  0  0  0  0
  142.3100   80.9147  222.6800 H   0  0  0  0  0  0  0  0  0  0  0  0
  142.0683   80.1622  224.2899 H   0  0  0  0  0  0  0  0  0  0  0  0
  141.2380   78.1070  223.1560 H   0  0  0  0  0  0  0  0  0  0  0  0
  142.5409   76.9797  220.9159 H   0  0  0  0  0  0  0  0  0  0  0  0
  142.7556   78.6119  218.8034 H   0  0  0  0  0  0  0  0  0  0  0  0
  142.2903   76.9758  218.4371 H   0  0  0  0  0  0  0  0  0  0  0  0
  140.3635   78.1954  217.5377 H   0  0  0  0  0  0  0  0  0  0  0  0
  141.4770   80.0290  219.1910 H   0  0  0  0  0  0  0  0  0  0  0  0
  138.8687   78.3980  219.8595 H   0  0  0  0  0  0  0  0  0  0  0  0
  139.0174   76.9355  218.9080 H   0  0  0  0  0  0  0  0  0  0  0  0
  138.5026   74.8605  220.6985 H   0  0  0  0  0  0  0  0  0  0  0  0
  140.2063   74.4786  220.2315 H   0  0  0  0  0  0  0  0  0  0  0  0
  139.5750   74.1790  223.1430 H   0  0  0  0  0  0  0  0  0  0  0  0
  139.0798   69.9515  221.8902 H   0  0  0  0  0  0  0  0  0  0  0  0
  139.1926   68.3125  223.7482 H   0  0  0  0  0  0  0  0  0  0  0  0
  139.7681   67.8219  225.9765 H   0  0  0  0  0  0  0  0  0  0  0  0
  141.4889   70.8886  228.4616 H   0  0  0  0  0  0  0  0  0  0  0  0
  141.3627   72.5106  226.5777 H   0  0  0  0  0  0  0  0  0  0  0  0
  1  2  1  0
  2  3  1  0
  3  4  1  0
  4  5  1  0
  5  6  1  0
  6  7  2  0
  6  8  1  0
  8  9  1  0
  9 10  1  0
 10 11  1  0
 10 12  1  0
 12 13  1  0
 13 14  1  0
 14 15  2  0
 14 16  1  0
 16 17  1  0
 17 18  1  0
 18 19  2  0
 18 20  1  0
 20 21  2  0
 21 22  1  0
 22 23  2  0
 23 24  1  0
 24 25  2  0
 25 26  1  0
 25 27  1  0
 27 28  2  0
 28 29  1  0
 29 30  2  0
 13  8  1  0
 30 20  1  0
 29 23  1  0
  1 31  1  0
  1 32  1  0
  1 33  1  0
  2 34  1  0
  2 35  1  0
  3 36  1  0
  3 37  1  0
  4 38  1  0
  4 39  1  0
  5 40  1  0
  8 41  1  1
  9 42  1  0
  9 43  1  0
 10 44  1  6
 11 45  1  0
 12 46  1  0
 12 47  1  0
 16 48  1  0
 16 49  1  0
 17 50  1  0
 21 51  1  0
 22 52  1  0
 24 53  1  0
 27 54  1  0
 28 55  1  0
M  END
>  <smiles>  (8) 
CCCCNC(=O)[C@@H]1C[C@H](O)CN1C(=O)CNC(=O)c1ccc2cc(Cl)ccc2n1

>  <score_type>  (8) 
oracle

>  <origin>  (8) 
autodockgpu

>  <m_score__min__energy>  (8) 
-7.9199999999999999

>  <m_primary>  (8) 
energy

>  <rmsd>  (8) 
5.73695022830843

>  <m_score__min__rmsd>  (8) 
5.73695022830843

>  <meeko>  (8) 
{"free_energy": -6.76, "intermolecular_energy": -9.45, "internal_energy": -3.53, "cluster_size": 32, "cluster_id": 1, "rank_in_cluster": 25}

>  <energy>  (8) 
-7.62

>  <cluster_rmsd>  (8) 
0.4

>  <cluster>  (8) 
1

$$$$

     RDKit          3D

 55 57  0  0  0  0  0  0  0  0999 V2000
  142.5710   80.3610  222.2260 C   0  0  0  0  0  0  0  0  0  0  0  0
  141.8590   80.1770  223.5710 C   0  0  0  0  0  0  0  0  0  0  0  0
  141.6870   78.6950  223.8330 C   0  0  0  0  0  0  0  0  0  0  0  0
  140.7370   78.1330  222.8250 C   0  0  0  0  0  0  0  0  0  0  0  0
  141.4460   77.1950  221.9750 N   0  0  0  0  0  0  0  0  0  0  0  0
  140.8350   75.9280  221.7690 C   0  0  0  0  0  0  0  0  0  0  0  0
  139.7290   75.7360  222.3460 O   0  0  0  0  0  0  0  0  0  0  0  0
  141.4360   74.8580  220.9240 C   0  0  2  0  0  0  0  0  0  0  0  0
  142.7460   75.2860  220.2930 C   0  0  0  0  0  0  0  0  0  0  0  0
  142.2600   76.1470  219.1490 C   0  0  2  0  0  0  0  0  0  0  0  0
  142.0990   77.4450  219.6190 O   0  0  0  0  0  0  0  0  0  0  0  0
  140.9780   75.5470  218.6720 C   0  0  0  0  0  0  0  0  0  0  0  0
  140.6150   74.6530  219.7480 N   0  0  0  0  0  0  0  0  0  0  0  0
  139.5810   73.6760  219.6970 C   0  0  0  0  0  0  0  0  0  0  0  0
  139.5170   72.7790  218.8140 O   0  0  0  0  0  0  0  0  0  0  0  0
  138.4970   73.6780  220.7180 C   0  0  0  0  0  0  0  0  0  0  0  0
  138.9640   73.1350  221.9640 N   0  0  0  0  0  0  0  0  0  0  0  0
  139.1630   71.7360  222.1020 C   0  0  0  0  0  0  0  0  0  0  0  0
  138.9370   70.9330  221.1360 O   0  0  0  0  0  0  0  0  0  0  0  0
  139.6430   71.2160  223.4010 C   0  0  0  0  0  0  0  0  0  0  0  0
  140.5600   71.9510  224.1270 C   0  0  0  0  0  0  0  0  0  0  0  0
  141.0500   71.5280  225.3430 C   0  0  0  0  0  0  0  0  0  0  0  0
  140.5860   70.3170  225.8260 C   0  0  0  0  0  0  0  0  0  0  0  0
  141.0760   69.8940  227.0390 C   0  0  0  0  0  0  0  0  0  0  0  0
  140.6160   68.6870  227.5240 C   0  0  0  0  0  0  0  0  0  0  0  0
  141.1990   68.0780  229.0780 Cl  0  0  0  0  0  0  0  0  0  0  0  0
  139.7020   67.9400  226.8150 C   0  0  0  0  0  0  0  0  0  0  0  0
  139.2260   68.3940  225.5890 C   0  0  0  0  0  0  0  0  0  0  0  0
  139.6720   69.6050  225.0790 C   0  0  0  0  0  0  0  0  0  0  0  0
  139.2160   70.0580  223.8880 N   0  0  0  0  0  0  0  0  0  0  0  0
  143.6223   80.6327  222.4018 H   0  0  0  0  0  0  0  0  0  0  0  0
  142.5255   79.4216  221.6555 H   0  0  0  0  0  0  0  0  0  0  0  0
  142.0761   81.1608  221.6555 H   0  0  0  0  0  0  0  0  0  0  0  0
  142.4623   80.6268  224.3733 H   0  0  0  0  0  0  0  0  0  0  0  0
  140.8753   80.6686  223.5437 H   0  0  0  0  0  0  0  0  0  0  0  0
  142.6599   78.1891  223.7459 H   0  0  0  0  0  0  0  0  0  0  0  0
  141.2903   78.5390  224.8470 H   0  0  0  0  0  0  0  0  0  0  0  0
  139.9163   77.6140  223.3418 H   0  0  0  0  0  0  0  0  0  0  0  0
  140.3223   78.9473  222.2127 H   0  0  0  0  0  0  0  0  0  0  0  0
  142.3600   77.4010  221.5180 H   0  0  0  0  0  0  0  0  0  0  0  0
  141.5428   73.9903  221.5916 H   0  0  0  0  0  0  0  0  0  0  0  0
  143.3620   75.8638  220.9977 H   0  0  0  0  0  0  0  0  0  0  0  0
  143.3902   74.4497  219.9838 H   0  0  0  0  0  0  0  0  0  0  0  0
  142.9679   76.1874  218.3080 H   0  0  0  0  0  0  0  0  0  0  0  0
  143.0170   77.8450  219.7420 H   0  0  0  0  0  0  0  0  0  0  0  0
  140.2101   76.3209  218.5254 H   0  0  0  0  0  0  0  0  0  0  0  0
  141.0729   75.0391  217.7009 H   0  0  0  0  0  0  0  0  0  0  0  0
  138.1574   74.7116  220.8805 H   0  0  0  0  0  0  0  0  0  0  0  0
  137.6685   73.0540  220.3517 H   0  0  0  0  0  0  0  0  0  0  0  0
  139.1710   73.7420  222.8050 H   0  0  0  0  0  0  0  0  0  0  0  0
  140.9121   72.9099  223.7189 H   0  0  0  0  0  0  0  0  0  0  0  0
  141.7797   72.1279  225.9066 H   0  0  0  0  0  0  0  0  0  0  0  0
  141.8064   70.4946  227.6010 H   0  0  0  0  0  0  0  0  0  0  0  0
  139.3468   66.9807  227.2195 H   0  0  0  0  0  0  0  0  0  0  0  0
  138.4971   67.7938  225.0247 H   0  0  0  0  0  0  0  0  0  0  0  0
  1  2  1  0
  2  3  1  0
  3  4  1  0
  4  5  1  0
  5  6  1  0
  6  7  2  0
  6  8  1  0
  8  9  1  0
  9 10  1  0
 10 11  1  0
 10 12  1  0
 12 13  1  0
 13 14  1  0
 14 15  2  0
 14 16  1  0
 16 17  1  0
 17 18  1  0
 18 19  2  0
 18 20  1  0
 20 21  2  0
 21 22  1  0
 22 23  2  0
 23 24  1  0
 24 25  2  0
 25 26  1  0
 25 27  1  0
 27 28  2  0
 28 29  1  0
 29 30  2  0
 13  8  1  0
 30 20  1  0
 29 23  1  0
  1 31  1  0
  1 32  1  0
  1 33  1  0
  2 34  1  0
  2 35  1  0
  3 36  1  0
  3 37  1  0
  4 38  1  0
  4 39  1  0
  5 40  1  0
  8 41  1  1
  9 42  1  0
  9 43  1  0
 10 44  1  6
 11 45  1  0
 12 46  1  0
 12 47  1  0
 16 48  1  0
 16 49  1  0
 17 50  1  0
 21 51  1  0
 22 52  1  0
 24 53  1  0
 27 54  1  0
 28 55  1  0
M  END
>  <smiles>  (9) 
CCCCNC(=O)[C@@H]1C[C@H](O)CN1C(=O)CNC(=O)c1ccc2cc(Cl)ccc2n1

>  <score_type>  (9) 
oracle

>  <origin>  (9) 
autodockgpu

>  <m_score__min__energy>  (9) 
-7.9199999999999999

>  <m_primary>  (9) 
energy

>  <rmsd>  (9) 
4.452456575788929

>  <m_score__min__rmsd>  (9) 
4.452456575788929

>  <meeko>  (9) 
{"free_energy": -7.84, "intermolecular_energy": -10.52, "internal_energy": -2.62, "cluster_size": 32, "cluster_id": 1, "rank_in_cluster": 2}

>  <energy>  (9) 
-7.53

>  <cluster_rmsd>  (9) 
1.88

>  <cluster>  (9) 
1

$$$$

     RDKit          3D

 55 57  0  0  0  0  0  0  0  0999 V2000
  139.3590   80.0940  223.2860 C   0  0  0  0  0  0  0  0  0  0  0  0
  140.6210   79.4330  223.8520 C   0  0  0  0  0  0  0  0  0  0  0  0
  141.7830   80.3940  223.7050 C   0  0  0  0  0  0  0  0  0  0  0  0
  142.7190   79.8680  222.6650 C   0  0  0  0  0  0  0  0  0  0  0  0
  142.1380   78.6840  222.0600 N   0  0  0  0  0  0  0  0  0  0  0  0
  141.8230   78.7610  220.6760 C   0  0  0  0  0  0  0  0  0  0  0  0
  142.0790   79.8550  220.1010 O   0  0  0  0  0  0  0  0  0  0  0  0
  141.2230   77.6320  219.9100 C   0  0  2  0  0  0  0  0  0  0  0  0
  140.7110   78.0630  218.5500 C   0  0  0  0  0  0  0  0  0  0  0  0
  139.4020   78.7250  218.9200 C   0  0  2  0  0  0  0  0  0  0  0  0
  139.6580   80.0600  219.2110 O   0  0  0  0  0  0  0  0  0  0  0  0
  138.8560   77.9760  220.0910 C   0  0  0  0  0  0  0  0  0  0  0  0
  139.9940   77.2130  220.5510 N   0  0  0  0  0  0  0  0  0  0  0  0
  139.9510   76.1670  221.5160 C   0  0  0  0  0  0  0  0  0  0  0  0
  140.3650   76.2970  222.6990 O   0  0  0  0  0  0  0  0  0  0  0  0
  139.3990   74.8340  221.1510 C   0  0  0  0  0  0  0  0  0  0  0  0
  139.5500   73.9000  222.2330 N   0  0  0  0  0  0  0  0  0  0  0  0
  139.6740   72.5110  221.9640 C   0  0  0  0  0  0  0  0  0  0  0  0
  139.6540   72.0600  220.7710 O   0  0  0  0  0  0  0  0  0  0  0  0
  139.8270   71.5830  223.1050 C   0  0  0  0  0  0  0  0  0  0  0  0
  139.4460   70.2620  222.9590 C   0  0  0  0  0  0  0  0  0  0  0  0
  139.5610   69.3440  223.9790 C   0  0  0  0  0  0  0  0  0  0  0  0
  140.0810   69.7920  225.1810 C   0  0  0  0  0  0  0  0  0  0  0  0
  140.1940   68.8740  226.1990 C   0  0  0  0  0  0  0  0  0  0  0  0
  140.7130   69.3180  227.3980 C   0  0  0  0  0  0  0  0  0  0  0  0
  140.8900   68.1970  228.7530 Cl  0  0  0  0  0  0  0  0  0  0  0  0
  141.0980   70.6300  227.5630 C   0  0  0  0  0  0  0  0  0  0  0  0
  140.9700   71.5350  226.5140 C   0  0  0  0  0  0  0  0  0  0  0  0
  140.4520   71.1140  225.2960 C   0  0  0  0  0  0  0  0  0  0  0  0
  140.3230   71.9850  224.2690 N   0  0  0  0  0  0  0  0  0  0  0  0
  138.7179   80.4298  224.1144 H   0  0  0  0  0  0  0  0  0  0  0  0
  139.6435   80.9589  222.6687 H   0  0  0  0  0  0  0  0  0  0  0  0
  138.8100   79.3677  222.6687 H   0  0  0  0  0  0  0  0  0  0  0  0
  140.4692   79.1963  224.9155 H   0  0  0  0  0  0  0  0  0  0  0  0
  140.8335   78.5029  223.3045 H   0  0  0  0  0  0  0  0  0  0  0  0
  141.4085   81.3819  223.3987 H   0  0  0  0  0  0  0  0  0  0  0  0
  142.3101   80.4905  224.6656 H   0  0  0  0  0  0  0  0  0  0  0  0
  142.8807   80.6348  221.8930 H   0  0  0  0  0  0  0  0  0  0  0  0
  143.6832   79.6126  223.1287 H   0  0  0  0  0  0  0  0  0  0  0  0
  141.9460   77.8000  222.5780 H   0  0  0  0  0  0  0  0  0  0  0  0
  142.0154   76.8714  219.8500 H   0  0  0  0  0  0  0  0  0  0  0  0
  141.3988   78.7731  218.0677 H   0  0  0  0  0  0  0  0  0  0  0  0
  140.6104   77.2409  217.8261 H   0  0  0  0  0  0  0  0  0  0  0  0
  138.6604   78.7020  218.1079 H   0  0  0  0  0  0  0  0  0  0  0  0
  139.9540   80.1150  220.1740 H   0  0  0  0  0  0  0  0  0  0  0  0
  138.5018   78.6661  220.8710 H   0  0  0  0  0  0  0  0  0  0  0  0
  137.9887   77.3488  219.8372 H   0  0  0  0  0  0  0  0  0  0  0  0
  138.3301   74.9400  220.9138 H   0  0  0  0  0  0  0  0  0  0  0  0
  139.9512   74.4528  220.2794 H   0  0  0  0  0  0  0  0  0  0  0  0
  139.5750   74.2050  223.2460 H   0  0  0  0  0  0  0  0  0  0  0  0
  139.0361   69.9323  221.9929 H   0  0  0  0  0  0  0  0  0  0  0  0
  139.2521   68.2969  223.8440 H   0  0  0  0  0  0  0  0  0  0  0  0
  139.8831   67.8277  226.0628 H   0  0  0  0  0  0  0  0  0  0  0  0
  141.5082   70.9636  228.5276 H   0  0  0  0  0  0  0  0  0  0  0  0
  141.2785   72.5822  226.6491 H   0  0  0  0  0  0  0  0  0  0  0  0
  1  2  1  0
  2  3  1  0
  3  4  1  0
  4  5  1  0
  5  6  1  0
  6  7  2  0
  6  8  1  0
  8  9  1  0
  9 10  1  0
 10 11  1  0
 10 12  1  0
 12 13  1  0
 13 14  1  0
 14 15  2  0
 14 16  1  0
 16 17  1  0
 17 18  1  0
 18 19  2  0
 18 20  1  0
 20 21  2  0
 21 22  1  0
 22 23  2  0
 23 24  1  0
 24 25  2  0
 25 26  1  0
 25 27  1  0
 27 28  2  0
 28 29  1  0
 29 30  2  0
 13  8  1  0
 30 20  1  0
 29 23  1  0
  1 31  1  0
  1 32  1  0
  1 33  1  0
  2 34  1  0
  2 35  1  0
  3 36  1  0
  3 37  1  0
  4 38  1  0
  4 39  1  0
  5 40  1  0
  8 41  1  6
  9 42  1  0
  9 43  1  0
 10 44  1  6
 11 45  1  0
 12 46  1  0
 12 47  1  0
 16 48  1  0
 16 49  1  0
 17 50  1  0
 21 51  1  0
 22 52  1  0
 24 53  1  0
 27 54  1  0
 28 55  1  0
M  END
>  <smiles>  (10) 
CCCCNC(=O)[C@@H]1C[C@H](O)CN1C(=O)CNC(=O)c1ccc2cc(Cl)ccc2n1

>  <score_type>  (10) 
oracle

>  <origin>  (10) 
autodockgpu

>  <m_score__min__energy>  (10) 
-7.9199999999999999

>  <m_primary>  (10) 
energy

>  <rmsd>  (10) 
5.690798258523898

>  <m_score__min__rmsd>  (10) 
5.690798258523898

>  <meeko>  (10) 
{"free_energy": -7.03, "intermolecular_energy": -9.71, "internal_energy": -3.6, "cluster_size": 32, "cluster_id": 1, "rank_in_cluster": 20}

>  <energy>  (10) 
-7.4

>  <cluster_rmsd>  (10) 
1.9

>  <cluster>  (10) 
1

$$$$

     RDKit          3D

 55 57  0  0  0  0  0  0  0  0999 V2000
  140.4090   68.1910  226.8530 C   0  0  0  0  0  0  0  0  0  0  0  0
  139.7760   69.5310  227.2450 C   0  0  0  0  0  0  0  0  0  0  0  0
  140.8780   70.5430  227.4760 C   0  0  0  0  0  0  0  0  0  0  0  0
  140.7920   71.6020  226.4250 C   0  0  0  0  0  0  0  0  0  0  0  0
  141.0010   70.9960  225.1230 N   0  0  0  0  0  0  0  0  0  0  0  0
  139.8860   70.9730  224.2410 C   0  0  0  0  0  0  0  0  0  0  0  0
  138.8160   71.4830  224.6740 O   0  0  0  0  0  0  0  0  0  0  0  0
  139.9390   70.3880  222.8720 C   0  0  2  0  0  0  0  0  0  0  0  0
  140.7650   71.2250  221.9160 C   0  0  0  0  0  0  0  0  0  0  0  0
  139.7980   72.3390  221.5820 C   0  0  2  0  0  0  0  0  0  0  0  0
  139.9440   73.3410  222.5350 O   0  0  0  0  0  0  0  0  0  0  0  0
  138.4310   71.7380  221.5850 C   0  0  0  0  0  0  0  0  0  0  0  0
  138.6290   70.4750  222.2590 N   0  0  0  0  0  0  0  0  0  0  0  0
  137.6770   69.4200  222.3320 C   0  0  0  0  0  0  0  0  0  0  0  0
  137.2200   68.8270  221.3180 O   0  0  0  0  0  0  0  0  0  0  0  0
  137.1660   68.9620  223.6530 C   0  0  0  0  0  0  0  0  0  0  0  0
  136.4120   70.0000  224.3010 N   0  0  0  0  0  0  0  0  0  0  0  0
  135.1760   69.6950  224.9300 C   0  0  0  0  0  0  0  0  0  0  0  0
  134.7070   68.5090  224.9370 O   0  0  0  0  0  0  0  0  0  0  0  0
  134.4290   70.7910  225.5860 C   0  0  0  0  0  0  0  0  0  0  0  0
  133.4170   70.4830  226.4740 C   0  0  0  0  0  0  0  0  0  0  0  0
  132.6810   71.4520  227.1200 C   0  0  0  0  0  0  0  0  0  0  0  0
  132.9930   72.7730  226.8470 C   0  0  0  0  0  0  0  0  0  0  0  0
  132.2570   73.7390  227.4910 C   0  0  0  0  0  0  0  0  0  0  0  0
  132.5660   75.0570  227.2210 C   0  0  0  0  0  0  0  0  0  0  0  0
  131.6640   76.3560  228.0110 Cl  0  0  0  0  0  0  0  0  0  0  0  0
  133.5710   75.3840  226.3380 C   0  0  0  0  0  0  0  0  0  0  0  0
  134.2970   74.3820  225.7010 C   0  0  0  0  0  0  0  0  0  0  0  0
  134.0070   73.0480  225.9550 C   0  0  0  0  0  0  0  0  0  0  0  0
  134.7060   72.0660  225.3420 N   0  0  0  0  0  0  0  0  0  0  0  0
  140.6737   67.6307  227.7618 H   0  0  0  0  0  0  0  0  0  0  0  0
  139.6917   67.6068  226.2579 H   0  0  0  0  0  0  0  0  0  0  0  0
  141.3159   68.3740  226.2579 H   0  0  0  0  0  0  0  0  0  0  0  0
  139.1178   69.8797  226.4355 H   0  0  0  0  0  0  0  0  0  0  0  0
  139.1824   69.4092  228.1630 H   0  0  0  0  0  0  0  0  0  0  0  0
  140.7581   70.9988  228.4699 H   0  0  0  0  0  0  0  0  0  0  0  0
  141.8576   70.0452  227.4237 H   0  0  0  0  0  0  0  0  0  0  0  0
  139.7985   72.0731  226.4570 H   0  0  0  0  0  0  0  0  0  0  0  0
  141.5613   72.3672  226.6057 H   0  0  0  0  0  0  0  0  0  0  0  0
  141.9080   70.5870  224.8100 H   0  0  0  0  0  0  0  0  0  0  0  0
  140.3380   69.3720  223.0084 H   0  0  0  0  0  0  0  0  0  0  0  0
  141.6727   71.6124  222.4018 H   0  0  0  0  0  0  0  0  0  0  0  0
  141.1347   70.6728  221.0394 H   0  0  0  0  0  0  0  0  0  0  0  0
  139.9835   72.7927  220.5972 H   0  0  0  0  0  0  0  0  0  0  0  0
  139.3350   73.1210  223.3090 H   0  0  0  0  0  0  0  0  0  0  0  0
  137.7219   72.3728  222.1365 H   0  0  0  0  0  0  0  0  0  0  0  0
  138.0053   71.6277  220.5768 H   0  0  0  0  0  0  0  0  0  0  0  0
  136.5177   68.0859  223.5040 H   0  0  0  0  0  0  0  0  0  0  0  0
  138.0242   68.7021  224.2901 H   0  0  0  0  0  0  0  0  0  0  0  0
  136.7420   71.0040  224.3330 H   0  0  0  0  0  0  0  0  0  0  0  0
  133.1903   69.4251  226.6728 H   0  0  0  0  0  0  0  0  0  0  0  0
  131.8783   71.1870  227.8239 H   0  0  0  0  0  0  0  0  0  0  0  0
  131.4537   73.4723  228.1936 H   0  0  0  0  0  0  0  0  0  0  0  0
  133.8006   76.4405  226.1356 H   0  0  0  0  0  0  0  0  0  0  0  0
  135.0998   74.6465  224.9970 H   0  0  0  0  0  0  0  0  0  0  0  0
  1  2  1  0
  2  3  1  0
  3  4  1  0
  4  5  1  0
  5  6  1  0
  6  7  2  0
  6  8  1  0
  8  9  1  0
  9 10  1  0
 10 11  1  0
 10 12  1  0
 12 13  1  0
 13 14  1  0
 14 15  2  0
 14 16  1  0
 16 17  1  0
 17 18  1  0
 18 19  2  0
 18 20  1  0
 20 21  2  0
 21 22  1  0
 22 23  2  0
 23 24  1  0
 24 25  2  0
 25 26  1  0
 25 27  1  0
 27 28  2  0
 28 29  1  0
 29 30  2  0
 13  8  1  0
 30 20  1  0
 29 23  1  0
  1 31  1  0
  1 32  1  0
  1 33  1  0
  2 34  1  0
  2 35  1  0
  3 36  1  0
  3 37  1  0
  4 38  1  0
  4 39  1  0
  5 40  1  0
  8 41  1  1
  9 42  1  0
  9 43  1  0
 10 44  1  6
 11 45  1  0
 12 46  1  0
 12 47  1  0
 16 48  1  0
 16 49  1  0
 17 50  1  0
 21 51  1  0
 22 52  1  0
 24 53  1  0
 27 54  1  0
 28 55  1  0
M  END
>  <smiles>  (11) 
CCCCNC(=O)[C@@H]1C[C@H](O)CN1C(=O)CNC(=O)c1ccc2cc(Cl)ccc2n1

>  <score_type>  (11) 
oracle

>  <origin>  (11) 
autodockgpu

>  <m_score__min__energy>  (11) 
-7.9199999999999999

>  <m_primary>  (11) 
energy

>  <rmsd>  (11) 
8.130825691239908

>  <m_score__min__rmsd>  (11) 
8.130825691239908

>  <meeko>  (11) 
{"free_energy": -6.78, "intermolecular_energy": -9.46, "internal_energy": -3.25, "cluster_size": 2, "cluster_id": 3, "rank_in_cluster": 1}

>  <energy>  (11) 
-7.35

>  <cluster_rmsd>  (11) 
1.74

>  <cluster>  (11) 
1

$$$$

     RDKit          3D

 55 57  0  0  0  0  0  0  0  0999 V2000
  143.4610   80.1440  223.1130 C   0  0  0  0  0  0  0  0  0  0  0  0
  142.1850   80.1080  223.9620 C   0  0  0  0  0  0  0  0  0  0  0  0
  141.2460   81.1930  223.4790 C   0  0  0  0  0  0  0  0  0  0  0  0
  139.9920   80.5580  222.9700 C   0  0  0  0  0  0  0  0  0  0  0  0
  140.3040   79.2350  222.4610 N   0  0  0  0  0  0  0  0  0  0  0  0
  141.0040   79.1730  221.2250 C   0  0  0  0  0  0  0  0  0  0  0  0
  141.2900   80.2770  220.6840 O   0  0  0  0  0  0  0  0  0  0  0  0
  141.3970   77.8930  220.5720 C   0  0  2  0  0  0  0  0  0  0  0  0
  141.7750   78.0790  219.1160 C   0  0  0  0  0  0  0  0  0  0  0  0
  140.4150   78.1850  218.4650 C   0  0  2  0  0  0  0  0  0  0  0  0
  140.0200   79.5170  218.4980 O   0  0  0  0  0  0  0  0  0  0  0  0
  139.4960   77.2940  219.2360 C   0  0  0  0  0  0  0  0  0  0  0  0
  140.2350   77.0360  220.4510 N   0  0  0  0  0  0  0  0  0  0  0  0
  139.8940   76.0650  221.4340 C   0  0  0  0  0  0  0  0  0  0  0  0
  139.9080   76.2970  222.6720 O   0  0  0  0  0  0  0  0  0  0  0  0
  139.4960   74.6910  221.0230 C   0  0  0  0  0  0  0  0  0  0  0  0
  139.5980   73.7740  222.1240 N   0  0  0  0  0  0  0  0  0  0  0  0
  139.7360   72.3810  221.8820 C   0  0  0  0  0  0  0  0  0  0  0  0
  139.7730   71.9120  220.6960 O   0  0  0  0  0  0  0  0  0  0  0  0
  139.8370   71.4700  223.0430 C   0  0  0  0  0  0  0  0  0  0  0  0
  139.3790   70.1720  222.9260 C   0  0  0  0  0  0  0  0  0  0  0  0
  139.4410   69.2700  223.9650 C   0  0  0  0  0  0  0  0  0  0  0  0
  139.9900   69.7120  225.1560 C   0  0  0  0  0  0  0  0  0  0  0  0
  140.0520   68.8110  226.1940 C   0  0  0  0  0  0  0  0  0  0  0  0
  140.5990   69.2500  227.3830 C   0  0  0  0  0  0  0  0  0  0  0  0
  140.7130   68.1490  228.7610 Cl  0  0  0  0  0  0  0  0  0  0  0  0
  141.0610   70.5390  227.5190 C   0  0  0  0  0  0  0  0  0  0  0  0
  140.9840   71.4280  226.4500 C   0  0  0  0  0  0  0  0  0  0  0  0
  140.4390   71.0130  225.2430 C   0  0  0  0  0  0  0  0  0  0  0  0
  140.3580   71.8670  224.1970 N   0  0  0  0  0  0  0  0  0  0  0  0
  144.3403   80.1688  223.7735 H   0  0  0  0  0  0  0  0  0  0  0  0
  143.5045   79.2467  222.4782 H   0  0  0  0  0  0  0  0  0  0  0  0
  143.4538   81.0423  222.4782 H   0  0  0  0  0  0  0  0  0  0  0  0
  141.6998   79.1263  223.8585 H   0  0  0  0  0  0  0  0  0  0  0  0
  142.4356   80.2747  225.0200 H   0  0  0  0  0  0  0  0  0  0  0  0
  141.0051   81.8702  224.3117 H   0  0  0  0  0  0  0  0  0  0  0  0
  141.7253   81.7688  222.6735 H   0  0  0  0  0  0  0  0  0  0  0  0
  139.2621   80.4753  223.7888 H   0  0  0  0  0  0  0  0  0  0  0  0
  139.5642   81.1740  222.1653 H   0  0  0  0  0  0  0  0  0  0  0  0
  140.0460   78.3500  222.9460 H   0  0  0  0  0  0  0  0  0  0  0  0
  142.2217   77.4986  221.1839 H   0  0  0  0  0  0  0  0  0  0  0  0
  142.3645   78.9957  218.9675 H   0  0  0  0  0  0  0  0  0  0  0  0
  142.4063   77.2752  218.7095 H   0  0  0  0  0  0  0  0  0  0  0  0
  140.4144   77.8680  217.4117 H   0  0  0  0  0  0  0  0  0  0  0  0
  139.6440   79.7050  219.4160 H   0  0  0  0  0  0  0  0  0  0  0  0
  138.5440   77.8007  219.4526 H   0  0  0  0  0  0  0  0  0  0  0  0
  139.2239   76.3776  218.6918 H   0  0  0  0  0  0  0  0  0  0  0  0
  138.4558   74.7096  220.6657 H   0  0  0  0  0  0  0  0  0  0  0  0
  140.1725   74.3548  220.2234 H   0  0  0  0  0  0  0  0  0  0  0  0
  139.5740   74.0930  223.1320 H   0  0  0  0  0  0  0  0  0  0  0  0
  138.9488   69.8467  221.9673 H   0  0  0  0  0  0  0  0  0  0  0  0
  139.0695   68.2407  223.8528 H   0  0  0  0  0  0  0  0  0  0  0  0
  139.6805   67.7818  226.0809 H   0  0  0  0  0  0  0  0  0  0  0  0
  141.4927   70.8683  228.4756 H   0  0  0  0  0  0  0  0  0  0  0  0
  141.3546   72.4576  226.5620 H   0  0  0  0  0  0  0  0  0  0  0  0
  1  2  1  0
  2  3  1  0
  3  4  1  0
  4  5  1  0
  5  6  1  0
  6  7  2  0
  6  8  1  0
  8  9  1  0
  9 10  1  0
 10 11  1  0
 10 12  1  0
 12 13  1  0
 13 14  1  0
 14 15  2  0
 14 16  1  0
 16 17  1  0
 17 18  1  0
 18 19  2  0
 18 20  1  0
 20 21  2  0
 21 22  1  0
 22 23  2  0
 23 24  1  0
 24 25  2  0
 25 26  1  0
 25 27  1  0
 27 28  2  0
 28 29  1  0
 29 30  2  0
 13  8  1  0
 30 20  1  0
 29 23  1  0
  1 31  1  0
  1 32  1  0
  1 33  1  0
  2 34  1  0
  2 35  1  0
  3 36  1  0
  3 37  1  0
  4 38  1  0
  4 39  1  0
  5 40  1  0
  8 41  1  1
  9 42  1  0
  9 43  1  0
 10 44  1  6
 11 45  1  0
 12 46  1  0
 12 47  1  0
 16 48  1  0
 16 49  1  0
 17 50  1  0
 21 51  1  0
 22 52  1  0
 24 53  1  0
 27 54  1  0
 28 55  1  0
M  END
>  <smiles>  (12) 
CCCCNC(=O)[C@@H]1C[C@H](O)CN1C(=O)CNC(=O)c1ccc2cc(Cl)ccc2n1

>  <score_type>  (12) 
oracle

>  <origin>  (12) 
autodockgpu

>  <m_score__min__energy>  (12) 
-7.9199999999999999

>  <m_primary>  (12) 
energy

>  <rmsd>  (12) 
5.780039390396364

>  <m_score__min__rmsd>  (12) 
5.780039390396364

>  <meeko>  (12) 
{"free_energy": -6.78, "intermolecular_energy": -9.46, "internal_energy": -3.27, "cluster_size": 32, "cluster_id": 1, "rank_in_cluster": 24}

>  <energy>  (12) 
-7.29

>  <cluster_rmsd>  (12) 
1.97

>  <cluster>  (12) 
1

$$$$

     RDKit          3D

 55 57  0  0  0  0  0  0  0  0999 V2000
  139.6890   68.3830  226.6150 C   0  0  0  0  0  0  0  0  0  0  0  0
  141.0480   69.0920  226.6080 C   0  0  0  0  0  0  0  0  0  0  0  0
  140.9250   70.3910  227.3770 C   0  0  0  0  0  0  0  0  0  0  0  0
  140.7860   71.5170  226.4040 C   0  0  0  0  0  0  0  0  0  0  0  0
  141.0500   71.0250  225.0660 N   0  0  0  0  0  0  0  0  0  0  0  0
  139.9610   71.0350  224.1520 C   0  0  0  0  0  0  0  0  0  0  0  0
  138.8620   71.4730  224.5920 O   0  0  0  0  0  0  0  0  0  0  0  0
  140.0710   70.5630  222.7430 C   0  0  2  0  0  0  0  0  0  0  0  0
  140.5990   71.6370  221.8130 C   0  0  0  0  0  0  0  0  0  0  0  0
  139.3650   72.4860  221.6060 C   0  0  2  0  0  0  0  0  0  0  0  0
  139.3160   73.4350  222.6210 O   0  0  0  0  0  0  0  0  0  0  0  0
  138.1940   71.5590  221.6300 C   0  0  0  0  0  0  0  0  0  0  0  0
  138.7440   70.3510  222.2000 N   0  0  0  0  0  0  0  0  0  0  0  0
  138.0930   69.0860  222.2420 C   0  0  0  0  0  0  0  0  0  0  0  0
  138.1360   68.2520  221.2970 O   0  0  0  0  0  0  0  0  0  0  0  0
  137.3080   68.6870  223.4410 C   0  0  0  0  0  0  0  0  0  0  0  0
  136.6430   69.8210  224.0220 N   0  0  0  0  0  0  0  0  0  0  0  0
  135.4070   69.6520  224.7020 C   0  0  0  0  0  0  0  0  0  0  0  0
  134.8610   68.5040  224.8140 O   0  0  0  0  0  0  0  0  0  0  0  0
  134.7540   70.8440  225.2850 C   0  0  0  0  0  0  0  0  0  0  0  0
  133.7550   70.6760  226.2250 C   0  0  0  0  0  0  0  0  0  0  0  0
  133.1040   71.7400  226.8090 C   0  0  0  0  0  0  0  0  0  0  0  0
  133.4890   73.0110  226.4170 C   0  0  0  0  0  0  0  0  0  0  0  0
  132.8380   74.0730  227.0000 C   0  0  0  0  0  0  0  0  0  0  0  0
  133.2190   75.3410  226.6120 C   0  0  0  0  0  0  0  0  0  0  0  0
  132.4280   76.7560  227.3170 Cl  0  0  0  0  0  0  0  0  0  0  0  0
  134.2110   75.5280  225.6760 C   0  0  0  0  0  0  0  0  0  0  0  0
  134.8510   74.4330  225.1040 C   0  0  0  0  0  0  0  0  0  0  0  0
  134.4870   73.1460  225.4770 C   0  0  0  0  0  0  0  0  0  0  0  0
  135.1020   72.0740  224.9280 N   0  0  0  0  0  0  0  0  0  0  0  0
  139.3681   68.2156  227.6538 H   0  0  0  0  0  0  0  0  0  0  0  0
  138.9464   69.0086  226.0981 H   0  0  0  0  0  0  0  0  0  0  0  0
  139.7772   67.4160  226.0981 H   0  0  0  0  0  0  0  0  0  0  0  0
  141.8025   68.4497  227.0856 H   0  0  0  0  0  0  0  0  0  0  0  0
  141.3564   69.2985  225.5725 H   0  0  0  0  0  0  0  0  0  0  0  0
  140.0385   70.3529  228.0271 H   0  0  0  0  0  0  0  0  0  0  0  0
  141.8199   70.5430  227.9983 H   0  0  0  0  0  0  0  0  0  0  0  0
  139.7642   71.9214  226.4525 H   0  0  0  0  0  0  0  0  0  0  0  0
  141.5034   72.3126  226.6539 H   0  0  0  0  0  0  0  0  0  0  0  0
  141.9790   70.6730  224.7480 H   0  0  0  0  0  0  0  0  0  0  0  0
  140.7186   69.6749  222.7861 H   0  0  0  0  0  0  0  0  0  0  0  0
  141.4095   72.2133  222.2831 H   0  0  0  0  0  0  0  0  0  0  0  0
  141.0391   71.2492  220.8825 H   0  0  0  0  0  0  0  0  0  0  0  0
  139.3684   73.0277  220.6486 H   0  0  0  0  0  0  0  0  0  0  0  0
  138.8340   73.0220  223.4060 H   0  0  0  0  0  0  0  0  0  0  0  0
  137.3857   71.9600  222.2592 H   0  0  0  0  0  0  0  0  0  0  0  0
  137.7452   71.4035  220.6378 H   0  0  0  0  0  0  0  0  0  0  0  0
  136.5555   67.9408  223.1463 H   0  0  0  0  0  0  0  0  0  0  0  0
  137.9976   68.2650  224.1869 H   0  0  0  0  0  0  0  0  0  0  0  0
  137.0390   70.8000  223.9660 H   0  0  0  0  0  0  0  0  0  0  0  0
  133.4692   69.6549  226.5176 H   0  0  0  0  0  0  0  0  0  0  0  0
  132.3111   71.5865  227.5558 H   0  0  0  0  0  0  0  0  0  0  0  0
  132.0449   73.9176  227.7462 H   0  0  0  0  0  0  0  0  0  0  0  0
  134.4988   76.5473  225.3791 H   0  0  0  0  0  0  0  0  0  0  0  0
  135.6441   74.5866  224.3574 H   0  0  0  0  0  0  0  0  0  0  0  0
  1  2  1  0
  2  3  1  0
  3  4  1  0
  4  5  1  0
  5  6  1  0
  6  7  2  0
  6  8  1  0
  8  9  1  0
  9 10  1  0
 10 11  1  0
 10 12  1  0
 12 13  1  0
 13 14  1  0
 14 15  2  0
 14 16  1  0
 16 17  1  0
 17 18  1  0
 18 19  2  0
 18 20  1  0
 20 21  2  0
 21 22  1  0
 22 23  2  0
 23 24  1  0
 24 25  2  0
 25 26  1  0
 25 27  1  0
 27 28  2  0
 28 29  1  0
 29 30  2  0
 13  8  1  0
 30 20  1  0
 29 23  1  0
  1 31  1  0
  1 32  1  0
  1 33  1  0
  2 34  1  0
  2 35  1  0
  3 36  1  0
  3 37  1  0
  4 38  1  0
  4 39  1  0
  5 40  1  0
  8 41  1  1
  9 42  1  0
  9 43  1  0
 10 44  1  6
 11 45  1  0
 12 46  1  0
 12 47  1  0
 16 48  1  0
 16 49  1  0
 17 50  1  0
 21 51  1  0
 22 52  1  0
 24 53  1  0
 27 54  1  0
 28 55  1  0
M  END
>  <smiles>  (13) 
CCCCNC(=O)[C@@H]1C[C@H](O)CN1C(=O)CNC(=O)c1ccc2cc(Cl)ccc2n1

>  <score_type>  (13) 
oracle

>  <origin>  (13) 
autodockgpu

>  <m_score__min__energy>  (13) 
-7.9199999999999999

>  <m_primary>  (13) 
energy

>  <rmsd>  (13) 
7.945213578194699

>  <m_score__min__rmsd>  (13) 
7.945213578194699

>  <meeko>  (13) 
{"free_energy": -6.27, "intermolecular_energy": -8.95, "internal_energy": -3.47, "cluster_size": 2, "cluster_id": 3, "rank_in_cluster": 2}

>  <energy>  (13) 
-7.27

>  <cluster_rmsd>  (13) 
0.36

>  <cluster>  (13) 
1

$$$$

     RDKit          3D

 55 57  0  0  0  0  0  0  0  0999 V2000
  142.1420   81.2530  223.5050 C   0  0  0  0  0  0  0  0  0  0  0  0
  142.5240   79.8640  222.9790 C   0  0  0  0  0  0  0  0  0  0  0  0
  141.8520   78.8160  223.8410 C   0  0  0  0  0  0  0  0  0  0  0  0
  140.7770   78.1500  223.0420 C   0  0  0  0  0  0  0  0  0  0  0  0
  141.3840   77.2070  222.1220 N   0  0  0  0  0  0  0  0  0  0  0  0
  140.7110   75.9680  221.9380 C   0  0  0  0  0  0  0  0  0  0  0  0
  139.6450   75.8040  222.5940 O   0  0  0  0  0  0  0  0  0  0  0  0
  141.2050   74.8970  221.0280 C   0  0  2  0  0  0  0  0  0  0  0  0
  142.5680   75.2150  220.4460 C   0  0  0  0  0  0  0  0  0  0  0  0
  142.2060   76.2010  219.3580 C   0  0  2  0  0  0  0  0  0  0  0  0
  142.1820   77.4750  219.9160 O   0  0  0  0  0  0  0  0  0  0  0  0
  140.8740   75.7840  218.8240 C   0  0  0  0  0  0  0  0  0  0  0  0
  140.3910   74.8670  219.8300 N   0  0  0  0  0  0  0  0  0  0  0  0
  139.2550   74.0200  219.6970 C   0  0  0  0  0  0  0  0  0  0  0  0
  139.0820   73.2380  218.7240 O   0  0  0  0  0  0  0  0  0  0  0  0
  138.1900   74.0260  220.7380 C   0  0  0  0  0  0  0  0  0  0  0  0
  138.5780   73.2420  221.8770 N   0  0  0  0  0  0  0  0  0  0  0  0
  138.4360   71.8290  221.8510 C   0  0  0  0  0  0  0  0  0  0  0  0
  137.9660   71.2260  220.8300 O   0  0  0  0  0  0  0  0  0  0  0  0
  138.8470   71.0560  223.0440 C   0  0  0  0  0  0  0  0  0  0  0  0
  138.4990   69.7220  223.1390 C   0  0  0  0  0  0  0  0  0  0  0  0
  138.8470   68.9440  224.2210 C   0  0  0  0  0  0  0  0  0  0  0  0
  139.5730   69.5500  225.2310 C   0  0  0  0  0  0  0  0  0  0  0  0
  139.9200   68.7720  226.3110 C   0  0  0  0  0  0  0  0  0  0  0  0
  140.6430   69.3740  227.3200 C   0  0  0  0  0  0  0  0  0  0  0  0
  141.1270   68.4390  228.7400 Cl  0  0  0  0  0  0  0  0  0  0  0  0
  140.9990   70.7020  227.2440 C   0  0  0  0  0  0  0  0  0  0  0  0
  140.6320   71.4630  226.1380 C   0  0  0  0  0  0  0  0  0  0  0  0
  139.9040   70.8830  225.1080 C   0  0  0  0  0  0  0  0  0  0  0  0
  139.5420   71.6120  224.0280 N   0  0  0  0  0  0  0  0  0  0  0  0
  142.1450   81.2421  224.6049 H   0  0  0  0  0  0  0  0  0  0  0  0
  142.8695   81.9947  223.1437 H   0  0  0  0  0  0  0  0  0  0  0  0
  141.1375   81.5184  223.1437 H   0  0  0  0  0  0  0  0  0  0  0  0
  142.1875   79.7575  221.9372 H   0  0  0  0  0  0  0  0  0  0  0  0
  143.6159   79.7363  223.0171 H   0  0  0  0  0  0  0  0  0  0  0  0
  142.5934   78.0681  224.1587 H   0  0  0  0  0  0  0  0  0  0  0  0
  141.4152   79.2899  224.7324 H   0  0  0  0  0  0  0  0  0  0  0  0
  140.0927   77.6164  223.7180 H   0  0  0  0  0  0  0  0  0  0  0  0
  140.2122   78.9067  222.4778 H   0  0  0  0  0  0  0  0  0  0  0  0
  142.2680   77.3900  221.6010 H   0  0  0  0  0  0  0  0  0  0  0  0
  141.1992   73.9793  221.6345 H   0  0  0  0  0  0  0  0  0  0  0  0
  143.2299   75.6702  221.1974 H   0  0  0  0  0  0  0  0  0  0  0  0
  143.1206   74.3337  220.0882 H   0  0  0  0  0  0  0  0  0  0  0  0
  142.9311   76.2174  218.5310 H   0  0  0  0  0  0  0  0  0  0  0  0
  141.2470   77.8390  219.8130 H   0  0  0  0  0  0  0  0  0  0  0  0
  140.2013   76.6483  218.7217 H   0  0  0  0  0  0  0  0  0  0  0  0
  140.9310   75.3354  217.8213 H   0  0  0  0  0  0  0  0  0  0  0  0
  138.0076   75.0619  221.0598 H   0  0  0  0  0  0  0  0  0  0  0  0
  137.2769   73.5894  220.3072 H   0  0  0  0  0  0  0  0  0  0  0  0
  138.9750   73.6760  222.7560 H   0  0  0  0  0  0  0  0  0  0  0  0
  137.9231   69.2649  222.3208 H   0  0  0  0  0  0  0  0  0  0  0  0
  138.5594   67.8839  224.2798 H   0  0  0  0  0  0  0  0  0  0  0  0
  139.6324   67.7118  226.3679 H   0  0  0  0  0  0  0  0  0  0  0  0
  141.5752   71.1628  228.0599 H   0  0  0  0  0  0  0  0  0  0  0  0
  140.9186   72.5234  226.0800 H   0  0  0  0  0  0  0  0  0  0  0  0
  1  2  1  0
  2  3  1  0
  3  4  1  0
  4  5  1  0
  5  6  1  0
  6  7  2  0
  6  8  1  0
  8  9  1  0
  9 10  1  0
 10 11  1  0
 10 12  1  0
 12 13  1  0
 13 14  1  0
 14 15  2  0
 14 16  1  0
 16 17  1  0
 17 18  1  0
 18 19  2  0
 18 20  1  0
 20 21  2  0
 21 22  1  0
 22 23  2  0
 23 24  1  0
 24 25  2  0
 25 26  1  0
 25 27  1  0
 27 28  2  0
 28 29  1  0
 29 30  2  0
 13  8  1  0
 30 20  1  0
 29 23  1  0
  1 31  1  0
  1 32  1  0
  1 33  1  0
  2 34  1  0
  2 35  1  0
  3 36  1  0
  3 37  1  0
  4 38  1  0
  4 39  1  0
  5 40  1  0
  8 41  1  1
  9 42  1  0
  9 43  1  0
 10 44  1  6
 11 45  1  0
 12 46  1  0
 12 47  1  0
 16 48  1  0
 16 49  1  0
 17 50  1  0
 21 51  1  0
 22 52  1  0
 24 53  1  0
 27 54  1  0
 28 55  1  0
M  END
>  <smiles>  (14) 
CCCCNC(=O)[C@@H]1C[C@H](O)CN1C(=O)CNC(=O)c1ccc2cc(Cl)ccc2n1

>  <score_type>  (14) 
oracle

>  <origin>  (14) 
autodockgpu

>  <m_score__min__energy>  (14) 
-7.9199999999999999

>  <m_primary>  (14) 
energy

>  <rmsd>  (14) 
4.907978539027017

>  <m_score__min__rmsd>  (14) 
4.907978539027017

>  <meeko>  (14) 
{"free_energy": -7.27, "intermolecular_energy": -9.95, "internal_energy": -2.74, "cluster_size": 32, "cluster_id": 1, "rank_in_cluster": 13}

>  <energy>  (14) 
-7.13

>  <cluster_rmsd>  (14) 
1.74

>  <cluster>  (14) 
1

$$$$

     RDKit          3D

 55 57  0  0  0  0  0  0  0  0999 V2000
  139.6640   80.2580  223.2430 C   0  0  0  0  0  0  0  0  0  0  0  0
  140.7220   79.3370  223.8620 C   0  0  0  0  0  0  0  0  0  0  0  0
  142.0590   80.0490  223.8450 C   0  0  0  0  0  0  0  0  0  0  0  0
  142.6880   79.8660  222.5020 C   0  0  0  0  0  0  0  0  0  0  0  0
  142.1540   78.6640  221.8880 N   0  0  0  0  0  0  0  0  0  0  0  0
  141.7250   78.7720  220.5370 C   0  0  0  0  0  0  0  0  0  0  0  0
  141.8480   79.9060  219.9960 O   0  0  0  0  0  0  0  0  0  0  0  0
  141.1550   77.6300  219.7660 C   0  0  2  0  0  0  0  0  0  0  0  0
  140.5500   78.0670  218.4480 C   0  0  0  0  0  0  0  0  0  0  0  0
  139.2250   78.6370  218.9010 C   0  0  2  0  0  0  0  0  0  0  0  0
  139.4140   79.9770  219.2210 O   0  0  0  0  0  0  0  0  0  0  0  0
  138.7840   77.8240  220.0750 C   0  0  0  0  0  0  0  0  0  0  0  0
  139.9870   77.1190  220.4540 N   0  0  0  0  0  0  0  0  0  0  0  0
  140.0560   76.0460  221.3870 C   0  0  0  0  0  0  0  0  0  0  0  0
  140.7360   76.0910  222.4470 O   0  0  0  0  0  0  0  0  0  0  0  0
  139.3030   74.7870  221.1370 C   0  0  0  0  0  0  0  0  0  0  0  0
  139.4790   73.8580  222.2190 N   0  0  0  0  0  0  0  0  0  0  0  0
  139.5370   72.4630  221.9600 C   0  0  0  0  0  0  0  0  0  0  0  0
  139.4350   72.0020  220.7740 O   0  0  0  0  0  0  0  0  0  0  0  0
  139.7180   71.5400  223.1010 C   0  0  0  0  0  0  0  0  0  0  0  0
  139.3730   70.2090  222.9570 C   0  0  0  0  0  0  0  0  0  0  0  0
  139.5150   69.2950  223.9770 C   0  0  0  0  0  0  0  0  0  0  0  0
  140.0250   69.7580  225.1770 C   0  0  0  0  0  0  0  0  0  0  0  0
  140.1650   68.8440  226.1950 C   0  0  0  0  0  0  0  0  0  0  0  0
  140.6740   69.3030  227.3940 C   0  0  0  0  0  0  0  0  0  0  0  0
  140.8840   68.1880  228.7490 Cl  0  0  0  0  0  0  0  0  0  0  0  0
  141.0220   70.6250  227.5570 C   0  0  0  0  0  0  0  0  0  0  0  0
  140.8680   71.5260  226.5080 C   0  0  0  0  0  0  0  0  0  0  0  0
  140.3590   71.0900  225.2910 C   0  0  0  0  0  0  0  0  0  0  0  0
  140.2040   71.9560  224.2640 N   0  0  0  0  0  0  0  0  0  0  0  0
  139.0952   80.7532  224.0438 H   0  0  0  0  0  0  0  0  0  0  0  0
  140.1586   81.0182  222.6206 H   0  0  0  0  0  0  0  0  0  0  0  0
  138.9792   79.6634  222.6206 H   0  0  0  0  0  0  0  0  0  0  0  0
  140.4433   79.0984  224.8990 H   0  0  0  0  0  0  0  0  0  0  0  0
  140.7885   78.4031  223.2846 H   0  0  0  0  0  0  0  0  0  0  0  0
  141.9088   81.1212  224.0393 H   0  0  0  0  0  0  0  0  0  0  0  0
  142.7140   79.6305  224.6234 H   0  0  0  0  0  0  0  0  0  0  0  0
  142.4617   80.7356  221.8675 H   0  0  0  0  0  0  0  0  0  0  0  0
  143.7784   79.7729  222.6127 H   0  0  0  0  0  0  0  0  0  0  0  0
  142.0740   77.7470  222.3770 H   0  0  0  0  0  0  0  0  0  0  0  0
  141.9870   76.9210  219.6430 H   0  0  0  0  0  0  0  0  0  0  0  0
  141.1690   78.8311  217.9551 H   0  0  0  0  0  0  0  0  0  0  0  0
  140.4617   77.2607  217.7050 H   0  0  0  0  0  0  0  0  0  0  0  0
  138.4472   78.5908  218.1245 H   0  0  0  0  0  0  0  0  0  0  0  0
  140.3980   80.1790  219.1290 H   0  0  0  0  0  0  0  0  0  0  0  0
  138.4303   78.4697  220.8923 H   0  0  0  0  0  0  0  0  0  0  0  0
  137.9430   77.1531  219.8457 H   0  0  0  0  0  0  0  0  0  0  0  0
  138.2332   75.0219  221.0351 H   0  0  0  0  0  0  0  0  0  0  0  0
  139.6862   74.3269  220.2143 H   0  0  0  0  0  0  0  0  0  0  0  0
  139.5700   74.1710  223.2260 H   0  0  0  0  0  0  0  0  0  0  0  0
  138.9702   69.8676  221.9920 H   0  0  0  0  0  0  0  0  0  0  0  0
  139.2344   68.2398  223.8433 H   0  0  0  0  0  0  0  0  0  0  0  0
  139.8828   67.7895  226.0597 H   0  0  0  0  0  0  0  0  0  0  0  0
  141.4237   70.9705  228.5210 H   0  0  0  0  0  0  0  0  0  0  0  0
  141.1486   72.5811  226.6419 H   0  0  0  0  0  0  0  0  0  0  0  0
  1  2  1  0
  2  3  1  0
  3  4  1  0
  4  5  1  0
  5  6  1  0
  6  7  2  0
  6  8  1  0
  8  9  1  0
  9 10  1  0
 10 11  1  0
 10 12  1  0
 12 13  1  0
 13 14  1  0
 14 15  2  0
 14 16  1  0
 16 17  1  0
 17 18  1  0
 18 19  2  0
 18 20  1  0
 20 21  2  0
 21 22  1  0
 22 23  2  0
 23 24  1  0
 24 25  2  0
 25 26  1  0
 25 27  1  0
 27 28  2  0
 28 29  1  0
 29 30  2  0
 13  8  1  0
 30 20  1  0
 29 23  1  0
  1 31  1  0
  1 32  1  0
  1 33  1  0
  2 34  1  0
  2 35  1  0
  3 36  1  0
  3 37  1  0
  4 38  1  0
  4 39  1  0
  5 40  1  0
  8 41  1  6
  9 42  1  0
  9 43  1  0
 10 44  1  6
 11 45  1  0
 12 46  1  0
 12 47  1  0
 16 48  1  0
 16 49  1  0
 17 50  1  0
 21 51  1  0
 22 52  1  0
 24 53  1  0
 27 54  1  0
 28 55  1  0
M  END
>  <smiles>  (15) 
CCCCNC(=O)[C@@H]1C[C@H](O)CN1C(=O)CNC(=O)c1ccc2cc(Cl)ccc2n1

>  <score_type>  (15) 
oracle

>  <origin>  (15) 
autodockgpu

>  <m_score__min__energy>  (15) 
-7.9199999999999999

>  <m_primary>  (15) 
energy

>  <rmsd>  (15) 
5.679603784791694

>  <m_score__min__rmsd>  (15) 
5.679603784791694

>  <meeko>  (15) 
{"free_energy": -7.05, "intermolecular_energy": -9.74, "internal_energy": -3.54, "cluster_size": 32, "cluster_id": 1, "rank_in_cluster": 19}

>  <energy>  (15) 
-7.11

>  <cluster_rmsd>  (15) 
1.85

>  <cluster>  (15) 
1

$$$$

     RDKit          3D

 55 57  0  0  0  0  0  0  0  0999 V2000
  139.5810   77.0120  218.9720 C   0  0  0  0  0  0  0  0  0  0  0  0
  140.9770   76.6680  218.4390 C   0  0  0  0  0  0  0  0  0  0  0  0
  141.5360   77.8780  217.7190 C   0  0  0  0  0  0  0  0  0  0  0  0
  142.5680   78.5240  218.5870 C   0  0  0  0  0  0  0  0  0  0  0  0
  141.9560   79.6180  219.3180 N   0  0  0  0  0  0  0  0  0  0  0  0
  141.6100   79.3670  220.6740 C   0  0  0  0  0  0  0  0  0  0  0  0
  141.8680   78.2130  221.1160 O   0  0  0  0  0  0  0  0  0  0  0  0
  140.9770   80.3850  221.5580 C   0  0  2  0  0  0  0  0  0  0  0  0
  141.9980   81.2030  222.3230 C   0  0  0  0  0  0  0  0  0  0  0  0
  142.3830   80.2440  223.4270 C   0  0  2  0  0  0  0  0  0  0  0  0
  143.4200   79.4420  222.9630 O   0  0  0  0  0  0  0  0  0  0  0  0
  141.1570   79.4590  223.7630 C   0  0  0  0  0  0  0  0  0  0  0  0
  140.2840   79.7200  222.6420 N   0  0  0  0  0  0  0  0  0  0  0  0
  138.9030   79.3790  222.5740 C   0  0  0  0  0  0  0  0  0  0  0  0
  137.9900   80.2220  222.3650 O   0  0  0  0  0  0  0  0  0  0  0  0
  138.4710   77.9660  222.7560 C   0  0  0  0  0  0  0  0  0  0  0  0
  139.4820   77.0550  222.2930 N   0  0  0  0  0  0  0  0  0  0  0  0
  139.1940   75.6690  222.1800 C   0  0  0  0  0  0  0  0  0  0  0  0
  138.0450   75.2010  222.4810 O   0  0  0  0  0  0  0  0  0  0  0  0
  140.2600   74.7630  221.7010 C   0  0  0  0  0  0  0  0  0  0  0  0
  140.0460   73.3980  221.7140 C   0  0  0  0  0  0  0  0  0  0  0  0
  140.9950   72.4980  221.2830 C   0  0  0  0  0  0  0  0  0  0  0  0
  142.1960   73.0120  220.8260 C   0  0  0  0  0  0  0  0  0  0  0  0
  143.1430   72.1120  220.3960 C   0  0  0  0  0  0  0  0  0  0  0  0
  144.3410   72.6210  219.9400 C   0  0  0  0  0  0  0  0  0  0  0  0
  145.6070   71.5270  219.3700 Cl  0  0  0  0  0  0  0  0  0  0  0  0
  144.5740   73.9780  219.9190 C   0  0  0  0  0  0  0  0  0  0  0  0
  143.5950   74.8640  220.3610 C   0  0  0  0  0  0  0  0  0  0  0  0
  142.3800   74.3780  220.8250 C   0  0  0  0  0  0  0  0  0  0  0  0
  141.4220   75.2280  221.2570 N   0  0  0  0  0  0  0  0  0  0  0  0
  139.5972   77.0080  220.0719 H   0  0  0  0  0  0  0  0  0  0  0  0
  139.2871   78.0094  218.6132 H   0  0  0  0  0  0  0  0  0  0  0  0
  138.8573   76.2653  218.6132 H   0  0  0  0  0  0  0  0  0  0  0  0
  141.6368   76.3989  219.2770 H   0  0  0  0  0  0  0  0  0  0  0  0
  140.9131   75.8166  217.7454 H   0  0  0  0  0  0  0  0  0  0  0  0
  141.9957   77.5635  216.7704 H   0  0  0  0  0  0  0  0  0  0  0  0
  140.7269   78.5924  217.5072 H   0  0  0  0  0  0  0  0  0  0  0  0
  142.9676   77.7847  219.2967 H   0  0  0  0  0  0  0  0  0  0  0  0
  143.3889   78.9081  217.9637 H   0  0  0  0  0  0  0  0  0  0  0  0
  141.7640   80.5570  218.9080 H   0  0  0  0  0  0  0  0  0  0  0  0
  140.3499   80.9946  220.8909 H   0  0  0  0  0  0  0  0  0  0  0  0
  142.8625   81.4587  221.6927 H   0  0  0  0  0  0  0  0  0  0  0  0
  141.6204   82.1722  222.6809 H   0  0  0  0  0  0  0  0  0  0  0  0
  142.7399   80.7509  224.3357 H   0  0  0  0  0  0  0  0  0  0  0  0
  143.0120   78.6060  222.5710 H   0  0  0  0  0  0  0  0  0  0  0  0
  141.3851   78.3860  223.8446 H   0  0  0  0  0  0  0  0  0  0  0  0
  140.7149   79.7401  224.7302 H   0  0  0  0  0  0  0  0  0  0  0  0
  138.2827   77.7820  223.8240 H   0  0  0  0  0  0  0  0  0  0  0  0
  137.5551   77.8010  222.1695 H   0  0  0  0  0  0  0  0  0  0  0  0
  140.4540   77.3740  222.0270 H   0  0  0  0  0  0  0  0  0  0  0  0
  139.0823   73.0162  222.0821 H   0  0  0  0  0  0  0  0  0  0  0  0
  140.8061   71.4145  221.3012 H   0  0  0  0  0  0  0  0  0  0  0  0
  142.9524   71.0288  220.4150 H   0  0  0  0  0  0  0  0  0  0  0  0
  145.5367   74.3633  219.5519 H   0  0  0  0  0  0  0  0  0  0  0  0
  143.7839   75.9475  220.3426 H   0  0  0  0  0  0  0  0  0  0  0  0
  1  2  1  0
  2  3  1  0
  3  4  1  0
  4  5  1  0
  5  6  1  0
  6  7  2  0
  6  8  1  0
  8  9  1  0
  9 10  1  0
 10 11  1  0
 10 12  1  0
 12 13  1  0
 13 14  1  0
 14 15  2  0
 14 16  1  0
 16 17  1  0
 17 18  1  0
 18 19  2  0
 18 20  1  0
 20 21  2  0
 21 22  1  0
 22 23  2  0
 23 24  1  0
 24 25  2  0
 25 26  1  0
 25 27  1  0
 27 28  2  0
 28 29  1  0
 29 30  2  0
 13  8  1  0
 30 20  1  0
 29 23  1  0
  1 31  1  0
  1 32  1  0
  1 33  1  0
  2 34  1  0
  2 35  1  0
  3 36  1  0
  3 37  1  0
  4 38  1  0
  4 39  1  0
  5 40  1  0
  8 41  1  6
  9 42  1  0
  9 43  1  0
 10 44  1  1
 11 45  1  0
 12 46  1  0
 12 47  1  0
 16 48  1  0
 16 49  1  0
 17 50  1  0
 21 51  1  0
 22 52  1  0
 24 53  1  0
 27 54  1  0
 28 55  1  0
M  END
>  <smiles>  (16) 
CCCCNC(=O)[C@@H]1C[C@H](O)CN1C(=O)CNC(=O)c1ccc2cc(Cl)ccc2n1

>  <score_type>  (16) 
oracle

>  <origin>  (16) 
autodockgpu

>  <m_score__min__energy>  (16) 
-7.9199999999999999

>  <m_primary>  (16) 
energy

>  <rmsd>  (16) 
6.435807707863878

>  <m_score__min__rmsd>  (16) 
6.435807707863878

>  <meeko>  (16) 
{"free_energy": -4.98, "intermolecular_energy": -7.67, "internal_energy": -4.24, "cluster_size": 2, "cluster_id": 7, "rank_in_cluster": 2}

>  <energy>  (16) 
-7.11

>  <cluster_rmsd>  (16) 
1.66

>  <cluster>  (16) 
1

$$$$

     RDKit          3D

 55 57  0  0  0  0  0  0  0  0999 V2000
  140.8760   71.2540  219.7370 C   0  0  0  0  0  0  0  0  0  0  0  0
  141.7580   72.4800  219.4730 C   0  0  0  0  0  0  0  0  0  0  0  0
  142.5500   72.7910  220.7260 C   0  0  0  0  0  0  0  0  0  0  0  0
  143.1870   74.1350  220.5750 C   0  0  0  0  0  0  0  0  0  0  0  0
  142.1980   75.0770  220.0860 N   0  0  0  0  0  0  0  0  0  0  0  0
  141.1020   75.3600  220.9460 C   0  0  0  0  0  0  0  0  0  0  0  0
  141.0920   74.7640  222.0580 O   0  0  0  0  0  0  0  0  0  0  0  0
  140.0060   76.3050  220.5900 C   0  0  2  0  0  0  0  0  0  0  0  0
  140.3900   77.7520  220.8250 C   0  0  0  0  0  0  0  0  0  0  0  0
  140.2250   77.8650  222.3240 C   0  0  2  0  0  0  0  0  0  0  0  0
  141.4210   77.4840  222.9230 O   0  0  0  0  0  0  0  0  0  0  0  0
  139.0860   76.9760  222.7010 C   0  0  0  0  0  0  0  0  0  0  0  0
  138.9130   76.1500  221.5270 N   0  0  0  0  0  0  0  0  0  0  0  0
  137.8140   75.2790  221.2860 C   0  0  0  0  0  0  0  0  0  0  0  0
  136.6100   75.6310  221.4050 O   0  0  0  0  0  0  0  0  0  0  0  0
  138.0530   73.8690  220.8710 C   0  0  0  0  0  0  0  0  0  0  0  0
  138.4830   73.0710  221.9860 N   0  0  0  0  0  0  0  0  0  0  0  0
  138.2860   71.6640  221.9730 C   0  0  0  0  0  0  0  0  0  0  0  0
  137.7300   71.0790  220.9850 O   0  0  0  0  0  0  0  0  0  0  0  0
  138.7430   70.8770  223.1390 C   0  0  0  0  0  0  0  0  0  0  0  0
  138.4130   69.5380  223.2230 C   0  0  0  0  0  0  0  0  0  0  0  0
  138.8030   68.7460  224.2800 C   0  0  0  0  0  0  0  0  0  0  0  0
  139.5530   69.3440  225.2770 C   0  0  0  0  0  0  0  0  0  0  0  0
  139.9420   68.5520  226.3320 C   0  0  0  0  0  0  0  0  0  0  0  0
  140.6900   69.1460  227.3290 C   0  0  0  0  0  0  0  0  0  0  0  0
  141.2270   68.1930  228.7170 Cl  0  0  0  0  0  0  0  0  0  0  0  0
  141.0280   70.4790  227.2630 C   0  0  0  0  0  0  0  0  0  0  0  0
  140.6190   71.2540  226.1830 C   0  0  0  0  0  0  0  0  0  0  0  0
  139.8660   70.6820  225.1660 C   0  0  0  0  0  0  0  0  0  0  0  0
  139.4620   71.4250  224.1110 N   0  0  0  0  0  0  0  0  0  0  0  0
  140.7694   71.1058  220.8217 H   0  0  0  0  0  0  0  0  0  0  0  0
  139.8839   71.4128  219.2893 H   0  0  0  0  0  0  0  0  0  0  0  0
  141.3420   70.3638  219.2893 H   0  0  0  0  0  0  0  0  0  0  0  0
  142.4478   72.2673  218.6430 H   0  0  0  0  0  0  0  0  0  0  0  0
  141.1292   73.3418  219.2050 H   0  0  0  0  0  0  0  0  0  0  0  0
  141.8772   72.7969  221.5962 H   0  0  0  0  0  0  0  0  0  0  0  0
  143.3257   72.0256  220.8762 H   0  0  0  0  0  0  0  0  0  0  0  0
  143.5679   74.4737  221.5498 H   0  0  0  0  0  0  0  0  0  0  0  0
  144.0222   74.0712  219.8620 H   0  0  0  0  0  0  0  0  0  0  0  0
  142.2520   75.5470  219.1560 H   0  0  0  0  0  0  0  0  0  0  0  0
  139.7695   76.0890  219.5377 H   0  0  0  0  0  0  0  0  0  0  0  0
  141.4282   77.9476  220.5187 H   0  0  0  0  0  0  0  0  0  0  0  0
  139.7917   78.4749  220.2510 H   0  0  0  0  0  0  0  0  0  0  0  0
  140.0013   78.8889  222.6581 H   0  0  0  0  0  0  0  0  0  0  0  0
  141.8470   76.7800  222.3400 H   0  0  0  0  0  0  0  0  0  0  0  0
  139.3364   76.3648  223.5806 H   0  0  0  0  0  0  0  0  0  0  0  0
  138.1773   77.5308  222.9774 H   0  0  0  0  0  0  0  0  0  0  0  0
  137.1198   73.4496  220.4669 H   0  0  0  0  0  0  0  0  0  0  0  0
  138.8431   73.8575  220.1058 H   0  0  0  0  0  0  0  0  0  0  0  0
  138.9510   73.4900  222.8370 H   0  0  0  0  0  0  0  0  0  0  0  0
  137.8166   69.0879  222.4157 H   0  0  0  0  0  0  0  0  0  0  0  0
  138.5294   67.6817  224.3295 H   0  0  0  0  0  0  0  0  0  0  0  0
  139.6681   67.4877  226.3796 H   0  0  0  0  0  0  0  0  0  0  0  0
  141.6243   70.9331  228.0681 H   0  0  0  0  0  0  0  0  0  0  0  0
  140.8916   72.3186  226.1344 H   0  0  0  0  0  0  0  0  0  0  0  0
  1  2  1  0
  2  3  1  0
  3  4  1  0
  4  5  1  0
  5  6  1  0
  6  7  2  0
  6  8  1  0
  8  9  1  0
  9 10  1  0
 10 11  1  0
 10 12  1  0
 12 13  1  0
 13 14  1  0
 14 15  2  0
 14 16  1  0
 16 17  1  0
 17 18  1  0
 18 19  2  0
 18 20  1  0
 20 21  2  0
 21 22  1  0
 22 23  2  0
 23 24  1  0
 24 25  2  0
 25 26  1  0
 25 27  1  0
 27 28  2  0
 28 29  1  0
 29 30  2  0
 13  8  1  0
 30 20  1  0
 29 23  1  0
  1 31  1  0
  1 32  1  0
  1 33  1  0
  2 34  1  0
  2 35  1  0
  3 36  1  0
  3 37  1  0
  4 38  1  0
  4 39  1  0
  5 40  1  0
  8 41  1  6
  9 42  1  0
  9 43  1  0
 10 44  1  6
 11 45  1  0
 12 46  1  0
 12 47  1  0
 16 48  1  0
 16 49  1  0
 17 50  1  0
 21 51  1  0
 22 52  1  0
 24 53  1  0
 27 54  1  0
 28 55  1  0
M  END
>  <smiles>  (17) 
CCCCNC(=O)[C@@H]1C[C@H](O)CN1C(=O)CNC(=O)c1ccc2cc(Cl)ccc2n1

>  <score_type>  (17) 
oracle

>  <origin>  (17) 
autodockgpu

>  <m_score__min__energy>  (17) 
-7.9199999999999999

>  <m_primary>  (17) 
energy

>  <rmsd>  (17) 
4.529736983609562

>  <m_score__min__rmsd>  (17) 
4.529736983609562

>  <meeko>  (17) 
{"free_energy": -6.36, "intermolecular_energy": -9.04, "internal_energy": -2.96, "cluster_size": 32, "cluster_id": 1, "rank_in_cluster": 31}

>  <energy>  (17) 
-7.11

>  <cluster_rmsd>  (17) 
1.84

>  <cluster>  (17) 
1

$$$$

     RDKit          3D

 55 57  0  0  0  0  0  0  0  0999 V2000
  141.7650   81.6960  221.7810 C   0  0  0  0  0  0  0  0  0  0  0  0
  142.5350   80.3880  221.9980 C   0  0  0  0  0  0  0  0  0  0  0  0
  142.7830   80.2090  223.4810 C   0  0  0  0  0  0  0  0  0  0  0  0
  141.7760   79.2490  224.0280 C   0  0  0  0  0  0  0  0  0  0  0  0
  141.2380   78.4550  222.9400 N   0  0  0  0  0  0  0  0  0  0  0  0
  140.0100   78.8930  222.3730 C   0  0  0  0  0  0  0  0  0  0  0  0
  139.5020   79.9360  222.8700 O   0  0  0  0  0  0  0  0  0  0  0  0
  139.3300   78.1880  221.2500 C   0  0  2  0  0  0  0  0  0  0  0  0
  137.9900   78.8060  220.9060 C   0  0  0  0  0  0  0  0  0  0  0  0
  137.1130   78.2500  222.0050 C   0  0  2  0  0  0  0  0  0  0  0  0
  137.1910   79.1070  223.0980 O   0  0  0  0  0  0  0  0  0  0  0  0
  137.6230   76.8800  222.3120 C   0  0  0  0  0  0  0  0  0  0  0  0
  138.9250   76.8670  221.6850 N   0  0  0  0  0  0  0  0  0  0  0  0
  139.7400   75.7150  221.4990 C   0  0  0  0  0  0  0  0  0  0  0  0
  140.9990   75.7460  221.5170 O   0  0  0  0  0  0  0  0  0  0  0  0
  139.1140   74.3850  221.2670 C   0  0  0  0  0  0  0  0  0  0  0  0
  139.3620   73.4990  222.3720 N   0  0  0  0  0  0  0  0  0  0  0  0
  139.3170   72.0930  222.1820 C   0  0  0  0  0  0  0  0  0  0  0  0
  139.0600   71.5830  221.0410 O   0  0  0  0  0  0  0  0  0  0  0  0
  139.5770   71.2150  223.3440 C   0  0  0  0  0  0  0  0  0  0  0  0
  139.2740   69.8700  223.2580 C   0  0  0  0  0  0  0  0  0  0  0  0
  139.4900   68.9960  224.3000 C   0  0  0  0  0  0  0  0  0  0  0  0
  140.0310   69.5170  225.4620 C   0  0  0  0  0  0  0  0  0  0  0  0
  140.2450   68.6430  226.5030 C   0  0  0  0  0  0  0  0  0  0  0  0
  140.7850   69.1590  227.6640 C   0  0  0  0  0  0  0  0  0  0  0  0
  141.0900   68.0990  229.0440 Cl  0  0  0  0  0  0  0  0  0  0  0  0
  141.0940   70.4970  227.7690 C   0  0  0  0  0  0  0  0  0  0  0  0
  140.8650   71.3560  226.6980 C   0  0  0  0  0  0  0  0  0  0  0  0
  140.3230   70.8630  225.5190 C   0  0  0  0  0  0  0  0  0  0  0  0
  140.0950   71.6870  224.4710 N   0  0  0  0  0  0  0  0  0  0  0  0
  141.5064   82.1353  222.7558 H   0  0  0  0  0  0  0  0  0  0  0  0
  142.3921   82.4012  221.2158 H   0  0  0  0  0  0  0  0  0  0  0  0
  140.8441   81.4899  221.2158 H   0  0  0  0  0  0  0  0  0  0  0  0
  141.9429   79.5427  221.6174 H   0  0  0  0  0  0  0  0  0  0  0  0
  143.4938   80.4247  221.4601 H   0  0  0  0  0  0  0  0  0  0  0  0
  143.7964   79.8120  223.6406 H   0  0  0  0  0  0  0  0  0  0  0  0
  142.6912   81.1778  223.9938 H   0  0  0  0  0  0  0  0  0  0  0  0
  142.2585   78.5879  224.7630 H   0  0  0  0  0  0  0  0  0  0  0  0
  140.9632   79.8041  224.5191 H   0  0  0  0  0  0  0  0  0  0  0  0
  141.6980   77.5980  222.5620 H   0  0  0  0  0  0  0  0  0  0  0  0
  140.0449   78.2193  220.4146 H   0  0  0  0  0  0  0  0  0  0  0  0
  138.0325   79.9046  220.9424 H   0  0  0  0  0  0  0  0  0  0  0  0
  137.6369   78.5763  219.8899 H   0  0  0  0  0  0  0  0  0  0  0  0
  136.0534   78.1778  221.7185 H   0  0  0  0  0  0  0  0  0  0  0  0
  137.8580   79.8300  222.8750 H   0  0  0  0  0  0  0  0  0  0  0  0
  137.7059   76.7236  223.3977 H   0  0  0  0  0  0  0  0  0  0  0  0
  136.9603   76.0805  221.9492 H   0  0  0  0  0  0  0  0  0  0  0  0
  138.0283   74.5145  221.1464 H   0  0  0  0  0  0  0  0  0  0  0  0
  139.5527   73.9447  220.3594 H   0  0  0  0  0  0  0  0  0  0  0  0
  139.5810   73.8540  223.3440 H   0  0  0  0  0  0  0  0  0  0  0  0
  138.8442   69.4827  222.3224 H   0  0  0  0  0  0  0  0  0  0  0  0
  139.2427   67.9278  224.2122 H   0  0  0  0  0  0  0  0  0  0  0  0
  139.9956   67.5754  226.4136 H   0  0  0  0  0  0  0  0  0  0  0  0
  141.5235   70.8884  228.7030 H   0  0  0  0  0  0  0  0  0  0  0  0
  141.1132   72.4240  226.7858 H   0  0  0  0  0  0  0  0  0  0  0  0
  1  2  1  0
  2  3  1  0
  3  4  1  0
  4  5  1  0
  5  6  1  0
  6  7  2  0
  6  8  1  0
  8  9  1  0
  9 10  1  0
 10 11  1  0
 10 12  1  0
 12 13  1  0
 13 14  1  0
 14 15  2  0
 14 16  1  0
 16 17  1  0
 17 18  1  0
 18 19  2  0
 18 20  1  0
 20 21  2  0
 21 22  1  0
 22 23  2  0
 23 24  1  0
 24 25  2  0
 25 26  1  0
 25 27  1  0
 27 28  2  0
 28 29  1  0
 29 30  2  0
 13  8  1  0
 30 20  1  0
 29 23  1  0
  1 31  1  0
  1 32  1  0
  1 33  1  0
  2 34  1  0
  2 35  1  0
  3 36  1  0
  3 37  1  0
  4 38  1  0
  4 39  1  0
  5 40  1  0
  8 41  1  6
  9 42  1  0
  9 43  1  0
 10 44  1  6
 11 45  1  0
 12 46  1  0
 12 47  1  0
 16 48  1  0
 16 49  1  0
 17 50  1  0
 21 51  1  0
 22 52  1  0
 24 53  1  0
 27 54  1  0
 28 55  1  0
M  END
>  <smiles>  (18) 
CCCCNC(=O)[C@@H]1C[C@H](O)CN1C(=O)CNC(=O)c1ccc2cc(Cl)ccc2n1

>  <score_type>  (18) 
oracle

>  <origin>  (18) 
autodockgpu

>  <m_score__min__energy>  (18) 
-7.9199999999999999

>  <m_primary>  (18) 
energy

>  <rmsd>  (18) 
5.451595540004768

>  <m_score__min__rmsd>  (18) 
5.451595540004768

>  <meeko>  (18) 
{"free_energy": -7.22, "intermolecular_energy": -9.9, "internal_energy": -2.69, "cluster_size": 5, "cluster_id": 2, "rank_in_cluster": 2}

>  <energy>  (18) 
-7.1

>  <cluster_rmsd>  (18) 
1.76

>  <cluster>  (18) 
1

$$$$

     RDKit          3D

 55 57  0  0  0  0  0  0  0  0999 V2000
  143.3130   80.4810  223.1460 C   0  0  0  0  0  0  0  0  0  0  0  0
  142.1080   79.8000  223.8060 C   0  0  0  0  0  0  0  0  0  0  0  0
  141.1190   79.4080  222.7270 C   0  0  0  0  0  0  0  0  0  0  0  0
  140.5340   78.0750  223.0680 C   0  0  0  0  0  0  0  0  0  0  0  0
  141.1710   77.0550  222.2560 N   0  0  0  0  0  0  0  0  0  0  0  0
  140.4300   75.8630  222.0280 C   0  0  0  0  0  0  0  0  0  0  0  0
  139.2850   75.8030  222.5550 O   0  0  0  0  0  0  0  0  0  0  0  0
  140.9440   74.7240  221.2150 C   0  0  2  0  0  0  0  0  0  0  0  0
  142.3980   74.9010  220.8270 C   0  0  0  0  0  0  0  0  0  0  0  0
  142.2840   75.8820  219.6820 C   0  0  2  0  0  0  0  0  0  0  0  0
  142.3030   77.1680  220.2080 O   0  0  0  0  0  0  0  0  0  0  0  0
  141.0080   75.5710  218.9720 C   0  0  0  0  0  0  0  0  0  0  0  0
  140.3040   74.7320  219.9160 N   0  0  0  0  0  0  0  0  0  0  0  0
  139.1240   73.9870  219.6380 C   0  0  0  0  0  0  0  0  0  0  0  0
  138.9440   73.3460  218.5680 O   0  0  0  0  0  0  0  0  0  0  0  0
  138.0190   73.9360  220.6340 C   0  0  0  0  0  0  0  0  0  0  0  0
  138.4050   73.1790  221.7930 N   0  0  0  0  0  0  0  0  0  0  0  0
  138.4180   71.7600  221.7460 C   0  0  0  0  0  0  0  0  0  0  0  0
  138.0930   71.1270  220.6870 O   0  0  0  0  0  0  0  0  0  0  0  0
  138.8210   71.0170  222.9590 C   0  0  0  0  0  0  0  0  0  0  0  0
  138.4470   69.6940  223.0990 C   0  0  0  0  0  0  0  0  0  0  0  0
  138.7870   68.9420  224.2020 C   0  0  0  0  0  0  0  0  0  0  0  0
  139.5300   69.5650  225.1890 C   0  0  0  0  0  0  0  0  0  0  0  0
  139.8690   68.8140  226.2900 C   0  0  0  0  0  0  0  0  0  0  0  0
  140.6100   69.4330  227.2760 C   0  0  0  0  0  0  0  0  0  0  0  0
  141.0840   68.5320  228.7220 Cl  0  0  0  0  0  0  0  0  0  0  0  0
  140.9920   70.7500  227.1560 C   0  0  0  0  0  0  0  0  0  0  0  0
  140.6340   71.4840  226.0290 C   0  0  0  0  0  0  0  0  0  0  0  0
  139.8880   70.8860  225.0220 C   0  0  0  0  0  0  0  0  0  0  0  0
  139.5340   71.5890  223.9220 N   0  0  0  0  0  0  0  0  0  0  0  0
  143.9897   80.8635  223.9243 H   0  0  0  0  0  0  0  0  0  0  0  0
  143.8487   79.7521  222.5201 H   0  0  0  0  0  0  0  0  0  0  0  0
  142.9649   81.3159  222.5201 H   0  0  0  0  0  0  0  0  0  0  0  0
  142.4410   78.9018  224.3467 H   0  0  0  0  0  0  0  0  0  0  0  0
  141.6315   80.4901  224.5178 H   0  0  0  0  0  0  0  0  0  0  0  0
  140.3176   80.1593  222.6699 H   0  0  0  0  0  0  0  0  0  0  0  0
  141.6304   79.3531  221.7546 H   0  0  0  0  0  0  0  0  0  0  0  0
  140.7060   77.8588  224.1327 H   0  0  0  0  0  0  0  0  0  0  0  0
  139.4519   78.0837  222.8703 H   0  0  0  0  0  0  0  0  0  0  0  0
  142.1220   77.1520  221.8400 H   0  0  0  0  0  0  0  0  0  0  0  0
  140.7693   73.8283  221.8292 H   0  0  0  0  0  0  0  0  0  0  0  0
  142.9879   75.3177  221.6566 H   0  0  0  0  0  0  0  0  0  0  0  0
  142.9112   73.9636  220.5666 H   0  0  0  0  0  0  0  0  0  0  0  0
  143.1151   75.8078  218.9653 H   0  0  0  0  0  0  0  0  0  0  0  0
  143.2530   77.5050  220.1660 H   0  0  0  0  0  0  0  0  0  0  0  0
  140.4403   76.4890  218.7596 H   0  0  0  0  0  0  0  0  0  0  0  0
  141.1627   75.0882  217.9958 H   0  0  0  0  0  0  0  0  0  0  0  0
  137.7648   74.9609  220.9420 H   0  0  0  0  0  0  0  0  0  0  0  0
  137.1504   73.4467  220.1691 H   0  0  0  0  0  0  0  0  0  0  0  0
  138.6870   73.6390  222.7030 H   0  0  0  0  0  0  0  0  0  0  0  0
  137.8556   69.2237  222.2996 H   0  0  0  0  0  0  0  0  0  0  0  0
  138.4804   67.8896  224.2942 H   0  0  0  0  0  0  0  0  0  0  0  0
  139.5617   67.7617  226.3811 H   0  0  0  0  0  0  0  0  0  0  0  0
  141.5825   71.2241  227.9539 H   0  0  0  0  0  0  0  0  0  0  0  0
  140.9415   72.5361  225.9362 H   0  0  0  0  0  0  0  0  0  0  0  0
  1  2  1  0
  2  3  1  0
  3  4  1  0
  4  5  1  0
  5  6  1  0
  6  7  2  0
  6  8  1  0
  8  9  1  0
  9 10  1  0
 10 11  1  0
 10 12  1  0
 12 13  1  0
 13 14  1  0
 14 15  2  0
 14 16  1  0
 16 17  1  0
 17 18  1  0
 18 19  2  0
 18 20  1  0
 20 21  2  0
 21 22  1  0
 22 23  2  0
 23 24  1  0
 24 25  2  0
 25 26  1  0
 25 27  1  0
 27 28  2  0
 28 29  1  0
 29 30  2  0
 13  8  1  0
 30 20  1  0
 29 23  1  0
  1 31  1  0
  1 32  1  0
  1 33  1  0
  2 34  1  0
  2 35  1  0
  3 36  1  0
  3 37  1  0
  4 38  1  0
  4 39  1  0
  5 40  1  0
  8 41  1  1
  9 42  1  0
  9 43  1  0
 10 44  1  6
 11 45  1  0
 12 46  1  0
 12 47  1  0
 16 48  1  0
 16 49  1  0
 17 50  1  0
 21 51  1  0
 22 52  1  0
 24 53  1  0
 27 54  1  0
 28 55  1  0
M  END
>  <smiles>  (19) 
CCCCNC(=O)[C@@H]1C[C@H](O)CN1C(=O)CNC(=O)c1ccc2cc(Cl)ccc2n1

>  <score_type>  (19) 
oracle

>  <origin>  (19) 
autodockgpu

>  <m_score__min__energy>  (19) 
-7.9199999999999999

>  <m_primary>  (19) 
energy

>  <rmsd>  (19) 
4.943155685221974

>  <m_score__min__rmsd>  (19) 
4.943155685221974

>  <meeko>  (19) 
{"free_energy": -7.62, "intermolecular_energy": -10.3, "internal_energy": -2.64, "cluster_size": 32, "cluster_id": 1, "rank_in_cluster": 8}

>  <energy>  (19) 
-7.05

>  <cluster_rmsd>  (19) 
1.77

>  <cluster>  (19) 
1

$$$$

     RDKit          3D

 55 57  0  0  0  0  0  0  0  0999 V2000
  141.8500   81.0970  222.8440 C   0  0  0  0  0  0  0  0  0  0  0  0
  142.5610   79.7400  222.9220 C   0  0  0  0  0  0  0  0  0  0  0  0
  141.7730   78.8290  223.8390 C   0  0  0  0  0  0  0  0  0  0  0  0
  140.6900   78.1660  223.0490 C   0  0  0  0  0  0  0  0  0  0  0  0
  141.2730   77.1250  222.2240 N   0  0  0  0  0  0  0  0  0  0  0  0
  140.4870   75.9600  222.0110 C   0  0  0  0  0  0  0  0  0  0  0  0
  139.3510   75.9400  222.5620 O   0  0  0  0  0  0  0  0  0  0  0  0
  140.9430   74.8050  221.1880 C   0  0  2  0  0  0  0  0  0  0  0  0
  142.3940   74.9300  220.7700 C   0  0  0  0  0  0  0  0  0  0  0  0
  142.2910   75.9150  219.6270 C   0  0  2  0  0  0  0  0  0  0  0  0
  142.3660   77.2000  220.1530 O   0  0  0  0  0  0  0  0  0  0  0  0
  140.9900   75.6500  218.9440 C   0  0  0  0  0  0  0  0  0  0  0  0
  140.2770   74.8350  219.9020 N   0  0  0  0  0  0  0  0  0  0  0  0
  139.0660   74.1330  219.6490 C   0  0  0  0  0  0  0  0  0  0  0  0
  138.8440   73.4940  218.5860 O   0  0  0  0  0  0  0  0  0  0  0  0
  137.9770   74.1270  220.6650 C   0  0  0  0  0  0  0  0  0  0  0  0
  138.3530   73.3560  221.8180 N   0  0  0  0  0  0  0  0  0  0  0  0
  138.3220   71.9370  221.7670 C   0  0  0  0  0  0  0  0  0  0  0  0
  137.9660   71.3160  220.7110 O   0  0  0  0  0  0  0  0  0  0  0  0
  138.7160   71.1790  222.9750 C   0  0  0  0  0  0  0  0  0  0  0  0
  138.2020   69.9120  223.1760 C   0  0  0  0  0  0  0  0  0  0  0  0
  138.5250   69.1510  224.2780 C   0  0  0  0  0  0  0  0  0  0  0  0
  139.3990   69.7040  225.1970 C   0  0  0  0  0  0  0  0  0  0  0  0
  139.7200   68.9440  226.2970 C   0  0  0  0  0  0  0  0  0  0  0  0
  140.5910   69.4930  227.2160 C   0  0  0  0  0  0  0  0  0  0  0  0
  141.0520   68.5750  228.6550 Cl  0  0  0  0  0  0  0  0  0  0  0  0
  141.1130   70.7540  227.0320 C   0  0  0  0  0  0  0  0  0  0  0  0
  140.7690   71.4990  225.9090 C   0  0  0  0  0  0  0  0  0  0  0  0
  139.8940   70.9700  224.9690 C   0  0  0  0  0  0  0  0  0  0  0  0
  139.5520   71.6850  223.8730 N   0  0  0  0  0  0  0  0  0  0  0  0
  141.6556   81.4681  223.8611 H   0  0  0  0  0  0  0  0  0  0  0  0
  142.4879   81.8148  222.3075 H   0  0  0  0  0  0  0  0  0  0  0  0
  140.8967   80.9812  222.3075 H   0  0  0  0  0  0  0  0  0  0  0  0
  142.6183   79.2943  221.9180 H   0  0  0  0  0  0  0  0  0  0  0  0
  143.5803   79.8738  223.3134 H   0  0  0  0  0  0  0  0  0  0  0  0
  142.4409   78.0651  224.2637 H   0  0  0  0  0  0  0  0  0  0  0  0
  141.3312   79.4158  224.6578 H   0  0  0  0  0  0  0  0  0  0  0  0
  139.9526   77.7229  223.7345 H   0  0  0  0  0  0  0  0  0  0  0  0
  140.1901   78.9087  222.4098 H   0  0  0  0  0  0  0  0  0  0  0  0
  142.2180   77.1890  221.7890 H   0  0  0  0  0  0  0  0  0  0  0  0
  140.7490   73.9162  221.8064 H   0  0  0  0  0  0  0  0  0  0  0  0
  143.0155   75.3252  221.5870 H   0  0  0  0  0  0  0  0  0  0  0  0
  142.8681   73.9750  220.4995 H   0  0  0  0  0  0  0  0  0  0  0  0
  143.1038   75.8116  218.8931 H   0  0  0  0  0  0  0  0  0  0  0  0
  143.3260   77.5030  220.0930 H   0  0  0  0  0  0  0  0  0  0  0  0
  140.4506   76.5877  218.7443 H   0  0  0  0  0  0  0  0  0  0  0  0
  141.1070   75.1634  217.9645 H   0  0  0  0  0  0  0  0  0  0  0  0
  137.7694   75.1615  220.9760 H   0  0  0  0  0  0  0  0  0  0  0  0
  137.0814   73.6726  220.2162 H   0  0  0  0  0  0  0  0  0  0  0  0
  138.6590   73.8050  222.7250 H   0  0  0  0  0  0  0  0  0  0  0  0
  137.5099   69.4961  222.4290 H   0  0  0  0  0  0  0  0  0  0  0  0
  138.1050   68.1445  224.4215 H   0  0  0  0  0  0  0  0  0  0  0  0
  139.2990   67.9377  226.4389 H   0  0  0  0  0  0  0  0  0  0  0  0
  141.8052   71.1740  227.7766 H   0  0  0  0  0  0  0  0  0  0  0  0
  141.1892   72.5054  225.7656 H   0  0  0  0  0  0  0  0  0  0  0  0
  1  2  1  0
  2  3  1  0
  3  4  1  0
  4  5  1  0
  5  6  1  0
  6  7  2  0
  6  8  1  0
  8  9  1  0
  9 10  1  0
 10 11  1  0
 10 12  1  0
 12 13  1  0
 13 14  1  0
 14 15  2  0
 14 16  1  0
 16 17  1  0
 17 18  1  0
 18 19  2  0
 18 20  1  0
 20 21  2  0
 21 22  1  0
 22 23  2  0
 23 24  1  0
 24 25  2  0
 25 26  1  0
 25 27  1  0
 27 28  2  0
 28 29  1  0
 29 30  2  0
 13  8  1  0
 30 20  1  0
 29 23  1  0
  1 31  1  0
  1 32  1  0
  1 33  1  0
  2 34  1  0
  2 35  1  0
  3 36  1  0
  3 37  1  0
  4 38  1  0
  4 39  1  0
  5 40  1  0
  8 41  1  1
  9 42  1  0
  9 43  1  0
 10 44  1  6
 11 45  1  0
 12 46  1  0
 12 47  1  0
 16 48  1  0
 16 49  1  0
 17 50  1  0
 21 51  1  0
 22 52  1  0
 24 53  1  0
 27 54  1  0
 28 55  1  0
M  END
>  <smiles>  (20) 
CCCCNC(=O)[C@@H]1C[C@H](O)CN1C(=O)CNC(=O)c1ccc2cc(Cl)ccc2n1

>  <score_type>  (20) 
oracle

>  <origin>  (20) 
autodockgpu

>  <m_score__min__energy>  (20) 
-7.9199999999999999

>  <m_primary>  (20) 
energy

>  <rmsd>  (20) 
4.900898998826964

>  <m_score__min__rmsd>  (20) 
4.900898998826964

>  <meeko>  (20) 
{"free_energy": -7.71, "intermolecular_energy": -10.4, "internal_energy": -2.63, "cluster_size": 32, "cluster_id": 1, "rank_in_cluster": 6}

>  <energy>  (20) 
-7.03

>  <cluster_rmsd>  (20) 
1.78

>  <cluster>  (20) 
1

$$$$

     RDKit          3D

 55 57  0  0  0  0  0  0  0  0999 V2000
  143.4120   75.6220  219.7210 C   0  0  0  0  0  0  0  0  0  0  0  0
  142.2920   76.5140  219.1730 C   0  0  0  0  0  0  0  0  0  0  0  0
  142.9110   77.7510  218.5570 C   0  0  0  0  0  0  0  0  0  0  0  0
  141.8710   78.8220  218.4710 C   0  0  0  0  0  0  0  0  0  0  0  0
  141.0200   78.7510  219.6440 N   0  0  0  0  0  0  0  0  0  0  0  0
  141.2800   79.6880  220.6810 C   0  0  0  0  0  0  0  0  0  0  0  0
  142.2290   80.4960  220.4850 O   0  0  0  0  0  0  0  0  0  0  0  0
  140.4950   79.7460  221.9470 C   0  0  2  0  0  0  0  0  0  0  0  0
  141.1750   80.5820  223.0120 C   0  0  0  0  0  0  0  0  0  0  0  0
  142.2310   79.6240  223.5160 C   0  0  2  0  0  0  0  0  0  0  0  0
  143.3640   79.7690  222.7230 O   0  0  0  0  0  0  0  0  0  0  0  0
  141.6440   78.2530  223.4310 C   0  0  0  0  0  0  0  0  0  0  0  0
  140.4960   78.4400  222.5750 N   0  0  0  0  0  0  0  0  0  0  0  0
  139.4680   77.4820  222.3500 C   0  0  0  0  0  0  0  0  0  0  0  0
  138.3060   77.5860  222.8270 O   0  0  0  0  0  0  0  0  0  0  0  0
  139.7360   76.2780  221.5170 C   0  0  0  0  0  0  0  0  0  0  0  0
  139.5130   75.0720  222.2670 N   0  0  0  0  0  0  0  0  0  0  0  0
  140.1550   73.8650  221.8840 C   0  0  0  0  0  0  0  0  0  0  0  0
  140.9370   73.8180  220.8770 O   0  0  0  0  0  0  0  0  0  0  0  0
  139.8990   72.6460  222.6810 C   0  0  0  0  0  0  0  0  0  0  0  0
  138.8150   71.8480  222.3690 C   0  0  0  0  0  0  0  0  0  0  0  0
  138.5170   70.7000  223.0690 C   0  0  0  0  0  0  0  0  0  0  0  0
  139.3560   70.3610  224.1170 C   0  0  0  0  0  0  0  0  0  0  0  0
  139.0570   69.2140  224.8160 C   0  0  0  0  0  0  0  0  0  0  0  0
  139.8910   68.8730  225.8610 C   0  0  0  0  0  0  0  0  0  0  0  0
  139.5730   67.4140  226.8060 Cl  0  0  0  0  0  0  0  0  0  0  0  0
  140.9760   69.6560  226.1870 C   0  0  0  0  0  0  0  0  0  0  0  0
  141.2520   70.8100  225.4610 C   0  0  0  0  0  0  0  0  0  0  0  0
  140.4290   71.1760  224.4040 C   0  0  0  0  0  0  0  0  0  0  0  0
  140.6860   72.2960  223.6920 N   0  0  0  0  0  0  0  0  0  0  0  0
  143.3899   75.6396  220.8206 H   0  0  0  0  0  0  0  0  0  0  0  0
  143.2653   74.5906  219.3678 H   0  0  0  0  0  0  0  0  0  0  0  0
  144.3844   75.9957  219.3678 H   0  0  0  0  0  0  0  0  0  0  0  0
  141.7231   75.9652  218.4081 H   0  0  0  0  0  0  0  0  0  0  0  0
  141.6115   76.8026  219.9877 H   0  0  0  0  0  0  0  0  0  0  0  0
  143.7463   78.0970  219.1836 H   0  0  0  0  0  0  0  0  0  0  0  0
  143.2887   77.5169  217.5508 H   0  0  0  0  0  0  0  0  0  0  0  0
  142.3589   79.8070  218.4287 H   0  0  0  0  0  0  0  0  0  0  0  0
  141.2654   78.6792  217.5639 H   0  0  0  0  0  0  0  0  0  0  0  0
  140.2440   78.0640  219.7600 H   0  0  0  0  0  0  0  0  0  0  0  0
  139.5091   80.1383  221.6571 H   0  0  0  0  0  0  0  0  0  0  0  0
  141.6264   81.4891  222.5838 H   0  0  0  0  0  0  0  0  0  0  0  0
  140.4956   80.9533  223.7934 H   0  0  0  0  0  0  0  0  0  0  0  0
  142.5304   79.8190  224.5563 H   0  0  0  0  0  0  0  0  0  0  0  0
  143.2350   79.2080  221.8950 H   0  0  0  0  0  0  0  0  0  0  0  0
  142.3579   77.5449  222.9849 H   0  0  0  0  0  0  0  0  0  0  0  0
  141.3861   77.8317  224.4138 H   0  0  0  0  0  0  0  0  0  0  0  0
  139.0661   76.2880  220.6445 H   0  0  0  0  0  0  0  0  0  0  0  0
  140.7878   76.3013  221.1959 H   0  0  0  0  0  0  0  0  0  0  0  0
  138.8770   75.0400  223.1120 H   0  0  0  0  0  0  0  0  0  0  0  0
  138.1660   72.1405  221.5304 H   0  0  0  0  0  0  0  0  0  0  0  0
  137.6485   70.0782  222.8064 H   0  0  0  0  0  0  0  0  0  0  0  0
  138.1878   68.5937  224.5522 H   0  0  0  0  0  0  0  0  0  0  0  0
  141.6273   69.3676  227.0252 H   0  0  0  0  0  0  0  0  0  0  0  0
  142.1207   71.4316  225.7237 H   0  0  0  0  0  0  0  0  0  0  0  0
  1  2  1  0
  2  3  1  0
  3  4  1  0
  4  5  1  0
  5  6  1  0
  6  7  2  0
  6  8  1  0
  8  9  1  0
  9 10  1  0
 10 11  1  0
 10 12  1  0
 12 13  1  0
 13 14  1  0
 14 15  2  0
 14 16  1  0
 16 17  1  0
 17 18  1  0
 18 19  2  0
 18 20  1  0
 20 21  2  0
 21 22  1  0
 22 23  2  0
 23 24  1  0
 24 25  2  0
 25 26  1  0
 25 27  1  0
 27 28  2  0
 28 29  1  0
 29 30  2  0
 13  8  1  0
 30 20  1  0
 29 23  1  0
  1 31  1  0
  1 32  1  0
  1 33  1  0
  2 34  1  0
  2 35  1  0
  3 36  1  0
  3 37  1  0
  4 38  1  0
  4 39  1  0
  5 40  1  0
  8 41  1  6
  9 42  1  0
  9 43  1  0
 10 44  1  1
 11 45  1  0
 12 46  1  0
 12 47  1  0
 16 48  1  0
 16 49  1  0
 17 50  1  0
 21 51  1  0
 22 52  1  0
 24 53  1  0
 27 54  1  0
 28 55  1  0
M  END
>  <smiles>  (21) 
CCCCNC(=O)[C@@H]1C[C@H](O)CN1C(=O)CNC(=O)c1ccc2cc(Cl)ccc2n1

>  <score_type>  (21) 
oracle

>  <origin>  (21) 
autodockgpu

>  <m_score__min__energy>  (21) 
-7.9199999999999999

>  <m_primary>  (21) 
energy

>  <rmsd>  (21) 
4.9589458489314815

>  <m_score__min__rmsd>  (21) 
4.9589458489314815

>  <meeko>  (21) 
{"free_energy": -7.4, "intermolecular_energy": -10.08, "internal_energy": -2.54, "cluster_size": 32, "cluster_id": 1, "rank_in_cluster": 10}

>  <energy>  (21) 
-6.93

>  <cluster_rmsd>  (21) 
1.38

>  <cluster>  (21) 
1

$$$$

     RDKit          3D

 55 57  0  0  0  0  0  0  0  0999 V2000
  146.3470   73.4030  221.7760 C   0  0  0  0  0  0  0  0  0  0  0  0
  145.9400   72.6640  220.4960 C   0  0  0  0  0  0  0  0  0  0  0  0
  144.7840   73.4020  219.8530 C   0  0  0  0  0  0  0  0  0  0  0  0
  143.5760   73.2620  220.7220 C   0  0  0  0  0  0  0  0  0  0  0  0
  142.7530   74.4480  220.5850 N   0  0  0  0  0  0  0  0  0  0  0  0
  141.8120   74.4560  219.5190 C   0  0  0  0  0  0  0  0  0  0  0  0
  141.7810   73.4260  218.7900 O   0  0  0  0  0  0  0  0  0  0  0  0
  140.8940   75.5980  219.2470 C   0  0  2  0  0  0  0  0  0  0  0  0
  141.5910   76.7440  218.5420 C   0  0  0  0  0  0  0  0  0  0  0  0
  142.3290   77.3960  219.6910 C   0  0  2  0  0  0  0  0  0  0  0  0
  143.5630   76.7710  219.8250 O   0  0  0  0  0  0  0  0  0  0  0  0
  141.4700   77.2360  220.9020 C   0  0  0  0  0  0  0  0  0  0  0  0
  140.5200   76.2250  220.4980 N   0  0  0  0  0  0  0  0  0  0  0  0
  139.3450   75.8620  221.2150 C   0  0  0  0  0  0  0  0  0  0  0  0
  138.7970   76.6070  222.0710 O   0  0  0  0  0  0  0  0  0  0  0  0
  138.6990   74.5420  220.9760 C   0  0  0  0  0  0  0  0  0  0  0  0
  138.9230   73.6510  222.0810 N   0  0  0  0  0  0  0  0  0  0  0  0
  139.4350   72.3470  221.8530 C   0  0  0  0  0  0  0  0  0  0  0  0
  139.7080   71.9360  220.6760 O   0  0  0  0  0  0  0  0  0  0  0  0
  139.6510   71.4600  223.0160 C   0  0  0  0  0  0  0  0  0  0  0  0
  139.3220   70.1210  222.9180 C   0  0  0  0  0  0  0  0  0  0  0  0
  139.4960   69.2390  223.9610 C   0  0  0  0  0  0  0  0  0  0  0  0
  140.0220   69.7440  225.1370 C   0  0  0  0  0  0  0  0  0  0  0  0
  140.1950   68.8620  226.1790 C   0  0  0  0  0  0  0  0  0  0  0  0
  140.7200   69.3630  227.3530 C   0  0  0  0  0  0  0  0  0  0  0  0
  140.9710   68.2900  228.7360 Cl  0  0  0  0  0  0  0  0  0  0  0  0
  141.0530   70.6930  227.4710 C   0  0  0  0  0  0  0  0  0  0  0  0
  140.8660   71.5600  226.3990 C   0  0  0  0  0  0  0  0  0  0  0  0
  140.3400   71.0830  225.2060 C   0  0  0  0  0  0  0  0  0  0  0  0
  140.1540   71.9160  224.1570 N   0  0  0  0  0  0  0  0  0  0  0  0
  146.0266   72.8213  222.6529 H   0  0  0  0  0  0  0  0  0  0  0  0
  147.4399   73.5257  221.7968 H   0  0  0  0  0  0  0  0  0  0  0  0
  145.8665   74.3923  221.7968 H   0  0  0  0  0  0  0  0  0  0  0  0
  146.7916   72.6329  219.8004 H   0  0  0  0  0  0  0  0  0  0  0  0
  145.6376   71.6346  220.7388 H   0  0  0  0  0  0  0  0  0  0  0  0
  145.0398   74.4664  219.7452 H   0  0  0  0  0  0  0  0  0  0  0  0
  144.5787   72.9785  218.8588 H   0  0  0  0  0  0  0  0  0  0  0  0
  143.0007   72.3767  220.4132 H   0  0  0  0  0  0  0  0  0  0  0  0
  143.8856   73.1449  221.7710 H   0  0  0  0  0  0  0  0  0  0  0  0
  142.8150   75.2760  221.2170 H   0  0  0  0  0  0  0  0  0  0  0  0
  140.0677   75.1707  218.6600 H   0  0  0  0  0  0  0  0  0  0  0  0
  142.2868   76.3793  217.7720 H   0  0  0  0  0  0  0  0  0  0  0  0
  140.9116   77.4201  218.0022 H   0  0  0  0  0  0  0  0  0  0  0  0
  142.5188   78.4675  219.5303 H   0  0  0  0  0  0  0  0  0  0  0  0
  144.2790   77.4700  219.6940 H   0  0  0  0  0  0  0  0  0  0  0  0
  142.0628   76.8986  221.7650 H   0  0  0  0  0  0  0  0  0  0  0  0
  140.9934   78.1745  221.2214 H   0  0  0  0  0  0  0  0  0  0  0  0
  137.6166   74.6895  220.8466 H   0  0  0  0  0  0  0  0  0  0  0  0
  139.1382   74.0957  220.0716 H   0  0  0  0  0  0  0  0  0  0  0  0
  138.7190   73.9270  223.0820 H   0  0  0  0  0  0  0  0  0  0  0  0
  138.9056   69.7460  221.9714 H   0  0  0  0  0  0  0  0  0  0  0  0
  139.2279   68.1767  223.8634 H   0  0  0  0  0  0  0  0  0  0  0  0
  139.9256   67.8001  226.0802 H   0  0  0  0  0  0  0  0  0  0  0  0
  141.4685   71.0721  228.4163 H   0  0  0  0  0  0  0  0  0  0  0  0
  141.1346   72.6222  226.4966 H   0  0  0  0  0  0  0  0  0  0  0  0
  1  2  1  0
  2  3  1  0
  3  4  1  0
  4  5  1  0
  5  6  1  0
  6  7  2  0
  6  8  1  0
  8  9  1  0
  9 10  1  0
 10 11  1  0
 10 12  1  0
 12 13  1  0
 13 14  1  0
 14 15  2  0
 14 16  1  0
 16 17  1  0
 17 18  1  0
 18 19  2  0
 18 20  1  0
 20 21  2  0
 21 22  1  0
 22 23  2  0
 23 24  1  0
 24 25  2  0
 25 26  1  0
 25 27  1  0
 27 28  2  0
 28 29  1  0
 29 30  2  0
 13  8  1  0
 30 20  1  0
 29 23  1  0
  1 31  1  0
  1 32  1  0
  1 33  1  0
  2 34  1  0
  2 35  1  0
  3 36  1  0
  3 37  1  0
  4 38  1  0
  4 39  1  0
  5 40  1  0
  8 41  1  6
  9 42  1  0
  9 43  1  0
 10 44  1  6
 11 45  1  0
 12 46  1  0
 12 47  1  0
 16 48  1  0
 16 49  1  0
 17 50  1  0
 21 51  1  0
 22 52  1  0
 24 53  1  0
 27 54  1  0
 28 55  1  0
M  END
>  <smiles>  (22) 
CCCCNC(=O)[C@@H]1C[C@H](O)CN1C(=O)CNC(=O)c1ccc2cc(Cl)ccc2n1

>  <score_type>  (22) 
oracle

>  <origin>  (22) 
autodockgpu

>  <m_score__min__energy>  (22) 
-7.9199999999999999

>  <m_primary>  (22) 
energy

>  <rmsd>  (22) 
5.191209330885589

>  <m_score__min__rmsd>  (22) 
5.191209330885589

>  <meeko>  (22) 
{"free_energy": -7.75, "intermolecular_energy": -10.44, "internal_energy": -2.5, "cluster_size": 32, "cluster_id": 1, "rank_in_cluster": 4}

>  <energy>  (22) 
-6.9

>  <cluster_rmsd>  (22) 
1.51

>  <cluster>  (22) 
1

$$$$

     RDKit          3D

 55 57  0  0  0  0  0  0  0  0999 V2000
  139.5120   80.3650  223.3510 C   0  0  0  0  0  0  0  0  0  0  0  0
  140.6890   79.5110  223.8390 C   0  0  0  0  0  0  0  0  0  0  0  0
  141.9460   80.3560  223.8170 C   0  0  0  0  0  0  0  0  0  0  0  0
  142.7920   79.9340  222.6590 C   0  0  0  0  0  0  0  0  0  0  0  0
  142.1980   78.7650  222.0380 N   0  0  0  0  0  0  0  0  0  0  0  0
  141.7940   78.8960  220.6810 C   0  0  0  0  0  0  0  0  0  0  0  0
  141.9910   80.0200  220.1420 O   0  0  0  0  0  0  0  0  0  0  0  0
  141.1700   77.7890  219.9030 C   0  0  2  0  0  0  0  0  0  0  0  0
  140.5600   78.2690  218.6010 C   0  0  0  0  0  0  0  0  0  0  0  0
  139.2650   78.8810  219.0860 C   0  0  2  0  0  0  0  0  0  0  0  0
  139.5110   80.2070  219.4220 O   0  0  0  0  0  0  0  0  0  0  0  0
  138.8130   78.0670  220.2530 C   0  0  0  0  0  0  0  0  0  0  0  0
  139.9950   77.3110  220.6020 N   0  0  0  0  0  0  0  0  0  0  0  0
  140.0380   76.2220  221.5180 C   0  0  0  0  0  0  0  0  0  0  0  0
  140.5390   76.3040  222.6710 O   0  0  0  0  0  0  0  0  0  0  0  0
  139.4750   74.8980  221.1340 C   0  0  0  0  0  0  0  0  0  0  0  0
  139.5920   73.9570  222.2130 N   0  0  0  0  0  0  0  0  0  0  0  0
  139.7430   72.5720  221.9370 C   0  0  0  0  0  0  0  0  0  0  0  0
  139.7780   72.1310  220.7400 O   0  0  0  0  0  0  0  0  0  0  0  0
  139.8600   71.6340  223.0750 C   0  0  0  0  0  0  0  0  0  0  0  0
  139.4340   70.3280  222.9230 C   0  0  0  0  0  0  0  0  0  0  0  0
  139.5130   69.4030  223.9400 C   0  0  0  0  0  0  0  0  0  0  0  0
  140.0440   69.8280  225.1450 C   0  0  0  0  0  0  0  0  0  0  0  0
  140.1220   68.9030  226.1600 C   0  0  0  0  0  0  0  0  0  0  0  0
  140.6510   69.3240  227.3630 C   0  0  0  0  0  0  0  0  0  0  0  0
  140.7850   68.1930  228.7140 Cl  0  0  0  0  0  0  0  0  0  0  0  0
  141.0810   70.6210  227.5330 C   0  0  0  0  0  0  0  0  0  0  0  0
  140.9890   71.5340  226.4870 C   0  0  0  0  0  0  0  0  0  0  0  0
  140.4600   71.1370  225.2660 C   0  0  0  0  0  0  0  0  0  0  0  0
  140.3650   72.0150  224.2420 N   0  0  0  0  0  0  0  0  0  0  0  0
  138.9636   80.7629  224.2175 H   0  0  0  0  0  0  0  0  0  0  0  0
  139.8916   81.1992  222.7427 H   0  0  0  0  0  0  0  0  0  0  0  0
  138.8367   79.7453  222.7427 H   0  0  0  0  0  0  0  0  0  0  0  0
  140.4943   79.1643  224.8646 H   0  0  0  0  0  0  0  0  0  0  0  0
  140.8143   78.6368  223.1832 H   0  0  0  0  0  0  0  0  0  0  0  0
  141.6760   81.4170  223.7100 H   0  0  0  0  0  0  0  0  0  0  0  0
  142.5035   80.2198  224.7554 H   0  0  0  0  0  0  0  0  0  0  0  0
  142.8476   80.7523  221.9260 H   0  0  0  0  0  0  0  0  0  0  0  0
  143.8062   79.6922  223.0097 H   0  0  0  0  0  0  0  0  0  0  0  0
  142.0570   77.8550  222.5270 H   0  0  0  0  0  0  0  0  0  0  0  0
  141.9731   77.0519  219.7557 H   0  0  0  0  0  0  0  0  0  0  0  0
  141.1990   79.0170  218.1089 H   0  0  0  0  0  0  0  0  0  0  0  0
  140.4293   77.4785  217.8473 H   0  0  0  0  0  0  0  0  0  0  0  0
  138.4722   78.8765  218.3235 H   0  0  0  0  0  0  0  0  0  0  0  0
  139.8600   80.2260  220.3680 H   0  0  0  0  0  0  0  0  0  0  0  0
  138.4966   78.7122  221.0858 H   0  0  0  0  0  0  0  0  0  0  0  0
  137.9441   77.4316  220.0268 H   0  0  0  0  0  0  0  0  0  0  0  0
  138.4126   75.0198  220.8764 H   0  0  0  0  0  0  0  0  0  0  0  0
  140.0389   74.5140  220.2711 H   0  0  0  0  0  0  0  0  0  0  0  0
  139.5720   74.2520  223.2280 H   0  0  0  0  0  0  0  0  0  0  0  0
  139.0166   70.0161  221.9542 H   0  0  0  0  0  0  0  0  0  0  0  0
  139.1679   68.3680  223.8001 H   0  0  0  0  0  0  0  0  0  0  0  0
  139.7763   67.8684  226.0184 H   0  0  0  0  0  0  0  0  0  0  0  0
  141.4991   70.9368  228.5002 H   0  0  0  0  0  0  0  0  0  0  0  0
  141.3348   72.5688  226.6271 H   0  0  0  0  0  0  0  0  0  0  0  0
  1  2  1  0
  2  3  1  0
  3  4  1  0
  4  5  1  0
  5  6  1  0
  6  7  2  0
  6  8  1  0
  8  9  1  0
  9 10  1  0
 10 11  1  0
 10 12  1  0
 12 13  1  0
 13 14  1  0
 14 15  2  0
 14 16  1  0
 16 17  1  0
 17 18  1  0
 18 19  2  0
 18 20  1  0
 20 21  2  0
 21 22  1  0
 22 23  2  0
 23 24  1  0
 24 25  2  0
 25 26  1  0
 25 27  1  0
 27 28  2  0
 28 29  1  0
 29 30  2  0
 13  8  1  0
 30 20  1  0
 29 23  1  0
  1 31  1  0
  1 32  1  0
  1 33  1  0
  2 34  1  0
  2 35  1  0
  3 36  1  0
  3 37  1  0
  4 38  1  0
  4 39  1  0
  5 40  1  0
  8 41  1  6
  9 42  1  0
  9 43  1  0
 10 44  1  6
 11 45  1  0
 12 46  1  0
 12 47  1  0
 16 48  1  0
 16 49  1  0
 17 50  1  0
 21 51  1  0
 22 52  1  0
 24 53  1  0
 27 54  1  0
 28 55  1  0
M  END
>  <smiles>  (23) 
CCCCNC(=O)[C@@H]1C[C@H](O)CN1C(=O)CNC(=O)c1ccc2cc(Cl)ccc2n1

>  <score_type>  (23) 
oracle

>  <origin>  (23) 
autodockgpu

>  <m_score__min__energy>  (23) 
-7.9199999999999999

>  <m_primary>  (23) 
energy

>  <rmsd>  (23) 
5.755214654841833

>  <m_score__min__rmsd>  (23) 
5.755214654841833

>  <meeko>  (23) 
{"free_energy": -7.11, "intermolecular_energy": -9.8, "internal_energy": -3.54, "cluster_size": 32, "cluster_id": 1, "rank_in_cluster": 15}

>  <energy>  (23) 
-6.86

>  <cluster_rmsd>  (23) 
1.72

>  <cluster>  (23) 
1

$$$$

     RDKit          3D

 55 57  0  0  0  0  0  0  0  0999 V2000
  142.2220   78.9470  217.0750 C   0  0  0  0  0  0  0  0  0  0  0  0
  141.2590   77.7980  217.3940 C   0  0  0  0  0  0  0  0  0  0  0  0
  142.0680   76.5600  217.7200 C   0  0  0  0  0  0  0  0  0  0  0  0
  143.3300   76.9730  218.4060 C   0  0  0  0  0  0  0  0  0  0  0  0
  143.4510   76.2480  219.6570 N   0  0  0  0  0  0  0  0  0  0  0  0
  143.8440   74.8840  219.5710 C   0  0  0  0  0  0  0  0  0  0  0  0
  144.0520   74.4310  218.4120 O   0  0  0  0  0  0  0  0  0  0  0  0
  144.0120   74.0050  220.7630 C   0  0  2  0  0  0  0  0  0  0  0  0
  145.4670   73.6840  221.0430 C   0  0  0  0  0  0  0  0  0  0  0  0
  145.7400   72.6140  220.0090 C   0  0  2  0  0  0  0  0  0  0  0  0
  146.1390   73.2390  218.8330 O   0  0  0  0  0  0  0  0  0  0  0  0
  144.4750   71.8370  219.8460 C   0  0  0  0  0  0  0  0  0  0  0  0
  143.4860   72.6880  220.4690 N   0  0  0  0  0  0  0  0  0  0  0  0
  142.1480   72.3120  220.7740 C   0  0  0  0  0  0  0  0  0  0  0  0
  141.8470   71.4960  221.6850 O   0  0  0  0  0  0  0  0  0  0  0  0
  141.0140   72.8880  220.0000 C   0  0  0  0  0  0  0  0  0  0  0  0
  140.9310   74.3100  220.1890 N   0  0  0  0  0  0  0  0  0  0  0  0
  140.4020   74.8390  221.3960 C   0  0  0  0  0  0  0  0  0  0  0  0
  139.9910   74.0770  222.3330 O   0  0  0  0  0  0  0  0  0  0  0  0
  140.3320   76.3080  221.5520 C   0  0  0  0  0  0  0  0  0  0  0  0
  139.4040   76.8540  222.4180 C   0  0  0  0  0  0  0  0  0  0  0  0
  139.2840   78.2120  222.6120 C   0  0  0  0  0  0  0  0  0  0  0  0
  140.1400   79.0330  221.8980 C   0  0  0  0  0  0  0  0  0  0  0  0
  140.0200   80.3890  222.0920 C   0  0  0  0  0  0  0  0  0  0  0  0
  140.8720   81.2100  221.3820 C   0  0  0  0  0  0  0  0  0  0  0  0
  140.7780   82.9640  221.5790 Cl  0  0  0  0  0  0  0  0  0  0  0  0
  141.8040   80.6850  220.5150 C   0  0  0  0  0  0  0  0  0  0  0  0
  141.9010   79.3080  220.3400 C   0  0  0  0  0  0  0  0  0  0  0  0
  141.0560   78.4590  221.0420 C   0  0  0  0  0  0  0  0  0  0  0  0
  141.1410   77.1190  220.8810 N   0  0  0  0  0  0  0  0  0  0  0  0
  142.5910   79.3873  218.0131 H   0  0  0  0  0  0  0  0  0  0  0  0
  143.0714   78.5622  216.4915 H   0  0  0  0  0  0  0  0  0  0  0  0
  141.6947   79.7161  216.4915 H   0  0  0  0  0  0  0  0  0  0  0  0
  140.6333   78.0688  218.2572 H   0  0  0  0  0  0  0  0  0  0  0  0
  140.6096   77.6030  216.5278 H   0  0  0  0  0  0  0  0  0  0  0  0
  141.4859   75.9024  218.3823 H   0  0  0  0  0  0  0  0  0  0  0  0
  142.3078   76.0170  216.7939 H   0  0  0  0  0  0  0  0  0  0  0  0
  144.1915   76.7423  217.7621 H   0  0  0  0  0  0  0  0  0  0  0  0
  143.3057   78.0544  218.6059 H   0  0  0  0  0  0  0  0  0  0  0  0
  143.2680   76.6680  220.5930 H   0  0  0  0  0  0  0  0  0  0  0  0
  143.5232   74.5418  221.5894 H   0  0  0  0  0  0  0  0  0  0  0  0
  146.1097   74.5637  220.8912 H   0  0  0  0  0  0  0  0  0  0  0  0
  145.6676   73.3710  222.0783 H   0  0  0  0  0  0  0  0  0  0  0  0
  146.5436   71.9231  220.3037 H   0  0  0  0  0  0  0  0  0  0  0  0
  145.9830   74.2290  218.9410 H   0  0  0  0  0  0  0  0  0  0  0  0
  144.2444   71.6763  218.7825 H   0  0  0  0  0  0  0  0  0  0  0  0
  144.5238   70.8324  220.2913 H   0  0  0  0  0  0  0  0  0  0  0  0
  141.1633   72.6753  218.9311 H   0  0  0  0  0  0  0  0  0  0  0  0
  140.0788   72.4319  220.3568 H   0  0  0  0  0  0  0  0  0  0  0  0
  141.2530   75.0000  219.4540 H   0  0  0  0  0  0  0  0  0  0  0  0
  138.7363   76.1787  222.9731 H   0  0  0  0  0  0  0  0  0  0  0  0
  138.5385   78.6275  223.3059 H   0  0  0  0  0  0  0  0  0  0  0  0
  139.2739   80.8031  222.7861 H   0  0  0  0  0  0  0  0  0  0  0  0
  142.4744   81.3566  219.9587 H   0  0  0  0  0  0  0  0  0  0  0  0
  142.6465   78.8924  219.6461 H   0  0  0  0  0  0  0  0  0  0  0  0
  1  2  1  0
  2  3  1  0
  3  4  1  0
  4  5  1  0
  5  6  1  0
  6  7  2  0
  6  8  1  0
  8  9  1  0
  9 10  1  0
 10 11  1  0
 10 12  1  0
 12 13  1  0
 13 14  1  0
 14 15  2  0
 14 16  1  0
 16 17  1  0
 17 18  1  0
 18 19  2  0
 18 20  1  0
 20 21  2  0
 21 22  1  0
 22 23  2  0
 23 24  1  0
 24 25  2  0
 25 26  1  0
 25 27  1  0
 27 28  2  0
 28 29  1  0
 29 30  2  0
 13  8  1  0
 30 20  1  0
 29 23  1  0
  1 31  1  0
  1 32  1  0
  1 33  1  0
  2 34  1  0
  2 35  1  0
  3 36  1  0
  3 37  1  0
  4 38  1  0
  4 39  1  0
  5 40  1  0
  8 41  1  1
  9 42  1  0
  9 43  1  0
 10 44  1  1
 11 45  1  0
 12 46  1  0
 12 47  1  0
 16 48  1  0
 16 49  1  0
 17 50  1  0
 21 51  1  0
 22 52  1  0
 24 53  1  0
 27 54  1  0
 28 55  1  0
M  END
>  <smiles>  (24) 
CCCCNC(=O)[C@@H]1C[C@H](O)CN1C(=O)CNC(=O)c1ccc2cc(Cl)ccc2n1

>  <score_type>  (24) 
oracle

>  <origin>  (24) 
autodockgpu

>  <m_score__min__energy>  (24) 
-7.9199999999999999

>  <m_primary>  (24) 
energy

>  <rmsd>  (24) 
7.077417425465716

>  <m_score__min__rmsd>  (24) 
7.077417425465716

>  <meeko>  (24) 
{"free_energy": -6.43, "intermolecular_energy": -9.12, "internal_energy": -3.81, "cluster_size": 7, "cluster_id": 4, "rank_in_cluster": 5}

>  <energy>  (24) 
-6.78

>  <cluster_rmsd>  (24) 
1.76

>  <cluster>  (24) 
1

$$$$

     RDKit          3D

 55 57  0  0  0  0  0  0  0  0999 V2000
  143.2850   71.6180  220.6850 C   0  0  0  0  0  0  0  0  0  0  0  0
  143.1170   73.1300  220.4920 C   0  0  0  0  0  0  0  0  0  0  0  0
  144.4540   73.7230  220.0980 C   0  0  0  0  0  0  0  0  0  0  0  0
  144.3430   75.2140  220.1060 C   0  0  0  0  0  0  0  0  0  0  0  0
  142.9500   75.5860  220.2640 N   0  0  0  0  0  0  0  0  0  0  0  0
  142.3240   76.2150  219.1530 C   0  0  0  0  0  0  0  0  0  0  0  0
  143.0410   76.3920  218.1300 O   0  0  0  0  0  0  0  0  0  0  0  0
  140.9010   76.6560  219.1580 C   0  0  2  0  0  0  0  0  0  0  0  0
  140.6880   77.9330  218.3700 C   0  0  0  0  0  0  0  0  0  0  0  0
  141.1850   78.9730  219.3480 C   0  0  2  0  0  0  0  0  0  0  0  0
  142.5550   79.1250  219.1620 O   0  0  0  0  0  0  0  0  0  0  0  0
  140.8440   78.4790  220.7160 C   0  0  0  0  0  0  0  0  0  0  0  0
  140.5330   77.0850  220.4920 N   0  0  0  0  0  0  0  0  0  0  0  0
  139.9370   76.2090  221.4420 C   0  0  0  0  0  0  0  0  0  0  0  0
  139.7510   76.5180  222.6490 O   0  0  0  0  0  0  0  0  0  0  0  0
  139.4970   74.8480  221.0320 C   0  0  0  0  0  0  0  0  0  0  0  0
  139.6000   73.9220  222.1270 N   0  0  0  0  0  0  0  0  0  0  0  0
  139.7840   72.5370  221.8740 C   0  0  0  0  0  0  0  0  0  0  0  0
  139.8610   72.0820  220.6850 O   0  0  0  0  0  0  0  0  0  0  0  0
  139.8850   71.6160  223.0280 C   0  0  0  0  0  0  0  0  0  0  0  0
  139.4650   70.3070  222.8880 C   0  0  0  0  0  0  0  0  0  0  0  0
  139.5300   69.3970  223.9200 C   0  0  0  0  0  0  0  0  0  0  0  0
  140.0400   69.8420  225.1270 C   0  0  0  0  0  0  0  0  0  0  0  0
  140.1040   68.9320  226.1560 C   0  0  0  0  0  0  0  0  0  0  0  0
  140.6120   69.3730  227.3620 C   0  0  0  0  0  0  0  0  0  0  0  0
  140.7260   68.2610  228.7310 Cl  0  0  0  0  0  0  0  0  0  0  0  0
  141.0350   70.6730  227.5200 C   0  0  0  0  0  0  0  0  0  0  0  0
  140.9570   71.5700  226.4590 C   0  0  0  0  0  0  0  0  0  0  0  0
  140.4500   71.1530  225.2360 C   0  0  0  0  0  0  0  0  0  0  0  0
  140.3690   72.0160  224.1970 N   0  0  0  0  0  0  0  0  0  0  0  0
  143.3108   71.3862  221.7600 H   0  0  0  0  0  0  0  0  0  0  0  0
  142.4397   71.0924  220.2167 H   0  0  0  0  0  0  0  0  0  0  0  0
  144.2250   71.2908  220.2167 H   0  0  0  0  0  0  0  0  0  0  0  0
  142.3793   73.3218  219.6989 H   0  0  0  0  0  0  0  0  0  0  0  0
  142.7653   73.5895  221.4275 H   0  0  0  0  0  0  0  0  0  0  0  0
  145.2246   73.4061  220.8161 H   0  0  0  0  0  0  0  0  0  0  0  0
  144.7346   73.3753  219.0928 H   0  0  0  0  0  0  0  0  0  0  0  0
  144.9303   75.6225  220.9416 H   0  0  0  0  0  0  0  0  0  0  0  0
  144.7294   75.6192  219.1592 H   0  0  0  0  0  0  0  0  0  0  0  0
  142.3980   75.4170  221.1320 H   0  0  0  0  0  0  0  0  0  0  0  0
  140.3338   75.8036  218.7559 H   0  0  0  0  0  0  0  0  0  0  0  0
  141.2799   77.9372  217.4428 H   0  0  0  0  0  0  0  0  0  0  0  0
  139.6513   78.0882  218.0365 H   0  0  0  0  0  0  0  0  0  0  0  0
  140.7208   79.9594  219.2016 H   0  0  0  0  0  0  0  0  0  0  0  0
  142.9890   78.2290  219.3240 H   0  0  0  0  0  0  0  0  0  0  0  0
  141.6986   78.5882  221.3999 H   0  0  0  0  0  0  0  0  0  0  0  0
  140.0196   79.0365  221.1845 H   0  0  0  0  0  0  0  0  0  0  0  0
  138.4503   74.8940  220.6969 H   0  0  0  0  0  0  0  0  0  0  0  0
  140.1476   74.5001  220.2161 H   0  0  0  0  0  0  0  0  0  0  0  0
  139.5440   74.2300  223.1370 H   0  0  0  0  0  0  0  0  0  0  0  0
  139.0642   69.9798  221.9173 H   0  0  0  0  0  0  0  0  0  0  0  0
  139.1904   68.3589  223.7900 H   0  0  0  0  0  0  0  0  0  0  0  0
  139.7641   67.8942  226.0237 H   0  0  0  0  0  0  0  0  0  0  0  0
  141.4364   71.0044  228.4890 H   0  0  0  0  0  0  0  0  0  0  0  0
  141.2967   72.6081  226.5893 H   0  0  0  0  0  0  0  0  0  0  0  0
  1  2  1  0
  2  3  1  0
  3  4  1  0
  4  5  1  0
  5  6  1  0
  6  7  2  0
  6  8  1  0
  8  9  1  0
  9 10  1  0
 10 11  1  0
 10 12  1  0
 12 13  1  0
 13 14  1  0
 14 15  2  0
 14 16  1  0
 16 17  1  0
 17 18  1  0
 18 19  2  0
 18 20  1  0
 20 21  2  0
 21 22  1  0
 22 23  2  0
 23 24  1  0
 24 25  2  0
 25 26  1  0
 25 27  1  0
 27 28  2  0
 28 29  1  0
 29 30  2  0
 13  8  1  0
 30 20  1  0
 29 23  1  0
  1 31  1  0
  1 32  1  0
  1 33  1  0
  2 34  1  0
  2 35  1  0
  3 36  1  0
  3 37  1  0
  4 38  1  0
  4 39  1  0
  5 40  1  0
  8 41  1  6
  9 42  1  0
  9 43  1  0
 10 44  1  6
 11 45  1  0
 12 46  1  0
 12 47  1  0
 16 48  1  0
 16 49  1  0
 17 50  1  0
 21 51  1  0
 22 52  1  0
 24 53  1  0
 27 54  1  0
 28 55  1  0
M  END
>  <smiles>  (25) 
CCCCNC(=O)[C@@H]1C[C@H](O)CN1C(=O)CNC(=O)c1ccc2cc(Cl)ccc2n1

>  <score_type>  (25) 
oracle

>  <origin>  (25) 
autodockgpu

>  <m_score__min__energy>  (25) 
-7.9199999999999999

>  <m_primary>  (25) 
energy

>  <rmsd>  (25) 
5.031224595059295

>  <m_score__min__rmsd>  (25) 
5.031224595059295

>  <meeko>  (25) 
{"free_energy": -6.72, "intermolecular_energy": -9.4, "internal_energy": -3.11, "cluster_size": 32, "cluster_id": 1, "rank_in_cluster": 26}

>  <energy>  (25) 
-6.76

>  <cluster_rmsd>  (25) 
1.7

>  <cluster>  (25) 
1

$$$$

     RDKit          3D

 55 57  0  0  0  0  0  0  0  0999 V2000
  142.5280   80.4740  218.4830 C   0  0  0  0  0  0  0  0  0  0  0  0
  142.4830   79.1990  217.6310 C   0  0  0  0  0  0  0  0  0  0  0  0
  142.2740   78.0100  218.5440 C   0  0  0  0  0  0  0  0  0  0  0  0
  143.3440   77.0000  218.2780 C   0  0  0  0  0  0  0  0  0  0  0  0
  143.6830   76.3290  219.5180 N   0  0  0  0  0  0  0  0  0  0  0  0
  143.6640   74.9070  219.5040 C   0  0  0  0  0  0  0  0  0  0  0  0
  143.3530   74.3600  218.4090 O   0  0  0  0  0  0  0  0  0  0  0  0
  143.9880   74.0730  220.6950 C   0  0  2  0  0  0  0  0  0  0  0  0
  145.4760   73.8290  220.8430 C   0  0  0  0  0  0  0  0  0  0  0  0
  145.7040   72.7430  219.8140 C   0  0  2  0  0  0  0  0  0  0  0  0
  145.9580   73.3510  218.5900 O   0  0  0  0  0  0  0  0  0  0  0  0
  144.4690   71.9030  219.7920 C   0  0  0  0  0  0  0  0  0  0  0  0
  143.5030   72.7240  220.4860 N   0  0  0  0  0  0  0  0  0  0  0  0
  142.2190   72.2940  220.9260 C   0  0  0  0  0  0  0  0  0  0  0  0
  142.0460   71.5030  221.8910 O   0  0  0  0  0  0  0  0  0  0  0  0
  140.9910   72.7780  220.2390 C   0  0  0  0  0  0  0  0  0  0  0  0
  140.9490   74.2150  220.2110 N   0  0  0  0  0  0  0  0  0  0  0  0
  140.4130   74.9340  221.3120 C   0  0  0  0  0  0  0  0  0  0  0  0
  139.9600   74.3330  222.3420 O   0  0  0  0  0  0  0  0  0  0  0  0
  140.3860   76.4110  221.2440 C   0  0  0  0  0  0  0  0  0  0  0  0
  139.3930   77.0380  220.5170 C   0  0  0  0  0  0  0  0  0  0  0  0
  139.3080   78.4090  220.4110 C   0  0  0  0  0  0  0  0  0  0  0  0
  140.2690   79.1560  221.0700 C   0  0  0  0  0  0  0  0  0  0  0  0
  140.1840   80.5250  220.9640 C   0  0  0  0  0  0  0  0  0  0  0  0
  141.1400   81.2730  221.6200 C   0  0  0  0  0  0  0  0  0  0  0  0
  141.0960   83.0370  221.5300 Cl  0  0  0  0  0  0  0  0  0  0  0  0
  142.1380   80.6660  222.3490 C   0  0  0  0  0  0  0  0  0  0  0  0
  142.1970   79.2790  222.4380 C   0  0  0  0  0  0  0  0  0  0  0  0
  141.2470   78.5020  221.7880 C   0  0  0  0  0  0  0  0  0  0  0  0
  141.2950   77.1530  221.8660 N   0  0  0  0  0  0  0  0  0  0  0  0
  142.5184   80.2031  219.5491 H   0  0  0  0  0  0  0  0  0  0  0  0
  143.4465   81.0349  218.2554 H   0  0  0  0  0  0  0  0  0  0  0  0
  141.6513   81.0982  218.2554 H   0  0  0  0  0  0  0  0  0  0  0  0
  141.6529   79.2637  216.9122 H   0  0  0  0  0  0  0  0  0  0  0  0
  143.4273   79.0849  217.0786 H   0  0  0  0  0  0  0  0  0  0  0  0
  142.3271   78.3364  219.5931 H   0  0  0  0  0  0  0  0  0  0  0  0
  141.2862   77.5645  218.3549 H   0  0  0  0  0  0  0  0  0  0  0  0
  142.9805   76.2622  217.5475 H   0  0  0  0  0  0  0  0  0  0  0  0
  144.2350   77.5023  217.8733 H   0  0  0  0  0  0  0  0  0  0  0  0
  143.9350   76.8270  220.3990 H   0  0  0  0  0  0  0  0  0  0  0  0
  143.5535   74.6112  221.5503 H   0  0  0  0  0  0  0  0  0  0  0  0
  146.0572   74.7332  220.6093 H   0  0  0  0  0  0  0  0  0  0  0  0
  145.7879   73.5559  221.8619 H   0  0  0  0  0  0  0  0  0  0  0  0
  146.5657   72.1004  220.0474 H   0  0  0  0  0  0  0  0  0  0  0  0
  145.5110   74.2560  218.5960 H   0  0  0  0  0  0  0  0  0  0  0  0
  144.1469   71.7011  218.7598 H   0  0  0  0  0  0  0  0  0  0  0  0
  144.6093   70.9150  220.2548 H   0  0  0  0  0  0  0  0  0  0  0  0
  140.9825   72.3976  219.2069 H   0  0  0  0  0  0  0  0  0  0  0  0
  140.1129   72.4123  220.7915 H   0  0  0  0  0  0  0  0  0  0  0  0
  141.3060   74.7770  219.3890 H   0  0  0  0  0  0  0  0  0  0  0  0
  138.6420   76.4197  220.0035 H   0  0  0  0  0  0  0  0  0  0  0  0
  138.5096   78.8900  219.8269 H   0  0  0  0  0  0  0  0  0  0  0  0
  139.3852   81.0045  220.3792 H   0  0  0  0  0  0  0  0  0  0  0  0
  142.8918   81.2804  222.8632 H   0  0  0  0  0  0  0  0  0  0  0  0
  142.9952   78.7982  223.0226 H   0  0  0  0  0  0  0  0  0  0  0  0
  1  2  1  0
  2  3  1  0
  3  4  1  0
  4  5  1  0
  5  6  1  0
  6  7  2  0
  6  8  1  0
  8  9  1  0
  9 10  1  0
 10 11  1  0
 10 12  1  0
 12 13  1  0
 13 14  1  0
 14 15  2  0
 14 16  1  0
 16 17  1  0
 17 18  1  0
 18 19  2  0
 18 20  1  0
 20 21  2  0
 21 22  1  0
 22 23  2  0
 23 24  1  0
 24 25  2  0
 25 26  1  0
 25 27  1  0
 27 28  2  0
 28 29  1  0
 29 30  2  0
 13  8  1  0
 30 20  1  0
 29 23  1  0
  1 31  1  0
  1 32  1  0
  1 33  1  0
  2 34  1  0
  2 35  1  0
  3 36  1  0
  3 37  1  0
  4 38  1  0
  4 39  1  0
  5 40  1  0
  8 41  1  1
  9 42  1  0
  9 43  1  0
 10 44  1  1
 11 45  1  0
 12 46  1  0
 12 47  1  0
 16 48  1  0
 16 49  1  0
 17 50  1  0
 21 51  1  0
 22 52  1  0
 24 53  1  0
 27 54  1  0
 28 55  1  0
M  END
>  <smiles>  (26) 
CCCCNC(=O)[C@@H]1C[C@H](O)CN1C(=O)CNC(=O)c1ccc2cc(Cl)ccc2n1

>  <score_type>  (26) 
oracle

>  <origin>  (26) 
autodockgpu

>  <m_score__min__energy>  (26) 
-7.9199999999999999

>  <m_primary>  (26) 
energy

>  <rmsd>  (26) 
7.316148980073453

>  <m_score__min__rmsd>  (26) 
7.316148980073453

>  <meeko>  (26) 
{"free_energy": -6.62, "intermolecular_energy": -9.31, "internal_energy": -3.73, "cluster_size": 7, "cluster_id": 4, "rank_in_cluster": 3}

>  <energy>  (26) 
-6.72

>  <cluster_rmsd>  (26) 
1.64

>  <cluster>  (26) 
1

$$$$

     RDKit          3D

 55 57  0  0  0  0  0  0  0  0999 V2000
  143.3400   80.5340  223.1180 C   0  0  0  0  0  0  0  0  0  0  0  0
  142.0600   80.0640  223.8210 C   0  0  0  0  0  0  0  0  0  0  0  0
  141.0790   79.5810  222.7730 C   0  0  0  0  0  0  0  0  0  0  0  0
  140.6700   78.1810  223.1030 C   0  0  0  0  0  0  0  0  0  0  0  0
  141.3220   77.2670  222.1830 N   0  0  0  0  0  0  0  0  0  0  0  0
  140.6640   76.0310  221.9340 C   0  0  0  0  0  0  0  0  0  0  0  0
  139.5720   75.8440  222.5380 O   0  0  0  0  0  0  0  0  0  0  0  0
  141.2040   74.9890  221.0170 C   0  0  2  0  0  0  0  0  0  0  0  0
  142.5610   75.3600  220.4530 C   0  0  0  0  0  0  0  0  0  0  0  0
  142.1760   76.3470  219.3730 C   0  0  2  0  0  0  0  0  0  0  0  0
  142.1040   77.6120  219.9460 O   0  0  0  0  0  0  0  0  0  0  0  0
  140.8650   75.8920  218.8200 C   0  0  0  0  0  0  0  0  0  0  0  0
  140.4020   74.9460  219.8100 N   0  0  0  0  0  0  0  0  0  0  0  0
  139.2970   74.0630  219.6550 C   0  0  0  0  0  0  0  0  0  0  0  0
  139.1790   73.2620  218.6890 O   0  0  0  0  0  0  0  0  0  0  0  0
  138.2010   74.0520  220.6620 C   0  0  0  0  0  0  0  0  0  0  0  0
  138.5680   73.2770  221.8150 N   0  0  0  0  0  0  0  0  0  0  0  0
  138.5330   71.8580  221.7620 C   0  0  0  0  0  0  0  0  0  0  0  0
  138.1790   71.2410  220.7030 O   0  0  0  0  0  0  0  0  0  0  0  0
  138.9180   71.0960  222.9700 C   0  0  0  0  0  0  0  0  0  0  0  0
  138.5520   69.7680  223.0780 C   0  0  0  0  0  0  0  0  0  0  0  0
  138.8760   69.0000  224.1740 C   0  0  0  0  0  0  0  0  0  0  0  0
  139.5960   69.6110  225.1860 C   0  0  0  0  0  0  0  0  0  0  0  0
  139.9190   68.8430  226.2800 C   0  0  0  0  0  0  0  0  0  0  0  0
  140.6370   69.4490  227.2910 C   0  0  0  0  0  0  0  0  0  0  0  0
  141.0900   68.5260  228.7290 Cl  0  0  0  0  0  0  0  0  0  0  0  0
  141.0110   70.7710  227.2020 C   0  0  0  0  0  0  0  0  0  0  0  0
  140.6680   71.5220  226.0810 C   0  0  0  0  0  0  0  0  0  0  0  0
  139.9470   70.9370  225.0500 C   0  0  0  0  0  0  0  0  0  0  0  0
  139.6080   71.6560  223.9560 N   0  0  0  0  0  0  0  0  0  0  0  0
  144.0920   80.8101  223.8718 H   0  0  0  0  0  0  0  0  0  0  0  0
  143.7324   79.7213  222.4891 H   0  0  0  0  0  0  0  0  0  0  0  0
  143.1133   81.4075  222.4891 H   0  0  0  0  0  0  0  0  0  0  0  0
  142.2979   79.2419  224.5120 H   0  0  0  0  0  0  0  0  0  0  0  0
  141.6195   80.8948  224.3917 H   0  0  0  0  0  0  0  0  0  0  0  0
  140.1932   80.2332  222.7676 H   0  0  0  0  0  0  0  0  0  0  0  0
  141.5507   79.6077  221.7796 H   0  0  0  0  0  0  0  0  0  0  0  0
  140.9704   77.9427  224.1340 H   0  0  0  0  0  0  0  0  0  0  0  0
  139.5782   78.0824  223.0122 H   0  0  0  0  0  0  0  0  0  0  0  0
  142.2270   77.4690  221.7070 H   0  0  0  0  0  0  0  0  0  0  0  0
  141.2246   74.0643  221.6124 H   0  0  0  0  0  0  0  0  0  0  0  0
  143.1997   75.8280  221.2166 H   0  0  0  0  0  0  0  0  0  0  0  0
  143.1468   74.5025  220.0903 H   0  0  0  0  0  0  0  0  0  0  0  0
  142.9079   76.3983  218.5534 H   0  0  0  0  0  0  0  0  0  0  0  0
  143.0320   77.8680  220.2460 H   0  0  0  0  0  0  0  0  0  0  0  0
  140.1646   76.7343  218.7208 H   0  0  0  0  0  0  0  0  0  0  0  0
  140.9480   75.4578  217.8127 H   0  0  0  0  0  0  0  0  0  0  0  0
  137.9902   75.0851  220.9754 H   0  0  0  0  0  0  0  0  0  0  0  0
  137.3095   73.5983  220.2044 H   0  0  0  0  0  0  0  0  0  0  0  0
  138.8720   73.7230  222.7250 H   0  0  0  0  0  0  0  0  0  0  0  0
  137.9809   69.3074  222.2584 H   0  0  0  0  0  0  0  0  0  0  0  0
  138.5750   67.9442  224.2425 H   0  0  0  0  0  0  0  0  0  0  0  0
  139.6171   67.7874  226.3467 H   0  0  0  0  0  0  0  0  0  0  0  0
  141.5826   71.2353  228.0191 H   0  0  0  0  0  0  0  0  0  0  0  0
  140.9683   72.5780  226.0128 H   0  0  0  0  0  0  0  0  0  0  0  0
  1  2  1  0
  2  3  1  0
  3  4  1  0
  4  5  1  0
  5  6  1  0
  6  7  2  0
  6  8  1  0
  8  9  1  0
  9 10  1  0
 10 11  1  0
 10 12  1  0
 12 13  1  0
 13 14  1  0
 14 15  2  0
 14 16  1  0
 16 17  1  0
 17 18  1  0
 18 19  2  0
 18 20  1  0
 20 21  2  0
 21 22  1  0
 22 23  2  0
 23 24  1  0
 24 25  2  0
 25 26  1  0
 25 27  1  0
 27 28  2  0
 28 29  1  0
 29 30  2  0
 13  8  1  0
 30 20  1  0
 29 23  1  0
  1 31  1  0
  1 32  1  0
  1 33  1  0
  2 34  1  0
  2 35  1  0
  3 36  1  0
  3 37  1  0
  4 38  1  0
  4 39  1  0
  5 40  1  0
  8 41  1  1
  9 42  1  0
  9 43  1  0
 10 44  1  6
 11 45  1  0
 12 46  1  0
 12 47  1  0
 16 48  1  0
 16 49  1  0
 17 50  1  0
 21 51  1  0
 22 52  1  0
 24 53  1  0
 27 54  1  0
 28 55  1  0
M  END
>  <smiles>  (27) 
CCCCNC(=O)[C@@H]1C[C@H](O)CN1C(=O)CNC(=O)c1ccc2cc(Cl)ccc2n1

>  <score_type>  (27) 
oracle

>  <origin>  (27) 
autodockgpu

>  <m_score__min__energy>  (27) 
-7.9199999999999999

>  <m_primary>  (27) 
energy

>  <rmsd>  (27) 
5.006608704903216

>  <m_score__min__rmsd>  (27) 
5.006608704903216

>  <meeko>  (27) 
{"free_energy": -7.69, "intermolecular_energy": -10.37, "internal_energy": -2.69, "cluster_size": 32, "cluster_id": 1, "rank_in_cluster": 7}

>  <energy>  (27) 
-6.71

>  <cluster_rmsd>  (27) 
1.34

>  <cluster>  (27) 
1

$$$$

     RDKit          3D

 55 57  0  0  0  0  0  0  0  0999 V2000
  139.6530   80.3170  223.0530 C   0  0  0  0  0  0  0  0  0  0  0  0
  140.5840   79.3900  223.8440 C   0  0  0  0  0  0  0  0  0  0  0  0
  141.9780   79.9830  223.8430 C   0  0  0  0  0  0  0  0  0  0  0  0
  142.5370   79.9060  222.4590 C   0  0  0  0  0  0  0  0  0  0  0  0
  142.1290   78.6530  221.8520 N   0  0  0  0  0  0  0  0  0  0  0  0
  141.8080   78.6860  220.4670 C   0  0  0  0  0  0  0  0  0  0  0  0
  141.9090   79.8060  219.8930 O   0  0  0  0  0  0  0  0  0  0  0  0
  141.3740   77.4850  219.6990 C   0  0  2  0  0  0  0  0  0  0  0  0
  140.9440   77.8270  218.2870 C   0  0  0  0  0  0  0  0  0  0  0  0
  139.5570   78.3810  218.5230 C   0  0  2  0  0  0  0  0  0  0  0  0
  139.6710   79.7420  218.7820 O   0  0  0  0  0  0  0  0  0  0  0  0
  138.9800   77.6240  219.6740 C   0  0  0  0  0  0  0  0  0  0  0  0
  140.1360   76.9790  220.2540 N   0  0  0  0  0  0  0  0  0  0  0  0
  140.1010   75.9650  221.2520 C   0  0  0  0  0  0  0  0  0  0  0  0
  140.7380   76.0370  222.3370 O   0  0  0  0  0  0  0  0  0  0  0  0
  139.2850   74.7370  221.0440 C   0  0  0  0  0  0  0  0  0  0  0  0
  139.4540   73.8160  222.1340 N   0  0  0  0  0  0  0  0  0  0  0  0
  139.4540   72.4170  221.8920 C   0  0  0  0  0  0  0  0  0  0  0  0
  139.3060   71.9460  220.7150 O   0  0  0  0  0  0  0  0  0  0  0  0
  139.6300   71.5020  223.0400 C   0  0  0  0  0  0  0  0  0  0  0  0
  139.2070   70.1910  222.9320 C   0  0  0  0  0  0  0  0  0  0  0  0
  139.3390   69.2850  223.9610 C   0  0  0  0  0  0  0  0  0  0  0  0
  139.9210   69.7360  225.1320 C   0  0  0  0  0  0  0  0  0  0  0  0
  140.0520   68.8310  226.1590 C   0  0  0  0  0  0  0  0  0  0  0  0
  140.6320   69.2780  227.3290 C   0  0  0  0  0  0  0  0  0  0  0  0
  140.8350   68.1730  228.6930 Cl  0  0  0  0  0  0  0  0  0  0  0  0
  141.0590   70.5810  227.4560 C   0  0  0  0  0  0  0  0  0  0  0  0
  140.9120   71.4730  226.3990 C   0  0  0  0  0  0  0  0  0  0  0  0
  140.3320   71.0490  225.2100 C   0  0  0  0  0  0  0  0  0  0  0  0
  140.1840   71.9070  224.1760 N   0  0  0  0  0  0  0  0  0  0  0  0
  139.0513   80.9161  223.7524 H   0  0  0  0  0  0  0  0  0  0  0  0
  140.2536   80.9864  222.4196 H   0  0  0  0  0  0  0  0  0  0  0  0
  138.9862   79.7135  222.4196 H   0  0  0  0  0  0  0  0  0  0  0  0
  140.2221   79.2976  224.8786 H   0  0  0  0  0  0  0  0  0  0  0  0
  140.6013   78.3927  223.3801 H   0  0  0  0  0  0  0  0  0  0  0  0
  141.9322   81.0339  224.1646 H   0  0  0  0  0  0  0  0  0  0  0  0
  142.6218   79.4218  224.5362 H   0  0  0  0  0  0  0  0  0  0  0  0
  142.1561   80.7466  221.8605 H   0  0  0  0  0  0  0  0  0  0  0  0
  143.6350   79.9585  222.4990 H   0  0  0  0  0  0  0  0  0  0  0  0
  142.0620   77.7500  222.3690 H   0  0  0  0  0  0  0  0  0  0  0  0
  142.2305   76.7956  219.7326 H   0  0  0  0  0  0  0  0  0  0  0  0
  141.6067   78.5803  217.8360 H   0  0  0  0  0  0  0  0  0  0  0  0
  140.9759   76.9773  217.5891 H   0  0  0  0  0  0  0  0  0  0  0  0
  138.8921   78.2662  217.6543 H   0  0  0  0  0  0  0  0  0  0  0  0
  140.6540   79.9650  218.8300 H   0  0  0  0  0  0  0  0  0  0  0  0
  138.5039   78.3044  220.3954 H   0  0  0  0  0  0  0  0  0  0  0  0
  138.1937   76.9152  219.3750 H   0  0  0  0  0  0  0  0  0  0  0  0
  138.2240   75.0181  220.9717 H   0  0  0  0  0  0  0  0  0  0  0  0
  139.6180   74.2477  220.1168 H   0  0  0  0  0  0  0  0  0  0  0  0
  139.5810   74.1380  223.1340 H   0  0  0  0  0  0  0  0  0  0  0  0
  138.7478   69.8586  221.9893 H   0  0  0  0  0  0  0  0  0  0  0  0
  138.9956   68.2453  223.8559 H   0  0  0  0  0  0  0  0  0  0  0  0
  139.7081   67.7916  226.0523 H   0  0  0  0  0  0  0  0  0  0  0  0
  141.5182   70.9177  228.3971 H   0  0  0  0  0  0  0  0  0  0  0  0
  141.2546   72.5130  226.5044 H   0  0  0  0  0  0  0  0  0  0  0  0
  1  2  1  0
  2  3  1  0
  3  4  1  0
  4  5  1  0
  5  6  1  0
  6  7  2  0
  6  8  1  0
  8  9  1  0
  9 10  1  0
 10 11  1  0
 10 12  1  0
 12 13  1  0
 13 14  1  0
 14 15  2  0
 14 16  1  0
 16 17  1  0
 17 18  1  0
 18 19  2  0
 18 20  1  0
 20 21  2  0
 21 22  1  0
 22 23  2  0
 23 24  1  0
 24 25  2  0
 25 26  1  0
 25 27  1  0
 27 28  2  0
 28 29  1  0
 29 30  2  0
 13  8  1  0
 30 20  1  0
 29 23  1  0
  1 31  1  0
  1 32  1  0
  1 33  1  0
  2 34  1  0
  2 35  1  0
  3 36  1  0
  3 37  1  0
  4 38  1  0
  4 39  1  0
  5 40  1  0
  8 41  1  6
  9 42  1  0
  9 43  1  0
 10 44  1  6
 11 45  1  0
 12 46  1  0
 12 47  1  0
 16 48  1  0
 16 49  1  0
 17 50  1  0
 21 51  1  0
 22 52  1  0
 24 53  1  0
 27 54  1  0
 28 55  1  0
M  END
>  <smiles>  (28) 
CCCCNC(=O)[C@@H]1C[C@H](O)CN1C(=O)CNC(=O)c1ccc2cc(Cl)ccc2n1

>  <score_type>  (28) 
oracle

>  <origin>  (28) 
autodockgpu

>  <m_score__min__energy>  (28) 
-7.9199999999999999

>  <m_primary>  (28) 
energy

>  <rmsd>  (28) 
5.668869086040289

>  <m_score__min__rmsd>  (28) 
5.668869086040289

>  <meeko>  (28) 
{"free_energy": -7.11, "intermolecular_energy": -9.79, "internal_energy": -3.48, "cluster_size": 32, "cluster_id": 1, "rank_in_cluster": 16}

>  <energy>  (28) 
-6.67

>  <cluster_rmsd>  (28) 
1.67

>  <cluster>  (28) 
1

$$$$

     RDKit          3D

 55 57  0  0  0  0  0  0  0  0999 V2000
  142.1900   80.8310  223.6830 C   0  0  0  0  0  0  0  0  0  0  0  0
  142.2280   79.6390  222.7190 C   0  0  0  0  0  0  0  0  0  0  0  0
  140.9530   79.6330  221.9010 C   0  0  0  0  0  0  0  0  0  0  0  0
  139.8760   78.9600  222.6890 C   0  0  0  0  0  0  0  0  0  0  0  0
  139.5560   77.6890  222.0660 N   0  0  0  0  0  0  0  0  0  0  0  0
  140.4380   76.6060  222.3320 C   0  0  0  0  0  0  0  0  0  0  0  0
  141.4190   76.8510  223.0860 O   0  0  0  0  0  0  0  0  0  0  0  0
  140.2480   75.2390  221.7690 C   0  0  2  0  0  0  0  0  0  0  0  0
  141.5500   74.6160  221.3080 C   0  0  0  0  0  0  0  0  0  0  0  0
  141.7630   75.3120  219.9830 C   0  0  2  0  0  0  0  0  0  0  0  0
  142.4500   76.4970  220.2200 O   0  0  0  0  0  0  0  0  0  0  0  0
  140.4090   75.5420  219.3950 C   0  0  0  0  0  0  0  0  0  0  0  0
  139.5240   75.3300  220.5170 N   0  0  0  0  0  0  0  0  0  0  0  0
  138.1070   75.2160  220.4410 C   0  0  0  0  0  0  0  0  0  0  0  0
  137.3520   76.1710  220.1150 O   0  0  0  0  0  0  0  0  0  0  0  0
  137.4410   73.9230  220.7570 C   0  0  0  0  0  0  0  0  0  0  0  0
  138.0050   73.3290  221.9370 N   0  0  0  0  0  0  0  0  0  0  0  0
  138.6780   72.0810  221.8550 C   0  0  0  0  0  0  0  0  0  0  0  0
  138.8000   71.4620  220.7460 O   0  0  0  0  0  0  0  0  0  0  0  0
  139.2450   71.5010  223.0920 C   0  0  0  0  0  0  0  0  0  0  0  0
  140.3180   72.1220  223.7020 C   0  0  0  0  0  0  0  0  0  0  0  0
  140.8950   71.6380  224.8540 C   0  0  0  0  0  0  0  0  0  0  0  0
  140.3560   70.4850  225.3970 C   0  0  0  0  0  0  0  0  0  0  0  0
  140.9330   70.0010  226.5480 C   0  0  0  0  0  0  0  0  0  0  0  0
  140.3970   68.8510  227.0910 C   0  0  0  0  0  0  0  0  0  0  0  0
  141.0850   68.1690  228.5700 Cl  0  0  0  0  0  0  0  0  0  0  0  0
  139.3280   68.2170  226.4990 C   0  0  0  0  0  0  0  0  0  0  0  0
  138.7660   68.7310  225.3340 C   0  0  0  0  0  0  0  0  0  0  0  0
  139.2850   69.8870  224.7660 C   0  0  0  0  0  0  0  0  0  0  0  0
  138.7480   70.3960  223.6340 N   0  0  0  0  0  0  0  0  0  0  0  0
  142.2017   80.4644  224.7200 H   0  0  0  0  0  0  0  0  0  0  0  0
  143.0682   81.4704  223.5102 H   0  0  0  0  0  0  0  0  0  0  0  0
  141.2728   81.4132  223.5102 H   0  0  0  0  0  0  0  0  0  0  0  0
  143.0962   79.7319  222.0500 H   0  0  0  0  0  0  0  0  0  0  0  0
  142.3124   78.7009  223.2872 H   0  0  0  0  0  0  0  0  0  0  0  0
  140.6541   80.6673  221.6753 H   0  0  0  0  0  0  0  0  0  0  0  0
  141.1179   79.0923  220.9573 H   0  0  0  0  0  0  0  0  0  0  0  0
  140.2248   78.7884  223.7180 H   0  0  0  0  0  0  0  0  0  0  0  0
  138.9799   79.5976  222.7121 H   0  0  0  0  0  0  0  0  0  0  0  0
  138.7300   77.5350  221.4490 H   0  0  0  0  0  0  0  0  0  0  0  0
  139.7559   74.6645  222.5676 H   0  0  0  0  0  0  0  0  0  0  0  0
  142.3689   74.8297  222.0106 H   0  0  0  0  0  0  0  0  0  0  0  0
  141.5231   73.5185  221.2395 H   0  0  0  0  0  0  0  0  0  0  0  0
  142.3621   74.7204  219.2751 H   0  0  0  0  0  0  0  0  0  0  0  0
  142.4920   76.6360  221.2180 H   0  0  0  0  0  0  0  0  0  0  0  0
  140.3160   76.5671  219.0069 H   0  0  0  0  0  0  0  0  0  0  0  0
  140.1907   74.8831  218.5417 H   0  0  0  0  0  0  0  0  0  0  0  0
  136.3682   74.1016  220.9217 H   0  0  0  0  0  0  0  0  0  0  0  0
  137.5915   73.2352  219.9119 H   0  0  0  0  0  0  0  0  0  0  0  0
  137.9410   73.7860  222.8890 H   0  0  0  0  0  0  0  0  0  0  0  0
  140.7265   73.0378  223.2499 H   0  0  0  0  0  0  0  0  0  0  0  0
  141.7496   72.1469  225.3238 H   0  0  0  0  0  0  0  0  0  0  0  0
  141.7877   70.5103  227.0171 H   0  0  0  0  0  0  0  0  0  0  0  0
  138.9166   67.3011  226.9482 H   0  0  0  0  0  0  0  0  0  0  0  0
  137.9117   68.2221  224.8637 H   0  0  0  0  0  0  0  0  0  0  0  0
  1  2  1  0
  2  3  1  0
  3  4  1  0
  4  5  1  0
  5  6  1  0
  6  7  2  0
  6  8  1  0
  8  9  1  0
  9 10  1  0
 10 11  1  0
 10 12  1  0
 12 13  1  0
 13 14  1  0
 14 15  2  0
 14 16  1  0
 16 17  1  0
 17 18  1  0
 18 19  2  0
 18 20  1  0
 20 21  2  0
 21 22  1  0
 22 23  2  0
 23 24  1  0
 24 25  2  0
 25 26  1  0
 25 27  1  0
 27 28  2  0
 28 29  1  0
 29 30  2  0
 13  8  1  0
 30 20  1  0
 29 23  1  0
  1 31  1  0
  1 32  1  0
  1 33  1  0
  2 34  1  0
  2 35  1  0
  3 36  1  0
  3 37  1  0
  4 38  1  0
  4 39  1  0
  5 40  1  0
  8 41  1  1
  9 42  1  0
  9 43  1  0
 10 44  1  6
 11 45  1  0
 12 46  1  0
 12 47  1  0
 16 48  1  0
 16 49  1  0
 17 50  1  0
 21 51  1  0
 22 52  1  0
 24 53  1  0
 27 54  1  0
 28 55  1  0
M  END
>  <smiles>  (29) 
CCCCNC(=O)[C@@H]1C[C@H](O)CN1C(=O)CNC(=O)c1ccc2cc(Cl)ccc2n1

>  <score_type>  (29) 
oracle

>  <origin>  (29) 
autodockgpu

>  <m_score__min__energy>  (29) 
-7.9199999999999999

>  <m_primary>  (29) 
energy

>  <rmsd>  (29) 
4.5234462929276615

>  <m_score__min__rmsd>  (29) 
4.5234462929276615

>  <meeko>  (29) 
{"free_energy": -6.71, "intermolecular_energy": -9.39, "internal_energy": -2.95, "cluster_size": 32, "cluster_id": 1, "rank_in_cluster": 27}

>  <energy>  (29) 
-6.5

>  <cluster_rmsd>  (29) 
1.72

>  <cluster>  (29) 
1

$$$$

     RDKit          3D

 55 57  0  0  0  0  0  0  0  0999 V2000
  143.3090   80.1650  223.0750 C   0  0  0  0  0  0  0  0  0  0  0  0
  141.8880   79.7970  223.5190 C   0  0  0  0  0  0  0  0  0  0  0  0
  140.9850   80.9940  223.3070 C   0  0  0  0  0  0  0  0  0  0  0  0
  139.5770   80.5170  223.1460 C   0  0  0  0  0  0  0  0  0  0  0  0
  139.5830   79.2590  222.4230 N   0  0  0  0  0  0  0  0  0  0  0  0
  139.7760   79.3290  221.0170 C   0  0  0  0  0  0  0  0  0  0  0  0
  139.9250   80.4820  220.5260 O   0  0  0  0  0  0  0  0  0  0  0  0
  139.8070   78.1280  220.1350 C   0  0  2  0  0  0  0  0  0  0  0  0
  139.2480   78.4080  218.7550 C   0  0  0  0  0  0  0  0  0  0  0  0
  137.7600   78.3760  219.0240 C   0  0  2  0  0  0  0  0  0  0  0  0
  137.3610   79.6510  219.4090 O   0  0  0  0  0  0  0  0  0  0  0  0
  137.5360   77.3570  220.0930 C   0  0  0  0  0  0  0  0  0  0  0  0
  138.8630   77.1450  220.6250 N   0  0  0  0  0  0  0  0  0  0  0  0
  139.2350   76.1060  221.5240 C   0  0  0  0  0  0  0  0  0  0  0  0
  139.4480   76.2940  222.7520 O   0  0  0  0  0  0  0  0  0  0  0  0
  139.3930   74.7100  221.0310 C   0  0  0  0  0  0  0  0  0  0  0  0
  139.5390   73.7910  222.1270 N   0  0  0  0  0  0  0  0  0  0  0  0
  139.6530   72.3980  221.8780 C   0  0  0  0  0  0  0  0  0  0  0  0
  139.6300   71.9300  220.6910 O   0  0  0  0  0  0  0  0  0  0  0  0
  139.8020   71.4850  223.0320 C   0  0  0  0  0  0  0  0  0  0  0  0
  139.4000   70.1680  222.9090 C   0  0  0  0  0  0  0  0  0  0  0  0
  139.5090   69.2640  223.9420 C   0  0  0  0  0  0  0  0  0  0  0  0
  140.0440   69.7220  225.1330 C   0  0  0  0  0  0  0  0  0  0  0  0
  140.1520   68.8190  226.1640 C   0  0  0  0  0  0  0  0  0  0  0  0
  140.6860   69.2730  227.3530 C   0  0  0  0  0  0  0  0  0  0  0  0
  140.8560   68.1700  228.7240 Cl  0  0  0  0  0  0  0  0  0  0  0  0
  141.0910   70.5810  227.4940 C   0  0  0  0  0  0  0  0  0  0  0  0
  140.9690   71.4720  226.4320 C   0  0  0  0  0  0  0  0  0  0  0  0
  140.4360   71.0410  225.2250 C   0  0  0  0  0  0  0  0  0  0  0  0
  140.3120   71.8970  224.1860 N   0  0  0  0  0  0  0  0  0  0  0  0
  143.9394   80.3283  223.9615 H   0  0  0  0  0  0  0  0  0  0  0  0
  143.7286   79.3459  222.4725 H   0  0  0  0  0  0  0  0  0  0  0  0
  143.2783   81.0848  222.4725 H   0  0  0  0  0  0  0  0  0  0  0  0
  141.5226   78.9480  222.9226 H   0  0  0  0  0  0  0  0  0  0  0  0
  141.8901   79.5141  224.5820 H   0  0  0  0  0  0  0  0  0  0  0  0
  141.0504   81.6644  224.1767 H   0  0  0  0  0  0  0  0  0  0  0  0
  141.2980   81.5416  222.4058 H   0  0  0  0  0  0  0  0  0  0  0  0
  139.1219   80.3706  224.1367 H   0  0  0  0  0  0  0  0  0  0  0  0
  138.9938   81.2636  222.5869 H   0  0  0  0  0  0  0  0  0  0  0  0
  139.4560   78.3280  222.8760 H   0  0  0  0  0  0  0  0  0  0  0  0
  140.8606   77.8125  220.1155 H   0  0  0  0  0  0  0  0  0  0  0  0
  139.5686   79.3923  218.3831 H   0  0  0  0  0  0  0  0  0  0  0  0
  139.5808   77.6991  217.9825 H   0  0  0  0  0  0  0  0  0  0  0  0
  137.1668   78.0983  218.1403 H   0  0  0  0  0  0  0  0  0  0  0  0
  138.1750   80.2470  219.3940 H   0  0  0  0  0  0  0  0  0  0  0  0
  136.8561   77.7404  220.8681 H   0  0  0  0  0  0  0  0  0  0  0  0
  137.0664   76.4347  219.7204 H   0  0  0  0  0  0  0  0  0  0  0  0
  138.5046   74.4327  220.4447 H   0  0  0  0  0  0  0  0  0  0  0  0
  140.2974   74.6585  220.4070 H   0  0  0  0  0  0  0  0  0  0  0  0
  139.5670   74.1100  223.1350 H   0  0  0  0  0  0  0  0  0  0  0  0
  138.9777   69.8300  221.9512 H   0  0  0  0  0  0  0  0  0  0  0  0
  139.1838   68.2197  223.8250 H   0  0  0  0  0  0  0  0  0  0  0  0
  139.8255   67.7752  226.0459 H   0  0  0  0  0  0  0  0  0  0  0  0
  141.5130   70.9235  228.4504 H   0  0  0  0  0  0  0  0  0  0  0  0
  141.2944   72.5162  226.5489 H   0  0  0  0  0  0  0  0  0  0  0  0
  1  2  1  0
  2  3  1  0
  3  4  1  0
  4  5  1  0
  5  6  1  0
  6  7  2  0
  6  8  1  0
  8  9  1  0
  9 10  1  0
 10 11  1  0
 10 12  1  0
 12 13  1  0
 13 14  1  0
 14 15  2  0
 14 16  1  0
 16 17  1  0
 17 18  1  0
 18 19  2  0
 18 20  1  0
 20 21  2  0
 21 22  1  0
 22 23  2  0
 23 24  1  0
 24 25  2  0
 25 26  1  0
 25 27  1  0
 27 28  2  0
 28 29  1  0
 29 30  2  0
 13  8  1  0
 30 20  1  0
 29 23  1  0
  1 31  1  0
  1 32  1  0
  1 33  1  0
  2 34  1  0
  2 35  1  0
  3 36  1  0
  3 37  1  0
  4 38  1  0
  4 39  1  0
  5 40  1  0
  8 41  1  6
  9 42  1  0
  9 43  1  0
 10 44  1  6
 11 45  1  0
 12 46  1  0
 12 47  1  0
 16 48  1  0
 16 49  1  0
 17 50  1  0
 21 51  1  0
 22 52  1  0
 24 53  1  0
 27 54  1  0
 28 55  1  0
M  END
>  <smiles>  (30) 
CCCCNC(=O)[C@@H]1C[C@H](O)CN1C(=O)CNC(=O)c1ccc2cc(Cl)ccc2n1

>  <score_type>  (30) 
oracle

>  <origin>  (30) 
autodockgpu

>  <m_score__min__energy>  (30) 
-7.9199999999999999

>  <m_primary>  (30) 
energy

>  <rmsd>  (30) 
5.663391630251852

>  <m_score__min__rmsd>  (30) 
5.663391630251852

>  <meeko>  (30) 
{"free_energy": -6.17, "intermolecular_energy": -8.85, "internal_energy": -3.5, "cluster_size": 5, "cluster_id": 2, "rank_in_cluster": 5}

>  <energy>  (30) 
-6.4

>  <cluster_rmsd>  (30) 
1.68

>  <cluster>  (30) 
1

$$$$

     RDKit          3D

 55 57  0  0  0  0  0  0  0  0999 V2000
  140.3110   70.2090  220.5650 C   0  0  0  0  0  0  0  0  0  0  0  0
  140.9970   71.4150  221.2190 C   0  0  0  0  0  0  0  0  0  0  0  0
  142.1200   71.8850  220.3170 C   0  0  0  0  0  0  0  0  0  0  0  0
  142.6520   73.1800  220.8410 C   0  0  0  0  0  0  0  0  0  0  0  0
  141.8830   74.2720  220.2760 N   0  0  0  0  0  0  0  0  0  0  0  0
  140.8410   74.8070  221.0820 C   0  0  0  0  0  0  0  0  0  0  0  0
  140.6820   74.2800  222.2170 O   0  0  0  0  0  0  0  0  0  0  0  0
  139.9640   75.9300  220.6450 C   0  0  2  0  0  0  0  0  0  0  0  0
  140.5890   77.2860  220.9030 C   0  0  0  0  0  0  0  0  0  0  0  0
  140.3420   77.4520  222.3860 C   0  0  2  0  0  0  0  0  0  0  0  0
  141.4030   76.8690  223.0700 O   0  0  0  0  0  0  0  0  0  0  0  0
  139.0360   76.7910  222.6820 C   0  0  0  0  0  0  0  0  0  0  0  0
  138.7970   75.9920  221.5020 N   0  0  0  0  0  0  0  0  0  0  0  0
  137.5770   75.3320  221.1840 C   0  0  0  0  0  0  0  0  0  0  0  0
  136.4610   75.9150  221.1510 O   0  0  0  0  0  0  0  0  0  0  0  0
  137.5730   73.8760  220.8710 C   0  0  0  0  0  0  0  0  0  0  0  0
  138.0610   73.1090  221.9840 N   0  0  0  0  0  0  0  0  0  0  0  0
  137.6900   71.7460  222.1270 C   0  0  0  0  0  0  0  0  0  0  0  0
  136.9250   71.1720  221.2830 O   0  0  0  0  0  0  0  0  0  0  0  0
  138.2120   70.9900  223.2870 C   0  0  0  0  0  0  0  0  0  0  0  0
  137.7340   69.7180  223.5370 C   0  0  0  0  0  0  0  0  0  0  0  0
  138.1750   68.9590  224.5980 C   0  0  0  0  0  0  0  0  0  0  0  0
  139.1330   69.5190  225.4240 C   0  0  0  0  0  0  0  0  0  0  0  0
  139.5730   68.7610  226.4840 C   0  0  0  0  0  0  0  0  0  0  0  0
  140.5290   69.3170  227.3090 C   0  0  0  0  0  0  0  0  0  0  0  0
  141.1430   68.4020  228.6910 Cl  0  0  0  0  0  0  0  0  0  0  0  0
  141.0170   70.5830  227.0760 C   0  0  0  0  0  0  0  0  0  0  0  0
  140.5520   71.3260  225.9960 C   0  0  0  0  0  0  0  0  0  0  0  0
  139.5910   70.7900  225.1490 C   0  0  0  0  0  0  0  0  0  0  0  0
  139.1310   71.5030  224.0960 N   0  0  0  0  0  0  0  0  0  0  0  0
  139.9284   69.5364  221.3468 H   0  0  0  0  0  0  0  0  0  0  0  0
  139.4756   70.5569  219.9396 H   0  0  0  0  0  0  0  0  0  0  0  0
  141.0370   69.6688  219.9396 H   0  0  0  0  0  0  0  0  0  0  0  0
  140.2673   72.2268  221.3549 H   0  0  0  0  0  0  0  0  0  0  0  0
  141.4010   71.1285  222.2012 H   0  0  0  0  0  0  0  0  0  0  0  0
  142.9232   71.1335  220.3052 H   0  0  0  0  0  0  0  0  0  0  0  0
  141.7424   72.0241  219.2932 H   0  0  0  0  0  0  0  0  0  0  0  0
  142.5655   73.1971  221.9375 H   0  0  0  0  0  0  0  0  0  0  0  0
  143.7100   73.2871  220.5596 H   0  0  0  0  0  0  0  0  0  0  0  0
  142.0540   74.6760  219.3300 H   0  0  0  0  0  0  0  0  0  0  0  0
  139.7663   75.7439  219.5790 H   0  0  0  0  0  0  0  0  0  0  0  0
  141.6645   77.2837  220.6722 H   0  0  0  0  0  0  0  0  0  0  0  0
  140.1752   78.0965  220.2850 H   0  0  0  0  0  0  0  0  0  0  0  0
  140.2859   78.5046  222.7005 H   0  0  0  0  0  0  0  0  0  0  0  0
  141.7960   76.1530  222.4780 H   0  0  0  0  0  0  0  0  0  0  0  0
  139.1081   76.1584  223.5790 H   0  0  0  0  0  0  0  0  0  0  0  0
  138.2270   77.5067  222.8902 H   0  0  0  0  0  0  0  0  0  0  0  0
  136.5449   73.5605  220.6398 H   0  0  0  0  0  0  0  0  0  0  0  0
  138.2328   73.7010  220.0084 H   0  0  0  0  0  0  0  0  0  0  0  0
  138.6990   73.5210  222.7210 H   0  0  0  0  0  0  0  0  0  0  0  0
  136.9732   69.2961  222.8638 H   0  0  0  0  0  0  0  0  0  0  0  0
  137.7814   67.9483  224.7813 H   0  0  0  0  0  0  0  0  0  0  0  0
  139.1781   67.7508  226.6669 H   0  0  0  0  0  0  0  0  0  0  0  0
  141.7778   71.0088  227.7467 H   0  0  0  0  0  0  0  0  0  0  0  0
  140.9451   72.3370  225.8131 H   0  0  0  0  0  0  0  0  0  0  0  0
  1  2  1  0
  2  3  1  0
  3  4  1  0
  4  5  1  0
  5  6  1  0
  6  7  2  0
  6  8  1  0
  8  9  1  0
  9 10  1  0
 10 11  1  0
 10 12  1  0
 12 13  1  0
 13 14  1  0
 14 15  2  0
 14 16  1  0
 16 17  1  0
 17 18  1  0
 18 19  2  0
 18 20  1  0
 20 21  2  0
 21 22  1  0
 22 23  2  0
 23 24  1  0
 24 25  2  0
 25 26  1  0
 25 27  1  0
 27 28  2  0
 28 29  1  0
 29 30  2  0
 13  8  1  0
 30 20  1  0
 29 23  1  0
  1 31  1  0
  1 32  1  0
  1 33  1  0
  2 34  1  0
  2 35  1  0
  3 36  1  0
  3 37  1  0
  4 38  1  0
  4 39  1  0
  5 40  1  0
  8 41  1  6
  9 42  1  0
  9 43  1  0
 10 44  1  6
 11 45  1  0
 12 46  1  0
 12 47  1  0
 16 48  1  0
 16 49  1  0
 17 50  1  0
 21 51  1  0
 22 52  1  0
 24 53  1  0
 27 54  1  0
 28 55  1  0
M  END
>  <smiles>  (31) 
CCCCNC(=O)[C@@H]1C[C@H](O)CN1C(=O)CNC(=O)c1ccc2cc(Cl)ccc2n1

>  <score_type>  (31) 
oracle

>  <origin>  (31) 
autodockgpu

>  <m_score__min__energy>  (31) 
-7.9199999999999999

>  <m_primary>  (31) 
energy

>  <rmsd>  (31) 
4.883501006545564

>  <m_score__min__rmsd>  (31) 
4.883501006545564

>  <meeko>  (31) 
{"free_energy": -6.27, "intermolecular_energy": -8.95, "internal_energy": -3.7, "cluster_size": 32, "cluster_id": 1, "rank_in_cluster": 32}

>  <energy>  (31) 
-6.36

>  <cluster_rmsd>  (31) 
1.56

>  <cluster>  (31) 
1

$$$$

     RDKit          3D

 55 57  0  0  0  0  0  0  0  0999 V2000
  143.3020   80.1460  223.0540 C   0  0  0  0  0  0  0  0  0  0  0  0
  142.1860   81.0630  223.5700 C   0  0  0  0  0  0  0  0  0  0  0  0
  140.9490   80.2280  223.8280 C   0  0  0  0  0  0  0  0  0  0  0  0
  140.1390   80.1610  222.5730 C   0  0  0  0  0  0  0  0  0  0  0  0
  140.2780   78.8410  221.9890 N   0  0  0  0  0  0  0  0  0  0  0  0
  140.8540   78.7710  220.6910 C   0  0  0  0  0  0  0  0  0  0  0  0
  141.1930   79.8680  220.1670 O   0  0  0  0  0  0  0  0  0  0  0  0
  141.0650   77.4920  219.9570 C   0  0  2  0  0  0  0  0  0  0  0  0
  140.9950   77.6690  218.4540 C   0  0  0  0  0  0  0  0  0  0  0  0
  139.5020   77.7430  218.2300 C   0  0  2  0  0  0  0  0  0  0  0  0
  139.1060   79.0690  218.3720 O   0  0  0  0  0  0  0  0  0  0  0  0
  138.8690   76.8440  219.2410 C   0  0  0  0  0  0  0  0  0  0  0  0
  139.9370   76.6120  220.1870 N   0  0  0  0  0  0  0  0  0  0  0  0
  139.9200   75.6450  221.2310 C   0  0  0  0  0  0  0  0  0  0  0  0
  140.4450   75.8350  222.3610 O   0  0  0  0  0  0  0  0  0  0  0  0
  139.2590   74.3280  221.0210 C   0  0  0  0  0  0  0  0  0  0  0  0
  139.4740   73.4590  222.1460 N   0  0  0  0  0  0  0  0  0  0  0  0
  139.3130   72.0560  222.0030 C   0  0  0  0  0  0  0  0  0  0  0  0
  138.9780   71.5340  220.8880 O   0  0  0  0  0  0  0  0  0  0  0  0
  139.5430   71.1950  223.1840 C   0  0  0  0  0  0  0  0  0  0  0  0
  139.1720   69.8650  223.1350 C   0  0  0  0  0  0  0  0  0  0  0  0
  139.3560   69.0080  224.1970 C   0  0  0  0  0  0  0  0  0  0  0  0
  139.9360   69.5290  225.3400 C   0  0  0  0  0  0  0  0  0  0  0  0
  140.1190   68.6720  226.4000 C   0  0  0  0  0  0  0  0  0  0  0  0
  140.6970   69.1900  227.5420 C   0  0  0  0  0  0  0  0  0  0  0  0
  140.9650   68.1490  228.9460 Cl  0  0  0  0  0  0  0  0  0  0  0  0
  141.0730   70.5120  227.6100 C   0  0  0  0  0  0  0  0  0  0  0  0
  140.8740   71.3550  226.5200 C   0  0  0  0  0  0  0  0  0  0  0  0
  140.2950   70.8600  225.3600 C   0  0  0  0  0  0  0  0  0  0  0  0
  140.0960   71.6690  224.2940 N   0  0  0  0  0  0  0  0  0  0  0  0
  143.8384   79.7053  223.9073 H   0  0  0  0  0  0  0  0  0  0  0  0
  142.8638   79.3436  222.4423 H   0  0  0  0  0  0  0  0  0  0  0  0
  144.0042   80.7315  222.4423 H   0  0  0  0  0  0  0  0  0  0  0  0
  142.5072   81.5466  224.5043 H   0  0  0  0  0  0  0  0  0  0  0  0
  141.9641   81.8390  222.8226 H   0  0  0  0  0  0  0  0  0  0  0  0
  141.2454   79.2129  224.1307 H   0  0  0  0  0  0  0  0  0  0  0  0
  140.3529   80.6839  224.6322 H   0  0  0  0  0  0  0  0  0  0  0  0
  139.0810   80.3509  222.8067 H   0  0  0  0  0  0  0  0  0  0  0  0
  140.4945   80.9207  221.8613 H   0  0  0  0  0  0  0  0  0  0  0  0
  139.9830   77.9600  222.4640 H   0  0  0  0  0  0  0  0  0  0  0  0
  142.0413   77.1201  220.3012 H   0  0  0  0  0  0  0  0  0  0  0  0
  141.4959   78.5947  218.1344 H   0  0  0  0  0  0  0  0  0  0  0  0
  141.4956   76.8723  217.8842 H   0  0  0  0  0  0  0  0  0  0  0  0
  139.1991   77.4151  217.2246 H   0  0  0  0  0  0  0  0  0  0  0  0
  139.9270   79.6140  218.5890 H   0  0  0  0  0  0  0  0  0  0  0  0
  138.0123   77.3355  219.7252 H   0  0  0  0  0  0  0  0  0  0  0  0
  138.4684   75.9170  218.8049 H   0  0  0  0  0  0  0  0  0  0  0  0
  138.1783   74.4848  220.8888 H   0  0  0  0  0  0  0  0  0  0  0  0
  139.6921   73.8570  220.1262 H   0  0  0  0  0  0  0  0  0  0  0  0
  139.7540   73.8240  223.0990 H   0  0  0  0  0  0  0  0  0  0  0  0
  138.7129   69.4765  222.2140 H   0  0  0  0  0  0  0  0  0  0  0  0
  139.0541   67.9518  224.1390 H   0  0  0  0  0  0  0  0  0  0  0  0
  139.8169   67.6160  226.3404 H   0  0  0  0  0  0  0  0  0  0  0  0
  141.5326   70.9043  228.5292 H   0  0  0  0  0  0  0  0  0  0  0  0
  141.1751   72.4114  226.5782 H   0  0  0  0  0  0  0  0  0  0  0  0
  1  2  1  0
  2  3  1  0
  3  4  1  0
  4  5  1  0
  5  6  1  0
  6  7  2  0
  6  8  1  0
  8  9  1  0
  9 10  1  0
 10 11  1  0
 10 12  1  0
 12 13  1  0
 13 14  1  0
 14 15  2  0
 14 16  1  0
 16 17  1  0
 17 18  1  0
 18 19  2  0
 18 20  1  0
 20 21  2  0
 21 22  1  0
 22 23  2  0
 23 24  1  0
 24 25  2  0
 25 26  1  0
 25 27  1  0
 27 28  2  0
 28 29  1  0
 29 30  2  0
 13  8  1  0
 30 20  1  0
 29 23  1  0
  1 31  1  0
  1 32  1  0
  1 33  1  0
  2 34  1  0
  2 35  1  0
  3 36  1  0
  3 37  1  0
  4 38  1  0
  4 39  1  0
  5 40  1  0
  8 41  1  6
  9 42  1  0
  9 43  1  0
 10 44  1  6
 11 45  1  0
 12 46  1  0
 12 47  1  0
 16 48  1  0
 16 49  1  0
 17 50  1  0
 21 51  1  0
 22 52  1  0
 24 53  1  0
 27 54  1  0
 28 55  1  0
M  END
>  <smiles>  (32) 
CCCCNC(=O)[C@@H]1C[C@H](O)CN1C(=O)CNC(=O)c1ccc2cc(Cl)ccc2n1

>  <score_type>  (32) 
oracle

>  <origin>  (32) 
autodockgpu

>  <m_score__min__energy>  (32) 
-7.9199999999999999

>  <m_primary>  (32) 
energy

>  <rmsd>  (32) 
5.519956350530812

>  <m_score__min__rmsd>  (32) 
5.519956350530812

>  <meeko>  (32) 
{"free_energy": -6.4, "intermolecular_energy": -9.08, "internal_energy": -3.5, "cluster_size": 32, "cluster_id": 1, "rank_in_cluster": 30}

>  <energy>  (32) 
-6.27

>  <cluster_rmsd>  (32) 
1.66

>  <cluster>  (32) 
1

$$$$

     RDKit          3D

 55 57  0  0  0  0  0  0  0  0999 V2000
  141.4390   79.8260  219.9430 C   0  0  0  0  0  0  0  0  0  0  0  0
  142.1750   79.3000  218.7050 C   0  0  0  0  0  0  0  0  0  0  0  0
  141.9280   77.8110  218.5870 C   0  0  0  0  0  0  0  0  0  0  0  0
  143.2450   77.1030  218.5500 C   0  0  0  0  0  0  0  0  0  0  0  0
  143.3890   76.3060  219.7530 N   0  0  0  0  0  0  0  0  0  0  0  0
  143.8020   74.9560  219.5820 C   0  0  0  0  0  0  0  0  0  0  0  0
  144.0050   74.5760  218.3950 O   0  0  0  0  0  0  0  0  0  0  0  0
  143.9970   74.0100  220.7170 C   0  0  2  0  0  0  0  0  0  0  0  0
  145.4580   73.6910  220.9600 C   0  0  0  0  0  0  0  0  0  0  0  0
  145.7310   72.6880  219.8610 C   0  0  2  0  0  0  0  0  0  0  0  0
  146.1070   73.3870  218.7190 O   0  0  0  0  0  0  0  0  0  0  0  0
  144.4730   71.9070  219.6670 C   0  0  0  0  0  0  0  0  0  0  0  0
  143.4830   72.7060  220.3520 N   0  0  0  0  0  0  0  0  0  0  0  0
  142.1530   72.2960  220.6490 C   0  0  0  0  0  0  0  0  0  0  0  0
  141.8700   71.4550  221.5450 O   0  0  0  0  0  0  0  0  0  0  0  0
  141.0060   72.8610  219.8870 C   0  0  0  0  0  0  0  0  0  0  0  0
  140.7000   74.1930  220.3310 N   0  0  0  0  0  0  0  0  0  0  0  0
  140.2280   74.4140  221.6520 C   0  0  0  0  0  0  0  0  0  0  0  0
  140.0660   73.4480  222.4710 O   0  0  0  0  0  0  0  0  0  0  0  0
  139.9240   75.7990  222.0710 C   0  0  0  0  0  0  0  0  0  0  0  0
  140.9630   76.6760  222.3180 C   0  0  0  0  0  0  0  0  0  0  0  0
  140.7520   77.9790  222.7120 C   0  0  0  0  0  0  0  0  0  0  0  0
  139.4400   78.3940  222.8550 C   0  0  0  0  0  0  0  0  0  0  0  0
  139.2310   79.6950  223.2490 C   0  0  0  0  0  0  0  0  0  0  0  0
  137.9230   80.1110  223.3930 C   0  0  0  0  0  0  0  0  0  0  0  0
  137.5740   81.7700  223.8950 Cl  0  0  0  0  0  0  0  0  0  0  0  0
  136.8740   79.2530  223.1520 C   0  0  0  0  0  0  0  0  0  0  0  0
  137.1180   77.9410  222.7550 C   0  0  0  0  0  0  0  0  0  0  0  0
  138.4250   77.4960  222.6020 C   0  0  0  0  0  0  0  0  0  0  0  0
  138.6750   76.2240  222.2170 N   0  0  0  0  0  0  0  0  0  0  0  0
  141.9443   79.4649  220.8509 H   0  0  0  0  0  0  0  0  0  0  0  0
  141.4446   80.9259  219.9331 H   0  0  0  0  0  0  0  0  0  0  0  0
  140.4001   79.4645  219.9331 H   0  0  0  0  0  0  0  0  0  0  0  0
  141.7978   79.8098  217.8062 H   0  0  0  0  0  0  0  0  0  0  0  0
  143.2536   79.4937  218.8009 H   0  0  0  0  0  0  0  0  0  0  0  0
  141.3461   77.4634  219.4534 H   0  0  0  0  0  0  0  0  0  0  0  0
  141.3645   77.5984  217.6665 H   0  0  0  0  0  0  0  0  0  0  0  0
  143.2865   76.4482  217.6671 H   0  0  0  0  0  0  0  0  0  0  0  0
  144.0602   77.8393  218.4934 H   0  0  0  0  0  0  0  0  0  0  0  0
  143.2100   76.6660  220.7150 H   0  0  0  0  0  0  0  0  0  0  0  0
  143.5131   74.4914  221.5796 H   0  0  0  0  0  0  0  0  0  0  0  0
  146.0884   74.5861  220.8536 H   0  0  0  0  0  0  0  0  0  0  0  0
  145.6749   73.3192  221.9723 H   0  0  0  0  0  0  0  0  0  0  0  0
  146.5467   71.9913  220.1044 H   0  0  0  0  0  0  0  0  0  0  0  0
  145.8980   74.3620  218.8710 H   0  0  0  0  0  0  0  0  0  0  0  0
  144.2304   71.8079  218.5987 H   0  0  0  0  0  0  0  0  0  0  0  0
  144.5392   70.8780  220.0503 H   0  0  0  0  0  0  0  0  0  0  0  0
  141.2627   72.8881  218.8177 H   0  0  0  0  0  0  0  0  0  0  0  0
  140.1251   72.2240  220.0553 H   0  0  0  0  0  0  0  0  0  0  0  0
  140.8110   75.0390  219.7060 H   0  0  0  0  0  0  0  0  0  0  0  0
  141.9967   76.3205  222.1954 H   0  0  0  0  0  0  0  0  0  0  0  0
  141.5925   78.6618  222.9051 H   0  0  0  0  0  0  0  0  0  0  0  0
  140.0726   80.3766  223.4416 H   0  0  0  0  0  0  0  0  0  0  0  0
  135.8390   79.6052  223.2735 H   0  0  0  0  0  0  0  0  0  0  0  0
  136.2774   77.2581  222.5629 H   0  0  0  0  0  0  0  0  0  0  0  0
  1  2  1  0
  2  3  1  0
  3  4  1  0
  4  5  1  0
  5  6  1  0
  6  7  2  0
  6  8  1  0
  8  9  1  0
  9 10  1  0
 10 11  1  0
 10 12  1  0
 12 13  1  0
 13 14  1  0
 14 15  2  0
 14 16  1  0
 16 17  1  0
 17 18  1  0
 18 19  2  0
 18 20  1  0
 20 21  2  0
 21 22  1  0
 22 23  2  0
 23 24  1  0
 24 25  2  0
 25 26  1  0
 25 27  1  0
 27 28  2  0
 28 29  1  0
 29 30  2  0
 13  8  1  0
 30 20  1  0
 29 23  1  0
  1 31  1  0
  1 32  1  0
  1 33  1  0
  2 34  1  0
  2 35  1  0
  3 36  1  0
  3 37  1  0
  4 38  1  0
  4 39  1  0
  5 40  1  0
  8 41  1  1
  9 42  1  0
  9 43  1  0
 10 44  1  1
 11 45  1  0
 12 46  1  0
 12 47  1  0
 16 48  1  0
 16 49  1  0
 17 50  1  0
 21 51  1  0
 22 52  1  0
 24 53  1  0
 27 54  1  0
 28 55  1  0
M  END
>  <smiles>  (33) 
CCCCNC(=O)[C@@H]1C[C@H](O)CN1C(=O)CNC(=O)c1ccc2cc(Cl)ccc2n1

>  <score_type>  (33) 
oracle

>  <origin>  (33) 
autodockgpu

>  <m_score__min__energy>  (33) 
-7.9199999999999999

>  <m_primary>  (33) 
energy

>  <rmsd>  (33) 
6.450076045504419

>  <m_score__min__rmsd>  (33) 
6.450076045504419

>  <meeko>  (33) 
{"free_energy": -6.75, "intermolecular_energy": -9.44, "internal_energy": -2.67, "cluster_size": 7, "cluster_id": 4, "rank_in_cluster": 1}

>  <energy>  (33) 
-7.58

>  <cluster_rmsd>  (33) 
0.0

>  <cluster>  (33) 
2

$$$$

     RDKit          3D

 55 57  0  0  0  0  0  0  0  0999 V2000
  139.4090   79.3740  223.5210 C   0  0  0  0  0  0  0  0  0  0  0  0
  140.3260   80.5770  223.2690 C   0  0  0  0  0  0  0  0  0  0  0  0
  141.6960   80.2740  223.8390 C   0  0  0  0  0  0  0  0  0  0  0  0
  142.6210   79.9290  222.7170 C   0  0  0  0  0  0  0  0  0  0  0  0
  142.1560   78.7140  222.0740 N   0  0  0  0  0  0  0  0  0  0  0  0
  141.7990   78.8110  220.7020 C   0  0  0  0  0  0  0  0  0  0  0  0
  141.9200   79.9490  220.1680 O   0  0  0  0  0  0  0  0  0  0  0  0
  141.3040   77.6550  219.9020 C   0  0  2  0  0  0  0  0  0  0  0  0
  140.8110   78.0700  218.5300 C   0  0  0  0  0  0  0  0  0  0  0  0
  139.4480   78.6360  218.8620 C   0  0  2  0  0  0  0  0  0  0  0  0
  139.6010   79.9810  219.1780 O   0  0  0  0  0  0  0  0  0  0  0  0
  138.9150   77.8350  220.0040 C   0  0  0  0  0  0  0  0  0  0  0  0
  140.0850   77.1440  220.4950 N   0  0  0  0  0  0  0  0  0  0  0  0
  140.0810   76.0850  221.4440 C   0  0  0  0  0  0  0  0  0  0  0  0
  140.6250   76.1670  222.5780 O   0  0  0  0  0  0  0  0  0  0  0  0
  139.4130   74.7940  221.1230 C   0  0  0  0  0  0  0  0  0  0  0  0
  139.5500   73.8600  222.2070 N   0  0  0  0  0  0  0  0  0  0  0  0
  139.6690   72.4700  221.9400 C   0  0  0  0  0  0  0  0  0  0  0  0
  139.6580   72.0190  220.7470 O   0  0  0  0  0  0  0  0  0  0  0  0
  139.8070   71.5410  223.0820 C   0  0  0  0  0  0  0  0  0  0  0  0
  139.4110   70.2250  222.9370 C   0  0  0  0  0  0  0  0  0  0  0  0
  139.5110   69.3060  223.9580 C   0  0  0  0  0  0  0  0  0  0  0  0
  140.0320   69.7500  225.1610 C   0  0  0  0  0  0  0  0  0  0  0  0
  140.1310   68.8320  226.1800 C   0  0  0  0  0  0  0  0  0  0  0  0
  140.6500   69.2710  227.3810 C   0  0  0  0  0  0  0  0  0  0  0  0
  140.8090   68.1490  228.7380 Cl  0  0  0  0  0  0  0  0  0  0  0  0
  141.0500   70.5780  227.5460 C   0  0  0  0  0  0  0  0  0  0  0  0
  140.9360   71.4840  226.4950 C   0  0  0  0  0  0  0  0  0  0  0  0
  140.4180   71.0680  225.2760 C   0  0  0  0  0  0  0  0  0  0  0  0
  140.3030   71.9390  224.2480 N   0  0  0  0  0  0  0  0  0  0  0  0
  139.2931   79.2219  224.6042 H   0  0  0  0  0  0  0  0  0  0  0  0
  138.4238   79.5631  223.0698 H   0  0  0  0  0  0  0  0  0  0  0  0
  139.8524   78.4741  223.0698 H   0  0  0  0  0  0  0  0  0  0  0  0
  140.4077   80.7595  222.1873 H   0  0  0  0  0  0  0  0  0  0  0  0
  139.9094   81.4725  223.7532 H   0  0  0  0  0  0  0  0  0  0  0  0
  142.0770   81.1565  224.3737 H   0  0  0  0  0  0  0  0  0  0  0  0
  141.6295   79.4295  224.5407 H   0  0  0  0  0  0  0  0  0  0  0  0
  142.6352   80.7505  221.9856 H   0  0  0  0  0  0  0  0  0  0  0  0
  143.6372   79.7750  223.1089 H   0  0  0  0  0  0  0  0  0  0  0  0
  142.0740   77.7940  222.5590 H   0  0  0  0  0  0  0  0  0  0  0  0
  142.1478   76.9506  219.8606 H   0  0  0  0  0  0  0  0  0  0  0  0
  141.4648   78.8322  218.0810 H   0  0  0  0  0  0  0  0  0  0  0  0
  140.7919   77.2538  217.7929 H   0  0  0  0  0  0  0  0  0  0  0  0
  138.7383   78.5741  218.0238 H   0  0  0  0  0  0  0  0  0  0  0  0
  140.5900   80.1790  219.2110 H   0  0  0  0  0  0  0  0  0  0  0  0
  138.4881   78.4884  220.7792 H   0  0  0  0  0  0  0  0  0  0  0  0
  138.1019   77.1541  219.7119 H   0  0  0  0  0  0  0  0  0  0  0  0
  138.3441   74.9779  220.9394 H   0  0  0  0  0  0  0  0  0  0  0  0
  139.8893   74.3656  220.2288 H   0  0  0  0  0  0  0  0  0  0  0  0
  139.5670   74.1650  223.2200 H   0  0  0  0  0  0  0  0  0  0  0  0
  139.0005   69.8992  221.9699 H   0  0  0  0  0  0  0  0  0  0  0  0
  139.1902   68.2625  223.8230 H   0  0  0  0  0  0  0  0  0  0  0  0
  139.8092   67.7890  226.0433 H   0  0  0  0  0  0  0  0  0  0  0  0
  141.4611   70.9076  228.5116 H   0  0  0  0  0  0  0  0  0  0  0  0
  141.2559   72.5277  226.6303 H   0  0  0  0  0  0  0  0  0  0  0  0
  1  2  1  0
  2  3  1  0
  3  4  1  0
  4  5  1  0
  5  6  1  0
  6  7  2  0
  6  8  1  0
  8  9  1  0
  9 10  1  0
 10 11  1  0
 10 12  1  0
 12 13  1  0
 13 14  1  0
 14 15  2  0
 14 16  1  0
 16 17  1  0
 17 18  1  0
 18 19  2  0
 18 20  1  0
 20 21  2  0
 21 22  1  0
 22 23  2  0
 23 24  1  0
 24 25  2  0
 25 26  1  0
 25 27  1  0
 27 28  2  0
 28 29  1  0
 29 30  2  0
 13  8  1  0
 30 20  1  0
 29 23  1  0
  1 31  1  0
  1 32  1  0
  1 33  1  0
  2 34  1  0
  2 35  1  0
  3 36  1  0
  3 37  1  0
  4 38  1  0
  4 39  1  0
  5 40  1  0
  8 41  1  6
  9 42  1  0
  9 43  1  0
 10 44  1  6
 11 45  1  0
 12 46  1  0
 12 47  1  0
 16 48  1  0
 16 49  1  0
 17 50  1  0
 21 51  1  0
 22 52  1  0
 24 53  1  0
 27 54  1  0
 28 55  1  0
M  END
>  <smiles>  (34) 
CCCCNC(=O)[C@@H]1C[C@H](O)CN1C(=O)CNC(=O)c1ccc2cc(Cl)ccc2n1

>  <score_type>  (34) 
oracle

>  <origin>  (34) 
autodockgpu

>  <m_score__min__energy>  (34) 
-7.9199999999999999

>  <m_primary>  (34) 
energy

>  <rmsd>  (34) 
5.710016725383785

>  <m_score__min__rmsd>  (34) 
5.710016725383785

>  <meeko>  (34) 
{"free_energy": -7.1, "intermolecular_energy": -9.78, "internal_energy": -3.52, "cluster_size": 32, "cluster_id": 1, "rank_in_cluster": 18}

>  <energy>  (34) 
-7.22

>  <cluster_rmsd>  (34) 
1.89

>  <cluster>  (34) 
2

$$$$

     RDKit          3D

 55 57  0  0  0  0  0  0  0  0999 V2000
  142.4280   81.2280  223.7480 C   0  0  0  0  0  0  0  0  0  0  0  0
  142.5240   79.8790  223.0240 C   0  0  0  0  0  0  0  0  0  0  0  0
  141.8190   78.8290  223.8570 C   0  0  0  0  0  0  0  0  0  0  0  0
  140.7550   78.1860  223.0250 C   0  0  0  0  0  0  0  0  0  0  0  0
  141.3700   77.2330  222.1220 N   0  0  0  0  0  0  0  0  0  0  0  0
  140.6900   75.9990  221.9310 C   0  0  0  0  0  0  0  0  0  0  0  0
  139.6100   75.8480  222.5680 O   0  0  0  0  0  0  0  0  0  0  0  0
  141.1910   74.9180  221.0360 C   0  0  2  0  0  0  0  0  0  0  0  0
  142.5750   75.2120  220.4940 C   0  0  0  0  0  0  0  0  0  0  0  0
  142.2620   76.2030  219.3960 C   0  0  2  0  0  0  0  0  0  0  0  0
  142.2460   77.4770  219.9530 O   0  0  0  0  0  0  0  0  0  0  0  0
  140.9400   75.8100  218.8230 C   0  0  0  0  0  0  0  0  0  0  0  0
  140.4110   74.9020  219.8150 N   0  0  0  0  0  0  0  0  0  0  0  0
  139.2640   74.0760  219.6500 C   0  0  0  0  0  0  0  0  0  0  0  0
  139.0950   73.3140  218.6600 O   0  0  0  0  0  0  0  0  0  0  0  0
  138.1830   74.0800  220.6730 C   0  0  0  0  0  0  0  0  0  0  0  0
  138.5590   73.3030  221.8220 N   0  0  0  0  0  0  0  0  0  0  0  0
  138.4860   71.8850  221.7780 C   0  0  0  0  0  0  0  0  0  0  0  0
  138.0910   71.2710  220.7320 O   0  0  0  0  0  0  0  0  0  0  0  0
  138.8810   71.1210  222.9810 C   0  0  0  0  0  0  0  0  0  0  0  0
  138.5080   69.7950  223.0940 C   0  0  0  0  0  0  0  0  0  0  0  0
  138.8410   69.0240  224.1860 C   0  0  0  0  0  0  0  0  0  0  0  0
  139.5760   69.6300  225.1890 C   0  0  0  0  0  0  0  0  0  0  0  0
  139.9070   68.8600  226.2790 C   0  0  0  0  0  0  0  0  0  0  0  0
  140.6410   69.4610  227.2820 C   0  0  0  0  0  0  0  0  0  0  0  0
  141.1050   68.5350  228.7140 Cl  0  0  0  0  0  0  0  0  0  0  0  0
  141.0220   70.7810  227.1880 C   0  0  0  0  0  0  0  0  0  0  0  0
  140.6710   71.5350  226.0720 C   0  0  0  0  0  0  0  0  0  0  0  0
  139.9330   70.9540  225.0490 C   0  0  0  0  0  0  0  0  0  0  0  0
  139.5860   71.6760  223.9590 N   0  0  0  0  0  0  0  0  0  0  0  0
  142.4398   81.0622  224.8354 H   0  0  0  0  0  0  0  0  0  0  0  0
  143.2836   81.8583  223.4639 H   0  0  0  0  0  0  0  0  0  0  0  0
  141.4918   81.7308  223.4639 H   0  0  0  0  0  0  0  0  0  0  0  0
  142.0428   79.9533  222.0376 H   0  0  0  0  0  0  0  0  0  0  0  0
  143.5796   79.6017  222.8870 H   0  0  0  0  0  0  0  0  0  0  0  0
  142.5435   78.0681  224.1827 H   0  0  0  0  0  0  0  0  0  0  0  0
  141.3671   79.2977  224.7436 H   0  0  0  0  0  0  0  0  0  0  0  0
  140.0403   77.6652  223.6792 H   0  0  0  0  0  0  0  0  0  0  0  0
  140.2223   78.9547  222.4459 H   0  0  0  0  0  0  0  0  0  0  0  0
  142.2660   77.4040  221.6160 H   0  0  0  0  0  0  0  0  0  0  0  0
  141.1517   74.0006  221.6417 H   0  0  0  0  0  0  0  0  0  0  0  0
  143.2225   75.6563  221.2642 H   0  0  0  0  0  0  0  0  0  0  0  0
  143.1225   74.3211  220.1526 H   0  0  0  0  0  0  0  0  0  0  0  0
  143.0102   76.2057  218.5897 H   0  0  0  0  0  0  0  0  0  0  0  0
  143.2020   77.7800  220.0590 H   0  0  0  0  0  0  0  0  0  0  0  0
  140.2862   76.6861  218.7007 H   0  0  0  0  0  0  0  0  0  0  0  0
  141.0185   75.3599  217.8224 H   0  0  0  0  0  0  0  0  0  0  0  0
  137.9888   75.1161  220.9872 H   0  0  0  0  0  0  0  0  0  0  0  0
  137.2793   73.6361  220.2300 H   0  0  0  0  0  0  0  0  0  0  0  0
  138.8950   73.7460  222.7220 H   0  0  0  0  0  0  0  0  0  0  0  0
  137.9235   69.3383  222.2818 H   0  0  0  0  0  0  0  0  0  0  0  0
  138.5350   67.9698  224.2574 H   0  0  0  0  0  0  0  0  0  0  0  0
  139.5990   67.8063  226.3491 H   0  0  0  0  0  0  0  0  0  0  0  0
  141.6062   71.2414  227.9984 H   0  0  0  0  0  0  0  0  0  0  0  0
  140.9775   72.5890  226.0004 H   0  0  0  0  0  0  0  0  0  0  0  0
  1  2  1  0
  2  3  1  0
  3  4  1  0
  4  5  1  0
  5  6  1  0
  6  7  2  0
  6  8  1  0
  8  9  1  0
  9 10  1  0
 10 11  1  0
 10 12  1  0
 12 13  1  0
 13 14  1  0
 14 15  2  0
 14 16  1  0
 16 17  1  0
 17 18  1  0
 18 19  2  0
 18 20  1  0
 20 21  2  0
 21 22  1  0
 22 23  2  0
 23 24  1  0
 24 25  2  0
 25 26  1  0
 25 27  1  0
 27 28  2  0
 28 29  1  0
 29 30  2  0
 13  8  1  0
 30 20  1  0
 29 23  1  0
  1 31  1  0
  1 32  1  0
  1 33  1  0
  2 34  1  0
  2 35  1  0
  3 36  1  0
  3 37  1  0
  4 38  1  0
  4 39  1  0
  5 40  1  0
  8 41  1  1
  9 42  1  0
  9 43  1  0
 10 44  1  6
 11 45  1  0
 12 46  1  0
 12 47  1  0
 16 48  1  0
 16 49  1  0
 17 50  1  0
 21 51  1  0
 22 52  1  0
 24 53  1  0
 27 54  1  0
 28 55  1  0
M  END
>  <smiles>  (35) 
CCCCNC(=O)[C@@H]1C[C@H](O)CN1C(=O)CNC(=O)c1ccc2cc(Cl)ccc2n1

>  <score_type>  (35) 
oracle

>  <origin>  (35) 
autodockgpu

>  <m_score__min__energy>  (35) 
-7.9199999999999999

>  <m_primary>  (35) 
energy

>  <rmsd>  (35) 
4.935269764589909

>  <m_score__min__rmsd>  (35) 
4.935269764589909

>  <meeko>  (35) 
{"free_energy": -7.92, "intermolecular_energy": -10.6, "internal_energy": -2.65, "cluster_size": 32, "cluster_id": 1, "rank_in_cluster": 1}

>  <energy>  (35) 
-7.07

>  <cluster_rmsd>  (35) 
1.62

>  <cluster>  (35) 
2

$$$$

     RDKit          3D

 55 57  0  0  0  0  0  0  0  0999 V2000
  143.6800   75.5860  219.7190 C   0  0  0  0  0  0  0  0  0  0  0  0
  142.6670   76.7370  219.6910 C   0  0  0  0  0  0  0  0  0  0  0  0
  142.9110   77.5700  218.4500 C   0  0  0  0  0  0  0  0  0  0  0  0
  142.0380   78.7830  218.5010 C   0  0  0  0  0  0  0  0  0  0  0  0
  141.1610   78.6870  219.6530 N   0  0  0  0  0  0  0  0  0  0  0  0
  141.3170   79.6760  220.6620 C   0  0  0  0  0  0  0  0  0  0  0  0
  142.2080   80.5480  220.4610 O   0  0  0  0  0  0  0  0  0  0  0  0
  140.4930   79.7160  221.9030 C   0  0  2  0  0  0  0  0  0  0  0  0
  141.1090   80.5880  222.9780 C   0  0  0  0  0  0  0  0  0  0  0  0
  142.1840   79.6750  223.5240 C   0  0  2  0  0  0  0  0  0  0  0  0
  143.3340   79.8560  222.7640 O   0  0  0  0  0  0  0  0  0  0  0  0
  141.6520   78.2820  223.4370 C   0  0  0  0  0  0  0  0  0  0  0  0
  140.5240   78.4170  222.5440 N   0  0  0  0  0  0  0  0  0  0  0  0
  139.5400   77.4180  222.2990 C   0  0  0  0  0  0  0  0  0  0  0  0
  138.3640   77.4790  222.7480 O   0  0  0  0  0  0  0  0  0  0  0  0
  139.8750   76.2230  221.4780 C   0  0  0  0  0  0  0  0  0  0  0  0
  139.6660   75.0120  222.2230 N   0  0  0  0  0  0  0  0  0  0  0  0
  140.1690   73.7780  221.7320 C   0  0  0  0  0  0  0  0  0  0  0  0
  140.8110   73.7110  220.6320 O   0  0  0  0  0  0  0  0  0  0  0  0
  139.9330   72.5530  222.5280 C   0  0  0  0  0  0  0  0  0  0  0  0
  138.9840   71.6430  222.1040 C   0  0  0  0  0  0  0  0  0  0  0  0
  138.7130   70.4830  222.7950 C   0  0  0  0  0  0  0  0  0  0  0  0
  139.4350   70.2510  223.9530 C   0  0  0  0  0  0  0  0  0  0  0  0
  139.1630   69.0930  224.6430 C   0  0  0  0  0  0  0  0  0  0  0  0
  139.8820   68.8590  225.7980 C   0  0  0  0  0  0  0  0  0  0  0  0
  139.5880   67.3910  226.7380 Cl  0  0  0  0  0  0  0  0  0  0  0  0
  140.8310   69.7540  226.2360 C   0  0  0  0  0  0  0  0  0  0  0  0
  141.0830   70.9170  225.5160 C   0  0  0  0  0  0  0  0  0  0  0  0
  140.3750   71.1780  224.3510 C   0  0  0  0  0  0  0  0  0  0  0  0
  140.6110   72.3050  223.6420 N   0  0  0  0  0  0  0  0  0  0  0  0
  143.9097   75.3250  220.7626 H   0  0  0  0  0  0  0  0  0  0  0  0
  143.2542   74.7103  219.2072 H   0  0  0  0  0  0  0  0  0  0  0  0
  144.6027   75.8971  219.2072 H   0  0  0  0  0  0  0  0  0  0  0  0
  141.6453   76.3301  219.6685 H   0  0  0  0  0  0  0  0  0  0  0  0
  142.7842   77.3607  220.5895 H   0  0  0  0  0  0  0  0  0  0  0  0
  143.9668   77.8763  218.4127 H   0  0  0  0  0  0  0  0  0  0  0  0
  142.6757   76.9791  217.5525 H   0  0  0  0  0  0  0  0  0  0  0  0
  142.6633   79.6838  218.5878 H   0  0  0  0  0  0  0  0  0  0  0  0
  141.4375   78.8470  217.5816 H   0  0  0  0  0  0  0  0  0  0  0  0
  140.4370   77.9460  219.7720 H   0  0  0  0  0  0  0  0  0  0  0  0
  139.5018   80.0675  221.5805 H   0  0  0  0  0  0  0  0  0  0  0  0
  141.5393   81.5068  222.5530 H   0  0  0  0  0  0  0  0  0  0  0  0
  140.3932   80.9420  223.7345 H   0  0  0  0  0  0  0  0  0  0  0  0
  142.4439   79.8904  224.5709 H   0  0  0  0  0  0  0  0  0  0  0  0
  143.2350   79.3130  221.9190 H   0  0  0  0  0  0  0  0  0  0  0  0
  142.4053   77.5969  223.0208 H   0  0  0  0  0  0  0  0  0  0  0  0
  141.3802   77.8611  224.4163 H   0  0  0  0  0  0  0  0  0  0  0  0
  139.2350   76.2101  220.5834 H   0  0  0  0  0  0  0  0  0  0  0  0
  140.9356   76.2802  221.1919 H   0  0  0  0  0  0  0  0  0  0  0  0
  139.1430   74.9940  223.1420 H   0  0  0  0  0  0  0  0  0  0  0  0
  138.4243   71.8527  221.1806 H   0  0  0  0  0  0  0  0  0  0  0  0
  137.9538   69.7699  222.4412 H   0  0  0  0  0  0  0  0  0  0  0  0
  138.4027   68.3814  224.2887 H   0  0  0  0  0  0  0  0  0  0  0  0
  141.3926   69.5488  227.1593 H   0  0  0  0  0  0  0  0  0  0  0  0
  141.8428   71.6295  225.8696 H   0  0  0  0  0  0  0  0  0  0  0  0
  1  2  1  0
  2  3  1  0
  3  4  1  0
  4  5  1  0
  5  6  1  0
  6  7  2  0
  6  8  1  0
  8  9  1  0
  9 10  1  0
 10 11  1  0
 10 12  1  0
 12 13  1  0
 13 14  1  0
 14 15  2  0
 14 16  1  0
 16 17  1  0
 17 18  1  0
 18 19  2  0
 18 20  1  0
 20 21  2  0
 21 22  1  0
 22 23  2  0
 23 24  1  0
 24 25  2  0
 25 26  1  0
 25 27  1  0
 27 28  2  0
 28 29  1  0
 29 30  2  0
 13  8  1  0
 30 20  1  0
 29 23  1  0
  1 31  1  0
  1 32  1  0
  1 33  1  0
  2 34  1  0
  2 35  1  0
  3 36  1  0
  3 37  1  0
  4 38  1  0
  4 39  1  0
  5 40  1  0
  8 41  1  6
  9 42  1  0
  9 43  1  0
 10 44  1  1
 11 45  1  0
 12 46  1  0
 12 47  1  0
 16 48  1  0
 16 49  1  0
 17 50  1  0
 21 51  1  0
 22 52  1  0
 24 53  1  0
 27 54  1  0
 28 55  1  0
M  END
>  <smiles>  (36) 
CCCCNC(=O)[C@@H]1C[C@H](O)CN1C(=O)CNC(=O)c1ccc2cc(Cl)ccc2n1

>  <score_type>  (36) 
oracle

>  <origin>  (36) 
autodockgpu

>  <m_score__min__energy>  (36) 
-7.9199999999999999

>  <m_primary>  (36) 
energy

>  <rmsd>  (36) 
5.0008774231905235

>  <m_score__min__rmsd>  (36) 
5.0008774231905235

>  <meeko>  (36) 
{"free_energy": -7.53, "intermolecular_energy": -10.21, "internal_energy": -2.54, "cluster_size": 32, "cluster_id": 1, "rank_in_cluster": 9}

>  <energy>  (36) 
-6.26

>  <cluster_rmsd>  (36) 
1.87

>  <cluster>  (36) 
2

$$$$

     RDKit          3D

 55 57  0  0  0  0  0  0  0  0999 V2000
  141.4000   81.9450  221.1540 C   0  0  0  0  0  0  0  0  0  0  0  0
  141.4610   81.6150  222.6500 C   0  0  0  0  0  0  0  0  0  0  0  0
  140.1890   80.8920  223.0420 C   0  0  0  0  0  0  0  0  0  0  0  0
  140.5470   79.6850  223.8490 C   0  0  0  0  0  0  0  0  0  0  0  0
  140.3680   78.4990  223.0350 N   0  0  0  0  0  0  0  0  0  0  0  0
  141.4480   78.1350  222.1850 C   0  0  0  0  0  0  0  0  0  0  0  0
  142.4650   78.8810  222.2180 O   0  0  0  0  0  0  0  0  0  0  0  0
  141.4180   76.9450  221.2890 C   0  0  2  0  0  0  0  0  0  0  0  0
  142.2900   77.1230  220.0620 C   0  0  0  0  0  0  0  0  0  0  0  0
  141.4130   78.0010  219.1980 C   0  0  2  0  0  0  0  0  0  0  0  0
  141.6650   79.3270  219.5290 O   0  0  0  0  0  0  0  0  0  0  0  0
  140.0000   77.6000  219.4690 C   0  0  0  0  0  0  0  0  0  0  0  0
  140.1070   76.8270  220.6860 N   0  0  0  0  0  0  0  0  0  0  0  0
  139.0710   76.0330  221.2530 C   0  0  0  0  0  0  0  0  0  0  0  0
  138.2460   76.4710  222.0990 O   0  0  0  0  0  0  0  0  0  0  0  0
  138.9180   74.6060  220.8570 C   0  0  0  0  0  0  0  0  0  0  0  0
  139.1230   73.7350  221.9820 N   0  0  0  0  0  0  0  0  0  0  0  0
  139.3260   72.3440  221.7780 C   0  0  0  0  0  0  0  0  0  0  0  0
  139.3320   71.8370  220.6080 O   0  0  0  0  0  0  0  0  0  0  0  0
  139.5320   71.4810  222.9610 C   0  0  0  0  0  0  0  0  0  0  0  0
  139.1080   70.1660  222.9220 C   0  0  0  0  0  0  0  0  0  0  0  0
  139.2670   69.3070  223.9870 C   0  0  0  0  0  0  0  0  0  0  0  0
  139.8790   69.8100  225.1220 C   0  0  0  0  0  0  0  0  0  0  0  0
  140.0370   68.9510  226.1840 C   0  0  0  0  0  0  0  0  0  0  0  0
  140.6470   69.4500  227.3170 C   0  0  0  0  0  0  0  0  0  0  0  0
  140.8870   68.4060  228.7240 Cl  0  0  0  0  0  0  0  0  0  0  0  0
  141.0770   70.7570  227.3750 C   0  0  0  0  0  0  0  0  0  0  0  0
  140.9020   71.6010  226.2830 C   0  0  0  0  0  0  0  0  0  0  0  0
  140.2910   71.1250  225.1310 C   0  0  0  0  0  0  0  0  0  0  0  0
  140.1150   71.9360  224.0630 N   0  0  0  0  0  0  0  0  0  0  0  0
  141.2015   83.0190  221.0232 H   0  0  0  0  0  0  0  0  0  0  0  0
  142.3606   81.6896  220.6827 H   0  0  0  0  0  0  0  0  0  0  0  0
  140.5942   81.3631  220.6827 H   0  0  0  0  0  0  0  0  0  0  0  0
  142.3296   80.9709  222.8515 H   0  0  0  0  0  0  0  0  0  0  0  0
  141.5593   82.5421  223.2338 H   0  0  0  0  0  0  0  0  0  0  0  0
  139.5534   81.5611  223.6405 H   0  0  0  0  0  0  0  0  0  0  0  0
  139.6401   80.5871  222.1388 H   0  0  0  0  0  0  0  0  0  0  0  0
  141.5964   79.7555  224.1712 H   0  0  0  0  0  0  0  0  0  0  0  0
  139.8986   79.6268  224.7357 H   0  0  0  0  0  0  0  0  0  0  0  0
  139.5050   77.9120  223.0430 H   0  0  0  0  0  0  0  0  0  0  0  0
  141.7316   76.1008  221.9207 H   0  0  0  0  0  0  0  0  0  0  0  0
  143.2381   77.6221  220.3111 H   0  0  0  0  0  0  0  0  0  0  0  0
  142.5919   76.1794  219.5840 H   0  0  0  0  0  0  0  0  0  0  0  0
  141.6135   77.8870  218.1224 H   0  0  0  0  0  0  0  0  0  0  0  0
  142.4860   79.3480  220.1160 H   0  0  0  0  0  0  0  0  0  0  0  0
  139.3603   78.4826  219.6166 H   0  0  0  0  0  0  0  0  0  0  0  0
  139.5424   77.0405  218.6398 H   0  0  0  0  0  0  0  0  0  0  0  0
  137.9039   74.4493  220.4607 H   0  0  0  0  0  0  0  0  0  0  0  0
  139.6714   74.3720  220.0904 H   0  0  0  0  0  0  0  0  0  0  0  0
  139.1300   74.0880  222.9790 H   0  0  0  0  0  0  0  0  0  0  0  0
  138.6259   69.7917  222.0069 H   0  0  0  0  0  0  0  0  0  0  0  0
  138.9217   68.2638  223.9375 H   0  0  0  0  0  0  0  0  0  0  0  0
  139.6911   67.9081  226.1326 H   0  0  0  0  0  0  0  0  0  0  0  0
  141.5605   71.1349  228.2879 H   0  0  0  0  0  0  0  0  0  0  0  0
  141.2473   72.6442  226.3324 H   0  0  0  0  0  0  0  0  0  0  0  0
  1  2  1  0
  2  3  1  0
  3  4  1  0
  4  5  1  0
  5  6  1  0
  6  7  2  0
  6  8  1  0
  8  9  1  0
  9 10  1  0
 10 11  1  0
 10 12  1  0
 12 13  1  0
 13 14  1  0
 14 15  2  0
 14 16  1  0
 16 17  1  0
 17 18  1  0
 18 19  2  0
 18 20  1  0
 20 21  2  0
 21 22  1  0
 22 23  2  0
 23 24  1  0
 24 25  2  0
 25 26  1  0
 25 27  1  0
 27 28  2  0
 28 29  1  0
 29 30  2  0
 13  8  1  0
 30 20  1  0
 29 23  1  0
  1 31  1  0
  1 32  1  0
  1 33  1  0
  2 34  1  0
  2 35  1  0
  3 36  1  0
  3 37  1  0
  4 38  1  0
  4 39  1  0
  5 40  1  0
  8 41  1  1
  9 42  1  0
  9 43  1  0
 10 44  1  6
 11 45  1  0
 12 46  1  0
 12 47  1  0
 16 48  1  0
 16 49  1  0
 17 50  1  0
 21 51  1  0
 22 52  1  0
 24 53  1  0
 27 54  1  0
 28 55  1  0
M  END
>  <smiles>  (37) 
CCCCNC(=O)[C@@H]1C[C@H](O)CN1C(=O)CNC(=O)c1ccc2cc(Cl)ccc2n1

>  <score_type>  (37) 
oracle

>  <origin>  (37) 
autodockgpu

>  <m_score__min__energy>  (37) 
-7.9199999999999999

>  <m_primary>  (37) 
energy

>  <rmsd>  (37) 
5.660923961758024

>  <m_score__min__rmsd>  (37) 
5.660923961758024

>  <meeko>  (37) 
{"free_energy": -6.9, "intermolecular_energy": -9.59, "internal_energy": -3.18, "cluster_size": 32, "cluster_id": 1, "rank_in_cluster": 22}

>  <energy>  (37) 
-6.17

>  <cluster_rmsd>  (37) 
1.97

>  <cluster>  (37) 
2

$$$$

     RDKit          3D

 55 57  0  0  0  0  0  0  0  0999 V2000
  142.2260   79.7440  218.6220 C   0  0  0  0  0  0  0  0  0  0  0  0
  141.8160   78.4820  217.8550 C   0  0  0  0  0  0  0  0  0  0  0  0
  141.8450   77.3020  218.8050 C   0  0  0  0  0  0  0  0  0  0  0  0
  143.2530   76.8170  218.9310 C   0  0  0  0  0  0  0  0  0  0  0  0
  143.3380   75.8930  220.0460 N   0  0  0  0  0  0  0  0  0  0  0  0
  143.9050   74.6160  219.7780 C   0  0  0  0  0  0  0  0  0  0  0  0
  144.2810   74.4060  218.5920 O   0  0  0  0  0  0  0  0  0  0  0  0
  144.0630   73.5580  220.8160 C   0  0  2  0  0  0  0  0  0  0  0  0
  145.5170   73.2560  221.1170 C   0  0  0  0  0  0  0  0  0  0  0  0
  145.8920   72.3870  219.9370 C   0  0  2  0  0  0  0  0  0  0  0  0
  146.3120   73.2170  218.9030 O   0  0  0  0  0  0  0  0  0  0  0  0
  144.6760   71.5960  219.5800 C   0  0  0  0  0  0  0  0  0  0  0  0
  143.6180   72.2880  220.2810 N   0  0  0  0  0  0  0  0  0  0  0  0
  142.2880   71.8100  220.4460 C   0  0  0  0  0  0  0  0  0  0  0  0
  141.7430   70.9880  219.6620 O   0  0  0  0  0  0  0  0  0  0  0  0
  141.4600   72.2810  221.5900 C   0  0  0  0  0  0  0  0  0  0  0  0
  141.3500   73.7140  221.5910 N   0  0  0  0  0  0  0  0  0  0  0  0
  140.1310   74.3350  221.9710 C   0  0  0  0  0  0  0  0  0  0  0  0
  139.1130   73.6480  222.3170 O   0  0  0  0  0  0  0  0  0  0  0  0
  140.0580   75.8120  221.9580 C   0  0  0  0  0  0  0  0  0  0  0  0
  138.8230   76.4280  221.8940 C   0  0  0  0  0  0  0  0  0  0  0  0
  138.6810   77.7980  221.8780 C   0  0  0  0  0  0  0  0  0  0  0  0
  139.8370   78.5560  221.9300 C   0  0  0  0  0  0  0  0  0  0  0  0
  139.6950   79.9240  221.9140 C   0  0  0  0  0  0  0  0  0  0  0  0
  140.8460   80.6830  221.9660 C   0  0  0  0  0  0  0  0  0  0  0  0
  140.7440   82.4470  221.9490 Cl  0  0  0  0  0  0  0  0  0  0  0  0
  142.0860   80.0870  222.0300 C   0  0  0  0  0  0  0  0  0  0  0  0
  142.1980   78.7000  222.0450 C   0  0  0  0  0  0  0  0  0  0  0  0
  141.0550   77.9130  221.9940 C   0  0  0  0  0  0  0  0  0  0  0  0
  141.1510   76.5640  222.0070 N   0  0  0  0  0  0  0  0  0  0  0  0
  142.1637   79.5523  219.7034 H   0  0  0  0  0  0  0  0  0  0  0  0
  143.2585   80.0152  218.3565 H   0  0  0  0  0  0  0  0  0  0  0  0
  141.5501   80.5702  218.3565 H   0  0  0  0  0  0  0  0  0  0  0  0
  140.8000   78.6077  217.4526 H   0  0  0  0  0  0  0  0  0  0  0  0
  142.5128   78.3082  217.0218 H   0  0  0  0  0  0  0  0  0  0  0  0
  141.4718   77.6131  219.7919 H   0  0  0  0  0  0  0  0  0  0  0  0
  141.2060   76.4951  218.4169 H   0  0  0  0  0  0  0  0  0  0  0  0
  143.5505   76.3045  218.0043 H   0  0  0  0  0  0  0  0  0  0  0  0
  143.9251   77.6703  219.1044 H   0  0  0  0  0  0  0  0  0  0  0  0
  143.0130   76.1150  221.0110 H   0  0  0  0  0  0  0  0  0  0  0  0
  143.5109   73.9284  221.6924 H   0  0  0  0  0  0  0  0  0  0  0  0
  146.1207   74.1750  221.1478 H   0  0  0  0  0  0  0  0  0  0  0  0
  145.6846   72.7823  222.0955 H   0  0  0  0  0  0  0  0  0  0  0  0
  146.7155   71.6915  220.1563 H   0  0  0  0  0  0  0  0  0  0  0  0
  146.1010   74.1680  219.1650 H   0  0  0  0  0  0  0  0  0  0  0  0
  144.5028   71.6065  218.4938 H   0  0  0  0  0  0  0  0  0  0  0  0
  144.7546   70.5339  219.8551 H   0  0  0  0  0  0  0  0  0  0  0  0
  140.4541   71.8431  221.5102 H   0  0  0  0  0  0  0  0  0  0  0  0
  141.9444   71.9662  222.5261 H   0  0  0  0  0  0  0  0  0  0  0  0
  142.1540   74.3440  221.3160 H   0  0  0  0  0  0  0  0  0  0  0  0
  137.9198   75.8013  221.8544 H   0  0  0  0  0  0  0  0  0  0  0  0
  137.6888   78.2701  221.8260 H   0  0  0  0  0  0  0  0  0  0  0  0
  138.7022   80.3947  221.8618 H   0  0  0  0  0  0  0  0  0  0  0  0
  142.9917   80.7100  222.0694 H   0  0  0  0  0  0  0  0  0  0  0  0
  143.1902   78.2279  222.0972 H   0  0  0  0  0  0  0  0  0  0  0  0
  1  2  1  0
  2  3  1  0
  3  4  1  0
  4  5  1  0
  5  6  1  0
  6  7  2  0
  6  8  1  0
  8  9  1  0
  9 10  1  0
 10 11  1  0
 10 12  1  0
 12 13  1  0
 13 14  1  0
 14 15  2  0
 14 16  1  0
 16 17  1  0
 17 18  1  0
 18 19  2  0
 18 20  1  0
 20 21  2  0
 21 22  1  0
 22 23  2  0
 23 24  1  0
 24 25  2  0
 25 26  1  0
 25 27  1  0
 27 28  2  0
 28 29  1  0
 29 30  2  0
 13  8  1  0
 30 20  1  0
 29 23  1  0
  1 31  1  0
  1 32  1  0
  1 33  1  0
  2 34  1  0
  2 35  1  0
  3 36  1  0
  3 37  1  0
  4 38  1  0
  4 39  1  0
  5 40  1  0
  8 41  1  1
  9 42  1  0
  9 43  1  0
 10 44  1  1
 11 45  1  0
 12 46  1  0
 12 47  1  0
 16 48  1  0
 16 49  1  0
 17 50  1  0
 21 51  1  0
 22 52  1  0
 24 53  1  0
 27 54  1  0
 28 55  1  0
M  END
>  <smiles>  (38) 
CCCCNC(=O)[C@@H]1C[C@H](O)CN1C(=O)CNC(=O)c1ccc2cc(Cl)ccc2n1

>  <score_type>  (38) 
oracle

>  <origin>  (38) 
autodockgpu

>  <m_score__min__energy>  (38) 
-7.9199999999999999

>  <m_primary>  (38) 
energy

>  <rmsd>  (38) 
6.788872504133676

>  <m_score__min__rmsd>  (38) 
6.788872504133676

>  <meeko>  (38) 
{"free_energy": -6.55, "intermolecular_energy": -9.24, "internal_energy": -3.54, "cluster_size": 7, "cluster_id": 4, "rank_in_cluster": 4}

>  <energy>  (38) 
-6.78

>  <cluster_rmsd>  (38) 
0.0

>  <cluster>  (38) 
3

$$$$

     RDKit          3D

 55 57  0  0  0  0  0  0  0  0999 V2000
  145.2990   72.4960  220.1340 C   0  0  0  0  0  0  0  0  0  0  0  0
  145.5790   73.8990  220.6840 C   0  0  0  0  0  0  0  0  0  0  0  0
  144.3530   74.7620  220.4690 C   0  0  0  0  0  0  0  0  0  0  0  0
  143.1650   73.8750  220.2780 C   0  0  0  0  0  0  0  0  0  0  0  0
  141.9560   74.6550  220.4630 N   0  0  0  0  0  0  0  0  0  0  0  0
  141.1850   74.9280  219.3000 C   0  0  0  0  0  0  0  0  0  0  0  0
  141.6260   74.4640  218.2120 O   0  0  0  0  0  0  0  0  0  0  0  0
  139.9190   75.7140  219.3230 C   0  0  2  0  0  0  0  0  0  0  0  0
  140.1660   77.2060  219.4230 C   0  0  0  0  0  0  0  0  0  0  0  0
  140.4830   77.3580  220.8940 C   0  0  2  0  0  0  0  0  0  0  0  0
  141.8470   77.1530  221.0690 O   0  0  0  0  0  0  0  0  0  0  0  0
  139.6530   76.3510  221.6200 C   0  0  0  0  0  0  0  0  0  0  0  0
  139.2180   75.4630  220.5660 N   0  0  0  0  0  0  0  0  0  0  0  0
  138.2240   74.4530  220.6950 C   0  0  0  0  0  0  0  0  0  0  0  0
  137.0860   74.6600  221.1930 O   0  0  0  0  0  0  0  0  0  0  0  0
  138.5020   73.0660  220.2320 C   0  0  0  0  0  0  0  0  0  0  0  0
  138.6990   72.1810  221.3470 N   0  0  0  0  0  0  0  0  0  0  0  0
  139.6300   72.5140  222.3650 C   0  0  0  0  0  0  0  0  0  0  0  0
  140.3080   73.5940  222.3200 O   0  0  0  0  0  0  0  0  0  0  0  0
  139.8050   71.5770  223.4960 C   0  0  0  0  0  0  0  0  0  0  0  0
  139.4210   70.2580  223.3480 C   0  0  0  0  0  0  0  0  0  0  0  0
  139.5550   69.3310  224.3590 C   0  0  0  0  0  0  0  0  0  0  0  0
  140.0970   69.7710  225.5540 C   0  0  0  0  0  0  0  0  0  0  0  0
  140.2300   68.8450  226.5620 C   0  0  0  0  0  0  0  0  0  0  0  0
  140.7710   69.2800  227.7550 C   0  0  0  0  0  0  0  0  0  0  0  0
  140.9730   68.1490  229.0980 Cl  0  0  0  0  0  0  0  0  0  0  0  0
  141.1590   70.5910  227.9220 C   0  0  0  0  0  0  0  0  0  0  0  0
  141.0110   71.5040  226.8830 C   0  0  0  0  0  0  0  0  0  0  0  0
  140.4700   71.0920  225.6720 C   0  0  0  0  0  0  0  0  0  0  0  0
  140.3220   71.9700  224.6540 N   0  0  0  0  0  0  0  0  0  0  0  0
  145.1592   71.7954  220.9705 H   0  0  0  0  0  0  0  0  0  0  0  0
  144.3877   72.5186  219.5184 H   0  0  0  0  0  0  0  0  0  0  0  0
  146.1492   72.1671  219.5184 H   0  0  0  0  0  0  0  0  0  0  0  0
  145.8031   73.8366  221.7591 H   0  0  0  0  0  0  0  0  0  0  0  0
  146.4417   74.3392  220.1625 H   0  0  0  0  0  0  0  0  0  0  0  0
  144.1959   75.4059  221.3469 H   0  0  0  0  0  0  0  0  0  0  0  0
  144.4932   75.3944  219.5799 H   0  0  0  0  0  0  0  0  0  0  0  0
  143.1796   73.4534  219.2621 H   0  0  0  0  0  0  0  0  0  0  0  0
  143.1929   73.0551  221.0107 H   0  0  0  0  0  0  0  0  0  0  0  0
  141.6310   75.0160  221.3860 H   0  0  0  0  0  0  0  0  0  0  0  0
  139.3849   75.4273  218.4051 H   0  0  0  0  0  0  0  0  0  0  0  0
  141.0137   77.5165  218.7946 H   0  0  0  0  0  0  0  0  0  0  0  0
  139.3249   77.8252  219.0779 H   0  0  0  0  0  0  0  0  0  0  0  0
  140.2490   78.3590  221.2854 H   0  0  0  0  0  0  0  0  0  0  0  0
  141.9830   76.7540  221.9850 H   0  0  0  0  0  0  0  0  0  0  0  0
  140.2519   75.8116  222.3686 H   0  0  0  0  0  0  0  0  0  0  0  0
  138.8186   76.8004  222.1784 H   0  0  0  0  0  0  0  0  0  0  0  0
  137.6501   72.7084  219.6350 H   0  0  0  0  0  0  0  0  0  0  0  0
  139.4199   73.0760  219.6259 H   0  0  0  0  0  0  0  0  0  0  0  0
  138.1710   71.2700  221.4480 H   0  0  0  0  0  0  0  0  0  0  0  0
  138.9924   69.9358  222.3875 H   0  0  0  0  0  0  0  0  0  0  0  0
  139.2441   68.2848  224.2218 H   0  0  0  0  0  0  0  0  0  0  0  0
  139.9177   67.7994  226.4231 H   0  0  0  0  0  0  0  0  0  0  0  0
  141.5877   70.9174  228.8810 H   0  0  0  0  0  0  0  0  0  0  0  0
  141.3218   72.5502  227.0202 H   0  0  0  0  0  0  0  0  0  0  0  0
  1  2  1  0
  2  3  1  0
  3  4  1  0
  4  5  1  0
  5  6  1  0
  6  7  2  0
  6  8  1  0
  8  9  1  0
  9 10  1  0
 10 11  1  0
 10 12  1  0
 12 13  1  0
 13 14  1  0
 14 15  2  0
 14 16  1  0
 16 17  1  0
 17 18  1  0
 18 19  2  0
 18 20  1  0
 20 21  2  0
 21 22  1  0
 22 23  2  0
 23 24  1  0
 24 25  2  0
 25 26  1  0
 25 27  1  0
 27 28  2  0
 28 29  1  0
 29 30  2  0
 13  8  1  0
 30 20  1  0
 29 23  1  0
  1 31  1  0
  1 32  1  0
  1 33  1  0
  2 34  1  0
  2 35  1  0
  3 36  1  0
  3 37  1  0
  4 38  1  0
  4 39  1  0
  5 40  1  0
  8 41  1  6
  9 42  1  0
  9 43  1  0
 10 44  1  1
 11 45  1  0
 12 46  1  0
 12 47  1  0
 16 48  1  0
 16 49  1  0
 17 50  1  0
 21 51  1  0
 22 52  1  0
 24 53  1  0
 27 54  1  0
 28 55  1  0
M  END
>  <smiles>  (39) 
CCCCNC(=O)[C@@H]1C[C@H](O)CN1C(=O)CNC(=O)c1ccc2cc(Cl)ccc2n1

>  <score_type>  (39) 
oracle

>  <origin>  (39) 
autodockgpu

>  <m_score__min__energy>  (39) 
-7.9199999999999999

>  <m_primary>  (39) 
energy

>  <rmsd>  (39) 
4.751418547674261

>  <m_score__min__rmsd>  (39) 
4.751418547674261

>  <meeko>  (39) 
{"free_energy": -6.5, "intermolecular_energy": -9.18, "internal_energy": -2.84, "cluster_size": 32, "cluster_id": 1, "rank_in_cluster": 29}

>  <energy>  (39) 
-6.27

>  <cluster_rmsd>  (39) 
0.58

>  <cluster>  (39) 
3

$$$$

     RDKit          3D

 55 57  0  0  0  0  0  0  0  0999 V2000
  142.8930   77.2740  218.3650 C   0  0  0  0  0  0  0  0  0  0  0  0
  142.3630   78.1480  217.2220 C   0  0  0  0  0  0  0  0  0  0  0  0
  141.6000   79.3150  217.8130 C   0  0  0  0  0  0  0  0  0  0  0  0
  142.5650   80.2310  218.4940 C   0  0  0  0  0  0  0  0  0  0  0  0
  141.8800   80.9330  219.5620 N   0  0  0  0  0  0  0  0  0  0  0  0
  141.6500   80.2070  220.7630 C   0  0  0  0  0  0  0  0  0  0  0  0
  142.0640   79.0150  220.7860 O   0  0  0  0  0  0  0  0  0  0  0  0
  140.9620   80.7860  221.9500 C   0  0  2  0  0  0  0  0  0  0  0  0
  141.8950   81.6080  222.8160 C   0  0  0  0  0  0  0  0  0  0  0  0
  142.6360   80.5240  223.5680 C   0  0  2  0  0  0  0  0  0  0  0  0
  143.7340   80.1400  222.8060 O   0  0  0  0  0  0  0  0  0  0  0  0
  141.6670   79.4080  223.7820 C   0  0  0  0  0  0  0  0  0  0  0  0
  140.5970   79.7230  222.8630 N   0  0  0  0  0  0  0  0  0  0  0  0
  139.3240   79.0860  222.8290 C   0  0  0  0  0  0  0  0  0  0  0  0
  138.5230   79.0850  223.8020 O   0  0  0  0  0  0  0  0  0  0  0  0
  138.8760   78.3720  221.6020 C   0  0  0  0  0  0  0  0  0  0  0  0
  139.8060   77.3370  221.2410 N   0  0  0  0  0  0  0  0  0  0  0  0
  139.7250   76.0600  221.8580 C   0  0  0  0  0  0  0  0  0  0  0  0
  138.8380   75.8000  222.7370 O   0  0  0  0  0  0  0  0  0  0  0  0
  140.7000   75.0220  221.4600 C   0  0  0  0  0  0  0  0  0  0  0  0
  140.3970   73.6910  221.6730 C   0  0  0  0  0  0  0  0  0  0  0  0
  141.2570   72.6720  221.3280 C   0  0  0  0  0  0  0  0  0  0  0  0
  142.4620   73.0290  220.7480 C   0  0  0  0  0  0  0  0  0  0  0  0
  143.3210   72.0120  220.4040 C   0  0  0  0  0  0  0  0  0  0  0  0
  144.5230   72.3640  219.8250 C   0  0  0  0  0  0  0  0  0  0  0  0
  145.6780   71.1120  219.3550 Cl  0  0  0  0  0  0  0  0  0  0  0  0
  144.8430   73.6850  219.6040 C   0  0  0  0  0  0  0  0  0  0  0  0
  143.9530   74.6920  219.9640 C   0  0  0  0  0  0  0  0  0  0  0  0
  142.7370   74.3650  220.5480 C   0  0  0  0  0  0  0  0  0  0  0  0
  141.8630   75.3350  220.9020 N   0  0  0  0  0  0  0  0  0  0  0  0
  142.6189   77.7260  219.3296 H   0  0  0  0  0  0  0  0  0  0  0  0
  142.4522   76.2688  218.2927 H   0  0  0  0  0  0  0  0  0  0  0  0
  143.9881   77.2002  218.2927 H   0  0  0  0  0  0  0  0  0  0  0  0
  143.2054   78.5229  216.6222 H   0  0  0  0  0  0  0  0  0  0  0  0
  141.6982   77.5556  216.5761 H   0  0  0  0  0  0  0  0  0  0  0  0
  141.0781   79.8585  217.0116 H   0  0  0  0  0  0  0  0  0  0  0  0
  140.8607   78.9466  218.5394 H   0  0  0  0  0  0  0  0  0  0  0  0
  143.3965   79.6449  218.9125 H   0  0  0  0  0  0  0  0  0  0  0  0
  142.9621   80.9565  217.7687 H   0  0  0  0  0  0  0  0  0  0  0  0
  141.5580   81.9230  219.4950 H   0  0  0  0  0  0  0  0  0  0  0  0
  140.1268   81.3731  221.5404 H   0  0  0  0  0  0  0  0  0  0  0  0
  142.5802   82.2149  222.2059 H   0  0  0  0  0  0  0  0  0  0  0  0
  141.3837   82.3356  223.4634 H   0  0  0  0  0  0  0  0  0  0  0  0
  143.0144   80.8570  224.5457 H   0  0  0  0  0  0  0  0  0  0  0  0
  143.4170   79.4600  222.1300 H   0  0  0  0  0  0  0  0  0  0  0  0
  142.1231   78.4369  223.5393 H   0  0  0  0  0  0  0  0  0  0  0  0
  141.3298   79.3220  224.8255 H   0  0  0  0  0  0  0  0  0  0  0  0
  137.8900   77.9211  221.7877 H   0  0  0  0  0  0  0  0  0  0  0  0
  138.8187   79.0960  220.7759 H   0  0  0  0  0  0  0  0  0  0  0  0
  140.5660   77.4830  220.5210 H   0  0  0  0  0  0  0  0  0  0  0  0
  139.4323   73.4354  222.1357 H   0  0  0  0  0  0  0  0  0  0  0  0
  140.9970   71.6181  221.5060 H   0  0  0  0  0  0  0  0  0  0  0  0
  143.0601   70.9586  220.5834 H   0  0  0  0  0  0  0  0  0  0  0  0
  145.8063   73.9451  219.1409 H   0  0  0  0  0  0  0  0  0  0  0  0
  144.2127   75.7460  219.7860 H   0  0  0  0  0  0  0  0  0  0  0  0
  1  2  1  0
  2  3  1  0
  3  4  1  0
  4  5  1  0
  5  6  1  0
  6  7  2  0
  6  8  1  0
  8  9  1  0
  9 10  1  0
 10 11  1  0
 10 12  1  0
 12 13  1  0
 13 14  1  0
 14 15  2  0
 14 16  1  0
 16 17  1  0
 17 18  1  0
 18 19  2  0
 18 20  1  0
 20 21  2  0
 21 22  1  0
 22 23  2  0
 23 24  1  0
 24 25  2  0
 25 26  1  0
 25 27  1  0
 27 28  2  0
 28 29  1  0
 29 30  2  0
 13  8  1  0
 30 20  1  0
 29 23  1  0
  1 31  1  0
  1 32  1  0
  1 33  1  0
  2 34  1  0
  2 35  1  0
  3 36  1  0
  3 37  1  0
  4 38  1  0
  4 39  1  0
  5 40  1  0
  8 41  1  6
  9 42  1  0
  9 43  1  0
 10 44  1  1
 11 45  1  0
 12 46  1  0
 12 47  1  0
 16 48  1  0
 16 49  1  0
 17 50  1  0
 21 51  1  0
 22 52  1  0
 24 53  1  0
 27 54  1  0
 28 55  1  0
M  END
>  <smiles>  (40) 
CCCCNC(=O)[C@@H]1C[C@H](O)CN1C(=O)CNC(=O)c1ccc2cc(Cl)ccc2n1

>  <score_type>  (40) 
oracle

>  <origin>  (40) 
autodockgpu

>  <m_score__min__energy>  (40) 
-7.9199999999999999

>  <m_primary>  (40) 
energy

>  <rmsd>  (40) 
6.81759193697352

>  <m_score__min__rmsd>  (40) 
6.81759193697352

>  <meeko>  (40) 
{"free_energy": -5.89, "intermolecular_energy": -8.58, "internal_energy": -3.65, "cluster_size": 2, "cluster_id": 7, "rank_in_cluster": 1}

>  <energy>  (40) 
-6.75

>  <cluster_rmsd>  (40) 
0.0

>  <cluster>  (40) 
4

$$$$

     RDKit          3D

 55 57  0  0  0  0  0  0  0  0999 V2000
  141.1270   81.7750  222.3240 C   0  0  0  0  0  0  0  0  0  0  0  0
  142.2140   80.7480  221.9840 C   0  0  0  0  0  0  0  0  0  0  0  0
  142.7070   80.1180  223.2700 C   0  0  0  0  0  0  0  0  0  0  0  0
  141.7120   79.0990  223.7230 C   0  0  0  0  0  0  0  0  0  0  0  0
  141.3820   78.2290  222.6090 N   0  0  0  0  0  0  0  0  0  0  0  0
  140.0740   78.3520  222.0650 C   0  0  0  0  0  0  0  0  0  0  0  0
  139.3200   79.2090  222.6040 O   0  0  0  0  0  0  0  0  0  0  0  0
  139.5840   77.5330  220.9210 C   0  0  2  0  0  0  0  0  0  0  0  0
  138.0720   77.4440  220.8800 C   0  0  0  0  0  0  0  0  0  0  0  0
  137.8040   76.4090  221.9500 C   0  0  2  0  0  0  0  0  0  0  0  0
  137.7000   77.0650  223.1720 O   0  0  0  0  0  0  0  0  0  0  0  0
  138.9440   75.4450  221.9120 C   0  0  0  0  0  0  0  0  0  0  0  0
  139.9400   76.1450  221.1340 N   0  0  0  0  0  0  0  0  0  0  0  0
  141.1390   75.5740  220.6210 C   0  0  0  0  0  0  0  0  0  0  0  0
  142.2020   76.2290  220.4520 O   0  0  0  0  0  0  0  0  0  0  0  0
  141.1830   74.1330  220.2510 C   0  0  0  0  0  0  0  0  0  0  0  0
  141.1160   73.2990  221.4190 N   0  0  0  0  0  0  0  0  0  0  0  0
  140.0320   72.3980  221.5900 C   0  0  0  0  0  0  0  0  0  0  0  0
  139.1010   72.3050  220.7220 O   0  0  0  0  0  0  0  0  0  0  0  0
  139.9990   71.5560  222.8060 C   0  0  0  0  0  0  0  0  0  0  0  0
  139.3530   70.3350  222.7670 C   0  0  0  0  0  0  0  0  0  0  0  0
  139.2820   69.5020  223.8610 C   0  0  0  0  0  0  0  0  0  0  0  0
  139.8910   69.9330  225.0270 C   0  0  0  0  0  0  0  0  0  0  0  0
  139.8200   69.1000  226.1190 C   0  0  0  0  0  0  0  0  0  0  0  0
  140.4270   69.5270  227.2830 C   0  0  0  0  0  0  0  0  0  0  0  0
  140.3780   68.5110  228.7280 Cl  0  0  0  0  0  0  0  0  0  0  0  0
  141.0750   70.7400  227.3410 C   0  0  0  0  0  0  0  0  0  0  0  0
  141.1290   71.5610  226.2190 C   0  0  0  0  0  0  0  0  0  0  0  0
  140.5280   71.1560  225.0350 C   0  0  0  0  0  0  0  0  0  0  0  0
  140.5740   71.9440  223.9370 N   0  0  0  0  0  0  0  0  0  0  0  0
  141.0342   81.8626  223.4166 H   0  0  0  0  0  0  0  0  0  0  0  0
  141.4003   82.7523  221.8997 H   0  0  0  0  0  0  0  0  0  0  0  0
  140.1667   81.4467  221.8997 H   0  0  0  0  0  0  0  0  0  0  0  0
  141.7962   79.9705  221.3275 H   0  0  0  0  0  0  0  0  0  0  0  0
  143.0483   81.2434  221.4658 H   0  0  0  0  0  0  0  0  0  0  0  0
  143.6785   79.6328  223.0946 H   0  0  0  0  0  0  0  0  0  0  0  0
  142.8254   80.8921  224.0425 H   0  0  0  0  0  0  0  0  0  0  0  0
  142.1420   78.5027  224.5412 H   0  0  0  0  0  0  0  0  0  0  0  0
  140.8024   79.6032  224.0814 H   0  0  0  0  0  0  0  0  0  0  0  0
  142.0430   77.5360  222.1970 H   0  0  0  0  0  0  0  0  0  0  0  0
  140.0116   78.0049  220.0241 H   0  0  0  0  0  0  0  0  0  0  0  0
  137.6055   78.4088  221.1279 H   0  0  0  0  0  0  0  0  0  0  0  0
  137.6637   77.1850  219.8920 H   0  0  0  0  0  0  0  0  0  0  0  0
  136.8662   75.8561  221.7921 H   0  0  0  0  0  0  0  0  0  0  0  0
  138.6260   77.3560  223.4460 H   0  0  0  0  0  0  0  0  0  0  0  0
  139.3137   75.2307  222.9256 H   0  0  0  0  0  0  0  0  0  0  0  0
  138.6703   74.4686  221.4856 H   0  0  0  0  0  0  0  0  0  0  0  0
  140.3297   73.9037  219.5959 H   0  0  0  0  0  0  0  0  0  0  0  0
  142.1321   73.9334  219.7319 H   0  0  0  0  0  0  0  0  0  0  0  0
  141.8530   73.3240  222.1770 H   0  0  0  0  0  0  0  0  0  0  0  0
  138.8780   70.0168  221.8273 H   0  0  0  0  0  0  0  0  0  0  0  0
  138.7626   68.5337  223.8105 H   0  0  0  0  0  0  0  0  0  0  0  0
  139.3002   68.1320  226.0670 H   0  0  0  0  0  0  0  0  0  0  0  0
  141.5522   71.0617  228.2784 H   0  0  0  0  0  0  0  0  0  0  0  0
  141.6473   72.5299  226.2701 H   0  0  0  0  0  0  0  0  0  0  0  0
  1  2  1  0
  2  3  1  0
  3  4  1  0
  4  5  1  0
  5  6  1  0
  6  7  2  0
  6  8  1  0
  8  9  1  0
  9 10  1  0
 10 11  1  0
 10 12  1  0
 12 13  1  0
 13 14  1  0
 14 15  2  0
 14 16  1  0
 16 17  1  0
 17 18  1  0
 18 19  2  0
 18 20  1  0
 20 21  2  0
 21 22  1  0
 22 23  2  0
 23 24  1  0
 24 25  2  0
 25 26  1  0
 25 27  1  0
 27 28  2  0
 28 29  1  0
 29 30  2  0
 13  8  1  0
 30 20  1  0
 29 23  1  0
  1 31  1  0
  1 32  1  0
  1 33  1  0
  2 34  1  0
  2 35  1  0
  3 36  1  0
  3 37  1  0
  4 38  1  0
  4 39  1  0
  5 40  1  0
  8 41  1  6
  9 42  1  0
  9 43  1  0
 10 44  1  6
 11 45  1  0
 12 46  1  0
 12 47  1  0
 16 48  1  0
 16 49  1  0
 17 50  1  0
 21 51  1  0
 22 52  1  0
 24 53  1  0
 27 54  1  0
 28 55  1  0
M  END
>  <smiles>  (41) 
CCCCNC(=O)[C@@H]1C[C@H](O)CN1C(=O)CNC(=O)c1ccc2cc(Cl)ccc2n1

>  <score_type>  (41) 
oracle

>  <origin>  (41) 
autodockgpu

>  <m_score__min__energy>  (41) 
-7.9199999999999999

>  <m_primary>  (41) 
energy

>  <rmsd>  (41) 
5.451424147000687

>  <m_score__min__rmsd>  (41) 
5.451424147000687

>  <meeko>  (41) 
{"free_energy": -6.86, "intermolecular_energy": -9.54, "internal_energy": -3.01, "cluster_size": 32, "cluster_id": 1, "rank_in_cluster": 23}

>  <energy>  (41) 
-6.67

>  <cluster_rmsd>  (41) 
1.35

>  <cluster>  (41) 
4

$$$$

     RDKit          3D

 55 57  0  0  0  0  0  0  0  0999 V2000
  142.9480   80.2060  223.0770 C   0  0  0  0  0  0  0  0  0  0  0  0
  141.5700   80.8140  223.3620 C   0  0  0  0  0  0  0  0  0  0  0  0
  140.5430   80.1250  222.4890 C   0  0  0  0  0  0  0  0  0  0  0  0
  139.5860   79.3790  223.3630 C   0  0  0  0  0  0  0  0  0  0  0  0
  139.2960   78.0920  222.7600 N   0  0  0  0  0  0  0  0  0  0  0  0
  140.3590   77.1480  222.7240 C   0  0  0  0  0  0  0  0  0  0  0  0
  141.4580   77.5190  223.2220 O   0  0  0  0  0  0  0  0  0  0  0  0
  140.2210   75.7840  222.1400 C   0  0  2  0  0  0  0  0  0  0  0  0
  141.4930   75.3130  221.4650 C   0  0  0  0  0  0  0  0  0  0  0  0
  141.4300   76.0610  220.1520 C   0  0  2  0  0  0  0  0  0  0  0  0
  142.0240   77.3050  220.3320 O   0  0  0  0  0  0  0  0  0  0  0  0
  139.9860   76.1630  219.7830 C   0  0  0  0  0  0  0  0  0  0  0  0
  139.3090   75.8300  221.0160 N   0  0  0  0  0  0  0  0  0  0  0  0
  137.9160   75.5710  221.1480 C   0  0  0  0  0  0  0  0  0  0  0  0
  137.0680   76.4610  221.4280 O   0  0  0  0  0  0  0  0  0  0  0  0
  137.3880   74.1930  220.9560 C   0  0  0  0  0  0  0  0  0  0  0  0
  137.7330   73.3500  222.0690 N   0  0  0  0  0  0  0  0  0  0  0  0
  138.6690   72.2960  221.9010 C   0  0  0  0  0  0  0  0  0  0  0  0
  139.2240   72.0710  220.7740 O   0  0  0  0  0  0  0  0  0  0  0  0
  138.9970   71.4510  223.0690 C   0  0  0  0  0  0  0  0  0  0  0  0
  138.4870   70.1690  223.1420 C   0  0  0  0  0  0  0  0  0  0  0  0
  138.7510   69.3280  224.2010 C   0  0  0  0  0  0  0  0  0  0  0  0
  139.5610   69.8160  225.2120 C   0  0  0  0  0  0  0  0  0  0  0  0
  139.8230   68.9750  226.2680 C   0  0  0  0  0  0  0  0  0  0  0  0
  140.6310   69.4590  227.2780 C   0  0  0  0  0  0  0  0  0  0  0  0
  141.0130   68.4370  228.6690 Cl  0  0  0  0  0  0  0  0  0  0  0  0
  141.1480   70.7330  227.2230 C   0  0  0  0  0  0  0  0  0  0  0  0
  140.8640   71.5600  226.1410 C   0  0  0  0  0  0  0  0  0  0  0  0
  140.0550   71.0990  225.1110 C   0  0  0  0  0  0  0  0  0  0  0  0
  139.7710   71.8930  224.0540 N   0  0  0  0  0  0  0  0  0  0  0  0
  143.4540   79.9827  224.0278 H   0  0  0  0  0  0  0  0  0  0  0  0
  142.8268   79.2778  222.4993 H   0  0  0  0  0  0  0  0  0  0  0  0
  143.5520   80.9212  222.4993 H   0  0  0  0  0  0  0  0  0  0  0  0
  141.3130   80.6671  224.4214 H   0  0  0  0  0  0  0  0  0  0  0  0
  141.5844   81.8918  223.1427 H   0  0  0  0  0  0  0  0  0  0  0  0
  139.9963   80.8757  221.8995 H   0  0  0  0  0  0  0  0  0  0  0  0
  141.0451   79.4256  221.8044 H   0  0  0  0  0  0  0  0  0  0  0  0
  140.0351   79.2277  224.3557 H   0  0  0  0  0  0  0  0  0  0  0  0
  138.6555   79.9558  223.4702 H   0  0  0  0  0  0  0  0  0  0  0  0
  138.3690   77.8310  222.3620 H   0  0  0  0  0  0  0  0  0  0  0  0
  139.9154   75.1410  222.9786 H   0  0  0  0  0  0  0  0  0  0  0  0
  142.3841   75.5940  222.0455 H   0  0  0  0  0  0  0  0  0  0  0  0
  141.5662   74.2208  221.3568 H   0  0  0  0  0  0  0  0  0  0  0  0
  141.9692   75.5533  219.3387 H   0  0  0  0  0  0  0  0  0  0  0  0
  142.3760   77.3450  221.2770 H   0  0  0  0  0  0  0  0  0  0  0  0
  139.7328   77.1824  219.4562 H   0  0  0  0  0  0  0  0  0  0  0  0
  139.7062   75.5076  218.9451 H   0  0  0  0  0  0  0  0  0  0  0  0
  136.2928   74.2369  220.8637 H   0  0  0  0  0  0  0  0  0  0  0  0
  137.8345   73.7701  220.0440 H   0  0  0  0  0  0  0  0  0  0  0  0
  137.3120   73.4800  223.0300 H   0  0  0  0  0  0  0  0  0  0  0  0
  137.8466   69.8064  222.3245 H   0  0  0  0  0  0  0  0  0  0  0  0
  138.3352   68.3104  224.2415 H   0  0  0  0  0  0  0  0  0  0  0  0
  139.4059   67.9579  226.3067 H   0  0  0  0  0  0  0  0  0  0  0  0
  141.7889   71.0993  228.0385 H   0  0  0  0  0  0  0  0  0  0  0  0
  141.2797   72.5776  226.1015 H   0  0  0  0  0  0  0  0  0  0  0  0
  1  2  1  0
  2  3  1  0
  3  4  1  0
  4  5  1  0
  5  6  1  0
  6  7  2  0
  6  8  1  0
  8  9  1  0
  9 10  1  0
 10 11  1  0
 10 12  1  0
 12 13  1  0
 13 14  1  0
 14 15  2  0
 14 16  1  0
 16 17  1  0
 17 18  1  0
 18 19  2  0
 18 20  1  0
 20 21  2  0
 21 22  1  0
 22 23  2  0
 23 24  1  0
 24 25  2  0
 25 26  1  0
 25 27  1  0
 27 28  2  0
 28 29  1  0
 29 30  2  0
 13  8  1  0
 30 20  1  0
 29 23  1  0
  1 31  1  0
  1 32  1  0
  1 33  1  0
  2 34  1  0
  2 35  1  0
  3 36  1  0
  3 37  1  0
  4 38  1  0
  4 39  1  0
  5 40  1  0
  8 41  1  1
  9 42  1  0
  9 43  1  0
 10 44  1  6
 11 45  1  0
 12 46  1  0
 12 47  1  0
 16 48  1  0
 16 49  1  0
 17 50  1  0
 21 51  1  0
 22 52  1  0
 24 53  1  0
 27 54  1  0
 28 55  1  0
M  END
>  <smiles>  (42) 
CCCCNC(=O)[C@@H]1C[C@H](O)CN1C(=O)CNC(=O)c1ccc2cc(Cl)ccc2n1

>  <score_type>  (42) 
oracle

>  <origin>  (42) 
autodockgpu

>  <m_score__min__energy>  (42) 
-7.9199999999999999

>  <m_primary>  (42) 
energy

>  <rmsd>  (42) 
5.250462554068134

>  <m_score__min__rmsd>  (42) 
5.250462554068134

>  <meeko>  (42) 
{"free_energy": -6.93, "intermolecular_energy": -9.61, "internal_energy": -3.13, "cluster_size": 32, "cluster_id": 1, "rank_in_cluster": 21}

>  <energy>  (42) 
-6.62

>  <cluster_rmsd>  (42) 
1.56

>  <cluster>  (42) 
4

$$$$

     RDKit          3D

 55 57  0  0  0  0  0  0  0  0999 V2000
  139.4010   80.1610  223.4070 C   0  0  0  0  0  0  0  0  0  0  0  0
  140.6570   79.3930  223.8400 C   0  0  0  0  0  0  0  0  0  0  0  0
  141.8440   80.3330  223.7900 C   0  0  0  0  0  0  0  0  0  0  0  0
  142.7150   79.9520  222.6370 C   0  0  0  0  0  0  0  0  0  0  0  0
  142.1680   78.7690  221.9990 N   0  0  0  0  0  0  0  0  0  0  0  0
  141.7560   78.9040  220.6450 C   0  0  0  0  0  0  0  0  0  0  0  0
  141.9050   80.0440  220.1230 O   0  0  0  0  0  0  0  0  0  0  0  0
  141.1750   77.7840  219.8510 C   0  0  2  0  0  0  0  0  0  0  0  0
  140.5770   78.2540  218.5400 C   0  0  0  0  0  0  0  0  0  0  0  0
  139.2570   78.8290  219.0030 C   0  0  2  0  0  0  0  0  0  0  0  0
  139.4610   80.1600  219.3490 O   0  0  0  0  0  0  0  0  0  0  0  0
  138.8060   77.9980  220.1590 C   0  0  0  0  0  0  0  0  0  0  0  0
  140.0010   77.2720  220.5270 N   0  0  0  0  0  0  0  0  0  0  0  0
  140.0560   76.1810  221.4380 C   0  0  0  0  0  0  0  0  0  0  0  0
  140.5820   76.2570  222.5810 O   0  0  0  0  0  0  0  0  0  0  0  0
  139.4750   74.8620  221.0640 C   0  0  0  0  0  0  0  0  0  0  0  0
  139.5900   73.9230  222.1460 N   0  0  0  0  0  0  0  0  0  0  0  0
  139.7400   72.5380  221.8740 C   0  0  0  0  0  0  0  0  0  0  0  0
  139.7780   72.0940  220.6790 O   0  0  0  0  0  0  0  0  0  0  0  0
  139.8540   71.6030  223.0150 C   0  0  0  0  0  0  0  0  0  0  0  0
  139.4170   70.3000  222.8700 C   0  0  0  0  0  0  0  0  0  0  0  0
  139.4920   69.3780  223.8890 C   0  0  0  0  0  0  0  0  0  0  0  0
  140.0300   69.8030  225.0910 C   0  0  0  0  0  0  0  0  0  0  0  0
  140.1040   68.8820  226.1090 C   0  0  0  0  0  0  0  0  0  0  0  0
  140.6400   69.3030  227.3090 C   0  0  0  0  0  0  0  0  0  0  0  0
  140.7690   68.1760  228.6640 Cl  0  0  0  0  0  0  0  0  0  0  0  0
  141.0800   70.5970  227.4740 C   0  0  0  0  0  0  0  0  0  0  0  0
  140.9910   71.5070  226.4250 C   0  0  0  0  0  0  0  0  0  0  0  0
  140.4560   71.1090  225.2070 C   0  0  0  0  0  0  0  0  0  0  0  0
  140.3650   71.9840  224.1800 N   0  0  0  0  0  0  0  0  0  0  0  0
  138.8512   80.4972  224.2985 H   0  0  0  0  0  0  0  0  0  0  0  0
  139.6943   81.0344  222.8061 H   0  0  0  0  0  0  0  0  0  0  0  0
  138.7572   79.5019  222.8061 H   0  0  0  0  0  0  0  0  0  0  0  0
  140.5257   79.0172  224.8654 H   0  0  0  0  0  0  0  0  0  0  0  0
  140.8258   78.5408  223.1653 H   0  0  0  0  0  0  0  0  0  0  0  0
  141.4911   81.3668  223.6604 H   0  0  0  0  0  0  0  0  0  0  0  0
  142.4149   80.2625  224.7276 H   0  0  0  0  0  0  0  0  0  0  0  0
  142.7492   80.7788  221.9123 H   0  0  0  0  0  0  0  0  0  0  0  0
  143.7335   79.7421  222.9956 H   0  0  0  0  0  0  0  0  0  0  0  0
  142.0650   77.8470  222.4740 H   0  0  0  0  0  0  0  0  0  0  0  0
  141.9993   77.0684  219.7151 H   0  0  0  0  0  0  0  0  0  0  0  0
  141.2050   79.0212  218.0635 H   0  0  0  0  0  0  0  0  0  0  0  0
  140.4816   77.4640  217.7805 H   0  0  0  0  0  0  0  0  0  0  0  0
  138.4790   78.8065  218.2257 H   0  0  0  0  0  0  0  0  0  0  0  0
  139.8030   80.1830  220.2980 H   0  0  0  0  0  0  0  0  0  0  0  0
  138.4575   78.6311  220.9883 H   0  0  0  0  0  0  0  0  0  0  0  0
  137.9587   77.3405  219.9144 H   0  0  0  0  0  0  0  0  0  0  0  0
  138.4119   74.9949  220.8145 H   0  0  0  0  0  0  0  0  0  0  0  0
  140.0278   74.4684  220.1982 H   0  0  0  0  0  0  0  0  0  0  0  0
  139.5660   74.2220  223.1600 H   0  0  0  0  0  0  0  0  0  0  0  0
  138.9934   69.9881  221.9039 H   0  0  0  0  0  0  0  0  0  0  0  0
  139.1386   68.3452  223.7535 H   0  0  0  0  0  0  0  0  0  0  0  0
  139.7497   67.8496  225.9723 H   0  0  0  0  0  0  0  0  0  0  0  0
  141.5036   70.9128  228.4388 H   0  0  0  0  0  0  0  0  0  0  0  0
  141.3439   72.5400  226.5604 H   0  0  0  0  0  0  0  0  0  0  0  0
  1  2  1  0
  2  3  1  0
  3  4  1  0
  4  5  1  0
  5  6  1  0
  6  7  2  0
  6  8  1  0
  8  9  1  0
  9 10  1  0
 10 11  1  0
 10 12  1  0
 12 13  1  0
 13 14  1  0
 14 15  2  0
 14 16  1  0
 16 17  1  0
 17 18  1  0
 18 19  2  0
 18 20  1  0
 20 21  2  0
 21 22  1  0
 22 23  2  0
 23 24  1  0
 24 25  2  0
 25 26  1  0
 25 27  1  0
 27 28  2  0
 28 29  1  0
 29 30  2  0
 13  8  1  0
 30 20  1  0
 29 23  1  0
  1 31  1  0
  1 32  1  0
  1 33  1  0
  2 34  1  0
  2 35  1  0
  3 36  1  0
  3 37  1  0
  4 38  1  0
  4 39  1  0
  5 40  1  0
  8 41  1  6
  9 42  1  0
  9 43  1  0
 10 44  1  6
 11 45  1  0
 12 46  1  0
 12 47  1  0
 16 48  1  0
 16 49  1  0
 17 50  1  0
 21 51  1  0
 22 52  1  0
 24 53  1  0
 27 54  1  0
 28 55  1  0
M  END
>  <smiles>  (43) 
CCCCNC(=O)[C@@H]1C[C@H](O)CN1C(=O)CNC(=O)c1ccc2cc(Cl)ccc2n1

>  <score_type>  (43) 
oracle

>  <origin>  (43) 
autodockgpu

>  <m_score__min__energy>  (43) 
-7.9199999999999999

>  <m_primary>  (43) 
energy

>  <rmsd>  (43) 
5.732797351271396

>  <m_score__min__rmsd>  (43) 
5.732797351271396

>  <meeko>  (43) 
{"free_energy": -7.11, "intermolecular_energy": -9.79, "internal_energy": -3.5, "cluster_size": 32, "cluster_id": 1, "rank_in_cluster": 17}

>  <energy>  (43) 
-6.55

>  <cluster_rmsd>  (43) 
1.34

>  <cluster>  (43) 
4

$$$$

     RDKit          3D

 55 57  0  0  0  0  0  0  0  0999 V2000
  139.1160   80.0610  223.3630 C   0  0  0  0  0  0  0  0  0  0  0  0
  140.4360   79.4430  223.8390 C   0  0  0  0  0  0  0  0  0  0  0  0
  141.5090   80.5120  223.8200 C   0  0  0  0  0  0  0  0  0  0  0  0
  142.6430   80.0440  222.9650 C   0  0  0  0  0  0  0  0  0  0  0  0
  142.2090   78.9000  222.1860 N   0  0  0  0  0  0  0  0  0  0  0  0
  141.7740   79.1580  220.8570 C   0  0  0  0  0  0  0  0  0  0  0  0
  141.8060   80.3610  220.4780 O   0  0  0  0  0  0  0  0  0  0  0  0
  141.3000   78.0910  219.9310 C   0  0  2  0  0  0  0  0  0  0  0  0
  140.7100   78.6540  218.6540 C   0  0  0  0  0  0  0  0  0  0  0  0
  139.3390   79.0860  219.1230 C   0  0  2  0  0  0  0  0  0  0  0  0
  139.4360   80.3840  219.6120 O   0  0  0  0  0  0  0  0  0  0  0  0
  138.9140   78.1090  220.1690 C   0  0  0  0  0  0  0  0  0  0  0  0
  140.1450   77.4320  220.5050 N   0  0  0  0  0  0  0  0  0  0  0  0
  140.2510   76.2560  221.3010 C   0  0  0  0  0  0  0  0  0  0  0  0
  141.0380   76.1490  222.2790 O   0  0  0  0  0  0  0  0  0  0  0  0
  139.4080   75.0680  220.9960 C   0  0  0  0  0  0  0  0  0  0  0  0
  139.4320   74.1270  222.0830 N   0  0  0  0  0  0  0  0  0  0  0  0
  140.0360   72.8540  221.9100 C   0  0  0  0  0  0  0  0  0  0  0  0
  140.5670   72.5140  220.8010 O   0  0  0  0  0  0  0  0  0  0  0  0
  140.0400   71.9140  223.0520 C   0  0  0  0  0  0  0  0  0  0  0  0
  139.5170   70.6450  222.8870 C   0  0  0  0  0  0  0  0  0  0  0  0
  139.4880   69.7200  223.9060 C   0  0  0  0  0  0  0  0  0  0  0  0
  140.0100   70.1060  225.1280 C   0  0  0  0  0  0  0  0  0  0  0  0
  139.9800   69.1820  226.1460 C   0  0  0  0  0  0  0  0  0  0  0  0
  140.5000   69.5640  227.3660 C   0  0  0  0  0  0  0  0  0  0  0  0
  140.4970   68.4310  228.7220 Cl  0  0  0  0  0  0  0  0  0  0  0  0
  141.0250   70.8240  227.5510 C   0  0  0  0  0  0  0  0  0  0  0  0
  141.0400   71.7370  226.5010 C   0  0  0  0  0  0  0  0  0  0  0  0
  140.5240   71.3790  225.2630 C   0  0  0  0  0  0  0  0  0  0  0  0
  140.5330   72.2580  224.2350 N   0  0  0  0  0  0  0  0  0  0  0  0
  138.5087   80.3453  224.2350 H   0  0  0  0  0  0  0  0  0  0  0  0
  139.3269   80.9539  222.7563 H   0  0  0  0  0  0  0  0  0  0  0  0
  138.5653   79.3271  222.7563 H   0  0  0  0  0  0  0  0  0  0  0  0
  140.3162   79.0573  224.8622 H   0  0  0  0  0  0  0  0  0  0  0  0
  140.7220   78.6139  223.1750 H   0  0  0  0  0  0  0  0  0  0  0  0
  141.0950   81.4436  223.4069 H   0  0  0  0  0  0  0  0  0  0  0  0
  141.8663   80.7000  224.8432 H   0  0  0  0  0  0  0  0  0  0  0  0
  142.9531   80.8541  222.2885 H   0  0  0  0  0  0  0  0  0  0  0  0
  143.4936   79.7581  223.6012 H   0  0  0  0  0  0  0  0  0  0  0  0
  142.2030   77.9210  222.5440 H   0  0  0  0  0  0  0  0  0  0  0  0
  142.1777   77.4519  219.7543 H   0  0  0  0  0  0  0  0  0  0  0  0
  141.2956   79.5079  218.2827 H   0  0  0  0  0  0  0  0  0  0  0  0
  140.6945   77.9433  217.8146 H   0  0  0  0  0  0  0  0  0  0  0  0
  138.5889   79.0931  218.3184 H   0  0  0  0  0  0  0  0  0  0  0  0
  140.4120   80.6400  219.6170 H   0  0  0  0  0  0  0  0  0  0  0  0
  138.4957   78.6258  221.0453 H   0  0  0  0  0  0  0  0  0  0  0  0
  138.1241   77.4247  219.8258 H   0  0  0  0  0  0  0  0  0  0  0  0
  138.3718   75.3960  220.8268 H   0  0  0  0  0  0  0  0  0  0  0  0
  139.8077   74.5758  220.0972 H   0  0  0  0  0  0  0  0  0  0  0  0
  139.0110   74.3430  223.0290 H   0  0  0  0  0  0  0  0  0  0  0  0
  139.1089   70.3640  221.9049 H   0  0  0  0  0  0  0  0  0  0  0  0
  139.0671   68.7150  223.7550 H   0  0  0  0  0  0  0  0  0  0  0  0
  139.5580   68.1776  225.9939 H   0  0  0  0  0  0  0  0  0  0  0  0
  141.4336   71.1093  228.5316 H   0  0  0  0  0  0  0  0  0  0  0  0
  141.4606   72.7421  226.6519 H   0  0  0  0  0  0  0  0  0  0  0  0
  1  2  1  0
  2  3  1  0
  3  4  1  0
  4  5  1  0
  5  6  1  0
  6  7  2  0
  6  8  1  0
  8  9  1  0
  9 10  1  0
 10 11  1  0
 10 12  1  0
 12 13  1  0
 13 14  1  0
 14 15  2  0
 14 16  1  0
 16 17  1  0
 17 18  1  0
 18 19  2  0
 18 20  1  0
 20 21  2  0
 21 22  1  0
 22 23  2  0
 23 24  1  0
 24 25  2  0
 25 26  1  0
 25 27  1  0
 27 28  2  0
 28 29  1  0
 29 30  2  0
 13  8  1  0
 30 20  1  0
 29 23  1  0
  1 31  1  0
  1 32  1  0
  1 33  1  0
  2 34  1  0
  2 35  1  0
  3 36  1  0
  3 37  1  0
  4 38  1  0
  4 39  1  0
  5 40  1  0
  8 41  1  6
  9 42  1  0
  9 43  1  0
 10 44  1  6
 11 45  1  0
 12 46  1  0
 12 47  1  0
 16 48  1  0
 16 49  1  0
 17 50  1  0
 21 51  1  0
 22 52  1  0
 24 53  1  0
 27 54  1  0
 28 55  1  0
M  END
>  <smiles>  (44) 
CCCCNC(=O)[C@@H]1C[C@H](O)CN1C(=O)CNC(=O)c1ccc2cc(Cl)ccc2n1

>  <score_type>  (44) 
oracle

>  <origin>  (44) 
autodockgpu

>  <m_score__min__energy>  (44) 
-7.9199999999999999

>  <m_primary>  (44) 
energy

>  <rmsd>  (44) 
5.8404229237731515

>  <m_score__min__rmsd>  (44) 
5.8404229237731515

>  <meeko>  (44) 
{"free_energy": -7.29, "intermolecular_energy": -9.97, "internal_energy": -3.12, "cluster_size": 32, "cluster_id": 1, "rank_in_cluster": 12}

>  <energy>  (44) 
-6.43

>  <cluster_rmsd>  (44) 
1.5

>  <cluster>  (44) 
4

$$$$

     RDKit          3D

 55 57  0  0  0  0  0  0  0  0999 V2000
  139.4460   79.3760  223.4560 C   0  0  0  0  0  0  0  0  0  0  0  0
  140.4070   80.5710  223.4340 C   0  0  0  0  0  0  0  0  0  0  0  0
  141.7880   80.0940  223.8310 C   0  0  0  0  0  0  0  0  0  0  0  0
  142.6000   79.8770  222.5950 C   0  0  0  0  0  0  0  0  0  0  0  0
  142.1640   78.6540  221.9490 N   0  0  0  0  0  0  0  0  0  0  0  0
  141.7970   78.7480  220.5780 C   0  0  0  0  0  0  0  0  0  0  0  0
  141.8860   79.8910  220.0500 O   0  0  0  0  0  0  0  0  0  0  0  0
  141.3300   77.5840  219.7750 C   0  0  2  0  0  0  0  0  0  0  0  0
  140.8160   77.9920  218.4090 C   0  0  0  0  0  0  0  0  0  0  0  0
  139.4410   78.5180  218.7520 C   0  0  2  0  0  0  0  0  0  0  0  0
  139.5590   79.8650  219.0750 O   0  0  0  0  0  0  0  0  0  0  0  0
  138.9370   77.6970  219.8930 C   0  0  0  0  0  0  0  0  0  0  0  0
  140.1290   77.0360  220.3720 N   0  0  0  0  0  0  0  0  0  0  0  0
  140.1610   75.9710  221.3160 C   0  0  0  0  0  0  0  0  0  0  0  0
  140.8160   76.0160  222.3910 O   0  0  0  0  0  0  0  0  0  0  0  0
  139.3950   74.7200  221.0600 C   0  0  0  0  0  0  0  0  0  0  0  0
  139.5390   73.7960  222.1510 N   0  0  0  0  0  0  0  0  0  0  0  0
  139.6370   72.4020  221.8960 C   0  0  0  0  0  0  0  0  0  0  0  0
  139.6010   71.9390  220.7080 O   0  0  0  0  0  0  0  0  0  0  0  0
  139.7830   71.4830  223.0460 C   0  0  0  0  0  0  0  0  0  0  0  0
  139.3770   70.1690  222.9180 C   0  0  0  0  0  0  0  0  0  0  0  0
  139.4840   69.2590  223.9470 C   0  0  0  0  0  0  0  0  0  0  0  0
  140.0220   69.7110  225.1390 C   0  0  0  0  0  0  0  0  0  0  0  0
  140.1280   68.8020  226.1660 C   0  0  0  0  0  0  0  0  0  0  0  0
  140.6650   69.2500  227.3560 C   0  0  0  0  0  0  0  0  0  0  0  0
  140.8330   68.1400  228.7220 Cl  0  0  0  0  0  0  0  0  0  0  0  0
  141.0750   70.5560  227.5030 C   0  0  0  0  0  0  0  0  0  0  0  0
  140.9540   71.4520  226.4450 C   0  0  0  0  0  0  0  0  0  0  0  0
  140.4180   71.0280  225.2370 C   0  0  0  0  0  0  0  0  0  0  0  0
  140.2960   71.8890  224.2010 N   0  0  0  0  0  0  0  0  0  0  0  0
  139.2256   79.1019  224.4982 H   0  0  0  0  0  0  0  0  0  0  0  0
  138.5117   79.6473  222.9428 H   0  0  0  0  0  0  0  0  0  0  0  0
  139.9115   78.5216  222.9428 H   0  0  0  0  0  0  0  0  0  0  0  0
  140.4408   80.9996  222.4215 H   0  0  0  0  0  0  0  0  0  0  0  0
  140.0610   81.3418  224.1384 H   0  0  0  0  0  0  0  0  0  0  0  0
  142.2730   80.8526  224.4628 H   0  0  0  0  0  0  0  0  0  0  0  0
  141.7091   79.1527  224.3947 H   0  0  0  0  0  0  0  0  0  0  0  0
  142.4607   80.7256  221.9091 H   0  0  0  0  0  0  0  0  0  0  0  0
  143.6645   79.7965  222.8605 H   0  0  0  0  0  0  0  0  0  0  0  0
  142.1080   77.7300  222.4290 H   0  0  0  0  0  0  0  0  0  0  0  0
  142.1935   76.9044  219.7246 H   0  0  0  0  0  0  0  0  0  0  0  0
  141.4453   78.7743  217.9596 H   0  0  0  0  0  0  0  0  0  0  0  0
  140.8143   77.1789  217.6681 H   0  0  0  0  0  0  0  0  0  0  0  0
  138.7285   78.4408  217.9175 H   0  0  0  0  0  0  0  0  0  0  0  0
  139.8620   79.9270  220.0350 H   0  0  0  0  0  0  0  0  0  0  0  0
  138.4977   78.3344  220.6745 H   0  0  0  0  0  0  0  0  0  0  0  0
  138.1405   76.9960  219.6030 H   0  0  0  0  0  0  0  0  0  0  0  0
  138.3305   74.9687  220.9372 H   0  0  0  0  0  0  0  0  0  0  0  0
  139.7883   74.2487  220.1472 H   0  0  0  0  0  0  0  0  0  0  0  0
  139.5760   74.1110  223.1600 H   0  0  0  0  0  0  0  0  0  0  0  0
  138.9526   69.8368  221.9591 H   0  0  0  0  0  0  0  0  0  0  0  0
  139.1553   68.2163  223.8259 H   0  0  0  0  0  0  0  0  0  0  0  0
  139.7980   67.7598  226.0438 H   0  0  0  0  0  0  0  0  0  0  0  0
  141.4998   70.8925  228.4602 H   0  0  0  0  0  0  0  0  0  0  0  0
  141.2827   72.4948  226.5660 H   0  0  0  0  0  0  0  0  0  0  0  0
  1  2  1  0
  2  3  1  0
  3  4  1  0
  4  5  1  0
  5  6  1  0
  6  7  2  0
  6  8  1  0
  8  9  1  0
  9 10  1  0
 10 11  1  0
 10 12  1  0
 12 13  1  0
 13 14  1  0
 14 15  2  0
 14 16  1  0
 16 17  1  0
 17 18  1  0
 18 19  2  0
 18 20  1  0
 20 21  2  0
 21 22  1  0
 22 23  2  0
 23 24  1  0
 24 25  2  0
 25 26  1  0
 25 27  1  0
 27 28  2  0
 28 29  1  0
 29 30  2  0
 13  8  1  0
 30 20  1  0
 29 23  1  0
  1 31  1  0
  1 32  1  0
  1 33  1  0
  2 34  1  0
  2 35  1  0
  3 36  1  0
  3 37  1  0
  4 38  1  0
  4 39  1  0
  5 40  1  0
  8 41  1  6
  9 42  1  0
  9 43  1  0
 10 44  1  6
 11 45  1  0
 12 46  1  0
 12 47  1  0
 16 48  1  0
 16 49  1  0
 17 50  1  0
 21 51  1  0
 22 52  1  0
 24 53  1  0
 27 54  1  0
 28 55  1  0
M  END
>  <smiles>  (45) 
CCCCNC(=O)[C@@H]1C[C@H](O)CN1C(=O)CNC(=O)c1ccc2cc(Cl)ccc2n1

>  <score_type>  (45) 
oracle

>  <origin>  (45) 
autodockgpu

>  <m_score__min__energy>  (45) 
-7.9199999999999999

>  <m_primary>  (45) 
energy

>  <rmsd>  (45) 
5.6915402631697845

>  <m_score__min__rmsd>  (45) 
5.6915402631697845

>  <meeko>  (45) 
{"free_energy": -7.13, "intermolecular_energy": -9.82, "internal_energy": -3.4, "cluster_size": 32, "cluster_id": 1, "rank_in_cluster": 14}

>  <energy>  (45) 
-5.94

>  <cluster_rmsd>  (45) 
1.71

>  <cluster>  (45) 
4

$$$$

     RDKit          3D

 55 57  0  0  0  0  0  0  0  0999 V2000
  142.3010   80.6670  223.6190 C   0  0  0  0  0  0  0  0  0  0  0  0
  142.4260   79.3890  222.7800 C   0  0  0  0  0  0  0  0  0  0  0  0
  141.0480   78.7860  222.6010 C   0  0  0  0  0  0  0  0  0  0  0  0
  140.8900   78.3530  221.1790 C   0  0  0  0  0  0  0  0  0  0  0  0
  141.8540   77.3070  220.8910 N   0  0  0  0  0  0  0  0  0  0  0  0
  141.3340   76.0080  220.6420 C   0  0  0  0  0  0  0  0  0  0  0  0
  140.0790   75.8850  220.6930 O   0  0  0  0  0  0  0  0  0  0  0  0
  142.1910   74.8300  220.3310 C   0  0  2  0  0  0  0  0  0  0  0  0
  143.6390   75.2130  220.0980 C   0  0  0  0  0  0  0  0  0  0  0  0
  143.5810   75.7510  218.6850 C   0  0  2  0  0  0  0  0  0  0  0  0
  143.2660   77.1040  218.7480 O   0  0  0  0  0  0  0  0  0  0  0  0
  142.5450   74.9540  217.9620 C   0  0  0  0  0  0  0  0  0  0  0  0
  141.8300   74.2980  219.0330 N   0  0  0  0  0  0  0  0  0  0  0  0
  140.8790   73.2520  218.8710 C   0  0  0  0  0  0  0  0  0  0  0  0
  141.0220   72.3050  218.0520 O   0  0  0  0  0  0  0  0  0  0  0  0
  139.6350   73.2370  219.6890 C   0  0  0  0  0  0  0  0  0  0  0  0
  139.7520   72.3140  220.7850 N   0  0  0  0  0  0  0  0  0  0  0  0
  139.7170   72.7880  222.1230 C   0  0  0  0  0  0  0  0  0  0  0  0
  139.5830   74.0300  222.3860 O   0  0  0  0  0  0  0  0  0  0  0  0
  139.8400   71.8070  223.2230 C   0  0  0  0  0  0  0  0  0  0  0  0
  139.4220   70.5060  223.0200 C   0  0  0  0  0  0  0  0  0  0  0  0
  139.5070   69.5410  223.9990 C   0  0  0  0  0  0  0  0  0  0  0  0
  140.0360   69.9220  225.2200 C   0  0  0  0  0  0  0  0  0  0  0  0
  140.1200   68.9590  226.1970 C   0  0  0  0  0  0  0  0  0  0  0  0
  140.6470   69.3350  227.4160 C   0  0  0  0  0  0  0  0  0  0  0  0
  140.7880   68.1520  228.7220 Cl  0  0  0  0  0  0  0  0  0  0  0  0
  141.0690   70.6270  227.6380 C   0  0  0  0  0  0  0  0  0  0  0  0
  140.9700   71.5800  226.6290 C   0  0  0  0  0  0  0  0  0  0  0  0
  140.4440   71.2280  225.3930 C   0  0  0  0  0  0  0  0  0  0  0  0
  140.3430   72.1450  224.4040 N   0  0  0  0  0  0  0  0  0  0  0  0
  142.3263   80.4079  224.6878 H   0  0  0  0  0  0  0  0  0  0  0  0
  143.1374   81.3422  223.3855 H   0  0  0  0  0  0  0  0  0  0  0  0
  141.3496   81.1674  223.3855 H   0  0  0  0  0  0  0  0  0  0  0  0
  142.8535   79.6329  221.7962 H   0  0  0  0  0  0  0  0  0  0  0  0
  143.0851   78.6705  223.2892 H   0  0  0  0  0  0  0  0  0  0  0  0
  140.9359   77.9171  223.2662 H   0  0  0  0  0  0  0  0  0  0  0  0
  140.2793   79.5321  222.8510 H   0  0  0  0  0  0  0  0  0  0  0  0
  139.8714   77.9685  221.0221 H   0  0  0  0  0  0  0  0  0  0  0  0
  141.0612   79.2091  220.5098 H   0  0  0  0  0  0  0  0  0  0  0  0
  142.8850   77.4590  220.8590 H   0  0  0  0  0  0  0  0  0  0  0  0
  142.0587   74.1457  221.1820 H   0  0  0  0  0  0  0  0  0  0  0  0
  143.9708   75.9840  220.8089 H   0  0  0  0  0  0  0  0  0  0  0  0
  144.3510   74.3859  220.2357 H   0  0  0  0  0  0  0  0  0  0  0  0
  144.5368   75.6601  218.1482 H   0  0  0  0  0  0  0  0  0  0  0  0
  143.9230   77.5450  219.3750 H   0  0  0  0  0  0  0  0  0  0  0  0
  141.8762   75.6081  217.3833 H   0  0  0  0  0  0  0  0  0  0  0  0
  142.9720   74.2502  217.2324 H   0  0  0  0  0  0  0  0  0  0  0  0
  139.4532   74.2465  220.0863 H   0  0  0  0  0  0  0  0  0  0  0  0
  138.7982   72.9188  219.0498 H   0  0  0  0  0  0  0  0  0  0  0  0
  139.8650   71.2720  220.6390 H   0  0  0  0  0  0  0  0  0  0  0  0
  139.0057   70.2305  222.0398 H   0  0  0  0  0  0  0  0  0  0  0  0
  139.1685   68.5101  223.8180 H   0  0  0  0  0  0  0  0  0  0  0  0
  139.7804   67.9287  226.0146 H   0  0  0  0  0  0  0  0  0  0  0  0
  141.4859   70.9066  228.6168 H   0  0  0  0  0  0  0  0  0  0  0  0
  141.3080   72.6110  226.8102 H   0  0  0  0  0  0  0  0  0  0  0  0
  1  2  1  0
  2  3  1  0
  3  4  1  0
  4  5  1  0
  5  6  1  0
  6  7  2  0
  6  8  1  0
  8  9  1  0
  9 10  1  0
 10 11  1  0
 10 12  1  0
 12 13  1  0
 13 14  1  0
 14 15  2  0
 14 16  1  0
 16 17  1  0
 17 18  1  0
 18 19  2  0
 18 20  1  0
 20 21  2  0
 21 22  1  0
 22 23  2  0
 23 24  1  0
 24 25  2  0
 25 26  1  0
 25 27  1  0
 27 28  2  0
 28 29  1  0
 29 30  2  0
 13  8  1  0
 30 20  1  0
 29 23  1  0
  1 31  1  0
  1 32  1  0
  1 33  1  0
  2 34  1  0
  2 35  1  0
  3 36  1  0
  3 37  1  0
  4 38  1  0
  4 39  1  0
  5 40  1  0
  8 41  1  1
  9 42  1  0
  9 43  1  0
 10 44  1  6
 11 45  1  0
 12 46  1  0
 12 47  1  0
 16 48  1  0
 16 49  1  0
 17 50  1  0
 21 51  1  0
 22 52  1  0
 24 53  1  0
 27 54  1  0
 28 55  1  0
M  END
>  <smiles>  (46) 
CCCCNC(=O)[C@@H]1C[C@H](O)CN1C(=O)CNC(=O)c1ccc2cc(Cl)ccc2n1

>  <score_type>  (46) 
oracle

>  <origin>  (46) 
autodockgpu

>  <m_score__min__energy>  (46) 
-7.9199999999999999

>  <m_primary>  (46) 
energy

>  <rmsd>  (46) 
4.74547369362486

>  <m_score__min__rmsd>  (46) 
4.74547369362486

>  <meeko>  (46) 
{"free_energy": -7.72, "intermolecular_energy": -10.41, "internal_energy": -2.02, "cluster_size": 32, "cluster_id": 1, "rank_in_cluster": 5}

>  <energy>  (46) 
-5.81

>  <cluster_rmsd>  (46) 
1.9

>  <cluster>  (46) 
4

$$$$

     RDKit          3D

 55 57  0  0  0  0  0  0  0  0999 V2000
  146.3760   73.7620  220.9040 C   0  0  0  0  0  0  0  0  0  0  0  0
  144.8510   73.6040  220.8720 C   0  0  0  0  0  0  0  0  0  0  0  0
  144.5130   72.2680  220.2440 C   0  0  0  0  0  0  0  0  0  0  0  0
  143.6190   72.4980  219.0680 C   0  0  0  0  0  0  0  0  0  0  0  0
  142.6190   73.4880  219.4190 N   0  0  0  0  0  0  0  0  0  0  0  0
  142.1820   74.3530  218.3790 C   0  0  0  0  0  0  0  0  0  0  0  0
  142.7050   74.1780  217.2440 O   0  0  0  0  0  0  0  0  0  0  0  0
  141.1610   75.4210  218.5790 C   0  0  2  0  0  0  0  0  0  0  0  0
  141.3120   76.5580  217.5880 C   0  0  0  0  0  0  0  0  0  0  0  0
  142.4710   77.3240  218.1870 C   0  0  2  0  0  0  0  0  0  0  0  0
  143.6520   76.7800  217.6940 O   0  0  0  0  0  0  0  0  0  0  0  0
  142.3540   77.1930  219.6700 C   0  0  0  0  0  0  0  0  0  0  0  0
  141.4160   76.1050  219.8300 N   0  0  0  0  0  0  0  0  0  0  0  0
  140.7970   75.7220  221.0530 C   0  0  0  0  0  0  0  0  0  0  0  0
  141.2280   76.0640  222.1860 O   0  0  0  0  0  0  0  0  0  0  0  0
  139.5750   74.8710  221.0390 C   0  0  0  0  0  0  0  0  0  0  0  0
  139.5900   73.9320  222.1260 N   0  0  0  0  0  0  0  0  0  0  0  0
  140.1140   72.6260  221.9330 C   0  0  0  0  0  0  0  0  0  0  0  0
  140.5810   72.2570  220.8050 O   0  0  0  0  0  0  0  0  0  0  0  0
  140.1110   71.6880  223.0770 C   0  0  0  0  0  0  0  0  0  0  0  0
  139.5800   70.4230  222.9130 C   0  0  0  0  0  0  0  0  0  0  0  0
  139.5440   69.5000  223.9340 C   0  0  0  0  0  0  0  0  0  0  0  0
  140.0680   69.8840  225.1560 C   0  0  0  0  0  0  0  0  0  0  0  0
  140.0310   68.9620  226.1750 C   0  0  0  0  0  0  0  0  0  0  0  0
  140.5530   69.3430  227.3950 C   0  0  0  0  0  0  0  0  0  0  0  0
  140.5420   68.2110  228.7530 Cl  0  0  0  0  0  0  0  0  0  0  0  0
  141.0870   70.5990  227.5780 C   0  0  0  0  0  0  0  0  0  0  0  0
  141.1090   71.5100  226.5270 C   0  0  0  0  0  0  0  0  0  0  0  0
  140.5910   71.1530  225.2890 C   0  0  0  0  0  0  0  0  0  0  0  0
  140.6070   72.0300  224.2600 N   0  0  0  0  0  0  0  0  0  0  0  0
  146.7191   73.7975  221.9485 H   0  0  0  0  0  0  0  0  0  0  0  0
  146.8440   72.9075  220.3932 H   0  0  0  0  0  0  0  0  0  0  0  0
  146.6589   74.6943  220.3932 H   0  0  0  0  0  0  0  0  0  0  0  0
  144.4536   73.6421  221.8970 H   0  0  0  0  0  0  0  0  0  0  0  0
  144.4027   74.4182  220.2837 H   0  0  0  0  0  0  0  0  0  0  0  0
  145.4370   71.7709  219.9138 H   0  0  0  0  0  0  0  0  0  0  0  0
  144.0036   71.6285  220.9799 H   0  0  0  0  0  0  0  0  0  0  0  0
  144.2148   72.8616  218.2178 H   0  0  0  0  0  0  0  0  0  0  0  0
  143.1255   71.5558  218.7876 H   0  0  0  0  0  0  0  0  0  0  0  0
  142.2140   73.5940  220.3740 H   0  0  0  0  0  0  0  0  0  0  0  0
  140.1902   74.9095  218.5024 H   0  0  0  0  0  0  0  0  0  0  0  0
  141.5533   76.1852  216.5816 H   0  0  0  0  0  0  0  0  0  0  0  0
  140.4003   77.1577  217.4492 H   0  0  0  0  0  0  0  0  0  0  0  0
  142.4657   78.3921  217.9240 H   0  0  0  0  0  0  0  0  0  0  0  0
  143.4100   75.9900  217.1150 H   0  0  0  0  0  0  0  0  0  0  0  0
  143.3258   76.9463  220.1225 H   0  0  0  0  0  0  0  0  0  0  0  0
  142.0275   78.1213  220.1616 H   0  0  0  0  0  0  0  0  0  0  0  0
  138.6875   75.5142  221.1313 H   0  0  0  0  0  0  0  0  0  0  0  0
  139.5481   74.3114  220.0924 H   0  0  0  0  0  0  0  0  0  0  0  0
  139.2190   74.1710  223.0880 H   0  0  0  0  0  0  0  0  0  0  0  0
  139.1711   70.1431  221.9309 H   0  0  0  0  0  0  0  0  0  0  0  0
  139.1160   68.4978  223.7845 H   0  0  0  0  0  0  0  0  0  0  0  0
  139.6024   67.9602  226.0243 H   0  0  0  0  0  0  0  0  0  0  0  0
  141.4975   70.8828  228.5583 H   0  0  0  0  0  0  0  0  0  0  0  0
  141.5364   72.5125  226.6764 H   0  0  0  0  0  0  0  0  0  0  0  0
  1  2  1  0
  2  3  1  0
  3  4  1  0
  4  5  1  0
  5  6  1  0
  6  7  2  0
  6  8  1  0
  8  9  1  0
  9 10  1  0
 10 11  1  0
 10 12  1  0
 12 13  1  0
 13 14  1  0
 14 15  2  0
 14 16  1  0
 16 17  1  0
 17 18  1  0
 18 19  2  0
 18 20  1  0
 20 21  2  0
 21 22  1  0
 22 23  2  0
 23 24  1  0
 24 25  2  0
 25 26  1  0
 25 27  1  0
 27 28  2  0
 28 29  1  0
 29 30  2  0
 13  8  1  0
 30 20  1  0
 29 23  1  0
  1 31  1  0
  1 32  1  0
  1 33  1  0
  2 34  1  0
  2 35  1  0
  3 36  1  0
  3 37  1  0
  4 38  1  0
  4 39  1  0
  5 40  1  0
  8 41  1  1
  9 42  1  0
  9 43  1  0
 10 44  1  1
 11 45  1  0
 12 46  1  0
 12 47  1  0
 16 48  1  0
 16 49  1  0
 17 50  1  0
 21 51  1  0
 22 52  1  0
 24 53  1  0
 27 54  1  0
 28 55  1  0
M  END
>  <smiles>  (47) 
CCCCNC(=O)[C@@H]1C[C@H](O)CN1C(=O)CNC(=O)c1ccc2cc(Cl)ccc2n1

>  <score_type>  (47) 
oracle

>  <origin>  (47) 
autodockgpu

>  <m_score__min__energy>  (47) 
-7.9199999999999999

>  <m_primary>  (47) 
energy

>  <rmsd>  (47) 
5.126150905466201

>  <m_score__min__rmsd>  (47) 
5.126150905466201

>  <meeko>  (47) 
{"free_energy": -6.34, "intermolecular_energy": -9.03, "internal_energy": -3.4, "cluster_size": 1, "cluster_id": 5, "rank_in_cluster": 1}

>  <energy>  (47) 
-6.34

>  <cluster_rmsd>  (47) 
0.0

>  <cluster>  (47) 
5

$$$$

     RDKit          3D

 55 57  0  0  0  0  0  0  0  0999 V2000
  140.8370   77.1230  217.3460 C   0  0  0  0  0  0  0  0  0  0  0  0
  142.2790   76.9410  216.8580 C   0  0  0  0  0  0  0  0  0  0  0  0
  142.5500   75.4620  216.6780 C   0  0  0  0  0  0  0  0  0  0  0  0
  144.0060   75.2060  216.9010 C   0  0  0  0  0  0  0  0  0  0  0  0
  144.1600   74.2590  217.9890 N   0  0  0  0  0  0  0  0  0  0  0  0
  143.9200   74.7480  219.3020 C   0  0  0  0  0  0  0  0  0  0  0  0
  143.5940   75.9640  219.3990 O   0  0  0  0  0  0  0  0  0  0  0  0
  144.0360   73.9030  220.5240 C   0  0  2  0  0  0  0  0  0  0  0  0
  145.4770   73.6360  220.9080 C   0  0  0  0  0  0  0  0  0  0  0  0
  145.8540   72.5540  219.9220 C   0  0  2  0  0  0  0  0  0  0  0  0
  146.3110   73.1650  218.7590 O   0  0  0  0  0  0  0  0  0  0  0  0
  144.6280   71.7310  219.6940 C   0  0  0  0  0  0  0  0  0  0  0  0
  143.5730   72.5620  220.2280 N   0  0  0  0  0  0  0  0  0  0  0  0
  142.2300   72.1480  220.4520 C   0  0  0  0  0  0  0  0  0  0  0  0
  141.9160   71.1950  221.2130 O   0  0  0  0  0  0  0  0  0  0  0  0
  141.1070   72.8480  219.7700 C   0  0  0  0  0  0  0  0  0  0  0  0
  141.1550   74.2630  220.0210 N   0  0  0  0  0  0  0  0  0  0  0  0
  140.6590   74.7870  221.2440 C   0  0  0  0  0  0  0  0  0  0  0  0
  140.1640   74.0270  222.1410 O   0  0  0  0  0  0  0  0  0  0  0  0
  140.7240   76.2480  221.4640 C   0  0  0  0  0  0  0  0  0  0  0  0
  140.2470   76.7760  222.6480 C   0  0  0  0  0  0  0  0  0  0  0  0
  140.2770   78.1260  222.9190 C   0  0  0  0  0  0  0  0  0  0  0  0
  140.8110   78.9560  221.9500 C   0  0  0  0  0  0  0  0  0  0  0  0
  140.8400   80.3040  222.2210 C   0  0  0  0  0  0  0  0  0  0  0  0
  141.3720   81.1350  221.2560 C   0  0  0  0  0  0  0  0  0  0  0  0
  141.4430   82.8790  221.5330 Cl  0  0  0  0  0  0  0  0  0  0  0  0
  141.8520   80.6270  220.0700 C   0  0  0  0  0  0  0  0  0  0  0  0
  141.8090   79.2580  219.8240 C   0  0  0  0  0  0  0  0  0  0  0  0
  141.2790   78.4000  220.7780 C   0  0  0  0  0  0  0  0  0  0  0  0
  141.2310   77.0680  220.5510 N   0  0  0  0  0  0  0  0  0  0  0  0
  140.8196   77.1252  218.4459 H   0  0  0  0  0  0  0  0  0  0  0  0
  140.4409   78.0783  216.9711 H   0  0  0  0  0  0  0  0  0  0  0  0
  140.2159   76.2961  216.9711 H   0  0  0  0  0  0  0  0  0  0  0  0
  142.4129   77.4610  215.8979 H   0  0  0  0  0  0  0  0  0  0  0  0
  142.9789   77.3624  217.5946 H   0  0  0  0  0  0  0  0  0  0  0  0
  141.9583   74.8869  217.4054 H   0  0  0  0  0  0  0  0  0  0  0  0
  142.2687   75.1526  215.6606 H   0  0  0  0  0  0  0  0  0  0  0  0
  144.4515   74.7905  215.9851 H   0  0  0  0  0  0  0  0  0  0  0  0
  144.5134   76.1483  217.1552 H   0  0  0  0  0  0  0  0  0  0  0  0
  144.4310   73.2610  217.8580 H   0  0  0  0  0  0  0  0  0  0  0  0
  143.4767   74.4428  221.3024 H   0  0  0  0  0  0  0  0  0  0  0  0
  146.1005   74.5330  220.7786 H   0  0  0  0  0  0  0  0  0  0  0  0
  145.6160   73.3520  221.9616 H   0  0  0  0  0  0  0  0  0  0  0  0
  146.6584   71.8985  220.2870 H   0  0  0  0  0  0  0  0  0  0  0  0
  146.3570   74.1580  218.9310 H   0  0  0  0  0  0  0  0  0  0  0  0
  144.4750   71.5386  218.6218 H   0  0  0  0  0  0  0  0  0  0  0  0
  144.6786   70.7388  220.1663 H   0  0  0  0  0  0  0  0  0  0  0  0
  141.1781   72.6720  218.6865 H   0  0  0  0  0  0  0  0  0  0  0  0
  140.1579   72.4540  220.1623 H   0  0  0  0  0  0  0  0  0  0  0  0
  141.5510   74.9500  219.3210 H   0  0  0  0  0  0  0  0  0  0  0  0
  139.8279   76.0933  223.4019 H   0  0  0  0  0  0  0  0  0  0  0  0
  139.8918   78.5279  223.8678 H   0  0  0  0  0  0  0  0  0  0  0  0
  140.4541   80.7044  223.1701 H   0  0  0  0  0  0  0  0  0  0  0  0
  142.2715   81.3063  219.3133 H   0  0  0  0  0  0  0  0  0  0  0  0
  142.1943   78.8564  218.8752 H   0  0  0  0  0  0  0  0  0  0  0  0
  1  2  1  0
  2  3  1  0
  3  4  1  0
  4  5  1  0
  5  6  1  0
  6  7  2  0
  6  8  1  0
  8  9  1  0
  9 10  1  0
 10 11  1  0
 10 12  1  0
 12 13  1  0
 13 14  1  0
 14 15  2  0
 14 16  1  0
 16 17  1  0
 17 18  1  0
 18 19  2  0
 18 20  1  0
 20 21  2  0
 21 22  1  0
 22 23  2  0
 23 24  1  0
 24 25  2  0
 25 26  1  0
 25 27  1  0
 27 28  2  0
 28 29  1  0
 29 30  2  0
 13  8  1  0
 30 20  1  0
 29 23  1  0
  1 31  1  0
  1 32  1  0
  1 33  1  0
  2 34  1  0
  2 35  1  0
  3 36  1  0
  3 37  1  0
  4 38  1  0
  4 39  1  0
  5 40  1  0
  8 41  1  1
  9 42  1  0
  9 43  1  0
 10 44  1  1
 11 45  1  0
 12 46  1  0
 12 47  1  0
 16 48  1  0
 16 49  1  0
 17 50  1  0
 21 51  1  0
 22 52  1  0
 24 53  1  0
 27 54  1  0
 28 55  1  0
M  END
>  <smiles>  (48) 
CCCCNC(=O)[C@@H]1C[C@H](O)CN1C(=O)CNC(=O)c1ccc2cc(Cl)ccc2n1

>  <score_type>  (48) 
oracle

>  <origin>  (48) 
autodockgpu

>  <m_score__min__energy>  (48) 
-7.9199999999999999

>  <m_primary>  (48) 
energy

>  <rmsd>  (48) 
7.091097046013634

>  <m_score__min__rmsd>  (48) 
7.091097046013634

>  <meeko>  (48) 
{"free_energy": -5.81, "intermolecular_energy": -8.5, "internal_energy": -3.79, "cluster_size": 7, "cluster_id": 4, "rank_in_cluster": 7}

>  <energy>  (48) 
-6.16

>  <cluster_rmsd>  (48) 
0.0

>  <cluster>  (48) 
6

$$$$

     RDKit          3D

 55 57  0  0  0  0  0  0  0  0999 V2000
  141.7870   79.1030  223.8750 C   0  0  0  0  0  0  0  0  0  0  0  0
  141.1650   80.2550  223.0760 C   0  0  0  0  0  0  0  0  0  0  0  0
  142.1850   80.7610  222.0770 C   0  0  0  0  0  0  0  0  0  0  0  0
  141.8140   80.2670  220.7150 C   0  0  0  0  0  0  0  0  0  0  0  0
  140.9880   79.0820  220.8490 N   0  0  0  0  0  0  0  0  0  0  0  0
  139.7370   79.0940  220.1750 C   0  0  0  0  0  0  0  0  0  0  0  0
  139.4600   80.1370  219.5210 O   0  0  0  0  0  0  0  0  0  0  0  0
  138.7760   77.9550  220.2130 C   0  0  2  0  0  0  0  0  0  0  0  0
  137.3340   78.4170  220.2700 C   0  0  0  0  0  0  0  0  0  0  0  0
  137.1990   78.7950  221.7280 C   0  0  2  0  0  0  0  0  0  0  0  0
  137.5950   80.1200  221.8720 O   0  0  0  0  0  0  0  0  0  0  0  0
  138.0620   77.8520  222.5000 C   0  0  0  0  0  0  0  0  0  0  0  0
  138.8990   77.2630  221.4800 N   0  0  0  0  0  0  0  0  0  0  0  0
  139.7530   76.1390  221.6590 C   0  0  0  0  0  0  0  0  0  0  0  0
  140.9120   76.2190  222.1460 O   0  0  0  0  0  0  0  0  0  0  0  0
  139.2940   74.7790  221.2630 C   0  0  0  0  0  0  0  0  0  0  0  0
  139.4770   73.8410  222.3370 N   0  0  0  0  0  0  0  0  0  0  0  0
  139.5480   72.4500  222.0630 C   0  0  0  0  0  0  0  0  0  0  0  0
  139.4530   72.0000  220.8730 O   0  0  0  0  0  0  0  0  0  0  0  0
  139.7370   71.5160  223.1950 C   0  0  0  0  0  0  0  0  0  0  0  0
  139.3850   70.1890  223.0440 C   0  0  0  0  0  0  0  0  0  0  0  0
  139.5330   69.2660  224.0560 C   0  0  0  0  0  0  0  0  0  0  0  0
  140.0570   69.7170  225.2540 C   0  0  0  0  0  0  0  0  0  0  0  0
  140.2040   68.7950  226.2640 C   0  0  0  0  0  0  0  0  0  0  0  0
  140.7270   69.2420  227.4600 C   0  0  0  0  0  0  0  0  0  0  0  0
  140.9460   68.1150  228.8050 Cl  0  0  0  0  0  0  0  0  0  0  0  0
  141.0840   70.5610  227.6300 C   0  0  0  0  0  0  0  0  0  0  0  0
  140.9230   71.4700  226.5890 C   0  0  0  0  0  0  0  0  0  0  0  0
  140.3990   71.0470  225.3750 C   0  0  0  0  0  0  0  0  0  0  0  0
  140.2380   71.9210  224.3560 N   0  0  0  0  0  0  0  0  0  0  0  0
  141.6790   79.3030  224.9513 H   0  0  0  0  0  0  0  0  0  0  0  0
  141.2737   78.1632  223.6234 H   0  0  0  0  0  0  0  0  0  0  0  0
  142.8543   79.0166  223.6234 H   0  0  0  0  0  0  0  0  0  0  0  0
  140.2720   79.8959  222.5433 H   0  0  0  0  0  0  0  0  0  0  0  0
  140.8729   81.0679  223.7570 H   0  0  0  0  0  0  0  0  0  0  0  0
  142.1925   81.8610  222.0817 H   0  0  0  0  0  0  0  0  0  0  0  0
  143.1860   80.3937  222.3473 H   0  0  0  0  0  0  0  0  0  0  0  0
  141.2539   81.0479  220.1798 H   0  0  0  0  0  0  0  0  0  0  0  0
  142.7246   80.0221  220.1487 H   0  0  0  0  0  0  0  0  0  0  0  0
  141.2620   78.2410  221.4010 H   0  0  0  0  0  0  0  0  0  0  0  0
  139.0004   77.3575  219.3171 H   0  0  0  0  0  0  0  0  0  0  0  0
  137.1624   79.2821  219.6126 H   0  0  0  0  0  0  0  0  0  0  0  0
  136.6069   77.6641  219.9315 H   0  0  0  0  0  0  0  0  0  0  0  0
  136.1669   78.7174  222.1005 H   0  0  0  0  0  0  0  0  0  0  0  0
  137.8900   80.4530  220.9660 H   0  0  0  0  0  0  0  0  0  0  0  0
  138.6668   78.3901  223.2448 H   0  0  0  0  0  0  0  0  0  0  0  0
  137.4866   77.1076  223.0698 H   0  0  0  0  0  0  0  0  0  0  0  0
  138.2266   74.8217  221.0005 H   0  0  0  0  0  0  0  0  0  0  0  0
  139.8896   74.4452  220.4005 H   0  0  0  0  0  0  0  0  0  0  0  0
  139.5640   74.1450  223.3460 H   0  0  0  0  0  0  0  0  0  0  0  0
  138.9713   69.8569  222.0804 H   0  0  0  0  0  0  0  0  0  0  0  0
  139.2461   68.2132  223.9170 H   0  0  0  0  0  0  0  0  0  0  0  0
  139.9159   67.7427  226.1238 H   0  0  0  0  0  0  0  0  0  0  0  0
  141.4979   70.8972  228.5921 H   0  0  0  0  0  0  0  0  0  0  0  0
  141.2106   72.5226  226.7278 H   0  0  0  0  0  0  0  0  0  0  0  0
  1  2  1  0
  2  3  1  0
  3  4  1  0
  4  5  1  0
  5  6  1  0
  6  7  2  0
  6  8  1  0
  8  9  1  0
  9 10  1  0
 10 11  1  0
 10 12  1  0
 12 13  1  0
 13 14  1  0
 14 15  2  0
 14 16  1  0
 16 17  1  0
 17 18  1  0
 18 19  2  0
 18 20  1  0
 20 21  2  0
 21 22  1  0
 22 23  2  0
 23 24  1  0
 24 25  2  0
 25 26  1  0
 25 27  1  0
 27 28  2  0
 28 29  1  0
 29 30  2  0
 13  8  1  0
 30 20  1  0
 29 23  1  0
  1 31  1  0
  1 32  1  0
  1 33  1  0
  2 34  1  0
  2 35  1  0
  3 36  1  0
  3 37  1  0
  4 38  1  0
  4 39  1  0
  5 40  1  0
  8 41  1  6
  9 42  1  0
  9 43  1  0
 10 44  1  1
 11 45  1  0
 12 46  1  0
 12 47  1  0
 16 48  1  0
 16 49  1  0
 17 50  1  0
 21 51  1  0
 22 52  1  0
 24 53  1  0
 27 54  1  0
 28 55  1  0
M  END
>  <smiles>  (49) 
CCCCNC(=O)[C@@H]1C[C@H](O)CN1C(=O)CNC(=O)c1ccc2cc(Cl)ccc2n1

>  <score_type>  (49) 
oracle

>  <origin>  (49) 
autodockgpu

>  <m_score__min__energy>  (49) 
-7.9199999999999999

>  <m_primary>  (49) 
energy

>  <rmsd>  (49) 
5.342071841401844

>  <m_score__min__rmsd>  (49) 
5.342071841401844

>  <meeko>  (49) 
{"free_energy": -6.26, "intermolecular_energy": -8.94, "internal_energy": -3.29, "cluster_size": 5, "cluster_id": 2, "rank_in_cluster": 4}

>  <energy>  (49) 
-5.89

>  <cluster_rmsd>  (49) 
0.0

>  <cluster>  (49) 
7

$$$$

     RDKit          3D

 55 57  0  0  0  0  0  0  0  0999 V2000
  146.3470   73.3550  221.6000 C   0  0  0  0  0  0  0  0  0  0  0  0
  145.2390   73.0020  220.6010 C   0  0  0  0  0  0  0  0  0  0  0  0
  144.3240   74.1990  220.4440 C   0  0  0  0  0  0  0  0  0  0  0  0
  142.9260   73.7850  220.7730 C   0  0  0  0  0  0  0  0  0  0  0  0
  142.0010   74.7600  220.2250 N   0  0  0  0  0  0  0  0  0  0  0  0
  140.8350   75.0370  220.9890 C   0  0  0  0  0  0  0  0  0  0  0  0
  140.7120   74.4080  222.0760 O   0  0  0  0  0  0  0  0  0  0  0  0
  139.7920   76.0120  220.5640 C   0  0  2  0  0  0  0  0  0  0  0  0
  140.2980   77.4410  220.5700 C   0  0  0  0  0  0  0  0  0  0  0  0
  140.2410   77.7720  222.0440 C   0  0  2  0  0  0  0  0  0  0  0  0
  141.4420   77.3780  222.6240 O   0  0  0  0  0  0  0  0  0  0  0  0
  139.0660   77.0410  222.6050 C   0  0  0  0  0  0  0  0  0  0  0  0
  138.7540   76.0790  221.5720 N   0  0  0  0  0  0  0  0  0  0  0  0
  137.5790   75.2780  221.5180 C   0  0  0  0  0  0  0  0  0  0  0  0
  136.4300   75.7120  221.7950 O   0  0  0  0  0  0  0  0  0  0  0  0
  137.6670   73.8460  221.1190 C   0  0  0  0  0  0  0  0  0  0  0  0
  138.1980   73.0460  222.1880 N   0  0  0  0  0  0  0  0  0  0  0  0
  137.7810   71.6970  222.3430 C   0  0  0  0  0  0  0  0  0  0  0  0
  136.9360   71.1660  221.5490 O   0  0  0  0  0  0  0  0  0  0  0  0
  138.3500   70.9060  223.4560 C   0  0  0  0  0  0  0  0  0  0  0  0
  138.0160   69.5710  223.5790 C   0  0  0  0  0  0  0  0  0  0  0  0
  138.5070   68.7760  224.5900 C   0  0  0  0  0  0  0  0  0  0  0  0
  139.3660   69.3670  225.5000 C   0  0  0  0  0  0  0  0  0  0  0  0
  139.8570   68.5730  226.5100 C   0  0  0  0  0  0  0  0  0  0  0  0
  140.7140   69.1590  227.4190 C   0  0  0  0  0  0  0  0  0  0  0  0
  141.3850   68.2010  228.7450 Cl  0  0  0  0  0  0  0  0  0  0  0  0
  141.0590   70.4870  227.3140 C   0  0  0  0  0  0  0  0  0  0  0  0
  140.5460   71.2660  226.2810 C   0  0  0  0  0  0  0  0  0  0  0  0
  139.6820   70.7010  225.3530 C   0  0  0  0  0  0  0  0  0  0  0  0
  139.1760   71.4470  224.3440 N   0  0  0  0  0  0  0  0  0  0  0  0
  145.9681   73.2343  222.6256 H   0  0  0  0  0  0  0  0  0  0  0  0
  147.2066   72.6862  221.4456 H   0  0  0  0  0  0  0  0  0  0  0  0
  146.6613   74.3978  221.4456 H   0  0  0  0  0  0  0  0  0  0  0  0
  145.6854   72.7478  219.6283 H   0  0  0  0  0  0  0  0  0  0  0  0
  144.6652   72.1386  220.9688 H   0  0  0  0  0  0  0  0  0  0  0  0
  144.6427   74.9998  221.1275 H   0  0  0  0  0  0  0  0  0  0  0  0
  144.3695   74.5703  219.4095 H   0  0  0  0  0  0  0  0  0  0  0  0
  142.7217   72.7967  220.3352 H   0  0  0  0  0  0  0  0  0  0  0  0
  142.8028   73.7298  221.8647 H   0  0  0  0  0  0  0  0  0  0  0  0
  142.1480   75.2560  219.3190 H   0  0  0  0  0  0  0  0  0  0  0  0
  139.4711   75.6738  219.5677 H   0  0  0  0  0  0  0  0  0  0  0  0
  141.3255   77.5055  220.1827 H   0  0  0  0  0  0  0  0  0  0  0  0
  139.7188   78.1256  219.9329 H   0  0  0  0  0  0  0  0  0  0  0  0
  140.1170   78.8470  222.2416 H   0  0  0  0  0  0  0  0  0  0  0  0
  141.4990   76.3720  222.5630 H   0  0  0  0  0  0  0  0  0  0  0  0
  139.3275   76.5375  223.5474 H   0  0  0  0  0  0  0  0  0  0  0  0
  138.2216   77.7025  222.8488 H   0  0  0  0  0  0  0  0  0  0  0  0
  136.6614   73.4816  220.8621 H   0  0  0  0  0  0  0  0  0  0  0  0
  138.3393   73.7641  220.2522 H   0  0  0  0  0  0  0  0  0  0  0  0
  138.9020   73.4220  222.8820 H   0  0  0  0  0  0  0  0  0  0  0  0
  137.3319   69.1265  222.8412 H   0  0  0  0  0  0  0  0  0  0  0  0
  138.2281   67.7150  224.6711 H   0  0  0  0  0  0  0  0  0  0  0  0
  139.5774   67.5121  226.5900 H   0  0  0  0  0  0  0  0  0  0  0  0
  141.7432   70.9348  228.0497 H   0  0  0  0  0  0  0  0  0  0  0  0
  140.8246   72.3271  226.2001 H   0  0  0  0  0  0  0  0  0  0  0  0
  1  2  1  0
  2  3  1  0
  3  4  1  0
  4  5  1  0
  5  6  1  0
  6  7  2  0
  6  8  1  0
  8  9  1  0
  9 10  1  0
 10 11  1  0
 10 12  1  0
 12 13  1  0
 13 14  1  0
 14 15  2  0
 14 16  1  0
 16 17  1  0
 17 18  1  0
 18 19  2  0
 18 20  1  0
 20 21  2  0
 21 22  1  0
 22 23  2  0
 23 24  1  0
 24 25  2  0
 25 26  1  0
 25 27  1  0
 27 28  2  0
 28 29  1  0
 29 30  2  0
 13  8  1  0
 30 20  1  0
 29 23  1  0
  1 31  1  0
  1 32  1  0
  1 33  1  0
  2 34  1  0
  2 35  1  0
  3 36  1  0
  3 37  1  0
  4 38  1  0
  4 39  1  0
  5 40  1  0
  8 41  1  6
  9 42  1  0
  9 43  1  0
 10 44  1  6
 11 45  1  0
 12 46  1  0
 12 47  1  0
 16 48  1  0
 16 49  1  0
 17 50  1  0
 21 51  1  0
 22 52  1  0
 24 53  1  0
 27 54  1  0
 28 55  1  0
M  END
>  <smiles>  (50) 
CCCCNC(=O)[C@@H]1C[C@H](O)CN1C(=O)CNC(=O)c1ccc2cc(Cl)ccc2n1

>  <score_type>  (50) 
oracle

>  <origin>  (50) 
autodockgpu

>  <m_score__min__energy>  (50) 
-7.9199999999999999

>  <m_primary>  (50) 
energy

>  <rmsd>  (50) 
4.787587722349049

>  <m_score__min__rmsd>  (50) 
4.787587722349049

>  <meeko>  (50) 
{"free_energy": -7.35, "intermolecular_energy": -10.03, "internal_energy": -2.93, "cluster_size": 32, "cluster_id": 1, "rank_in_cluster": 11}

>  <energy>  (50) 
-4.98

>  <cluster_rmsd>  (50) 
1.07

>  <cluster>  (50) 
7

$$$$
