
     RDKit          3D

 57 60  0  0  0  0  0  0  0  0999 V2000
  141.7260   72.8460  221.1850 O   0  0  0  0  0  0  0  0  0  0  0  0
  140.8990   73.6730  221.6540 C   0  0  0  0  0  0  0  0  0  0  0  0
  139.7850   73.1470  222.3470 N   0  0  0  0  0  0  0  0  0  0  0  0
  139.6870   71.7060  222.4600 C   0  0  0  0  0  0  0  0  0  0  0  0
  138.3190   71.3550  222.9130 C   0  0  0  0  0  0  0  0  0  0  0  0
  137.4500   72.2640  222.8490 O   0  0  0  0  0  0  0  0  0  0  0  0
  138.0060   70.0350  223.4040 N   0  0  0  0  0  0  0  0  0  0  0  0
  136.6230   69.6200  223.3660 C   0  0  0  0  0  0  0  0  0  0  0  0
  136.5320   68.3390  222.5740 C   0  0  0  0  0  0  0  0  0  0  0  0
  137.8940   67.8350  222.2460 C   0  0  0  0  0  0  0  0  0  0  0  0
  138.8210   67.8160  223.4480 C   0  0  0  0  0  0  0  0  0  0  0  0
  139.0920   69.2130  223.8910 C   0  0  2  0  0  0  0  0  0  0  0  0
  139.2500   69.3820  225.3620 C   0  0  0  0  0  0  0  0  0  0  0  0
  139.7930   68.1320  226.0520 C   0  0  0  0  0  0  0  0  0  0  0  0
  139.8630   68.5090  227.5370 C   0  0  0  0  0  0  0  0  0  0  0  0
  141.0650   69.4050  227.6950 C   0  0  0  0  0  0  0  0  0  0  0  0
  141.2120   70.3890  226.5570 C   0  0  0  0  0  0  0  0  0  0  0  0
  139.8970   70.6240  225.8430 C   0  0  0  0  0  0  0  0  0  0  0  0
  141.0790   75.1140  221.4920 C   0  0  0  0  0  0  0  0  0  0  0  0
  141.9470   75.5520  220.4910 C   0  0  0  0  0  0  0  0  0  0  0  0
  142.1350   76.9240  220.3180 C   0  0  0  0  0  0  0  0  0  0  0  0
  141.4650   77.8440  221.1300 C   0  0  0  0  0  0  0  0  0  0  0  0
  141.6790   79.1920  220.9280 C   0  0  0  0  0  0  0  0  0  0  0  0
  141.0030   80.0770  221.7460 C   0  0  0  0  0  0  0  0  0  0  0  0
  140.1460   79.6060  222.7320 C   0  0  0  0  0  0  0  0  0  0  0  0
  139.2880   80.7230  223.7710 Cl  0  0  0  0  0  0  0  0  0  0  0  0
  139.9560   78.2490  222.9080 C   0  0  0  0  0  0  0  0  0  0  0  0
  140.6210   77.3480  222.1020 C   0  0  0  0  0  0  0  0  0  0  0  0
  140.4490   76.0240  222.2590 N   0  0  0  0  0  0  0  0  0  0  0  0
  139.0700   73.7910  222.7550 H   0  0  0  0  0  0  0  0  0  0  0  0
  139.8824   71.2441  221.4810 H   0  0  0  0  0  0  0  0  0  0  0  0
  140.4275   71.3363  223.1846 H   0  0  0  0  0  0  0  0  0  0  0  0
  136.2576   69.4507  224.3896 H   0  0  0  0  0  0  0  0  0  0  0  0
  136.0070   70.4002  222.8950 H   0  0  0  0  0  0  0  0  0  0  0  0
  135.9987   67.5824  223.1682 H   0  0  0  0  0  0  0  0  0  0  0  0
  135.9887   68.5355  221.6379 H   0  0  0  0  0  0  0  0  0  0  0  0
  137.8047   66.8107  221.8551 H   0  0  0  0  0  0  0  0  0  0  0  0
  138.3298   68.5194  221.5033 H   0  0  0  0  0  0  0  0  0  0  0  0
  138.3462   67.2573  224.2680 H   0  0  0  0  0  0  0  0  0  0  0  0
  139.7682   67.3296  223.1718 H   0  0  0  0  0  0  0  0  0  0  0  0
  140.0647   69.5137  223.4745 H   0  0  0  0  0  0  0  0  0  0  0  0
  138.2074   69.5233  225.6830 H   0  0  0  0  0  0  0  0  0  0  0  0
  139.1154   67.2790  225.8995 H   0  0  0  0  0  0  0  0  0  0  0  0
  140.7715   67.8269  225.6526 H   0  0  0  0  0  0  0  0  0  0  0  0
  138.9492   69.0427  227.8371 H   0  0  0  0  0  0  0  0  0  0  0  0
  139.9479   67.6141  228.1710 H   0  0  0  0  0  0  0  0  0  0  0  0
  140.9641   69.9668  228.6353 H   0  0  0  0  0  0  0  0  0  0  0  0
  141.9592   68.7643  227.6982 H   0  0  0  0  0  0  0  0  0  0  0  0
  141.5750   71.3465  226.9589 H   0  0  0  0  0  0  0  0  0  0  0  0
  141.9245   69.9690  225.8318 H   0  0  0  0  0  0  0  0  0  0  0  0
  139.2092   71.1268  226.5388 H   0  0  0  0  0  0  0  0  0  0  0  0
  140.1180   71.2354  224.9557 H   0  0  0  0  0  0  0  0  0  0  0  0
  142.4733   74.8293  219.8502 H   0  0  0  0  0  0  0  0  0  0  0  0
  142.8174   77.2853  219.5346 H   0  0  0  0  0  0  0  0  0  0  0  0
  142.3630   79.5492  220.1441 H   0  0  0  0  0  0  0  0  0  0  0  0
  141.1444   81.1600  221.6155 H   0  0  0  0  0  0  0  0  0  0  0  0
  139.2740   77.8866  223.6913 H   0  0  0  0  0  0  0  0  0  0  0  0
  1  2  2  0
  2  3  1  0
  3  4  1  0
  4  5  1  0
  5  6  2  0
  5  7  1  0
  7  8  1  0
  8  9  1  0
  9 10  1  0
 10 11  1  0
 11 12  1  0
 12 13  1  0
 13 14  1  0
 14 15  1  0
 15 16  1  0
 16 17  1  0
 17 18  1  0
  2 19  1  0
 19 20  2  0
 20 21  1  0
 21 22  2  0
 22 23  1  0
 23 24  2  0
 24 25  1  0
 25 26  1  0
 25 27  2  0
 27 28  1  0
 28 29  2  0
 12  7  1  0
 18 13  1  0
 29 19  1  0
 28 22  1  0
  3 30  1  0
  4 31  1  0
  4 32  1  0
  8 33  1  0
  8 34  1  0
  9 35  1  0
  9 36  1  0
 10 37  1  0
 10 38  1  0
 11 39  1  0
 11 40  1  0
 12 41  1  6
 13 42  1  0
 14 43  1  0
 14 44  1  0
 15 45  1  0
 15 46  1  0
 16 47  1  0
 16 48  1  0
 17 49  1  0
 17 50  1  0
 18 51  1  0
 18 52  1  0
 20 53  1  0
 21 54  1  0
 23 55  1  0
 24 56  1  0
 27 57  1  0
M  END
>  <smiles>  (1) 
O=C(NCC(=O)N1CCCCC1C1CCCCC1)c1ccc2ccc(Cl)cc2n1

>  <score_type>  (1) 
oracle

>  <origin>  (1) 
autodockgpu

>  <m_score__min__energy>  (1) 
-9.5600000000000005

>  <m_primary>  (1) 
energy

>  <rmsd>  (1) 
8.357200361917762

>  <m_score__min__rmsd>  (1) 
8.357200361917762

>  <meeko>  (1) 
{"free_energy": -8.13, "intermolecular_energy": -9.62, "internal_energy": -2.11, "cluster_size": 17, "cluster_id": 1, "rank_in_cluster": 15}

>  <energy>  (1) 
-9.56

>  <cluster_rmsd>  (1) 
0.0

>  <cluster>  (1) 
1

$$$$

     RDKit          3D

 57 60  0  0  0  0  0  0  0  0999 V2000
  140.9030   74.2130  221.3980 O   0  0  0  0  0  0  0  0  0  0  0  0
  139.9070   74.7280  221.9730 C   0  0  0  0  0  0  0  0  0  0  0  0
  138.8210   73.8730  222.2700 N   0  0  0  0  0  0  0  0  0  0  0  0
  138.9440   72.4800  221.8890 C   0  0  0  0  0  0  0  0  0  0  0  0
  139.8020   71.7880  222.8820 C   0  0  0  0  0  0  0  0  0  0  0  0
  141.0390   72.0160  222.8170 O   0  0  0  0  0  0  0  0  0  0  0  0
  139.2410   70.8990  223.8690 N   0  0  0  0  0  0  0  0  0  0  0  0
  137.8660   71.1160  224.2560 C   0  0  0  0  0  0  0  0  0  0  0  0
  137.0980   69.8390  224.0180 C   0  0  0  0  0  0  0  0  0  0  0  0
  138.0260   68.7400  223.6350 C   0  0  0  0  0  0  0  0  0  0  0  0
  139.2290   68.6370  224.5560 C   0  0  0  0  0  0  0  0  0  0  0  0
  140.0820   69.8490  224.3990 C   0  0  2  0  0  0  0  0  0  0  0  0
  140.7560   70.3030  225.6460 C   0  0  0  0  0  0  0  0  0  0  0  0
  140.5840   71.7980  225.9070 C   0  0  0  0  0  0  0  0  0  0  0  0
  141.3560   72.0540  227.2090 C   0  0  0  0  0  0  0  0  0  0  0  0
  140.4980   71.5200  228.3270 C   0  0  0  0  0  0  0  0  0  0  0  0
  139.8300   70.2110  227.9750 C   0  0  0  0  0  0  0  0  0  0  0  0
  140.5630   69.4860  226.8660 C   0  0  0  0  0  0  0  0  0  0  0  0
  139.8700   76.1470  222.3200 C   0  0  0  0  0  0  0  0  0  0  0  0
  141.0860   76.8240  222.4190 C   0  0  0  0  0  0  0  0  0  0  0  0
  141.0750   78.1800  222.7500 C   0  0  0  0  0  0  0  0  0  0  0  0
  139.8690   78.8490  222.9770 C   0  0  0  0  0  0  0  0  0  0  0  0
  139.9000   80.1890  223.3030 C   0  0  0  0  0  0  0  0  0  0  0  0
  138.6930   80.8240  223.5220 C   0  0  0  0  0  0  0  0  0  0  0  0
  137.5010   80.1190  223.4150 C   0  0  0  0  0  0  0  0  0  0  0  0
  135.9680   80.9180  223.6920 Cl  0  0  0  0  0  0  0  0  0  0  0  0
  137.5050   78.7770  223.0870 C   0  0  0  0  0  0  0  0  0  0  0  0
  138.7010   78.1240  222.8650 C   0  0  0  0  0  0  0  0  0  0  0  0
  138.7240   76.8180  222.5450 N   0  0  0  0  0  0  0  0  0  0  0  0
  137.9720   74.2510  222.7450 H   0  0  0  0  0  0  0  0  0  0  0  0
  137.9486   72.0123  221.8705 H   0  0  0  0  0  0  0  0  0  0  0  0
  139.3939   72.4041  220.8881 H   0  0  0  0  0  0  0  0  0  0  0  0
  137.8178   71.3856  225.3214 H   0  0  0  0  0  0  0  0  0  0  0  0
  137.4311   71.9349  223.6642 H   0  0  0  0  0  0  0  0  0  0  0  0
  136.5653   69.5593  224.9388 H   0  0  0  0  0  0  0  0  0  0  0  0
  136.3799   70.0012  223.2007 H   0  0  0  0  0  0  0  0  0  0  0  0
  137.4758   67.7881  223.6679 H   0  0  0  0  0  0  0  0  0  0  0  0
  138.4007   68.9604  222.6245 H   0  0  0  0  0  0  0  0  0  0  0  0
  138.8868   68.5624  225.5987 H   0  0  0  0  0  0  0  0  0  0  0  0
  139.8133   67.7420  224.2961 H   0  0  0  0  0  0  0  0  0  0  0  0
  140.9081   69.5922  223.7196 H   0  0  0  0  0  0  0  0  0  0  0  0
  141.8137   70.1173  225.4075 H   0  0  0  0  0  0  0  0  0  0  0  0
  141.0084   72.3879  225.0813 H   0  0  0  0  0  0  0  0  0  0  0  0
  139.5261   72.0894  225.9846 H   0  0  0  0  0  0  0  0  0  0  0  0
  142.3223   71.5288  227.1874 H   0  0  0  0  0  0  0  0  0  0  0  0
  141.5639   73.1257  227.3441 H   0  0  0  0  0  0  0  0  0  0  0  0
  141.1310   71.3650  229.2132 H   0  0  0  0  0  0  0  0  0  0  0  0
  139.7043   72.2573  228.5180 H   0  0  0  0  0  0  0  0  0  0  0  0
  139.8113   69.5693  228.8683 H   0  0  0  0  0  0  0  0  0  0  0  0
  138.8107   70.4307  227.6246 H   0  0  0  0  0  0  0  0  0  0  0  0
  141.5518   69.1850  227.2423 H   0  0  0  0  0  0  0  0  0  0  0  0
  139.9421   68.6240  226.5805 H   0  0  0  0  0  0  0  0  0  0  0  0
  142.0357   76.2989  222.2395 H   0  0  0  0  0  0  0  0  0  0  0  0
  142.0253   78.7277  222.8330 H   0  0  0  0  0  0  0  0  0  0  0  0
  140.8526   80.7329  223.3856 H   0  0  0  0  0  0  0  0  0  0  0  0
  138.6757   81.8926  223.7823 H   0  0  0  0  0  0  0  0  0  0  0  0
  136.5552   78.2287  223.0027 H   0  0  0  0  0  0  0  0  0  0  0  0
  1  2  2  0
  2  3  1  0
  3  4  1  0
  4  5  1  0
  5  6  2  0
  5  7  1  0
  7  8  1  0
  8  9  1  0
  9 10  1  0
 10 11  1  0
 11 12  1  0
 12 13  1  0
 13 14  1  0
 14 15  1  0
 15 16  1  0
 16 17  1  0
 17 18  1  0
  2 19  1  0
 19 20  2  0
 20 21  1  0
 21 22  2  0
 22 23  1  0
 23 24  2  0
 24 25  1  0
 25 26  1  0
 25 27  2  0
 27 28  1  0
 28 29  2  0
 12  7  1  0
 18 13  1  0
 29 19  1  0
 28 22  1  0
  3 30  1  0
  4 31  1  0
  4 32  1  0
  8 33  1  0
  8 34  1  0
  9 35  1  0
  9 36  1  0
 10 37  1  0
 10 38  1  0
 11 39  1  0
 11 40  1  0
 12 41  1  6
 13 42  1  0
 14 43  1  0
 14 44  1  0
 15 45  1  0
 15 46  1  0
 16 47  1  0
 16 48  1  0
 17 49  1  0
 17 50  1  0
 18 51  1  0
 18 52  1  0
 20 53  1  0
 21 54  1  0
 23 55  1  0
 24 56  1  0
 27 57  1  0
M  END
>  <smiles>  (2) 
O=C(NCC(=O)N1CCCCC1C1CCCCC1)c1ccc2ccc(Cl)cc2n1

>  <score_type>  (2) 
oracle

>  <origin>  (2) 
autodockgpu

>  <m_score__min__energy>  (2) 
-9.5600000000000005

>  <m_primary>  (2) 
energy

>  <rmsd>  (2) 
8.337948823332047

>  <m_score__min__rmsd>  (2) 
8.337948823332047

>  <meeko>  (2) 
{"free_energy": -8.65, "intermolecular_energy": -10.14, "internal_energy": -1.62, "cluster_size": 17, "cluster_id": 1, "rank_in_cluster": 10}

>  <energy>  (2) 
-9.53

>  <cluster_rmsd>  (2) 
0.18

>  <cluster>  (2) 
1

$$$$

     RDKit          3D

 57 60  0  0  0  0  0  0  0  0999 V2000
  141.7680   71.9470  221.6020 O   0  0  0  0  0  0  0  0  0  0  0  0
  140.7880   72.1460  222.3690 C   0  0  0  0  0  0  0  0  0  0  0  0
  140.1800   73.4210  222.3180 N   0  0  0  0  0  0  0  0  0  0  0  0
  140.7320   74.3890  221.3910 C   0  0  0  0  0  0  0  0  0  0  0  0
  140.2730   75.7430  221.7860 C   0  0  0  0  0  0  0  0  0  0  0  0
  139.4030   75.8040  222.6940 O   0  0  0  0  0  0  0  0  0  0  0  0
  140.8010   76.9280  221.1550 N   0  0  0  0  0  0  0  0  0  0  0  0
  141.8580   76.7530  220.1870 C   0  0  0  0  0  0  0  0  0  0  0  0
  141.4200   77.3780  218.8850 C   0  0  0  0  0  0  0  0  0  0  0  0
  140.1390   78.1130  219.0690 C   0  0  0  0  0  0  0  0  0  0  0  0
  140.1520   79.0270  220.2810 C   0  0  0  0  0  0  0  0  0  0  0  0
  140.2350   78.2080  221.5230 C   0  0  2  0  0  0  0  0  0  0  0  0
  141.0210   78.8240  222.6270 C   0  0  0  0  0  0  0  0  0  0  0  0
  142.2630   79.5650  222.1350 C   0  0  0  0  0  0  0  0  0  0  0  0
  142.9240   80.1010  223.4110 C   0  0  0  0  0  0  0  0  0  0  0  0
  142.1040   81.2860  223.8530 C   0  0  0  0  0  0  0  0  0  0  0  0
  140.6180   81.0590  223.6940 C   0  0  0  0  0  0  0  0  0  0  0  0
  140.2750   79.5840  223.6570 C   0  0  0  0  0  0  0  0  0  0  0  0
  140.2980   71.1090  223.2740 C   0  0  0  0  0  0  0  0  0  0  0  0
  139.1520   70.4070  222.8990 C   0  0  0  0  0  0  0  0  0  0  0  0
  138.6660   69.4130  223.7480 C   0  0  0  0  0  0  0  0  0  0  0  0
  139.3140   69.1230  224.9520 C   0  0  0  0  0  0  0  0  0  0  0  0
  138.8010   68.1330  225.7640 C   0  0  0  0  0  0  0  0  0  0  0  0
  139.4620   67.8680  226.9480 C   0  0  0  0  0  0  0  0  0  0  0  0
  140.6010   68.5860  227.2900 C   0  0  0  0  0  0  0  0  0  0  0  0
  141.4440   68.2540  228.7880 Cl  0  0  0  0  0  0  0  0  0  0  0  0
  141.0880   69.5720  226.4530 C   0  0  0  0  0  0  0  0  0  0  0  0
  140.4410   69.8510  225.2670 C   0  0  0  0  0  0  0  0  0  0  0  0
  140.9010   70.8070  224.4400 N   0  0  0  0  0  0  0  0  0  0  0  0
  139.3640   73.6380  222.9340 H   0  0  0  0  0  0  0  0  0  0  0  0
  141.8307   74.3469  221.4229 H   0  0  0  0  0  0  0  0  0  0  0  0
  140.3946   74.1629  220.3687 H   0  0  0  0  0  0  0  0  0  0  0  0
  142.7747   77.2443  220.5451 H   0  0  0  0  0  0  0  0  0  0  0  0
  142.0639   75.6823  220.0418 H   0  0  0  0  0  0  0  0  0  0  0  0
  142.1944   78.0793  218.5407 H   0  0  0  0  0  0  0  0  0  0  0  0
  141.2721   76.5833  218.1390 H   0  0  0  0  0  0  0  0  0  0  0  0
  139.9515   78.7217  218.1722 H   0  0  0  0  0  0  0  0  0  0  0  0
  139.3486   77.3647  219.2280 H   0  0  0  0  0  0  0  0  0  0  0  0
  141.0227   79.6969  220.2252 H   0  0  0  0  0  0  0  0  0  0  0  0
  139.2286   79.6246  220.2982 H   0  0  0  0  0  0  0  0  0  0  0  0
  139.2177   78.1150  221.9309 H   0  0  0  0  0  0  0  0  0  0  0  0
  141.3528   77.9369  223.1865 H   0  0  0  0  0  0  0  0  0  0  0  0
  142.9403   78.8788  221.6055 H   0  0  0  0  0  0  0  0  0  0  0  0
  142.0160   80.3674  221.4242 H   0  0  0  0  0  0  0  0  0  0  0  0
  142.9248   79.3268  224.1924 H   0  0  0  0  0  0  0  0  0  0  0  0
  143.9699   80.3877  223.2267 H   0  0  0  0  0  0  0  0  0  0  0  0
  142.3180   81.4862  224.9132 H   0  0  0  0  0  0  0  0  0  0  0  0
  142.3802   82.1380  223.2144 H   0  0  0  0  0  0  0  0  0  0  0  0
  140.0939   81.5253  224.5413 H   0  0  0  0  0  0  0  0  0  0  0  0
  140.3038   81.5071  222.7398 H   0  0  0  0  0  0  0  0  0  0  0  0
  140.5028   79.1498  224.6417 H   0  0  0  0  0  0  0  0  0  0  0  0
  139.2077   79.5088  223.4014 H   0  0  0  0  0  0  0  0  0  0  0  0
  138.6413   70.6333  221.9514 H   0  0  0  0  0  0  0  0  0  0  0  0
  137.7630   68.8512  223.4671 H   0  0  0  0  0  0  0  0  0  0  0  0
  137.8974   67.5742  225.4790 H   0  0  0  0  0  0  0  0  0  0  0  0
  139.0848   67.0853  227.6226 H   0  0  0  0  0  0  0  0  0  0  0  0
  141.9913   70.1342  226.7324 H   0  0  0  0  0  0  0  0  0  0  0  0
  1  2  2  0
  2  3  1  0
  3  4  1  0
  4  5  1  0
  5  6  2  0
  5  7  1  0
  7  8  1  0
  8  9  1  0
  9 10  1  0
 10 11  1  0
 11 12  1  0
 12 13  1  0
 13 14  1  0
 14 15  1  0
 15 16  1  0
 16 17  1  0
 17 18  1  0
  2 19  1  0
 19 20  2  0
 20 21  1  0
 21 22  2  0
 22 23  1  0
 23 24  2  0
 24 25  1  0
 25 26  1  0
 25 27  2  0
 27 28  1  0
 28 29  2  0
 12  7  1  0
 18 13  1  0
 29 19  1  0
 28 22  1  0
  3 30  1  0
  4 31  1  0
  4 32  1  0
  8 33  1  0
  8 34  1  0
  9 35  1  0
  9 36  1  0
 10 37  1  0
 10 38  1  0
 11 39  1  0
 11 40  1  0
 12 41  1  1
 13 42  1  0
 14 43  1  0
 14 44  1  0
 15 45  1  0
 15 46  1  0
 16 47  1  0
 16 48  1  0
 17 49  1  0
 17 50  1  0
 18 51  1  0
 18 52  1  0
 20 53  1  0
 21 54  1  0
 23 55  1  0
 24 56  1  0
 27 57  1  0
M  END
>  <smiles>  (3) 
O=C(NCC(=O)N1CCCCC1C1CCCCC1)c1ccc2ccc(Cl)cc2n1

>  <score_type>  (3) 
oracle

>  <origin>  (3) 
autodockgpu

>  <m_score__min__energy>  (3) 
-9.5600000000000005

>  <m_primary>  (3) 
energy

>  <rmsd>  (3) 
2.5746797981834306

>  <m_score__min__rmsd>  (3) 
2.5746797981834306

>  <meeko>  (3) 
{"free_energy": -8.87, "intermolecular_energy": -10.37, "internal_energy": -1.9, "cluster_size": 24, "cluster_id": 2, "rank_in_cluster": 3}

>  <energy>  (3) 
-9.44

>  <cluster_rmsd>  (3) 
0.2

>  <cluster>  (3) 
1

$$$$

     RDKit          3D

 57 60  0  0  0  0  0  0  0  0999 V2000
  141.0330   73.6740  220.5340 O   0  0  0  0  0  0  0  0  0  0  0  0
  140.4330   73.9250  221.6140 C   0  0  0  0  0  0  0  0  0  0  0  0
  140.1280   72.8280  222.4520 N   0  0  0  0  0  0  0  0  0  0  0  0
  140.5300   71.5110  222.0010 C   0  0  0  0  0  0  0  0  0  0  0  0
  139.4230   70.5590  222.2640 C   0  0  0  0  0  0  0  0  0  0  0  0
  139.0780   69.8140  221.3090 O   0  0  0  0  0  0  0  0  0  0  0  0
  138.7790   70.4950  223.5530 N   0  0  0  0  0  0  0  0  0  0  0  0
  137.7410   71.4620  223.8270 C   0  0  0  0  0  0  0  0  0  0  0  0
  136.4810   70.7170  224.1930 C   0  0  0  0  0  0  0  0  0  0  0  0
  136.7590   69.2600  224.3210 C   0  0  0  0  0  0  0  0  0  0  0  0
  137.9820   68.9670  225.1710 C   0  0  0  0  0  0  0  0  0  0  0  0
  139.2030   69.4680  224.4790 C   0  0  2  0  0  0  0  0  0  0  0  0
  140.2630   69.9910  225.3840 C   0  0  0  0  0  0  0  0  0  0  0  0
  140.2370   71.5120  225.5170 C   0  0  0  0  0  0  0  0  0  0  0  0
  141.4000   71.8370  226.4640 C   0  0  0  0  0  0  0  0  0  0  0  0
  140.9370   71.4720  227.8510 C   0  0  0  0  0  0  0  0  0  0  0  0
  140.1470   70.1830  227.8820 C   0  0  0  0  0  0  0  0  0  0  0  0
  140.4510   69.3080  226.6840 C   0  0  0  0  0  0  0  0  0  0  0  0
  140.0650   75.2890  221.9880 C   0  0  0  0  0  0  0  0  0  0  0  0
  138.7100   75.6220  221.9810 C   0  0  0  0  0  0  0  0  0  0  0  0
  138.3350   76.9190  222.3340 C   0  0  0  0  0  0  0  0  0  0  0  0
  139.2970   77.8680  222.6900 C   0  0  0  0  0  0  0  0  0  0  0  0
  138.8860   79.1390  223.0320 C   0  0  0  0  0  0  0  0  0  0  0  0
  139.8600   80.0570  223.3790 C   0  0  0  0  0  0  0  0  0  0  0  0
  141.2000   79.6900  223.3750 C   0  0  0  0  0  0  0  0  0  0  0  0
  142.4380   80.8480  223.8140 Cl  0  0  0  0  0  0  0  0  0  0  0  0
  141.5780   78.4080  223.0270 C   0  0  0  0  0  0  0  0  0  0  0  0
  140.6200   77.4780  222.6770 C   0  0  0  0  0  0  0  0  0  0  0  0
  140.9690   76.2250  222.3350 N   0  0  0  0  0  0  0  0  0  0  0  0
  139.6320   72.9830  223.3570 H   0  0  0  0  0  0  0  0  0  0  0  0
  140.7457   71.5390  220.9227 H   0  0  0  0  0  0  0  0  0  0  0  0
  141.4348   71.1910  222.5386 H   0  0  0  0  0  0  0  0  0  0  0  0
  138.0466   72.1083  224.6630 H   0  0  0  0  0  0  0  0  0  0  0  0
  137.5653   72.0894  222.9407 H   0  0  0  0  0  0  0  0  0  0  0  0
  136.0994   71.0989  225.1514 H   0  0  0  0  0  0  0  0  0  0  0  0
  135.7331   70.8696  223.4010 H   0  0  0  0  0  0  0  0  0  0  0  0
  135.8861   68.7748  224.7821 H   0  0  0  0  0  0  0  0  0  0  0  0
  136.9564   68.8705  223.3114 H   0  0  0  0  0  0  0  0  0  0  0  0
  137.8805   69.4696  226.1442 H   0  0  0  0  0  0  0  0  0  0  0  0
  138.0686   67.8812  225.3247 H   0  0  0  0  0  0  0  0  0  0  0  0
  139.6745   68.6142  223.9703 H   0  0  0  0  0  0  0  0  0  0  0  0
  141.1781   69.7122  224.8410 H   0  0  0  0  0  0  0  0  0  0  0  0
  140.3880   71.9902  224.5379 H   0  0  0  0  0  0  0  0  0  0  0  0
  139.2732   71.8813  225.8974 H   0  0  0  0  0  0  0  0  0  0  0  0
  142.2877   71.2470  226.1921 H   0  0  0  0  0  0  0  0  0  0  0  0
  141.6770   72.8999  226.4038 H   0  0  0  0  0  0  0  0  0  0  0  0
  141.8192   71.3597  228.4984 H   0  0  0  0  0  0  0  0  0  0  0  0
  140.2743   72.2765  228.2026 H   0  0  0  0  0  0  0  0  0  0  0  0
  140.4012   69.6316  228.7993 H   0  0  0  0  0  0  0  0  0  0  0  0
  139.0770   70.4371  227.8570 H   0  0  0  0  0  0  0  0  0  0  0  0
  141.4973   68.9758  226.7534 H   0  0  0  0  0  0  0  0  0  0  0  0
  139.7408   68.4684  226.7112 H   0  0  0  0  0  0  0  0  0  0  0  0
  137.9513   74.8759  221.7023 H   0  0  0  0  0  0  0  0  0  0  0  0
  137.2708   77.1973  222.3320 H   0  0  0  0  0  0  0  0  0  0  0  0
  137.8207   79.4130  223.0289 H   0  0  0  0  0  0  0  0  0  0  0  0
  139.5730   81.0813  223.6591 H   0  0  0  0  0  0  0  0  0  0  0  0
  142.6418   78.1283  223.0287 H   0  0  0  0  0  0  0  0  0  0  0  0
  1  2  2  0
  2  3  1  0
  3  4  1  0
  4  5  1  0
  5  6  2  0
  5  7  1  0
  7  8  1  0
  8  9  1  0
  9 10  1  0
 10 11  1  0
 11 12  1  0
 12 13  1  0
 13 14  1  0
 14 15  1  0
 15 16  1  0
 16 17  1  0
 17 18  1  0
  2 19  1  0
 19 20  2  0
 20 21  1  0
 21 22  2  0
 22 23  1  0
 23 24  2  0
 24 25  1  0
 25 26  1  0
 25 27  2  0
 27 28  1  0
 28 29  2  0
 12  7  1  0
 18 13  1  0
 29 19  1  0
 28 22  1  0
  3 30  1  0
  4 31  1  0
  4 32  1  0
  8 33  1  0
  8 34  1  0
  9 35  1  0
  9 36  1  0
 10 37  1  0
 10 38  1  0
 11 39  1  0
 11 40  1  0
 12 41  1  6
 13 42  1  0
 14 43  1  0
 14 44  1  0
 15 45  1  0
 15 46  1  0
 16 47  1  0
 16 48  1  0
 17 49  1  0
 17 50  1  0
 18 51  1  0
 18 52  1  0
 20 53  1  0
 21 54  1  0
 23 55  1  0
 24 56  1  0
 27 57  1  0
M  END
>  <smiles>  (4) 
O=C(NCC(=O)N1CCCCC1C1CCCCC1)c1ccc2ccc(Cl)cc2n1

>  <score_type>  (4) 
oracle

>  <origin>  (4) 
autodockgpu

>  <m_score__min__energy>  (4) 
-9.5600000000000005

>  <m_primary>  (4) 
energy

>  <rmsd>  (4) 
8.01053269051958

>  <m_score__min__rmsd>  (4) 
8.01053269051958

>  <meeko>  (4) 
{"free_energy": -9.02, "intermolecular_energy": -10.51, "internal_energy": -1.56, "cluster_size": 17, "cluster_id": 1, "rank_in_cluster": 5}

>  <energy>  (4) 
-9.32

>  <cluster_rmsd>  (4) 
0.24

>  <cluster>  (4) 
1

$$$$

     RDKit          3D

 57 60  0  0  0  0  0  0  0  0999 V2000
  141.5030   72.2100  221.5150 O   0  0  0  0  0  0  0  0  0  0  0  0
  140.4800   72.3660  222.2340 C   0  0  0  0  0  0  0  0  0  0  0  0
  139.7690   73.5790  222.0870 N   0  0  0  0  0  0  0  0  0  0  0  0
  140.2730   74.5380  221.1260 C   0  0  0  0  0  0  0  0  0  0  0  0
  140.2670   75.8850  221.7470 C   0  0  0  0  0  0  0  0  0  0  0  0
  139.5960   76.0180  222.8040 O   0  0  0  0  0  0  0  0  0  0  0  0
  140.9970   76.9840  221.1640 N   0  0  0  0  0  0  0  0  0  0  0  0
  142.1870   76.6680  220.4090 C   0  0  0  0  0  0  0  0  0  0  0  0
  142.0370   77.2420  219.0210 C   0  0  0  0  0  0  0  0  0  0  0  0
  140.8110   78.0830  218.9390 C   0  0  0  0  0  0  0  0  0  0  0  0
  140.6930   79.0670  220.0880 C   0  0  0  0  0  0  0  0  0  0  0  0
  140.4880   78.3240  221.3630 C   0  0  2  0  0  0  0  0  0  0  0  0
  141.1210   78.9460  222.5580 C   0  0  0  0  0  0  0  0  0  0  0  0
  142.4620   79.6100  222.2460 C   0  0  0  0  0  0  0  0  0  0  0  0
  142.9410   80.1640  223.5940 C   0  0  0  0  0  0  0  0  0  0  0  0
  142.1230   81.4020  223.8620 C   0  0  0  0  0  0  0  0  0  0  0  0
  140.6710   81.2370  223.4760 C   0  0  0  0  0  0  0  0  0  0  0  0
  140.2630   79.7790  223.4320 C   0  0  0  0  0  0  0  0  0  0  0  0
  140.0430   71.3420  223.1800 C   0  0  0  0  0  0  0  0  0  0  0  0
  138.9010   70.6060  222.8620 C   0  0  0  0  0  0  0  0  0  0  0  0
  138.4660   69.6230  223.7510 C   0  0  0  0  0  0  0  0  0  0  0  0
  139.1590   69.3770  224.9390 C   0  0  0  0  0  0  0  0  0  0  0  0
  138.6960   68.3980  225.7920 C   0  0  0  0  0  0  0  0  0  0  0  0
  139.4020   68.1770  226.9590 C   0  0  0  0  0  0  0  0  0  0  0  0
  140.5350   68.9280  227.2440 C   0  0  0  0  0  0  0  0  0  0  0  0
  141.4330   68.6530  228.7220 Cl  0  0  0  0  0  0  0  0  0  0  0  0
  140.9720   69.9030  226.3680 C   0  0  0  0  0  0  0  0  0  0  0  0
  140.2800   70.1380  225.1970 C   0  0  0  0  0  0  0  0  0  0  0  0
  140.6910   71.0830  224.3320 N   0  0  0  0  0  0  0  0  0  0  0  0
  138.9140   73.7570  222.6600 H   0  0  0  0  0  0  0  0  0  0  0  0
  141.2998   74.2682  220.8381 H   0  0  0  0  0  0  0  0  0  0  0  0
  139.6370   74.5373  220.2285 H   0  0  0  0  0  0  0  0  0  0  0  0
  143.0668   77.1091  220.9004 H   0  0  0  0  0  0  0  0  0  0  0  0
  142.3217   75.5776  220.3546 H   0  0  0  0  0  0  0  0  0  0  0  0
  142.9168   77.8593  218.7866 H   0  0  0  0  0  0  0  0  0  0  0  0
  141.9530   76.4160  218.2995 H   0  0  0  0  0  0  0  0  0  0  0  0
  140.8345   78.6469  217.9948 H   0  0  0  0  0  0  0  0  0  0  0  0
  139.9436   77.4086  218.9911 H   0  0  0  0  0  0  0  0  0  0  0  0
  141.6150   79.6630  220.1558 H   0  0  0  0  0  0  0  0  0  0  0  0
  139.8359   79.7336  219.9117 H   0  0  0  0  0  0  0  0  0  0  0  0
  139.4112   78.3350  221.5873 H   0  0  0  0  0  0  0  0  0  0  0  0
  141.3141   78.0672  223.1908 H   0  0  0  0  0  0  0  0  0  0  0  0
  143.1779   78.8736  221.8521 H   0  0  0  0  0  0  0  0  0  0  0  0
  142.3714   80.3946  221.4804 H   0  0  0  0  0  0  0  0  0  0  0  0
  142.7789   79.4216  224.3894 H   0  0  0  0  0  0  0  0  0  0  0  0
  144.0163   80.3947  223.5703 H   0  0  0  0  0  0  0  0  0  0  0  0
  142.1774   81.6340  224.9359 H   0  0  0  0  0  0  0  0  0  0  0  0
  142.5395   82.2145  223.2485 H   0  0  0  0  0  0  0  0  0  0  0  0
  140.0448   81.7599  224.2138 H   0  0  0  0  0  0  0  0  0  0  0  0
  140.5342   81.6609  222.4702 H   0  0  0  0  0  0  0  0  0  0  0  0
  140.3112   79.3740  224.4536 H   0  0  0  0  0  0  0  0  0  0  0  0
  139.2465   79.7425  223.0132 H   0  0  0  0  0  0  0  0  0  0  0  0
  138.3537   70.7975  221.9272 H   0  0  0  0  0  0  0  0  0  0  0  0
  137.5672   69.0348  223.5140 H   0  0  0  0  0  0  0  0  0  0  0  0
  137.7958   67.8131  225.5520 H   0  0  0  0  0  0  0  0  0  0  0  0
  139.0654   67.4034  227.6649 H   0  0  0  0  0  0  0  0  0  0  0  0
  141.8709   70.4916  226.6036 H   0  0  0  0  0  0  0  0  0  0  0  0
  1  2  2  0
  2  3  1  0
  3  4  1  0
  4  5  1  0
  5  6  2  0
  5  7  1  0
  7  8  1  0
  8  9  1  0
  9 10  1  0
 10 11  1  0
 11 12  1  0
 12 13  1  0
 13 14  1  0
 14 15  1  0
 15 16  1  0
 16 17  1  0
 17 18  1  0
  2 19  1  0
 19 20  2  0
 20 21  1  0
 21 22  2  0
 22 23  1  0
 23 24  2  0
 24 25  1  0
 25 26  1  0
 25 27  2  0
 27 28  1  0
 28 29  2  0
 12  7  1  0
 18 13  1  0
 29 19  1  0
 28 22  1  0
  3 30  1  0
  4 31  1  0
  4 32  1  0
  8 33  1  0
  8 34  1  0
  9 35  1  0
  9 36  1  0
 10 37  1  0
 10 38  1  0
 11 39  1  0
 11 40  1  0
 12 41  1  1
 13 42  1  0
 14 43  1  0
 14 44  1  0
 15 45  1  0
 15 46  1  0
 16 47  1  0
 16 48  1  0
 17 49  1  0
 17 50  1  0
 18 51  1  0
 18 52  1  0
 20 53  1  0
 21 54  1  0
 23 55  1  0
 24 56  1  0
 27 57  1  0
M  END
>  <smiles>  (5) 
O=C(NCC(=O)N1CCCCC1C1CCCCC1)c1ccc2ccc(Cl)cc2n1

>  <score_type>  (5) 
oracle

>  <origin>  (5) 
autodockgpu

>  <m_score__min__energy>  (5) 
-9.5600000000000005

>  <m_primary>  (5) 
energy

>  <rmsd>  (5) 
2.537511252007362

>  <m_score__min__rmsd>  (5) 
2.537511252007362

>  <meeko>  (5) 
{"free_energy": -8.9, "intermolecular_energy": -10.39, "internal_energy": -1.72, "cluster_size": 24, "cluster_id": 2, "rank_in_cluster": 2}

>  <energy>  (5) 
-9.02

>  <cluster_rmsd>  (5) 
1.03

>  <cluster>  (5) 
1

$$$$

     RDKit          3D

 57 60  0  0  0  0  0  0  0  0999 V2000
  136.2460   77.2180  222.9370 O   0  0  0  0  0  0  0  0  0  0  0  0
  136.4910   76.0220  223.2480 C   0  0  0  0  0  0  0  0  0  0  0  0
  137.6500   75.4350  222.6890 N   0  0  0  0  0  0  0  0  0  0  0  0
  138.4570   76.2560  221.8090 C   0  0  0  0  0  0  0  0  0  0  0  0
  139.8250   75.6870  221.7480 C   0  0  0  0  0  0  0  0  0  0  0  0
  139.9980   74.5680  222.2970 O   0  0  0  0  0  0  0  0  0  0  0  0
  140.9010   76.3890  221.0900 N   0  0  0  0  0  0  0  0  0  0  0  0
  142.0030   75.6010  220.5890 C   0  0  0  0  0  0  0  0  0  0  0  0
  142.1560   75.8800  219.1150 C   0  0  0  0  0  0  0  0  0  0  0  0
  141.2530   76.9890  218.7010 C   0  0  0  0  0  0  0  0  0  0  0  0
  141.3350   78.1910  219.6240 C   0  0  0  0  0  0  0  0  0  0  0  0
  140.8030   77.8270  220.9670 C   0  0  2  0  0  0  0  0  0  0  0  0
  141.4850   78.4930  222.1100 C   0  0  0  0  0  0  0  0  0  0  0  0
  142.2020   79.7820  221.7100 C   0  0  0  0  0  0  0  0  0  0  0  0
  142.8400   80.2880  223.0100 C   0  0  0  0  0  0  0  0  0  0  0  0
  141.7240   80.8850  223.8300 C   0  0  0  0  0  0  0  0  0  0  0  0
  140.4530   80.0690  223.7660 C   0  0  0  0  0  0  0  0  0  0  0  0
  140.7260   78.6320  223.3740 C   0  0  0  0  0  0  0  0  0  0  0  0
  135.6190   75.2680  224.1460 C   0  0  0  0  0  0  0  0  0  0  0  0
  134.8220   75.9890  225.0350 C   0  0  0  0  0  0  0  0  0  0  0  0
  133.9820   75.2910  225.9030 C   0  0  0  0  0  0  0  0  0  0  0  0
  133.9360   73.8940  225.8820 C   0  0  0  0  0  0  0  0  0  0  0  0
  133.0930   73.2400  226.7560 C   0  0  0  0  0  0  0  0  0  0  0  0
  133.0700   71.8590  226.7130 C   0  0  0  0  0  0  0  0  0  0  0  0
  133.8770   71.1730  225.8140 C   0  0  0  0  0  0  0  0  0  0  0  0
  133.8510   69.4240  225.7540 Cl  0  0  0  0  0  0  0  0  0  0  0  0
  134.7110   71.8590  224.9520 C   0  0  0  0  0  0  0  0  0  0  0  0
  134.7490   73.2380  224.9800 C   0  0  0  0  0  0  0  0  0  0  0  0
  135.5540   73.9230  224.1490 N   0  0  0  0  0  0  0  0  0  0  0  0
  137.8980   74.4460  222.9160 H   0  0  0  0  0  0  0  0  0  0  0  0
  138.0146   76.2644  220.8019 H   0  0  0  0  0  0  0  0  0  0  0  0
  138.4970   77.2868  222.1910 H   0  0  0  0  0  0  0  0  0  0  0  0
  142.9275   75.8770  221.1173 H   0  0  0  0  0  0  0  0  0  0  0  0
  141.8079   74.5309  220.7529 H   0  0  0  0  0  0  0  0  0  0  0  0
  143.1980   76.1636  218.9059 H   0  0  0  0  0  0  0  0  0  0  0  0
  141.8908   74.9739  218.5506 H   0  0  0  0  0  0  0  0  0  0  0  0
  141.5299   77.3068  217.6849 H   0  0  0  0  0  0  0  0  0  0  0  0
  140.2216   76.6091  218.7434 H   0  0  0  0  0  0  0  0  0  0  0  0
  142.3839   78.5084  219.7194 H   0  0  0  0  0  0  0  0  0  0  0  0
  140.7378   79.0144  219.2054 H   0  0  0  0  0  0  0  0  0  0  0  0
  139.7637   78.1827  221.0241 H   0  0  0  0  0  0  0  0  0  0  0  0
  142.2483   77.7476  222.3781 H   0  0  0  0  0  0  0  0  0  0  0  0
  142.9731   79.5786  220.9523 H   0  0  0  0  0  0  0  0  0  0  0  0
  141.5177   80.5199  221.2659 H   0  0  0  0  0  0  0  0  0  0  0  0
  143.3071   79.4538  223.5540 H   0  0  0  0  0  0  0  0  0  0  0  0
  143.6248   81.0310  222.8052 H   0  0  0  0  0  0  0  0  0  0  0  0
  142.0511   80.9455  224.8785 H   0  0  0  0  0  0  0  0  0  0  0  0
  141.5020   81.8794  223.4155 H   0  0  0  0  0  0  0  0  0  0  0  0
  139.9709   80.0829  224.7546 H   0  0  0  0  0  0  0  0  0  0  0  0
  139.7995   80.5137  223.0010 H   0  0  0  0  0  0  0  0  0  0  0  0
  141.3038   78.1561  224.1800 H   0  0  0  0  0  0  0  0  0  0  0  0
  139.7494   78.1509  223.2167 H   0  0  0  0  0  0  0  0  0  0  0  0
  134.8552   77.0884  225.0514 H   0  0  0  0  0  0  0  0  0  0  0  0
  133.3492   75.8458  226.6114 H   0  0  0  0  0  0  0  0  0  0  0  0
  132.4611   73.7982  227.4625 H   0  0  0  0  0  0  0  0  0  0  0  0
  132.4101   71.3006  227.3933 H   0  0  0  0  0  0  0  0  0  0  0  0
  135.3447   71.3057  224.2433 H   0  0  0  0  0  0  0  0  0  0  0  0
  1  2  2  0
  2  3  1  0
  3  4  1  0
  4  5  1  0
  5  6  2  0
  5  7  1  0
  7  8  1  0
  8  9  1  0
  9 10  1  0
 10 11  1  0
 11 12  1  0
 12 13  1  0
 13 14  1  0
 14 15  1  0
 15 16  1  0
 16 17  1  0
 17 18  1  0
  2 19  1  0
 19 20  2  0
 20 21  1  0
 21 22  2  0
 22 23  1  0
 23 24  2  0
 24 25  1  0
 25 26  1  0
 25 27  2  0
 27 28  1  0
 28 29  2  0
 12  7  1  0
 18 13  1  0
 29 19  1  0
 28 22  1  0
  3 30  1  0
  4 31  1  0
  4 32  1  0
  8 33  1  0
  8 34  1  0
  9 35  1  0
  9 36  1  0
 10 37  1  0
 10 38  1  0
 11 39  1  0
 11 40  1  0
 12 41  1  6
 13 42  1  0
 14 43  1  0
 14 44  1  0
 15 45  1  0
 15 46  1  0
 16 47  1  0
 16 48  1  0
 17 49  1  0
 17 50  1  0
 18 51  1  0
 18 52  1  0
 20 53  1  0
 21 54  1  0
 23 55  1  0
 24 56  1  0
 27 57  1  0
M  END
>  <smiles>  (6) 
O=C(NCC(=O)N1CCCCC1C1CCCCC1)c1ccc2ccc(Cl)cc2n1

>  <score_type>  (6) 
oracle

>  <origin>  (6) 
autodockgpu

>  <m_score__min__energy>  (6) 
-9.5600000000000005

>  <m_primary>  (6) 
energy

>  <rmsd>  (6) 
5.482294312489941

>  <m_score__min__rmsd>  (6) 
5.482294312489941

>  <meeko>  (6) 
{"free_energy": -8.1, "intermolecular_energy": -9.59, "internal_energy": -2.16, "cluster_size": 7, "cluster_id": 3, "rank_in_cluster": 5}

>  <energy>  (6) 
-8.94

>  <cluster_rmsd>  (6) 
1.03

>  <cluster>  (6) 
1

$$$$

     RDKit          3D

 57 60  0  0  0  0  0  0  0  0999 V2000
  136.0130   77.3440  223.2430 O   0  0  0  0  0  0  0  0  0  0  0  0
  136.2590   76.1370  223.5090 C   0  0  0  0  0  0  0  0  0  0  0  0
  137.4100   75.5680  222.9170 N   0  0  0  0  0  0  0  0  0  0  0  0
  138.2080   76.4170  222.0560 C   0  0  0  0  0  0  0  0  0  0  0  0
  139.5590   75.8210  221.9180 C   0  0  0  0  0  0  0  0  0  0  0  0
  139.6980   74.6340  222.3160 O   0  0  0  0  0  0  0  0  0  0  0  0
  140.6560   76.5690  221.3540 N   0  0  0  0  0  0  0  0  0  0  0  0
  141.8150   75.8260  220.9160 C   0  0  0  0  0  0  0  0  0  0  0  0
  142.0630   76.1440  219.4620 C   0  0  0  0  0  0  0  0  0  0  0  0
  141.1570   77.2340  219.0090 C   0  0  0  0  0  0  0  0  0  0  0  0
  141.1360   78.4170  219.9600 C   0  0  0  0  0  0  0  0  0  0  0  0
  140.5220   78.0060  221.2540 C   0  0  2  0  0  0  0  0  0  0  0  0
  141.1010   78.6650  222.4570 C   0  0  0  0  0  0  0  0  0  0  0  0
  142.3310   79.5130  222.1400 C   0  0  0  0  0  0  0  0  0  0  0  0
  142.7710   80.0790  223.4960 C   0  0  0  0  0  0  0  0  0  0  0  0
  141.8040   81.1850  223.8320 C   0  0  0  0  0  0  0  0  0  0  0  0
  140.3760   80.8410  223.4740 C   0  0  0  0  0  0  0  0  0  0  0  0
  140.1650   79.3440  223.3820 C   0  0  0  0  0  0  0  0  0  0  0  0
  135.3950   75.3540  224.3900 C   0  0  0  0  0  0  0  0  0  0  0  0
  134.5160   76.0470  225.2230 C   0  0  0  0  0  0  0  0  0  0  0  0
  133.6820   75.3200  226.0730 C   0  0  0  0  0  0  0  0  0  0  0  0
  133.7240   73.9230  226.0910 C   0  0  0  0  0  0  0  0  0  0  0  0
  132.8840   73.2410  226.9470 C   0  0  0  0  0  0  0  0  0  0  0  0
  132.9480   71.8610  226.9430 C   0  0  0  0  0  0  0  0  0  0  0  0
  133.8360   71.2030  226.1010 C   0  0  0  0  0  0  0  0  0  0  0  0
  133.9220   69.4540  226.0920 Cl  0  0  0  0  0  0  0  0  0  0  0  0
  134.6640   71.9170  225.2560 C   0  0  0  0  0  0  0  0  0  0  0  0
  134.6150   73.2960  225.2460 C   0  0  0  0  0  0  0  0  0  0  0  0
  135.4140   74.0080  224.4300 N   0  0  0  0  0  0  0  0  0  0  0  0
  137.6570   74.5710  223.1050 H   0  0  0  0  0  0  0  0  0  0  0  0
  137.7334   76.4907  221.0664 H   0  0  0  0  0  0  0  0  0  0  0  0
  138.2860   77.4240  222.4917 H   0  0  0  0  0  0  0  0  0  0  0  0
  142.6908   76.1170  221.5146 H   0  0  0  0  0  0  0  0  0  0  0  0
  141.6424   74.7471  221.0428 H   0  0  0  0  0  0  0  0  0  0  0  0
  143.1076   76.4638  219.3337 H   0  0  0  0  0  0  0  0  0  0  0  0
  141.8675   75.2438  218.8609 H   0  0  0  0  0  0  0  0  0  0  0  0
  141.4938   77.5830  218.0217 H   0  0  0  0  0  0  0  0  0  0  0  0
  140.1377   76.8222  218.9712 H   0  0  0  0  0  0  0  0  0  0  0  0
  142.1650   78.7634  220.1365 H   0  0  0  0  0  0  0  0  0  0  0  0
  140.5446   79.2319  219.5171 H   0  0  0  0  0  0  0  0  0  0  0  0
  139.4707   78.3294  221.2437 H   0  0  0  0  0  0  0  0  0  0  0  0
  141.4282   77.7983  223.0501 H   0  0  0  0  0  0  0  0  0  0  0  0
  143.1270   78.8936  221.7010 H   0  0  0  0  0  0  0  0  0  0  0  0
  142.1142   80.3050  221.4080 H   0  0  0  0  0  0  0  0  0  0  0  0
  142.7331   79.2941  224.2658 H   0  0  0  0  0  0  0  0  0  0  0  0
  143.8046   80.4532  223.4545 H   0  0  0  0  0  0  0  0  0  0  0  0
  141.8578   81.3831  224.9127 H   0  0  0  0  0  0  0  0  0  0  0  0
  142.0909   82.0676  223.2415 H   0  0  0  0  0  0  0  0  0  0  0  0
  139.7071   81.2482  224.2465 H   0  0  0  0  0  0  0  0  0  0  0  0
  140.1550   81.2789  222.4894 H   0  0  0  0  0  0  0  0  0  0  0  0
  140.2952   78.9129  224.3856 H   0  0  0  0  0  0  0  0  0  0  0  0
  139.1512   79.1868  222.9850 H   0  0  0  0  0  0  0  0  0  0  0  0
  134.4812   77.1464  225.2098 H   0  0  0  0  0  0  0  0  0  0  0  0
  132.9839   75.8519  226.7361 H   0  0  0  0  0  0  0  0  0  0  0  0
  132.1881   73.7770  227.6091 H   0  0  0  0  0  0  0  0  0  0  0  0
  132.2930   71.2805  227.6094 H   0  0  0  0  0  0  0  0  0  0  0  0
  135.3619   71.3864  224.5916 H   0  0  0  0  0  0  0  0  0  0  0  0
  1  2  2  0
  2  3  1  0
  3  4  1  0
  4  5  1  0
  5  6  2  0
  5  7  1  0
  7  8  1  0
  8  9  1  0
  9 10  1  0
 10 11  1  0
 11 12  1  0
 12 13  1  0
 13 14  1  0
 14 15  1  0
 15 16  1  0
 16 17  1  0
 17 18  1  0
  2 19  1  0
 19 20  2  0
 20 21  1  0
 21 22  2  0
 22 23  1  0
 23 24  2  0
 24 25  1  0
 25 26  1  0
 25 27  2  0
 27 28  1  0
 28 29  2  0
 12  7  1  0
 18 13  1  0
 29 19  1  0
 28 22  1  0
  3 30  1  0
  4 31  1  0
  4 32  1  0
  8 33  1  0
  8 34  1  0
  9 35  1  0
  9 36  1  0
 10 37  1  0
 10 38  1  0
 11 39  1  0
 11 40  1  0
 12 41  1  6
 13 42  1  0
 14 43  1  0
 14 44  1  0
 15 45  1  0
 15 46  1  0
 16 47  1  0
 16 48  1  0
 17 49  1  0
 17 50  1  0
 18 51  1  0
 18 52  1  0
 20 53  1  0
 21 54  1  0
 23 55  1  0
 24 56  1  0
 27 57  1  0
M  END
>  <smiles>  (7) 
O=C(NCC(=O)N1CCCCC1C1CCCCC1)c1ccc2ccc(Cl)cc2n1

>  <score_type>  (7) 
oracle

>  <origin>  (7) 
autodockgpu

>  <m_score__min__energy>  (7) 
-9.5600000000000005

>  <m_primary>  (7) 
energy

>  <rmsd>  (7) 
5.643422689966082

>  <m_score__min__rmsd>  (7) 
5.643422689966082

>  <meeko>  (7) 
{"free_energy": -8.16, "intermolecular_energy": -9.66, "internal_energy": -2.16, "cluster_size": 7, "cluster_id": 3, "rank_in_cluster": 3}

>  <energy>  (7) 
-8.85

>  <cluster_rmsd>  (7) 
1.24

>  <cluster>  (7) 
1

$$$$

     RDKit          3D

 57 60  0  0  0  0  0  0  0  0999 V2000
  136.3850   77.6150  222.5340 O   0  0  0  0  0  0  0  0  0  0  0  0
  136.5840   76.4840  223.0540 C   0  0  0  0  0  0  0  0  0  0  0  0
  137.7700   75.8070  222.6880 N   0  0  0  0  0  0  0  0  0  0  0  0
  138.6550   76.4670  221.7500 C   0  0  0  0  0  0  0  0  0  0  0  0
  139.9510   75.7450  221.7280 C   0  0  0  0  0  0  0  0  0  0  0  0
  139.9980   74.6470  222.3430 O   0  0  0  0  0  0  0  0  0  0  0  0
  141.0970   76.2810  221.0350 N   0  0  0  0  0  0  0  0  0  0  0  0
  142.1650   75.3650  220.7050 C   0  0  0  0  0  0  0  0  0  0  0  0
  142.3980   75.4220  219.2160 C   0  0  0  0  0  0  0  0  0  0  0  0
  141.5870   76.5120  218.6060 C   0  0  0  0  0  0  0  0  0  0  0  0
  141.7100   77.8270  219.3550 C   0  0  0  0  0  0  0  0  0  0  0  0
  141.1000   77.6900  220.7070 C   0  0  2  0  0  0  0  0  0  0  0  0
  141.7760   78.4700  221.7800 C   0  0  0  0  0  0  0  0  0  0  0  0
  141.8990   79.9560  221.4500 C   0  0  0  0  0  0  0  0  0  0  0  0
  142.6270   80.5610  222.6580 C   0  0  0  0  0  0  0  0  0  0  0  0
  141.6120   80.6500  223.7690 C   0  0  0  0  0  0  0  0  0  0  0  0
  140.7120   79.4370  223.8350 C   0  0  0  0  0  0  0  0  0  0  0  0
  141.3460   78.2290  223.1770 C   0  0  0  0  0  0  0  0  0  0  0  0
  135.6330   75.8940  223.9930 C   0  0  0  0  0  0  0  0  0  0  0  0
  134.7390   76.7490  224.6370 C   0  0  0  0  0  0  0  0  0  0  0  0
  133.8230   76.2070  225.5390 C   0  0  0  0  0  0  0  0  0  0  0  0
  133.7980   74.8330  225.7930 C   0  0  0  0  0  0  0  0  0  0  0  0
  132.8770   74.3370  226.6920 C   0  0  0  0  0  0  0  0  0  0  0  0
  132.8770   72.9750  226.9230 C   0  0  0  0  0  0  0  0  0  0  0  0
  133.7810   72.1520  226.2640 C   0  0  0  0  0  0  0  0  0  0  0  0
  133.7850   70.4250  226.5520 Cl  0  0  0  0  0  0  0  0  0  0  0  0
  134.6910   72.6820  225.3690 C   0  0  0  0  0  0  0  0  0  0  0  0
  134.7080   74.0400  225.1250 C   0  0  0  0  0  0  0  0  0  0  0  0
  135.5860   74.5740  224.2580 N   0  0  0  0  0  0  0  0  0  0  0  0
  137.9810   74.8670  223.0910 H   0  0  0  0  0  0  0  0  0  0  0  0
  138.2066   76.4528  220.7457 H   0  0  0  0  0  0  0  0  0  0  0  0
  138.8136   77.5114  222.0566 H   0  0  0  0  0  0  0  0  0  0  0  0
  143.0828   75.6576  221.2361 H   0  0  0  0  0  0  0  0  0  0  0  0
  141.8926   74.3427  221.0060 H   0  0  0  0  0  0  0  0  0  0  0  0
  143.4642   75.6117  219.0228 H   0  0  0  0  0  0  0  0  0  0  0  0
  142.0986   74.4618  218.7705 H   0  0  0  0  0  0  0  0  0  0  0  0
  141.9254   76.6644  217.5705 H   0  0  0  0  0  0  0  0  0  0  0  0
  140.5320   76.2037  218.6495 H   0  0  0  0  0  0  0  0  0  0  0  0
  142.7727   78.0919  219.4578 H   0  0  0  0  0  0  0  0  0  0  0  0
  141.1865   78.6166  218.7960 H   0  0  0  0  0  0  0  0  0  0  0  0
  140.0852   78.1118  220.6602 H   0  0  0  0  0  0  0  0  0  0  0  0
  142.7859   78.0341  221.7705 H   0  0  0  0  0  0  0  0  0  0  0  0
  142.4844   80.1025  220.5303 H   0  0  0  0  0  0  0  0  0  0  0  0
  140.9207   80.4268  221.2734 H   0  0  0  0  0  0  0  0  0  0  0  0
  143.4647   79.9150  222.9595 H   0  0  0  0  0  0  0  0  0  0  0  0
  143.0415   81.5512  222.4176 H   0  0  0  0  0  0  0  0  0  0  0  0
  142.1454   80.7451  224.7263 H   0  0  0  0  0  0  0  0  0  0  0  0
  140.9763   81.5252  223.5692 H   0  0  0  0  0  0  0  0  0  0  0  0
  140.5085   79.2018  224.8901 H   0  0  0  0  0  0  0  0  0  0  0  0
  139.7825   79.6714  223.2955 H   0  0  0  0  0  0  0  0  0  0  0  0
  142.2273   77.9351  223.7660 H   0  0  0  0  0  0  0  0  0  0  0  0
  140.5800   77.4401  223.1464 H   0  0  0  0  0  0  0  0  0  0  0  0
  134.7558   77.8306  224.4375 H   0  0  0  0  0  0  0  0  0  0  0  0
  133.1124   76.8686  226.0561 H   0  0  0  0  0  0  0  0  0  0  0  0
  132.1679   75.0021  227.2066 H   0  0  0  0  0  0  0  0  0  0  0  0
  132.1575   72.5402  227.6324 H   0  0  0  0  0  0  0  0  0  0  0  0
  135.4018   72.0212  224.8511 H   0  0  0  0  0  0  0  0  0  0  0  0
  1  2  2  0
  2  3  1  0
  3  4  1  0
  4  5  1  0
  5  6  2  0
  5  7  1  0
  7  8  1  0
  8  9  1  0
  9 10  1  0
 10 11  1  0
 11 12  1  0
 12 13  1  0
 13 14  1  0
 14 15  1  0
 15 16  1  0
 16 17  1  0
 17 18  1  0
  2 19  1  0
 19 20  2  0
 20 21  1  0
 21 22  2  0
 22 23  1  0
 23 24  2  0
 24 25  1  0
 25 26  1  0
 25 27  2  0
 27 28  1  0
 28 29  2  0
 12  7  1  0
 18 13  1  0
 29 19  1  0
 28 22  1  0
  3 30  1  0
  4 31  1  0
  4 32  1  0
  8 33  1  0
  8 34  1  0
  9 35  1  0
  9 36  1  0
 10 37  1  0
 10 38  1  0
 11 39  1  0
 11 40  1  0
 12 41  1  6
 13 42  1  0
 14 43  1  0
 14 44  1  0
 15 45  1  0
 15 46  1  0
 16 47  1  0
 16 48  1  0
 17 49  1  0
 17 50  1  0
 18 51  1  0
 18 52  1  0
 20 53  1  0
 21 54  1  0
 23 55  1  0
 24 56  1  0
 27 57  1  0
M  END
>  <smiles>  (8) 
O=C(NCC(=O)N1CCCCC1C1CCCCC1)c1ccc2ccc(Cl)cc2n1

>  <score_type>  (8) 
oracle

>  <origin>  (8) 
autodockgpu

>  <m_score__min__energy>  (8) 
-9.5600000000000005

>  <m_primary>  (8) 
energy

>  <rmsd>  (8) 
5.824739499175566

>  <m_score__min__rmsd>  (8) 
5.824739499175566

>  <meeko>  (8) 
{"free_energy": -8.07, "intermolecular_energy": -9.56, "internal_energy": -2.19, "cluster_size": 7, "cluster_id": 3, "rank_in_cluster": 6}

>  <energy>  (8) 
-8.85

>  <cluster_rmsd>  (8) 
1.25

>  <cluster>  (8) 
1

$$$$

     RDKit          3D

 57 60  0  0  0  0  0  0  0  0999 V2000
  141.5010   73.1580  221.6430 O   0  0  0  0  0  0  0  0  0  0  0  0
  140.4320   73.0320  222.2990 C   0  0  0  0  0  0  0  0  0  0  0  0
  139.5620   74.1460  222.3320 N   0  0  0  0  0  0  0  0  0  0  0  0
  139.9700   75.3350  221.6110 C   0  0  0  0  0  0  0  0  0  0  0  0
  139.2710   76.5080  222.1910 C   0  0  0  0  0  0  0  0  0  0  0  0
  138.1510   76.2920  222.7250 O   0  0  0  0  0  0  0  0  0  0  0  0
  139.8510   77.8270  222.1420 N   0  0  0  0  0  0  0  0  0  0  0  0
  139.0370   78.9310  222.5950 C   0  0  0  0  0  0  0  0  0  0  0  0
  139.7810   79.6530  223.6910 C   0  0  0  0  0  0  0  0  0  0  0  0
  141.1610   79.1110  223.8250 C   0  0  0  0  0  0  0  0  0  0  0  0
  141.8790   78.9920  222.4930 C   0  0  0  0  0  0  0  0  0  0  0  0
  141.2070   77.9590  221.6540 C   0  0  2  0  0  0  0  0  0  0  0  0
  141.2060   78.2460  220.1930 C   0  0  0  0  0  0  0  0  0  0  0  0
  141.8230   79.6000  219.8490 C   0  0  0  0  0  0  0  0  0  0  0  0
  141.7090   79.7000  218.3220 C   0  0  0  0  0  0  0  0  0  0  0  0
  142.7790   78.8030  217.7540 C   0  0  0  0  0  0  0  0  0  0  0  0
  142.9170   77.5050  218.5150 C   0  0  0  0  0  0  0  0  0  0  0  0
  141.6570   77.1670  219.2840 C   0  0  0  0  0  0  0  0  0  0  0  0
  140.1020   71.7920  222.9970 C   0  0  0  0  0  0  0  0  0  0  0  0
  139.2670   70.8820  222.3480 C   0  0  0  0  0  0  0  0  0  0  0  0
  138.9370   69.6920  222.9960 C   0  0  0  0  0  0  0  0  0  0  0  0
  139.4340   69.4130  224.2720 C   0  0  0  0  0  0  0  0  0  0  0  0
  139.0840   68.2250  224.8790 C   0  0  0  0  0  0  0  0  0  0  0  0
  139.5900   67.9760  226.1410 C   0  0  0  0  0  0  0  0  0  0  0  0
  140.4190   68.9040  226.7580 C   0  0  0  0  0  0  0  0  0  0  0  0
  141.0630   68.5950  228.3560 Cl  0  0  0  0  0  0  0  0  0  0  0  0
  140.7500   70.0850  226.1210 C   0  0  0  0  0  0  0  0  0  0  0  0
  140.2540   70.3520  224.8620 C   0  0  0  0  0  0  0  0  0  0  0  0
  140.5650   71.4960  224.2270 N   0  0  0  0  0  0  0  0  0  0  0  0
  138.6630   74.0930  222.8610 H   0  0  0  0  0  0  0  0  0  0  0  0
  141.0578   75.4692  221.7044 H   0  0  0  0  0  0  0  0  0  0  0  0
  139.7117   75.2342  220.5465 H   0  0  0  0  0  0  0  0  0  0  0  0
  138.8469   79.6200  221.7588 H   0  0  0  0  0  0  0  0  0  0  0  0
  138.0733   78.5596  222.9737 H   0  0  0  0  0  0  0  0  0  0  0  0
  139.8344   80.7245  223.4479 H   0  0  0  0  0  0  0  0  0  0  0  0
  139.2464   79.5074  224.6413 H   0  0  0  0  0  0  0  0  0  0  0  0
  141.7398   79.7813  224.4775 H   0  0  0  0  0  0  0  0  0  0  0  0
  141.0793   78.0990  224.2484 H   0  0  0  0  0  0  0  0  0  0  0  0
  141.8502   79.9612  221.9735 H   0  0  0  0  0  0  0  0  0  0  0  0
  142.9249   78.6985  222.6663 H   0  0  0  0  0  0  0  0  0  0  0  0
  141.7796   77.0247  221.7496 H   0  0  0  0  0  0  0  0  0  0  0  0
  140.1287   78.2986  219.9768 H   0  0  0  0  0  0  0  0  0  0  0  0
  141.2662   80.4151  220.3343 H   0  0  0  0  0  0  0  0  0  0  0  0
  142.8633   79.6849  220.1963 H   0  0  0  0  0  0  0  0  0  0  0  0
  140.7154   79.3625  217.9921 H   0  0  0  0  0  0  0  0  0  0  0  0
  141.8368   80.7378  217.9804 H   0  0  0  0  0  0  0  0  0  0  0  0
  142.5265   78.5727  216.7084 H   0  0  0  0  0  0  0  0  0  0  0  0
  143.7370   79.3377  217.8331 H   0  0  0  0  0  0  0  0  0  0  0  0
  143.1268   76.6945  217.8015 H   0  0  0  0  0  0  0  0  0  0  0  0
  143.7385   77.6182  219.2377 H   0  0  0  0  0  0  0  0  0  0  0  0
  140.8532   76.9634  218.5612 H   0  0  0  0  0  0  0  0  0  0  0  0
  141.8884   76.2939  219.9118 H   0  0  0  0  0  0  0  0  0  0  0  0
  138.8759   71.0993  221.3431 H   0  0  0  0  0  0  0  0  0  0  0  0
  138.2786   68.9654  222.4975 H   0  0  0  0  0  0  0  0  0  0  0  0
  138.4254   67.5012  224.3766 H   0  0  0  0  0  0  0  0  0  0  0  0
  139.3352   67.0394  226.6586 H   0  0  0  0  0  0  0  0  0  0  0  0
  141.4090   70.8120  226.6181 H   0  0  0  0  0  0  0  0  0  0  0  0
  1  2  2  0
  2  3  1  0
  3  4  1  0
  4  5  1  0
  5  6  2  0
  5  7  1  0
  7  8  1  0
  8  9  1  0
  9 10  1  0
 10 11  1  0
 11 12  1  0
 12 13  1  0
 13 14  1  0
 14 15  1  0
 15 16  1  0
 16 17  1  0
 17 18  1  0
  2 19  1  0
 19 20  2  0
 20 21  1  0
 21 22  2  0
 22 23  1  0
 23 24  2  0
 24 25  1  0
 25 26  1  0
 25 27  2  0
 27 28  1  0
 28 29  2  0
 12  7  1  0
 18 13  1  0
 29 19  1  0
 28 22  1  0
  3 30  1  0
  4 31  1  0
  4 32  1  0
  8 33  1  0
  8 34  1  0
  9 35  1  0
  9 36  1  0
 10 37  1  0
 10 38  1  0
 11 39  1  0
 11 40  1  0
 12 41  1  6
 13 42  1  0
 14 43  1  0
 14 44  1  0
 15 45  1  0
 15 46  1  0
 16 47  1  0
 16 48  1  0
 17 49  1  0
 17 50  1  0
 18 51  1  0
 18 52  1  0
 20 53  1  0
 21 54  1  0
 23 55  1  0
 24 56  1  0
 27 57  1  0
M  END
>  <smiles>  (9) 
O=C(NCC(=O)N1CCCCC1C1CCCCC1)c1ccc2ccc(Cl)cc2n1

>  <score_type>  (9) 
oracle

>  <origin>  (9) 
autodockgpu

>  <m_score__min__energy>  (9) 
-9.5600000000000005

>  <m_primary>  (9) 
energy

>  <rmsd>  (9) 
3.6707371656977803

>  <m_score__min__rmsd>  (9) 
3.6707371656977803

>  <meeko>  (9) 
{"free_energy": -8.73, "intermolecular_energy": -10.22, "internal_energy": -1.9, "cluster_size": 24, "cluster_id": 2, "rank_in_cluster": 9}

>  <energy>  (9) 
-8.75

>  <cluster_rmsd>  (9) 
1.28

>  <cluster>  (9) 
1

$$$$

     RDKit          3D

 57 60  0  0  0  0  0  0  0  0999 V2000
  141.4700   73.0780  221.6880 O   0  0  0  0  0  0  0  0  0  0  0  0
  140.3930   73.0090  222.3390 C   0  0  0  0  0  0  0  0  0  0  0  0
  139.5670   74.1560  222.3410 N   0  0  0  0  0  0  0  0  0  0  0  0
  140.0260   75.3120  221.5980 C   0  0  0  0  0  0  0  0  0  0  0  0
  139.3200   76.5150  222.1030 C   0  0  0  0  0  0  0  0  0  0  0  0
  138.1670   76.3380  222.5750 O   0  0  0  0  0  0  0  0  0  0  0  0
  139.9320   77.8200  222.0520 N   0  0  0  0  0  0  0  0  0  0  0  0
  139.0580   78.9690  222.1150 C   0  0  0  0  0  0  0  0  0  0  0  0
  139.4880   79.8320  223.2750 C   0  0  0  0  0  0  0  0  0  0  0  0
  140.7580   79.3190  223.8590 C   0  0  0  0  0  0  0  0  0  0  0  0
  141.8150   79.0320  222.8080 C   0  0  0  0  0  0  0  0  0  0  0  0
  141.3730   77.8960  221.9520 C   0  0  2  0  0  0  0  0  0  0  0  0
  141.7890   77.9900  220.5260 C   0  0  0  0  0  0  0  0  0  0  0  0
  142.5520   76.7570  220.0440 C   0  0  0  0  0  0  0  0  0  0  0  0
  142.8950   77.0630  218.5800 C   0  0  0  0  0  0  0  0  0  0  0  0
  141.6230   76.8740  217.7940 C   0  0  0  0  0  0  0  0  0  0  0  0
  140.4070   77.4100  218.5150 C   0  0  0  0  0  0  0  0  0  0  0  0
  140.7790   78.4530  219.5470 C   0  0  0  0  0  0  0  0  0  0  0  0
  140.0100   71.7980  223.0620 C   0  0  0  0  0  0  0  0  0  0  0  0
  139.0890   70.9430  222.4570 C   0  0  0  0  0  0  0  0  0  0  0  0
  138.7080   69.7810  223.1290 C   0  0  0  0  0  0  0  0  0  0  0  0
  139.2390   69.4770  224.3860 C   0  0  0  0  0  0  0  0  0  0  0  0
  138.8360   68.3200  225.0180 C   0  0  0  0  0  0  0  0  0  0  0  0
  139.3770   68.0460  226.2600 C   0  0  0  0  0  0  0  0  0  0  0  0
  140.2920   68.9200  226.8330 C   0  0  0  0  0  0  0  0  0  0  0  0
  140.9820   68.5770  228.4050 Cl  0  0  0  0  0  0  0  0  0  0  0  0
  140.6740   70.0710  226.1720 C   0  0  0  0  0  0  0  0  0  0  0  0
  140.1440   70.3630  224.9320 C   0  0  0  0  0  0  0  0  0  0  0  0
  140.5040   71.4790  224.2740 N   0  0  0  0  0  0  0  0  0  0  0  0
  138.6640   74.1500  222.8660 H   0  0  0  0  0  0  0  0  0  0  0  0
  141.1104   75.4341  221.7367 H   0  0  0  0  0  0  0  0  0  0  0  0
  139.8148   75.1763  220.5270 H   0  0  0  0  0  0  0  0  0  0  0  0
  139.1300   79.5422  221.1789 H   0  0  0  0  0  0  0  0  0  0  0  0
  138.0161   78.6439  222.2519 H   0  0  0  0  0  0  0  0  0  0  0  0
  139.6410   80.8629  222.9230 H   0  0  0  0  0  0  0  0  0  0  0  0
  138.7048   79.8093  224.0470 H   0  0  0  0  0  0  0  0  0  0  0  0
  141.1525   80.0712  224.5580 H   0  0  0  0  0  0  0  0  0  0  0  0
  140.5296   78.3703  224.3667 H   0  0  0  0  0  0  0  0  0  0  0  0
  141.9622   79.9254  222.1834 H   0  0  0  0  0  0  0  0  0  0  0  0
  142.7612   78.7693  223.3037 H   0  0  0  0  0  0  0  0  0  0  0  0
  141.8674   76.9857  222.3219 H   0  0  0  0  0  0  0  0  0  0  0  0
  142.4909   78.8365  220.5541 H   0  0  0  0  0  0  0  0  0  0  0  0
  143.4680   76.6113  220.6353 H   0  0  0  0  0  0  0  0  0  0  0  0
  141.9636   75.8338  220.1508 H   0  0  0  0  0  0  0  0  0  0  0  0
  143.2520   78.0988  218.4818 H   0  0  0  0  0  0  0  0  0  0  0  0
  143.6924   76.4009  218.2115 H   0  0  0  0  0  0  0  0  0  0  0  0
  141.7220   77.3991  216.8325 H   0  0  0  0  0  0  0  0  0  0  0  0
  141.4765   75.7929  217.6536 H   0  0  0  0  0  0  0  0  0  0  0  0
  139.7280   77.8644  217.7784 H   0  0  0  0  0  0  0  0  0  0  0  0
  139.9216   76.5716  219.0361 H   0  0  0  0  0  0  0  0  0  0  0  0
  141.1817   79.3320  219.0224 H   0  0  0  0  0  0  0  0  0  0  0  0
  139.8650   78.6838  220.1138 H   0  0  0  0  0  0  0  0  0  0  0  0
  138.6705   71.1805  221.4678 H   0  0  0  0  0  0  0  0  0  0  0  0
  137.9822   69.0970  222.6649 H   0  0  0  0  0  0  0  0  0  0  0  0
  138.1096   67.6390  224.5504 H   0  0  0  0  0  0  0  0  0  0  0  0
  139.0818   67.1323  226.7967 H   0  0  0  0  0  0  0  0  0  0  0  0
  141.4009   70.7550  226.6342 H   0  0  0  0  0  0  0  0  0  0  0  0
  1  2  2  0
  2  3  1  0
  3  4  1  0
  4  5  1  0
  5  6  2  0
  5  7  1  0
  7  8  1  0
  8  9  1  0
  9 10  1  0
 10 11  1  0
 11 12  1  0
 12 13  1  0
 13 14  1  0
 14 15  1  0
 15 16  1  0
 16 17  1  0
 17 18  1  0
  2 19  1  0
 19 20  2  0
 20 21  1  0
 21 22  2  0
 22 23  1  0
 23 24  2  0
 24 25  1  0
 25 26  1  0
 25 27  2  0
 27 28  1  0
 28 29  2  0
 12  7  1  0
 18 13  1  0
 29 19  1  0
 28 22  1  0
  3 30  1  0
  4 31  1  0
  4 32  1  0
  8 33  1  0
  8 34  1  0
  9 35  1  0
  9 36  1  0
 10 37  1  0
 10 38  1  0
 11 39  1  0
 11 40  1  0
 12 41  1  1
 13 42  1  0
 14 43  1  0
 14 44  1  0
 15 45  1  0
 15 46  1  0
 16 47  1  0
 16 48  1  0
 17 49  1  0
 17 50  1  0
 18 51  1  0
 18 52  1  0
 20 53  1  0
 21 54  1  0
 23 55  1  0
 24 56  1  0
 27 57  1  0
M  END
>  <smiles>  (10) 
O=C(NCC(=O)N1CCCCC1C1CCCCC1)c1ccc2ccc(Cl)cc2n1

>  <score_type>  (10) 
oracle

>  <origin>  (10) 
autodockgpu

>  <m_score__min__energy>  (10) 
-9.5600000000000005

>  <m_primary>  (10) 
energy

>  <rmsd>  (10) 
3.6500929161059736

>  <m_score__min__rmsd>  (10) 
3.6500929161059736

>  <meeko>  (10) 
{"free_energy": -8.32, "intermolecular_energy": -9.81, "internal_energy": -1.99, "cluster_size": 24, "cluster_id": 2, "rank_in_cluster": 23}

>  <energy>  (10) 
-8.65

>  <cluster_rmsd>  (10) 
1.47

>  <cluster>  (10) 
1

$$$$

     RDKit          3D

 57 60  0  0  0  0  0  0  0  0999 V2000
  139.9230   73.3540  220.4310 O   0  0  0  0  0  0  0  0  0  0  0  0
  140.0270   73.7520  221.6230 C   0  0  0  0  0  0  0  0  0  0  0  0
  140.4280   72.8000  222.5880 N   0  0  0  0  0  0  0  0  0  0  0  0
  140.6870   71.4500  222.1280 C   0  0  0  0  0  0  0  0  0  0  0  0
  139.4500   70.6470  222.2870 C   0  0  0  0  0  0  0  0  0  0  0  0
  139.0040   70.0820  221.2540 O   0  0  0  0  0  0  0  0  0  0  0  0
  138.7950   70.5240  223.5660 N   0  0  0  0  0  0  0  0  0  0  0  0
  137.7290   71.4530  223.8610 C   0  0  0  0  0  0  0  0  0  0  0  0
  136.4860   70.6630  224.1890 C   0  0  0  0  0  0  0  0  0  0  0  0
  136.8020   69.2110  224.2730 C   0  0  0  0  0  0  0  0  0  0  0  0
  138.0250   68.9220  225.1250 C   0  0  0  0  0  0  0  0  0  0  0  0
  139.2380   69.4780  224.4630 C   0  0  2  0  0  0  0  0  0  0  0  0
  140.2750   70.0000  225.3950 C   0  0  0  0  0  0  0  0  0  0  0  0
  140.2840   71.5240  225.4860 C   0  0  0  0  0  0  0  0  0  0  0  0
  141.4170   71.8460  226.4700 C   0  0  0  0  0  0  0  0  0  0  0  0
  140.8900   71.5320  227.8470 C   0  0  0  0  0  0  0  0  0  0  0  0
  140.0650   70.2650  227.8800 C   0  0  0  0  0  0  0  0  0  0  0  0
  140.3930   69.3490  226.7200 C   0  0  0  0  0  0  0  0  0  0  0  0
  139.7450   75.1360  221.9970 C   0  0  0  0  0  0  0  0  0  0  0  0
  138.4130   75.5510  221.9980 C   0  0  0  0  0  0  0  0  0  0  0  0
  138.1200   76.8680  222.3510 C   0  0  0  0  0  0  0  0  0  0  0  0
  139.1400   77.7580  222.6990 C   0  0  0  0  0  0  0  0  0  0  0  0
  138.8090   79.0520  223.0410 C   0  0  0  0  0  0  0  0  0  0  0  0
  139.8390   79.9090  223.3800 C   0  0  0  0  0  0  0  0  0  0  0  0
  141.1540   79.4620  223.3690 C   0  0  0  0  0  0  0  0  0  0  0  0
  142.4630   80.5430  223.7980 Cl  0  0  0  0  0  0  0  0  0  0  0  0
  141.4510   78.1580  223.0210 C   0  0  0  0  0  0  0  0  0  0  0  0
  140.4370   77.2880  222.6780 C   0  0  0  0  0  0  0  0  0  0  0  0
  140.7060   76.0150  222.3360 N   0  0  0  0  0  0  0  0  0  0  0  0
  140.5290   73.0790  223.5890 H   0  0  0  0  0  0  0  0  0  0  0  0
  140.9813   71.4703  221.0683 H   0  0  0  0  0  0  0  0  0  0  0  0
  141.5016   71.0035  222.7171 H   0  0  0  0  0  0  0  0  0  0  0  0
  138.0091   72.0789  224.7211 H   0  0  0  0  0  0  0  0  0  0  0  0
  137.5449   72.1047  222.9941 H   0  0  0  0  0  0  0  0  0  0  0  0
  136.0846   71.0032  225.1550 H   0  0  0  0  0  0  0  0  0  0  0  0
  135.7422   70.8212  223.3942 H   0  0  0  0  0  0  0  0  0  0  0  0
  135.9383   68.6883  224.7097 H   0  0  0  0  0  0  0  0  0  0  0  0
  137.0192   68.8604  223.2532 H   0  0  0  0  0  0  0  0  0  0  0  0
  137.9011   69.3885  226.1134 H   0  0  0  0  0  0  0  0  0  0  0  0
  138.1393   67.8343  225.2428 H   0  0  0  0  0  0  0  0  0  0  0  0
  139.7371   68.6538  223.9323 H   0  0  0  0  0  0  0  0  0  0  0  0
  141.2032   69.6840  224.8963 H   0  0  0  0  0  0  0  0  0  0  0  0
  140.4861   71.9707  224.5013 H   0  0  0  0  0  0  0  0  0  0  0  0
  139.3160   71.9280  225.8174 H   0  0  0  0  0  0  0  0  0  0  0  0
  142.2989   71.2263  226.2502 H   0  0  0  0  0  0  0  0  0  0  0  0
  141.7241   72.8994  226.3922 H   0  0  0  0  0  0  0  0  0  0  0  0
  141.7426   71.4150  228.5321 H   0  0  0  0  0  0  0  0  0  0  0  0
  140.2361   72.3629  228.1505 H   0  0  0  0  0  0  0  0  0  0  0  0
  140.2670   69.7332  228.8215 H   0  0  0  0  0  0  0  0  0  0  0  0
  139.0043   70.5461  227.8038 H   0  0  0  0  0  0  0  0  0  0  0  0
  141.4265   68.9923  226.8408 H   0  0  0  0  0  0  0  0  0  0  0  0
  139.6605   68.5287  226.7413 H   0  0  0  0  0  0  0  0  0  0  0  0
  137.6085   74.8521  221.7253 H   0  0  0  0  0  0  0  0  0  0  0  0
  137.0746   77.2101  222.3556 H   0  0  0  0  0  0  0  0  0  0  0  0
  137.7623   79.3903  223.0439 H   0  0  0  0  0  0  0  0  0  0  0  0
  139.6164   80.9493  223.6597 H   0  0  0  0  0  0  0  0  0  0  0  0
  142.4958   77.8139  223.0175 H   0  0  0  0  0  0  0  0  0  0  0  0
  1  2  2  0
  2  3  1  0
  3  4  1  0
  4  5  1  0
  5  6  2  0
  5  7  1  0
  7  8  1  0
  8  9  1  0
  9 10  1  0
 10 11  1  0
 11 12  1  0
 12 13  1  0
 13 14  1  0
 14 15  1  0
 15 16  1  0
 16 17  1  0
 17 18  1  0
  2 19  1  0
 19 20  2  0
 20 21  1  0
 21 22  2  0
 22 23  1  0
 23 24  2  0
 24 25  1  0
 25 26  1  0
 25 27  2  0
 27 28  1  0
 28 29  2  0
 12  7  1  0
 18 13  1  0
 29 19  1  0
 28 22  1  0
  3 30  1  0
  4 31  1  0
  4 32  1  0
  8 33  1  0
  8 34  1  0
  9 35  1  0
  9 36  1  0
 10 37  1  0
 10 38  1  0
 11 39  1  0
 11 40  1  0
 12 41  1  6
 13 42  1  0
 14 43  1  0
 14 44  1  0
 15 45  1  0
 15 46  1  0
 16 47  1  0
 16 48  1  0
 17 49  1  0
 17 50  1  0
 18 51  1  0
 18 52  1  0
 20 53  1  0
 21 54  1  0
 23 55  1  0
 24 56  1  0
 27 57  1  0
M  END
>  <smiles>  (11) 
O=C(NCC(=O)N1CCCCC1C1CCCCC1)c1ccc2ccc(Cl)cc2n1

>  <score_type>  (11) 
oracle

>  <origin>  (11) 
autodockgpu

>  <m_score__min__energy>  (11) 
-9.5600000000000005

>  <m_primary>  (11) 
energy

>  <rmsd>  (11) 
7.965340717050796

>  <m_score__min__rmsd>  (11) 
7.965340717050796

>  <meeko>  (11) 
{"free_energy": -8.55, "intermolecular_energy": -10.04, "internal_energy": -1.7, "cluster_size": 17, "cluster_id": 1, "rank_in_cluster": 12}

>  <energy>  (11) 
-8.59

>  <cluster_rmsd>  (11) 
0.94

>  <cluster>  (11) 
1

$$$$

     RDKit          3D

 57 60  0  0  0  0  0  0  0  0999 V2000
  141.4830   73.1510  221.6640 O   0  0  0  0  0  0  0  0  0  0  0  0
  140.4130   73.0360  222.3220 C   0  0  0  0  0  0  0  0  0  0  0  0
  139.5490   74.1540  222.3450 N   0  0  0  0  0  0  0  0  0  0  0  0
  139.9620   75.3350  221.6130 C   0  0  0  0  0  0  0  0  0  0  0  0
  139.3900   76.5320  222.2770 C   0  0  0  0  0  0  0  0  0  0  0  0
  138.3480   76.3560  222.9620 O   0  0  0  0  0  0  0  0  0  0  0  0
  140.0030   77.8300  222.1400 N   0  0  0  0  0  0  0  0  0  0  0  0
  139.1370   78.9850  222.2000 C   0  0  0  0  0  0  0  0  0  0  0  0
  139.6310   79.8940  223.2990 C   0  0  0  0  0  0  0  0  0  0  0  0
  140.9280   79.3990  223.8360 C   0  0  0  0  0  0  0  0  0  0  0  0
  141.9280   79.0620  222.7450 C   0  0  0  0  0  0  0  0  0  0  0  0
  141.4370   77.8930  221.9620 C   0  0  2  0  0  0  0  0  0  0  0  0
  141.7790   77.9250  220.5130 C   0  0  0  0  0  0  0  0  0  0  0  0
  142.5500   76.6890  220.0540 C   0  0  0  0  0  0  0  0  0  0  0  0
  142.8110   76.9290  218.5610 C   0  0  0  0  0  0  0  0  0  0  0  0
  141.5070   76.6680  217.8520 C   0  0  0  0  0  0  0  0  0  0  0  0
  140.3140   77.2090  218.6070 C   0  0  0  0  0  0  0  0  0  0  0  0
  140.7090   78.3130  219.5650 C   0  0  0  0  0  0  0  0  0  0  0  0
  140.0770   71.8040  223.0320 C   0  0  0  0  0  0  0  0  0  0  0  0
  139.2220   70.9010  222.3990 C   0  0  0  0  0  0  0  0  0  0  0  0
  138.8870   69.7180  223.0590 C   0  0  0  0  0  0  0  0  0  0  0  0
  139.3980   69.4400  224.3290 C   0  0  0  0  0  0  0  0  0  0  0  0
  139.0420   68.2600  224.9480 C   0  0  0  0  0  0  0  0  0  0  0  0
  139.5630   68.0120  226.2040 C   0  0  0  0  0  0  0  0  0  0  0  0
  140.4120   68.9330  226.8040 C   0  0  0  0  0  0  0  0  0  0  0  0
  141.0750   68.6240  228.3950 Cl  0  0  0  0  0  0  0  0  0  0  0  0
  140.7480   70.1060  226.1560 C   0  0  0  0  0  0  0  0  0  0  0  0
  140.2380   70.3720  224.9020 C   0  0  0  0  0  0  0  0  0  0  0  0
  140.5540   71.5090  224.2560 N   0  0  0  0  0  0  0  0  0  0  0  0
  138.6500   74.1100  222.8760 H   0  0  0  0  0  0  0  0  0  0  0  0
  141.0599   75.4030  221.6097 H   0  0  0  0  0  0  0  0  0  0  0  0
  139.6038   75.2760  220.5746 H   0  0  0  0  0  0  0  0  0  0  0  0
  139.1612   79.5179  221.2380 H   0  0  0  0  0  0  0  0  0  0  0  0
  138.1026   78.6717  222.4049 H   0  0  0  0  0  0  0  0  0  0  0  0
  139.7686   80.9084  222.8963 H   0  0  0  0  0  0  0  0  0  0  0  0
  138.8897   79.9080  224.1116 H   0  0  0  0  0  0  0  0  0  0  0  0
  141.3611   80.1777  224.4810 H   0  0  0  0  0  0  0  0  0  0  0  0
  140.7230   78.4733  224.3938 H   0  0  0  0  0  0  0  0  0  0  0  0
  142.0459   79.9273  222.0762 H   0  0  0  0  0  0  0  0  0  0  0  0
  142.8979   78.8151  223.2014 H   0  0  0  0  0  0  0  0  0  0  0  0
  141.9458   76.9957  222.3440 H   0  0  0  0  0  0  0  0  0  0  0  0
  142.4582   78.7888  220.4636 H   0  0  0  0  0  0  0  0  0  0  0  0
  143.4980   76.5961  220.6041 H   0  0  0  0  0  0  0  0  0  0  0  0
  141.9931   75.7581  220.2361 H   0  0  0  0  0  0  0  0  0  0  0  0
  143.1336   77.9672  218.3936 H   0  0  0  0  0  0  0  0  0  0  0  0
  143.6074   76.2698  218.1851 H   0  0  0  0  0  0  0  0  0  0  0  0
  141.5430   77.1457  216.8618 H   0  0  0  0  0  0  0  0  0  0  0  0
  141.3839   75.5777  217.7734 H   0  0  0  0  0  0  0  0  0  0  0  0
  139.5863   77.6076  217.8848 H   0  0  0  0  0  0  0  0  0  0  0  0
  139.8786   76.3866  219.1935 H   0  0  0  0  0  0  0  0  0  0  0  0
  141.0613   79.1733  218.9770 H   0  0  0  0  0  0  0  0  0  0  0  0
  139.8186   78.5510  220.1655 H   0  0  0  0  0  0  0  0  0  0  0  0
  138.8196   71.1176  221.3984 H   0  0  0  0  0  0  0  0  0  0  0  0
  138.2131   68.9965  222.5739 H   0  0  0  0  0  0  0  0  0  0  0  0
  138.3673   67.5417  224.4594 H   0  0  0  0  0  0  0  0  0  0  0  0
  139.3042   67.0815  226.7305 H   0  0  0  0  0  0  0  0  0  0  0  0
  141.4222   70.8279  226.6400 H   0  0  0  0  0  0  0  0  0  0  0  0
  1  2  2  0
  2  3  1  0
  3  4  1  0
  4  5  1  0
  5  6  2  0
  5  7  1  0
  7  8  1  0
  8  9  1  0
  9 10  1  0
 10 11  1  0
 11 12  1  0
 12 13  1  0
 13 14  1  0
 14 15  1  0
 15 16  1  0
 16 17  1  0
 17 18  1  0
  2 19  1  0
 19 20  2  0
 20 21  1  0
 21 22  2  0
 22 23  1  0
 23 24  2  0
 24 25  1  0
 25 26  1  0
 25 27  2  0
 27 28  1  0
 28 29  2  0
 12  7  1  0
 18 13  1  0
 29 19  1  0
 28 22  1  0
  3 30  1  0
  4 31  1  0
  4 32  1  0
  8 33  1  0
  8 34  1  0
  9 35  1  0
  9 36  1  0
 10 37  1  0
 10 38  1  0
 11 39  1  0
 11 40  1  0
 12 41  1  1
 13 42  1  0
 14 43  1  0
 14 44  1  0
 15 45  1  0
 15 46  1  0
 16 47  1  0
 16 48  1  0
 17 49  1  0
 17 50  1  0
 18 51  1  0
 18 52  1  0
 20 53  1  0
 21 54  1  0
 23 55  1  0
 24 56  1  0
 27 57  1  0
M  END
>  <smiles>  (12) 
O=C(NCC(=O)N1CCCCC1C1CCCCC1)c1ccc2ccc(Cl)cc2n1

>  <score_type>  (12) 
oracle

>  <origin>  (12) 
autodockgpu

>  <m_score__min__energy>  (12) 
-9.5600000000000005

>  <m_primary>  (12) 
energy

>  <rmsd>  (12) 
3.6491802902296384

>  <m_score__min__rmsd>  (12) 
3.6491802902296384

>  <meeko>  (12) 
{"free_energy": -8.36, "intermolecular_energy": -9.85, "internal_energy": -2.01, "cluster_size": 24, "cluster_id": 2, "rank_in_cluster": 22}

>  <energy>  (12) 
-8.55

>  <cluster_rmsd>  (12) 
1.12

>  <cluster>  (12) 
1

$$$$

     RDKit          3D

 57 60  0  0  0  0  0  0  0  0999 V2000
  137.4690   74.3250  221.7310 O   0  0  0  0  0  0  0  0  0  0  0  0
  138.6000   74.7730  222.0590 C   0  0  0  0  0  0  0  0  0  0  0  0
  139.6610   73.8430  222.1460 N   0  0  0  0  0  0  0  0  0  0  0  0
  139.3610   72.4570  221.8500 C   0  0  0  0  0  0  0  0  0  0  0  0
  140.1220   71.5940  222.7870 C   0  0  0  0  0  0  0  0  0  0  0  0
  141.3690   71.5440  222.6240 O   0  0  0  0  0  0  0  0  0  0  0  0
  139.4580   70.8510  223.8300 N   0  0  0  0  0  0  0  0  0  0  0  0
  138.0950   71.2130  224.1420 C   0  0  0  0  0  0  0  0  0  0  0  0
  137.2300   69.9860  223.9930 C   0  0  0  0  0  0  0  0  0  0  0  0
  138.0750   68.7840  223.7510 C   0  0  0  0  0  0  0  0  0  0  0  0
  139.2360   68.6730  224.7220 C   0  0  0  0  0  0  0  0  0  0  0  0
  140.1920   69.7920  224.4870 C   0  0  2  0  0  0  0  0  0  0  0  0
  140.8620   70.3080  225.7120 C   0  0  0  0  0  0  0  0  0  0  0  0
  140.6560   71.8070  225.9200 C   0  0  0  0  0  0  0  0  0  0  0  0
  141.4290   72.1290  227.2060 C   0  0  0  0  0  0  0  0  0  0  0  0
  140.5910   71.6150  228.3490 C   0  0  0  0  0  0  0  0  0  0  0  0
  139.9540   70.2780  228.0500 C   0  0  0  0  0  0  0  0  0  0  0  0
  140.6970   69.5310  226.9620 C   0  0  0  0  0  0  0  0  0  0  0  0
  138.8110   76.1910  222.3410 C   0  0  0  0  0  0  0  0  0  0  0  0
  137.6870   77.0140  222.4160 C   0  0  0  0  0  0  0  0  0  0  0  0
  137.8650   78.3720  222.6840 C   0  0  0  0  0  0  0  0  0  0  0  0
  139.1440   78.9000  222.8740 C   0  0  0  0  0  0  0  0  0  0  0  0
  139.2780   80.2480  223.1350 C   0  0  0  0  0  0  0  0  0  0  0  0
  140.5550   80.7420  223.3180 C   0  0  0  0  0  0  0  0  0  0  0  0
  141.6520   79.8940  223.2360 C   0  0  0  0  0  0  0  0  0  0  0  0
  143.2730   80.5150  223.4680 Cl  0  0  0  0  0  0  0  0  0  0  0  0
  141.4830   78.5490  222.9730 C   0  0  0  0  0  0  0  0  0  0  0  0
  140.2160   78.0360  222.7860 C   0  0  0  0  0  0  0  0  0  0  0  0
  140.0320   76.7290  222.5280 N   0  0  0  0  0  0  0  0  0  0  0  0
  140.6180   74.1640  222.4150 H   0  0  0  0  0  0  0  0  0  0  0  0
  138.2829   72.2772  221.9740 H   0  0  0  0  0  0  0  0  0  0  0  0
  139.6454   72.2256  220.8129 H   0  0  0  0  0  0  0  0  0  0  0  0
  138.0368   71.5852  225.1755 H   0  0  0  0  0  0  0  0  0  0  0  0
  137.7489   72.0042  223.4607 H   0  0  0  0  0  0  0  0  0  0  0  0
  136.6461   69.8397  224.9137 H   0  0  0  0  0  0  0  0  0  0  0  0
  136.5543   70.1266  223.1365 H   0  0  0  0  0  0  0  0  0  0  0  0
  137.4463   67.8870  223.8516 H   0  0  0  0  0  0  0  0  0  0  0  0
  138.4981   68.8761  222.7398 H   0  0  0  0  0  0  0  0  0  0  0  0
  138.8571   68.7255  225.7534 H   0  0  0  0  0  0  0  0  0  0  0  0
  139.7512   67.7134  224.5678 H   0  0  0  0  0  0  0  0  0  0  0  0
  141.0147   69.4058  223.8673 H   0  0  0  0  0  0  0  0  0  0  0  0
  141.9224   70.1402  225.4726 H   0  0  0  0  0  0  0  0  0  0  0  0
  141.0612   72.3763  225.0704 H   0  0  0  0  0  0  0  0  0  0  0  0
  139.5919   72.0755  225.9945 H   0  0  0  0  0  0  0  0  0  0  0  0
  142.4079   71.6273  227.1968 H   0  0  0  0  0  0  0  0  0  0  0  0
  141.6111   73.2097  227.3007 H   0  0  0  0  0  0  0  0  0  0  0  0
  141.2330   71.5084  229.2359 H   0  0  0  0  0  0  0  0  0  0  0  0
  139.7802   72.3388  228.5182 H   0  0  0  0  0  0  0  0  0  0  0  0
  139.9578   69.6691  228.9661 H   0  0  0  0  0  0  0  0  0  0  0  0
  138.9272   70.4595  227.6997 H   0  0  0  0  0  0  0  0  0  0  0  0
  141.6953   69.2675  227.3414 H   0  0  0  0  0  0  0  0  0  0  0  0
  140.0953   68.6447  226.7123 H   0  0  0  0  0  0  0  0  0  0  0  0
  136.6788   76.6001  222.2666 H   0  0  0  0  0  0  0  0  0  0  0  0
  136.9885   79.0337  222.7463 H   0  0  0  0  0  0  0  0  0  0  0  0
  138.3988   80.9064  223.1953 H   0  0  0  0  0  0  0  0  0  0  0  0
  140.7037   81.8112  223.5295 H   0  0  0  0  0  0  0  0  0  0  0  0
  142.3589   77.8863  222.9126 H   0  0  0  0  0  0  0  0  0  0  0  0
  1  2  2  0
  2  3  1  0
  3  4  1  0
  4  5  1  0
  5  6  2  0
  5  7  1  0
  7  8  1  0
  8  9  1  0
  9 10  1  0
 10 11  1  0
 11 12  1  0
 12 13  1  0
 13 14  1  0
 14 15  1  0
 15 16  1  0
 16 17  1  0
 17 18  1  0
  2 19  1  0
 19 20  2  0
 20 21  1  0
 21 22  2  0
 22 23  1  0
 23 24  2  0
 24 25  1  0
 25 26  1  0
 25 27  2  0
 27 28  1  0
 28 29  2  0
 12  7  1  0
 18 13  1  0
 29 19  1  0
 28 22  1  0
  3 30  1  0
  4 31  1  0
  4 32  1  0
  8 33  1  0
  8 34  1  0
  9 35  1  0
  9 36  1  0
 10 37  1  0
 10 38  1  0
 11 39  1  0
 11 40  1  0
 12 41  1  6
 13 42  1  0
 14 43  1  0
 14 44  1  0
 15 45  1  0
 15 46  1  0
 16 47  1  0
 16 48  1  0
 17 49  1  0
 17 50  1  0
 18 51  1  0
 18 52  1  0
 20 53  1  0
 21 54  1  0
 23 55  1  0
 24 56  1  0
 27 57  1  0
M  END
>  <smiles>  (13) 
O=C(NCC(=O)N1CCCCC1C1CCCCC1)c1ccc2ccc(Cl)cc2n1

>  <score_type>  (13) 
oracle

>  <origin>  (13) 
autodockgpu

>  <m_score__min__energy>  (13) 
-9.5600000000000005

>  <m_primary>  (13) 
energy

>  <rmsd>  (13) 
8.274393480589957

>  <m_score__min__rmsd>  (13) 
8.274393480589957

>  <meeko>  (13) 
{"free_energy": -8.59, "intermolecular_energy": -10.08, "internal_energy": -1.81, "cluster_size": 17, "cluster_id": 1, "rank_in_cluster": 11}

>  <energy>  (13) 
-8.42

>  <cluster_rmsd>  (13) 
1.43

>  <cluster>  (13) 
1

$$$$

     RDKit          3D

 57 60  0  0  0  0  0  0  0  0999 V2000
  140.8640   74.0160  220.7370 O   0  0  0  0  0  0  0  0  0  0  0  0
  140.1330   74.6720  221.5270 C   0  0  0  0  0  0  0  0  0  0  0  0
  139.1080   73.9630  222.1950 N   0  0  0  0  0  0  0  0  0  0  0  0
  138.9830   72.5470  221.9150 C   0  0  0  0  0  0  0  0  0  0  0  0
  139.8240   71.7950  222.8790 C   0  0  0  0  0  0  0  0  0  0  0  0
  141.0670   71.9780  222.8090 O   0  0  0  0  0  0  0  0  0  0  0  0
  139.2380   70.8990  223.8460 N   0  0  0  0  0  0  0  0  0  0  0  0
  137.8630   71.1330  224.2240 C   0  0  0  0  0  0  0  0  0  0  0  0
  137.0750   69.8740  223.9570 C   0  0  0  0  0  0  0  0  0  0  0  0
  137.9880   68.7660  223.5640 C   0  0  0  0  0  0  0  0  0  0  0  0
  139.1800   68.6270  224.4940 C   0  0  0  0  0  0  0  0  0  0  0  0
  140.0550   69.8250  224.3660 C   0  0  2  0  0  0  0  0  0  0  0  0
  140.7250   70.2470  225.6270 C   0  0  0  0  0  0  0  0  0  0  0  0
  140.5830   71.7420  225.9080 C   0  0  0  0  0  0  0  0  0  0  0  0
  141.3450   71.9620  227.2220 C   0  0  0  0  0  0  0  0  0  0  0  0
  140.4620   71.4320  228.3220 C   0  0  0  0  0  0  0  0  0  0  0  0
  139.7700   70.1420  227.9440 C   0  0  0  0  0  0  0  0  0  0  0  0
  140.5000   69.4170  226.8330 C   0  0  0  0  0  0  0  0  0  0  0  0
  140.3320   76.1030  221.7480 C   0  0  0  0  0  0  0  0  0  0  0  0
  141.4390   76.7060  221.1500 C   0  0  0  0  0  0  0  0  0  0  0  0
  141.6490   78.0710  221.3470 C   0  0  0  0  0  0  0  0  0  0  0  0
  140.7670   78.8230  222.1280 C   0  0  0  0  0  0  0  0  0  0  0  0
  141.0100   80.1700  222.3000 C   0  0  0  0  0  0  0  0  0  0  0  0
  140.1210   80.8880  223.0770 C   0  0  0  0  0  0  0  0  0  0  0  0
  139.0290   80.2550  223.6570 C   0  0  0  0  0  0  0  0  0  0  0  0
  137.9000   81.1600  224.6430 Cl  0  0  0  0  0  0  0  0  0  0  0  0
  138.8150   78.9040  223.4650 C   0  0  0  0  0  0  0  0  0  0  0  0
  139.6920   78.1700  222.6930 C   0  0  0  0  0  0  0  0  0  0  0  0
  139.5000   76.8530  222.4950 N   0  0  0  0  0  0  0  0  0  0  0  0
  138.4750   74.4610  222.8600 H   0  0  0  0  0  0  0  0  0  0  0  0
  137.9322   72.2398  222.0224 H   0  0  0  0  0  0  0  0  0  0  0  0
  139.3134   72.3378  220.8868 H   0  0  0  0  0  0  0  0  0  0  0  0
  137.8094   71.3851  225.2934 H   0  0  0  0  0  0  0  0  0  0  0  0
  137.4481   71.9692  223.6422 H   0  0  0  0  0  0  0  0  0  0  0  0
  136.5286   69.5880  224.8678 H   0  0  0  0  0  0  0  0  0  0  0  0
  136.3673   70.0624  223.1362 H   0  0  0  0  0  0  0  0  0  0  0  0
  137.4215   67.8231  223.5756 H   0  0  0  0  0  0  0  0  0  0  0  0
  138.3761   68.9970  222.5610 H   0  0  0  0  0  0  0  0  0  0  0  0
  138.8265   68.5410  225.5321 H   0  0  0  0  0  0  0  0  0  0  0  0
  139.7512   67.7265  224.2241 H   0  0  0  0  0  0  0  0  0  0  0  0
  140.8829   69.5639  223.6905 H   0  0  0  0  0  0  0  0  0  0  0  0
  141.7810   70.0422  225.3971 H   0  0  0  0  0  0  0  0  0  0  0  0
  141.0300   72.3341  225.0959 H   0  0  0  0  0  0  0  0  0  0  0  0
  139.5310   72.0556  225.9779 H   0  0  0  0  0  0  0  0  0  0  0  0
  142.2994   71.4153  227.2040 H   0  0  0  0  0  0  0  0  0  0  0  0
  141.5756   73.0266  227.3749 H   0  0  0  0  0  0  0  0  0  0  0  0
  141.0805   71.2515  229.2136 H   0  0  0  0  0  0  0  0  0  0  0  0
  139.6821   72.1838  228.5134 H   0  0  0  0  0  0  0  0  0  0  0  0
  139.7275   69.4885  228.8278 H   0  0  0  0  0  0  0  0  0  0  0  0
  138.7597   70.3883  227.5855 H   0  0  0  0  0  0  0  0  0  0  0  0
  141.4776   69.0891  227.2161 H   0  0  0  0  0  0  0  0  0  0  0  0
  139.8639   68.5730  226.5280 H   0  0  0  0  0  0  0  0  0  0  0  0
  142.1336   76.1157  220.5343 H   0  0  0  0  0  0  0  0  0  0  0  0
  142.5178   78.5606  220.8828 H   0  0  0  0  0  0  0  0  0  0  0  0
  141.8807   80.6554  221.8350 H   0  0  0  0  0  0  0  0  0  0  0  0
  140.2787   81.9648  223.2368 H   0  0  0  0  0  0  0  0  0  0  0  0
  137.9458   78.4134  223.9274 H   0  0  0  0  0  0  0  0  0  0  0  0
  1  2  2  0
  2  3  1  0
  3  4  1  0
  4  5  1  0
  5  6  2  0
  5  7  1  0
  7  8  1  0
  8  9  1  0
  9 10  1  0
 10 11  1  0
 11 12  1  0
 12 13  1  0
 13 14  1  0
 14 15  1  0
 15 16  1  0
 16 17  1  0
 17 18  1  0
  2 19  1  0
 19 20  2  0
 20 21  1  0
 21 22  2  0
 22 23  1  0
 23 24  2  0
 24 25  1  0
 25 26  1  0
 25 27  2  0
 27 28  1  0
 28 29  2  0
 12  7  1  0
 18 13  1  0
 29 19  1  0
 28 22  1  0
  3 30  1  0
  4 31  1  0
  4 32  1  0
  8 33  1  0
  8 34  1  0
  9 35  1  0
  9 36  1  0
 10 37  1  0
 10 38  1  0
 11 39  1  0
 11 40  1  0
 12 41  1  6
 13 42  1  0
 14 43  1  0
 14 44  1  0
 15 45  1  0
 15 46  1  0
 16 47  1  0
 16 48  1  0
 17 49  1  0
 17 50  1  0
 18 51  1  0
 18 52  1  0
 20 53  1  0
 21 54  1  0
 23 55  1  0
 24 56  1  0
 27 57  1  0
M  END
>  <smiles>  (14) 
O=C(NCC(=O)N1CCCCC1C1CCCCC1)c1ccc2ccc(Cl)cc2n1

>  <score_type>  (14) 
oracle

>  <origin>  (14) 
autodockgpu

>  <m_score__min__energy>  (14) 
-9.5600000000000005

>  <m_primary>  (14) 
energy

>  <rmsd>  (14) 
8.370741828839252

>  <m_score__min__rmsd>  (14) 
8.370741828839252

>  <meeko>  (14) 
{"free_energy": -8.85, "intermolecular_energy": -10.34, "internal_energy": -1.64, "cluster_size": 17, "cluster_id": 1, "rank_in_cluster": 7}

>  <energy>  (14) 
-8.34

>  <cluster_rmsd>  (14) 
1.18

>  <cluster>  (14) 
1

$$$$

     RDKit          3D

 57 60  0  0  0  0  0  0  0  0999 V2000
  140.9520   73.8980  221.6230 O   0  0  0  0  0  0  0  0  0  0  0  0
  139.8220   74.3280  221.9790 C   0  0  0  0  0  0  0  0  0  0  0  0
  138.7660   73.3910  222.0390 N   0  0  0  0  0  0  0  0  0  0  0  0
  139.0690   72.0180  221.6870 C   0  0  0  0  0  0  0  0  0  0  0  0
  139.8650   71.4100  222.7810 C   0  0  0  0  0  0  0  0  0  0  0  0
  141.1160   71.5330  222.7060 O   0  0  0  0  0  0  0  0  0  0  0  0
  139.2310   70.7130  223.8730 N   0  0  0  0  0  0  0  0  0  0  0  0
  137.8990   71.1300  224.2460 C   0  0  0  0  0  0  0  0  0  0  0  0
  136.9860   69.9310  224.1690 C   0  0  0  0  0  0  0  0  0  0  0  0
  137.7750   68.6960  223.9100 C   0  0  0  0  0  0  0  0  0  0  0  0
  138.9800   68.5630  224.8230 C   0  0  0  0  0  0  0  0  0  0  0  0
  139.9610   69.6410  224.5150 C   0  0  2  0  0  0  0  0  0  0  0  0
  140.7120   70.1580  225.6920 C   0  0  0  0  0  0  0  0  0  0  0  0
  140.5840   71.6700  225.8660 C   0  0  0  0  0  0  0  0  0  0  0  0
  141.4310   71.9890  227.1050 C   0  0  0  0  0  0  0  0  0  0  0  0
  140.6270   71.5460  228.3000 C   0  0  0  0  0  0  0  0  0  0  0  0
  139.9150   70.2320  228.0690 C   0  0  0  0  0  0  0  0  0  0  0  0
  140.5710   69.4230  226.9700 C   0  0  0  0  0  0  0  0  0  0  0  0
  139.6070   75.7330  222.3160 C   0  0  0  0  0  0  0  0  0  0  0  0
  138.2940   76.2030  222.3400 C   0  0  0  0  0  0  0  0  0  0  0  0
  138.0650   77.5420  222.6590 C   0  0  0  0  0  0  0  0  0  0  0  0
  139.1300   78.3990  222.9510 C   0  0  0  0  0  0  0  0  0  0  0  0
  138.8610   79.7160  223.2600 C   0  0  0  0  0  0  0  0  0  0  0  0
  139.9350   80.5390  223.5440 C   0  0  0  0  0  0  0  0  0  0  0  0
  141.2300   80.0380  223.5110 C   0  0  0  0  0  0  0  0  0  0  0  0
  142.5930   81.0760  223.8700 Cl  0  0  0  0  0  0  0  0  0  0  0  0
  141.4630   78.7130  223.1970 C   0  0  0  0  0  0  0  0  0  0  0  0
  140.4050   77.8750  222.9100 C   0  0  0  0  0  0  0  0  0  0  0  0
  140.6130   76.5820  222.6010 N   0  0  0  0  0  0  0  0  0  0  0  0
  137.8100   73.6960  222.3290 H   0  0  0  0  0  0  0  0  0  0  0  0
  138.1334   71.4552  221.5534 H   0  0  0  0  0  0  0  0  0  0  0  0
  139.6409   71.9898  220.7477 H   0  0  0  0  0  0  0  0  0  0  0  0
  137.9072   71.5255  225.2724 H   0  0  0  0  0  0  0  0  0  0  0  0
  137.5454   71.9189  223.5659 H   0  0  0  0  0  0  0  0  0  0  0  0
  136.4468   69.8238  225.1218 H   0  0  0  0  0  0  0  0  0  0  0  0
  136.2714   70.0780  223.3457 H   0  0  0  0  0  0  0  0  0  0  0  0
  137.1219   67.8240  224.0615 H   0  0  0  0  0  0  0  0  0  0  0  0
  138.1482   68.7532  222.8768 H   0  0  0  0  0  0  0  0  0  0  0  0
  138.6569   68.6503  225.8708 H   0  0  0  0  0  0  0  0  0  0  0  0
  139.4525   67.5824  224.6642 H   0  0  0  0  0  0  0  0  0  0  0  0
  140.7363   69.2120  223.8632 H   0  0  0  0  0  0  0  0  0  0  0  0
  141.7513   69.9353  225.4087 H   0  0  0  0  0  0  0  0  0  0  0  0
  140.9738   72.1971  224.9827 H   0  0  0  0  0  0  0  0  0  0  0  0
  139.5379   71.9900  225.9816 H   0  0  0  0  0  0  0  0  0  0  0  0
  142.3843   71.4417  227.0646 H   0  0  0  0  0  0  0  0  0  0  0  0
  141.6661   73.0622  227.1600 H   0  0  0  0  0  0  0  0  0  0  0  0
  141.3055   71.4326  229.1584 H   0  0  0  0  0  0  0  0  0  0  0  0
  139.8596   72.3117  228.4869 H   0  0  0  0  0  0  0  0  0  0  0  0
  139.9341   69.6480  229.0010 H   0  0  0  0  0  0  0  0  0  0  0  0
  138.8820   70.4521  227.7616 H   0  0  0  0  0  0  0  0  0  0  0  0
  141.5731   69.1233  227.3105 H   0  0  0  0  0  0  0  0  0  0  0  0
  139.9184   68.5595  226.7736 H   0  0  0  0  0  0  0  0  0  0  0  0
  137.4542   75.5303  222.1116 H   0  0  0  0  0  0  0  0  0  0  0  0
  137.0350   77.9274  222.6809 H   0  0  0  0  0  0  0  0  0  0  0  0
  137.8295   80.0977  223.2797 H   0  0  0  0  0  0  0  0  0  0  0  0
  139.7631   81.5955  223.7973 H   0  0  0  0  0  0  0  0  0  0  0  0
  142.4924   78.3259  223.1758 H   0  0  0  0  0  0  0  0  0  0  0  0
  1  2  2  0
  2  3  1  0
  3  4  1  0
  4  5  1  0
  5  6  2  0
  5  7  1  0
  7  8  1  0
  8  9  1  0
  9 10  1  0
 10 11  1  0
 11 12  1  0
 12 13  1  0
 13 14  1  0
 14 15  1  0
 15 16  1  0
 16 17  1  0
 17 18  1  0
  2 19  1  0
 19 20  2  0
 20 21  1  0
 21 22  2  0
 22 23  1  0
 23 24  2  0
 24 25  1  0
 25 26  1  0
 25 27  2  0
 27 28  1  0
 28 29  2  0
 12  7  1  0
 18 13  1  0
 29 19  1  0
 28 22  1  0
  3 30  1  0
  4 31  1  0
  4 32  1  0
  8 33  1  0
  8 34  1  0
  9 35  1  0
  9 36  1  0
 10 37  1  0
 10 38  1  0
 11 39  1  0
 11 40  1  0
 12 41  1  6
 13 42  1  0
 14 43  1  0
 14 44  1  0
 15 45  1  0
 15 46  1  0
 16 47  1  0
 16 48  1  0
 17 49  1  0
 17 50  1  0
 18 51  1  0
 18 52  1  0
 20 53  1  0
 21 54  1  0
 23 55  1  0
 24 56  1  0
 27 57  1  0
M  END
>  <smiles>  (15) 
O=C(NCC(=O)N1CCCCC1C1CCCCC1)c1ccc2ccc(Cl)cc2n1

>  <score_type>  (15) 
oracle

>  <origin>  (15) 
autodockgpu

>  <m_score__min__energy>  (15) 
-9.5600000000000005

>  <m_primary>  (15) 
energy

>  <rmsd>  (15) 
8.124578805621292

>  <m_score__min__rmsd>  (15) 
8.124578805621292

>  <meeko>  (15) 
{"free_energy": -9.32, "intermolecular_energy": -10.81, "internal_energy": -1.48, "cluster_size": 17, "cluster_id": 1, "rank_in_cluster": 4}

>  <energy>  (15) 
-8.13

>  <cluster_rmsd>  (15) 
1.78

>  <cluster>  (15) 
1

$$$$

     RDKit          3D

 57 60  0  0  0  0  0  0  0  0999 V2000
  141.1230   73.6760  221.7730 O   0  0  0  0  0  0  0  0  0  0  0  0
  140.0360   73.3730  222.3330 C   0  0  0  0  0  0  0  0  0  0  0  0
  139.0120   74.3490  222.3230 N   0  0  0  0  0  0  0  0  0  0  0  0
  139.2980   75.6110  221.6720 C   0  0  0  0  0  0  0  0  0  0  0  0
  138.4060   76.6530  222.2380 C   0  0  0  0  0  0  0  0  0  0  0  0
  137.5190   76.2620  223.0410 O   0  0  0  0  0  0  0  0  0  0  0  0
  138.5550   78.0420  221.8810 N   0  0  0  0  0  0  0  0  0  0  0  0
  138.7700   78.3530  220.4870 C   0  0  0  0  0  0  0  0  0  0  0  0
  137.6930   79.3110  220.0410 C   0  0  0  0  0  0  0  0  0  0  0  0
  136.8790   79.7530  221.2060 C   0  0  0  0  0  0  0  0  0  0  0  0
  137.7280   80.1990  222.3830 C   0  0  0  0  0  0  0  0  0  0  0  0
  138.4700   79.0310  222.9340 C   0  0  2  0  0  0  0  0  0  0  0  0
  139.8260   79.3440  223.4610 C   0  0  0  0  0  0  0  0  0  0  0  0
  140.9160   78.4450  222.8810 C   0  0  0  0  0  0  0  0  0  0  0  0
  142.2090   78.9190  223.5570 C   0  0  0  0  0  0  0  0  0  0  0  0
  142.5920   80.2140  222.8880 C   0  0  0  0  0  0  0  0  0  0  0  0
  141.4000   81.1020  222.6100 C   0  0  0  0  0  0  0  0  0  0  0  0
  140.2290   80.7690  223.5100 C   0  0  0  0  0  0  0  0  0  0  0  0
  139.8360   72.0720  222.9670 C   0  0  0  0  0  0  0  0  0  0  0  0
  139.2030   71.0760  222.2230 C   0  0  0  0  0  0  0  0  0  0  0  0
  139.0010   69.8260  222.8090 C   0  0  0  0  0  0  0  0  0  0  0  0
  139.4240   69.5740  224.1170 C   0  0  0  0  0  0  0  0  0  0  0  0
  139.2050   68.3250  224.6600 C   0  0  0  0  0  0  0  0  0  0  0  0
  139.6340   68.1050  225.9550 C   0  0  0  0  0  0  0  0  0  0  0  0
  140.2610   69.1200  226.6670 C   0  0  0  0  0  0  0  0  0  0  0  0
  140.8070   68.8470  228.3080 Cl  0  0  0  0  0  0  0  0  0  0  0  0
  140.4650   70.3600  226.0930 C   0  0  0  0  0  0  0  0  0  0  0  0
  140.0430   70.5990  224.8010 C   0  0  0  0  0  0  0  0  0  0  0  0
  140.2320   71.8000  224.2250 N   0  0  0  0  0  0  0  0  0  0  0  0
  138.0920   74.1470  222.7740 H   0  0  0  0  0  0  0  0  0  0  0  0
  140.3480   75.8880  221.8473 H   0  0  0  0  0  0  0  0  0  0  0  0
  139.1274   75.5205  220.5891 H   0  0  0  0  0  0  0  0  0  0  0  0
  139.7581   78.8189  220.3585 H   0  0  0  0  0  0  0  0  0  0  0  0
  138.7312   77.4336  219.8844 H   0  0  0  0  0  0  0  0  0  0  0  0
  138.1603   80.1889  219.5710 H   0  0  0  0  0  0  0  0  0  0  0  0
  137.0374   78.8012  219.3197 H   0  0  0  0  0  0  0  0  0  0  0  0
  136.2442   80.5946  220.8919 H   0  0  0  0  0  0  0  0  0  0  0  0
  136.2808   78.8914  221.5374 H   0  0  0  0  0  0  0  0  0  0  0  0
  138.4447   80.9636  222.0487 H   0  0  0  0  0  0  0  0  0  0  0  0
  137.0779   80.6205  223.1638 H   0  0  0  0  0  0  0  0  0  0  0  0
  137.9143   78.6645  223.8097 H   0  0  0  0  0  0  0  0  0  0  0  0
  139.7128   79.0965  224.5268 H   0  0  0  0  0  0  0  0  0  0  0  0
  140.7171   77.3899  223.1201 H   0  0  0  0  0  0  0  0  0  0  0  0
  140.9706   78.5101  221.7843 H   0  0  0  0  0  0  0  0  0  0  0  0
  142.0383   79.0823  224.6313 H   0  0  0  0  0  0  0  0  0  0  0  0
  143.0075   78.1689  223.4581 H   0  0  0  0  0  0  0  0  0  0  0  0
  143.2893   80.7560  223.5437 H   0  0  0  0  0  0  0  0  0  0  0  0
  143.0533   79.9647  221.9210 H   0  0  0  0  0  0  0  0  0  0  0  0
  141.6902   82.1499  222.7763 H   0  0  0  0  0  0  0  0  0  0  0  0
  141.0877   80.9389  221.5680 H   0  0  0  0  0  0  0  0  0  0  0  0
  140.5057   81.0161  224.5455 H   0  0  0  0  0  0  0  0  0  0  0  0
  139.3714   81.3579  223.1525 H   0  0  0  0  0  0  0  0  0  0  0  0
  138.8693   71.2725  221.1934 H   0  0  0  0  0  0  0  0  0  0  0  0
  138.5034   69.0302  222.2353 H   0  0  0  0  0  0  0  0  0  0  0  0
  138.7066   67.5323  224.0827 H   0  0  0  0  0  0  0  0  0  0  0  0
  139.4785   67.1223  226.4241 H   0  0  0  0  0  0  0  0  0  0  0  0
  140.9634   71.1562  226.6654 H   0  0  0  0  0  0  0  0  0  0  0  0
  1  2  2  0
  2  3  1  0
  3  4  1  0
  4  5  1  0
  5  6  2  0
  5  7  1  0
  7  8  1  0
  8  9  1  0
  9 10  1  0
 10 11  1  0
 11 12  1  0
 12 13  1  0
 13 14  1  0
 14 15  1  0
 15 16  1  0
 16 17  1  0
 17 18  1  0
  2 19  1  0
 19 20  2  0
 20 21  1  0
 21 22  2  0
 22 23  1  0
 23 24  2  0
 24 25  1  0
 25 26  1  0
 25 27  2  0
 27 28  1  0
 28 29  2  0
 12  7  1  0
 18 13  1  0
 29 19  1  0
 28 22  1  0
  3 30  1  0
  4 31  1  0
  4 32  1  0
  8 33  1  0
  8 34  1  0
  9 35  1  0
  9 36  1  0
 10 37  1  0
 10 38  1  0
 11 39  1  0
 11 40  1  0
 12 41  1  1
 13 42  1  0
 14 43  1  0
 14 44  1  0
 15 45  1  0
 15 46  1  0
 16 47  1  0
 16 48  1  0
 17 49  1  0
 17 50  1  0
 18 51  1  0
 18 52  1  0
 20 53  1  0
 21 54  1  0
 23 55  1  0
 24 56  1  0
 27 57  1  0
M  END
>  <smiles>  (16) 
O=C(NCC(=O)N1CCCCC1C1CCCCC1)c1ccc2ccc(Cl)cc2n1

>  <score_type>  (16) 
oracle

>  <origin>  (16) 
autodockgpu

>  <m_score__min__energy>  (16) 
-9.5600000000000005

>  <m_primary>  (16) 
energy

>  <rmsd>  (16) 
3.644330558942755

>  <m_score__min__rmsd>  (16) 
3.644330558942755

>  <meeko>  (16) 
{"free_energy": -8.46, "intermolecular_energy": -9.95, "internal_energy": -1.98, "cluster_size": 24, "cluster_id": 2, "rank_in_cluster": 19}

>  <energy>  (16) 
-8.12

>  <cluster_rmsd>  (16) 
1.77

>  <cluster>  (16) 
1

$$$$

     RDKit          3D

 57 60  0  0  0  0  0  0  0  0999 V2000
  141.0620   73.0350  222.1090 O   0  0  0  0  0  0  0  0  0  0  0  0
  139.8950   72.6280  222.3550 C   0  0  0  0  0  0  0  0  0  0  0  0
  138.8280   73.3110  221.7270 N   0  0  0  0  0  0  0  0  0  0  0  0
  139.1650   74.4190  220.8550 C   0  0  0  0  0  0  0  0  0  0  0  0
  139.7680   75.5010  221.6710 C   0  0  0  0  0  0  0  0  0  0  0  0
  139.2670   75.6980  222.8090 O   0  0  0  0  0  0  0  0  0  0  0  0
  140.8720   76.2860  221.1770 N   0  0  0  0  0  0  0  0  0  0  0  0
  142.0830   75.5830  220.8220 C   0  0  0  0  0  0  0  0  0  0  0  0
  142.4170   75.9060  219.3860 C   0  0  0  0  0  0  0  0  0  0  0  0
  141.5050   76.9620  218.8670 C   0  0  0  0  0  0  0  0  0  0  0  0
  141.3790   78.1460  219.8080 C   0  0  0  0  0  0  0  0  0  0  0  0
  140.6950   77.7170  221.0610 C   0  0  2  0  0  0  0  0  0  0  0  0
  141.1690   78.4010  222.2960 C   0  0  0  0  0  0  0  0  0  0  0  0
  142.2030   79.4900  222.0170 C   0  0  0  0  0  0  0  0  0  0  0  0
  142.5620   80.0450  223.4020 C   0  0  0  0  0  0  0  0  0  0  0  0
  141.4090   80.9190  223.8240 C   0  0  0  0  0  0  0  0  0  0  0  0
  140.0660   80.3260  223.4660 C   0  0  0  0  0  0  0  0  0  0  0  0
  140.1450   78.8250  223.2790 C   0  0  0  0  0  0  0  0  0  0  0  0
  139.6480   71.5000  223.2500 C   0  0  0  0  0  0  0  0  0  0  0  0
  138.6770   70.5710  222.8750 C   0  0  0  0  0  0  0  0  0  0  0  0
  138.4240   69.4860  223.7140 C   0  0  0  0  0  0  0  0  0  0  0  0
  139.1300   69.3290  224.9100 C   0  0  0  0  0  0  0  0  0  0  0  0
  138.8500   68.2430  225.7130 C   0  0  0  0  0  0  0  0  0  0  0  0
  139.5650   68.1150  226.8890 C   0  0  0  0  0  0  0  0  0  0  0  0
  140.5250   69.0580  227.2320 C   0  0  0  0  0  0  0  0  0  0  0  0
  141.4330   68.9000  228.7200 Cl  0  0  0  0  0  0  0  0  0  0  0  0
  140.7810   70.1340  226.4040 C   0  0  0  0  0  0  0  0  0  0  0  0
  140.0780   70.2810  225.2260 C   0  0  0  0  0  0  0  0  0  0  0  0
  140.3120   71.3220  224.4080 N   0  0  0  0  0  0  0  0  0  0  0  0
  137.8420   73.0130  221.8980 H   0  0  0  0  0  0  0  0  0  0  0  0
  139.8850   74.0848  220.0935 H   0  0  0  0  0  0  0  0  0  0  0  0
  138.2591   74.7893  220.3528 H   0  0  0  0  0  0  0  0  0  0  0  0
  142.9058   75.9061  221.4767 H   0  0  0  0  0  0  0  0  0  0  0  0
  141.9402   74.4990  220.9425 H   0  0  0  0  0  0  0  0  0  0  0  0
  143.4558   76.2628  219.3267 H   0  0  0  0  0  0  0  0  0  0  0  0
  142.2946   74.9977  218.7777 H   0  0  0  0  0  0  0  0  0  0  0  0
  141.8947   77.3197  217.9025 H   0  0  0  0  0  0  0  0  0  0  0  0
  140.5057   76.5142  218.7631 H   0  0  0  0  0  0  0  0  0  0  0  0
  142.3811   78.5294  220.0506 H   0  0  0  0  0  0  0  0  0  0  0  0
  140.7899   78.9380  219.3225 H   0  0  0  0  0  0  0  0  0  0  0  0
  139.6357   78.0022  220.9799 H   0  0  0  0  0  0  0  0  0  0  0  0
  141.6746   77.5802  222.8257 H   0  0  0  0  0  0  0  0  0  0  0  0
  143.0913   79.0658  221.5262 H   0  0  0  0  0  0  0  0  0  0  0  0
  141.8179   80.2685  221.3420 H   0  0  0  0  0  0  0  0  0  0  0  0
  142.6966   79.2212  224.1184 H   0  0  0  0  0  0  0  0  0  0  0  0
  143.5026   80.6144  223.3711 H   0  0  0  0  0  0  0  0  0  0  0  0
  141.4531   81.0575  224.9144 H   0  0  0  0  0  0  0  0  0  0  0  0
  141.5034   81.8751  223.2883 H   0  0  0  0  0  0  0  0  0  0  0  0
  139.3526   80.5470  224.2736 H   0  0  0  0  0  0  0  0  0  0  0  0
  139.7381   80.7719  222.5154 H   0  0  0  0  0  0  0  0  0  0  0  0
  140.3842   78.3661  224.2497 H   0  0  0  0  0  0  0  0  0  0  0  0
  139.1699   78.4976  222.8893 H   0  0  0  0  0  0  0  0  0  0  0  0
  138.1206   70.6922  221.9339 H   0  0  0  0  0  0  0  0  0  0  0  0
  137.6607   68.7460  223.4315 H   0  0  0  0  0  0  0  0  0  0  0  0
  138.0854   67.5055  225.4278 H   0  0  0  0  0  0  0  0  0  0  0  0
  139.3726   67.2620  227.5564 H   0  0  0  0  0  0  0  0  0  0  0  0
  141.5455   70.8737  226.6841 H   0  0  0  0  0  0  0  0  0  0  0  0
  1  2  2  0
  2  3  1  0
  3  4  1  0
  4  5  1  0
  5  6  2  0
  5  7  1  0
  7  8  1  0
  8  9  1  0
  9 10  1  0
 10 11  1  0
 11 12  1  0
 12 13  1  0
 13 14  1  0
 14 15  1  0
 15 16  1  0
 16 17  1  0
 17 18  1  0
  2 19  1  0
 19 20  2  0
 20 21  1  0
 21 22  2  0
 22 23  1  0
 23 24  2  0
 24 25  1  0
 25 26  1  0
 25 27  2  0
 27 28  1  0
 28 29  2  0
 12  7  1  0
 18 13  1  0
 29 19  1  0
 28 22  1  0
  3 30  1  0
  4 31  1  0
  4 32  1  0
  8 33  1  0
  8 34  1  0
  9 35  1  0
  9 36  1  0
 10 37  1  0
 10 38  1  0
 11 39  1  0
 11 40  1  0
 12 41  1  6
 13 42  1  0
 14 43  1  0
 14 44  1  0
 15 45  1  0
 15 46  1  0
 16 47  1  0
 16 48  1  0
 17 49  1  0
 17 50  1  0
 18 51  1  0
 18 52  1  0
 20 53  1  0
 21 54  1  0
 23 55  1  0
 24 56  1  0
 27 57  1  0
M  END
>  <smiles>  (17) 
O=C(NCC(=O)N1CCCCC1C1CCCCC1)c1ccc2ccc(Cl)cc2n1

>  <score_type>  (17) 
oracle

>  <origin>  (17) 
autodockgpu

>  <m_score__min__energy>  (17) 
-9.5600000000000005

>  <m_primary>  (17) 
energy

>  <rmsd>  (17) 
2.2450894129453913

>  <m_score__min__rmsd>  (17) 
2.2450894129453913

>  <meeko>  (17) 
{"free_energy": -8.69, "intermolecular_energy": -10.18, "internal_energy": -1.45, "cluster_size": 24, "cluster_id": 2, "rank_in_cluster": 12}

>  <energy>  (17) 
-8.03

>  <cluster_rmsd>  (17) 
1.37

>  <cluster>  (17) 
1

$$$$

     RDKit          3D

 57 60  0  0  0  0  0  0  0  0999 V2000
  140.4710   78.1840  217.9790 O   0  0  0  0  0  0  0  0  0  0  0  0
  141.5480   77.9850  218.6030 C   0  0  0  0  0  0  0  0  0  0  0  0
  142.2100   79.1210  219.1230 N   0  0  0  0  0  0  0  0  0  0  0  0
  141.5980   80.4150  218.8960 C   0  0  0  0  0  0  0  0  0  0  0  0
  141.1160   80.9480  220.1930 C   0  0  0  0  0  0  0  0  0  0  0  0
  140.5570   82.0760  220.1690 O   0  0  0  0  0  0  0  0  0  0  0  0
  141.2840   80.2060  221.4190 N   0  0  0  0  0  0  0  0  0  0  0  0
  142.5840   80.2450  222.0490 C   0  0  0  0  0  0  0  0  0  0  0  0
  142.4130   80.7470  223.4620 C   0  0  0  0  0  0  0  0  0  0  0  0
  140.9670   80.8670  223.7970 C   0  0  0  0  0  0  0  0  0  0  0  0
  140.1700   79.6310  223.4230 C   0  0  0  0  0  0  0  0  0  0  0  0
  140.1460   79.4820  221.9410 C   0  0  2  0  0  0  0  0  0  0  0  0
  140.1580   78.0760  221.4540 C   0  0  0  0  0  0  0  0  0  0  0  0
  140.9430   77.1350  222.3650 C   0  0  0  0  0  0  0  0  0  0  0  0
  140.8440   75.7640  221.6830 C   0  0  0  0  0  0  0  0  0  0  0  0
  139.4540   75.2490  221.9560 C   0  0  0  0  0  0  0  0  0  0  0  0
  138.4020   76.3300  221.8550 C   0  0  0  0  0  0  0  0  0  0  0  0
  138.8710   77.4940  221.0080 C   0  0  0  0  0  0  0  0  0  0  0  0
  142.0940   76.6420  218.7840 C   0  0  0  0  0  0  0  0  0  0  0  0
  141.4490   75.5860  218.1390 C   0  0  0  0  0  0  0  0  0  0  0  0
  141.9520   74.2940  218.2980 C   0  0  0  0  0  0  0  0  0  0  0  0
  143.0810   74.0600  219.0870 C   0  0  0  0  0  0  0  0  0  0  0  0
  143.5470   72.7690  219.2190 C   0  0  0  0  0  0  0  0  0  0  0  0
  144.6650   72.5680  220.0050 C   0  0  0  0  0  0  0  0  0  0  0  0
  145.2830   73.6430  220.6320 C   0  0  0  0  0  0  0  0  0  0  0  0
  146.7000   73.3940  221.6300 Cl  0  0  0  0  0  0  0  0  0  0  0  0
  144.7900   74.9240  220.4790 C   0  0  0  0  0  0  0  0  0  0  0  0
  143.6740   75.1450  219.6980 C   0  0  0  0  0  0  0  0  0  0  0  0
  143.1800   76.3860  219.5380 N   0  0  0  0  0  0  0  0  0  0  0  0
  143.1070   79.0100  219.6480 H   0  0  0  0  0  0  0  0  0  0  0  0
  142.3391   81.1043  218.4652 H   0  0  0  0  0  0  0  0  0  0  0  0
  140.7551   80.3130  218.1966 H   0  0  0  0  0  0  0  0  0  0  0  0
  143.0203   79.2354  222.0636 H   0  0  0  0  0  0  0  0  0  0  0  0
  143.2557   80.9124  221.4892 H   0  0  0  0  0  0  0  0  0  0  0  0
  142.8892   80.0408  224.1580 H   0  0  0  0  0  0  0  0  0  0  0  0
  142.8836   81.7374  223.5490 H   0  0  0  0  0  0  0  0  0  0  0  0
  140.8701   81.0327  224.8801 H   0  0  0  0  0  0  0  0  0  0  0  0
  140.5623   81.7091  223.2164 H   0  0  0  0  0  0  0  0  0  0  0  0
  140.6386   78.7432  223.8727 H   0  0  0  0  0  0  0  0  0  0  0  0
  139.1405   79.7329  223.7968 H   0  0  0  0  0  0  0  0  0  0  0  0
  139.1897   79.8879  221.5794 H   0  0  0  0  0  0  0  0  0  0  0  0
  140.7096   78.1737  220.5073 H   0  0  0  0  0  0  0  0  0  0  0  0
  141.9925   77.4553  222.4424 H   0  0  0  0  0  0  0  0  0  0  0  0
  140.5462   77.1202  223.3908 H   0  0  0  0  0  0  0  0  0  0  0  0
  141.0054   75.8660  220.5997 H   0  0  0  0  0  0  0  0  0  0  0  0
  141.6072   75.0721  222.0687 H   0  0  0  0  0  0  0  0  0  0  0  0
  139.2205   74.4611  221.2248 H   0  0  0  0  0  0  0  0  0  0  0  0
  139.4381   74.8646  222.9865 H   0  0  0  0  0  0  0  0  0  0  0  0
  137.4950   75.9029  221.4022 H   0  0  0  0  0  0  0  0  0  0  0  0
  138.1989   76.7051  222.8689 H   0  0  0  0  0  0  0  0  0  0  0  0
  138.9890   77.1439  219.9719 H   0  0  0  0  0  0  0  0  0  0  0  0
  138.1120   78.2847  221.1007 H   0  0  0  0  0  0  0  0  0  0  0  0
  140.5605   75.7686  217.5167 H   0  0  0  0  0  0  0  0  0  0  0  0
  141.4542   73.4508  217.7967 H   0  0  0  0  0  0  0  0  0  0  0  0
  143.0461   71.9287  218.7160 H   0  0  0  0  0  0  0  0  0  0  0  0
  145.0677   71.5527  220.1351 H   0  0  0  0  0  0  0  0  0  0  0  0
  145.2869   75.7681  220.9797 H   0  0  0  0  0  0  0  0  0  0  0  0
  1  2  2  0
  2  3  1  0
  3  4  1  0
  4  5  1  0
  5  6  2  0
  5  7  1  0
  7  8  1  0
  8  9  1  0
  9 10  1  0
 10 11  1  0
 11 12  1  0
 12 13  1  0
 13 14  1  0
 14 15  1  0
 15 16  1  0
 16 17  1  0
 17 18  1  0
  2 19  1  0
 19 20  2  0
 20 21  1  0
 21 22  2  0
 22 23  1  0
 23 24  2  0
 24 25  1  0
 25 26  1  0
 25 27  2  0
 27 28  1  0
 28 29  2  0
 12  7  1  0
 18 13  1  0
 29 19  1  0
 28 22  1  0
  3 30  1  0
  4 31  1  0
  4 32  1  0
  8 33  1  0
  8 34  1  0
  9 35  1  0
  9 36  1  0
 10 37  1  0
 10 38  1  0
 11 39  1  0
 11 40  1  0
 12 41  1  6
 13 42  1  0
 14 43  1  0
 14 44  1  0
 15 45  1  0
 15 46  1  0
 16 47  1  0
 16 48  1  0
 17 49  1  0
 17 50  1  0
 18 51  1  0
 18 52  1  0
 20 53  1  0
 21 54  1  0
 23 55  1  0
 24 56  1  0
 27 57  1  0
M  END
>  <smiles>  (18) 
O=C(NCC(=O)N1CCCCC1C1CCCCC1)c1ccc2ccc(Cl)cc2n1

>  <score_type>  (18) 
oracle

>  <origin>  (18) 
autodockgpu

>  <m_score__min__energy>  (18) 
-9.5600000000000005

>  <m_primary>  (18) 
energy

>  <rmsd>  (18) 
7.784091038176529

>  <m_score__min__rmsd>  (18) 
7.784091038176529

>  <meeko>  (18) 
{"free_energy": -6.93, "intermolecular_energy": -8.42, "internal_energy": -2.96, "cluster_size": 1, "cluster_id": 5, "rank_in_cluster": 1}

>  <energy>  (18) 
-8.92

>  <cluster_rmsd>  (18) 
0.0

>  <cluster>  (18) 
2

$$$$

     RDKit          3D

 57 60  0  0  0  0  0  0  0  0999 V2000
  136.4180   77.6850  222.5170 O   0  0  0  0  0  0  0  0  0  0  0  0
  136.5870   76.5600  223.0590 C   0  0  0  0  0  0  0  0  0  0  0  0
  137.7570   75.8470  222.7120 N   0  0  0  0  0  0  0  0  0  0  0  0
  138.6620   76.4670  221.7650 C   0  0  0  0  0  0  0  0  0  0  0  0
  139.9210   75.6840  221.7260 C   0  0  0  0  0  0  0  0  0  0  0  0
  139.9070   74.5600  222.2930 O   0  0  0  0  0  0  0  0  0  0  0  0
  141.1010   76.1920  221.0700 N   0  0  0  0  0  0  0  0  0  0  0  0
  142.1740   75.2600  220.8120 C   0  0  0  0  0  0  0  0  0  0  0  0
  142.4720   75.2760  219.3330 C   0  0  0  0  0  0  0  0  0  0  0  0
  141.6990   76.3550  218.6600 C   0  0  0  0  0  0  0  0  0  0  0  0
  141.8000   77.6880  219.3780 C   0  0  0  0  0  0  0  0  0  0  0  0
  141.1300   77.5920  220.7060 C   0  0  2  0  0  0  0  0  0  0  0  0
  141.7660   78.3960  221.7850 C   0  0  0  0  0  0  0  0  0  0  0  0
  141.9020   79.8750  221.4280 C   0  0  0  0  0  0  0  0  0  0  0  0
  142.5840   80.5060  222.6500 C   0  0  0  0  0  0  0  0  0  0  0  0
  141.5280   80.6190  223.7180 C   0  0  0  0  0  0  0  0  0  0  0  0
  140.6250   79.4080  223.7770 C   0  0  0  0  0  0  0  0  0  0  0  0
  141.2830   78.1860  223.1700 C   0  0  0  0  0  0  0  0  0  0  0  0
  135.6180   76.0120  224.0060 C   0  0  0  0  0  0  0  0  0  0  0  0
  134.6980   76.8910  224.5780 C   0  0  0  0  0  0  0  0  0  0  0  0
  133.7640   76.3890  225.4850 C   0  0  0  0  0  0  0  0  0  0  0  0
  133.7480   75.0310  225.8150 C   0  0  0  0  0  0  0  0  0  0  0  0
  132.8100   74.5740  226.7170 C   0  0  0  0  0  0  0  0  0  0  0  0
  132.8180   73.2270  227.0240 C   0  0  0  0  0  0  0  0  0  0  0  0
  133.7480   72.3800  226.4350 C   0  0  0  0  0  0  0  0  0  0  0  0
  133.7630   70.6730  226.8210 Cl  0  0  0  0  0  0  0  0  0  0  0  0
  134.6750   72.8710  225.5360 C   0  0  0  0  0  0  0  0  0  0  0  0
  134.6840   74.2130  225.2170 C   0  0  0  0  0  0  0  0  0  0  0  0
  135.5790   74.7090  224.3440 N   0  0  0  0  0  0  0  0  0  0  0  0
  137.9440   74.9100  223.1340 H   0  0  0  0  0  0  0  0  0  0  0  0
  138.2018   76.4775  220.7660 H   0  0  0  0  0  0  0  0  0  0  0  0
  138.8741   77.5017  222.0723 H   0  0  0  0  0  0  0  0  0  0  0  0
  143.0702   75.5598  221.3750 H   0  0  0  0  0  0  0  0  0  0  0  0
  141.8804   74.2481  221.1279 H   0  0  0  0  0  0  0  0  0  0  0  0
  143.5472   75.4520  219.1817 H   0  0  0  0  0  0  0  0  0  0  0  0
  142.1832   74.3068  218.9002 H   0  0  0  0  0  0  0  0  0  0  0  0
  142.0841   76.4771  217.6369 H   0  0  0  0  0  0  0  0  0  0  0  0
  140.6404   76.0560  218.6654 H   0  0  0  0  0  0  0  0  0  0  0  0
  142.8593   77.9480  219.5202 H   0  0  0  0  0  0  0  0  0  0  0  0
  141.3079   78.4659  218.7757 H   0  0  0  0  0  0  0  0  0  0  0  0
  140.1214   78.0193  220.6052 H   0  0  0  0  0  0  0  0  0  0  0  0
  142.7756   77.9609  221.8215 H   0  0  0  0  0  0  0  0  0  0  0  0
  142.5220   80.0021  220.5283 H   0  0  0  0  0  0  0  0  0  0  0  0
  140.9313   80.3416  221.2042 H   0  0  0  0  0  0  0  0  0  0  0  0
  143.4089   79.8665  222.9973 H   0  0  0  0  0  0  0  0  0  0  0  0
  143.0085   81.4906  222.4045 H   0  0  0  0  0  0  0  0  0  0  0  0
  142.0245   80.7354  224.6927 H   0  0  0  0  0  0  0  0  0  0  0  0
  140.9009   81.4892  223.4740 H   0  0  0  0  0  0  0  0  0  0  0  0
  140.3817   79.1961  224.8286 H   0  0  0  0  0  0  0  0  0  0  0  0
  139.7164   79.6303  223.1982 H   0  0  0  0  0  0  0  0  0  0  0  0
  142.1412   77.9054  223.7983 H   0  0  0  0  0  0  0  0  0  0  0  0
  140.5182   77.3966  223.1276 H   0  0  0  0  0  0  0  0  0  0  0  0
  134.7087   77.9600  224.3188 H   0  0  0  0  0  0  0  0  0  0  0  0
  133.0324   77.0694  225.9452 H   0  0  0  0  0  0  0  0  0  0  0  0
  132.0810   75.2581  227.1759 H   0  0  0  0  0  0  0  0  0  0  0  0
  132.0848   72.8236  227.7379 H   0  0  0  0  0  0  0  0  0  0  0  0
  135.4064   72.1914  225.0743 H   0  0  0  0  0  0  0  0  0  0  0  0
  1  2  2  0
  2  3  1  0
  3  4  1  0
  4  5  1  0
  5  6  2  0
  5  7  1  0
  7  8  1  0
  8  9  1  0
  9 10  1  0
 10 11  1  0
 11 12  1  0
 12 13  1  0
 13 14  1  0
 14 15  1  0
 15 16  1  0
 16 17  1  0
 17 18  1  0
  2 19  1  0
 19 20  2  0
 20 21  1  0
 21 22  2  0
 22 23  1  0
 23 24  2  0
 24 25  1  0
 25 26  1  0
 25 27  2  0
 27 28  1  0
 28 29  2  0
 12  7  1  0
 18 13  1  0
 29 19  1  0
 28 22  1  0
  3 30  1  0
  4 31  1  0
  4 32  1  0
  8 33  1  0
  8 34  1  0
  9 35  1  0
  9 36  1  0
 10 37  1  0
 10 38  1  0
 11 39  1  0
 11 40  1  0
 12 41  1  6
 13 42  1  0
 14 43  1  0
 14 44  1  0
 15 45  1  0
 15 46  1  0
 16 47  1  0
 16 48  1  0
 17 49  1  0
 17 50  1  0
 18 51  1  0
 18 52  1  0
 20 53  1  0
 21 54  1  0
 23 55  1  0
 24 56  1  0
 27 57  1  0
M  END
>  <smiles>  (19) 
O=C(NCC(=O)N1CCCCC1C1CCCCC1)c1ccc2ccc(Cl)cc2n1

>  <score_type>  (19) 
oracle

>  <origin>  (19) 
autodockgpu

>  <m_score__min__energy>  (19) 
-9.5600000000000005

>  <m_primary>  (19) 
energy

>  <rmsd>  (19) 
5.911092786646496

>  <m_score__min__rmsd>  (19) 
5.911092786646496

>  <meeko>  (19) 
{"free_energy": -8.06, "intermolecular_energy": -9.55, "internal_energy": -2.21, "cluster_size": 7, "cluster_id": 3, "rank_in_cluster": 7}

>  <energy>  (19) 
-8.9

>  <cluster_rmsd>  (19) 
0.35

>  <cluster>  (19) 
2

$$$$

     RDKit          3D

 57 60  0  0  0  0  0  0  0  0999 V2000
  141.7310   72.3880  221.6900 O   0  0  0  0  0  0  0  0  0  0  0  0
  140.6840   72.5410  222.3740 C   0  0  0  0  0  0  0  0  0  0  0  0
  140.0040   73.7740  222.2440 N   0  0  0  0  0  0  0  0  0  0  0  0
  140.5650   74.7550  221.3370 C   0  0  0  0  0  0  0  0  0  0  0  0
  140.0380   76.0940  221.6980 C   0  0  0  0  0  0  0  0  0  0  0  0
  139.0960   76.1260  222.5320 O   0  0  0  0  0  0  0  0  0  0  0  0
  140.5830   77.2960  221.1160 N   0  0  0  0  0  0  0  0  0  0  0  0
  141.7990   77.1720  220.3460 C   0  0  0  0  0  0  0  0  0  0  0  0
  141.5460   77.7260  218.9650 C   0  0  0  0  0  0  0  0  0  0  0  0
  140.2050   78.3690  218.9030 C   0  0  0  0  0  0  0  0  0  0  0  0
  139.9510   79.3160  220.0620 C   0  0  0  0  0  0  0  0  0  0  0  0
  139.8780   78.5400  221.3330 C   0  0  2  0  0  0  0  0  0  0  0  0
  140.4220   79.2440  222.5260 C   0  0  0  0  0  0  0  0  0  0  0  0
  141.7670   78.6860  222.9870 C   0  0  0  0  0  0  0  0  0  0  0  0
  142.1340   79.5280  224.2170 C   0  0  0  0  0  0  0  0  0  0  0  0
  142.6000   80.8640  223.6970 C   0  0  0  0  0  0  0  0  0  0  0  0
  141.7650   81.3630  222.5390 C   0  0  0  0  0  0  0  0  0  0  0  0
  140.3920   80.7250  222.5210 C   0  0  0  0  0  0  0  0  0  0  0  0
  140.1900   71.4940  223.2660 C   0  0  0  0  0  0  0  0  0  0  0  0
  139.0300   70.8150  222.8920 C   0  0  0  0  0  0  0  0  0  0  0  0
  138.5400   69.8120  223.7280 C   0  0  0  0  0  0  0  0  0  0  0  0
  139.1970   69.4910  224.9190 C   0  0  0  0  0  0  0  0  0  0  0  0
  138.6800   68.4930  225.7190 C   0  0  0  0  0  0  0  0  0  0  0  0
  139.3510   68.1980  226.8910 C   0  0  0  0  0  0  0  0  0  0  0  0
  140.5030   68.8950  227.2320 C   0  0  0  0  0  0  0  0  0  0  0  0
  141.3570   68.5250  228.7150 Cl  0  0  0  0  0  0  0  0  0  0  0  0
  140.9940   69.8890  226.4080 C   0  0  0  0  0  0  0  0  0  0  0  0
  140.3380   70.1990  225.2340 C   0  0  0  0  0  0  0  0  0  0  0  0
  140.8010   71.1630  224.4200 N   0  0  0  0  0  0  0  0  0  0  0  0
  139.1310   73.9510  222.7900 H   0  0  0  0  0  0  0  0  0  0  0  0
  141.6617   74.7536  221.4227 H   0  0  0  0  0  0  0  0  0  0  0  0
  140.2867   74.5098  220.3014 H   0  0  0  0  0  0  0  0  0  0  0  0
  142.6062   77.7397  220.8320 H   0  0  0  0  0  0  0  0  0  0  0  0
  142.0994   76.1158  220.2807 H   0  0  0  0  0  0  0  0  0  0  0  0
  142.3177   78.4728  218.7268 H   0  0  0  0  0  0  0  0  0  0  0  0
  141.5812   76.9018  218.2373 H   0  0  0  0  0  0  0  0  0  0  0  0
  140.1305   78.9360  217.9634 H   0  0  0  0  0  0  0  0  0  0  0  0
  139.4519   77.5691  218.9585 H   0  0  0  0  0  0  0  0  0  0  0  0
  140.7713   80.0461  220.1251 H   0  0  0  0  0  0  0  0  0  0  0  0
  139.0000   79.8448  219.9009 H   0  0  0  0  0  0  0  0  0  0  0  0
  138.8153   78.3829  221.5697 H   0  0  0  0  0  0  0  0  0  0  0  0
  139.6702   78.9987  223.2906 H   0  0  0  0  0  0  0  0  0  0  0  0
  141.6748   77.6236  223.2570 H   0  0  0  0  0  0  0  0  0  0  0  0
  142.5335   78.7409  222.1999 H   0  0  0  0  0  0  0  0  0  0  0  0
  141.2545   79.6580  224.8648 H   0  0  0  0  0  0  0  0  0  0  0  0
  142.9169   79.0387  224.8151 H   0  0  0  0  0  0  0  0  0  0  0  0
  142.5437   81.5986  224.5138 H   0  0  0  0  0  0  0  0  0  0  0  0
  143.6306   80.7380  223.3336 H   0  0  0  0  0  0  0  0  0  0  0  0
  141.6500   82.4535  222.6266 H   0  0  0  0  0  0  0  0  0  0  0  0
  142.2798   81.0940  221.6048 H   0  0  0  0  0  0  0  0  0  0  0  0
  139.8402   81.0639  223.4102 H   0  0  0  0  0  0  0  0  0  0  0  0
  139.9074   81.0329  221.5827 H   0  0  0  0  0  0  0  0  0  0  0  0
  138.5114   71.0661  221.9550 H   0  0  0  0  0  0  0  0  0  0  0  0
  137.6264   69.2676  223.4469 H   0  0  0  0  0  0  0  0  0  0  0  0
  137.7660   67.9511  225.4343 H   0  0  0  0  0  0  0  0  0  0  0  0
  138.9712   67.4084  227.5560 H   0  0  0  0  0  0  0  0  0  0  0  0
  141.9080   70.4335  226.6876 H   0  0  0  0  0  0  0  0  0  0  0  0
  1  2  2  0
  2  3  1  0
  3  4  1  0
  4  5  1  0
  5  6  2  0
  5  7  1  0
  7  8  1  0
  8  9  1  0
  9 10  1  0
 10 11  1  0
 11 12  1  0
 12 13  1  0
 13 14  1  0
 14 15  1  0
 15 16  1  0
 16 17  1  0
 17 18  1  0
  2 19  1  0
 19 20  2  0
 20 21  1  0
 21 22  2  0
 22 23  1  0
 23 24  2  0
 24 25  1  0
 25 26  1  0
 25 27  2  0
 27 28  1  0
 28 29  2  0
 12  7  1  0
 18 13  1  0
 29 19  1  0
 28 22  1  0
  3 30  1  0
  4 31  1  0
  4 32  1  0
  8 33  1  0
  8 34  1  0
  9 35  1  0
  9 36  1  0
 10 37  1  0
 10 38  1  0
 11 39  1  0
 11 40  1  0
 12 41  1  1
 13 42  1  0
 14 43  1  0
 14 44  1  0
 15 45  1  0
 15 46  1  0
 16 47  1  0
 16 48  1  0
 17 49  1  0
 17 50  1  0
 18 51  1  0
 18 52  1  0
 20 53  1  0
 21 54  1  0
 23 55  1  0
 24 56  1  0
 27 57  1  0
M  END
>  <smiles>  (20) 
O=C(NCC(=O)N1CCCCC1C1CCCCC1)c1ccc2ccc(Cl)cc2n1

>  <score_type>  (20) 
oracle

>  <origin>  (20) 
autodockgpu

>  <m_score__min__energy>  (20) 
-9.5600000000000005

>  <m_primary>  (20) 
energy

>  <rmsd>  (20) 
2.7073513255872577

>  <m_score__min__rmsd>  (20) 
2.7073513255872577

>  <meeko>  (20) 
{"free_energy": -8.71, "intermolecular_energy": -10.2, "internal_energy": -1.89, "cluster_size": 24, "cluster_id": 2, "rank_in_cluster": 11}

>  <energy>  (20) 
-8.87

>  <cluster_rmsd>  (20) 
0.09

>  <cluster>  (20) 
2

$$$$

     RDKit          3D

 57 60  0  0  0  0  0  0  0  0999 V2000
  140.8910   74.0370  221.4890 O   0  0  0  0  0  0  0  0  0  0  0  0
  139.8000   74.4360  221.9800 C   0  0  0  0  0  0  0  0  0  0  0  0
  138.7890   73.4670  222.1740 N   0  0  0  0  0  0  0  0  0  0  0  0
  139.0890   72.1020  221.7930 C   0  0  0  0  0  0  0  0  0  0  0  0
  139.9150   71.4800  222.8560 C   0  0  0  0  0  0  0  0  0  0  0  0
  141.1610   71.6380  222.7690 O   0  0  0  0  0  0  0  0  0  0  0  0
  139.3140   70.7330  223.9340 N   0  0  0  0  0  0  0  0  0  0  0  0
  137.9560   71.0660  224.2990 C   0  0  0  0  0  0  0  0  0  0  0  0
  137.1170   69.8160  224.1990 C   0  0  0  0  0  0  0  0  0  0  0  0
  137.9790   68.6330  223.9320 C   0  0  0  0  0  0  0  0  0  0  0  0
  139.1820   68.5600  224.8560 C   0  0  0  0  0  0  0  0  0  0  0  0
  140.1000   69.6990  224.5690 C   0  0  2  0  0  0  0  0  0  0  0  0
  140.8090   70.2440  225.7600 C   0  0  0  0  0  0  0  0  0  0  0  0
  140.6450   71.7550  225.9130 C   0  0  0  0  0  0  0  0  0  0  0  0
  141.4530   72.1050  227.1690 C   0  0  0  0  0  0  0  0  0  0  0  0
  140.6250   71.6600  228.3480 C   0  0  0  0  0  0  0  0  0  0  0  0
  139.9470   70.3290  228.1140 C   0  0  0  0  0  0  0  0  0  0  0  0
  140.6480   69.5210  227.0430 C   0  0  0  0  0  0  0  0  0  0  0  0
  139.5850   75.8360  222.3350 C   0  0  0  0  0  0  0  0  0  0  0  0
  138.2710   76.3020  222.3780 C   0  0  0  0  0  0  0  0  0  0  0  0
  138.0420   77.6370  222.7140 C   0  0  0  0  0  0  0  0  0  0  0  0
  139.1070   78.4930  223.0040 C   0  0  0  0  0  0  0  0  0  0  0  0
  138.8390   79.8060  223.3320 C   0  0  0  0  0  0  0  0  0  0  0  0
  139.9130   80.6290  223.6140 C   0  0  0  0  0  0  0  0  0  0  0  0
  141.2090   80.1310  223.5620 C   0  0  0  0  0  0  0  0  0  0  0  0
  142.5730   81.1690  223.9190 Cl  0  0  0  0  0  0  0  0  0  0  0  0
  141.4420   78.8110  223.2310 C   0  0  0  0  0  0  0  0  0  0  0  0
  140.3840   77.9730  222.9450 C   0  0  0  0  0  0  0  0  0  0  0  0
  140.5920   76.6850  222.6200 N   0  0  0  0  0  0  0  0  0  0  0  0
  137.8670   73.7460  222.5770 H   0  0  0  0  0  0  0  0  0  0  0  0
  138.1527   71.5370  221.6741 H   0  0  0  0  0  0  0  0  0  0  0  0
  139.6373   72.0919  220.8395 H   0  0  0  0  0  0  0  0  0  0  0  0
  137.9314   71.4487  225.3300 H   0  0  0  0  0  0  0  0  0  0  0  0
  137.5622   71.8410  223.6250 H   0  0  0  0  0  0  0  0  0  0  0  0
  136.5773   69.6650  225.1455 H   0  0  0  0  0  0  0  0  0  0  0  0
  136.4024   69.9311  223.3707 H   0  0  0  0  0  0  0  0  0  0  0  0
  137.3770   67.7222  224.0664 H   0  0  0  0  0  0  0  0  0  0  0  0
  138.3571   68.7246  222.9031 H   0  0  0  0  0  0  0  0  0  0  0  0
  138.8449   68.6154  225.9016 H   0  0  0  0  0  0  0  0  0  0  0  0
  139.7132   67.6110  224.6914 H   0  0  0  0  0  0  0  0  0  0  0  0
  140.9044   69.3258  223.9181 H   0  0  0  0  0  0  0  0  0  0  0  0
  141.8597   70.0388  225.5072 H   0  0  0  0  0  0  0  0  0  0  0  0
  141.0463   72.2804  225.0338 H   0  0  0  0  0  0  0  0  0  0  0  0
  139.5899   72.0542  225.9981 H   0  0  0  0  0  0  0  0  0  0  0  0
  142.4173   71.5758  227.1603 H   0  0  0  0  0  0  0  0  0  0  0  0
  141.6668   73.1829  227.2171 H   0  0  0  0  0  0  0  0  0  0  0  0
  141.2816   71.5712  229.2260 H   0  0  0  0  0  0  0  0  0  0  0  0
  139.8374   72.4118  228.5043 H   0  0  0  0  0  0  0  0  0  0  0  0
  139.9532   69.7564  229.0532 H   0  0  0  0  0  0  0  0  0  0  0  0
  138.9184   70.5242  227.7764 H   0  0  0  0  0  0  0  0  0  0  0  0
  141.6463   69.2454  227.4138 H   0  0  0  0  0  0  0  0  0  0  0  0
  140.0180   68.6425  226.8396 H   0  0  0  0  0  0  0  0  0  0  0  0
  137.4306   75.6295  222.1512 H   0  0  0  0  0  0  0  0  0  0  0  0
  137.0113   78.0194  222.7509 H   0  0  0  0  0  0  0  0  0  0  0  0
  137.8068   80.1846  223.3678 H   0  0  0  0  0  0  0  0  0  0  0  0
  139.7410   81.6823  223.8806 H   0  0  0  0  0  0  0  0  0  0  0  0
  142.4722   78.4271  223.1953 H   0  0  0  0  0  0  0  0  0  0  0  0
  1  2  2  0
  2  3  1  0
  3  4  1  0
  4  5  1  0
  5  6  2  0
  5  7  1  0
  7  8  1  0
  8  9  1  0
  9 10  1  0
 10 11  1  0
 11 12  1  0
 12 13  1  0
 13 14  1  0
 14 15  1  0
 15 16  1  0
 16 17  1  0
 17 18  1  0
  2 19  1  0
 19 20  2  0
 20 21  1  0
 21 22  2  0
 22 23  1  0
 23 24  2  0
 24 25  1  0
 25 26  1  0
 25 27  2  0
 27 28  1  0
 28 29  2  0
 12  7  1  0
 18 13  1  0
 29 19  1  0
 28 22  1  0
  3 30  1  0
  4 31  1  0
  4 32  1  0
  8 33  1  0
  8 34  1  0
  9 35  1  0
  9 36  1  0
 10 37  1  0
 10 38  1  0
 11 39  1  0
 11 40  1  0
 12 41  1  6
 13 42  1  0
 14 43  1  0
 14 44  1  0
 15 45  1  0
 15 46  1  0
 16 47  1  0
 16 48  1  0
 17 49  1  0
 17 50  1  0
 18 51  1  0
 18 52  1  0
 20 53  1  0
 21 54  1  0
 23 55  1  0
 24 56  1  0
 27 57  1  0
M  END
>  <smiles>  (21) 
O=C(NCC(=O)N1CCCCC1C1CCCCC1)c1ccc2ccc(Cl)cc2n1

>  <score_type>  (21) 
oracle

>  <origin>  (21) 
autodockgpu

>  <m_score__min__energy>  (21) 
-9.5600000000000005

>  <m_primary>  (21) 
energy

>  <rmsd>  (21) 
8.160274324670016

>  <m_score__min__rmsd>  (21) 
8.160274324670016

>  <meeko>  (21) 
{"free_energy": -9.44, "intermolecular_energy": -10.93, "internal_energy": -1.5, "cluster_size": 17, "cluster_id": 1, "rank_in_cluster": 3}

>  <energy>  (21) 
-8.76

>  <cluster_rmsd>  (21) 
1.17

>  <cluster>  (21) 
2

$$$$

     RDKit          3D

 57 60  0  0  0  0  0  0  0  0999 V2000
  140.8180   74.7440  219.1130 O   0  0  0  0  0  0  0  0  0  0  0  0
  141.0470   74.6020  220.3440 C   0  0  0  0  0  0  0  0  0  0  0  0
  141.9870   75.4810  220.9300 N   0  0  0  0  0  0  0  0  0  0  0  0
  142.6070   76.4680  220.0680 C   0  0  0  0  0  0  0  0  0  0  0  0
  141.6820   77.6180  219.9180 C   0  0  0  0  0  0  0  0  0  0  0  0
  141.8860   78.3850  218.9410 O   0  0  0  0  0  0  0  0  0  0  0  0
  140.6050   77.8420  220.8510 N   0  0  0  0  0  0  0  0  0  0  0  0
  139.3880   78.4270  220.3370 C   0  0  0  0  0  0  0  0  0  0  0  0
  138.2420   77.5010  220.6610 C   0  0  0  0  0  0  0  0  0  0  0  0
  138.7030   76.3940  221.5430 C   0  0  0  0  0  0  0  0  0  0  0  0
  139.5240   76.8830  222.7220 C   0  0  0  0  0  0  0  0  0  0  0  0
  140.8070   77.4600  222.2320 C   0  0  2  0  0  0  0  0  0  0  0  0
  141.3130   78.6160  223.0210 C   0  0  0  0  0  0  0  0  0  0  0  0
  142.5010   79.3150  222.3630 C   0  0  0  0  0  0  0  0  0  0  0  0
  142.8700   80.4460  223.3310 C   0  0  0  0  0  0  0  0  0  0  0  0
  141.8320   81.5230  223.1460 C   0  0  0  0  0  0  0  0  0  0  0  0
  140.4370   80.9660  222.9770 C   0  0  0  0  0  0  0  0  0  0  0  0
  140.3150   79.5710  223.5540 C   0  0  0  0  0  0  0  0  0  0  0  0
  140.3740   73.5760  221.1370 C   0  0  0  0  0  0  0  0  0  0  0  0
  139.2280   72.9870  220.6000 C   0  0  0  0  0  0  0  0  0  0  0  0
  138.5690   72.0050  221.3390 C   0  0  0  0  0  0  0  0  0  0  0  0
  139.0450   71.6160  222.5950 C   0  0  0  0  0  0  0  0  0  0  0  0
  138.3630   70.6420  223.2950 C   0  0  0  0  0  0  0  0  0  0  0  0
  138.8570   70.2790  224.5330 C   0  0  0  0  0  0  0  0  0  0  0  0
  140.0010   70.8860  225.0370 C   0  0  0  0  0  0  0  0  0  0  0  0
  140.6310   70.4290  226.6050 Cl  0  0  0  0  0  0  0  0  0  0  0  0
  140.6590   71.8590  224.3090 C   0  0  0  0  0  0  0  0  0  0  0  0
  140.1810   72.2360  223.0710 C   0  0  0  0  0  0  0  0  0  0  0  0
  140.8080   73.1810  222.3490 N   0  0  0  0  0  0  0  0  0  0  0  0
  142.2120   75.4050  221.9470 H   0  0  0  0  0  0  0  0  0  0  0  0
  143.5519   76.8092  220.5161 H   0  0  0  0  0  0  0  0  0  0  0  0
  142.8172   76.0256  219.0830 H   0  0  0  0  0  0  0  0  0  0  0  0
  139.2188   79.4067  220.8078 H   0  0  0  0  0  0  0  0  0  0  0  0
  139.4656   78.5667  219.2487 H   0  0  0  0  0  0  0  0  0  0  0  0
  137.4516   78.0683  221.1743 H   0  0  0  0  0  0  0  0  0  0  0  0
  137.8532   77.0733  219.7251 H   0  0  0  0  0  0  0  0  0  0  0  0
  137.8211   75.8599  221.9265 H   0  0  0  0  0  0  0  0  0  0  0  0
  139.3480   75.7377  220.9403 H   0  0  0  0  0  0  0  0  0  0  0  0
  138.9597   77.6546  223.2662 H   0  0  0  0  0  0  0  0  0  0  0  0
  139.7362   76.0390  223.3948 H   0  0  0  0  0  0  0  0  0  0  0  0
  141.5851   76.6906  222.3442 H   0  0  0  0  0  0  0  0  0  0  0  0
  141.6723   78.1204  223.9349 H   0  0  0  0  0  0  0  0  0  0  0  0
  143.3431   78.6178  222.2416 H   0  0  0  0  0  0  0  0  0  0  0  0
  142.2597   79.6893  221.3572 H   0  0  0  0  0  0  0  0  0  0  0  0
  142.8559   80.0786  224.3677 H   0  0  0  0  0  0  0  0  0  0  0  0
  143.8811   80.8289  223.1286 H   0  0  0  0  0  0  0  0  0  0  0  0
  141.8444   82.1790  224.0289 H   0  0  0  0  0  0  0  0  0  0  0  0
  142.0838   82.0727  222.2271 H   0  0  0  0  0  0  0  0  0  0  0  0
  139.7246   81.6277  223.4914 H   0  0  0  0  0  0  0  0  0  0  0  0
  140.2187   80.9111  221.9003 H   0  0  0  0  0  0  0  0  0  0  0  0
  140.4430   79.6341  224.6447 H   0  0  0  0  0  0  0  0  0  0  0  0
  139.3229   79.1912  223.2686 H   0  0  0  0  0  0  0  0  0  0  0  0
  138.8517   73.2918  219.6123 H   0  0  0  0  0  0  0  0  0  0  0  0
  137.6647   71.5312  220.9294 H   0  0  0  0  0  0  0  0  0  0  0  0
  137.4585   70.1715  222.8821 H   0  0  0  0  0  0  0  0  0  0  0  0
  138.3424   69.5059  225.1226 H   0  0  0  0  0  0  0  0  0  0  0  0
  141.5640   72.3330  224.7167 H   0  0  0  0  0  0  0  0  0  0  0  0
  1  2  2  0
  2  3  1  0
  3  4  1  0
  4  5  1  0
  5  6  2  0
  5  7  1  0
  7  8  1  0
  8  9  1  0
  9 10  1  0
 10 11  1  0
 11 12  1  0
 12 13  1  0
 13 14  1  0
 14 15  1  0
 15 16  1  0
 16 17  1  0
 17 18  1  0
  2 19  1  0
 19 20  2  0
 20 21  1  0
 21 22  2  0
 22 23  1  0
 23 24  2  0
 24 25  1  0
 25 26  1  0
 25 27  2  0
 27 28  1  0
 28 29  2  0
 12  7  1  0
 18 13  1  0
 29 19  1  0
 28 22  1  0
  3 30  1  0
  4 31  1  0
  4 32  1  0
  8 33  1  0
  8 34  1  0
  9 35  1  0
  9 36  1  0
 10 37  1  0
 10 38  1  0
 11 39  1  0
 11 40  1  0
 12 41  1  6
 13 42  1  0
 14 43  1  0
 14 44  1  0
 15 45  1  0
 15 46  1  0
 16 47  1  0
 16 48  1  0
 17 49  1  0
 17 50  1  0
 18 51  1  0
 18 52  1  0
 20 53  1  0
 21 54  1  0
 23 55  1  0
 24 56  1  0
 27 57  1  0
M  END
>  <smiles>  (22) 
O=C(NCC(=O)N1CCCCC1C1CCCCC1)c1ccc2ccc(Cl)cc2n1

>  <score_type>  (22) 
oracle

>  <origin>  (22) 
autodockgpu

>  <m_score__min__energy>  (22) 
-9.5600000000000005

>  <m_primary>  (22) 
energy

>  <rmsd>  (22) 
4.3804244965700585

>  <m_score__min__rmsd>  (22) 
4.3804244965700585

>  <meeko>  (22) 
{"free_energy": -7.68, "intermolecular_energy": -9.17, "internal_energy": -2.12, "cluster_size": 1, "cluster_id": 4, "rank_in_cluster": 1}

>  <energy>  (22) 
-8.75

>  <cluster_rmsd>  (22) 
1.16

>  <cluster>  (22) 
2

$$$$

     RDKit          3D

 57 60  0  0  0  0  0  0  0  0999 V2000
  141.1790   73.6160  221.7490 O   0  0  0  0  0  0  0  0  0  0  0  0
  140.0980   73.3530  222.3410 C   0  0  0  0  0  0  0  0  0  0  0  0
  139.1040   74.3590  222.3460 N   0  0  0  0  0  0  0  0  0  0  0  0
  139.4110   75.6040  221.6720 C   0  0  0  0  0  0  0  0  0  0  0  0
  138.4470   76.6390  222.1210 C   0  0  0  0  0  0  0  0  0  0  0  0
  137.4760   76.2440  222.8170 O   0  0  0  0  0  0  0  0  0  0  0  0
  138.6220   78.0280  221.7740 N   0  0  0  0  0  0  0  0  0  0  0  0
  138.9160   78.3380  220.3940 C   0  0  0  0  0  0  0  0  0  0  0  0
  137.8700   79.3010  219.8890 C   0  0  0  0  0  0  0  0  0  0  0  0
  136.9940   79.7470  221.0070 C   0  0  0  0  0  0  0  0  0  0  0  0
  137.7790   80.1890  222.2300 C   0  0  0  0  0  0  0  0  0  0  0  0
  138.4830   79.0170  222.8210 C   0  0  2  0  0  0  0  0  0  0  0  0
  139.8100   79.3240  223.4230 C   0  0  0  0  0  0  0  0  0  0  0  0
  140.9290   78.4310  222.8900 C   0  0  0  0  0  0  0  0  0  0  0  0
  142.1840   78.8970  223.6390 C   0  0  0  0  0  0  0  0  0  0  0  0
  142.6020   80.1990  223.0060 C   0  0  0  0  0  0  0  0  0  0  0  0
  141.4270   81.0910  222.6760 C   0  0  0  0  0  0  0  0  0  0  0  0
  140.2090   80.7480  223.5090 C   0  0  0  0  0  0  0  0  0  0  0  0
  139.8760   72.0660  222.9960 C   0  0  0  0  0  0  0  0  0  0  0  0
  139.1880   71.0830  222.2840 C   0  0  0  0  0  0  0  0  0  0  0  0
  138.9640   69.8470  222.8890 C   0  0  0  0  0  0  0  0  0  0  0  0
  139.4200   69.5940  224.1860 C   0  0  0  0  0  0  0  0  0  0  0  0
  139.1770   68.3590  224.7500 C   0  0  0  0  0  0  0  0  0  0  0  0
  139.6390   68.1390  226.0340 C   0  0  0  0  0  0  0  0  0  0  0  0
  140.3210   69.1400  226.7140 C   0  0  0  0  0  0  0  0  0  0  0  0
  140.9090   68.8660  228.3400 Cl  0  0  0  0  0  0  0  0  0  0  0  0
  140.5470   70.3660  226.1200 C   0  0  0  0  0  0  0  0  0  0  0  0
  140.0920   70.6060  224.8390 C   0  0  0  0  0  0  0  0  0  0  0  0
  140.3030   71.7940  224.2440 N   0  0  0  0  0  0  0  0  0  0  0  0
  138.1910   74.1900  222.8230 H   0  0  0  0  0  0  0  0  0  0  0  0
  140.4348   75.9181  221.9232 H   0  0  0  0  0  0  0  0  0  0  0  0
  139.3353   75.4689  220.5830 H   0  0  0  0  0  0  0  0  0  0  0  0
  139.9119   78.7993  220.3209 H   0  0  0  0  0  0  0  0  0  0  0  0
  138.9066   77.4188  219.7898 H   0  0  0  0  0  0  0  0  0  0  0  0
  138.3669   80.1767  219.4461 H   0  0  0  0  0  0  0  0  0  0  0  0
  137.2533   78.7941  219.1322 H   0  0  0  0  0  0  0  0  0  0  0  0
  136.3818   80.5917  220.6582 H   0  0  0  0  0  0  0  0  0  0  0  0
  136.3737   78.8886  221.3042 H   0  0  0  0  0  0  0  0  0  0  0  0
  138.5172   80.9497  221.9361 H   0  0  0  0  0  0  0  0  0  0  0  0
  137.0889   80.6142  222.9736 H   0  0  0  0  0  0  0  0  0  0  0  0
  137.8774   78.6527  223.6639 H   0  0  0  0  0  0  0  0  0  0  0  0
  139.6418   79.0649  224.4787 H   0  0  0  0  0  0  0  0  0  0  0  0
  140.7181   77.3732  223.1058 H   0  0  0  0  0  0  0  0  0  0  0  0
  141.0411   78.5084  221.7985 H   0  0  0  0  0  0  0  0  0  0  0  0
  141.9563   79.0484  224.7045 H   0  0  0  0  0  0  0  0  0  0  0  0
  142.9868   78.1477  223.5743 H   0  0  0  0  0  0  0  0  0  0  0  0
  143.2641   80.7329  223.7036 H   0  0  0  0  0  0  0  0  0  0  0  0
  143.1134   79.9603  222.0618 H   0  0  0  0  0  0  0  0  0  0  0  0
  141.7082   82.1366  222.8701 H   0  0  0  0  0  0  0  0  0  0  0  0
  141.1704   80.9407  221.6170 H   0  0  0  0  0  0  0  0  0  0  0  0
  140.4299   80.9838  224.5605 H   0  0  0  0  0  0  0  0  0  0  0  0
  139.3714   81.3408  223.1127 H   0  0  0  0  0  0  0  0  0  0  0  0
  138.8286   71.2797  221.2632 H   0  0  0  0  0  0  0  0  0  0  0  0
  138.4227   69.0625  222.3399 H   0  0  0  0  0  0  0  0  0  0  0  0
  138.6350   67.5772  224.1978 H   0  0  0  0  0  0  0  0  0  0  0  0
  139.4659   67.1672  226.5194 H   0  0  0  0  0  0  0  0  0  0  0  0
  141.0894   71.1510  226.6674 H   0  0  0  0  0  0  0  0  0  0  0  0
  1  2  2  0
  2  3  1  0
  3  4  1  0
  4  5  1  0
  5  6  2  0
  5  7  1  0
  7  8  1  0
  8  9  1  0
  9 10  1  0
 10 11  1  0
 11 12  1  0
 12 13  1  0
 13 14  1  0
 14 15  1  0
 15 16  1  0
 16 17  1  0
 17 18  1  0
  2 19  1  0
 19 20  2  0
 20 21  1  0
 21 22  2  0
 22 23  1  0
 23 24  2  0
 24 25  1  0
 25 26  1  0
 25 27  2  0
 27 28  1  0
 28 29  2  0
 12  7  1  0
 18 13  1  0
 29 19  1  0
 28 22  1  0
  3 30  1  0
  4 31  1  0
  4 32  1  0
  8 33  1  0
  8 34  1  0
  9 35  1  0
  9 36  1  0
 10 37  1  0
 10 38  1  0
 11 39  1  0
 11 40  1  0
 12 41  1  1
 13 42  1  0
 14 43  1  0
 14 44  1  0
 15 45  1  0
 15 46  1  0
 16 47  1  0
 16 48  1  0
 17 49  1  0
 17 50  1  0
 18 51  1  0
 18 52  1  0
 20 53  1  0
 21 54  1  0
 23 55  1  0
 24 56  1  0
 27 57  1  0
M  END
>  <smiles>  (23) 
O=C(NCC(=O)N1CCCCC1C1CCCCC1)c1ccc2ccc(Cl)cc2n1

>  <score_type>  (23) 
oracle

>  <origin>  (23) 
autodockgpu

>  <m_score__min__energy>  (23) 
-9.5600000000000005

>  <m_primary>  (23) 
energy

>  <rmsd>  (23) 
3.585520616351522

>  <m_score__min__rmsd>  (23) 
3.585520616351522

>  <meeko>  (23) 
{"free_energy": -8.43, "intermolecular_energy": -9.92, "internal_energy": -2.0, "cluster_size": 24, "cluster_id": 2, "rank_in_cluster": 20}

>  <energy>  (23) 
-8.74

>  <cluster_rmsd>  (23) 
0.52

>  <cluster>  (23) 
2

$$$$

     RDKit          3D

 57 60  0  0  0  0  0  0  0  0999 V2000
  140.7210   73.6180  220.4400 O   0  0  0  0  0  0  0  0  0  0  0  0
  140.3470   73.9090  221.6080 C   0  0  0  0  0  0  0  0  0  0  0  0
  140.2940   72.8550  222.5480 N   0  0  0  0  0  0  0  0  0  0  0  0
  140.6730   71.5330  222.0930 C   0  0  0  0  0  0  0  0  0  0  0  0
  139.5310   70.6100  222.3040 C   0  0  0  0  0  0  0  0  0  0  0  0
  139.1820   69.9070  221.3200 O   0  0  0  0  0  0  0  0  0  0  0  0
  138.8580   70.5270  223.5780 N   0  0  0  0  0  0  0  0  0  0  0  0
  137.8070   71.4830  223.8390 C   0  0  0  0  0  0  0  0  0  0  0  0
  136.5450   70.7240  224.1680 C   0  0  0  0  0  0  0  0  0  0  0  0
  136.8330   69.2680  224.2880 C   0  0  0  0  0  0  0  0  0  0  0  0
  138.0390   68.9760  225.1620 C   0  0  0  0  0  0  0  0  0  0  0  0
  139.2710   69.4940  224.5020 C   0  0  2  0  0  0  0  0  0  0  0  0
  140.3060   70.0170  225.4360 C   0  0  0  0  0  0  0  0  0  0  0  0
  140.3110   71.5410  225.5290 C   0  0  0  0  0  0  0  0  0  0  0  0
  141.4430   71.8640  226.5140 C   0  0  0  0  0  0  0  0  0  0  0  0
  140.9160   71.5470  227.8900 C   0  0  0  0  0  0  0  0  0  0  0  0
  140.0940   70.2790  227.9220 C   0  0  0  0  0  0  0  0  0  0  0  0
  140.4250   69.3650  226.7610 C   0  0  0  0  0  0  0  0  0  0  0  0
  139.9810   75.2740  221.9780 C   0  0  0  0  0  0  0  0  0  0  0  0
  138.6260   75.6080  221.9790 C   0  0  0  0  0  0  0  0  0  0  0  0
  138.2530   76.9060  222.3290 C   0  0  0  0  0  0  0  0  0  0  0  0
  139.2180   77.8560  222.6750 C   0  0  0  0  0  0  0  0  0  0  0  0
  138.8090   79.1290  223.0140 C   0  0  0  0  0  0  0  0  0  0  0  0
  139.7850   80.0480  223.3510 C   0  0  0  0  0  0  0  0  0  0  0  0
  141.1250   79.6810  223.3400 C   0  0  0  0  0  0  0  0  0  0  0  0
  142.3650   80.8410  223.7670 Cl  0  0  0  0  0  0  0  0  0  0  0  0
  141.5000   78.3970  222.9950 C   0  0  0  0  0  0  0  0  0  0  0  0
  140.5410   77.4660  222.6550 C   0  0  0  0  0  0  0  0  0  0  0  0
  140.8870   76.2120  222.3160 N   0  0  0  0  0  0  0  0  0  0  0  0
  139.9890   73.0440  223.5300 H   0  0  0  0  0  0  0  0  0  0  0  0
  140.9269   71.5687  221.0233 H   0  0  0  0  0  0  0  0  0  0  0  0
  141.5486   71.1799  222.6575 H   0  0  0  0  0  0  0  0  0  0  0  0
  138.0886   72.1221  224.6888 H   0  0  0  0  0  0  0  0  0  0  0  0
  137.6466   72.1193  222.9562 H   0  0  0  0  0  0  0  0  0  0  0  0
  136.1378   71.0929  225.1209 H   0  0  0  0  0  0  0  0  0  0  0  0
  135.8142   70.8784  223.3605 H   0  0  0  0  0  0  0  0  0  0  0  0
  135.9542   68.7709  224.7246 H   0  0  0  0  0  0  0  0  0  0  0  0
  137.0566   68.8908  223.2792 H   0  0  0  0  0  0  0  0  0  0  0  0
  137.9119   69.4677  226.1377 H   0  0  0  0  0  0  0  0  0  0  0  0
  138.1311   67.8895  225.3069 H   0  0  0  0  0  0  0  0  0  0  0  0
  139.7613   68.6498  223.9951 H   0  0  0  0  0  0  0  0  0  0  0  0
  141.2350   69.7028  224.9377 H   0  0  0  0  0  0  0  0  0  0  0  0
  140.5124   71.9896  224.5450 H   0  0  0  0  0  0  0  0  0  0  0  0
  139.3419   71.9423  225.8604 H   0  0  0  0  0  0  0  0  0  0  0  0
  142.3262   71.2464  226.2937 H   0  0  0  0  0  0  0  0  0  0  0  0
  141.7480   72.9181  226.4378 H   0  0  0  0  0  0  0  0  0  0  0  0
  141.7686   71.4310  228.5753 H   0  0  0  0  0  0  0  0  0  0  0  0
  140.2599   72.3760  228.1936 H   0  0  0  0  0  0  0  0  0  0  0  0
  140.2967   69.7469  228.8631 H   0  0  0  0  0  0  0  0  0  0  0  0
  139.0326   70.5575  227.8461 H   0  0  0  0  0  0  0  0  0  0  0  0
  141.4594   69.0109  226.8820 H   0  0  0  0  0  0  0  0  0  0  0  0
  139.6944   68.5429  226.7811 H   0  0  0  0  0  0  0  0  0  0  0  0
  137.8653   74.8609  221.7086 H   0  0  0  0  0  0  0  0  0  0  0  0
  137.1888   77.1845  222.3327 H   0  0  0  0  0  0  0  0  0  0  0  0
  137.7437   79.4032  223.0161 H   0  0  0  0  0  0  0  0  0  0  0  0
  139.4998   81.0734  223.6288 H   0  0  0  0  0  0  0  0  0  0  0  0
  142.5638   78.1171  222.9915 H   0  0  0  0  0  0  0  0  0  0  0  0
  1  2  2  0
  2  3  1  0
  3  4  1  0
  4  5  1  0
  5  6  2  0
  5  7  1  0
  7  8  1  0
  8  9  1  0
  9 10  1  0
 10 11  1  0
 11 12  1  0
 12 13  1  0
 13 14  1  0
 14 15  1  0
 15 16  1  0
 16 17  1  0
 17 18  1  0
  2 19  1  0
 19 20  2  0
 20 21  1  0
 21 22  2  0
 22 23  1  0
 23 24  2  0
 24 25  1  0
 25 26  1  0
 25 27  2  0
 27 28  1  0
 28 29  2  0
 12  7  1  0
 18 13  1  0
 29 19  1  0
 28 22  1  0
  3 30  1  0
  4 31  1  0
  4 32  1  0
  8 33  1  0
  8 34  1  0
  9 35  1  0
  9 36  1  0
 10 37  1  0
 10 38  1  0
 11 39  1  0
 11 40  1  0
 12 41  1  6
 13 42  1  0
 14 43  1  0
 14 44  1  0
 15 45  1  0
 15 46  1  0
 16 47  1  0
 16 48  1  0
 17 49  1  0
 17 50  1  0
 18 51  1  0
 18 52  1  0
 20 53  1  0
 21 54  1  0
 23 55  1  0
 24 56  1  0
 27 57  1  0
M  END
>  <smiles>  (24) 
O=C(NCC(=O)N1CCCCC1C1CCCCC1)c1ccc2ccc(Cl)cc2n1

>  <score_type>  (24) 
oracle

>  <origin>  (24) 
autodockgpu

>  <m_score__min__energy>  (24) 
-9.5600000000000005

>  <m_primary>  (24) 
energy

>  <rmsd>  (24) 
8.001333958462675

>  <m_score__min__rmsd>  (24) 
8.001333958462675

>  <meeko>  (24) 
{"free_energy": -8.94, "intermolecular_energy": -10.43, "internal_energy": -1.6, "cluster_size": 17, "cluster_id": 1, "rank_in_cluster": 6}

>  <energy>  (24) 
-8.74

>  <cluster_rmsd>  (24) 
1.15

>  <cluster>  (24) 
2

$$$$

     RDKit          3D

 57 60  0  0  0  0  0  0  0  0999 V2000
  141.0430   73.7580  221.8650 O   0  0  0  0  0  0  0  0  0  0  0  0
  139.9430   73.3800  222.3480 C   0  0  0  0  0  0  0  0  0  0  0  0
  138.8780   74.3100  222.3310 N   0  0  0  0  0  0  0  0  0  0  0  0
  139.1400   75.6160  221.7610 C   0  0  0  0  0  0  0  0  0  0  0  0
  138.0970   76.5600  222.2310 C   0  0  0  0  0  0  0  0  0  0  0  0
  137.0740   76.0540  222.7630 O   0  0  0  0  0  0  0  0  0  0  0  0
  138.2530   77.9860  222.0810 N   0  0  0  0  0  0  0  0  0  0  0  0
  137.6300   78.6080  220.9370 C   0  0  0  0  0  0  0  0  0  0  0  0
  136.7060   79.6940  221.4300 C   0  0  0  0  0  0  0  0  0  0  0  0
  136.8680   79.8850  222.8970 C   0  0  0  0  0  0  0  0  0  0  0  0
  138.3210   79.9980  223.3200 C   0  0  0  0  0  0  0  0  0  0  0  0
  139.0120   78.6990  223.0860 C   0  0  2  0  0  0  0  0  0  0  0  0
  140.4370   78.8140  222.6750 C   0  0  0  0  0  0  0  0  0  0  0  0
  140.6960   79.9950  221.7400 C   0  0  0  0  0  0  0  0  0  0  0  0
  142.1970   79.9220  221.4310 C   0  0  0  0  0  0  0  0  0  0  0  0
  142.9110   80.4310  222.6570 C   0  0  0  0  0  0  0  0  0  0  0  0
  142.2810   79.9470  223.9430 C   0  0  0  0  0  0  0  0  0  0  0  0
  141.4680   78.6880  223.7310 C   0  0  0  0  0  0  0  0  0  0  0  0
  139.7680   72.0400  222.9050 C   0  0  0  0  0  0  0  0  0  0  0  0
  139.1730   71.0720  222.0960 C   0  0  0  0  0  0  0  0  0  0  0  0
  138.9960   69.7850  222.6060 C   0  0  0  0  0  0  0  0  0  0  0  0
  139.4080   69.4700  223.9040 C   0  0  0  0  0  0  0  0  0  0  0  0
  139.2140   68.1870  224.3720 C   0  0  0  0  0  0  0  0  0  0  0  0
  139.6320   67.9040  225.6590 C   0  0  0  0  0  0  0  0  0  0  0  0
  140.2220   68.8920  226.4370 C   0  0  0  0  0  0  0  0  0  0  0  0
  140.7520   68.5400  228.0670 Cl  0  0  0  0  0  0  0  0  0  0  0  0
  140.4000   70.1680  225.9370 C   0  0  0  0  0  0  0  0  0  0  0  0
  139.9900   70.4700  224.6550 C   0  0  0  0  0  0  0  0  0  0  0  0
  140.1550   71.7060  224.1510 N   0  0  0  0  0  0  0  0  0  0  0  0
  137.9450   74.0460  222.7210 H   0  0  0  0  0  0  0  0  0  0  0  0
  140.1306   75.9686  222.0841 H   0  0  0  0  0  0  0  0  0  0  0  0
  139.1219   75.5552  220.6628 H   0  0  0  0  0  0  0  0  0  0  0  0
  138.4014   79.0441  220.2852 H   0  0  0  0  0  0  0  0  0  0  0  0
  137.0626   77.8608  220.3627 H   0  0  0  0  0  0  0  0  0  0  0  0
  136.9444   80.6353  220.9132 H   0  0  0  0  0  0  0  0  0  0  0  0
  135.6666   79.4012  221.2204 H   0  0  0  0  0  0  0  0  0  0  0  0
  136.3440   80.8063  223.1912 H   0  0  0  0  0  0  0  0  0  0  0  0
  136.4470   78.9987  223.3942 H   0  0  0  0  0  0  0  0  0  0  0  0
  138.8135   80.7859  222.7313 H   0  0  0  0  0  0  0  0  0  0  0  0
  138.3716   80.2513  224.3892 H   0  0  0  0  0  0  0  0  0  0  0  0
  139.0477   78.1610  224.0448 H   0  0  0  0  0  0  0  0  0  0  0  0
  140.5775   77.8861  222.1011 H   0  0  0  0  0  0  0  0  0  0  0  0
  140.1045   79.8972  220.8178 H   0  0  0  0  0  0  0  0  0  0  0  0
  140.4095   80.9559  222.1924 H   0  0  0  0  0  0  0  0  0  0  0  0
  142.4922   78.8829  221.2232 H   0  0  0  0  0  0  0  0  0  0  0  0
  142.4506   80.5222  220.5448 H   0  0  0  0  0  0  0  0  0  0  0  0
  143.9549   80.0856  222.6249 H   0  0  0  0  0  0  0  0  0  0  0  0
  142.8449   81.5290  222.6477 H   0  0  0  0  0  0  0  0  0  0  0  0
  143.0770   79.7383  224.6730 H   0  0  0  0  0  0  0  0  0  0  0  0
  141.6048   80.7332  224.3098 H   0  0  0  0  0  0  0  0  0  0  0  0
  142.1540   77.8750  223.4509 H   0  0  0  0  0  0  0  0  0  0  0  0
  140.9386   78.4855  224.6737 H   0  0  0  0  0  0  0  0  0  0  0  0
  138.8490   71.3186  221.0741 H   0  0  0  0  0  0  0  0  0  0  0  0
  138.5277   69.0109  221.9803 H   0  0  0  0  0  0  0  0  0  0  0  0
  138.7435   67.4165  223.7435 H   0  0  0  0  0  0  0  0  0  0  0  0
  139.4968   66.8921  226.0687 H   0  0  0  0  0  0  0  0  0  0  0  0
  140.8687   70.9429  226.5614 H   0  0  0  0  0  0  0  0  0  0  0  0
  1  2  2  0
  2  3  1  0
  3  4  1  0
  4  5  1  0
  5  6  2  0
  5  7  1  0
  7  8  1  0
  8  9  1  0
  9 10  1  0
 10 11  1  0
 11 12  1  0
 12 13  1  0
 13 14  1  0
 14 15  1  0
 15 16  1  0
 16 17  1  0
 17 18  1  0
  2 19  1  0
 19 20  2  0
 20 21  1  0
 21 22  2  0
 22 23  1  0
 23 24  2  0
 24 25  1  0
 25 26  1  0
 25 27  2  0
 27 28  1  0
 28 29  2  0
 12  7  1  0
 18 13  1  0
 29 19  1  0
 28 22  1  0
  3 30  1  0
  4 31  1  0
  4 32  1  0
  8 33  1  0
  8 34  1  0
  9 35  1  0
  9 36  1  0
 10 37  1  0
 10 38  1  0
 11 39  1  0
 11 40  1  0
 12 41  1  1
 13 42  1  0
 14 43  1  0
 14 44  1  0
 15 45  1  0
 15 46  1  0
 16 47  1  0
 16 48  1  0
 17 49  1  0
 17 50  1  0
 18 51  1  0
 18 52  1  0
 20 53  1  0
 21 54  1  0
 23 55  1  0
 24 56  1  0
 27 57  1  0
M  END
>  <smiles>  (25) 
O=C(NCC(=O)N1CCCCC1C1CCCCC1)c1ccc2ccc(Cl)cc2n1

>  <score_type>  (25) 
oracle

>  <origin>  (25) 
autodockgpu

>  <m_score__min__energy>  (25) 
-9.5600000000000005

>  <m_primary>  (25) 
energy

>  <rmsd>  (25) 
3.922210667461218

>  <m_score__min__rmsd>  (25) 
3.922210667461218

>  <meeko>  (25) 
{"free_energy": -8.47, "intermolecular_energy": -9.96, "internal_energy": -1.96, "cluster_size": 24, "cluster_id": 2, "rank_in_cluster": 18}

>  <energy>  (25) 
-8.74

>  <cluster_rmsd>  (25) 
1.14

>  <cluster>  (25) 
2

$$$$

     RDKit          3D

 57 60  0  0  0  0  0  0  0  0999 V2000
  141.4970   73.1080  221.6620 O   0  0  0  0  0  0  0  0  0  0  0  0
  140.4190   73.0270  222.3100 C   0  0  0  0  0  0  0  0  0  0  0  0
  139.6050   74.1820  222.3550 N   0  0  0  0  0  0  0  0  0  0  0  0
  140.0760   75.3600  221.6550 C   0  0  0  0  0  0  0  0  0  0  0  0
  139.2590   76.5240  222.0750 C   0  0  0  0  0  0  0  0  0  0  0  0
  138.0610   76.2910  222.3870 O   0  0  0  0  0  0  0  0  0  0  0  0
  139.8140   77.8540  222.1200 N   0  0  0  0  0  0  0  0  0  0  0  0
  138.9990   78.8980  222.6950 C   0  0  0  0  0  0  0  0  0  0  0  0
  139.7710   79.5380  223.8230 C   0  0  0  0  0  0  0  0  0  0  0  0
  141.1630   79.0130  223.8600 C   0  0  0  0  0  0  0  0  0  0  0  0
  141.8330   79.0240  222.4980 C   0  0  0  0  0  0  0  0  0  0  0  0
  141.1480   78.0550  221.5970 C   0  0  2  0  0  0  0  0  0  0  0  0
  141.0890   78.4660  220.1680 C   0  0  0  0  0  0  0  0  0  0  0  0
  141.7790   79.8020  219.9010 C   0  0  0  0  0  0  0  0  0  0  0  0
  141.5900   80.0410  218.3970 C   0  0  0  0  0  0  0  0  0  0  0  0
  142.5630   79.1300  217.6930 C   0  0  0  0  0  0  0  0  0  0  0  0
  142.6510   77.7640  218.3350 C   0  0  0  0  0  0  0  0  0  0  0  0
  141.4140   77.4430  219.1470 C   0  0  0  0  0  0  0  0  0  0  0  0
  140.0220   71.7950  222.9880 C   0  0  0  0  0  0  0  0  0  0  0  0
  139.1790   70.9180  222.3050 C   0  0  0  0  0  0  0  0  0  0  0  0
  138.7870   69.7360  222.9330 C   0  0  0  0  0  0  0  0  0  0  0  0
  139.2300   69.4320  224.2230 C   0  0  0  0  0  0  0  0  0  0  0  0
  138.8190   68.2530  224.8100 C   0  0  0  0  0  0  0  0  0  0  0  0
  139.2730   67.9800  226.0860 C   0  0  0  0  0  0  0  0  0  0  0  0
  140.1120   68.8750  226.7370 C   0  0  0  0  0  0  0  0  0  0  0  0
  140.6900   68.5340  228.3540 Cl  0  0  0  0  0  0  0  0  0  0  0  0
  140.5040   70.0480  226.1210 C   0  0  0  0  0  0  0  0  0  0  0  0
  140.0610   70.3390  224.8470 C   0  0  0  0  0  0  0  0  0  0  0  0
  140.4320   71.4750  224.2310 N   0  0  0  0  0  0  0  0  0  0  0  0
  138.7010   74.1660  222.8790 H   0  0  0  0  0  0  0  0  0  0  0  0
  141.1321   75.5405  221.9040 H   0  0  0  0  0  0  0  0  0  0  0  0
  139.9840   75.2112  220.5690 H   0  0  0  0  0  0  0  0  0  0  0  0
  138.7666   79.6524  221.9289 H   0  0  0  0  0  0  0  0  0  0  0  0
  138.0562   78.4763  223.0737 H   0  0  0  0  0  0  0  0  0  0  0  0
  139.7980   80.6272  223.6719 H   0  0  0  0  0  0  0  0  0  0  0  0
  139.2742   79.3016  224.7755 H   0  0  0  0  0  0  0  0  0  0  0  0
  141.7549   79.6349  224.5477 H   0  0  0  0  0  0  0  0  0  0  0  0
  141.1132   77.9667  224.1958 H   0  0  0  0  0  0  0  0  0  0  0  0
  141.7688   80.0338  222.0664 H   0  0  0  0  0  0  0  0  0  0  0  0
  142.8893   78.7374  222.6078 H   0  0  0  0  0  0  0  0  0  0  0  0
  141.7391   77.1273  221.5901 H   0  0  0  0  0  0  0  0  0  0  0  0
  140.0078   78.6058  220.0216 H   0  0  0  0  0  0  0  0  0  0  0  0
  141.3071   80.6063  220.4844 H   0  0  0  0  0  0  0  0  0  0  0  0
  142.8399   79.7892  220.1915 H   0  0  0  0  0  0  0  0  0  0  0  0
  140.5590   79.7979  218.1003 H   0  0  0  0  0  0  0  0  0  0  0  0
  141.7710   81.0941  218.1359 H   0  0  0  0  0  0  0  0  0  0  0  0
  142.2389   79.0081  216.6489 H   0  0  0  0  0  0  0  0  0  0  0  0
  143.5588   79.5929  217.7579 H   0  0  0  0  0  0  0  0  0  0  0  0
  142.7652   77.0064  217.5457 H   0  0  0  0  0  0  0  0  0  0  0  0
  143.5160   77.7609  219.0145 H   0  0  0  0  0  0  0  0  0  0  0  0
  140.5601   77.3557  218.4590 H   0  0  0  0  0  0  0  0  0  0  0  0
  141.6175   76.5055  219.6852 H   0  0  0  0  0  0  0  0  0  0  0  0
  138.8297   71.1546  221.2891 H   0  0  0  0  0  0  0  0  0  0  0  0
  138.1218   69.0353  222.4071 H   0  0  0  0  0  0  0  0  0  0  0  0
  138.1535   67.5551  224.2808 H   0  0  0  0  0  0  0  0  0  0  0  0
  138.9687   67.0499  226.5884 H   0  0  0  0  0  0  0  0  0  0  0  0
  141.1690   70.7496  226.6460 H   0  0  0  0  0  0  0  0  0  0  0  0
  1  2  2  0
  2  3  1  0
  3  4  1  0
  4  5  1  0
  5  6  2  0
  5  7  1  0
  7  8  1  0
  8  9  1  0
  9 10  1  0
 10 11  1  0
 11 12  1  0
 12 13  1  0
 13 14  1  0
 14 15  1  0
 15 16  1  0
 16 17  1  0
 17 18  1  0
  2 19  1  0
 19 20  2  0
 20 21  1  0
 21 22  2  0
 22 23  1  0
 23 24  2  0
 24 25  1  0
 25 26  1  0
 25 27  2  0
 27 28  1  0
 28 29  2  0
 12  7  1  0
 18 13  1  0
 29 19  1  0
 28 22  1  0
  3 30  1  0
  4 31  1  0
  4 32  1  0
  8 33  1  0
  8 34  1  0
  9 35  1  0
  9 36  1  0
 10 37  1  0
 10 38  1  0
 11 39  1  0
 11 40  1  0
 12 41  1  6
 13 42  1  0
 14 43  1  0
 14 44  1  0
 15 45  1  0
 15 46  1  0
 16 47  1  0
 16 48  1  0
 17 49  1  0
 17 50  1  0
 18 51  1  0
 18 52  1  0
 20 53  1  0
 21 54  1  0
 23 55  1  0
 24 56  1  0
 27 57  1  0
M  END
>  <smiles>  (26) 
O=C(NCC(=O)N1CCCCC1C1CCCCC1)c1ccc2ccc(Cl)cc2n1

>  <score_type>  (26) 
oracle

>  <origin>  (26) 
autodockgpu

>  <m_score__min__energy>  (26) 
-9.5600000000000005

>  <m_primary>  (26) 
energy

>  <rmsd>  (26) 
3.722167586464292

>  <m_score__min__rmsd>  (26) 
3.722167586464292

>  <meeko>  (26) 
{"free_energy": -8.57, "intermolecular_energy": -10.06, "internal_energy": -1.87, "cluster_size": 24, "cluster_id": 2, "rank_in_cluster": 14}

>  <energy>  (26) 
-8.73

>  <cluster_rmsd>  (26) 
1.15

>  <cluster>  (26) 
2

$$$$

     RDKit          3D

 57 60  0  0  0  0  0  0  0  0999 V2000
  137.9980   74.7420  221.4070 O   0  0  0  0  0  0  0  0  0  0  0  0
  139.2460   74.8830  221.5100 C   0  0  0  0  0  0  0  0  0  0  0  0
  139.9980   73.7360  221.8520 N   0  0  0  0  0  0  0  0  0  0  0  0
  139.2740   72.4980  222.0550 C   0  0  0  0  0  0  0  0  0  0  0  0
  140.0720   71.6190  222.9440 C   0  0  0  0  0  0  0  0  0  0  0  0
  141.3170   71.6040  222.7570 O   0  0  0  0  0  0  0  0  0  0  0  0
  139.4450   70.8230  223.9710 N   0  0  0  0  0  0  0  0  0  0  0  0
  138.0600   71.0980  224.2750 C   0  0  0  0  0  0  0  0  0  0  0  0
  137.2720   69.8230  224.1020 C   0  0  0  0  0  0  0  0  0  0  0  0
  138.1900   68.6780  223.8510 C   0  0  0  0  0  0  0  0  0  0  0  0
  139.3470   68.6230  224.8320 C   0  0  0  0  0  0  0  0  0  0  0  0
  140.2360   69.8010  224.6210 C   0  0  2  0  0  0  0  0  0  0  0  0
  140.8630   70.3390  225.8590 C   0  0  0  0  0  0  0  0  0  0  0  0
  140.7210   71.8540  225.9910 C   0  0  0  0  0  0  0  0  0  0  0  0
  141.4380   72.1960  227.3040 C   0  0  0  0  0  0  0  0  0  0  0  0
  140.5140   71.7760  228.4180 C   0  0  0  0  0  0  0  0  0  0  0  0
  139.8280   70.4580  228.1400 C   0  0  0  0  0  0  0  0  0  0  0  0
  140.5910   69.6280  227.1290 C   0  0  0  0  0  0  0  0  0  0  0  0
  139.8930   76.1750  221.2880 C   0  0  0  0  0  0  0  0  0  0  0  0
  139.9170   76.6740  219.9850 C   0  0  0  0  0  0  0  0  0  0  0  0
  140.5300   77.9050  219.7490 C   0  0  0  0  0  0  0  0  0  0  0  0
  141.1090   78.6270  220.7970 C   0  0  0  0  0  0  0  0  0  0  0  0
  141.7060   79.8390  220.5220 C   0  0  0  0  0  0  0  0  0  0  0  0
  142.2710   80.5300  221.5780 C   0  0  0  0  0  0  0  0  0  0  0  0
  142.2280   80.0030  222.8620 C   0  0  0  0  0  0  0  0  0  0  0  0
  142.9420   80.8730  224.2030 Cl  0  0  0  0  0  0  0  0  0  0  0  0
  141.6220   78.7840  223.1030 C   0  0  0  0  0  0  0  0  0  0  0  0
  141.0540   78.0790  222.0620 C   0  0  0  0  0  0  0  0  0  0  0  0
  140.4600   76.8920  222.2770 N   0  0  0  0  0  0  0  0  0  0  0  0
  141.0360   73.8010  221.9500 H   0  0  0  0  0  0  0  0  0  0  0  0
  138.3010   72.7108  222.5218 H   0  0  0  0  0  0  0  0  0  0  0  0
  139.1064   71.9998  221.0887 H   0  0  0  0  0  0  0  0  0  0  0  0
  137.9706   71.4520  225.3126 H   0  0  0  0  0  0  0  0  0  0  0  0
  137.6725   71.8761  223.6009 H   0  0  0  0  0  0  0  0  0  0  0  0
  136.6910   69.6287  225.0156 H   0  0  0  0  0  0  0  0  0  0  0  0
  136.5956   69.9344  223.2418 H   0  0  0  0  0  0  0  0  0  0  0  0
  137.6158   67.7433  223.9326 H   0  0  0  0  0  0  0  0  0  0  0  0
  138.6157   68.8103  222.8454 H   0  0  0  0  0  0  0  0  0  0  0  0
  138.9565   68.6382  225.8603 H   0  0  0  0  0  0  0  0  0  0  0  0
  139.9203   67.6982  224.6703 H   0  0  0  0  0  0  0  0  0  0  0  0
  141.0859   69.4739  224.0040 H   0  0  0  0  0  0  0  0  0  0  0  0
  141.9253   70.1103  225.6880 H   0  0  0  0  0  0  0  0  0  0  0  0
  141.1999   72.3645  225.1424 H   0  0  0  0  0  0  0  0  0  0  0  0
  139.6692   72.1762  225.9934 H   0  0  0  0  0  0  0  0  0  0  0  0
  142.3890   71.6473  227.3718 H   0  0  0  0  0  0  0  0  0  0  0  0
  141.6697   73.2697  227.3628 H   0  0  0  0  0  0  0  0  0  0  0  0
  141.0999   71.6795  229.3439 H   0  0  0  0  0  0  0  0  0  0  0  0
  139.7327   72.5448  228.5098 H   0  0  0  0  0  0  0  0  0  0  0  0
  139.7510   69.8917  229.0799 H   0  0  0  0  0  0  0  0  0  0  0  0
  138.8324   70.6723  227.7242 H   0  0  0  0  0  0  0  0  0  0  0  0
  141.5525   69.3345  227.5755 H   0  0  0  0  0  0  0  0  0  0  0  0
  139.9602   68.7610  226.8833 H   0  0  0  0  0  0  0  0  0  0  0  0
  139.4613   76.1075  219.1595 H   0  0  0  0  0  0  0  0  0  0  0  0
  140.5580   78.3118  218.7274 H   0  0  0  0  0  0  0  0  0  0  0  0
  141.7319   80.2419  219.4988 H   0  0  0  0  0  0  0  0  0  0  0  0
  142.7564   81.5010  221.4003 H   0  0  0  0  0  0  0  0  0  0  0  0
  141.5927   78.3764  224.1243 H   0  0  0  0  0  0  0  0  0  0  0  0
  1  2  2  0
  2  3  1  0
  3  4  1  0
  4  5  1  0
  5  6  2  0
  5  7  1  0
  7  8  1  0
  8  9  1  0
  9 10  1  0
 10 11  1  0
 11 12  1  0
 12 13  1  0
 13 14  1  0
 14 15  1  0
 15 16  1  0
 16 17  1  0
 17 18  1  0
  2 19  1  0
 19 20  2  0
 20 21  1  0
 21 22  2  0
 22 23  1  0
 23 24  2  0
 24 25  1  0
 25 26  1  0
 25 27  2  0
 27 28  1  0
 28 29  2  0
 12  7  1  0
 18 13  1  0
 29 19  1  0
 28 22  1  0
  3 30  1  0
  4 31  1  0
  4 32  1  0
  8 33  1  0
  8 34  1  0
  9 35  1  0
  9 36  1  0
 10 37  1  0
 10 38  1  0
 11 39  1  0
 11 40  1  0
 12 41  1  6
 13 42  1  0
 14 43  1  0
 14 44  1  0
 15 45  1  0
 15 46  1  0
 16 47  1  0
 16 48  1  0
 17 49  1  0
 17 50  1  0
 18 51  1  0
 18 52  1  0
 20 53  1  0
 21 54  1  0
 23 55  1  0
 24 56  1  0
 27 57  1  0
M  END
>  <smiles>  (27) 
O=C(NCC(=O)N1CCCCC1C1CCCCC1)c1ccc2ccc(Cl)cc2n1

>  <score_type>  (27) 
oracle

>  <origin>  (27) 
autodockgpu

>  <m_score__min__energy>  (27) 
-9.5600000000000005

>  <m_primary>  (27) 
energy

>  <rmsd>  (27) 
8.521461566109414

>  <m_score__min__rmsd>  (27) 
8.521461566109414

>  <meeko>  (27) 
{"free_energy": -8.42, "intermolecular_energy": -9.91, "internal_energy": -1.84, "cluster_size": 17, "cluster_id": 1, "rank_in_cluster": 13}

>  <energy>  (27) 
-8.71

>  <cluster_rmsd>  (27) 
1.15

>  <cluster>  (27) 
2

$$$$

     RDKit          3D

 57 60  0  0  0  0  0  0  0  0999 V2000
  141.4440   73.2700  221.5820 O   0  0  0  0  0  0  0  0  0  0  0  0
  140.3970   73.1230  222.2670 C   0  0  0  0  0  0  0  0  0  0  0  0
  139.5180   74.2280  222.3460 N   0  0  0  0  0  0  0  0  0  0  0  0
  139.8950   75.4330  221.6350 C   0  0  0  0  0  0  0  0  0  0  0  0
  139.3630   76.6060  222.3720 C   0  0  0  0  0  0  0  0  0  0  0  0
  138.3490   76.4110  223.0910 O   0  0  0  0  0  0  0  0  0  0  0  0
  139.9840   77.9040  222.2630 N   0  0  0  0  0  0  0  0  0  0  0  0
  139.2340   79.0430  222.7400 C   0  0  0  0  0  0  0  0  0  0  0  0
  140.0630   79.7590  223.7780 C   0  0  0  0  0  0  0  0  0  0  0  0
  141.4300   79.1710  223.8430 C   0  0  0  0  0  0  0  0  0  0  0  0
  142.0650   79.0040  222.4750 C   0  0  0  0  0  0  0  0  0  0  0  0
  141.3120   77.9810  221.6960 C   0  0  2  0  0  0  0  0  0  0  0  0
  141.2380   78.2410  220.2330 C   0  0  0  0  0  0  0  0  0  0  0  0
  141.8020   79.6040  219.8380 C   0  0  0  0  0  0  0  0  0  0  0  0
  141.6160   79.6740  218.3170 C   0  0  0  0  0  0  0  0  0  0  0  0
  142.6820   78.7960  217.7150 C   0  0  0  0  0  0  0  0  0  0  0  0
  142.8900   77.5150  218.4900 C   0  0  0  0  0  0  0  0  0  0  0  0
  141.6750   77.1580  219.3210 C   0  0  0  0  0  0  0  0  0  0  0  0
  140.0980   71.8670  222.9520 C   0  0  0  0  0  0  0  0  0  0  0  0
  139.3480   70.9130  222.2640 C   0  0  0  0  0  0  0  0  0  0  0  0
  139.0490   69.7070  222.8990 C   0  0  0  0  0  0  0  0  0  0  0  0
  139.4940   69.4570  224.2000 C   0  0  0  0  0  0  0  0  0  0  0  0
  139.1780   68.2520  224.7930 C   0  0  0  0  0  0  0  0  0  0  0  0
  139.6310   68.0330  226.0800 C   0  0  0  0  0  0  0  0  0  0  0  0
  140.3760   69.0050  226.7350 C   0  0  0  0  0  0  0  0  0  0  0  0
  140.9520   68.7320  228.3660 Cl  0  0  0  0  0  0  0  0  0  0  0  0
  140.6750   70.2010  226.1120 C   0  0  0  0  0  0  0  0  0  0  0  0
  140.2310   70.4390  224.8270 C   0  0  0  0  0  0  0  0  0  0  0  0
  140.5120   71.5980  224.2050 N   0  0  0  0  0  0  0  0  0  0  0  0
  138.6370   74.1570  222.9010 H   0  0  0  0  0  0  0  0  0  0  0  0
  140.9913   75.4997  221.5748 H   0  0  0  0  0  0  0  0  0  0  0  0
  139.4819   75.4117  220.6157 H   0  0  0  0  0  0  0  0  0  0  0  0
  139.0189   79.7231  221.9027 H   0  0  0  0  0  0  0  0  0  0  0  0
  138.2821   78.7110  223.1801 H   0  0  0  0  0  0  0  0  0  0  0  0
  140.1381   80.8235  223.5113 H   0  0  0  0  0  0  0  0  0  0  0  0
  139.5794   79.6499  224.7599 H   0  0  0  0  0  0  0  0  0  0  0  0
  142.0681   79.8317  224.4482 H   0  0  0  0  0  0  0  0  0  0  0  0
  141.3385   78.1699  224.2896 H   0  0  0  0  0  0  0  0  0  0  0  0
  142.0387   79.9645  221.9395 H   0  0  0  0  0  0  0  0  0  0  0  0
  143.1086   78.6773  222.5941 H   0  0  0  0  0  0  0  0  0  0  0  0
  141.8572   77.0290  221.7767 H   0  0  0  0  0  0  0  0  0  0  0  0
  140.1508   78.2609  220.0667 H   0  0  0  0  0  0  0  0  0  0  0  0
  141.2463   80.4129  220.3348 H   0  0  0  0  0  0  0  0  0  0  0  0
  142.8545   79.7219  220.1353 H   0  0  0  0  0  0  0  0  0  0  0  0
  140.6178   79.3049  218.0388 H   0  0  0  0  0  0  0  0  0  0  0  0
  141.7004   80.7086  217.9531 H   0  0  0  0  0  0  0  0  0  0  0  0
  142.3880   78.5409  216.6862 H   0  0  0  0  0  0  0  0  0  0  0  0
  143.6279   79.3570  217.7410 H   0  0  0  0  0  0  0  0  0  0  0  0
  143.0892   76.6980  217.7809 H   0  0  0  0  0  0  0  0  0  0  0  0
  143.7403   77.6618  219.1722 H   0  0  0  0  0  0  0  0  0  0  0  0
  140.8448   76.9223  218.6389 H   0  0  0  0  0  0  0  0  0  0  0  0
  141.9568   76.3014  219.9509 H   0  0  0  0  0  0  0  0  0  0  0  0
  138.9986   71.1079  221.2394 H   0  0  0  0  0  0  0  0  0  0  0  0
  138.4571   68.9454  222.3703 H   0  0  0  0  0  0  0  0  0  0  0  0
  138.5866   67.4927  224.2603 H   0  0  0  0  0  0  0  0  0  0  0  0
  139.4006   67.0848  226.5878 H   0  0  0  0  0  0  0  0  0  0  0  0
  141.2667   70.9634  226.6398 H   0  0  0  0  0  0  0  0  0  0  0  0
  1  2  2  0
  2  3  1  0
  3  4  1  0
  4  5  1  0
  5  6  2  0
  5  7  1  0
  7  8  1  0
  8  9  1  0
  9 10  1  0
 10 11  1  0
 11 12  1  0
 12 13  1  0
 13 14  1  0
 14 15  1  0
 15 16  1  0
 16 17  1  0
 17 18  1  0
  2 19  1  0
 19 20  2  0
 20 21  1  0
 21 22  2  0
 22 23  1  0
 23 24  2  0
 24 25  1  0
 25 26  1  0
 25 27  2  0
 27 28  1  0
 28 29  2  0
 12  7  1  0
 18 13  1  0
 29 19  1  0
 28 22  1  0
  3 30  1  0
  4 31  1  0
  4 32  1  0
  8 33  1  0
  8 34  1  0
  9 35  1  0
  9 36  1  0
 10 37  1  0
 10 38  1  0
 11 39  1  0
 11 40  1  0
 12 41  1  6
 13 42  1  0
 14 43  1  0
 14 44  1  0
 15 45  1  0
 15 46  1  0
 16 47  1  0
 16 48  1  0
 17 49  1  0
 17 50  1  0
 18 51  1  0
 18 52  1  0
 20 53  1  0
 21 54  1  0
 23 55  1  0
 24 56  1  0
 27 57  1  0
M  END
>  <smiles>  (28) 
O=C(NCC(=O)N1CCCCC1C1CCCCC1)c1ccc2ccc(Cl)cc2n1

>  <score_type>  (28) 
oracle

>  <origin>  (28) 
autodockgpu

>  <m_score__min__energy>  (28) 
-9.5600000000000005

>  <m_primary>  (28) 
energy

>  <rmsd>  (28) 
3.7245408207468014

>  <m_score__min__rmsd>  (28) 
3.7245408207468014

>  <meeko>  (28) 
{"free_energy": -8.76, "intermolecular_energy": -10.25, "internal_energy": -1.89, "cluster_size": 24, "cluster_id": 2, "rank_in_cluster": 4}

>  <energy>  (28) 
-8.71

>  <cluster_rmsd>  (28) 
0.58

>  <cluster>  (28) 
2

$$$$

     RDKit          3D

 57 60  0  0  0  0  0  0  0  0999 V2000
  136.0810   77.3180  223.2030 O   0  0  0  0  0  0  0  0  0  0  0  0
  136.3040   76.1050  223.4620 C   0  0  0  0  0  0  0  0  0  0  0  0
  137.4360   75.5140  222.8560 N   0  0  0  0  0  0  0  0  0  0  0  0
  138.2430   76.3500  221.9900 C   0  0  0  0  0  0  0  0  0  0  0  0
  139.5670   75.7070  221.8050 C   0  0  0  0  0  0  0  0  0  0  0  0
  139.6660   74.5020  222.1590 O   0  0  0  0  0  0  0  0  0  0  0  0
  140.6830   76.4320  221.2480 N   0  0  0  0  0  0  0  0  0  0  0  0
  141.8400   75.6670  220.8440 C   0  0  0  0  0  0  0  0  0  0  0  0
  142.1180   75.9560  219.3900 C   0  0  0  0  0  0  0  0  0  0  0  0
  141.2330   77.0490  218.9010 C   0  0  0  0  0  0  0  0  0  0  0  0
  141.2100   78.2490  219.8310 C   0  0  0  0  0  0  0  0  0  0  0  0
  140.5680   77.8680  221.1210 C   0  0  2  0  0  0  0  0  0  0  0  0
  141.1340   78.5420  222.3220 C   0  0  0  0  0  0  0  0  0  0  0  0
  142.2120   79.5680  221.9800 C   0  0  0  0  0  0  0  0  0  0  0  0
  142.6630   80.1220  223.3380 C   0  0  0  0  0  0  0  0  0  0  0  0
  141.5800   81.0640  223.7960 C   0  0  0  0  0  0  0  0  0  0  0  0
  140.1910   80.5420  223.5070 C   0  0  0  0  0  0  0  0  0  0  0  0
  140.1800   79.0360  223.3420 C   0  0  0  0  0  0  0  0  0  0  0  0
  135.4320   75.3370  224.3490 C   0  0  0  0  0  0  0  0  0  0  0  0
  134.5640   76.0440  225.1800 C   0  0  0  0  0  0  0  0  0  0  0  0
  133.7230   75.3320  226.0360 C   0  0  0  0  0  0  0  0  0  0  0  0
  133.7480   73.9350  226.0600 C   0  0  0  0  0  0  0  0  0  0  0  0
  132.9020   73.2670  226.9210 C   0  0  0  0  0  0  0  0  0  0  0  0
  132.9490   71.8860  226.9240 C   0  0  0  0  0  0  0  0  0  0  0  0
  133.8260   71.2140  226.0820 C   0  0  0  0  0  0  0  0  0  0  0  0
  133.8900   69.4640  226.0810 Cl  0  0  0  0  0  0  0  0  0  0  0  0
  134.6610   71.9130  225.2320 C   0  0  0  0  0  0  0  0  0  0  0  0
  134.6290   73.2930  225.2150 C   0  0  0  0  0  0  0  0  0  0  0  0
  135.4340   73.9910  224.3950 N   0  0  0  0  0  0  0  0  0  0  0  0
  137.6640   74.5110  223.0380 H   0  0  0  0  0  0  0  0  0  0  0  0
  137.7461   76.4608  221.0149 H   0  0  0  0  0  0  0  0  0  0  0  0
  138.3699   77.3447  222.4423 H   0  0  0  0  0  0  0  0  0  0  0  0
  142.7086   75.9575  221.4532 H   0  0  0  0  0  0  0  0  0  0  0  0
  141.6512   74.5927  220.9864 H   0  0  0  0  0  0  0  0  0  0  0  0
  143.1686   76.2612  219.2753 H   0  0  0  0  0  0  0  0  0  0  0  0
  141.9226   75.0475  218.8013 H   0  0  0  0  0  0  0  0  0  0  0  0
  141.5916   77.3763  217.9139 H   0  0  0  0  0  0  0  0  0  0  0  0
  140.2095   76.6490  218.8517 H   0  0  0  0  0  0  0  0  0  0  0  0
  142.2400   78.5859  220.0199 H   0  0  0  0  0  0  0  0  0  0  0  0
  140.6368   79.0632  219.3635 H   0  0  0  0  0  0  0  0  0  0  0  0
  139.5207   78.2028  221.0870 H   0  0  0  0  0  0  0  0  0  0  0  0
  141.6176   77.7019  222.8419 H   0  0  0  0  0  0  0  0  0  0  0  0
  143.0529   79.0885  221.4575 H   0  0  0  0  0  0  0  0  0  0  0  0
  141.8397   80.3571  221.3101 H   0  0  0  0  0  0  0  0  0  0  0  0
  142.7848   79.3024  224.0614 H   0  0  0  0  0  0  0  0  0  0  0  0
  143.6309   80.6381  223.2558 H   0  0  0  0  0  0  0  0  0  0  0  0
  141.6805   81.2146  224.8810 H   0  0  0  0  0  0  0  0  0  0  0  0
  141.7028   82.0058  223.2411 H   0  0  0  0  0  0  0  0  0  0  0  0
  139.5276   80.8138  224.3412 H   0  0  0  0  0  0  0  0  0  0  0  0
  139.8453   80.9922  222.5647 H   0  0  0  0  0  0  0  0  0  0  0  0
  140.4375   78.5788  224.3088 H   0  0  0  0  0  0  0  0  0  0  0  0
  139.1719   78.7572  223.0013 H   0  0  0  0  0  0  0  0  0  0  0  0
  134.5425   77.1436  225.1611 H   0  0  0  0  0  0  0  0  0  0  0  0
  133.0335   75.8758  226.6985 H   0  0  0  0  0  0  0  0  0  0  0  0
  132.2141   73.8146  227.5820 H   0  0  0  0  0  0  0  0  0  0  0  0
  132.2896   71.3167  227.5956 H   0  0  0  0  0  0  0  0  0  0  0  0
  135.3510   71.3703  224.5691 H   0  0  0  0  0  0  0  0  0  0  0  0
  1  2  2  0
  2  3  1  0
  3  4  1  0
  4  5  1  0
  5  6  2  0
  5  7  1  0
  7  8  1  0
  8  9  1  0
  9 10  1  0
 10 11  1  0
 11 12  1  0
 12 13  1  0
 13 14  1  0
 14 15  1  0
 15 16  1  0
 16 17  1  0
 17 18  1  0
  2 19  1  0
 19 20  2  0
 20 21  1  0
 21 22  2  0
 22 23  1  0
 23 24  2  0
 24 25  1  0
 25 26  1  0
 25 27  2  0
 27 28  1  0
 28 29  2  0
 12  7  1  0
 18 13  1  0
 29 19  1  0
 28 22  1  0
  3 30  1  0
  4 31  1  0
  4 32  1  0
  8 33  1  0
  8 34  1  0
  9 35  1  0
  9 36  1  0
 10 37  1  0
 10 38  1  0
 11 39  1  0
 11 40  1  0
 12 41  1  6
 13 42  1  0
 14 43  1  0
 14 44  1  0
 15 45  1  0
 15 46  1  0
 16 47  1  0
 16 48  1  0
 17 49  1  0
 17 50  1  0
 18 51  1  0
 18 52  1  0
 20 53  1  0
 21 54  1  0
 23 55  1  0
 24 56  1  0
 27 57  1  0
M  END
>  <smiles>  (29) 
O=C(NCC(=O)N1CCCCC1C1CCCCC1)c1ccc2ccc(Cl)cc2n1

>  <score_type>  (29) 
oracle

>  <origin>  (29) 
autodockgpu

>  <m_score__min__energy>  (29) 
-9.5600000000000005

>  <m_primary>  (29) 
energy

>  <rmsd>  (29) 
5.6067847171002105

>  <m_score__min__rmsd>  (29) 
5.6067847171002105

>  <meeko>  (29) 
{"free_energy": -8.14, "intermolecular_energy": -9.63, "internal_energy": -2.18, "cluster_size": 7, "cluster_id": 3, "rank_in_cluster": 4}

>  <energy>  (29) 
-8.69

>  <cluster_rmsd>  (29) 
0.86

>  <cluster>  (29) 
2

$$$$

     RDKit          3D

 57 60  0  0  0  0  0  0  0  0999 V2000
  140.3760   72.1040  220.3710 O   0  0  0  0  0  0  0  0  0  0  0  0
  139.9180   72.2870  221.5310 C   0  0  0  0  0  0  0  0  0  0  0  0
  139.5740   73.6110  221.8870 N   0  0  0  0  0  0  0  0  0  0  0  0
  139.7770   74.6450  220.8920 C   0  0  0  0  0  0  0  0  0  0  0  0
  140.0400   75.9300  221.5860 C   0  0  0  0  0  0  0  0  0  0  0  0
  139.5800   76.0470  222.7520 O   0  0  0  0  0  0  0  0  0  0  0  0
  140.7850   76.9870  220.9490 N   0  0  0  0  0  0  0  0  0  0  0  0
  142.0870   76.6580  220.4170 C   0  0  0  0  0  0  0  0  0  0  0  0
  142.1080   77.0190  218.9520 C   0  0  0  0  0  0  0  0  0  0  0  0
  140.8640   77.7470  218.5800 C   0  0  0  0  0  0  0  0  0  0  0  0
  140.5280   78.8710  219.5430 C   0  0  0  0  0  0  0  0  0  0  0  0
  140.1810   78.3000  220.8750 C   0  0  2  0  0  0  0  0  0  0  0  0
  140.6000   79.1290  222.0380 C   0  0  0  0  0  0  0  0  0  0  0  0
  141.4700   78.3650  223.0350 C   0  0  0  0  0  0  0  0  0  0  0  0
  141.7710   79.3820  224.1440 C   0  0  0  0  0  0  0  0  0  0  0  0
  142.8150   80.3190  223.5920 C   0  0  0  0  0  0  0  0  0  0  0  0
  142.5670   80.6830  222.1460 C   0  0  0  0  0  0  0  0  0  0  0  0
  141.1160   80.4900  221.7590 C   0  0  0  0  0  0  0  0  0  0  0  0
  139.7480   71.1810  222.4710 C   0  0  0  0  0  0  0  0  0  0  0  0
  139.0560   70.0530  222.0300 C   0  0  0  0  0  0  0  0  0  0  0  0
  138.8810   68.9850  222.9110 C   0  0  0  0  0  0  0  0  0  0  0  0
  139.3890   69.0430  224.2120 C   0  0  0  0  0  0  0  0  0  0  0  0
  139.1930   67.9670  225.0520 C   0  0  0  0  0  0  0  0  0  0  0  0
  139.7070   68.0520  226.3330 C   0  0  0  0  0  0  0  0  0  0  0  0
  140.3900   69.1910  226.7380 C   0  0  0  0  0  0  0  0  0  0  0  0
  141.0430   69.3050  228.3590 Cl  0  0  0  0  0  0  0  0  0  0  0  0
  140.5680   70.2520  225.8710 C   0  0  0  0  0  0  0  0  0  0  0  0
  140.0620   70.1860  224.5880 C   0  0  0  0  0  0  0  0  0  0  0  0
  140.2250   71.2080  223.7300 N   0  0  0  0  0  0  0  0  0  0  0  0
  139.1900   73.8150  222.8360 H   0  0  0  0  0  0  0  0  0  0  0  0
  140.6371   74.3843  220.2578 H   0  0  0  0  0  0  0  0  0  0  0  0
  138.8812   74.7374  220.2603 H   0  0  0  0  0  0  0  0  0  0  0  0
  142.8615   77.2280  220.9512 H   0  0  0  0  0  0  0  0  0  0  0  0
  142.2870   75.5839  220.5445 H   0  0  0  0  0  0  0  0  0  0  0  0
  142.9781   77.6607  218.7491 H   0  0  0  0  0  0  0  0  0  0  0  0
  142.1729   76.0958  218.3575 H   0  0  0  0  0  0  0  0  0  0  0  0
  140.9940   78.1733  217.5743 H   0  0  0  0  0  0  0  0  0  0  0  0
  140.0355   77.0242  218.6138 H   0  0  0  0  0  0  0  0  0  0  0  0
  141.3970   79.5376  219.6454 H   0  0  0  0  0  0  0  0  0  0  0  0
  139.6709   79.4410  219.1550 H   0  0  0  0  0  0  0  0  0  0  0  0
  139.0841   78.2613  220.9472 H   0  0  0  0  0  0  0  0  0  0  0  0
  139.6338   79.3396  222.5197 H   0  0  0  0  0  0  0  0  0  0  0  0
  140.9271   77.4982  223.4398 H   0  0  0  0  0  0  0  0  0  0  0  0
  142.3859   77.9690  222.5720 H   0  0  0  0  0  0  0  0  0  0  0  0
  140.8598   79.9398  224.4059 H   0  0  0  0  0  0  0  0  0  0  0  0
  142.1272   78.8821  225.0568 H   0  0  0  0  0  0  0  0  0  0  0  0
  142.8129   81.2408  224.1922 H   0  0  0  0  0  0  0  0  0  0  0  0
  143.7848   79.8024  223.6427 H   0  0  0  0  0  0  0  0  0  0  0  0
  142.8393   81.7377  221.9925 H   0  0  0  0  0  0  0  0  0  0  0  0
  143.1799   80.0210  221.5166 H   0  0  0  0  0  0  0  0  0  0  0  0
  140.5076   81.2138  222.3211 H   0  0  0  0  0  0  0  0  0  0  0  0
  141.0509   80.6413  220.6714 H   0  0  0  0  0  0  0  0  0  0  0  0
  138.6556   70.0062  221.0065 H   0  0  0  0  0  0  0  0  0  0  0  0
  138.3377   68.0883  222.5782 H   0  0  0  0  0  0  0  0  0  0  0  0
  138.6474   67.0732  224.7152 H   0  0  0  0  0  0  0  0  0  0  0  0
  139.5743   67.2143  227.0335 H   0  0  0  0  0  0  0  0  0  0  0  0
  141.1123   71.1485  226.2026 H   0  0  0  0  0  0  0  0  0  0  0  0
  1  2  2  0
  2  3  1  0
  3  4  1  0
  4  5  1  0
  5  6  2  0
  5  7  1  0
  7  8  1  0
  8  9  1  0
  9 10  1  0
 10 11  1  0
 11 12  1  0
 12 13  1  0
 13 14  1  0
 14 15  1  0
 15 16  1  0
 16 17  1  0
 17 18  1  0
  2 19  1  0
 19 20  2  0
 20 21  1  0
 21 22  2  0
 22 23  1  0
 23 24  2  0
 24 25  1  0
 25 26  1  0
 25 27  2  0
 27 28  1  0
 28 29  2  0
 12  7  1  0
 18 13  1  0
 29 19  1  0
 28 22  1  0
  3 30  1  0
  4 31  1  0
  4 32  1  0
  8 33  1  0
  8 34  1  0
  9 35  1  0
  9 36  1  0
 10 37  1  0
 10 38  1  0
 11 39  1  0
 11 40  1  0
 12 41  1  6
 13 42  1  0
 14 43  1  0
 14 44  1  0
 15 45  1  0
 15 46  1  0
 16 47  1  0
 16 48  1  0
 17 49  1  0
 17 50  1  0
 18 51  1  0
 18 52  1  0
 20 53  1  0
 21 54  1  0
 23 55  1  0
 24 56  1  0
 27 57  1  0
M  END
>  <smiles>  (30) 
O=C(NCC(=O)N1CCCCC1C1CCCCC1)c1ccc2ccc(Cl)cc2n1

>  <score_type>  (30) 
oracle

>  <origin>  (30) 
autodockgpu

>  <m_score__min__energy>  (30) 
-9.5600000000000005

>  <m_primary>  (30) 
energy

>  <rmsd>  (30) 
2.3633666107807354

>  <m_score__min__rmsd>  (30) 
2.3633666107807354

>  <meeko>  (30) 
{"free_energy": -8.3, "intermolecular_energy": -9.79, "internal_energy": -1.92, "cluster_size": 24, "cluster_id": 2, "rank_in_cluster": 24}

>  <energy>  (30) 
-8.66

>  <cluster_rmsd>  (30) 
1.15

>  <cluster>  (30) 
2

$$$$

     RDKit          3D

 57 60  0  0  0  0  0  0  0  0999 V2000
  141.4890   73.1410  221.5950 O   0  0  0  0  0  0  0  0  0  0  0  0
  140.4390   73.0210  222.2810 C   0  0  0  0  0  0  0  0  0  0  0  0
  139.5800   74.1420  222.3460 N   0  0  0  0  0  0  0  0  0  0  0  0
  139.9780   75.3320  221.6200 C   0  0  0  0  0  0  0  0  0  0  0  0
  139.2930   76.5050  222.2170 C   0  0  0  0  0  0  0  0  0  0  0  0
  138.1880   76.2900  222.7800 O   0  0  0  0  0  0  0  0  0  0  0  0
  139.8720   77.8250  222.1500 N   0  0  0  0  0  0  0  0  0  0  0  0
  139.0580   78.9320  222.5950 C   0  0  0  0  0  0  0  0  0  0  0  0
  139.8060   79.6670  223.6800 C   0  0  0  0  0  0  0  0  0  0  0  0
  141.1870   79.1280  223.8130 C   0  0  0  0  0  0  0  0  0  0  0  0
  141.8990   78.9960  222.4790 C   0  0  0  0  0  0  0  0  0  0  0  0
  141.2250   77.9530  221.6550 C   0  0  2  0  0  0  0  0  0  0  0  0
  141.2170   78.2240  220.1910 C   0  0  0  0  0  0  0  0  0  0  0  0
  141.8230   79.5790  219.8300 C   0  0  0  0  0  0  0  0  0  0  0  0
  141.7030   79.6610  218.3020 C   0  0  0  0  0  0  0  0  0  0  0  0
  142.7780   78.7660  217.7400 C   0  0  0  0  0  0  0  0  0  0  0  0
  142.9280   77.4770  218.5150 C   0  0  0  0  0  0  0  0  0  0  0  0
  141.6730   77.1380  219.2920 C   0  0  0  0  0  0  0  0  0  0  0  0
  140.1180   71.7800  222.9820 C   0  0  0  0  0  0  0  0  0  0  0  0
  139.3080   70.8530  222.3250 C   0  0  0  0  0  0  0  0  0  0  0  0
  138.9880   69.6600  222.9750 C   0  0  0  0  0  0  0  0  0  0  0  0
  139.4690   69.3970  224.2610 C   0  0  0  0  0  0  0  0  0  0  0  0
  139.1290   68.2070  224.8700 C   0  0  0  0  0  0  0  0  0  0  0  0
  139.6190   67.9740  226.1410 C   0  0  0  0  0  0  0  0  0  0  0  0
  140.4230   68.9200  226.7650 C   0  0  0  0  0  0  0  0  0  0  0  0
  141.0470   68.6300  228.3750 Cl  0  0  0  0  0  0  0  0  0  0  0  0
  140.7440   70.1020  226.1270 C   0  0  0  0  0  0  0  0  0  0  0  0
  140.2640   70.3530  224.8580 C   0  0  0  0  0  0  0  0  0  0  0  0
  140.5660   71.4980  224.2200 N   0  0  0  0  0  0  0  0  0  0  0  0
  138.6970   74.0940  222.9020 H   0  0  0  0  0  0  0  0  0  0  0  0
  141.0677   75.4630  221.6930 H   0  0  0  0  0  0  0  0  0  0  0  0
  139.6999   75.2350  220.5602 H   0  0  0  0  0  0  0  0  0  0  0  0
  138.8626   79.6117  221.7525 H   0  0  0  0  0  0  0  0  0  0  0  0
  138.0968   78.5628  222.9820 H   0  0  0  0  0  0  0  0  0  0  0  0
  139.8568   80.7359  223.4252 H   0  0  0  0  0  0  0  0  0  0  0  0
  139.2760   79.5313  224.6343 H   0  0  0  0  0  0  0  0  0  0  0  0
  141.7681   79.8056  224.4558 H   0  0  0  0  0  0  0  0  0  0  0  0
  141.1084   78.1203  224.2471 H   0  0  0  0  0  0  0  0  0  0  0  0
  141.8658   79.9594  221.9492 H   0  0  0  0  0  0  0  0  0  0  0  0
  142.9463   78.7066  222.6504 H   0  0  0  0  0  0  0  0  0  0  0  0
  141.7993   77.0205  221.7586 H   0  0  0  0  0  0  0  0  0  0  0  0
  140.1387   78.2664  219.9779 H   0  0  0  0  0  0  0  0  0  0  0  0
  141.2618   80.3954  220.3081 H   0  0  0  0  0  0  0  0  0  0  0  0
  142.8637   79.6756  220.1729 H   0  0  0  0  0  0  0  0  0  0  0  0
  140.7109   79.3122  217.9794 H   0  0  0  0  0  0  0  0  0  0  0  0
  141.8217   80.6959  217.9485 H   0  0  0  0  0  0  0  0  0  0  0  0
  142.5239   78.5225  216.6978 H   0  0  0  0  0  0  0  0  0  0  0  0
  143.7323   79.3087  217.8099 H   0  0  0  0  0  0  0  0  0  0  0  0
  143.1414   76.6603  217.8096 H   0  0  0  0  0  0  0  0  0  0  0  0
  143.7509   77.6042  219.2337 H   0  0  0  0  0  0  0  0  0  0  0  0
  140.8683   76.9206  218.5742 H   0  0  0  0  0  0  0  0  0  0  0  0
  141.9129   76.2735  219.9285 H   0  0  0  0  0  0  0  0  0  0  0  0
  138.9286   71.0587  221.3132 H   0  0  0  0  0  0  0  0  0  0  0  0
  138.3507   68.9191  222.4701 H   0  0  0  0  0  0  0  0  0  0  0  0
  138.4904   67.4695  224.3619 H   0  0  0  0  0  0  0  0  0  0  0  0
  139.3717   67.0364  226.6605 H   0  0  0  0  0  0  0  0  0  0  0  0
  141.3822   70.8432  226.6304 H   0  0  0  0  0  0  0  0  0  0  0  0
  1  2  2  0
  2  3  1  0
  3  4  1  0
  4  5  1  0
  5  6  2  0
  5  7  1  0
  7  8  1  0
  8  9  1  0
  9 10  1  0
 10 11  1  0
 11 12  1  0
 12 13  1  0
 13 14  1  0
 14 15  1  0
 15 16  1  0
 16 17  1  0
 17 18  1  0
  2 19  1  0
 19 20  2  0
 20 21  1  0
 21 22  2  0
 22 23  1  0
 23 24  2  0
 24 25  1  0
 25 26  1  0
 25 27  2  0
 27 28  1  0
 28 29  2  0
 12  7  1  0
 18 13  1  0
 29 19  1  0
 28 22  1  0
  3 30  1  0
  4 31  1  0
  4 32  1  0
  8 33  1  0
  8 34  1  0
  9 35  1  0
  9 36  1  0
 10 37  1  0
 10 38  1  0
 11 39  1  0
 11 40  1  0
 12 41  1  6
 13 42  1  0
 14 43  1  0
 14 44  1  0
 15 45  1  0
 15 46  1  0
 16 47  1  0
 16 48  1  0
 17 49  1  0
 17 50  1  0
 18 51  1  0
 18 52  1  0
 20 53  1  0
 21 54  1  0
 23 55  1  0
 24 56  1  0
 27 57  1  0
M  END
>  <smiles>  (31) 
O=C(NCC(=O)N1CCCCC1C1CCCCC1)c1ccc2ccc(Cl)cc2n1

>  <score_type>  (31) 
oracle

>  <origin>  (31) 
autodockgpu

>  <m_score__min__energy>  (31) 
-9.5600000000000005

>  <m_primary>  (31) 
energy

>  <rmsd>  (31) 
3.664906754962796

>  <m_score__min__rmsd>  (31) 
3.664906754962796

>  <meeko>  (31) 
{"free_energy": -8.74, "intermolecular_energy": -10.23, "internal_energy": -1.9, "cluster_size": 24, "cluster_id": 2, "rank_in_cluster": 7}

>  <energy>  (31) 
-8.57

>  <cluster_rmsd>  (31) 
1.17

>  <cluster>  (31) 
2

$$$$

     RDKit          3D

 57 60  0  0  0  0  0  0  0  0999 V2000
  136.0560   77.3290  223.1880 O   0  0  0  0  0  0  0  0  0  0  0  0
  136.3070   76.1270  223.4720 C   0  0  0  0  0  0  0  0  0  0  0  0
  137.4690   75.5600  222.9000 N   0  0  0  0  0  0  0  0  0  0  0  0
  138.2720   76.4050  222.0390 C   0  0  0  0  0  0  0  0  0  0  0  0
  139.6220   75.8050  221.9050 C   0  0  0  0  0  0  0  0  0  0  0  0
  139.7660   74.6320  222.3400 O   0  0  0  0  0  0  0  0  0  0  0  0
  140.7120   76.5350  221.3060 N   0  0  0  0  0  0  0  0  0  0  0  0
  141.8470   75.7740  220.8390 C   0  0  0  0  0  0  0  0  0  0  0  0
  142.0580   76.0810  219.3770 C   0  0  0  0  0  0  0  0  0  0  0  0
  141.1540   77.1820  218.9440 C   0  0  0  0  0  0  0  0  0  0  0  0
  141.1760   78.3700  219.8890 C   0  0  0  0  0  0  0  0  0  0  0  0
  140.5950   77.9740  221.2020 C   0  0  2  0  0  0  0  0  0  0  0  0
  141.2170   78.6310  222.3840 C   0  0  0  0  0  0  0  0  0  0  0  0
  142.3320   79.6050  222.0080 C   0  0  0  0  0  0  0  0  0  0  0  0
  142.8380   80.1490  223.3510 C   0  0  0  0  0  0  0  0  0  0  0  0
  141.8090   81.1430  223.8250 C   0  0  0  0  0  0  0  0  0  0  0  0
  140.3920   80.6800  223.5720 C   0  0  0  0  0  0  0  0  0  0  0  0
  140.3100   79.1760  223.4210 C   0  0  0  0  0  0  0  0  0  0  0  0
  135.4390   75.3480  224.3520 C   0  0  0  0  0  0  0  0  0  0  0  0
  134.5540   76.0450  225.1750 C   0  0  0  0  0  0  0  0  0  0  0  0
  133.7150   75.3220  226.0240 C   0  0  0  0  0  0  0  0  0  0  0  0
  133.7590   73.9250  226.0510 C   0  0  0  0  0  0  0  0  0  0  0  0
  132.9140   73.2470  226.9050 C   0  0  0  0  0  0  0  0  0  0  0  0
  132.9800   71.8670  226.9090 C   0  0  0  0  0  0  0  0  0  0  0  0
  133.8730   71.2060  226.0760 C   0  0  0  0  0  0  0  0  0  0  0  0
  133.9600   69.4570  226.0770 Cl  0  0  0  0  0  0  0  0  0  0  0  0
  134.7050   71.9160  225.2320 C   0  0  0  0  0  0  0  0  0  0  0  0
  134.6560   73.2940  225.2140 C   0  0  0  0  0  0  0  0  0  0  0  0
  135.4580   74.0020  224.4000 N   0  0  0  0  0  0  0  0  0  0  0  0
  137.7220   74.5670  223.1040 H   0  0  0  0  0  0  0  0  0  0  0  0
  137.7999   76.4782  221.0482 H   0  0  0  0  0  0  0  0  0  0  0  0
  138.3521   77.4125  222.4732 H   0  0  0  0  0  0  0  0  0  0  0  0
  142.7436   76.0555  221.4108 H   0  0  0  0  0  0  0  0  0  0  0  0
  141.6627   74.6983  220.9763 H   0  0  0  0  0  0  0  0  0  0  0  0
  143.1029   76.3855  219.2174 H   0  0  0  0  0  0  0  0  0  0  0  0
  141.8332   75.1806  218.7864 H   0  0  0  0  0  0  0  0  0  0  0  0
  141.4675   77.5216  217.9458 H   0  0  0  0  0  0  0  0  0  0  0  0
  140.1285   76.7841  218.9374 H   0  0  0  0  0  0  0  0  0  0  0  0
  142.2141   78.7037  220.0336 H   0  0  0  0  0  0  0  0  0  0  0  0
  140.5824   79.1902  219.4590 H   0  0  0  0  0  0  0  0  0  0  0  0
  139.5483   78.3118  221.2204 H   0  0  0  0  0  0  0  0  0  0  0  0
  141.6730   77.7738  222.9011 H   0  0  0  0  0  0  0  0  0  0  0  0
  143.1384   79.0840  221.4711 H   0  0  0  0  0  0  0  0  0  0  0  0
  141.9804   80.4045  221.3392 H   0  0  0  0  0  0  0  0  0  0  0  0
  142.9391   79.3304  224.0788 H   0  0  0  0  0  0  0  0  0  0  0  0
  143.8260   80.6203  223.2425 H   0  0  0  0  0  0  0  0  0  0  0  0
  141.9410   81.2981  224.9060 H   0  0  0  0  0  0  0  0  0  0  0  0
  141.9607   82.0742  223.2594 H   0  0  0  0  0  0  0  0  0  0  0  0
  139.7605   80.9877  224.4185 H   0  0  0  0  0  0  0  0  0  0  0  0
  140.0456   81.1371  222.6333 H   0  0  0  0  0  0  0  0  0  0  0  0
  140.5692   78.7155  224.3858 H   0  0  0  0  0  0  0  0  0  0  0  0
  139.2829   78.9402  223.1057 H   0  0  0  0  0  0  0  0  0  0  0  0
  134.5182   77.1442  225.1551 H   0  0  0  0  0  0  0  0  0  0  0  0
  133.0116   75.8570  226.6789 H   0  0  0  0  0  0  0  0  0  0  0  0
  132.2128   73.7858  227.5593 H   0  0  0  0  0  0  0  0  0  0  0  0
  132.3222   71.2893  227.5750 H   0  0  0  0  0  0  0  0  0  0  0  0
  135.4066   71.3820  224.5743 H   0  0  0  0  0  0  0  0  0  0  0  0
  1  2  2  0
  2  3  1  0
  3  4  1  0
  4  5  1  0
  5  6  2  0
  5  7  1  0
  7  8  1  0
  8  9  1  0
  9 10  1  0
 10 11  1  0
 11 12  1  0
 12 13  1  0
 13 14  1  0
 14 15  1  0
 15 16  1  0
 16 17  1  0
 17 18  1  0
  2 19  1  0
 19 20  2  0
 20 21  1  0
 21 22  2  0
 22 23  1  0
 23 24  2  0
 24 25  1  0
 25 26  1  0
 25 27  2  0
 27 28  1  0
 28 29  2  0
 12  7  1  0
 18 13  1  0
 29 19  1  0
 28 22  1  0
  3 30  1  0
  4 31  1  0
  4 32  1  0
  8 33  1  0
  8 34  1  0
  9 35  1  0
  9 36  1  0
 10 37  1  0
 10 38  1  0
 11 39  1  0
 11 40  1  0
 12 41  1  6
 13 42  1  0
 14 43  1  0
 14 44  1  0
 15 45  1  0
 15 46  1  0
 16 47  1  0
 16 48  1  0
 17 49  1  0
 17 50  1  0
 18 51  1  0
 18 52  1  0
 20 53  1  0
 21 54  1  0
 23 55  1  0
 24 56  1  0
 27 57  1  0
M  END
>  <smiles>  (32) 
O=C(NCC(=O)N1CCCCC1C1CCCCC1)c1ccc2ccc(Cl)cc2n1

>  <score_type>  (32) 
oracle

>  <origin>  (32) 
autodockgpu

>  <m_score__min__energy>  (32) 
-9.5600000000000005

>  <m_primary>  (32) 
energy

>  <rmsd>  (32) 
5.611644739930909

>  <m_score__min__rmsd>  (32) 
5.611644739930909

>  <meeko>  (32) 
{"free_energy": -8.18, "intermolecular_energy": -9.67, "internal_energy": -2.17, "cluster_size": 7, "cluster_id": 3, "rank_in_cluster": 2}

>  <energy>  (32) 
-8.56

>  <cluster_rmsd>  (32) 
0.6

>  <cluster>  (32) 
2

$$$$

     RDKit          3D

 57 60  0  0  0  0  0  0  0  0999 V2000
  141.1350   73.6100  221.7430 O   0  0  0  0  0  0  0  0  0  0  0  0
  140.0570   73.3430  222.3390 C   0  0  0  0  0  0  0  0  0  0  0  0
  139.0580   74.3430  222.3440 N   0  0  0  0  0  0  0  0  0  0  0  0
  139.3550   75.5880  221.6640 C   0  0  0  0  0  0  0  0  0  0  0  0
  138.5350   76.6670  222.2670 C   0  0  0  0  0  0  0  0  0  0  0  0
  137.6930   76.3200  223.1360 O   0  0  0  0  0  0  0  0  0  0  0  0
  138.7000   78.0450  221.8720 N   0  0  0  0  0  0  0  0  0  0  0  0
  139.0280   78.3070  220.4900 C   0  0  0  0  0  0  0  0  0  0  0  0
  137.9840   79.2350  219.9200 C   0  0  0  0  0  0  0  0  0  0  0  0
  137.0720   79.7100  220.9970 C   0  0  0  0  0  0  0  0  0  0  0  0
  137.8160   80.2090  222.2220 C   0  0  0  0  0  0  0  0  0  0  0  0
  138.5200   79.0700  222.8760 C   0  0  2  0  0  0  0  0  0  0  0  0
  139.8240   79.4190  223.5020 C   0  0  0  0  0  0  0  0  0  0  0  0
  140.9580   78.4850  223.0810 C   0  0  0  0  0  0  0  0  0  0  0  0
  142.1870   79.0040  223.8390 C   0  0  0  0  0  0  0  0  0  0  0  0
  142.6350   80.2530  223.1250 C   0  0  0  0  0  0  0  0  0  0  0  0
  141.4770   81.1190  222.6840 C   0  0  0  0  0  0  0  0  0  0  0  0
  140.2280   80.8440  223.4940 C   0  0  0  0  0  0  0  0  0  0  0  0
  139.8440   72.0570  223.0000 C   0  0  0  0  0  0  0  0  0  0  0  0
  139.1710   71.0640  222.2880 C   0  0  0  0  0  0  0  0  0  0  0  0
  138.9560   69.8280  222.8990 C   0  0  0  0  0  0  0  0  0  0  0  0
  139.4070   69.5870  224.2000 C   0  0  0  0  0  0  0  0  0  0  0  0
  139.1740   68.3520  224.7690 C   0  0  0  0  0  0  0  0  0  0  0  0
  139.6320   68.1430  226.0560 C   0  0  0  0  0  0  0  0  0  0  0  0
  140.2990   69.1540  226.7350 C   0  0  0  0  0  0  0  0  0  0  0  0
  140.8810   68.8950  228.3660 Cl  0  0  0  0  0  0  0  0  0  0  0  0
  140.5150   70.3800  226.1360 C   0  0  0  0  0  0  0  0  0  0  0  0
  140.0660   70.6090  224.8510 C   0  0  0  0  0  0  0  0  0  0  0  0
  140.2670   71.7950  224.2510 N   0  0  0  0  0  0  0  0  0  0  0  0
  138.1470   74.1710  222.8250 H   0  0  0  0  0  0  0  0  0  0  0  0
  140.4227   75.8267  221.7785 H   0  0  0  0  0  0  0  0  0  0  0  0
  139.1223   75.4947  220.5930 H   0  0  0  0  0  0  0  0  0  0  0  0
  140.0193   78.7795  220.4267 H   0  0  0  0  0  0  0  0  0  0  0  0
  139.0475   77.3656  219.9214 H   0  0  0  0  0  0  0  0  0  0  0  0
  138.4812   80.1004  219.4576 H   0  0  0  0  0  0  0  0  0  0  0  0
  137.3953   78.6917  219.1662 H   0  0  0  0  0  0  0  0  0  0  0  0
  136.4579   80.5318  220.6001 H   0  0  0  0  0  0  0  0  0  0  0  0
  136.4563   78.8540  221.3101 H   0  0  0  0  0  0  0  0  0  0  0  0
  138.5513   80.9692  221.9196 H   0  0  0  0  0  0  0  0  0  0  0  0
  137.0998   80.6516  222.9300 H   0  0  0  0  0  0  0  0  0  0  0  0
  137.8972   78.7281  223.7158 H   0  0  0  0  0  0  0  0  0  0  0  0
  139.6139   79.2423  224.5672 H   0  0  0  0  0  0  0  0  0  0  0  0
  140.7337   77.4473  223.3687 H   0  0  0  0  0  0  0  0  0  0  0  0
  141.1111   78.4787  221.9917 H   0  0  0  0  0  0  0  0  0  0  0  0
  141.9206   79.2367  224.8806 H   0  0  0  0  0  0  0  0  0  0  0  0
  142.9877   78.2501  223.8615 H   0  0  0  0  0  0  0  0  0  0  0  0
  143.2729   80.8373  223.8044 H   0  0  0  0  0  0  0  0  0  0  0  0
  143.1808   79.9423  222.2219 H   0  0  0  0  0  0  0  0  0  0  0  0
  141.7558   82.1759  222.8075 H   0  0  0  0  0  0  0  0  0  0  0  0
  141.2591   80.8876  221.6309 H   0  0  0  0  0  0  0  0  0  0  0  0
  140.4112   81.1586  224.5320 H   0  0  0  0  0  0  0  0  0  0  0  0
  139.4091   81.4071  223.0225 H   0  0  0  0  0  0  0  0  0  0  0  0
  138.8164   71.2518  221.2638 H   0  0  0  0  0  0  0  0  0  0  0  0
  138.4260   69.0350  222.3511 H   0  0  0  0  0  0  0  0  0  0  0  0
  138.6427   67.5620  224.2180 H   0  0  0  0  0  0  0  0  0  0  0  0
  139.4674   67.1714  226.5447 H   0  0  0  0  0  0  0  0  0  0  0  0
  141.0448   71.1737  226.6831 H   0  0  0  0  0  0  0  0  0  0  0  0
  1  2  2  0
  2  3  1  0
  3  4  1  0
  4  5  1  0
  5  6  2  0
  5  7  1  0
  7  8  1  0
  8  9  1  0
  9 10  1  0
 10 11  1  0
 11 12  1  0
 12 13  1  0
 13 14  1  0
 14 15  1  0
 15 16  1  0
 16 17  1  0
 17 18  1  0
  2 19  1  0
 19 20  2  0
 20 21  1  0
 21 22  2  0
 22 23  1  0
 23 24  2  0
 24 25  1  0
 25 26  1  0
 25 27  2  0
 27 28  1  0
 28 29  2  0
 12  7  1  0
 18 13  1  0
 29 19  1  0
 28 22  1  0
  3 30  1  0
  4 31  1  0
  4 32  1  0
  8 33  1  0
  8 34  1  0
  9 35  1  0
  9 36  1  0
 10 37  1  0
 10 38  1  0
 11 39  1  0
 11 40  1  0
 12 41  1  1
 13 42  1  0
 14 43  1  0
 14 44  1  0
 15 45  1  0
 15 46  1  0
 16 47  1  0
 16 48  1  0
 17 49  1  0
 17 50  1  0
 18 51  1  0
 18 52  1  0
 20 53  1  0
 21 54  1  0
 23 55  1  0
 24 56  1  0
 27 57  1  0
M  END
>  <smiles>  (33) 
O=C(NCC(=O)N1CCCCC1C1CCCCC1)c1ccc2ccc(Cl)cc2n1

>  <score_type>  (33) 
oracle

>  <origin>  (33) 
autodockgpu

>  <m_score__min__energy>  (33) 
-9.5600000000000005

>  <m_primary>  (33) 
energy

>  <rmsd>  (33) 
3.5692581167465756

>  <m_score__min__rmsd>  (33) 
3.5692581167465756

>  <meeko>  (33) 
{"free_energy": -8.53, "intermolecular_energy": -10.02, "internal_energy": -1.97, "cluster_size": 24, "cluster_id": 2, "rank_in_cluster": 16}

>  <energy>  (33) 
-8.53

>  <cluster_rmsd>  (33) 
1.49

>  <cluster>  (33) 
2

$$$$

     RDKit          3D

 57 60  0  0  0  0  0  0  0  0999 V2000
  141.4640   72.0720  221.3730 O   0  0  0  0  0  0  0  0  0  0  0  0
  140.5900   72.2740  222.2600 C   0  0  0  0  0  0  0  0  0  0  0  0
  140.0450   73.5760  222.3420 N   0  0  0  0  0  0  0  0  0  0  0  0
  140.5330   74.5660  221.4030 C   0  0  0  0  0  0  0  0  0  0  0  0
  140.0430   75.9020  221.8210 C   0  0  0  0  0  0  0  0  0  0  0  0
  139.1580   75.9260  222.7160 O   0  0  0  0  0  0  0  0  0  0  0  0
  140.5580   77.1110  221.2260 N   0  0  0  0  0  0  0  0  0  0  0  0
  141.7600   77.0020  220.4310 C   0  0  0  0  0  0  0  0  0  0  0  0
  141.4710   77.5490  219.0550 C   0  0  0  0  0  0  0  0  0  0  0  0
  140.1200   78.1720  219.0180 C   0  0  0  0  0  0  0  0  0  0  0  0
  139.8760   79.1180  220.1800 C   0  0  0  0  0  0  0  0  0  0  0  0
  139.8390   78.3450  221.4530 C   0  0  2  0  0  0  0  0  0  0  0  0
  140.3970   79.0600  222.6340 C   0  0  0  0  0  0  0  0  0  0  0  0
  141.8360   78.6580  222.9510 C   0  0  0  0  0  0  0  0  0  0  0  0
  142.2040   79.4860  224.1890 C   0  0  0  0  0  0  0  0  0  0  0  0
  142.4550   80.8910  223.7050 C   0  0  0  0  0  0  0  0  0  0  0  0
  141.4660   81.3300  222.6500 C   0  0  0  0  0  0  0  0  0  0  0  0
  140.1850   80.5240  222.7110 C   0  0  0  0  0  0  0  0  0  0  0  0
  140.1570   71.2140  223.1660 C   0  0  0  0  0  0  0  0  0  0  0  0
  139.0700   70.4300  222.7790 C   0  0  0  0  0  0  0  0  0  0  0  0
  138.6380   69.4120  223.6290 C   0  0  0  0  0  0  0  0  0  0  0  0
  139.2830   69.1780  224.8470 C   0  0  0  0  0  0  0  0  0  0  0  0
  138.8260   68.1610  225.6590 C   0  0  0  0  0  0  0  0  0  0  0  0
  139.4820   67.9540  226.8570 C   0  0  0  0  0  0  0  0  0  0  0  0
  140.5620   68.7520  227.2110 C   0  0  0  0  0  0  0  0  0  0  0  0
  141.3990   68.4930  228.7280 Cl  0  0  0  0  0  0  0  0  0  0  0  0
  140.9950   69.7620  226.3740 C   0  0  0  0  0  0  0  0  0  0  0  0
  140.3520   69.9860  225.1740 C   0  0  0  0  0  0  0  0  0  0  0  0
  140.7580   70.9650  224.3460 N   0  0  0  0  0  0  0  0  0  0  0  0
  139.3180   73.7950  223.0590 H   0  0  0  0  0  0  0  0  0  0  0  0
  141.6330   74.5604  221.3979 H   0  0  0  0  0  0  0  0  0  0  0  0
  140.1690   74.3336  220.3913 H   0  0  0  0  0  0  0  0  0  0  0  0
  142.5691   77.5819  220.8991 H   0  0  0  0  0  0  0  0  0  0  0  0
  142.0736   75.9499  220.3617 H   0  0  0  0  0  0  0  0  0  0  0  0
  142.2267   78.3066  218.8000 H   0  0  0  0  0  0  0  0  0  0  0  0
  141.5035   76.7236  218.3286 H   0  0  0  0  0  0  0  0  0  0  0  0
  140.0185   78.7356  218.0788 H   0  0  0  0  0  0  0  0  0  0  0  0
  139.3797   77.3616  219.0898 H   0  0  0  0  0  0  0  0  0  0  0  0
  140.6872   79.8595  220.2252 H   0  0  0  0  0  0  0  0  0  0  0  0
  138.9146   79.6330  220.0367 H   0  0  0  0  0  0  0  0  0  0  0  0
  138.7833   78.1735  221.7101 H   0  0  0  0  0  0  0  0  0  0  0  0
  139.7527   78.6880  223.4442 H   0  0  0  0  0  0  0  0  0  0  0  0
  141.8995   77.5820  223.1703 H   0  0  0  0  0  0  0  0  0  0  0  0
  142.5169   78.8432  222.1072 H   0  0  0  0  0  0  0  0  0  0  0  0
  141.3759   79.4757  224.9129 H   0  0  0  0  0  0  0  0  0  0  0  0
  143.0908   79.0747  224.6934 H   0  0  0  0  0  0  0  0  0  0  0  0
  142.3827   81.5766  224.5621 H   0  0  0  0  0  0  0  0  0  0  0  0
  143.4566   80.9119  223.2506 H   0  0  0  0  0  0  0  0  0  0  0  0
  141.2264   82.3921  222.8063 H   0  0  0  0  0  0  0  0  0  0  0  0
  141.9246   81.1697  221.6631 H   0  0  0  0  0  0  0  0  0  0  0  0
  139.6766   80.7516  223.6595 H   0  0  0  0  0  0  0  0  0  0  0  0
  139.5851   80.8080  221.8338 H   0  0  0  0  0  0  0  0  0  0  0  0
  138.5624   70.6115  221.8202 H   0  0  0  0  0  0  0  0  0  0  0  0
  137.7810   68.7869  223.3380 H   0  0  0  0  0  0  0  0  0  0  0  0
  137.9698   67.5370  225.3632 H   0  0  0  0  0  0  0  0  0  0  0  0
  139.1474   67.1537  227.5334 H   0  0  0  0  0  0  0  0  0  0  0  0
  141.8521   70.3875  226.6641 H   0  0  0  0  0  0  0  0  0  0  0  0
  1  2  2  0
  2  3  1  0
  3  4  1  0
  4  5  1  0
  5  6  2  0
  5  7  1  0
  7  8  1  0
  8  9  1  0
  9 10  1  0
 10 11  1  0
 11 12  1  0
 12 13  1  0
 13 14  1  0
 14 15  1  0
 15 16  1  0
 16 17  1  0
 17 18  1  0
  2 19  1  0
 19 20  2  0
 20 21  1  0
 21 22  2  0
 22 23  1  0
 23 24  2  0
 24 25  1  0
 25 26  1  0
 25 27  2  0
 27 28  1  0
 28 29  2  0
 12  7  1  0
 18 13  1  0
 29 19  1  0
 28 22  1  0
  3 30  1  0
  4 31  1  0
  4 32  1  0
  8 33  1  0
  8 34  1  0
  9 35  1  0
  9 36  1  0
 10 37  1  0
 10 38  1  0
 11 39  1  0
 11 40  1  0
 12 41  1  1
 13 42  1  0
 14 43  1  0
 14 44  1  0
 15 45  1  0
 15 46  1  0
 16 47  1  0
 16 48  1  0
 17 49  1  0
 17 50  1  0
 18 51  1  0
 18 52  1  0
 20 53  1  0
 21 54  1  0
 23 55  1  0
 24 56  1  0
 27 57  1  0
M  END
>  <smiles>  (34) 
O=C(NCC(=O)N1CCCCC1C1CCCCC1)c1ccc2ccc(Cl)cc2n1

>  <score_type>  (34) 
oracle

>  <origin>  (34) 
autodockgpu

>  <m_score__min__energy>  (34) 
-9.5600000000000005

>  <m_primary>  (34) 
energy

>  <rmsd>  (34) 
2.612552534146944

>  <m_score__min__rmsd>  (34) 
2.612552534146944

>  <meeko>  (34) 
{"free_energy": -8.74, "intermolecular_energy": -10.23, "internal_energy": -1.88, "cluster_size": 24, "cluster_id": 2, "rank_in_cluster": 6}

>  <energy>  (34) 
-8.52

>  <cluster_rmsd>  (34) 
0.83

>  <cluster>  (34) 
2

$$$$

     RDKit          3D

 57 60  0  0  0  0  0  0  0  0999 V2000
  140.8310   73.9330  221.3710 O   0  0  0  0  0  0  0  0  0  0  0  0
  139.8070   74.3830  221.9500 C   0  0  0  0  0  0  0  0  0  0  0  0
  138.7810   73.4590  222.2540 N   0  0  0  0  0  0  0  0  0  0  0  0
  138.9930   72.0760  221.8760 C   0  0  0  0  0  0  0  0  0  0  0  0
  139.8490   71.4280  222.8980 C   0  0  0  0  0  0  0  0  0  0  0  0
  141.0930   71.5810  222.7760 O   0  0  0  0  0  0  0  0  0  0  0  0
  139.2780   70.6600  223.9780 N   0  0  0  0  0  0  0  0  0  0  0  0
  137.9110   70.9440  224.3470 C   0  0  0  0  0  0  0  0  0  0  0  0
  137.1160   69.6650  224.2490 C   0  0  0  0  0  0  0  0  0  0  0  0
  138.0190   68.5130  223.9800 C   0  0  0  0  0  0  0  0  0  0  0  0
  139.2270   68.4840  224.9000 C   0  0  0  0  0  0  0  0  0  0  0  0
  140.1030   69.6540  224.6110 C   0  0  2  0  0  0  0  0  0  0  0  0
  140.7950   70.2240  225.7990 C   0  0  0  0  0  0  0  0  0  0  0  0
  140.6330   71.7390  225.9150 C   0  0  0  0  0  0  0  0  0  0  0  0
  141.4230   72.1160  227.1760 C   0  0  0  0  0  0  0  0  0  0  0  0
  140.5770   71.6990  228.3510 C   0  0  0  0  0  0  0  0  0  0  0  0
  139.8980   70.3650  228.1380 C   0  0  0  0  0  0  0  0  0  0  0  0
  140.6130   69.5310  227.0960 C   0  0  0  0  0  0  0  0  0  0  0  0
  139.6780   75.7970  222.2940 C   0  0  0  0  0  0  0  0  0  0  0  0
  138.3990   76.3540  222.2910 C   0  0  0  0  0  0  0  0  0  0  0  0
  138.2520   77.7030  222.6170 C   0  0  0  0  0  0  0  0  0  0  0  0
  139.3640   78.4840  222.9410 C   0  0  0  0  0  0  0  0  0  0  0  0
  139.1770   79.8140  223.2560 C   0  0  0  0  0  0  0  0  0  0  0  0
  140.2960   80.5610  223.5720 C   0  0  0  0  0  0  0  0  0  0  0  0
  141.5550   79.9740  223.5650 C   0  0  0  0  0  0  0  0  0  0  0  0
  142.9760   80.9160  223.9650 Cl  0  0  0  0  0  0  0  0  0  0  0  0
  141.7070   78.6390  223.2450 C   0  0  0  0  0  0  0  0  0  0  0  0
  140.6030   77.8760  222.9260 C   0  0  0  0  0  0  0  0  0  0  0  0
  140.7310   76.5750  222.6110 N   0  0  0  0  0  0  0  0  0  0  0  0
  137.9110   73.7810  222.7340 H   0  0  0  0  0  0  0  0  0  0  0  0
  138.0256   71.5555  221.8199 H   0  0  0  0  0  0  0  0  0  0  0  0
  139.4832   72.0280  220.8925 H   0  0  0  0  0  0  0  0  0  0  0  0
  137.8760   71.3251  225.3783 H   0  0  0  0  0  0  0  0  0  0  0  0
  137.4880   71.7046  223.6743 H   0  0  0  0  0  0  0  0  0  0  0  0
  136.5841   69.4952  225.1968 H   0  0  0  0  0  0  0  0  0  0  0  0
  136.3957   69.7547  223.4225 H   0  0  0  0  0  0  0  0  0  0  0  0
  137.4504   67.5814  224.1172 H   0  0  0  0  0  0  0  0  0  0  0  0
  138.3901   68.6170  222.9497 H   0  0  0  0  0  0  0  0  0  0  0  0
  138.8913   68.5276  225.9466 H   0  0  0  0  0  0  0  0  0  0  0  0
  139.7914   67.5547  224.7329 H   0  0  0  0  0  0  0  0  0  0  0  0
  140.9186   69.3093  223.9584 H   0  0  0  0  0  0  0  0  0  0  0  0
  141.8487   70.0102  225.5666 H   0  0  0  0  0  0  0  0  0  0  0  0
  141.0493   72.2432  225.0304 H   0  0  0  0  0  0  0  0  0  0  0  0
  139.5776   72.0427  225.9769 H   0  0  0  0  0  0  0  0  0  0  0  0
  142.3863   71.5852  227.1938 H   0  0  0  0  0  0  0  0  0  0  0  0
  141.6381   73.1944  227.2033 H   0  0  0  0  0  0  0  0  0  0  0  0
  141.2206   71.6281  229.2403 H   0  0  0  0  0  0  0  0  0  0  0  0
  139.7890   72.4560  228.4779 H   0  0  0  0  0  0  0  0  0  0  0  0
  139.8886   69.8141  229.0901 H   0  0  0  0  0  0  0  0  0  0  0  0
  138.8749   70.5548  227.7813 H   0  0  0  0  0  0  0  0  0  0  0  0
  141.6050   69.2618  227.4878 H   0  0  0  0  0  0  0  0  0  0  0  0
  139.9838   68.6495  226.9034 H   0  0  0  0  0  0  0  0  0  0  0  0
  137.5220   75.7409  222.0362 H   0  0  0  0  0  0  0  0  0  0  0  0
  137.2497   78.1562  222.6189 H   0  0  0  0  0  0  0  0  0  0  0  0
  138.1732   80.2639  223.2557 H   0  0  0  0  0  0  0  0  0  0  0  0
  140.1892   81.6249  223.8302 H   0  0  0  0  0  0  0  0  0  0  0  0
  142.7086   78.1842  223.2445 H   0  0  0  0  0  0  0  0  0  0  0  0
  1  2  2  0
  2  3  1  0
  3  4  1  0
  4  5  1  0
  5  6  2  0
  5  7  1  0
  7  8  1  0
  8  9  1  0
  9 10  1  0
 10 11  1  0
 11 12  1  0
 12 13  1  0
 13 14  1  0
 14 15  1  0
 15 16  1  0
 16 17  1  0
 17 18  1  0
  2 19  1  0
 19 20  2  0
 20 21  1  0
 21 22  2  0
 22 23  1  0
 23 24  2  0
 24 25  1  0
 25 26  1  0
 25 27  2  0
 27 28  1  0
 28 29  2  0
 12  7  1  0
 18 13  1  0
 29 19  1  0
 28 22  1  0
  3 30  1  0
  4 31  1  0
  4 32  1  0
  8 33  1  0
  8 34  1  0
  9 35  1  0
  9 36  1  0
 10 37  1  0
 10 38  1  0
 11 39  1  0
 11 40  1  0
 12 41  1  6
 13 42  1  0
 14 43  1  0
 14 44  1  0
 15 45  1  0
 15 46  1  0
 16 47  1  0
 16 48  1  0
 17 49  1  0
 17 50  1  0
 18 51  1  0
 18 52  1  0
 20 53  1  0
 21 54  1  0
 23 55  1  0
 24 56  1  0
 27 57  1  0
M  END
>  <smiles>  (35) 
O=C(NCC(=O)N1CCCCC1C1CCCCC1)c1ccc2ccc(Cl)cc2n1

>  <score_type>  (35) 
oracle

>  <origin>  (35) 
autodockgpu

>  <m_score__min__energy>  (35) 
-9.5600000000000005

>  <m_primary>  (35) 
energy

>  <rmsd>  (35) 
8.188069948239518

>  <m_score__min__rmsd>  (35) 
8.188069948239518

>  <meeko>  (35) 
{"free_energy": -9.56, "intermolecular_energy": -11.05, "internal_energy": -1.5, "cluster_size": 17, "cluster_id": 1, "rank_in_cluster": 1}

>  <energy>  (35) 
-8.47

>  <cluster_rmsd>  (35) 
1.7

>  <cluster>  (35) 
2

$$$$

     RDKit          3D

 57 60  0  0  0  0  0  0  0  0999 V2000
  136.7600   74.9670  222.3160 O   0  0  0  0  0  0  0  0  0  0  0  0
  137.9680   75.3250  222.3130 C   0  0  0  0  0  0  0  0  0  0  0  0
  138.9380   74.3190  222.0940 N   0  0  0  0  0  0  0  0  0  0  0  0
  138.4630   72.9650  221.8910 C   0  0  0  0  0  0  0  0  0  0  0  0
  139.2650   72.0470  222.7360 C   0  0  0  0  0  0  0  0  0  0  0  0
  140.4630   72.3710  222.9440 O   0  0  0  0  0  0  0  0  0  0  0  0
  138.6930   70.8430  223.2880 N   0  0  0  0  0  0  0  0  0  0  0  0
  137.2800   70.6210  223.0800 C   0  0  0  0  0  0  0  0  0  0  0  0
  137.1050   69.2860  222.3980 C   0  0  0  0  0  0  0  0  0  0  0  0
  138.4060   68.5680  222.3220 C   0  0  0  0  0  0  0  0  0  0  0  0
  139.1480   68.5520  223.6470 C   0  0  0  0  0  0  0  0  0  0  0  0
  139.5660   69.9380  224.0010 C   0  0  2  0  0  0  0  0  0  0  0  0
  139.5480   70.2410  225.4590 C   0  0  0  0  0  0  0  0  0  0  0  0
  139.9620   69.0510  226.3220 C   0  0  0  0  0  0  0  0  0  0  0  0
  139.8620   69.5660  227.7640 C   0  0  0  0  0  0  0  0  0  0  0  0
  141.0630   70.4480  227.9880 C   0  0  0  0  0  0  0  0  0  0  0  0
  141.3800   71.3170  226.7930 C   0  0  0  0  0  0  0  0  0  0  0  0
  140.1710   71.5100  225.9020 C   0  0  0  0  0  0  0  0  0  0  0  0
  138.3570   76.7170  222.5270 C   0  0  0  0  0  0  0  0  0  0  0  0
  137.3440   77.6760  222.5690 C   0  0  0  0  0  0  0  0  0  0  0  0
  137.6910   79.0120  222.7720 C   0  0  0  0  0  0  0  0  0  0  0  0
  139.0280   79.3850  222.9320 C   0  0  0  0  0  0  0  0  0  0  0  0
  139.3310   80.7160  223.1300 C   0  0  0  0  0  0  0  0  0  0  0  0
  140.6610   81.0550  223.2850 C   0  0  0  0  0  0  0  0  0  0  0  0
  141.6440   80.0750  223.2380 C   0  0  0  0  0  0  0  0  0  0  0  0
  143.3310   80.4990  223.4340 Cl  0  0  0  0  0  0  0  0  0  0  0  0
  141.3060   78.7500  223.0380 C   0  0  0  0  0  0  0  0  0  0  0  0
  139.9830   78.3910  222.8810 C   0  0  0  0  0  0  0  0  0  0  0  0
  139.6360   77.1070  222.6840 N   0  0  0  0  0  0  0  0  0  0  0  0
  139.9530   74.5640  222.0820 H   0  0  0  0  0  0  0  0  0  0  0  0
  137.4026   72.8984  222.1757 H   0  0  0  0  0  0  0  0  0  0  0  0
  138.5675   72.6864  220.8320 H   0  0  0  0  0  0  0  0  0  0  0  0
  136.7580   70.6152  224.0482 H   0  0  0  0  0  0  0  0  0  0  0  0
  136.8582   71.4231  222.4565 H   0  0  0  0  0  0  0  0  0  0  0  0
  136.3883   68.6781  222.9697 H   0  0  0  0  0  0  0  0  0  0  0  0
  136.7294   69.4530  221.3777 H   0  0  0  0  0  0  0  0  0  0  0  0
  138.2167   67.5295  222.0127 H   0  0  0  0  0  0  0  0  0  0  0  0
  139.0367   69.1017  221.5958 H   0  0  0  0  0  0  0  0  0  0  0  0
  138.4869   68.1569  224.4324 H   0  0  0  0  0  0  0  0  0  0  0  0
  140.0385   67.9122  223.5600 H   0  0  0  0  0  0  0  0  0  0  0  0
  140.6200   70.0561  223.7092 H   0  0  0  0  0  0  0  0  0  0  0  0
  138.4790   70.4325  225.6335 H   0  0  0  0  0  0  0  0  0  0  0  0
  139.2810   68.2016  226.1648 H   0  0  0  0  0  0  0  0  0  0  0  0
  140.9715   68.6890  226.0772 H   0  0  0  0  0  0  0  0  0  0  0  0
  138.9358   70.1442  227.8976 H   0  0  0  0  0  0  0  0  0  0  0  0
  139.8403   68.7337  228.4829 H   0  0  0  0  0  0  0  0  0  0  0  0
  140.8657   71.0980  228.8532 H   0  0  0  0  0  0  0  0  0  0  0  0
  141.9290   69.7921  228.1607 H   0  0  0  0  0  0  0  0  0  0  0  0
  141.7211   72.3005  227.1484 H   0  0  0  0  0  0  0  0  0  0  0  0
  142.1626   70.8164  226.2040 H   0  0  0  0  0  0  0  0  0  0  0  0
  139.4195   72.0903  226.4575 H   0  0  0  0  0  0  0  0  0  0  0  0
  140.5187   72.0300  224.9972 H   0  0  0  0  0  0  0  0  0  0  0  0
  136.2909   77.3838  222.4443 H   0  0  0  0  0  0  0  0  0  0  0  0
  136.9039   79.7796  222.8064 H   0  0  0  0  0  0  0  0  0  0  0  0
  138.5410   81.4808  223.1633 H   0  0  0  0  0  0  0  0  0  0  0  0
  140.9429   82.1059  223.4464 H   0  0  0  0  0  0  0  0  0  0  0  0
  142.0920   77.9812  223.0039 H   0  0  0  0  0  0  0  0  0  0  0  0
  1  2  2  0
  2  3  1  0
  3  4  1  0
  4  5  1  0
  5  6  2  0
  5  7  1  0
  7  8  1  0
  8  9  1  0
  9 10  1  0
 10 11  1  0
 11 12  1  0
 12 13  1  0
 13 14  1  0
 14 15  1  0
 15 16  1  0
 16 17  1  0
 17 18  1  0
  2 19  1  0
 19 20  2  0
 20 21  1  0
 21 22  2  0
 22 23  1  0
 23 24  2  0
 24 25  1  0
 25 26  1  0
 25 27  2  0
 27 28  1  0
 28 29  2  0
 12  7  1  0
 18 13  1  0
 29 19  1  0
 28 22  1  0
  3 30  1  0
  4 31  1  0
  4 32  1  0
  8 33  1  0
  8 34  1  0
  9 35  1  0
  9 36  1  0
 10 37  1  0
 10 38  1  0
 11 39  1  0
 11 40  1  0
 12 41  1  6
 13 42  1  0
 14 43  1  0
 14 44  1  0
 15 45  1  0
 15 46  1  0
 16 47  1  0
 16 48  1  0
 17 49  1  0
 17 50  1  0
 18 51  1  0
 18 52  1  0
 20 53  1  0
 21 54  1  0
 23 55  1  0
 24 56  1  0
 27 57  1  0
M  END
>  <smiles>  (36) 
O=C(NCC(=O)N1CCCCC1C1CCCCC1)c1ccc2ccc(Cl)cc2n1

>  <score_type>  (36) 
oracle

>  <origin>  (36) 
autodockgpu

>  <m_score__min__energy>  (36) 
-9.5600000000000005

>  <m_primary>  (36) 
energy

>  <rmsd>  (36) 
8.318235011446228

>  <m_score__min__rmsd>  (36) 
8.318235011446228

>  <meeko>  (36) 
{"free_energy": -8.03, "intermolecular_energy": -9.52, "internal_energy": -1.91, "cluster_size": 17, "cluster_id": 1, "rank_in_cluster": 17}

>  <energy>  (36) 
-8.46

>  <cluster_rmsd>  (36) 
1.56

>  <cluster>  (36) 
2

$$$$

     RDKit          3D

 57 60  0  0  0  0  0  0  0  0999 V2000
  140.9920   74.1270  220.7970 O   0  0  0  0  0  0  0  0  0  0  0  0
  140.1930   74.7600  221.5370 C   0  0  0  0  0  0  0  0  0  0  0  0
  139.1290   74.0270  222.1120 N   0  0  0  0  0  0  0  0  0  0  0  0
  139.0470   72.6140  221.8030 C   0  0  0  0  0  0  0  0  0  0  0  0
  139.8830   71.8640  222.7730 C   0  0  0  0  0  0  0  0  0  0  0  0
  141.1300   72.0020  222.6700 O   0  0  0  0  0  0  0  0  0  0  0  0
  139.2880   71.0200  223.7800 N   0  0  0  0  0  0  0  0  0  0  0  0
  137.9330   71.3170  224.1840 C   0  0  0  0  0  0  0  0  0  0  0  0
  137.0930   70.0820  223.9740 C   0  0  0  0  0  0  0  0  0  0  0  0
  137.9530   68.9280  223.5930 C   0  0  0  0  0  0  0  0  0  0  0  0
  139.1620   68.7710  224.4970 C   0  0  0  0  0  0  0  0  0  0  0  0
  140.0790   69.9310  224.3120 C   0  0  2  0  0  0  0  0  0  0  0  0
  140.7950   70.3640  225.5430 C   0  0  0  0  0  0  0  0  0  0  0  0
  140.6260   71.8520  225.8410 C   0  0  0  0  0  0  0  0  0  0  0  0
  141.4440   72.0860  227.1190 C   0  0  0  0  0  0  0  0  0  0  0  0
  140.6290   71.5250  228.2560 C   0  0  0  0  0  0  0  0  0  0  0  0
  139.9540   70.2190  227.9020 C   0  0  0  0  0  0  0  0  0  0  0  0
  140.6500   69.5210  226.7520 C   0  0  0  0  0  0  0  0  0  0  0  0
  140.3530   76.1890  221.7940 C   0  0  0  0  0  0  0  0  0  0  0  0
  141.4820   76.8220  221.2700 C   0  0  0  0  0  0  0  0  0  0  0  0
  141.6560   78.1860  221.5030 C   0  0  0  0  0  0  0  0  0  0  0  0
  140.7180   78.9090  222.2460 C   0  0  0  0  0  0  0  0  0  0  0  0
  140.9270   80.2560  222.4550 C   0  0  0  0  0  0  0  0  0  0  0  0
  139.9840   80.9450  223.1930 C   0  0  0  0  0  0  0  0  0  0  0  0
  138.8720   80.2830  223.6990 C   0  0  0  0  0  0  0  0  0  0  0  0
  137.6730   81.1500  224.6350 Cl  0  0  0  0  0  0  0  0  0  0  0  0
  138.6930   78.9320  223.4720 C   0  0  0  0  0  0  0  0  0  0  0  0
  139.6250   78.2270  222.7380 C   0  0  0  0  0  0  0  0  0  0  0  0
  139.4680   76.9120  222.5060 N   0  0  0  0  0  0  0  0  0  0  0  0
  138.4400   74.5060  222.7340 H   0  0  0  0  0  0  0  0  0  0  0  0
  138.0020   72.2789  221.8786 H   0  0  0  0  0  0  0  0  0  0  0  0
  139.4079   72.4332  220.7797 H   0  0  0  0  0  0  0  0  0  0  0  0
  137.9159   71.6019  225.2463 H   0  0  0  0  0  0  0  0  0  0  0  0
  137.5347   72.1513  223.5879 H   0  0  0  0  0  0  0  0  0  0  0  0
  136.5591   69.8440  224.9058 H   0  0  0  0  0  0  0  0  0  0  0  0
  136.3734   70.2734  223.1643 H   0  0  0  0  0  0  0  0  0  0  0  0
  137.3517   68.0085  223.6477 H   0  0  0  0  0  0  0  0  0  0  0  0
  138.3236   69.1136  222.5741 H   0  0  0  0  0  0  0  0  0  0  0  0
  138.8320   68.7289  225.5455 H   0  0  0  0  0  0  0  0  0  0  0  0
  139.6920   67.8420  224.2399 H   0  0  0  0  0  0  0  0  0  0  0  0
  140.8800   69.6193  223.6255 H   0  0  0  0  0  0  0  0  0  0  0  0
  141.8442   70.1899  225.2623 H   0  0  0  0  0  0  0  0  0  0  0  0
  141.0171   72.4609  225.0126 H   0  0  0  0  0  0  0  0  0  0  0  0
  139.5703   72.1358  225.9634 H   0  0  0  0  0  0  0  0  0  0  0  0
  142.4112   71.5664  227.0519 H   0  0  0  0  0  0  0  0  0  0  0  0
  141.6524   73.1557  227.2682 H   0  0  0  0  0  0  0  0  0  0  0  0
  141.2942   71.3556  229.1156 H   0  0  0  0  0  0  0  0  0  0  0  0
  139.8393   72.2542  228.4899 H   0  0  0  0  0  0  0  0  0  0  0  0
  139.9710   69.5592  228.7820 H   0  0  0  0  0  0  0  0  0  0  0  0
  138.9213   70.4398  227.5940 H   0  0  0  0  0  0  0  0  0  0  0  0
  141.6532   69.2177  227.0861 H   0  0  0  0  0  0  0  0  0  0  0  0
  140.0231   68.6619  226.4711 H   0  0  0  0  0  0  0  0  0  0  0  0
  142.2206   76.2552  220.6842 H   0  0  0  0  0  0  0  0  0  0  0  0
  142.5409   78.6986  221.0978 H   0  0  0  0  0  0  0  0  0  0  0  0
  141.8137   80.7642  222.0482 H   0  0  0  0  0  0  0  0  0  0  0  0
  140.1139   82.0211  223.3806 H   0  0  0  0  0  0  0  0  0  0  0  0
  137.8081   78.4186  223.8761 H   0  0  0  0  0  0  0  0  0  0  0  0
  1  2  2  0
  2  3  1  0
  3  4  1  0
  4  5  1  0
  5  6  2  0
  5  7  1  0
  7  8  1  0
  8  9  1  0
  9 10  1  0
 10 11  1  0
 11 12  1  0
 12 13  1  0
 13 14  1  0
 14 15  1  0
 15 16  1  0
 16 17  1  0
 17 18  1  0
  2 19  1  0
 19 20  2  0
 20 21  1  0
 21 22  2  0
 22 23  1  0
 23 24  2  0
 24 25  1  0
 25 26  1  0
 25 27  2  0
 27 28  1  0
 28 29  2  0
 12  7  1  0
 18 13  1  0
 29 19  1  0
 28 22  1  0
  3 30  1  0
  4 31  1  0
  4 32  1  0
  8 33  1  0
  8 34  1  0
  9 35  1  0
  9 36  1  0
 10 37  1  0
 10 38  1  0
 11 39  1  0
 11 40  1  0
 12 41  1  6
 13 42  1  0
 14 43  1  0
 14 44  1  0
 15 45  1  0
 15 46  1  0
 16 47  1  0
 16 48  1  0
 17 49  1  0
 17 50  1  0
 18 51  1  0
 18 52  1  0
 20 53  1  0
 21 54  1  0
 23 55  1  0
 24 56  1  0
 27 57  1  0
M  END
>  <smiles>  (37) 
O=C(NCC(=O)N1CCCCC1C1CCCCC1)c1ccc2ccc(Cl)cc2n1

>  <score_type>  (37) 
oracle

>  <origin>  (37) 
autodockgpu

>  <m_score__min__energy>  (37) 
-9.5600000000000005

>  <m_primary>  (37) 
energy

>  <rmsd>  (37) 
8.349724940851358

>  <m_score__min__rmsd>  (37) 
8.349724940851358

>  <meeko>  (37) 
{"free_energy": -8.75, "intermolecular_energy": -10.24, "internal_energy": -1.66, "cluster_size": 17, "cluster_id": 1, "rank_in_cluster": 9}

>  <energy>  (37) 
-8.43

>  <cluster_rmsd>  (37) 
1.52

>  <cluster>  (37) 
2

$$$$

     RDKit          3D

 57 60  0  0  0  0  0  0  0  0999 V2000
  141.4920   73.1020  221.6350 O   0  0  0  0  0  0  0  0  0  0  0  0
  140.4260   72.9980  222.2990 C   0  0  0  0  0  0  0  0  0  0  0  0
  139.5830   74.1320  222.3460 N   0  0  0  0  0  0  0  0  0  0  0  0
  140.0130   75.3150  221.6300 C   0  0  0  0  0  0  0  0  0  0  0  0
  139.2700   76.4870  222.1540 C   0  0  0  0  0  0  0  0  0  0  0  0
  138.1350   76.2610  222.6500 O   0  0  0  0  0  0  0  0  0  0  0  0
  139.8250   77.8170  222.0930 N   0  0  0  0  0  0  0  0  0  0  0  0
  138.9810   78.9110  222.5120 C   0  0  0  0  0  0  0  0  0  0  0  0
  139.6900   79.6660  223.6090 C   0  0  0  0  0  0  0  0  0  0  0  0
  141.0770   79.1530  223.7780 C   0  0  0  0  0  0  0  0  0  0  0  0
  141.8230   79.0260  222.4620 C   0  0  0  0  0  0  0  0  0  0  0  0
  141.1870   77.9670  221.6280 C   0  0  2  0  0  0  0  0  0  0  0  0
  141.2090   78.2290  220.1630 C   0  0  0  0  0  0  0  0  0  0  0  0
  141.8510   79.5680  219.8050 C   0  0  0  0  0  0  0  0  0  0  0  0
  141.7580   79.6440  218.2750 C   0  0  0  0  0  0  0  0  0  0  0  0
  142.8200   78.7220  217.7350 C   0  0  0  0  0  0  0  0  0  0  0  0
  142.9290   77.4340  218.5190 C   0  0  0  0  0  0  0  0  0  0  0  0
  141.6540   77.1290  219.2770 C   0  0  0  0  0  0  0  0  0  0  0  0
  140.0710   71.7610  222.9930 C   0  0  0  0  0  0  0  0  0  0  0  0
  139.2270   70.8660  222.3350 C   0  0  0  0  0  0  0  0  0  0  0  0
  138.8750   69.6790  222.9780 C   0  0  0  0  0  0  0  0  0  0  0  0
  139.3580   69.3900  224.2580 C   0  0  0  0  0  0  0  0  0  0  0  0
  138.9860   68.2060  224.8600 C   0  0  0  0  0  0  0  0  0  0  0  0
  139.4780   67.9480  226.1250 C   0  0  0  0  0  0  0  0  0  0  0  0
  140.3170   68.8620  226.7500 C   0  0  0  0  0  0  0  0  0  0  0  0
  140.9440   68.5400  228.3520 Cl  0  0  0  0  0  0  0  0  0  0  0  0
  140.6700   70.0390  226.1180 C   0  0  0  0  0  0  0  0  0  0  0  0
  140.1880   70.3150  224.8550 C   0  0  0  0  0  0  0  0  0  0  0  0
  140.5200   71.4560  224.2250 N   0  0  0  0  0  0  0  0  0  0  0  0
  138.6870   74.0970  222.8830 H   0  0  0  0  0  0  0  0  0  0  0  0
  141.0926   75.4651  221.7785 H   0  0  0  0  0  0  0  0  0  0  0  0
  139.8122   75.1951  220.5552 H   0  0  0  0  0  0  0  0  0  0  0  0
  138.7927   79.5820  221.6609 H   0  0  0  0  0  0  0  0  0  0  0  0
  138.0180   78.5264  222.8791 H   0  0  0  0  0  0  0  0  0  0  0  0
  139.7276   80.7340  223.3483 H   0  0  0  0  0  0  0  0  0  0  0  0
  139.1403   79.5266  224.5515 H   0  0  0  0  0  0  0  0  0  0  0  0
  141.6303   79.8448  224.4301 H   0  0  0  0  0  0  0  0  0  0  0  0
  141.0062   78.1466  224.2164 H   0  0  0  0  0  0  0  0  0  0  0  0
  141.7861   79.9858  221.9259 H   0  0  0  0  0  0  0  0  0  0  0  0
  142.8707   78.7555  222.6601 H   0  0  0  0  0  0  0  0  0  0  0  0
  141.7753   77.0455  221.7497 H   0  0  0  0  0  0  0  0  0  0  0  0
  140.1354   78.2932  219.9324 H   0  0  0  0  0  0  0  0  0  0  0  0
  141.3004   80.3993  220.2694 H   0  0  0  0  0  0  0  0  0  0  0  0
  142.8878   79.6433  220.1645 H   0  0  0  0  0  0  0  0  0  0  0  0
  140.7634   79.3164  217.9381 H   0  0  0  0  0  0  0  0  0  0  0  0
  141.9068   80.6739  217.9183 H   0  0  0  0  0  0  0  0  0  0  0  0
  142.5764   78.4784  216.6903 H   0  0  0  0  0  0  0  0  0  0  0  0
  143.7852   79.2433  217.8171 H   0  0  0  0  0  0  0  0  0  0  0  0
  143.1350   76.6087  217.8216 H   0  0  0  0  0  0  0  0  0  0  0  0
  143.7435   77.5458  219.2498 H   0  0  0  0  0  0  0  0  0  0  0  0
  140.8562   76.9270  218.5471 H   0  0  0  0  0  0  0  0  0  0  0  0
  141.8634   76.2626  219.9216 H   0  0  0  0  0  0  0  0  0  0  0  0
  138.8462   71.0920  221.3281 H   0  0  0  0  0  0  0  0  0  0  0  0
  138.2104   68.9628  222.4726 H   0  0  0  0  0  0  0  0  0  0  0  0
  138.3212   67.4926  224.3510 H   0  0  0  0  0  0  0  0  0  0  0  0
  139.2043   67.0150  226.6394 H   0  0  0  0  0  0  0  0  0  0  0  0
  141.3352   70.7558  226.6217 H   0  0  0  0  0  0  0  0  0  0  0  0
  1  2  2  0
  2  3  1  0
  3  4  1  0
  4  5  1  0
  5  6  2  0
  5  7  1  0
  7  8  1  0
  8  9  1  0
  9 10  1  0
 10 11  1  0
 11 12  1  0
 12 13  1  0
 13 14  1  0
 14 15  1  0
 15 16  1  0
 16 17  1  0
 17 18  1  0
  2 19  1  0
 19 20  2  0
 20 21  1  0
 21 22  2  0
 22 23  1  0
 23 24  2  0
 24 25  1  0
 25 26  1  0
 25 27  2  0
 27 28  1  0
 28 29  2  0
 12  7  1  0
 18 13  1  0
 29 19  1  0
 28 22  1  0
  3 30  1  0
  4 31  1  0
  4 32  1  0
  8 33  1  0
  8 34  1  0
  9 35  1  0
  9 36  1  0
 10 37  1  0
 10 38  1  0
 11 39  1  0
 11 40  1  0
 12 41  1  6
 13 42  1  0
 14 43  1  0
 14 44  1  0
 15 45  1  0
 15 46  1  0
 16 47  1  0
 16 48  1  0
 17 49  1  0
 17 50  1  0
 18 51  1  0
 18 52  1  0
 20 53  1  0
 21 54  1  0
 23 55  1  0
 24 56  1  0
 27 57  1  0
M  END
>  <smiles>  (38) 
O=C(NCC(=O)N1CCCCC1C1CCCCC1)c1ccc2ccc(Cl)cc2n1

>  <score_type>  (38) 
oracle

>  <origin>  (38) 
autodockgpu

>  <m_score__min__energy>  (38) 
-9.5600000000000005

>  <m_primary>  (38) 
energy

>  <rmsd>  (38) 
3.6538368522566227

>  <m_score__min__rmsd>  (38) 
3.6538368522566227

>  <meeko>  (38) 
{"free_energy": -8.66, "intermolecular_energy": -10.16, "internal_energy": -1.91, "cluster_size": 24, "cluster_id": 2, "rank_in_cluster": 13}

>  <energy>  (38) 
-8.39

>  <cluster_rmsd>  (38) 
0.8

>  <cluster>  (38) 
2

$$$$

     RDKit          3D

 57 60  0  0  0  0  0  0  0  0999 V2000
  140.7460   74.0120  220.9320 O   0  0  0  0  0  0  0  0  0  0  0  0
  139.8450   74.4190  221.7140 C   0  0  0  0  0  0  0  0  0  0  0  0
  138.9500   73.4520  222.2240 N   0  0  0  0  0  0  0  0  0  0  0  0
  139.1410   72.0770  221.8070 C   0  0  0  0  0  0  0  0  0  0  0  0
  139.9740   71.3830  222.8190 C   0  0  0  0  0  0  0  0  0  0  0  0
  141.2220   71.4680  222.6790 O   0  0  0  0  0  0  0  0  0  0  0  0
  139.3770   70.6500  223.9080 N   0  0  0  0  0  0  0  0  0  0  0  0
  138.0060   70.9580  224.2470 C   0  0  0  0  0  0  0  0  0  0  0  0
  137.1990   69.6860  224.1680 C   0  0  0  0  0  0  0  0  0  0  0  0
  138.0940   68.5180  223.9440 C   0  0  0  0  0  0  0  0  0  0  0  0
  139.2850   68.4990  224.8840 C   0  0  0  0  0  0  0  0  0  0  0  0
  140.1790   69.6510  224.5810 C   0  0  2  0  0  0  0  0  0  0  0  0
  140.8570   70.2440  225.7660 C   0  0  0  0  0  0  0  0  0  0  0  0
  140.6710   71.7570  225.8670 C   0  0  0  0  0  0  0  0  0  0  0  0
  141.4500   72.1590  227.1260 C   0  0  0  0  0  0  0  0  0  0  0  0
  140.6070   71.7390  228.3030 C   0  0  0  0  0  0  0  0  0  0  0  0
  139.9500   70.3930  228.1000 C   0  0  0  0  0  0  0  0  0  0  0  0
  140.6830   69.5600  227.0680 C   0  0  0  0  0  0  0  0  0  0  0  0
  139.7270   75.8290  222.0800 C   0  0  0  0  0  0  0  0  0  0  0  0
  138.4530   76.3980  222.0730 C   0  0  0  0  0  0  0  0  0  0  0  0
  138.3160   77.7420  222.4190 C   0  0  0  0  0  0  0  0  0  0  0  0
  139.4320   78.5070  222.7680 C   0  0  0  0  0  0  0  0  0  0  0  0
  139.2550   79.8330  223.1020 C   0  0  0  0  0  0  0  0  0  0  0  0
  140.3770   80.5650  223.4420 C   0  0  0  0  0  0  0  0  0  0  0  0
  141.6300   79.9660  223.4390 C   0  0  0  0  0  0  0  0  0  0  0  0
  143.0560   80.8870  223.8690 Cl  0  0  0  0  0  0  0  0  0  0  0  0
  141.7730   78.6350  223.0980 C   0  0  0  0  0  0  0  0  0  0  0  0
  140.6650   77.8880  222.7550 C   0  0  0  0  0  0  0  0  0  0  0  0
  140.7840   76.5910  222.4200 N   0  0  0  0  0  0  0  0  0  0  0  0
  138.1850   73.7380  222.8760 H   0  0  0  0  0  0  0  0  0  0  0  0
  138.1650   71.5764  221.7250 H   0  0  0  0  0  0  0  0  0  0  0  0
  139.6412   72.0490  220.8277 H   0  0  0  0  0  0  0  0  0  0  0  0
  137.9582   71.3656  225.2676 H   0  0  0  0  0  0  0  0  0  0  0  0
  137.6026   71.7057  223.5482 H   0  0  0  0  0  0  0  0  0  0  0  0
  136.6493   69.5462  225.1105 H   0  0  0  0  0  0  0  0  0  0  0  0
  136.4937   69.7620  223.3273 H   0  0  0  0  0  0  0  0  0  0  0  0
  137.5129   67.5963  224.0948 H   0  0  0  0  0  0  0  0  0  0  0  0
  138.4838   68.5923  222.9181 H   0  0  0  0  0  0  0  0  0  0  0  0
  138.9323   68.5728  225.9233 H   0  0  0  0  0  0  0  0  0  0  0  0
  139.8414   67.5596  224.7498 H   0  0  0  0  0  0  0  0  0  0  0  0
  141.0016   69.2800  223.9519 H   0  0  0  0  0  0  0  0  0  0  0  0
  141.9149   70.0459  225.5389 H   0  0  0  0  0  0  0  0  0  0  0  0
  141.0824   72.2590  224.9789 H   0  0  0  0  0  0  0  0  0  0  0  0
  139.6107   72.0443  225.9228 H   0  0  0  0  0  0  0  0  0  0  0  0
  142.4220   71.6447  227.1519 H   0  0  0  0  0  0  0  0  0  0  0  0
  141.6468   73.2411  227.1435 H   0  0  0  0  0  0  0  0  0  0  0  0
  141.2491   71.6862  229.1946 H   0  0  0  0  0  0  0  0  0  0  0  0
  139.8068   72.4845  228.4211 H   0  0  0  0  0  0  0  0  0  0  0  0
  139.9452   69.8510  229.0572 H   0  0  0  0  0  0  0  0  0  0  0  0
  138.9255   70.5633  227.7375 H   0  0  0  0  0  0  0  0  0  0  0  0
  141.6781   69.3113  227.4654 H   0  0  0  0  0  0  0  0  0  0  0  0
  140.0700   68.6657  226.8822 H   0  0  0  0  0  0  0  0  0  0  0  0
  137.5729   75.7975  221.7996 H   0  0  0  0  0  0  0  0  0  0  0  0
  137.3182   78.2051  222.4172 H   0  0  0  0  0  0  0  0  0  0  0  0
  138.2555   80.2923  223.0980 H   0  0  0  0  0  0  0  0  0  0  0  0
  140.2772   81.6257  223.7159 H   0  0  0  0  0  0  0  0  0  0  0  0
  142.7702   78.1708  223.1000 H   0  0  0  0  0  0  0  0  0  0  0  0
  1  2  2  0
  2  3  1  0
  3  4  1  0
  4  5  1  0
  5  6  2  0
  5  7  1  0
  7  8  1  0
  8  9  1  0
  9 10  1  0
 10 11  1  0
 11 12  1  0
 12 13  1  0
 13 14  1  0
 14 15  1  0
 15 16  1  0
 16 17  1  0
 17 18  1  0
  2 19  1  0
 19 20  2  0
 20 21  1  0
 21 22  2  0
 22 23  1  0
 23 24  2  0
 24 25  1  0
 25 26  1  0
 25 27  2  0
 27 28  1  0
 28 29  2  0
 12  7  1  0
 18 13  1  0
 29 19  1  0
 28 22  1  0
  3 30  1  0
  4 31  1  0
  4 32  1  0
  8 33  1  0
  8 34  1  0
  9 35  1  0
  9 36  1  0
 10 37  1  0
 10 38  1  0
 11 39  1  0
 11 40  1  0
 12 41  1  6
 13 42  1  0
 14 43  1  0
 14 44  1  0
 15 45  1  0
 15 46  1  0
 16 47  1  0
 16 48  1  0
 17 49  1  0
 17 50  1  0
 18 51  1  0
 18 52  1  0
 20 53  1  0
 21 54  1  0
 23 55  1  0
 24 56  1  0
 27 57  1  0
M  END
>  <smiles>  (39) 
O=C(NCC(=O)N1CCCCC1C1CCCCC1)c1ccc2ccc(Cl)cc2n1

>  <score_type>  (39) 
oracle

>  <origin>  (39) 
autodockgpu

>  <m_score__min__energy>  (39) 
-9.5600000000000005

>  <m_primary>  (39) 
energy

>  <rmsd>  (39) 
8.19432018501302

>  <m_score__min__rmsd>  (39) 
8.19432018501302

>  <meeko>  (39) 
{"free_energy": -9.53, "intermolecular_energy": -11.03, "internal_energy": -1.49, "cluster_size": 17, "cluster_id": 1, "rank_in_cluster": 2}

>  <energy>  (39) 
-8.36

>  <cluster_rmsd>  (39) 
0.96

>  <cluster>  (39) 
2

$$$$

     RDKit          3D

 57 60  0  0  0  0  0  0  0  0999 V2000
  141.5990   72.1920  221.3930 O   0  0  0  0  0  0  0  0  0  0  0  0
  140.6690   72.3520  222.2280 C   0  0  0  0  0  0  0  0  0  0  0  0
  140.0730   73.6320  222.2910 N   0  0  0  0  0  0  0  0  0  0  0  0
  140.5800   74.6510  221.3940 C   0  0  0  0  0  0  0  0  0  0  0  0
  140.0350   75.9660  221.8090 C   0  0  0  0  0  0  0  0  0  0  0  0
  139.2380   75.9670  222.7830 O   0  0  0  0  0  0  0  0  0  0  0  0
  140.4050   77.1810  221.1250 N   0  0  0  0  0  0  0  0  0  0  0  0
  141.5080   77.1130  220.1950 C   0  0  0  0  0  0  0  0  0  0  0  0
  141.0270   77.5980  218.8500 C   0  0  0  0  0  0  0  0  0  0  0  0
  139.6470   78.1440  218.9600 C   0  0  0  0  0  0  0  0  0  0  0  0
  139.4870   79.1130  220.1180 C   0  0  0  0  0  0  0  0  0  0  0  0
  139.6470   78.3810  221.4060 C   0  0  2  0  0  0  0  0  0  0  0  0
  140.2980   79.1640  222.4920 C   0  0  0  0  0  0  0  0  0  0  0  0
  141.4510   78.4160  223.1590 C   0  0  0  0  0  0  0  0  0  0  0  0
  141.9610   79.3780  224.2400 C   0  0  0  0  0  0  0  0  0  0  0  0
  142.7530   80.4430  223.5260 C   0  0  0  0  0  0  0  0  0  0  0  0
  142.1070   80.8810  222.2310 C   0  0  0  0  0  0  0  0  0  0  0  0
  140.6230   80.5820  222.2140 C   0  0  0  0  0  0  0  0  0  0  0  0
  140.2210   71.2650  223.0960 C   0  0  0  0  0  0  0  0  0  0  0  0
  139.2020   70.4350  222.6280 C   0  0  0  0  0  0  0  0  0  0  0  0
  138.7590   69.3910  223.4400 C   0  0  0  0  0  0  0  0  0  0  0  0
  139.3250   69.1770  224.7000 C   0  0  0  0  0  0  0  0  0  0  0  0
  138.8580   68.1350  225.4730 C   0  0  0  0  0  0  0  0  0  0  0  0
  139.4360   67.9480  226.7140 C   0  0  0  0  0  0  0  0  0  0  0  0
  140.4490   68.7930  227.1490 C   0  0  0  0  0  0  0  0  0  0  0  0
  141.1850   68.5620  228.7210 Cl  0  0  0  0  0  0  0  0  0  0  0  0
  140.8930   69.8290  226.3490 C   0  0  0  0  0  0  0  0  0  0  0  0
  140.3280   70.0320  225.1070 C   0  0  0  0  0  0  0  0  0  0  0  0
  140.7470   71.0350  224.3150 N   0  0  0  0  0  0  0  0  0  0  0  0
  139.2980   73.8160  222.9670 H   0  0  0  0  0  0  0  0  0  0  0  0
  141.6787   74.6738  221.4434 H   0  0  0  0  0  0  0  0  0  0  0  0
  140.2723   74.4275  220.3618 H   0  0  0  0  0  0  0  0  0  0  0  0
  142.3312   77.7517  220.5476 H   0  0  0  0  0  0  0  0  0  0  0  0
  141.8723   76.0781  220.1156 H   0  0  0  0  0  0  0  0  0  0  0  0
  141.7015   78.3874  218.4867 H   0  0  0  0  0  0  0  0  0  0  0  0
  141.0218   76.7526  218.1462 H   0  0  0  0  0  0  0  0  0  0  0  0
  139.4018   78.6699  218.0255 H   0  0  0  0  0  0  0  0  0  0  0  0
  138.9696   77.2966  219.1419 H   0  0  0  0  0  0  0  0  0  0  0  0
  140.2526   79.8995  220.0460 H   0  0  0  0  0  0  0  0  0  0  0  0
  138.4868   79.5691  220.0780 H   0  0  0  0  0  0  0  0  0  0  0  0
  138.6416   78.1598  221.7936 H   0  0  0  0  0  0  0  0  0  0  0  0
  139.4811   79.2525  223.2233 H   0  0  0  0  0  0  0  0  0  0  0  0
  141.0961   77.4776  223.6101 H   0  0  0  0  0  0  0  0  0  0  0  0
  142.2380   78.1376  222.4427 H   0  0  0  0  0  0  0  0  0  0  0  0
  141.1139   79.8300  224.7767 H   0  0  0  0  0  0  0  0  0  0  0  0
  142.5803   78.8514  224.9811 H   0  0  0  0  0  0  0  0  0  0  0  0
  142.8434   81.3172  224.1875 H   0  0  0  0  0  0  0  0  0  0  0  0
  143.7363   80.0163  223.2791 H   0  0  0  0  0  0  0  0  0  0  0  0
  142.2534   81.9643  222.1086 H   0  0  0  0  0  0  0  0  0  0  0  0
  142.5777   80.3231  221.4081 H   0  0  0  0  0  0  0  0  0  0  0  0
  140.1342   81.2062  222.9765 H   0  0  0  0  0  0  0  0  0  0  0  0
  140.2626   80.8011  221.1981 H   0  0  0  0  0  0  0  0  0  0  0  0
  138.7559   70.6009  221.6363 H   0  0  0  0  0  0  0  0  0  0  0  0
  137.9555   68.7289  223.0849 H   0  0  0  0  0  0  0  0  0  0  0  0
  138.0537   67.4759  225.1143 H   0  0  0  0  0  0  0  0  0  0  0  0
  139.0926   67.1266  227.3601 H   0  0  0  0  0  0  0  0  0  0  0  0
  141.6968   70.4915  226.7026 H   0  0  0  0  0  0  0  0  0  0  0  0
  1  2  2  0
  2  3  1  0
  3  4  1  0
  4  5  1  0
  5  6  2  0
  5  7  1  0
  7  8  1  0
  8  9  1  0
  9 10  1  0
 10 11  1  0
 11 12  1  0
 12 13  1  0
 13 14  1  0
 14 15  1  0
 15 16  1  0
 16 17  1  0
 17 18  1  0
  2 19  1  0
 19 20  2  0
 20 21  1  0
 21 22  2  0
 22 23  1  0
 23 24  2  0
 24 25  1  0
 25 26  1  0
 25 27  2  0
 27 28  1  0
 28 29  2  0
 12  7  1  0
 18 13  1  0
 29 19  1  0
 28 22  1  0
  3 30  1  0
  4 31  1  0
  4 32  1  0
  8 33  1  0
  8 34  1  0
  9 35  1  0
  9 36  1  0
 10 37  1  0
 10 38  1  0
 11 39  1  0
 11 40  1  0
 12 41  1  1
 13 42  1  0
 14 43  1  0
 14 44  1  0
 15 45  1  0
 15 46  1  0
 16 47  1  0
 16 48  1  0
 17 49  1  0
 17 50  1  0
 18 51  1  0
 18 52  1  0
 20 53  1  0
 21 54  1  0
 23 55  1  0
 24 56  1  0
 27 57  1  0
M  END
>  <smiles>  (40) 
O=C(NCC(=O)N1CCCCC1C1CCCCC1)c1ccc2ccc(Cl)cc2n1

>  <score_type>  (40) 
oracle

>  <origin>  (40) 
autodockgpu

>  <m_score__min__energy>  (40) 
-9.5600000000000005

>  <m_primary>  (40) 
energy

>  <rmsd>  (40) 
2.6102237375031807

>  <m_score__min__rmsd>  (40) 
2.6102237375031807

>  <meeko>  (40) 
{"free_energy": -8.56, "intermolecular_energy": -10.05, "internal_energy": -1.96, "cluster_size": 24, "cluster_id": 2, "rank_in_cluster": 15}

>  <energy>  (40) 
-8.32

>  <cluster_rmsd>  (40) 
0.96

>  <cluster>  (40) 
2

$$$$

     RDKit          3D

 57 60  0  0  0  0  0  0  0  0999 V2000
  141.1200   73.2610  221.9530 O   0  0  0  0  0  0  0  0  0  0  0  0
  139.9950   73.0360  222.4760 C   0  0  0  0  0  0  0  0  0  0  0  0
  139.0030   74.0310  222.3220 N   0  0  0  0  0  0  0  0  0  0  0  0
  139.3600   75.2230  221.5800 C   0  0  0  0  0  0  0  0  0  0  0  0
  139.0030   76.4140  222.3890 C   0  0  0  0  0  0  0  0  0  0  0  0
  138.0610   76.2770  223.2120 O   0  0  0  0  0  0  0  0  0  0  0  0
  139.7060   77.6640  222.2350 N   0  0  0  0  0  0  0  0  0  0  0  0
  138.9730   78.8790  222.5070 C   0  0  0  0  0  0  0  0  0  0  0  0
  139.7160   79.6560  223.5650 C   0  0  0  0  0  0  0  0  0  0  0  0
  141.0290   79.0160  223.8510 C   0  0  0  0  0  0  0  0  0  0  0  0
  141.8090   78.6830  222.5920 C   0  0  0  0  0  0  0  0  0  0  0  0
  141.0940   77.6220  221.8280 C   0  0  2  0  0  0  0  0  0  0  0  0
  141.2040   77.7370  220.3480 C   0  0  0  0  0  0  0  0  0  0  0  0
  141.8190   79.0600  219.8950 C   0  0  0  0  0  0  0  0  0  0  0  0
  141.8250   78.9780  218.3630 C   0  0  0  0  0  0  0  0  0  0  0  0
  142.9560   78.0540  217.9890 C   0  0  0  0  0  0  0  0  0  0  0  0
  143.0590   76.8580  218.9070 C   0  0  0  0  0  0  0  0  0  0  0  0
  141.7490   76.5740  219.6100 C   0  0  0  0  0  0  0  0  0  0  0  0
  139.7230   71.8020  223.2100 C   0  0  0  0  0  0  0  0  0  0  0  0
  138.8550   70.8780  222.6280 C   0  0  0  0  0  0  0  0  0  0  0  0
  138.5800   69.6930  223.3110 C   0  0  0  0  0  0  0  0  0  0  0  0
  139.1630   69.4340  224.5550 C   0  0  0  0  0  0  0  0  0  0  0  0
  138.8650   68.2510  225.1980 C   0  0  0  0  0  0  0  0  0  0  0  0
  139.4570   68.0220  226.4260 C   0  0  0  0  0  0  0  0  0  0  0  0
  140.3170   68.9640  226.9750 C   0  0  0  0  0  0  0  0  0  0  0  0
  141.0690   68.6800  228.5300 Cl  0  0  0  0  0  0  0  0  0  0  0  0
  140.5940   70.1400  226.3040 C   0  0  0  0  0  0  0  0  0  0  0  0
  140.0120   70.3870  225.0770 C   0  0  0  0  0  0  0  0  0  0  0  0
  140.2700   71.5250  224.4090 N   0  0  0  0  0  0  0  0  0  0  0  0
  138.0540   73.8930  222.7370 H   0  0  0  0  0  0  0  0  0  0  0  0
  140.4414   75.2233  221.3788 H   0  0  0  0  0  0  0  0  0  0  0  0
  138.8174   75.2445  220.6234 H   0  0  0  0  0  0  0  0  0  0  0  0
  138.8968   79.4804  221.5891 H   0  0  0  0  0  0  0  0  0  0  0  0
  137.9585   78.6382  222.8573 H   0  0  0  0  0  0  0  0  0  0  0  0
  139.8831   80.6836  223.2100 H   0  0  0  0  0  0  0  0  0  0  0  0
  139.1160   79.6681  224.4869 H   0  0  0  0  0  0  0  0  0  0  0  0
  141.6291   79.7043  224.4642 H   0  0  0  0  0  0  0  0  0  0  0  0
  140.8286   78.0702  224.3757 H   0  0  0  0  0  0  0  0  0  0  0  0
  141.9005   79.5847  221.9686 H   0  0  0  0  0  0  0  0  0  0  0  0
  142.8113   78.3230  222.8673 H   0  0  0  0  0  0  0  0  0  0  0  0
  141.5711   76.6593  222.0637 H   0  0  0  0  0  0  0  0  0  0  0  0
  140.1465   77.7315  220.0451 H   0  0  0  0  0  0  0  0  0  0  0  0
  141.2087   79.9092  220.2363 H   0  0  0  0  0  0  0  0  0  0  0  0
  142.8262   79.2158  220.3089 H   0  0  0  0  0  0  0  0  0  0  0  0
  140.8683   78.5741  218.0002 H   0  0  0  0  0  0  0  0  0  0  0  0
  141.9574   79.9723  217.9116 H   0  0  0  0  0  0  0  0  0  0  0  0
  142.7932   77.6962  216.9616 H   0  0  0  0  0  0  0  0  0  0  0  0
  143.8933   78.6229  218.0776 H   0  0  0  0  0  0  0  0  0  0  0  0
  143.3426   75.9767  218.3130 H   0  0  0  0  0  0  0  0  0  0  0  0
  143.8169   77.0794  219.6729 H   0  0  0  0  0  0  0  0  0  0  0  0
  141.0104   76.2643  218.8560 H   0  0  0  0  0  0  0  0  0  0  0  0
  141.9470   75.7868  220.3523 H   0  0  0  0  0  0  0  0  0  0  0  0
  138.3960   71.0799  221.6490 H   0  0  0  0  0  0  0  0  0  0  0  0
  137.8971   68.9544  222.8659 H   0  0  0  0  0  0  0  0  0  0  0  0
  138.1806   67.5158  224.7497 H   0  0  0  0  0  0  0  0  0  0  0  0
  139.2460   67.0898  226.9705 H   0  0  0  0  0  0  0  0  0  0  0  0
  141.2778   70.8787  226.7475 H   0  0  0  0  0  0  0  0  0  0  0  0
  1  2  2  0
  2  3  1  0
  3  4  1  0
  4  5  1  0
  5  6  2  0
  5  7  1  0
  7  8  1  0
  8  9  1  0
  9 10  1  0
 10 11  1  0
 11 12  1  0
 12 13  1  0
 13 14  1  0
 14 15  1  0
 15 16  1  0
 16 17  1  0
 17 18  1  0
  2 19  1  0
 19 20  2  0
 20 21  1  0
 21 22  2  0
 22 23  1  0
 23 24  2  0
 24 25  1  0
 25 26  1  0
 25 27  2  0
 27 28  1  0
 28 29  2  0
 12  7  1  0
 18 13  1  0
 29 19  1  0
 28 22  1  0
  3 30  1  0
  4 31  1  0
  4 32  1  0
  8 33  1  0
  8 34  1  0
  9 35  1  0
  9 36  1  0
 10 37  1  0
 10 38  1  0
 11 39  1  0
 11 40  1  0
 12 41  1  1
 13 42  1  0
 14 43  1  0
 14 44  1  0
 15 45  1  0
 15 46  1  0
 16 47  1  0
 16 48  1  0
 17 49  1  0
 17 50  1  0
 18 51  1  0
 18 52  1  0
 20 53  1  0
 21 54  1  0
 23 55  1  0
 24 56  1  0
 27 57  1  0
M  END
>  <smiles>  (41) 
O=C(NCC(=O)N1CCCCC1C1CCCCC1)c1ccc2ccc(Cl)cc2n1

>  <score_type>  (41) 
oracle

>  <origin>  (41) 
autodockgpu

>  <m_score__min__energy>  (41) 
-9.5600000000000005

>  <m_primary>  (41) 
energy

>  <rmsd>  (41) 
3.5582225426156526

>  <m_score__min__rmsd>  (41) 
3.5582225426156526

>  <meeko>  (41) 
{"free_energy": -8.71, "intermolecular_energy": -10.2, "internal_energy": -1.77, "cluster_size": 24, "cluster_id": 2, "rank_in_cluster": 10}

>  <energy>  (41) 
-8.3

>  <cluster_rmsd>  (41) 
0.89

>  <cluster>  (41) 
2

$$$$

     RDKit          3D

 57 60  0  0  0  0  0  0  0  0999 V2000
  141.4550   73.1410  221.5540 O   0  0  0  0  0  0  0  0  0  0  0  0
  140.4160   73.0190  222.2580 C   0  0  0  0  0  0  0  0  0  0  0  0
  139.5600   74.1420  222.3430 N   0  0  0  0  0  0  0  0  0  0  0  0
  139.9470   75.3340  221.6160 C   0  0  0  0  0  0  0  0  0  0  0  0
  139.3000   76.5090  222.2490 C   0  0  0  0  0  0  0  0  0  0  0  0
  138.2110   76.3020  222.8470 O   0  0  0  0  0  0  0  0  0  0  0  0
  139.8940   77.8220  222.1790 N   0  0  0  0  0  0  0  0  0  0  0  0
  139.0980   78.9390  222.6320 C   0  0  0  0  0  0  0  0  0  0  0  0
  139.8650   79.6630  223.7100 C   0  0  0  0  0  0  0  0  0  0  0  0
  141.2400   79.1070  223.8300 C   0  0  0  0  0  0  0  0  0  0  0  0
  141.9380   78.9670  222.4890 C   0  0  0  0  0  0  0  0  0  0  0  0
  141.2430   77.9340  221.6700 C   0  0  2  0  0  0  0  0  0  0  0  0
  141.2250   78.2060  220.2070 C   0  0  0  0  0  0  0  0  0  0  0  0
  141.8260   79.5630  219.8440 C   0  0  0  0  0  0  0  0  0  0  0  0
  141.6950   79.6470  218.3170 C   0  0  0  0  0  0  0  0  0  0  0  0
  142.7680   78.7550  217.7470 C   0  0  0  0  0  0  0  0  0  0  0  0
  142.9270   77.4650  218.5190 C   0  0  0  0  0  0  0  0  0  0  0  0
  141.6780   77.1230  219.3040 C   0  0  0  0  0  0  0  0  0  0  0  0
  140.1060   71.7750  222.9580 C   0  0  0  0  0  0  0  0  0  0  0  0
  139.3200   70.8340  222.2940 C   0  0  0  0  0  0  0  0  0  0  0  0
  139.0100   69.6380  222.9430 C   0  0  0  0  0  0  0  0  0  0  0  0
  139.4780   69.3860  224.2360 C   0  0  0  0  0  0  0  0  0  0  0  0
  139.1490   68.1930  224.8440 C   0  0  0  0  0  0  0  0  0  0  0  0
  139.6260   67.9720  226.1220 C   0  0  0  0  0  0  0  0  0  0  0  0
  140.4060   68.9320  226.7540 C   0  0  0  0  0  0  0  0  0  0  0  0
  141.0140   68.6570  228.3730 Cl  0  0  0  0  0  0  0  0  0  0  0  0
  140.7170   70.1170  226.1160 C   0  0  0  0  0  0  0  0  0  0  0  0
  140.2500   70.3570  224.8400 C   0  0  0  0  0  0  0  0  0  0  0  0
  140.5420   71.5050  224.2030 N   0  0  0  0  0  0  0  0  0  0  0  0
  138.6870   74.0920  222.9140 H   0  0  0  0  0  0  0  0  0  0  0  0
  141.0403   75.4501  221.6510 H   0  0  0  0  0  0  0  0  0  0  0  0
  139.6293   75.2520  220.5661 H   0  0  0  0  0  0  0  0  0  0  0  0
  138.9036   79.6218  221.7918 H   0  0  0  0  0  0  0  0  0  0  0  0
  138.1356   78.5820  223.0273 H   0  0  0  0  0  0  0  0  0  0  0  0
  139.9269   80.7314  223.4557 H   0  0  0  0  0  0  0  0  0  0  0  0
  139.3422   79.5327  224.6690 H   0  0  0  0  0  0  0  0  0  0  0  0
  141.8354   79.7769  224.4677 H   0  0  0  0  0  0  0  0  0  0  0  0
  141.1530   78.1002  224.2644 H   0  0  0  0  0  0  0  0  0  0  0  0
  141.9127   79.9314  221.9605 H   0  0  0  0  0  0  0  0  0  0  0  0
  142.9829   78.6634  222.6506 H   0  0  0  0  0  0  0  0  0  0  0  0
  141.8063   76.9941  221.7660 H   0  0  0  0  0  0  0  0  0  0  0  0
  140.1452   78.2453  220.0009 H   0  0  0  0  0  0  0  0  0  0  0  0
  141.2666   80.3775  220.3273 H   0  0  0  0  0  0  0  0  0  0  0  0
  142.8689   79.6612  220.1798 H   0  0  0  0  0  0  0  0  0  0  0  0
  140.7015   79.2965  218.0007 H   0  0  0  0  0  0  0  0  0  0  0  0
  141.8087   80.6825  217.9638 H   0  0  0  0  0  0  0  0  0  0  0  0
  142.5073   78.5122  216.7063 H   0  0  0  0  0  0  0  0  0  0  0  0
  143.7213   79.2999  217.8117 H   0  0  0  0  0  0  0  0  0  0  0  0
  143.1372   76.6497  217.8111 H   0  0  0  0  0  0  0  0  0  0  0  0
  143.7551   77.5924  219.2317 H   0  0  0  0  0  0  0  0  0  0  0  0
  140.8692   76.9046  218.5912 H   0  0  0  0  0  0  0  0  0  0  0  0
  141.9245   76.2588  219.9383 H   0  0  0  0  0  0  0  0  0  0  0  0
  138.9508   71.0308  221.2767 H   0  0  0  0  0  0  0  0  0  0  0  0
  138.3910   68.8859  222.4319 H   0  0  0  0  0  0  0  0  0  0  0  0
  138.5289   67.4438  224.3300 H   0  0  0  0  0  0  0  0  0  0  0  0
  139.3870   67.0320  226.6409 H   0  0  0  0  0  0  0  0  0  0  0  0
  141.3370   70.8695  226.6252 H   0  0  0  0  0  0  0  0  0  0  0  0
  1  2  2  0
  2  3  1  0
  3  4  1  0
  4  5  1  0
  5  6  2  0
  5  7  1  0
  7  8  1  0
  8  9  1  0
  9 10  1  0
 10 11  1  0
 11 12  1  0
 12 13  1  0
 13 14  1  0
 14 15  1  0
 15 16  1  0
 16 17  1  0
 17 18  1  0
  2 19  1  0
 19 20  2  0
 20 21  1  0
 21 22  2  0
 22 23  1  0
 23 24  2  0
 24 25  1  0
 25 26  1  0
 25 27  2  0
 27 28  1  0
 28 29  2  0
 12  7  1  0
 18 13  1  0
 29 19  1  0
 28 22  1  0
  3 30  1  0
  4 31  1  0
  4 32  1  0
  8 33  1  0
  8 34  1  0
  9 35  1  0
  9 36  1  0
 10 37  1  0
 10 38  1  0
 11 39  1  0
 11 40  1  0
 12 41  1  6
 13 42  1  0
 14 43  1  0
 14 44  1  0
 15 45  1  0
 15 46  1  0
 16 47  1  0
 16 48  1  0
 17 49  1  0
 17 50  1  0
 18 51  1  0
 18 52  1  0
 20 53  1  0
 21 54  1  0
 23 55  1  0
 24 56  1  0
 27 57  1  0
M  END
>  <smiles>  (42) 
O=C(NCC(=O)N1CCCCC1C1CCCCC1)c1ccc2ccc(Cl)cc2n1

>  <score_type>  (42) 
oracle

>  <origin>  (42) 
autodockgpu

>  <m_score__min__energy>  (42) 
-9.5600000000000005

>  <m_primary>  (42) 
energy

>  <rmsd>  (42) 
3.6697060496058334

>  <m_score__min__rmsd>  (42) 
3.6697060496058334

>  <meeko>  (42) 
{"free_energy": -8.75, "intermolecular_energy": -10.24, "internal_energy": -1.91, "cluster_size": 24, "cluster_id": 2, "rank_in_cluster": 5}

>  <energy>  (42) 
-8.27

>  <cluster_rmsd>  (42) 
0.0

>  <cluster>  (42) 
3

$$$$

     RDKit          3D

 57 60  0  0  0  0  0  0  0  0999 V2000
  141.6060   72.8150  221.1090 O   0  0  0  0  0  0  0  0  0  0  0  0
  140.8030   73.6390  221.6240 C   0  0  0  0  0  0  0  0  0  0  0  0
  139.7000   73.1080  222.3310 N   0  0  0  0  0  0  0  0  0  0  0  0
  139.5860   71.6660  222.4060 C   0  0  0  0  0  0  0  0  0  0  0  0
  138.2690   71.3220  222.9960 C   0  0  0  0  0  0  0  0  0  0  0  0
  137.4180   72.2470  223.0600 O   0  0  0  0  0  0  0  0  0  0  0  0
  137.9850   69.9900  223.4720 N   0  0  0  0  0  0  0  0  0  0  0  0
  136.6130   69.5420  223.4180 C   0  0  0  0  0  0  0  0  0  0  0  0
  136.5600   68.2660  222.6140 C   0  0  0  0  0  0  0  0  0  0  0  0
  137.9360   67.7990  222.2930 C   0  0  0  0  0  0  0  0  0  0  0  0
  138.8530   67.7910  223.5030 C   0  0  0  0  0  0  0  0  0  0  0  0
  139.0860   69.1900  223.9610 C   0  0  2  0  0  0  0  0  0  0  0  0
  139.2290   69.3490  225.4340 C   0  0  0  0  0  0  0  0  0  0  0  0
  139.8020   68.1080  226.1160 C   0  0  0  0  0  0  0  0  0  0  0  0
  139.8500   68.4730  227.6060 C   0  0  0  0  0  0  0  0  0  0  0  0
  141.0240   69.4020  227.7820 C   0  0  0  0  0  0  0  0  0  0  0  0
  141.1520   70.4010  226.6540 C   0  0  0  0  0  0  0  0  0  0  0  0
  139.8360   70.6040  225.9320 C   0  0  0  0  0  0  0  0  0  0  0  0
  140.9970   75.0820  221.4970 C   0  0  0  0  0  0  0  0  0  0  0  0
  141.8980   75.5350  220.5320 C   0  0  0  0  0  0  0  0  0  0  0  0
  142.1000   76.9080  220.3930 C   0  0  0  0  0  0  0  0  0  0  0  0
  141.4140   77.8160  221.2040 C   0  0  0  0  0  0  0  0  0  0  0  0
  141.6420   79.1660  221.0370 C   0  0  0  0  0  0  0  0  0  0  0  0
  140.9490   80.0400  221.8530 C   0  0  0  0  0  0  0  0  0  0  0  0
  140.0600   79.5540  222.8030 C   0  0  0  0  0  0  0  0  0  0  0  0
  139.1790   80.6560  223.8400 Cl  0  0  0  0  0  0  0  0  0  0  0  0
  139.8550   78.1950  222.9450 C   0  0  0  0  0  0  0  0  0  0  0  0
  140.5370   77.3070  222.1400 C   0  0  0  0  0  0  0  0  0  0  0  0
  140.3510   75.9810  222.2640 N   0  0  0  0  0  0  0  0  0  0  0  0
  139.0060   73.7490  222.7760 H   0  0  0  0  0  0  0  0  0  0  0  0
  139.6629   71.2358  221.3965 H   0  0  0  0  0  0  0  0  0  0  0  0
  140.3942   71.2586  223.0312 H   0  0  0  0  0  0  0  0  0  0  0  0
  136.2429   69.3548  224.4368 H   0  0  0  0  0  0  0  0  0  0  0  0
  135.9824   70.3112  222.9483 H   0  0  0  0  0  0  0  0  0  0  0  0
  136.0409   67.4912  223.1972 H   0  0  0  0  0  0  0  0  0  0  0  0
  136.0195   68.4573  221.6753 H   0  0  0  0  0  0  0  0  0  0  0  0
  137.8753   66.7767  221.8915 H   0  0  0  0  0  0  0  0  0  0  0  0
  138.3611   68.5010  221.5606 H   0  0  0  0  0  0  0  0  0  0  0  0
  138.3849   67.2133  224.3136 H   0  0  0  0  0  0  0  0  0  0  0  0
  139.8140   67.3301  223.2309 H   0  0  0  0  0  0  0  0  0  0  0  0
  140.0543   69.5184  223.5554 H   0  0  0  0  0  0  0  0  0  0  0  0
  138.1806   69.4577  225.7486 H   0  0  0  0  0  0  0  0  0  0  0  0
  139.1500   67.2377  225.9501 H   0  0  0  0  0  0  0  0  0  0  0  0
  140.7916   67.8343  225.7213 H   0  0  0  0  0  0  0  0  0  0  0  0
  138.9187   68.9770  227.9039 H   0  0  0  0  0  0  0  0  0  0  0  0
  139.9564   67.5749  228.2321 H   0  0  0  0  0  0  0  0  0  0  0  0
  140.8992   69.9518  228.7265 H   0  0  0  0  0  0  0  0  0  0  0  0
  141.9363   68.7874  227.7865 H   0  0  0  0  0  0  0  0  0  0  0  0
  141.4838   71.3648  227.0676 H   0  0  0  0  0  0  0  0  0  0  0  0
  141.8825   70.0093  225.9309 H   0  0  0  0  0  0  0  0  0  0  0  0
  139.1286   71.0796  226.6272 H   0  0  0  0  0  0  0  0  0  0  0  0
  140.0460   71.2299  225.0522 H   0  0  0  0  0  0  0  0  0  0  0  0
  142.4390   74.8219  219.8926 H   0  0  0  0  0  0  0  0  0  0  0  0
  142.8069   77.2801  219.6369 H   0  0  0  0  0  0  0  0  0  0  0  0
  142.3508   79.5342  220.2806 H   0  0  0  0  0  0  0  0  0  0  0  0
  141.1021   81.1244  221.7497 H   0  0  0  0  0  0  0  0  0  0  0  0
  139.1478   77.8214  223.7002 H   0  0  0  0  0  0  0  0  0  0  0  0
  1  2  2  0
  2  3  1  0
  3  4  1  0
  4  5  1  0
  5  6  2  0
  5  7  1  0
  7  8  1  0
  8  9  1  0
  9 10  1  0
 10 11  1  0
 11 12  1  0
 12 13  1  0
 13 14  1  0
 14 15  1  0
 15 16  1  0
 16 17  1  0
 17 18  1  0
  2 19  1  0
 19 20  2  0
 20 21  1  0
 21 22  2  0
 22 23  1  0
 23 24  2  0
 24 25  1  0
 25 26  1  0
 25 27  2  0
 27 28  1  0
 28 29  2  0
 12  7  1  0
 18 13  1  0
 29 19  1  0
 28 22  1  0
  3 30  1  0
  4 31  1  0
  4 32  1  0
  8 33  1  0
  8 34  1  0
  9 35  1  0
  9 36  1  0
 10 37  1  0
 10 38  1  0
 11 39  1  0
 11 40  1  0
 12 41  1  6
 13 42  1  0
 14 43  1  0
 14 44  1  0
 15 45  1  0
 15 46  1  0
 16 47  1  0
 16 48  1  0
 17 49  1  0
 17 50  1  0
 18 51  1  0
 18 52  1  0
 20 53  1  0
 21 54  1  0
 23 55  1  0
 24 56  1  0
 27 57  1  0
M  END
>  <smiles>  (43) 
O=C(NCC(=O)N1CCCCC1C1CCCCC1)c1ccc2ccc(Cl)cc2n1

>  <score_type>  (43) 
oracle

>  <origin>  (43) 
autodockgpu

>  <m_score__min__energy>  (43) 
-9.5600000000000005

>  <m_primary>  (43) 
energy

>  <rmsd>  (43) 
8.35179897949651

>  <m_score__min__rmsd>  (43) 
8.35179897949651

>  <meeko>  (43) 
{"free_energy": -8.12, "intermolecular_energy": -9.61, "internal_energy": -2.13, "cluster_size": 17, "cluster_id": 1, "rank_in_cluster": 16}

>  <energy>  (43) 
-8.18

>  <cluster_rmsd>  (43) 
1.79

>  <cluster>  (43) 
3

$$$$

     RDKit          3D

 57 60  0  0  0  0  0  0  0  0999 V2000
  140.0280   71.9900  220.3020 O   0  0  0  0  0  0  0  0  0  0  0  0
  139.8110   72.2070  221.5250 C   0  0  0  0  0  0  0  0  0  0  0  0
  139.7080   73.5570  221.9310 N   0  0  0  0  0  0  0  0  0  0  0  0
  139.8580   74.5760  220.9120 C   0  0  0  0  0  0  0  0  0  0  0  0
  140.2470   75.8500  221.5640 C   0  0  0  0  0  0  0  0  0  0  0  0
  139.7900   76.0570  222.7190 O   0  0  0  0  0  0  0  0  0  0  0  0
  141.1060   76.8000  220.9020 N   0  0  0  0  0  0  0  0  0  0  0  0
  142.2430   76.2800  220.1780 C   0  0  0  0  0  0  0  0  0  0  0  0
  142.1580   76.7610  218.7510 C   0  0  0  0  0  0  0  0  0  0  0  0
  141.0480   77.7410  218.5990 C   0  0  0  0  0  0  0  0  0  0  0  0
  141.0620   78.8170  219.6700 C   0  0  0  0  0  0  0  0  0  0  0  0
  140.7720   78.2050  220.9970 C   0  0  2  0  0  0  0  0  0  0  0  0
  141.4850   78.8320  222.1430 C   0  0  0  0  0  0  0  0  0  0  0  0
  142.3120   80.0500  221.7380 C   0  0  0  0  0  0  0  0  0  0  0  0
  142.9650   80.5250  223.0430 C   0  0  0  0  0  0  0  0  0  0  0  0
  141.8880   81.2240  223.8310 C   0  0  0  0  0  0  0  0  0  0  0  0
  140.5550   80.5150  223.7540 C   0  0  0  0  0  0  0  0  0  0  0  0
  140.7160   79.0540  223.3890 C   0  0  0  0  0  0  0  0  0  0  0  0
  139.6740   71.1140  222.4860 C   0  0  0  0  0  0  0  0  0  0  0  0
  138.9950   69.9670  222.0730 C   0  0  0  0  0  0  0  0  0  0  0  0
  138.8510   68.9110  222.9740 C   0  0  0  0  0  0  0  0  0  0  0  0
  139.3770   68.9990  224.2660 C   0  0  0  0  0  0  0  0  0  0  0  0
  139.2120   67.9330  225.1260 C   0  0  0  0  0  0  0  0  0  0  0  0
  139.7420   68.0480  226.3970 C   0  0  0  0  0  0  0  0  0  0  0  0
  140.4120   69.2050  226.7750 C   0  0  0  0  0  0  0  0  0  0  0  0
  141.0860   69.3560  228.3830 Cl  0  0  0  0  0  0  0  0  0  0  0  0
  140.5590   70.2540  225.8870 C   0  0  0  0  0  0  0  0  0  0  0  0
  140.0360   70.1590  224.6140 C   0  0  0  0  0  0  0  0  0  0  0  0
  140.1690   71.1700  223.7370 N   0  0  0  0  0  0  0  0  0  0  0  0
  139.5300   73.7900  222.9340 H   0  0  0  0  0  0  0  0  0  0  0  0
  140.6379   74.2729  220.1980 H   0  0  0  0  0  0  0  0  0  0  0  0
  138.9088   74.7071  220.3718 H   0  0  0  0  0  0  0  0  0  0  0  0
  143.1741   76.6430  220.6377 H   0  0  0  0  0  0  0  0  0  0  0  0
  142.2396   75.1804  220.2075 H   0  0  0  0  0  0  0  0  0  0  0  0
  143.1073   77.2427  218.4737 H   0  0  0  0  0  0  0  0  0  0  0  0
  141.9656   75.8993  218.0949 H   0  0  0  0  0  0  0  0  0  0  0  0
  141.1378   78.2238  217.6147 H   0  0  0  0  0  0  0  0  0  0  0  0
  140.1023   77.1880  218.6977 H   0  0  0  0  0  0  0  0  0  0  0  0
  142.0524   79.2950  219.6958 H   0  0  0  0  0  0  0  0  0  0  0  0
  140.2951   79.5713  219.4401 H   0  0  0  0  0  0  0  0  0  0  0  0
  139.7066   78.3684  221.2164 H   0  0  0  0  0  0  0  0  0  0  0  0
  142.1796   78.0316  222.4379 H   0  0  0  0  0  0  0  0  0  0  0  0
  143.0780   79.7713  220.9994 H   0  0  0  0  0  0  0  0  0  0  0  0
  141.6989   80.8335  221.2687 H   0  0  0  0  0  0  0  0  0  0  0  0
  143.3524   79.6650  223.6090 H   0  0  0  0  0  0  0  0  0  0  0  0
  143.8112   81.1985  222.8420 H   0  0  0  0  0  0  0  0  0  0  0  0
  142.1995   81.2742  224.8848 H   0  0  0  0  0  0  0  0  0  0  0  0
  141.7566   82.2263  223.3972 H   0  0  0  0  0  0  0  0  0  0  0  0
  140.0573   80.5849  224.7325 H   0  0  0  0  0  0  0  0  0  0  0  0
  139.9545   80.9994  222.9699 H   0  0  0  0  0  0  0  0  0  0  0  0
  141.2370   78.5456  224.2137 H   0  0  0  0  0  0  0  0  0  0  0  0
  139.7062   78.6524  223.2189 H   0  0  0  0  0  0  0  0  0  0  0  0
  138.5810   69.8965  221.0563 H   0  0  0  0  0  0  0  0  0  0  0  0
  138.3180   68.0000  222.6642 H   0  0  0  0  0  0  0  0  0  0  0  0
  138.6779   67.0243  224.8114 H   0  0  0  0  0  0  0  0  0  0  0  0
  139.6330   67.2198  227.1127 H   0  0  0  0  0  0  0  0  0  0  0  0
  141.0932   71.1648  226.1954 H   0  0  0  0  0  0  0  0  0  0  0  0
  1  2  2  0
  2  3  1  0
  3  4  1  0
  4  5  1  0
  5  6  2  0
  5  7  1  0
  7  8  1  0
  8  9  1  0
  9 10  1  0
 10 11  1  0
 11 12  1  0
 12 13  1  0
 13 14  1  0
 14 15  1  0
 15 16  1  0
 16 17  1  0
 17 18  1  0
  2 19  1  0
 19 20  2  0
 20 21  1  0
 21 22  2  0
 22 23  1  0
 23 24  2  0
 24 25  1  0
 25 26  1  0
 25 27  2  0
 27 28  1  0
 28 29  2  0
 12  7  1  0
 18 13  1  0
 29 19  1  0
 28 22  1  0
  3 30  1  0
  4 31  1  0
  4 32  1  0
  8 33  1  0
  8 34  1  0
  9 35  1  0
  9 36  1  0
 10 37  1  0
 10 38  1  0
 11 39  1  0
 11 40  1  0
 12 41  1  1
 13 42  1  0
 14 43  1  0
 14 44  1  0
 15 45  1  0
 15 46  1  0
 16 47  1  0
 16 48  1  0
 17 49  1  0
 17 50  1  0
 18 51  1  0
 18 52  1  0
 20 53  1  0
 21 54  1  0
 23 55  1  0
 24 56  1  0
 27 57  1  0
M  END
>  <smiles>  (44) 
O=C(NCC(=O)N1CCCCC1C1CCCCC1)c1ccc2ccc(Cl)cc2n1

>  <score_type>  (44) 
oracle

>  <origin>  (44) 
autodockgpu

>  <m_score__min__energy>  (44) 
-9.5600000000000005

>  <m_primary>  (44) 
energy

>  <rmsd>  (44) 
2.2847888132565406

>  <m_score__min__rmsd>  (44) 
2.2847888132565406

>  <meeko>  (44) 
{"free_energy": -8.52, "intermolecular_energy": -10.01, "internal_energy": -1.91, "cluster_size": 24, "cluster_id": 2, "rank_in_cluster": 17}

>  <energy>  (44) 
-8.16

>  <cluster_rmsd>  (44) 
1.81

>  <cluster>  (44) 
3

$$$$

     RDKit          3D

 57 60  0  0  0  0  0  0  0  0999 V2000
  140.8500   74.0450  220.6650 O   0  0  0  0  0  0  0  0  0  0  0  0
  140.1470   74.6670  221.5070 C   0  0  0  0  0  0  0  0  0  0  0  0
  139.1700   73.9220  222.2050 N   0  0  0  0  0  0  0  0  0  0  0  0
  139.0580   72.5100  221.8970 C   0  0  0  0  0  0  0  0  0  0  0  0
  139.9060   71.7470  222.8440 C   0  0  0  0  0  0  0  0  0  0  0  0
  141.1520   71.8780  222.7200 O   0  0  0  0  0  0  0  0  0  0  0  0
  139.3250   70.8970  223.8540 N   0  0  0  0  0  0  0  0  0  0  0  0
  137.9560   71.1540  224.2350 C   0  0  0  0  0  0  0  0  0  0  0  0
  137.1590   69.8890  224.0300 C   0  0  0  0  0  0  0  0  0  0  0  0
  138.0620   68.7600  223.6770 C   0  0  0  0  0  0  0  0  0  0  0  0
  139.2620   68.6550  224.6000 C   0  0  0  0  0  0  0  0  0  0  0  0
  140.1430   69.8420  224.4120 C   0  0  2  0  0  0  0  0  0  0  0  0
  140.8270   70.3140  225.6470 C   0  0  0  0  0  0  0  0  0  0  0  0
  140.6450   71.8100  225.8970 C   0  0  0  0  0  0  0  0  0  0  0  0
  141.4280   72.0850  227.1870 C   0  0  0  0  0  0  0  0  0  0  0  0
  140.5870   71.5540  228.3190 C   0  0  0  0  0  0  0  0  0  0  0  0
  139.9270   70.2360  227.9880 C   0  0  0  0  0  0  0  0  0  0  0  0
  140.6540   69.5070  226.8770 C   0  0  0  0  0  0  0  0  0  0  0  0
  140.3290   76.0960  221.7530 C   0  0  0  0  0  0  0  0  0  0  0  0
  141.4460   76.7150  221.1910 C   0  0  0  0  0  0  0  0  0  0  0  0
  141.6400   78.0790  221.4130 C   0  0  0  0  0  0  0  0  0  0  0  0
  140.7340   78.8130  222.1840 C   0  0  0  0  0  0  0  0  0  0  0  0
  140.9620   80.1590  222.3810 C   0  0  0  0  0  0  0  0  0  0  0  0
  140.0500   80.8580  223.1470 C   0  0  0  0  0  0  0  0  0  0  0  0
  138.9490   80.2090  223.6910 C   0  0  0  0  0  0  0  0  0  0  0  0
  137.7890   81.0910  224.6630 Cl  0  0  0  0  0  0  0  0  0  0  0  0
  138.7500   78.8590  223.4740 C   0  0  0  0  0  0  0  0  0  0  0  0
  139.6500   78.1430  222.7130 C   0  0  0  0  0  0  0  0  0  0  0  0
  139.4740   76.8280  222.4910 N   0  0  0  0  0  0  0  0  0  0  0  0
  138.5610   74.3900  222.9130 H   0  0  0  0  0  0  0  0  0  0  0  0
  138.0102   72.1911  221.9991 H   0  0  0  0  0  0  0  0  0  0  0  0
  139.3896   72.3246  220.8647 H   0  0  0  0  0  0  0  0  0  0  0  0
  137.9145   71.4519  225.2931 H   0  0  0  0  0  0  0  0  0  0  0  0
  137.5393   71.9668  223.6220 H   0  0  0  0  0  0  0  0  0  0  0  0
  136.6197   69.6458  224.9574 H   0  0  0  0  0  0  0  0  0  0  0  0
  136.4448   70.0458  223.2082 H   0  0  0  0  0  0  0  0  0  0  0  0
  137.4907   67.8218  223.7354 H   0  0  0  0  0  0  0  0  0  0  0  0
  138.4412   68.9448  222.6611 H   0  0  0  0  0  0  0  0  0  0  0  0
  138.9183   68.6160  225.6442 H   0  0  0  0  0  0  0  0  0  0  0  0
  139.8258   67.7406  224.3634 H   0  0  0  0  0  0  0  0  0  0  0  0
  140.9635   69.5481  223.7409 H   0  0  0  0  0  0  0  0  0  0  0  0
  141.8833   70.1357  225.3973 H   0  0  0  0  0  0  0  0  0  0  0  0
  141.0552   72.3960  225.0614 H   0  0  0  0  0  0  0  0  0  0  0  0
  139.5854   72.0924  225.9840 H   0  0  0  0  0  0  0  0  0  0  0  0
  142.3987   71.5683  227.1599 H   0  0  0  0  0  0  0  0  0  0  0  0
  141.6277   73.1597  227.3098 H   0  0  0  0  0  0  0  0  0  0  0  0
  141.2310   71.4135  229.1997 H   0  0  0  0  0  0  0  0  0  0  0  0
  139.7886   72.2859  228.5108 H   0  0  0  0  0  0  0  0  0  0  0  0
  139.9248   69.6029  228.8876 H   0  0  0  0  0  0  0  0  0  0  0  0
  138.9015   70.4427  227.6479 H   0  0  0  0  0  0  0  0  0  0  0  0
  141.6494   69.2177  227.2451 H   0  0  0  0  0  0  0  0  0  0  0  0
  140.0369   68.6376  226.6062 H   0  0  0  0  0  0  0  0  0  0  0  0
  142.1602   76.1388  220.5844 H   0  0  0  0  0  0  0  0  0  0  0  0
  142.5154   78.5821  220.9765 H   0  0  0  0  0  0  0  0  0  0  0  0
  141.8392   80.6580  221.9434 H   0  0  0  0  0  0  0  0  0  0  0  0
  140.1961   81.9333  223.3271 H   0  0  0  0  0  0  0  0  0  0  0  0
  137.8737   78.3554  223.9082 H   0  0  0  0  0  0  0  0  0  0  0  0
  1  2  2  0
  2  3  1  0
  3  4  1  0
  4  5  1  0
  5  6  2  0
  5  7  1  0
  7  8  1  0
  8  9  1  0
  9 10  1  0
 10 11  1  0
 11 12  1  0
 12 13  1  0
 13 14  1  0
 14 15  1  0
 15 16  1  0
 16 17  1  0
 17 18  1  0
  2 19  1  0
 19 20  2  0
 20 21  1  0
 21 22  2  0
 22 23  1  0
 23 24  2  0
 24 25  1  0
 25 26  1  0
 25 27  2  0
 27 28  1  0
 28 29  2  0
 12  7  1  0
 18 13  1  0
 29 19  1  0
 28 22  1  0
  3 30  1  0
  4 31  1  0
  4 32  1  0
  8 33  1  0
  8 34  1  0
  9 35  1  0
  9 36  1  0
 10 37  1  0
 10 38  1  0
 11 39  1  0
 11 40  1  0
 12 41  1  6
 13 42  1  0
 14 43  1  0
 14 44  1  0
 15 45  1  0
 15 46  1  0
 16 47  1  0
 16 48  1  0
 17 49  1  0
 17 50  1  0
 18 51  1  0
 18 52  1  0
 20 53  1  0
 21 54  1  0
 23 55  1  0
 24 56  1  0
 27 57  1  0
M  END
>  <smiles>  (45) 
O=C(NCC(=O)N1CCCCC1C1CCCCC1)c1ccc2ccc(Cl)cc2n1

>  <score_type>  (45) 
oracle

>  <origin>  (45) 
autodockgpu

>  <m_score__min__energy>  (45) 
-9.5600000000000005

>  <m_primary>  (45) 
energy

>  <rmsd>  (45) 
8.36416296211428

>  <m_score__min__rmsd>  (45) 
8.36416296211428

>  <meeko>  (45) 
{"free_energy": -8.85, "intermolecular_energy": -10.34, "internal_energy": -1.65, "cluster_size": 17, "cluster_id": 1, "rank_in_cluster": 8}

>  <energy>  (45) 
-8.14

>  <cluster_rmsd>  (45) 
1.78

>  <cluster>  (45) 
3

$$$$

     RDKit          3D

 57 60  0  0  0  0  0  0  0  0999 V2000
  136.5350   77.3750  222.4060 O   0  0  0  0  0  0  0  0  0  0  0  0
  136.7510   76.2180  222.8570 C   0  0  0  0  0  0  0  0  0  0  0  0
  137.9140   75.5560  222.4010 N   0  0  0  0  0  0  0  0  0  0  0  0
  138.7570   76.2590  221.4570 C   0  0  0  0  0  0  0  0  0  0  0  0
  140.1260   75.6910  221.5240 C   0  0  0  0  0  0  0  0  0  0  0  0
  140.2640   74.6220  222.1740 O   0  0  0  0  0  0  0  0  0  0  0  0
  141.2400   76.3390  220.8750 N   0  0  0  0  0  0  0  0  0  0  0  0
  142.3440   75.5050  220.4580 C   0  0  0  0  0  0  0  0  0  0  0  0
  142.5590   75.7070  218.9780 C   0  0  0  0  0  0  0  0  0  0  0  0
  141.6950   76.8100  218.4740 C   0  0  0  0  0  0  0  0  0  0  0  0
  141.7670   78.0560  219.3390 C   0  0  0  0  0  0  0  0  0  0  0  0
  141.1770   77.7700  220.6770 C   0  0  2  0  0  0  0  0  0  0  0  0
  141.8290   78.4800  221.8110 C   0  0  0  0  0  0  0  0  0  0  0  0
  142.1140   79.9510  221.5110 C   0  0  0  0  0  0  0  0  0  0  0  0
  142.7890   80.4800  222.7830 C   0  0  0  0  0  0  0  0  0  0  0  0
  141.6960   80.6570  223.8060 C   0  0  0  0  0  0  0  0  0  0  0  0
  140.6870   79.5320  223.7820 C   0  0  0  0  0  0  0  0  0  0  0  0
  141.2620   78.2740  223.1640 C   0  0  0  0  0  0  0  0  0  0  0  0
  135.8420   75.5840  223.8100 C   0  0  0  0  0  0  0  0  0  0  0  0
  135.8020   74.1890  223.8410 C   0  0  0  0  0  0  0  0  0  0  0  0
  134.9420   73.5620  224.7420 C   0  0  0  0  0  0  0  0  0  0  0  0
  134.1340   74.3140  225.6000 C   0  0  0  0  0  0  0  0  0  0  0  0
  133.2960   73.6560  226.4760 C   0  0  0  0  0  0  0  0  0  0  0  0
  132.5100   74.4260  227.3110 C   0  0  0  0  0  0  0  0  0  0  0  0
  132.5760   75.8120  227.2540 C   0  0  0  0  0  0  0  0  0  0  0  0
  131.5820   76.7920  228.3100 Cl  0  0  0  0  0  0  0  0  0  0  0  0
  133.4260   76.4400  226.3640 C   0  0  0  0  0  0  0  0  0  0  0  0
  134.2190   75.6880  225.5210 C   0  0  0  0  0  0  0  0  0  0  0  0
  135.0530   76.2820  224.6480 N   0  0  0  0  0  0  0  0  0  0  0  0
  138.1380   74.5950  222.7450 H   0  0  0  0  0  0  0  0  0  0  0  0
  138.3553   76.1369  220.4403 H   0  0  0  0  0  0  0  0  0  0  0  0
  138.7840   77.3302  221.7054 H   0  0  0  0  0  0  0  0  0  0  0  0
  143.2532   75.7893  221.0080 H   0  0  0  0  0  0  0  0  0  0  0  0
  142.1205   74.4485  220.6674 H   0  0  0  0  0  0  0  0  0  0  0  0
  143.6138   75.9608  218.7963 H   0  0  0  0  0  0  0  0  0  0  0  0
  142.2973   74.7786  218.4493 H   0  0  0  0  0  0  0  0  0  0  0  0
  142.0165   77.0706  217.4548 H   0  0  0  0  0  0  0  0  0  0  0  0
  140.6551   76.4520  218.4948 H   0  0  0  0  0  0  0  0  0  0  0  0
  142.8179   78.3581  219.4592 H   0  0  0  0  0  0  0  0  0  0  0  0
  141.2033   78.8684  218.8572 H   0  0  0  0  0  0  0  0  0  0  0  0
  140.1438   78.1475  220.6760 H   0  0  0  0  0  0  0  0  0  0  0  0
  142.7925   77.9536  221.8792 H   0  0  0  0  0  0  0  0  0  0  0  0
  142.7859   80.0480  220.6455 H   0  0  0  0  0  0  0  0  0  0  0  0
  141.2011   80.5105  221.2589 H   0  0  0  0  0  0  0  0  0  0  0  0
  143.5354   79.7579  223.1455 H   0  0  0  0  0  0  0  0  0  0  0  0
  143.3113   81.4289  222.5908 H   0  0  0  0  0  0  0  0  0  0  0  0
  142.1530   80.6986  224.8057 H   0  0  0  0  0  0  0  0  0  0  0  0
  141.1619   81.5876  223.5639 H   0  0  0  0  0  0  0  0  0  0  0  0
  140.3749   79.3115  224.8135 H   0  0  0  0  0  0  0  0  0  0  0  0
  139.8311   79.8532  223.1702 H   0  0  0  0  0  0  0  0  0  0  0  0
  142.0598   77.8978  223.8212 H   0  0  0  0  0  0  0  0  0  0  0  0
  140.4323   77.5594  223.0592 H   0  0  0  0  0  0  0  0  0  0  0  0
  136.4372   73.5953  223.1671 H   0  0  0  0  0  0  0  0  0  0  0  0
  134.8989   72.4634  224.7781 H   0  0  0  0  0  0  0  0  0  0  0  0
  133.2551   72.5572  226.5085 H   0  0  0  0  0  0  0  0  0  0  0  0
  131.8287   73.9392  228.0243 H   0  0  0  0  0  0  0  0  0  0  0  0
  133.4707   77.5385  226.3273 H   0  0  0  0  0  0  0  0  0  0  0  0
  1  2  2  0
  2  3  1  0
  3  4  1  0
  4  5  1  0
  5  6  2  0
  5  7  1  0
  7  8  1  0
  8  9  1  0
  9 10  1  0
 10 11  1  0
 11 12  1  0
 12 13  1  0
 13 14  1  0
 14 15  1  0
 15 16  1  0
 16 17  1  0
 17 18  1  0
  2 19  1  0
 19 20  2  0
 20 21  1  0
 21 22  2  0
 22 23  1  0
 23 24  2  0
 24 25  1  0
 25 26  1  0
 25 27  2  0
 27 28  1  0
 28 29  2  0
 12  7  1  0
 18 13  1  0
 29 19  1  0
 28 22  1  0
  3 30  1  0
  4 31  1  0
  4 32  1  0
  8 33  1  0
  8 34  1  0
  9 35  1  0
  9 36  1  0
 10 37  1  0
 10 38  1  0
 11 39  1  0
 11 40  1  0
 12 41  1  6
 13 42  1  0
 14 43  1  0
 14 44  1  0
 15 45  1  0
 15 46  1  0
 16 47  1  0
 16 48  1  0
 17 49  1  0
 17 50  1  0
 18 51  1  0
 18 52  1  0
 20 53  1  0
 21 54  1  0
 23 55  1  0
 24 56  1  0
 27 57  1  0
M  END
>  <smiles>  (46) 
O=C(NCC(=O)N1CCCCC1C1CCCCC1)c1ccc2ccc(Cl)cc2n1

>  <score_type>  (46) 
oracle

>  <origin>  (46) 
autodockgpu

>  <m_score__min__energy>  (46) 
-9.5600000000000005

>  <m_primary>  (46) 
energy

>  <rmsd>  (46) 
5.482111176808405

>  <m_score__min__rmsd>  (46) 
5.482111176808405

>  <meeko>  (46) 
{"free_energy": -8.27, "intermolecular_energy": -9.77, "internal_energy": -2.0, "cluster_size": 7, "cluster_id": 3, "rank_in_cluster": 1}

>  <energy>  (46) 
-8.1

>  <cluster_rmsd>  (46) 
1.74

>  <cluster>  (46) 
3

$$$$

     RDKit          3D

 57 60  0  0  0  0  0  0  0  0999 V2000
  141.1820   73.2110  221.8710 O   0  0  0  0  0  0  0  0  0  0  0  0
  140.0630   73.0040  222.4130 C   0  0  0  0  0  0  0  0  0  0  0  0
  139.0900   74.0230  222.2930 N   0  0  0  0  0  0  0  0  0  0  0  0
  139.4600   75.2170  221.5590 C   0  0  0  0  0  0  0  0  0  0  0  0
  139.0360   76.4060  222.3380 C   0  0  0  0  0  0  0  0  0  0  0  0
  138.0620   76.2520  223.1210 O   0  0  0  0  0  0  0  0  0  0  0  0
  139.7100   77.6730  222.1990 N   0  0  0  0  0  0  0  0  0  0  0  0
  138.9540   78.8670  222.4980 C   0  0  0  0  0  0  0  0  0  0  0  0
  139.6890   79.6420  223.5640 C   0  0  0  0  0  0  0  0  0  0  0  0
  141.0180   79.0260  223.8280 C   0  0  0  0  0  0  0  0  0  0  0  0
  141.7940   78.7310  222.5570 C   0  0  0  0  0  0  0  0  0  0  0  0
  141.0950   77.6680  221.7810 C   0  0  2  0  0  0  0  0  0  0  0  0
  141.1910   77.8100  220.3020 C   0  0  0  0  0  0  0  0  0  0  0  0
  141.8070   79.1380  219.8680 C   0  0  0  0  0  0  0  0  0  0  0  0
  141.7970   79.0860  218.3350 C   0  0  0  0  0  0  0  0  0  0  0  0
  142.9190   78.1640  217.9310 C   0  0  0  0  0  0  0  0  0  0  0  0
  143.0270   76.9490  218.8250 C   0  0  0  0  0  0  0  0  0  0  0  0
  141.7220   76.6580  219.5370 C   0  0  0  0  0  0  0  0  0  0  0  0
  139.7770   71.7670  223.1360 C   0  0  0  0  0  0  0  0  0  0  0  0
  138.9100   70.8500  222.5400 C   0  0  0  0  0  0  0  0  0  0  0  0
  138.6230   69.6620  223.2130 C   0  0  0  0  0  0  0  0  0  0  0  0
  139.1920   69.3920  224.4600 C   0  0  0  0  0  0  0  0  0  0  0  0
  138.8820   68.2060  225.0930 C   0  0  0  0  0  0  0  0  0  0  0  0
  139.4590   67.9670  226.3250 C   0  0  0  0  0  0  0  0  0  0  0  0
  140.3190   68.9020  226.8890 C   0  0  0  0  0  0  0  0  0  0  0  0
  141.0530   68.6040  228.4500 Cl  0  0  0  0  0  0  0  0  0  0  0  0
  140.6080   70.0800  226.2280 C   0  0  0  0  0  0  0  0  0  0  0  0
  140.0400   70.3380  224.9970 C   0  0  0  0  0  0  0  0  0  0  0  0
  140.3100   71.4790  224.3390 N   0  0  0  0  0  0  0  0  0  0  0  0
  138.1470   73.9010  222.7250 H   0  0  0  0  0  0  0  0  0  0  0  0
  140.5502   75.2392  221.4141 H   0  0  0  0  0  0  0  0  0  0  0  0
  138.9680   75.2191  220.5752 H   0  0  0  0  0  0  0  0  0  0  0  0
  138.8575   79.4823  221.5913 H   0  0  0  0  0  0  0  0  0  0  0  0
  137.9478   78.5983  222.8522 H   0  0  0  0  0  0  0  0  0  0  0  0
  139.8307   80.6791  223.2258 H   0  0  0  0  0  0  0  0  0  0  0  0
  139.0967   79.6250  224.4908 H   0  0  0  0  0  0  0  0  0  0  0  0
  141.6085   79.7169  224.4477 H   0  0  0  0  0  0  0  0  0  0  0  0
  140.8426   78.0675  224.3383 H   0  0  0  0  0  0  0  0  0  0  0  0
  141.8609   79.6448  221.9483 H   0  0  0  0  0  0  0  0  0  0  0  0
  142.8061   78.3879  222.8177 H   0  0  0  0  0  0  0  0  0  0  0  0
  141.5940   76.7118  221.9973 H   0  0  0  0  0  0  0  0  0  0  0  0
  140.1307   77.8150  220.0091 H   0  0  0  0  0  0  0  0  0  0  0  0
  141.2042   79.9831  220.2319 H   0  0  0  0  0  0  0  0  0  0  0  0
  142.8192   79.2810  220.2741 H   0  0  0  0  0  0  0  0  0  0  0  0
  140.8345   78.6942  217.9743 H   0  0  0  0  0  0  0  0  0  0  0  0
  141.9302   80.0884  217.9020 H   0  0  0  0  0  0  0  0  0  0  0  0
  142.7430   77.8269  216.8988 H   0  0  0  0  0  0  0  0  0  0  0  0
  143.8599   78.7268  218.0204 H   0  0  0  0  0  0  0  0  0  0  0  0
  143.2997   76.0780  218.2110 H   0  0  0  0  0  0  0  0  0  0  0  0
  143.7947   77.1513  219.5864 H   0  0  0  0  0  0  0  0  0  0  0  0
  140.9739   76.3659  218.7853 H   0  0  0  0  0  0  0  0  0  0  0  0
  141.9236   75.8560  220.2624 H   0  0  0  0  0  0  0  0  0  0  0  0
  138.4613   71.0600  221.5579 H   0  0  0  0  0  0  0  0  0  0  0  0
  137.9409   68.9296  222.7565 H   0  0  0  0  0  0  0  0  0  0  0  0
  138.1994   67.4764  224.6328 H   0  0  0  0  0  0  0  0  0  0  0  0
  139.2370   67.0330  226.8619 H   0  0  0  0  0  0  0  0  0  0  0  0
  141.2910   70.8125  226.6829 H   0  0  0  0  0  0  0  0  0  0  0  0
  1  2  2  0
  2  3  1  0
  3  4  1  0
  4  5  1  0
  5  6  2  0
  5  7  1  0
  7  8  1  0
  8  9  1  0
  9 10  1  0
 10 11  1  0
 11 12  1  0
 12 13  1  0
 13 14  1  0
 14 15  1  0
 15 16  1  0
 16 17  1  0
 17 18  1  0
  2 19  1  0
 19 20  2  0
 20 21  1  0
 21 22  2  0
 22 23  1  0
 23 24  2  0
 24 25  1  0
 25 26  1  0
 25 27  2  0
 27 28  1  0
 28 29  2  0
 12  7  1  0
 18 13  1  0
 29 19  1  0
 28 22  1  0
  3 30  1  0
  4 31  1  0
  4 32  1  0
  8 33  1  0
  8 34  1  0
  9 35  1  0
  9 36  1  0
 10 37  1  0
 10 38  1  0
 11 39  1  0
 11 40  1  0
 12 41  1  1
 13 42  1  0
 14 43  1  0
 14 44  1  0
 15 45  1  0
 15 46  1  0
 16 47  1  0
 16 48  1  0
 17 49  1  0
 17 50  1  0
 18 51  1  0
 18 52  1  0
 20 53  1  0
 21 54  1  0
 23 55  1  0
 24 56  1  0
 27 57  1  0
M  END
>  <smiles>  (47) 
O=C(NCC(=O)N1CCCCC1C1CCCCC1)c1ccc2ccc(Cl)cc2n1

>  <score_type>  (47) 
oracle

>  <origin>  (47) 
autodockgpu

>  <m_score__min__energy>  (47) 
-9.5600000000000005

>  <m_primary>  (47) 
energy

>  <rmsd>  (47) 
3.56362404811409

>  <m_score__min__rmsd>  (47) 
3.56362404811409

>  <meeko>  (47) 
{"free_energy": -8.74, "intermolecular_energy": -10.23, "internal_energy": -1.79, "cluster_size": 24, "cluster_id": 2, "rank_in_cluster": 8}

>  <energy>  (47) 
-8.07

>  <cluster_rmsd>  (47) 
1.44

>  <cluster>  (47) 
3

$$$$

     RDKit          3D

 57 60  0  0  0  0  0  0  0  0999 V2000
  142.0870   72.0400  221.5980 O   0  0  0  0  0  0  0  0  0  0  0  0
  140.9910   72.3280  222.1500 C   0  0  0  0  0  0  0  0  0  0  0  0
  140.3790   73.5450  221.7710 N   0  0  0  0  0  0  0  0  0  0  0  0
  141.0600   74.3560  220.7820 C   0  0  0  0  0  0  0  0  0  0  0  0
  140.8860   75.7860  221.1360 C   0  0  0  0  0  0  0  0  0  0  0  0
  140.0020   76.0530  221.9920 O   0  0  0  0  0  0  0  0  0  0  0  0
  141.6930   76.8130  220.5260 N   0  0  0  0  0  0  0  0  0  0  0  0
  142.9020   76.3990  219.8520 C   0  0  0  0  0  0  0  0  0  0  0  0
  142.8450   76.8930  218.4270 C   0  0  0  0  0  0  0  0  0  0  0  0
  141.6660   77.7800  218.2330 C   0  0  0  0  0  0  0  0  0  0  0  0
  141.5400   78.8380  219.3150 C   0  0  0  0  0  0  0  0  0  0  0  0
  141.2400   78.1840  220.6200 C   0  0  2  0  0  0  0  0  0  0  0  0
  141.8440   78.8500  221.8060 C   0  0  0  0  0  0  0  0  0  0  0  0
  142.1480   80.3290  221.5710 C   0  0  0  0  0  0  0  0  0  0  0  0
  142.7690   80.8100  222.8890 C   0  0  0  0  0  0  0  0  0  0  0  0
  141.6340   80.9570  223.8680 C   0  0  0  0  0  0  0  0  0  0  0  0
  140.6220   79.8380  223.7610 C   0  0  0  0  0  0  0  0  0  0  0  0
  141.2190   78.6000  223.1250 C   0  0  0  0  0  0  0  0  0  0  0  0
  140.3760   71.4480  223.1410 C   0  0  0  0  0  0  0  0  0  0  0  0
  139.0680   71.0210  222.9090 C   0  0  0  0  0  0  0  0  0  0  0  0
  138.4600   70.1800  223.8410 C   0  0  0  0  0  0  0  0  0  0  0  0
  139.1470   69.7710  224.9880 C   0  0  0  0  0  0  0  0  0  0  0  0
  138.5100   68.9400  225.8860 C   0  0  0  0  0  0  0  0  0  0  0  0
  139.2140   68.5520  227.0100 C   0  0  0  0  0  0  0  0  0  0  0  0
  140.5150   68.9960  227.2100 C   0  0  0  0  0  0  0  0  0  0  0  0
  141.4110   68.5070  228.6320 Cl  0  0  0  0  0  0  0  0  0  0  0  0
  141.1230   69.8280  226.2900 C   0  0  0  0  0  0  0  0  0  0  0  0
  140.4370   70.2270  225.1610 C   0  0  0  0  0  0  0  0  0  0  0  0
  141.0120   71.0370  224.2550 N   0  0  0  0  0  0  0  0  0  0  0  0
  139.4700   73.8300  222.1990 H   0  0  0  0  0  0  0  0  0  0  0  0
  142.1310   74.1051  220.7718 H   0  0  0  0  0  0  0  0  0  0  0  0
  140.6375   74.1633  219.7848 H   0  0  0  0  0  0  0  0  0  0  0  0
  143.7771   76.8303  220.3601 H   0  0  0  0  0  0  0  0  0  0  0  0
  142.9881   75.3025  219.8691 H   0  0  0  0  0  0  0  0  0  0  0  0
  143.7630   77.4555  218.2013 H   0  0  0  0  0  0  0  0  0  0  0  0
  142.7564   76.0285  217.7526 H   0  0  0  0  0  0  0  0  0  0  0  0
  141.7612   78.2829  217.2593 H   0  0  0  0  0  0  0  0  0  0  0  0
  140.7661   77.1492  218.2808 H   0  0  0  0  0  0  0  0  0  0  0  0
  142.4848   79.3959  219.3935 H   0  0  0  0  0  0  0  0  0  0  0  0
  140.7247   79.5298  219.0568 H   0  0  0  0  0  0  0  0  0  0  0  0
  140.1555   78.2561  220.7894 H   0  0  0  0  0  0  0  0  0  0  0  0
  142.8009   78.3152  221.8972 H   0  0  0  0  0  0  0  0  0  0  0  0
  142.8575   80.4524  220.7395 H   0  0  0  0  0  0  0  0  0  0  0  0
  141.2490   80.9019  221.2996 H   0  0  0  0  0  0  0  0  0  0  0  0
  143.4961   80.0717  223.2582 H   0  0  0  0  0  0  0  0  0  0  0  0
  143.3029   81.7621  222.7531 H   0  0  0  0  0  0  0  0  0  0  0  0
  142.0470   80.9616  224.8875 H   0  0  0  0  0  0  0  0  0  0  0  0
  141.1144   81.8982  223.6353 H   0  0  0  0  0  0  0  0  0  0  0  0
  140.2646   79.5833  224.7697 H   0  0  0  0  0  0  0  0  0  0  0  0
  139.7944   80.1846  223.1247 H   0  0  0  0  0  0  0  0  0  0  0  0
  141.9867   78.1976  223.8023 H   0  0  0  0  0  0  0  0  0  0  0  0
  140.3924   77.8933  222.9599 H   0  0  0  0  0  0  0  0  0  0  0  0
  138.5260   71.3419  222.0072 H   0  0  0  0  0  0  0  0  0  0  0  0
  137.4293   69.8350  223.6718 H   0  0  0  0  0  0  0  0  0  0  0  0
  137.4787   68.5985  225.7136 H   0  0  0  0  0  0  0  0  0  0  0  0
  138.7421   67.8886  227.7497 H   0  0  0  0  0  0  0  0  0  0  0  0
  142.1542   70.1725  226.4574 H   0  0  0  0  0  0  0  0  0  0  0  0
  1  2  2  0
  2  3  1  0
  3  4  1  0
  4  5  1  0
  5  6  2  0
  5  7  1  0
  7  8  1  0
  8  9  1  0
  9 10  1  0
 10 11  1  0
 11 12  1  0
 12 13  1  0
 13 14  1  0
 14 15  1  0
 15 16  1  0
 16 17  1  0
 17 18  1  0
  2 19  1  0
 19 20  2  0
 20 21  1  0
 21 22  2  0
 22 23  1  0
 23 24  2  0
 24 25  1  0
 25 26  1  0
 25 27  2  0
 27 28  1  0
 28 29  2  0
 12  7  1  0
 18 13  1  0
 29 19  1  0
 28 22  1  0
  3 30  1  0
  4 31  1  0
  4 32  1  0
  8 33  1  0
  8 34  1  0
  9 35  1  0
  9 36  1  0
 10 37  1  0
 10 38  1  0
 11 39  1  0
 11 40  1  0
 12 41  1  1
 13 42  1  0
 14 43  1  0
 14 44  1  0
 15 45  1  0
 15 46  1  0
 16 47  1  0
 16 48  1  0
 17 49  1  0
 17 50  1  0
 18 51  1  0
 18 52  1  0
 20 53  1  0
 21 54  1  0
 23 55  1  0
 24 56  1  0
 27 57  1  0
M  END
>  <smiles>  (48) 
O=C(NCC(=O)N1CCCCC1C1CCCCC1)c1ccc2ccc(Cl)cc2n1

>  <score_type>  (48) 
oracle

>  <origin>  (48) 
autodockgpu

>  <m_score__min__energy>  (48) 
-9.5600000000000005

>  <m_primary>  (48) 
energy

>  <rmsd>  (48) 
2.6896941045048464

>  <m_score__min__rmsd>  (48) 
2.6896941045048464

>  <meeko>  (48) 
{"free_energy": -8.39, "intermolecular_energy": -9.88, "internal_energy": -1.78, "cluster_size": 24, "cluster_id": 2, "rank_in_cluster": 21}

>  <energy>  (48) 
-8.06

>  <cluster_rmsd>  (48) 
1.4

>  <cluster>  (48) 
3

$$$$

     RDKit          3D

 57 60  0  0  0  0  0  0  0  0999 V2000
  141.7640   72.0310  221.5770 O   0  0  0  0  0  0  0  0  0  0  0  0
  140.7510   72.2010  222.3080 C   0  0  0  0  0  0  0  0  0  0  0  0
  140.0890   73.4470  222.2130 N   0  0  0  0  0  0  0  0  0  0  0  0
  140.6280   74.4210  221.2850 C   0  0  0  0  0  0  0  0  0  0  0  0
  140.2510   75.7790  221.7480 C   0  0  0  0  0  0  0  0  0  0  0  0
  139.4460   75.8450  222.7130 O   0  0  0  0  0  0  0  0  0  0  0  0
  140.7840   76.9610  221.1170 N   0  0  0  0  0  0  0  0  0  0  0  0
  141.8190   76.7780  220.1250 C   0  0  0  0  0  0  0  0  0  0  0  0
  141.3630   77.4230  218.8390 C   0  0  0  0  0  0  0  0  0  0  0  0
  140.0980   78.1760  219.0570 C   0  0  0  0  0  0  0  0  0  0  0  0
  140.1520   79.0780  220.2760 C   0  0  0  0  0  0  0  0  0  0  0  0
  140.2470   78.2460  221.5090 C   0  0  2  0  0  0  0  0  0  0  0  0
  141.0660   78.8390  222.6010 C   0  0  0  0  0  0  0  0  0  0  0  0
  142.2630   79.6360  222.0850 C   0  0  0  0  0  0  0  0  0  0  0  0
  142.9680   80.1380  223.3520 C   0  0  0  0  0  0  0  0  0  0  0  0
  142.1370   81.2790  223.8800 C   0  0  0  0  0  0  0  0  0  0  0  0
  140.6520   81.0160  223.7780 C   0  0  0  0  0  0  0  0  0  0  0  0
  140.3490   79.5340  223.6950 C   0  0  0  0  0  0  0  0  0  0  0  0
  140.2780   71.1600  223.2180 C   0  0  0  0  0  0  0  0  0  0  0  0
  139.1500   70.4300  222.8400 C   0  0  0  0  0  0  0  0  0  0  0  0
  138.6800   69.4310  223.6930 C   0  0  0  0  0  0  0  0  0  0  0  0
  139.3250   69.1640  224.9030 C   0  0  0  0  0  0  0  0  0  0  0  0
  138.8280   68.1690  225.7190 C   0  0  0  0  0  0  0  0  0  0  0  0
  139.4870   67.9270  226.9100 C   0  0  0  0  0  0  0  0  0  0  0  0
  140.6070   68.6730  227.2540 C   0  0  0  0  0  0  0  0  0  0  0  0
  141.4460   68.3710  228.7610 Cl  0  0  0  0  0  0  0  0  0  0  0  0
  141.0780   69.6630  226.4140 C   0  0  0  0  0  0  0  0  0  0  0  0
  140.4340   69.9200  225.2210 C   0  0  0  0  0  0  0  0  0  0  0  0
  140.8780   70.8800  224.3900 N   0  0  0  0  0  0  0  0  0  0  0  0
  139.2450   73.6370  222.7980 H   0  0  0  0  0  0  0  0  0  0  0  0
  141.7239   74.3326  221.2508 H   0  0  0  0  0  0  0  0  0  0  0  0
  140.2233   74.2428  220.2778 H   0  0  0  0  0  0  0  0  0  0  0  0
  142.7509   77.2511  220.4682 H   0  0  0  0  0  0  0  0  0  0  0  0
  142.0055   75.7057  219.9656 H   0  0  0  0  0  0  0  0  0  0  0  0
  142.1408   78.1156  218.4851 H   0  0  0  0  0  0  0  0  0  0  0  0
  141.1865   76.6380  218.0889 H   0  0  0  0  0  0  0  0  0  0  0  0
  139.9008   78.7958  218.1699 H   0  0  0  0  0  0  0  0  0  0  0  0
  139.2993   77.4388  219.2262 H   0  0  0  0  0  0  0  0  0  0  0  0
  141.0327   79.7335  220.2078 H   0  0  0  0  0  0  0  0  0  0  0  0
  139.2395   79.6909  220.3180 H   0  0  0  0  0  0  0  0  0  0  0  0
  139.2373   78.1654  221.9380 H   0  0  0  0  0  0  0  0  0  0  0  0
  141.4470   77.9394  223.1065 H   0  0  0  0  0  0  0  0  0  0  0  0
  142.9335   78.9926  221.4964 H   0  0  0  0  0  0  0  0  0  0  0  0
  141.9613   80.4595  221.4211 H   0  0  0  0  0  0  0  0  0  0  0  0
  143.0262   79.3327  224.0990 H   0  0  0  0  0  0  0  0  0  0  0  0
  143.9961   80.4623  223.1334 H   0  0  0  0  0  0  0  0  0  0  0  0
  142.3937   81.4414  224.9372 H   0  0  0  0  0  0  0  0  0  0  0  0
  142.3603   82.1641  223.2662 H   0  0  0  0  0  0  0  0  0  0  0  0
  140.1546   81.4322  224.6664 H   0  0  0  0  0  0  0  0  0  0  0  0
  140.2819   81.4933  222.8586 H   0  0  0  0  0  0  0  0  0  0  0  0
  140.6353   79.0673  224.6491 H   0  0  0  0  0  0  0  0  0  0  0  0
  139.2734   79.4375  223.4860 H   0  0  0  0  0  0  0  0  0  0  0  0
  138.6411   70.6384  221.8873 H   0  0  0  0  0  0  0  0  0  0  0  0
  137.7918   68.8472  223.4096 H   0  0  0  0  0  0  0  0  0  0  0  0
  137.9387   67.5886  225.4322 H   0  0  0  0  0  0  0  0  0  0  0  0
  139.1230   67.1407  227.5877 H   0  0  0  0  0  0  0  0  0  0  0  0
  141.9667   70.2467  226.6961 H   0  0  0  0  0  0  0  0  0  0  0  0
  1  2  2  0
  2  3  1  0
  3  4  1  0
  4  5  1  0
  5  6  2  0
  5  7  1  0
  7  8  1  0
  8  9  1  0
  9 10  1  0
 10 11  1  0
 11 12  1  0
 12 13  1  0
 13 14  1  0
 14 15  1  0
 15 16  1  0
 16 17  1  0
 17 18  1  0
  2 19  1  0
 19 20  2  0
 20 21  1  0
 21 22  2  0
 22 23  1  0
 23 24  2  0
 24 25  1  0
 25 26  1  0
 25 27  2  0
 27 28  1  0
 28 29  2  0
 12  7  1  0
 18 13  1  0
 29 19  1  0
 28 22  1  0
  3 30  1  0
  4 31  1  0
  4 32  1  0
  8 33  1  0
  8 34  1  0
  9 35  1  0
  9 36  1  0
 10 37  1  0
 10 38  1  0
 11 39  1  0
 11 40  1  0
 12 41  1  1
 13 42  1  0
 14 43  1  0
 14 44  1  0
 15 45  1  0
 15 46  1  0
 16 47  1  0
 16 48  1  0
 17 49  1  0
 17 50  1  0
 18 51  1  0
 18 52  1  0
 20 53  1  0
 21 54  1  0
 23 55  1  0
 24 56  1  0
 27 57  1  0
M  END
>  <smiles>  (49) 
O=C(NCC(=O)N1CCCCC1C1CCCCC1)c1ccc2ccc(Cl)cc2n1

>  <score_type>  (49) 
oracle

>  <origin>  (49) 
autodockgpu

>  <m_score__min__energy>  (49) 
-9.5600000000000005

>  <m_primary>  (49) 
energy

>  <rmsd>  (49) 
2.5503827028633514

>  <m_score__min__rmsd>  (49) 
2.5503827028633514

>  <meeko>  (49) 
{"free_energy": -8.92, "intermolecular_energy": -10.41, "internal_energy": -1.88, "cluster_size": 24, "cluster_id": 2, "rank_in_cluster": 1}

>  <energy>  (49) 
-7.68

>  <cluster_rmsd>  (49) 
0.0

>  <cluster>  (49) 
4

$$$$

     RDKit          3D

 57 60  0  0  0  0  0  0  0  0999 V2000
  137.3780   74.6620  221.0720 O   0  0  0  0  0  0  0  0  0  0  0  0
  138.3210   74.9820  221.8450 C   0  0  0  0  0  0  0  0  0  0  0  0
  139.1320   73.9350  222.3390 N   0  0  0  0  0  0  0  0  0  0  0  0
  138.8120   72.5850  221.9180 C   0  0  0  0  0  0  0  0  0  0  0  0
  139.4630   71.6290  222.8470 C   0  0  0  0  0  0  0  0  0  0  0  0
  140.6780   71.8320  223.1080 O   0  0  0  0  0  0  0  0  0  0  0  0
  138.7340   70.5230  223.4180 N   0  0  0  0  0  0  0  0  0  0  0  0
  137.3080   70.4770  223.1900 C   0  0  0  0  0  0  0  0  0  0  0  0
  136.9730   69.1580  222.5380 C   0  0  0  0  0  0  0  0  0  0  0  0
  138.1730   68.2780  222.5040 C   0  0  0  0  0  0  0  0  0  0  0  0
  138.8880   68.2030  223.8410 C   0  0  0  0  0  0  0  0  0  0  0  0
  139.4740   69.5330  224.1690 C   0  0  2  0  0  0  0  0  0  0  0  0
  139.4730   69.8750  225.6180 C   0  0  0  0  0  0  0  0  0  0  0  0
  140.0070   68.7470  226.4980 C   0  0  0  0  0  0  0  0  0  0  0  0
  139.9070   69.2920  227.9290 C   0  0  0  0  0  0  0  0  0  0  0  0
  141.0390   70.2730  228.0930 C   0  0  0  0  0  0  0  0  0  0  0  0
  141.2500   71.1310  226.8670 C   0  0  0  0  0  0  0  0  0  0  0  0
  140.0040   71.2020  226.0090 C   0  0  0  0  0  0  0  0  0  0  0  0
  138.5700   76.3720  222.2170 C   0  0  0  0  0  0  0  0  0  0  0  0
  137.4660   77.2100  222.3790 C   0  0  0  0  0  0  0  0  0  0  0  0
  137.6790   78.5420  222.7340 C   0  0  0  0  0  0  0  0  0  0  0  0
  138.9750   79.0310  222.9250 C   0  0  0  0  0  0  0  0  0  0  0  0
  139.1440   80.3550  223.2750 C   0  0  0  0  0  0  0  0  0  0  0  0
  140.4360   80.8090  223.4570 C   0  0  0  0  0  0  0  0  0  0  0  0
  141.5120   79.9480  223.2880 C   0  0  0  0  0  0  0  0  0  0  0  0
  143.1510   80.5180  223.5180 Cl  0  0  0  0  0  0  0  0  0  0  0  0
  141.3070   78.6270  222.9370 C   0  0  0  0  0  0  0  0  0  0  0  0
  140.0250   78.1540  222.7500 C   0  0  0  0  0  0  0  0  0  0  0  0
  139.8060   76.8720  222.4080 N   0  0  0  0  0  0  0  0  0  0  0  0
  139.9270   74.1470  222.9830 H   0  0  0  0  0  0  0  0  0  0  0  0
  137.7220   72.4390  221.9408 H   0  0  0  0  0  0  0  0  0  0  0  0
  139.1744   72.4167  220.8931 H   0  0  0  0  0  0  0  0  0  0  0  0
  136.7754   70.5636  224.1486 H   0  0  0  0  0  0  0  0  0  0  0  0
  137.0019   71.3093  222.5391 H   0  0  0  0  0  0  0  0  0  0  0  0
  136.1758   68.6622  223.1112 H   0  0  0  0  0  0  0  0  0  0  0  0
  136.6368   69.3440  221.5073 H   0  0  0  0  0  0  0  0  0  0  0  0
  137.8568   67.2641  222.2176 H   0  0  0  0  0  0  0  0  0  0  0  0
  138.8773   68.7077  221.7764 H   0  0  0  0  0  0  0  0  0  0  0  0
  138.1710   67.9156  224.6241 H   0  0  0  0  0  0  0  0  0  0  0  0
  139.6912   67.4535  223.7845 H   0  0  0  0  0  0  0  0  0  0  0  0
  140.5388   69.5076  223.8941 H   0  0  0  0  0  0  0  0  0  0  0  0
  138.3974   69.9856  225.8200 H   0  0  0  0  0  0  0  0  0  0  0  0
  139.3931   67.8414  226.3836 H   0  0  0  0  0  0  0  0  0  0  0  0
  141.0352   68.4611  226.2314 H   0  0  0  0  0  0  0  0  0  0  0  0
  138.9414   69.7978  228.0764 H   0  0  0  0  0  0  0  0  0  0  0  0
  139.9729   68.4810  228.6692 H   0  0  0  0  0  0  0  0  0  0  0  0
  140.8152   70.9289  228.9472 H   0  0  0  0  0  0  0  0  0  0  0  0
  141.9598   69.6934  228.2552 H   0  0  0  0  0  0  0  0  0  0  0  0
  141.5207   72.1482  227.1865 H   0  0  0  0  0  0  0  0  0  0  0  0
  142.0530   70.6782  226.2669 H   0  0  0  0  0  0  0  0  0  0  0  0
  139.2244   71.7356  226.5725 H   0  0  0  0  0  0  0  0  0  0  0  0
  140.2823   71.7228  225.0809 H   0  0  0  0  0  0  0  0  0  0  0  0
  136.4458   76.8269  222.2294 H   0  0  0  0  0  0  0  0  0  0  0  0
  136.8186   79.2147  222.8650 H   0  0  0  0  0  0  0  0  0  0  0  0
  138.2811   81.0248  223.4044 H   0  0  0  0  0  0  0  0  0  0  0  0
  140.6131   81.8579  223.7372 H   0  0  0  0  0  0  0  0  0  0  0  0
  142.1664   77.9528  222.8068 H   0  0  0  0  0  0  0  0  0  0  0  0
  1  2  2  0
  2  3  1  0
  3  4  1  0
  4  5  1  0
  5  6  2  0
  5  7  1  0
  7  8  1  0
  8  9  1  0
  9 10  1  0
 10 11  1  0
 11 12  1  0
 12 13  1  0
 13 14  1  0
 14 15  1  0
 15 16  1  0
 16 17  1  0
 17 18  1  0
  2 19  1  0
 19 20  2  0
 20 21  1  0
 21 22  2  0
 22 23  1  0
 23 24  2  0
 24 25  1  0
 25 26  1  0
 25 27  2  0
 27 28  1  0
 28 29  2  0
 12  7  1  0
 18 13  1  0
 29 19  1  0
 28 22  1  0
  3 30  1  0
  4 31  1  0
  4 32  1  0
  8 33  1  0
  8 34  1  0
  9 35  1  0
  9 36  1  0
 10 37  1  0
 10 38  1  0
 11 39  1  0
 11 40  1  0
 12 41  1  6
 13 42  1  0
 14 43  1  0
 14 44  1  0
 15 45  1  0
 15 46  1  0
 16 47  1  0
 16 48  1  0
 17 49  1  0
 17 50  1  0
 18 51  1  0
 18 52  1  0
 20 53  1  0
 21 54  1  0
 23 55  1  0
 24 56  1  0
 27 57  1  0
M  END
>  <smiles>  (50) 
O=C(NCC(=O)N1CCCCC1C1CCCCC1)c1ccc2ccc(Cl)cc2n1

>  <score_type>  (50) 
oracle

>  <origin>  (50) 
autodockgpu

>  <m_score__min__energy>  (50) 
-9.5600000000000005

>  <m_primary>  (50) 
energy

>  <rmsd>  (50) 
8.287380302479452

>  <m_score__min__rmsd>  (50) 
8.287380302479452

>  <meeko>  (50) 
{"free_energy": -8.34, "intermolecular_energy": -9.83, "internal_energy": -1.76, "cluster_size": 17, "cluster_id": 1, "rank_in_cluster": 14}

>  <energy>  (50) 
-6.93

>  <cluster_rmsd>  (50) 
0.0

>  <cluster>  (50) 
5

$$$$

     RDKit          3D

 57 60  0  0  0  0  0  0  0  0999 V2000
  141.2040   73.6650  220.9630 O   0  0  0  0  0  0  0  0  0  0  0  0
  140.3750   73.7710  221.9200 C   0  0  0  0  0  0  0  0  0  0  0  0
  139.8860   75.0540  222.2890 N   0  0  0  0  0  0  0  0  0  0  0  0
  140.3090   76.2790  221.6020 C   0  0  0  0  0  0  0  0  0  0  0  0
  140.0400   77.4680  222.3690 C   0  0  0  0  0  0  0  0  0  0  0  0
  138.9620   77.5030  223.0610 O   0  0  0  0  0  0  0  0  0  0  0  0
  140.8310   78.6620  222.4690 N   0  0  0  0  0  0  0  0  0  0  0  0
  141.7450   78.6480  223.6080 C   0  0  0  0  0  0  0  0  0  0  0  0
  142.5600   79.8860  223.6340 C   0  0  0  0  0  0  0  0  0  0  0  0
  141.7470   81.1020  223.3990 C   0  0  0  0  0  0  0  0  0  0  0  0
  140.6450   81.0230  222.4070 C   0  0  0  0  0  0  0  0  0  0  0  0
  140.7060   79.7680  221.5520 C   0  0  1  0  0  0  0  0  0  0  0  0
  141.6460   79.8500  220.4320 C   0  0  0  0  0  0  0  0  0  0  0  0
  141.6790   81.1600  219.6860 C   0  0  0  0  0  0  0  0  0  0  0  0
  141.4960   81.0270  218.2180 C   0  0  0  0  0  0  0  0  0  0  0  0
  142.5390   80.1480  217.6270 C   0  0  0  0  0  0  0  0  0  0  0  0
  142.5330   78.8370  218.3300 C   0  0  0  0  0  0  0  0  0  0  0  0
  141.4850   78.7370  219.4150 C   0  0  0  0  0  0  0  0  0  0  0  0
  139.8910   72.6190  222.6730 C   0  0  0  0  0  0  0  0  0  0  0  0
  138.8460   71.8950  222.0900 C   0  0  0  0  0  0  0  0  0  0  0  0
  138.3570   70.8020  222.7730 C   0  0  0  0  0  0  0  0  0  0  0  0
  138.8740   70.4200  223.9980 C   0  0  0  0  0  0  0  0  0  0  0  0
  138.3930   69.3200  224.6950 C   0  0  0  0  0  0  0  0  0  0  0  0
  138.9590   69.0050  225.8960 C   0  0  0  0  0  0  0  0  0  0  0  0
  139.9990   69.7570  226.4330 C   0  0  0  0  0  0  0  0  0  0  0  0
  140.7050   69.3100  227.9880 Cl  0  0  0  0  0  0  0  0  0  0  0  0
  140.4650   70.8530  225.7210 C   0  0  0  0  0  0  0  0  0  0  0  0
  139.9010   71.1900  224.4980 C   0  0  0  0  0  0  0  0  0  0  0  0
  140.4030   72.2620  223.8600 N   0  0  0  0  0  0  0  0  0  0  0  0
  139.1920   75.1240  223.0890 H   0  0  0  0  0  0  0  0  0  0  0  0
  141.3909   76.2202  221.4120 H   0  0  0  0  0  0  0  0  0  0  0  0
  139.7348   76.3503  220.6665 H   0  0  0  0  0  0  0  0  0  0  0  0
  141.1628   78.5781  224.5387 H   0  0  0  0  0  0  0  0  0  0  0  0
  142.4164   77.7816  223.5152 H   0  0  0  0  0  0  0  0  0  0  0  0
  143.0444   79.9695  224.6181 H   0  0  0  0  0  0  0  0  0  0  0  0
  143.3016   79.8166  222.8245 H   0  0  0  0  0  0  0  0  0  0  0  0
  141.2998   81.3877  224.3625 H   0  0  0  0  0  0  0  0  0  0  0  0
  142.4539   81.8258  222.9672 H   0  0  0  0  0  0  0  0  0  0  0  0
  139.6863   81.0338  222.9462 H   0  0  0  0  0  0  0  0  0  0  0  0
  140.7460   81.8863  221.7328 H   0  0  0  0  0  0  0  0  0  0  0  0
  139.7844   79.6143  220.9714 H   0  0  0  0  0  0  0  0  0  0  0  0
  142.6048   79.7461  220.9611 H   0  0  0  0  0  0  0  0  0  0  0  0
  140.8753   81.8008  220.0776 H   0  0  0  0  0  0  0  0  0  0  0  0
  142.6795   81.5893  219.8432 H   0  0  0  0  0  0  0  0  0  0  0  0
  140.5050   80.5940  218.0171 H   0  0  0  0  0  0  0  0  0  0  0  0
  141.5808   82.0250  217.7631 H   0  0  0  0  0  0  0  0  0  0  0  0
  142.3269   79.9931  216.5588 H   0  0  0  0  0  0  0  0  0  0  0  0
  143.5258   80.6211  217.7379 H   0  0  0  0  0  0  0  0  0  0  0  0
  142.3434   78.0461  217.5894 H   0  0  0  0  0  0  0  0  0  0  0  0
  143.5132   78.7276  218.8171 H   0  0  0  0  0  0  0  0  0  0  0  0
  140.4868   78.8089  218.9584 H   0  0  0  0  0  0  0  0  0  0  0  0
  141.6054   77.7724  219.9299 H   0  0  0  0  0  0  0  0  0  0  0  0
  138.4271   72.1888  221.1162 H   0  0  0  0  0  0  0  0  0  0  0  0
  137.5348   70.2187  222.3328 H   0  0  0  0  0  0  0  0  0  0  0  0
  137.5710   68.7137  224.2868 H   0  0  0  0  0  0  0  0  0  0  0  0
  138.5835   68.1344  226.4537 H   0  0  0  0  0  0  0  0  0  0  0  0
  141.2874   71.4593  226.1286 H   0  0  0  0  0  0  0  0  0  0  0  0
  1  2  2  0
  2  3  1  0
  3  4  1  0
  4  5  1  0
  5  6  2  0
  5  7  1  0
  7  8  1  0
  8  9  1  0
  9 10  1  0
 10 11  1  0
 11 12  1  0
 12 13  1  0
 13 14  1  0
 14 15  1  0
 15 16  1  0
 16 17  1  0
 17 18  1  0
  2 19  1  0
 19 20  2  0
 20 21  1  0
 21 22  2  0
 22 23  1  0
 23 24  2  0
 24 25  1  0
 25 26  1  0
 25 27  2  0
 27 28  1  0
 28 29  2  0
 12  7  1  0
 18 13  1  0
 29 19  1  0
 28 22  1  0
  3 30  1  0
  4 31  1  0
  4 32  1  0
  8 33  1  0
  8 34  1  0
  9 35  1  0
  9 36  1  0
 10 37  1  0
 10 38  1  0
 11 39  1  0
 11 40  1  0
 12 41  1  6
 13 42  1  0
 14 43  1  0
 14 44  1  0
 15 45  1  0
 15 46  1  0
 16 47  1  0
 16 48  1  0
 17 49  1  0
 17 50  1  0
 18 51  1  0
 18 52  1  0
 20 53  1  0
 21 54  1  0
 23 55  1  0
 24 56  1  0
 27 57  1  0
M  END
>  <smiles>  (51) 
O=C(NCC(=O)N1CCCCC1C1CCCCC1)c1ccc2ccc(Cl)cc2n1

>  <score_type>  (51) 
oracle

>  <origin>  (51) 
autodockgpu

>  <m_score__min__energy>  (51) 
-8.8499999999999996

>  <m_primary>  (51) 
energy

>  <rmsd>  (51) 
4.438081385864099

>  <m_score__min__rmsd>  (51) 
4.438081385864099

>  <meeko>  (51) 
{"free_energy": -8.51, "intermolecular_energy": -10.0, "internal_energy": -1.7, "cluster_size": 28, "cluster_id": 1, "rank_in_cluster": 16}

>  <energy>  (51) 
-8.85

>  <cluster_rmsd>  (51) 
0.0

>  <cluster>  (51) 
1

$$$$

     RDKit          3D

 57 60  0  0  0  0  0  0  0  0999 V2000
  139.7490   78.3090  218.8070 O   0  0  0  0  0  0  0  0  0  0  0  0
  140.9720   78.0660  219.0530 C   0  0  0  0  0  0  0  0  0  0  0  0
  141.8990   79.1400  219.1390 N   0  0  0  0  0  0  0  0  0  0  0  0
  141.4970   80.5370  218.9490 C   0  0  0  0  0  0  0  0  0  0  0  0
  141.1740   81.1980  220.1870 C   0  0  0  0  0  0  0  0  0  0  0  0
  140.5080   82.2910  220.1270 O   0  0  0  0  0  0  0  0  0  0  0  0
  141.5070   80.7960  221.5250 N   0  0  0  0  0  0  0  0  0  0  0  0
  141.6080   81.9210  222.4510 C   0  0  0  0  0  0  0  0  0  0  0  0
  141.9120   81.4410  223.8190 C   0  0  0  0  0  0  0  0  0  0  0  0
  142.9870   80.4210  223.8330 C   0  0  0  0  0  0  0  0  0  0  0  0
  143.0180   79.4260  222.7310 C   0  0  0  0  0  0  0  0  0  0  0  0
  141.7470   79.4240  221.8980 C   0  0  1  0  0  0  0  0  0  0  0  0
  140.6440   78.6640  222.4890 C   0  0  0  0  0  0  0  0  0  0  0  0
  140.8670   77.1810  222.6470 C   0  0  0  0  0  0  0  0  0  0  0  0
  139.8010   76.3390  222.0460 C   0  0  0  0  0  0  0  0  0  0  0  0
  138.4750   76.6580  222.6360 C   0  0  0  0  0  0  0  0  0  0  0  0
  138.2090   78.1140  222.4910 C   0  0  0  0  0  0  0  0  0  0  0  0
  139.3160   78.8640  221.7860 C   0  0  0  0  0  0  0  0  0  0  0  0
  141.4800   76.7140  219.2560 C   0  0  0  0  0  0  0  0  0  0  0  0
  140.6200   75.6700  218.8990 C   0  0  0  0  0  0  0  0  0  0  0  0
  141.0620   74.3770  219.0810 C   0  0  0  0  0  0  0  0  0  0  0  0
  142.3150   74.1040  219.5980 C   0  0  0  0  0  0  0  0  0  0  0  0
  142.7740   72.8060  219.7830 C   0  0  0  0  0  0  0  0  0  0  0  0
  144.0250   72.6200  220.2940 C   0  0  0  0  0  0  0  0  0  0  0  0
  144.8440   73.6920  220.6320 C   0  0  0  0  0  0  0  0  0  0  0  0
  146.4590   73.4030  221.2860 Cl  0  0  0  0  0  0  0  0  0  0  0  0
  144.3660   74.9810  220.4400 C   0  0  0  0  0  0  0  0  0  0  0  0
  143.0960   75.1910  219.9220 C   0  0  0  0  0  0  0  0  0  0  0  0
  142.6980   76.4650  219.7590 N   0  0  0  0  0  0  0  0  0  0  0  0
  142.9160   78.9200  219.3490 H   0  0  0  0  0  0  0  0  0  0  0  0
  142.3244   81.0784  218.4670 H   0  0  0  0  0  0  0  0  0  0  0  0
  140.5903   80.5390  218.3261 H   0  0  0  0  0  0  0  0  0  0  0  0
  142.4112   82.5941  222.1167 H   0  0  0  0  0  0  0  0  0  0  0  0
  140.6470   82.4561  222.4670 H   0  0  0  0  0  0  0  0  0  0  0  0
  142.2296   82.2976  224.4317 H   0  0  0  0  0  0  0  0  0  0  0  0
  141.0008   80.9741  224.2212 H   0  0  0  0  0  0  0  0  0  0  0  0
  143.9472   80.9574  223.8165 H   0  0  0  0  0  0  0  0  0  0  0  0
  142.7886   79.8250  224.7360 H   0  0  0  0  0  0  0  0  0  0  0  0
  143.8683   79.6580  222.0728 H   0  0  0  0  0  0  0  0  0  0  0  0
  143.1134   78.4303  223.1888 H   0  0  0  0  0  0  0  0  0  0  0  0
  141.8587   78.8435  220.9703 H   0  0  0  0  0  0  0  0  0  0  0  0
  140.6107   79.1033  223.4969 H   0  0  0  0  0  0  0  0  0  0  0  0
  141.8226   76.9225  222.1674 H   0  0  0  0  0  0  0  0  0  0  0  0
  140.8633   76.9734  223.7272 H   0  0  0  0  0  0  0  0  0  0  0  0
  139.7660   76.5223  220.9620 H   0  0  0  0  0  0  0  0  0  0  0  0
  140.0310   75.2830  222.2508 H   0  0  0  0  0  0  0  0  0  0  0  0
  137.6933   76.0879  222.1126 H   0  0  0  0  0  0  0  0  0  0  0  0
  138.4718   76.3876  223.7022 H   0  0  0  0  0  0  0  0  0  0  0  0
  137.2805   78.2423  221.9152 H   0  0  0  0  0  0  0  0  0  0  0  0
  138.1326   78.5307  223.5061 H   0  0  0  0  0  0  0  0  0  0  0  0
  139.3976   78.4963  220.7525 H   0  0  0  0  0  0  0  0  0  0  0  0
  139.0731   79.9368  221.7965 H   0  0  0  0  0  0  0  0  0  0  0  0
  139.6214   75.8746  218.4856 H   0  0  0  0  0  0  0  0  0  0  0  0
  140.4011   73.5412  218.8080 H   0  0  0  0  0  0  0  0  0  0  0  0
  142.1410   71.9449  219.5225 H   0  0  0  0  0  0  0  0  0  0  0  0
  144.3958   71.5951  220.4427 H   0  0  0  0  0  0  0  0  0  0  0  0
  144.9987   75.8423  220.7004 H   0  0  0  0  0  0  0  0  0  0  0  0
  1  2  2  0
  2  3  1  0
  3  4  1  0
  4  5  1  0
  5  6  2  0
  5  7  1  0
  7  8  1  0
  8  9  1  0
  9 10  1  0
 10 11  1  0
 11 12  1  0
 12 13  1  0
 13 14  1  0
 14 15  1  0
 15 16  1  0
 16 17  1  0
 17 18  1  0
  2 19  1  0
 19 20  2  0
 20 21  1  0
 21 22  2  0
 22 23  1  0
 23 24  2  0
 24 25  1  0
 25 26  1  0
 25 27  2  0
 27 28  1  0
 28 29  2  0
 12  7  1  0
 18 13  1  0
 29 19  1  0
 28 22  1  0
  3 30  1  0
  4 31  1  0
  4 32  1  0
  8 33  1  0
  8 34  1  0
  9 35  1  0
  9 36  1  0
 10 37  1  0
 10 38  1  0
 11 39  1  0
 11 40  1  0
 12 41  1  6
 13 42  1  0
 14 43  1  0
 14 44  1  0
 15 45  1  0
 15 46  1  0
 16 47  1  0
 16 48  1  0
 17 49  1  0
 17 50  1  0
 18 51  1  0
 18 52  1  0
 20 53  1  0
 21 54  1  0
 23 55  1  0
 24 56  1  0
 27 57  1  0
M  END
>  <smiles>  (52) 
O=C(NCC(=O)N1CCCCC1C1CCCCC1)c1ccc2ccc(Cl)cc2n1

>  <score_type>  (52) 
oracle

>  <origin>  (52) 
autodockgpu

>  <m_score__min__energy>  (52) 
-8.8499999999999996

>  <m_primary>  (52) 
energy

>  <rmsd>  (52) 
7.705936827591889

>  <m_score__min__rmsd>  (52) 
7.705936827591889

>  <meeko>  (52) 
{"free_energy": -7.1, "intermolecular_energy": -8.59, "internal_energy": -2.91, "cluster_size": 11, "cluster_id": 6, "rank_in_cluster": 11}

>  <energy>  (52) 
-8.78

>  <cluster_rmsd>  (52) 
0.27

>  <cluster>  (52) 
1

$$$$

     RDKit          3D

 57 60  0  0  0  0  0  0  0  0999 V2000
  141.5540   72.9240  221.4780 O   0  0  0  0  0  0  0  0  0  0  0  0
  140.5330   72.9360  222.2320 C   0  0  0  0  0  0  0  0  0  0  0  0
  139.7530   74.1190  222.3450 N   0  0  0  0  0  0  0  0  0  0  0  0
  140.0890   75.3480  221.6160 C   0  0  0  0  0  0  0  0  0  0  0  0
  139.6660   76.5380  222.3080 C   0  0  0  0  0  0  0  0  0  0  0  0
  138.5840   76.4800  222.9930 O   0  0  0  0  0  0  0  0  0  0  0  0
  140.3020   77.8250  222.3380 N   0  0  0  0  0  0  0  0  0  0  0  0
  141.2390   78.0260  221.2360 C   0  0  0  0  0  0  0  0  0  0  0  0
  141.8300   79.3830  221.2990 C   0  0  0  0  0  0  0  0  0  0  0  0
  142.2660   79.7470  222.6680 C   0  0  0  0  0  0  0  0  0  0  0  0
  141.4190   79.3100  223.8070 C   0  0  0  0  0  0  0  0  0  0  0  0
  140.0560   78.8000  223.3730 C   0  0  1  0  0  0  0  0  0  0  0  0
  139.0760   79.8560  223.1110 C   0  0  0  0  0  0  0  0  0  0  0  0
  138.8790   80.8680  224.2100 C   0  0  0  0  0  0  0  0  0  0  0  0
  137.4650   81.0430  224.6290 C   0  0  0  0  0  0  0  0  0  0  0  0
  136.6170   81.4580  223.4820 C   0  0  0  0  0  0  0  0  0  0  0  0
  136.7730   80.4770  222.3740 C   0  0  0  0  0  0  0  0  0  0  0  0
  137.7110   79.3370  222.7030 C   0  0  0  0  0  0  0  0  0  0  0  0
  140.1110   71.7710  223.0040 C   0  0  0  0  0  0  0  0  0  0  0  0
  139.1380   70.9580  222.4140 C   0  0  0  0  0  0  0  0  0  0  0  0
  138.7090   69.8510  223.1140 C   0  0  0  0  0  0  0  0  0  0  0  0
  139.2160   69.5400  224.3620 C   0  0  0  0  0  0  0  0  0  0  0  0
  138.7950   68.4260  225.0770 C   0  0  0  0  0  0  0  0  0  0  0  0
  139.3480   68.1850  226.3000 C   0  0  0  0  0  0  0  0  0  0  0  0
  140.3150   69.0240  226.8450 C   0  0  0  0  0  0  0  0  0  0  0  0
  141.0060   68.6700  228.4300 Cl  0  0  0  0  0  0  0  0  0  0  0  0
  140.7210   70.1330  226.1150 C   0  0  0  0  0  0  0  0  0  0  0  0
  140.1700   70.3950  224.8680 C   0  0  0  0  0  0  0  0  0  0  0  0
  140.6120   71.4830  224.2140 N   0  0  0  0  0  0  0  0  0  0  0  0
  138.9010   74.1110  222.9770 H   0  0  0  0  0  0  0  0  0  0  0  0
  141.1797   75.3892  221.4796 H   0  0  0  0  0  0  0  0  0  0  0  0
  139.5593   75.3180  220.6524 H   0  0  0  0  0  0  0  0  0  0  0  0
  142.0425   77.2777  221.3028 H   0  0  0  0  0  0  0  0  0  0  0  0
  140.6980   77.9172  220.2844 H   0  0  0  0  0  0  0  0  0  0  0  0
  142.7018   79.4200  220.6292 H   0  0  0  0  0  0  0  0  0  0  0  0
  141.0549   80.1007  220.9922 H   0  0  0  0  0  0  0  0  0  0  0  0
  143.2662   79.3147  222.8189 H   0  0  0  0  0  0  0  0  0  0  0  0
  142.2133   80.8455  222.6910 H   0  0  0  0  0  0  0  0  0  0  0  0
  141.9408   78.5030  224.3422 H   0  0  0  0  0  0  0  0  0  0  0  0
  141.2523   80.1881  224.4483 H   0  0  0  0  0  0  0  0  0  0  0  0
  139.5229   78.2902  224.1890 H   0  0  0  0  0  0  0  0  0  0  0  0
  139.5540   80.3738  222.2664 H   0  0  0  0  0  0  0  0  0  0  0  0
  139.4609   80.5443  225.0856 H   0  0  0  0  0  0  0  0  0  0  0  0
  139.2132   81.8372  223.8114 H   0  0  0  0  0  0  0  0  0  0  0  0
  137.0878   80.0902  225.0289 H   0  0  0  0  0  0  0  0  0  0  0  0
  137.4222   81.8280  225.3984 H   0  0  0  0  0  0  0  0  0  0  0  0
  135.5637   81.4917  223.7972 H   0  0  0  0  0  0  0  0  0  0  0  0
  136.9268   82.4555  223.1370 H   0  0  0  0  0  0  0  0  0  0  0  0
  135.7838   80.0569  222.1394 H   0  0  0  0  0  0  0  0  0  0  0  0
  137.2097   81.0188  221.5221 H   0  0  0  0  0  0  0  0  0  0  0  0
  137.2871   78.7502  223.5312 H   0  0  0  0  0  0  0  0  0  0  0  0
  137.8283   78.7102  221.8067 H   0  0  0  0  0  0  0  0  0  0  0  0
  138.7275   71.1949  221.4213 H   0  0  0  0  0  0  0  0  0  0  0  0
  137.9438   69.1984  222.6684 H   0  0  0  0  0  0  0  0  0  0  0  0
  138.0303   67.7513  224.6647 H   0  0  0  0  0  0  0  0  0  0  0  0
  139.0208   67.3036  226.8710 H   0  0  0  0  0  0  0  0  0  0  0  0
  141.4846   70.8088  226.5276 H   0  0  0  0  0  0  0  0  0  0  0  0
  1  2  2  0
  2  3  1  0
  3  4  1  0
  4  5  1  0
  5  6  2  0
  5  7  1  0
  7  8  1  0
  8  9  1  0
  9 10  1  0
 10 11  1  0
 11 12  1  0
 12 13  1  0
 13 14  1  0
 14 15  1  0
 15 16  1  0
 16 17  1  0
 17 18  1  0
  2 19  1  0
 19 20  2  0
 20 21  1  0
 21 22  2  0
 22 23  1  0
 23 24  2  0
 24 25  1  0
 25 26  1  0
 25 27  2  0
 27 28  1  0
 28 29  2  0
 12  7  1  0
 18 13  1  0
 29 19  1  0
 28 22  1  0
  3 30  1  0
  4 31  1  0
  4 32  1  0
  8 33  1  0
  8 34  1  0
  9 35  1  0
  9 36  1  0
 10 37  1  0
 10 38  1  0
 11 39  1  0
 11 40  1  0
 12 41  1  1
 13 42  1  0
 14 43  1  0
 14 44  1  0
 15 45  1  0
 15 46  1  0
 16 47  1  0
 16 48  1  0
 17 49  1  0
 17 50  1  0
 18 51  1  0
 18 52  1  0
 20 53  1  0
 21 54  1  0
 23 55  1  0
 24 56  1  0
 27 57  1  0
M  END
>  <smiles>  (53) 
O=C(NCC(=O)N1CCCCC1C1CCCCC1)c1ccc2ccc(Cl)cc2n1

>  <score_type>  (53) 
oracle

>  <origin>  (53) 
autodockgpu

>  <m_score__min__energy>  (53) 
-8.8499999999999996

>  <m_primary>  (53) 
energy

>  <rmsd>  (53) 
3.6464413367088553

>  <m_score__min__rmsd>  (53) 
3.6464413367088553

>  <meeko>  (53) 
{"free_energy": -8.71, "intermolecular_energy": -10.2, "internal_energy": -1.66, "cluster_size": 28, "cluster_id": 1, "rank_in_cluster": 3}

>  <energy>  (53) 
-8.71

>  <cluster_rmsd>  (53) 
1.43

>  <cluster>  (53) 
1

$$$$

     RDKit          3D

 57 60  0  0  0  0  0  0  0  0999 V2000
  141.2250   73.6560  220.9950 O   0  0  0  0  0  0  0  0  0  0  0  0
  140.3870   73.7740  221.9420 C   0  0  0  0  0  0  0  0  0  0  0  0
  139.9110   75.0640  222.3040 N   0  0  0  0  0  0  0  0  0  0  0  0
  140.3570   76.2820  221.6190 C   0  0  0  0  0  0  0  0  0  0  0  0
  140.0550   77.4790  222.3590 C   0  0  0  0  0  0  0  0  0  0  0  0
  138.9490   77.5200  223.0060 O   0  0  0  0  0  0  0  0  0  0  0  0
  140.8390   78.6760  222.4780 N   0  0  0  0  0  0  0  0  0  0  0  0
  141.7730   78.6390  223.6010 C   0  0  0  0  0  0  0  0  0  0  0  0
  142.5790   79.8810  223.6460 C   0  0  0  0  0  0  0  0  0  0  0  0
  141.7540   81.0980  223.4580 C   0  0  0  0  0  0  0  0  0  0  0  0
  140.6350   81.0360  222.4830 C   0  0  0  0  0  0  0  0  0  0  0  0
  140.6900   79.8060  221.5930 C   0  0  1  0  0  0  0  0  0  0  0  0
  141.6100   79.9250  220.4600 C   0  0  0  0  0  0  0  0  0  0  0  0
  141.5560   81.2220  219.6940 C   0  0  0  0  0  0  0  0  0  0  0  0
  141.3630   81.0560  218.2310 C   0  0  0  0  0  0  0  0  0  0  0  0
  142.4490   80.2310  217.6400 C   0  0  0  0  0  0  0  0  0  0  0  0
  142.5290   78.9330  218.3620 C   0  0  0  0  0  0  0  0  0  0  0  0
  141.5020   78.7880  219.4630 C   0  0  0  0  0  0  0  0  0  0  0  0
  139.8800   72.6300  222.6920 C   0  0  0  0  0  0  0  0  0  0  0  0
  138.8020   71.9460  222.1210 C   0  0  0  0  0  0  0  0  0  0  0  0
  138.2900   70.8620  222.8010 C   0  0  0  0  0  0  0  0  0  0  0  0
  138.8150   70.4510  224.0130 C   0  0  0  0  0  0  0  0  0  0  0  0
  138.3120   69.3590  224.7070 C   0  0  0  0  0  0  0  0  0  0  0  0
  138.8880   69.0140  225.8940 C   0  0  0  0  0  0  0  0  0  0  0  0
  139.9610   69.7260  226.4210 C   0  0  0  0  0  0  0  0  0  0  0  0
  140.6800   69.2410  227.9590 Cl  0  0  0  0  0  0  0  0  0  0  0  0
  140.4490   70.8150  225.7110 C   0  0  0  0  0  0  0  0  0  0  0  0
  139.8750   71.1820  224.5020 C   0  0  0  0  0  0  0  0  0  0  0  0
  140.4000   72.2440  223.8660 N   0  0  0  0  0  0  0  0  0  0  0  0
  139.2080   75.1450  223.0950 H   0  0  0  0  0  0  0  0  0  0  0  0
  141.4457   76.2244  221.4724 H   0  0  0  0  0  0  0  0  0  0  0  0
  139.8194   76.3397  220.6611 H   0  0  0  0  0  0  0  0  0  0  0  0
  141.2074   78.5402  224.5393 H   0  0  0  0  0  0  0  0  0  0  0  0
  142.4488   77.7805  223.4737 H   0  0  0  0  0  0  0  0  0  0  0  0
  143.0800   79.9416  224.6234 H   0  0  0  0  0  0  0  0  0  0  0  0
  143.3062   79.8385  222.8217 H   0  0  0  0  0  0  0  0  0  0  0  0
  141.3220   81.3551  224.4364 H   0  0  0  0  0  0  0  0  0  0  0  0
  142.4481   81.8387  223.0342 H   0  0  0  0  0  0  0  0  0  0  0  0
  139.6860   81.0241  223.0390 H   0  0  0  0  0  0  0  0  0  0  0  0
  140.7179   81.9178  221.8307 H   0  0  0  0  0  0  0  0  0  0  0  0
  139.7598   79.6618  221.0239 H   0  0  0  0  0  0  0  0  0  0  0  0
  142.5800   79.8864  220.9773 H   0  0  0  0  0  0  0  0  0  0  0  0
  140.7206   81.8203  220.0867 H   0  0  0  0  0  0  0  0  0  0  0  0
  142.5315   81.7116  219.8311 H   0  0  0  0  0  0  0  0  0  0  0  0
  140.3970   80.5622  218.0495 H   0  0  0  0  0  0  0  0  0  0  0  0
  141.3826   82.0500  217.7602 H   0  0  0  0  0  0  0  0  0  0  0  0
  142.2339   80.0475  216.5770 H   0  0  0  0  0  0  0  0  0  0  0  0
  143.4073   80.7632  217.7316 H   0  0  0  0  0  0  0  0  0  0  0  0
  142.3770   78.1211  217.6356 H   0  0  0  0  0  0  0  0  0  0  0  0
  143.5200   78.8890  218.8375 H   0  0  0  0  0  0  0  0  0  0  0  0
  140.4956   78.7932  219.0191 H   0  0  0  0  0  0  0  0  0  0  0  0
  141.6855   77.8405  219.9908 H   0  0  0  0  0  0  0  0  0  0  0  0
  138.3756   72.2636  221.1581 H   0  0  0  0  0  0  0  0  0  0  0  0
  137.4424   70.3097  222.3690 H   0  0  0  0  0  0  0  0  0  0  0  0
  137.4647   68.7828  224.3070 H   0  0  0  0  0  0  0  0  0  0  0  0
  138.4940   68.1501  226.4494 H   0  0  0  0  0  0  0  0  0  0  0  0
  141.2969   71.3911  226.1099 H   0  0  0  0  0  0  0  0  0  0  0  0
  1  2  2  0
  2  3  1  0
  3  4  1  0
  4  5  1  0
  5  6  2  0
  5  7  1  0
  7  8  1  0
  8  9  1  0
  9 10  1  0
 10 11  1  0
 11 12  1  0
 12 13  1  0
 13 14  1  0
 14 15  1  0
 15 16  1  0
 16 17  1  0
 17 18  1  0
  2 19  1  0
 19 20  2  0
 20 21  1  0
 21 22  2  0
 22 23  1  0
 23 24  2  0
 24 25  1  0
 25 26  1  0
 25 27  2  0
 27 28  1  0
 28 29  2  0
 12  7  1  0
 18 13  1  0
 29 19  1  0
 28 22  1  0
  3 30  1  0
  4 31  1  0
  4 32  1  0
  8 33  1  0
  8 34  1  0
  9 35  1  0
  9 36  1  0
 10 37  1  0
 10 38  1  0
 11 39  1  0
 11 40  1  0
 12 41  1  6
 13 42  1  0
 14 43  1  0
 14 44  1  0
 15 45  1  0
 15 46  1  0
 16 47  1  0
 16 48  1  0
 17 49  1  0
 17 50  1  0
 18 51  1  0
 18 52  1  0
 20 53  1  0
 21 54  1  0
 23 55  1  0
 24 56  1  0
 27 57  1  0
M  END
>  <smiles>  (54) 
O=C(NCC(=O)N1CCCCC1C1CCCCC1)c1ccc2ccc(Cl)cc2n1

>  <score_type>  (54) 
oracle

>  <origin>  (54) 
autodockgpu

>  <m_score__min__energy>  (54) 
-8.8499999999999996

>  <m_primary>  (54) 
energy

>  <rmsd>  (54) 
4.4663080889822995

>  <m_score__min__rmsd>  (54) 
4.4663080889822995

>  <meeko>  (54) 
{"free_energy": -8.51, "intermolecular_energy": -10.0, "internal_energy": -1.69, "cluster_size": 28, "cluster_id": 1, "rank_in_cluster": 17}

>  <energy>  (54) 
-8.7

>  <cluster_rmsd>  (54) 
1.34

>  <cluster>  (54) 
1

$$$$

     RDKit          3D

 57 60  0  0  0  0  0  0  0  0999 V2000
  141.4460   73.1620  221.7520 O   0  0  0  0  0  0  0  0  0  0  0  0
  140.3410   72.9640  222.3460 C   0  0  0  0  0  0  0  0  0  0  0  0
  139.3390   73.9720  222.3230 N   0  0  0  0  0  0  0  0  0  0  0  0
  139.5340   75.2520  221.6340 C   0  0  0  0  0  0  0  0  0  0  0  0
  138.6880   76.2970  222.1500 C   0  0  0  0  0  0  0  0  0  0  0  0
  137.6700   75.9520  222.8480 O   0  0  0  0  0  0  0  0  0  0  0  0
  138.8230   77.7170  221.9860 N   0  0  0  0  0  0  0  0  0  0  0  0
  137.8240   78.4760  222.7320 C   0  0  0  0  0  0  0  0  0  0  0  0
  138.0400   79.9310  222.5560 C   0  0  0  0  0  0  0  0  0  0  0  0
  138.2890   80.2980  221.1420 C   0  0  0  0  0  0  0  0  0  0  0  0
  139.1080   79.3740  220.3170 C   0  0  0  0  0  0  0  0  0  0  0  0
  139.8260   78.3200  221.1420 C   0  0  1  0  0  0  0  0  0  0  0  0
  141.0660   78.7870  221.7660 C   0  0  0  0  0  0  0  0  0  0  0  0
  141.3270   78.3040  223.1700 C   0  0  0  0  0  0  0  0  0  0  0  0
  141.6060   79.3900  224.1440 C   0  0  0  0  0  0  0  0  0  0  0  0
  142.7810   80.1960  223.7220 C   0  0  0  0  0  0  0  0  0  0  0  0
  142.5590   80.7030  222.3410 C   0  0  0  0  0  0  0  0  0  0  0  0
  141.2280   80.2940  221.7530 C   0  0  0  0  0  0  0  0  0  0  0  0
  140.0440   71.7290  223.0650 C   0  0  0  0  0  0  0  0  0  0  0  0
  139.2240   70.8110  222.4010 C   0  0  0  0  0  0  0  0  0  0  0  0
  138.9140   69.6340  223.0490 C   0  0  0  0  0  0  0  0  0  0  0  0
  139.3940   69.3550  224.3160 C   0  0  0  0  0  0  0  0  0  0  0  0
  139.0930   68.1720  224.9790 C   0  0  0  0  0  0  0  0  0  0  0  0
  139.6090   67.9690  226.2250 C   0  0  0  0  0  0  0  0  0  0  0  0
  140.4230   68.9140  226.8430 C   0  0  0  0  0  0  0  0  0  0  0  0
  141.0730   68.6070  228.4550 Cl  0  0  0  0  0  0  0  0  0  0  0  0
  140.7100   70.0900  226.1640 C   0  0  0  0  0  0  0  0  0  0  0  0
  140.1940   70.3150  224.8950 C   0  0  0  0  0  0  0  0  0  0  0  0
  140.5160   71.4740  224.2930 N   0  0  0  0  0  0  0  0  0  0  0  0
  138.4210   73.7890  222.8220 H   0  0  0  0  0  0  0  0  0  0  0  0
  140.5837   75.5587  221.7524 H   0  0  0  0  0  0  0  0  0  0  0  0
  139.2697   75.1031  220.5767 H   0  0  0  0  0  0  0  0  0  0  0  0
  136.8210   78.2120  222.3657 H   0  0  0  0  0  0  0  0  0  0  0  0
  137.9146   78.2295  223.8002 H   0  0  0  0  0  0  0  0  0  0  0  0
  137.1455   80.4660  222.9076 H   0  0  0  0  0  0  0  0  0  0  0  0
  138.9312   80.2106  223.1371 H   0  0  0  0  0  0  0  0  0  0  0  0
  137.3092   80.3938  220.6513 H   0  0  0  0  0  0  0  0  0  0  0  0
  138.8864   81.2199  221.1980 H   0  0  0  0  0  0  0  0  0  0  0  0
  138.4474   78.8667  219.5985 H   0  0  0  0  0  0  0  0  0  0  0  0
  139.8772   79.9773  219.8126 H   0  0  0  0  0  0  0  0  0  0  0  0
  140.2558   77.5241  220.5160 H   0  0  0  0  0  0  0  0  0  0  0  0
  141.8143   78.3182  221.1101 H   0  0  0  0  0  0  0  0  0  0  0  0
  140.4413   77.7502  223.5148 H   0  0  0  0  0  0  0  0  0  0  0  0
  142.2302   77.6777  223.1267 H   0  0  0  0  0  0  0  0  0  0  0  0
  140.7258   80.0462  224.2128 H   0  0  0  0  0  0  0  0  0  0  0  0
  141.8259   78.9357  225.1214 H   0  0  0  0  0  0  0  0  0  0  0  0
  142.9098   81.0454  224.4090 H   0  0  0  0  0  0  0  0  0  0  0  0
  143.6848   79.5693  223.7437 H   0  0  0  0  0  0  0  0  0  0  0  0
  142.6070   81.8018  222.3620 H   0  0  0  0  0  0  0  0  0  0  0  0
  143.3414   80.2622  221.7058 H   0  0  0  0  0  0  0  0  0  0  0  0
  140.4192   80.7474  222.3448 H   0  0  0  0  0  0  0  0  0  0  0  0
  141.1852   80.6411  220.7101 H   0  0  0  0  0  0  0  0  0  0  0  0
  138.8381   71.0215  221.3926 H   0  0  0  0  0  0  0  0  0  0  0  0
  138.2690   68.8986  222.5459 H   0  0  0  0  0  0  0  0  0  0  0  0
  138.4507   67.4134  224.5080 H   0  0  0  0  0  0  0  0  0  0  0  0
  139.3758   67.0340  226.7555 H   0  0  0  0  0  0  0  0  0  0  0  0
  141.3513   70.8496  226.6350 H   0  0  0  0  0  0  0  0  0  0  0  0
  1  2  2  0
  2  3  1  0
  3  4  1  0
  4  5  1  0
  5  6  2  0
  5  7  1  0
  7  8  1  0
  8  9  1  0
  9 10  1  0
 10 11  1  0
 11 12  1  0
 12 13  1  0
 13 14  1  0
 14 15  1  0
 15 16  1  0
 16 17  1  0
 17 18  1  0
  2 19  1  0
 19 20  2  0
 20 21  1  0
 21 22  2  0
 22 23  1  0
 23 24  2  0
 24 25  1  0
 25 26  1  0
 25 27  2  0
 27 28  1  0
 28 29  2  0
 12  7  1  0
 18 13  1  0
 29 19  1  0
 28 22  1  0
  3 30  1  0
  4 31  1  0
  4 32  1  0
  8 33  1  0
  8 34  1  0
  9 35  1  0
  9 36  1  0
 10 37  1  0
 10 38  1  0
 11 39  1  0
 11 40  1  0
 12 41  1  6
 13 42  1  0
 14 43  1  0
 14 44  1  0
 15 45  1  0
 15 46  1  0
 16 47  1  0
 16 48  1  0
 17 49  1  0
 17 50  1  0
 18 51  1  0
 18 52  1  0
 20 53  1  0
 21 54  1  0
 23 55  1  0
 24 56  1  0
 27 57  1  0
M  END
>  <smiles>  (55) 
O=C(NCC(=O)N1CCCCC1C1CCCCC1)c1ccc2ccc(Cl)cc2n1

>  <score_type>  (55) 
oracle

>  <origin>  (55) 
autodockgpu

>  <m_score__min__energy>  (55) 
-8.8499999999999996

>  <m_primary>  (55) 
energy

>  <rmsd>  (55) 
3.450485429521014

>  <m_score__min__rmsd>  (55) 
3.450485429521014

>  <meeko>  (55) 
{"free_energy": -8.67, "intermolecular_energy": -10.16, "internal_energy": -1.77, "cluster_size": 28, "cluster_id": 1, "rank_in_cluster": 6}

>  <energy>  (55) 
-8.69

>  <cluster_rmsd>  (55) 
1.34

>  <cluster>  (55) 
1

$$$$

     RDKit          3D

 57 60  0  0  0  0  0  0  0  0999 V2000
  141.3010   73.3100  221.8410 O   0  0  0  0  0  0  0  0  0  0  0  0
  140.1840   73.0420  222.3810 C   0  0  0  0  0  0  0  0  0  0  0  0
  139.1210   73.9830  222.3070 N   0  0  0  0  0  0  0  0  0  0  0  0
  139.2670   75.2730  221.6240 C   0  0  0  0  0  0  0  0  0  0  0  0
  138.5450   76.3340  222.2770 C   0  0  0  0  0  0  0  0  0  0  0  0
  137.6330   76.0080  223.1180 O   0  0  0  0  0  0  0  0  0  0  0  0
  138.7000   77.7520  222.1140 N   0  0  0  0  0  0  0  0  0  0  0  0
  137.7910   78.5270  222.9540 C   0  0  0  0  0  0  0  0  0  0  0  0
  138.0270   79.9780  222.7720 C   0  0  0  0  0  0  0  0  0  0  0  0
  138.1580   80.3540  221.3440 C   0  0  0  0  0  0  0  0  0  0  0  0
  138.8770   79.4200  220.4410 C   0  0  0  0  0  0  0  0  0  0  0  0
  139.6390   78.3390  221.1900 C   0  0  1  0  0  0  0  0  0  0  0  0
  140.9410   78.7690  221.7040 C   0  0  0  0  0  0  0  0  0  0  0  0
  141.2810   78.3290  223.1050 C   0  0  0  0  0  0  0  0  0  0  0  0
  141.6800   79.4380  224.0100 C   0  0  0  0  0  0  0  0  0  0  0  0
  142.8570   80.1680  223.4720 C   0  0  0  0  0  0  0  0  0  0  0  0
  142.5580   80.6310  222.0900 C   0  0  0  0  0  0  0  0  0  0  0  0
  141.1700   80.2650  221.6150 C   0  0  0  0  0  0  0  0  0  0  0  0
  139.9310   71.7900  223.0880 C   0  0  0  0  0  0  0  0  0  0  0  0
  139.1440   70.8490  222.4160 C   0  0  0  0  0  0  0  0  0  0  0  0
  138.8780   69.6560  223.0520 C   0  0  0  0  0  0  0  0  0  0  0  0
  139.3680   69.3820  224.3160 C   0  0  0  0  0  0  0  0  0  0  0  0
  139.1110   68.1830  224.9680 C   0  0  0  0  0  0  0  0  0  0  0  0
  139.6350   67.9870  226.2120 C   0  0  0  0  0  0  0  0  0  0  0  0
  140.4140   68.9540  226.8380 C   0  0  0  0  0  0  0  0  0  0  0  0
  141.0750   68.6560  228.4480 Cl  0  0  0  0  0  0  0  0  0  0  0  0
  140.6580   70.1470  226.1710 C   0  0  0  0  0  0  0  0  0  0  0  0
  140.1340   70.3650  224.9040 C   0  0  0  0  0  0  0  0  0  0  0  0
  140.4130   71.5400  224.3140 N   0  0  0  0  0  0  0  0  0  0  0  0
  138.1930   73.7420  222.7600 H   0  0  0  0  0  0  0  0  0  0  0  0
  140.3342   75.5382  221.5978 H   0  0  0  0  0  0  0  0  0  0  0  0
  138.8497   75.1617  220.6123 H   0  0  0  0  0  0  0  0  0  0  0  0
  136.7528   78.2915  222.6772 H   0  0  0  0  0  0  0  0  0  0  0  0
  137.9708   78.2666  224.0075 H   0  0  0  0  0  0  0  0  0  0  0  0
  137.1812   80.5308  223.2068 H   0  0  0  0  0  0  0  0  0  0  0  0
  138.9731   80.2296  223.2735 H   0  0  0  0  0  0  0  0  0  0  0  0
  137.1410   80.4783  220.9437 H   0  0  0  0  0  0  0  0  0  0  0  0
  138.7808   81.2606  221.3543 H   0  0  0  0  0  0  0  0  0  0  0  0
  138.1428   78.9370  219.7794 H   0  0  0  0  0  0  0  0  0  0  0  0
  139.6132   80.0101  219.8755 H   0  0  0  0  0  0  0  0  0  0  0  0
  139.9913   77.5389  220.5224 H   0  0  0  0  0  0  0  0  0  0  0  0
  141.6178   78.2391  221.0176 H   0  0  0  0  0  0  0  0  0  0  0  0
  140.3983   77.8330  223.5350 H   0  0  0  0  0  0  0  0  0  0  0  0
  142.1488   77.6579  223.0245 H   0  0  0  0  0  0  0  0  0  0  0  0
  140.8384   80.1388  224.1127 H   0  0  0  0  0  0  0  0  0  0  0  0
  141.9490   79.0123  224.9880 H   0  0  0  0  0  0  0  0  0  0  0  0
  143.0749   81.0361  224.1114 H   0  0  0  0  0  0  0  0  0  0  0  0
  143.7301   79.4991  223.4560 H   0  0  0  0  0  0  0  0  0  0  0  0
  142.6578   81.7261  222.0611 H   0  0  0  0  0  0  0  0  0  0  0  0
  143.2708   80.1276  221.4203 H   0  0  0  0  0  0  0  0  0  0  0  0
  140.4278   80.7803  222.2424 H   0  0  0  0  0  0  0  0  0  0  0  0
  141.0672   80.5729  220.5640 H   0  0  0  0  0  0  0  0  0  0  0  0
  138.7493   71.0552  221.4101 H   0  0  0  0  0  0  0  0  0  0  0  0
  138.2603   68.9024  222.5415 H   0  0  0  0  0  0  0  0  0  0  0  0
  138.4963   67.4059  224.4901 H   0  0  0  0  0  0  0  0  0  0  0  0
  139.4362   67.0392  226.7337 H   0  0  0  0  0  0  0  0  0  0  0  0
  141.2708   70.9249  226.6498 H   0  0  0  0  0  0  0  0  0  0  0  0
  1  2  2  0
  2  3  1  0
  3  4  1  0
  4  5  1  0
  5  6  2  0
  5  7  1  0
  7  8  1  0
  8  9  1  0
  9 10  1  0
 10 11  1  0
 11 12  1  0
 12 13  1  0
 13 14  1  0
 14 15  1  0
 15 16  1  0
 16 17  1  0
 17 18  1  0
  2 19  1  0
 19 20  2  0
 20 21  1  0
 21 22  2  0
 22 23  1  0
 23 24  2  0
 24 25  1  0
 25 26  1  0
 25 27  2  0
 27 28  1  0
 28 29  2  0
 12  7  1  0
 18 13  1  0
 29 19  1  0
 28 22  1  0
  3 30  1  0
  4 31  1  0
  4 32  1  0
  8 33  1  0
  8 34  1  0
  9 35  1  0
  9 36  1  0
 10 37  1  0
 10 38  1  0
 11 39  1  0
 11 40  1  0
 12 41  1  6
 13 42  1  0
 14 43  1  0
 14 44  1  0
 15 45  1  0
 15 46  1  0
 16 47  1  0
 16 48  1  0
 17 49  1  0
 17 50  1  0
 18 51  1  0
 18 52  1  0
 20 53  1  0
 21 54  1  0
 23 55  1  0
 24 56  1  0
 27 57  1  0
M  END
>  <smiles>  (56) 
O=C(NCC(=O)N1CCCCC1C1CCCCC1)c1ccc2ccc(Cl)cc2n1

>  <score_type>  (56) 
oracle

>  <origin>  (56) 
autodockgpu

>  <m_score__min__energy>  (56) 
-8.8499999999999996

>  <m_primary>  (56) 
energy

>  <rmsd>  (56) 
3.5411136328328423

>  <m_score__min__rmsd>  (56) 
3.5411136328328423

>  <meeko>  (56) 
{"free_energy": -8.65, "intermolecular_energy": -10.14, "internal_energy": -1.73, "cluster_size": 28, "cluster_id": 1, "rank_in_cluster": 7}

>  <energy>  (56) 
-8.67

>  <cluster_rmsd>  (56) 
1.06

>  <cluster>  (56) 
1

$$$$

     RDKit          3D

 57 60  0  0  0  0  0  0  0  0999 V2000
  141.2770   73.4800  221.0240 O   0  0  0  0  0  0  0  0  0  0  0  0
  140.4360   73.5840  221.9700 C   0  0  0  0  0  0  0  0  0  0  0  0
  139.9280   74.8640  222.3240 N   0  0  0  0  0  0  0  0  0  0  0  0
  140.3470   76.0890  221.6330 C   0  0  0  0  0  0  0  0  0  0  0  0
  139.9560   77.2840  222.3330 C   0  0  0  0  0  0  0  0  0  0  0  0
  138.8090   77.2950  222.9050 O   0  0  0  0  0  0  0  0  0  0  0  0
  140.6890   78.5100  222.4840 N   0  0  0  0  0  0  0  0  0  0  0  0
  141.5490   78.5190  223.6650 C   0  0  0  0  0  0  0  0  0  0  0  0
  142.3080   79.7890  223.7430 C   0  0  0  0  0  0  0  0  0  0  0  0
  141.4550   80.9730  223.4860 C   0  0  0  0  0  0  0  0  0  0  0  0
  140.4040   80.8610  222.4430 C   0  0  0  0  0  0  0  0  0  0  0  0
  140.5580   79.6230  221.5760 C   0  0  1  0  0  0  0  0  0  0  0  0
  141.5440   79.7600  220.5020 C   0  0  0  0  0  0  0  0  0  0  0  0
  141.6800   81.1340  219.8970 C   0  0  0  0  0  0  0  0  0  0  0  0
  141.5470   81.1630  218.4180 C   0  0  0  0  0  0  0  0  0  0  0  0
  142.5600   80.2870  217.7740 C   0  0  0  0  0  0  0  0  0  0  0  0
  142.4520   78.9140  218.3370 C   0  0  0  0  0  0  0  0  0  0  0  0
  141.3590   78.7680  219.3710 C   0  0  0  0  0  0  0  0  0  0  0  0
  139.9550   72.4320  222.7250 C   0  0  0  0  0  0  0  0  0  0  0  0
  138.9440   71.6770  222.1230 C   0  0  0  0  0  0  0  0  0  0  0  0
  138.4580   70.5840  222.8080 C   0  0  0  0  0  0  0  0  0  0  0  0
  138.9460   70.2310  224.0530 C   0  0  0  0  0  0  0  0  0  0  0  0
  138.4680   69.1300  224.7520 C   0  0  0  0  0  0  0  0  0  0  0  0
  139.0050   68.8460  225.9730 C   0  0  0  0  0  0  0  0  0  0  0  0
  140.0120   69.6280  226.5300 C   0  0  0  0  0  0  0  0  0  0  0  0
  140.6810   69.2200  228.1120 Cl  0  0  0  0  0  0  0  0  0  0  0  0
  140.4750   70.7240  225.8150 C   0  0  0  0  0  0  0  0  0  0  0  0
  139.9410   71.0300  224.5710 C   0  0  0  0  0  0  0  0  0  0  0  0
  140.4380   72.1040  223.9320 N   0  0  0  0  0  0  0  0  0  0  0  0
  139.2240   74.9330  223.1140 H   0  0  0  0  0  0  0  0  0  0  0  0
  141.4427   76.0808  221.5359 H   0  0  0  0  0  0  0  0  0  0  0  0
  139.8512   76.1023  220.6512 H   0  0  0  0  0  0  0  0  0  0  0  0
  140.9276   78.4124  224.5664 H   0  0  0  0  0  0  0  0  0  0  0  0
  142.2601   77.6827  223.5943 H   0  0  0  0  0  0  0  0  0  0  0  0
  142.7437   79.8790  224.7490 H   0  0  0  0  0  0  0  0  0  0  0  0
  143.0875   79.7623  222.9673 H   0  0  0  0  0  0  0  0  0  0  0  0
  140.9523   81.2256  224.4313 H   0  0  0  0  0  0  0  0  0  0  0  0
  142.1489   81.7326  223.0968 H   0  0  0  0  0  0  0  0  0  0  0  0
  139.4221   80.8228  222.9374 H   0  0  0  0  0  0  0  0  0  0  0  0
  140.4985   81.7374  221.7850 H   0  0  0  0  0  0  0  0  0  0  0  0
  139.6712   79.4400  220.9514 H   0  0  0  0  0  0  0  0  0  0  0  0
  142.4742   79.5444  221.0482 H   0  0  0  0  0  0  0  0  0  0  0  0
  140.8993   81.7790  220.3264 H   0  0  0  0  0  0  0  0  0  0  0  0
  142.6967   81.4833  220.1302 H   0  0  0  0  0  0  0  0  0  0  0  0
  140.5414   80.8140  218.1405 H   0  0  0  0  0  0  0  0  0  0  0  0
  141.7063   82.1951  218.0724 H   0  0  0  0  0  0  0  0  0  0  0  0
  142.3811   80.2544  216.6891 H   0  0  0  0  0  0  0  0  0  0  0  0
  143.5671   80.6857  217.9657 H   0  0  0  0  0  0  0  0  0  0  0  0
  142.2464   78.2153  217.5126 H   0  0  0  0  0  0  0  0  0  0  0  0
  143.4048   78.6966  218.8420 H   0  0  0  0  0  0  0  0  0  0  0  0
  140.3849   78.9462  218.8921 H   0  0  0  0  0  0  0  0  0  0  0  0
  141.4041   77.7506  219.7868 H   0  0  0  0  0  0  0  0  0  0  0  0
  138.5484   71.9470  221.1328 H   0  0  0  0  0  0  0  0  0  0  0  0
  137.6616   69.9770  222.3527 H   0  0  0  0  0  0  0  0  0  0  0  0
  137.6720   68.4995  224.3290 H   0  0  0  0  0  0  0  0  0  0  0  0
  138.6320   67.9754  226.5324 H   0  0  0  0  0  0  0  0  0  0  0  0
  141.2711   71.3547  226.2375 H   0  0  0  0  0  0  0  0  0  0  0  0
  1  2  2  0
  2  3  1  0
  3  4  1  0
  4  5  1  0
  5  6  2  0
  5  7  1  0
  7  8  1  0
  8  9  1  0
  9 10  1  0
 10 11  1  0
 11 12  1  0
 12 13  1  0
 13 14  1  0
 14 15  1  0
 15 16  1  0
 16 17  1  0
 17 18  1  0
  2 19  1  0
 19 20  2  0
 20 21  1  0
 21 22  2  0
 22 23  1  0
 23 24  2  0
 24 25  1  0
 25 26  1  0
 25 27  2  0
 27 28  1  0
 28 29  2  0
 12  7  1  0
 18 13  1  0
 29 19  1  0
 28 22  1  0
  3 30  1  0
  4 31  1  0
  4 32  1  0
  8 33  1  0
  8 34  1  0
  9 35  1  0
  9 36  1  0
 10 37  1  0
 10 38  1  0
 11 39  1  0
 11 40  1  0
 12 41  1  6
 13 42  1  0
 14 43  1  0
 14 44  1  0
 15 45  1  0
 15 46  1  0
 16 47  1  0
 16 48  1  0
 17 49  1  0
 17 50  1  0
 18 51  1  0
 18 52  1  0
 20 53  1  0
 21 54  1  0
 23 55  1  0
 24 56  1  0
 27 57  1  0
M  END
>  <smiles>  (57) 
O=C(NCC(=O)N1CCCCC1C1CCCCC1)c1ccc2ccc(Cl)cc2n1

>  <score_type>  (57) 
oracle

>  <origin>  (57) 
autodockgpu

>  <m_score__min__energy>  (57) 
-8.8499999999999996

>  <m_primary>  (57) 
energy

>  <rmsd>  (57) 
4.3510150803616785

>  <m_score__min__rmsd>  (57) 
4.3510150803616785

>  <meeko>  (57) 
{"free_energy": -8.47, "intermolecular_energy": -9.96, "internal_energy": -1.67, "cluster_size": 28, "cluster_id": 1, "rank_in_cluster": 20}

>  <energy>  (57) 
-8.65

>  <cluster_rmsd>  (57) 
1.13

>  <cluster>  (57) 
1

$$$$

     RDKit          3D

 57 60  0  0  0  0  0  0  0  0999 V2000
  139.2600   72.2700  220.2870 O   0  0  0  0  0  0  0  0  0  0  0  0
  139.1070   72.4690  221.5320 C   0  0  0  0  0  0  0  0  0  0  0  0
  138.8810   73.7870  222.0130 N   0  0  0  0  0  0  0  0  0  0  0  0
  138.8200   74.9460  221.1150 C   0  0  0  0  0  0  0  0  0  0  0  0
  139.1290   76.1840  221.7830 C   0  0  0  0  0  0  0  0  0  0  0  0
  138.7310   76.3280  222.9930 O   0  0  0  0  0  0  0  0  0  0  0  0
  139.8400   77.3210  221.2690 N   0  0  0  0  0  0  0  0  0  0  0  0
  139.0480   78.1150  220.3330 C   0  0  0  0  0  0  0  0  0  0  0  0
  139.8190   79.2930  219.8710 C   0  0  0  0  0  0  0  0  0  0  0  0
  141.2100   78.9460  219.4970 C   0  0  0  0  0  0  0  0  0  0  0  0
  141.9220   77.9360  220.3210 C   0  0  0  0  0  0  0  0  0  0  0  0
  141.2060   77.6220  221.6230 C   0  0  1  0  0  0  0  0  0  0  0  0
  141.4470   78.5940  222.6910 C   0  0  0  0  0  0  0  0  0  0  0  0
  140.2570   79.4120  223.1260 C   0  0  0  0  0  0  0  0  0  0  0  0
  140.4890   80.8790  223.1060 C   0  0  0  0  0  0  0  0  0  0  0  0
  141.6320   81.2500  223.9800 C   0  0  0  0  0  0  0  0  0  0  0  0
  142.8330   80.4720  223.5760 C   0  0  0  0  0  0  0  0  0  0  0  0
  142.5900   79.5480  222.4040 C   0  0  0  0  0  0  0  0  0  0  0  0
  139.1530   71.3890  222.5130 C   0  0  0  0  0  0  0  0  0  0  0  0
  138.5830   70.1730  222.1200 C   0  0  0  0  0  0  0  0  0  0  0  0
  138.6010   69.1300  223.0210 C   0  0  0  0  0  0  0  0  0  0  0  0
  139.1620   69.2650  224.2780 C   0  0  0  0  0  0  0  0  0  0  0  0
  139.1900   68.2220  225.1940 C   0  0  0  0  0  0  0  0  0  0  0  0
  139.7670   68.4330  226.4110 C   0  0  0  0  0  0  0  0  0  0  0  0
  140.3220   69.6620  226.7550 C   0  0  0  0  0  0  0  0  0  0  0  0
  141.0620   69.8900  228.3420 Cl  0  0  0  0  0  0  0  0  0  0  0  0
  140.2830   70.6930  225.8250 C   0  0  0  0  0  0  0  0  0  0  0  0
  139.7000   70.4970  224.5810 C   0  0  0  0  0  0  0  0  0  0  0  0
  139.7000   71.5360  223.7280 N   0  0  0  0  0  0  0  0  0  0  0  0
  138.7520   73.9350  223.0550 H   0  0  0  0  0  0  0  0  0  0  0  0
  139.5420   74.7970  220.2986 H   0  0  0  0  0  0  0  0  0  0  0  0
  137.7892   75.0203  220.7382 H   0  0  0  0  0  0  0  0  0  0  0  0
  138.7822   77.4932  219.4654 H   0  0  0  0  0  0  0  0  0  0  0  0
  138.1376   78.4630  220.8429 H   0  0  0  0  0  0  0  0  0  0  0  0
  139.3142   79.7237  218.9937 H   0  0  0  0  0  0  0  0  0  0  0  0
  139.8645   80.0114  220.7027 H   0  0  0  0  0  0  0  0  0  0  0  0
  141.1865   78.5680  218.4643 H   0  0  0  0  0  0  0  0  0  0  0  0
  141.7765   79.8761  219.6521 H   0  0  0  0  0  0  0  0  0  0  0  0
  142.0120   77.0078  219.7376 H   0  0  0  0  0  0  0  0  0  0  0  0
  142.9056   78.3554  220.5789 H   0  0  0  0  0  0  0  0  0  0  0  0
  141.6222   76.7350  222.1230 H   0  0  0  0  0  0  0  0  0  0  0  0
  141.7107   77.9241  223.5227 H   0  0  0  0  0  0  0  0  0  0  0  0
  139.4175   79.1859  222.4521 H   0  0  0  0  0  0  0  0  0  0  0  0
  140.0490   79.1382  224.1709 H   0  0  0  0  0  0  0  0  0  0  0  0
  140.7074   81.1945  222.0751 H   0  0  0  0  0  0  0  0  0  0  0  0
  139.5848   81.3816  223.4798 H   0  0  0  0  0  0  0  0  0  0  0  0
  141.8392   82.3254  223.8771 H   0  0  0  0  0  0  0  0  0  0  0  0
  141.3828   81.0251  225.0275 H   0  0  0  0  0  0  0  0  0  0  0  0
  143.6295   81.1794  223.3017 H   0  0  0  0  0  0  0  0  0  0  0  0
  143.1110   79.8402  224.4325 H   0  0  0  0  0  0  0  0  0  0  0  0
  142.3421   80.1497  221.5171 H   0  0  0  0  0  0  0  0  0  0  0  0
  143.5020   78.9587  222.2278 H   0  0  0  0  0  0  0  0  0  0  0  0
  138.1344   70.0531  221.1228 H   0  0  0  0  0  0  0  0  0  0  0  0
  138.1577   68.1654  222.7329 H   0  0  0  0  0  0  0  0  0  0  0  0
  138.7547   67.2436  224.9424 H   0  0  0  0  0  0  0  0  0  0  0  0
  139.7946   67.6101  227.1404 H   0  0  0  0  0  0  0  0  0  0  0  0
  140.7174   71.6719  226.0764 H   0  0  0  0  0  0  0  0  0  0  0  0
  1  2  2  0
  2  3  1  0
  3  4  1  0
  4  5  1  0
  5  6  2  0
  5  7  1  0
  7  8  1  0
  8  9  1  0
  9 10  1  0
 10 11  1  0
 11 12  1  0
 12 13  1  0
 13 14  1  0
 14 15  1  0
 15 16  1  0
 16 17  1  0
 17 18  1  0
  2 19  1  0
 19 20  2  0
 20 21  1  0
 21 22  2  0
 22 23  1  0
 23 24  2  0
 24 25  1  0
 25 26  1  0
 25 27  2  0
 27 28  1  0
 28 29  2  0
 12  7  1  0
 18 13  1  0
 29 19  1  0
 28 22  1  0
  3 30  1  0
  4 31  1  0
  4 32  1  0
  8 33  1  0
  8 34  1  0
  9 35  1  0
  9 36  1  0
 10 37  1  0
 10 38  1  0
 11 39  1  0
 11 40  1  0
 12 41  1  1
 13 42  1  0
 14 43  1  0
 14 44  1  0
 15 45  1  0
 15 46  1  0
 16 47  1  0
 16 48  1  0
 17 49  1  0
 17 50  1  0
 18 51  1  0
 18 52  1  0
 20 53  1  0
 21 54  1  0
 23 55  1  0
 24 56  1  0
 27 57  1  0
M  END
>  <smiles>  (58) 
O=C(NCC(=O)N1CCCCC1C1CCCCC1)c1ccc2ccc(Cl)cc2n1

>  <score_type>  (58) 
oracle

>  <origin>  (58) 
autodockgpu

>  <m_score__min__energy>  (58) 
-8.8499999999999996

>  <m_primary>  (58) 
energy

>  <rmsd>  (58) 
2.3099013134220563

>  <m_score__min__rmsd>  (58) 
2.3099013134220563

>  <meeko>  (58) 
{"free_energy": -8.27, "intermolecular_energy": -9.76, "internal_energy": -1.87, "cluster_size": 28, "cluster_id": 1, "rank_in_cluster": 24}

>  <energy>  (58) 
-8.64

>  <cluster_rmsd>  (58) 
1.15

>  <cluster>  (58) 
1

$$$$

     RDKit          3D

 57 60  0  0  0  0  0  0  0  0999 V2000
  140.4920   77.8660  217.6030 O   0  0  0  0  0  0  0  0  0  0  0  0
  141.4150   77.7130  218.4610 C   0  0  0  0  0  0  0  0  0  0  0  0
  142.0140   78.8540  219.0620 N   0  0  0  0  0  0  0  0  0  0  0  0
  141.6040   80.2210  218.7230 C   0  0  0  0  0  0  0  0  0  0  0  0
  141.5830   81.0960  219.8660 C   0  0  0  0  0  0  0  0  0  0  0  0
  141.4830   82.3560  219.6540 O   0  0  0  0  0  0  0  0  0  0  0  0
  141.6640   80.7480  221.2570 N   0  0  0  0  0  0  0  0  0  0  0  0
  141.5160   81.8990  222.1440 C   0  0  0  0  0  0  0  0  0  0  0  0
  141.5680   81.4710  223.5610 C   0  0  0  0  0  0  0  0  0  0  0  0
  142.6730   80.5190  223.8240 C   0  0  0  0  0  0  0  0  0  0  0  0
  142.9780   79.5030  222.7850 C   0  0  0  0  0  0  0  0  0  0  0  0
  141.9000   79.4020  221.7190 C   0  0  1  0  0  0  0  0  0  0  0  0
  140.7450   78.5900  222.1080 C   0  0  0  0  0  0  0  0  0  0  0  0
  141.0450   77.1880  222.5740 C   0  0  0  0  0  0  0  0  0  0  0  0
  140.2810   76.1340  221.8590 C   0  0  0  0  0  0  0  0  0  0  0  0
  138.8170   76.3490  221.9990 C   0  0  0  0  0  0  0  0  0  0  0  0
  138.4760   77.7220  221.5370 C   0  0  0  0  0  0  0  0  0  0  0  0
  139.6690   78.5080  221.0440 C   0  0  0  0  0  0  0  0  0  0  0  0
  141.9020   76.3990  218.8680 C   0  0  0  0  0  0  0  0  0  0  0  0
  141.0670   75.3150  218.5800 C   0  0  0  0  0  0  0  0  0  0  0  0
  141.4890   74.0570  218.9550 C   0  0  0  0  0  0  0  0  0  0  0  0
  142.6980   73.8570  219.5950 C   0  0  0  0  0  0  0  0  0  0  0  0
  143.1370   72.5950  219.9740 C   0  0  0  0  0  0  0  0  0  0  0  0
  144.3450   72.4810  220.5970 C   0  0  0  0  0  0  0  0  0  0  0  0
  145.1400   73.5910  220.8610 C   0  0  0  0  0  0  0  0  0  0  0  0
  146.6990   73.3950  221.6660 Cl  0  0  0  0  0  0  0  0  0  0  0  0
  144.6830   74.8440  220.4740 C   0  0  0  0  0  0  0  0  0  0  0  0
  143.4570   74.9800  219.8390 C   0  0  0  0  0  0  0  0  0  0  0  0
  143.0770   76.2220  219.4890 N   0  0  0  0  0  0  0  0  0  0  0  0
  142.7820   78.7090  219.7790 H   0  0  0  0  0  0  0  0  0  0  0  0
  142.3096   80.6264  217.9828 H   0  0  0  0  0  0  0  0  0  0  0  0
  140.5797   80.1708  218.3250 H   0  0  0  0  0  0  0  0  0  0  0  0
  142.3310   82.6121  221.9510 H   0  0  0  0  0  0  0  0  0  0  0  0
  140.5430   82.3745  221.9511 H   0  0  0  0  0  0  0  0  0  0  0  0
  141.7096   82.3598  224.1934 H   0  0  0  0  0  0  0  0  0  0  0  0
  140.6222   80.9586  223.7913 H   0  0  0  0  0  0  0  0  0  0  0  0
  143.5861   81.1122  223.9798 H   0  0  0  0  0  0  0  0  0  0  0  0
  142.3316   79.9332  224.6902 H   0  0  0  0  0  0  0  0  0  0  0  0
  143.9273   79.7726  222.2991 H   0  0  0  0  0  0  0  0  0  0  0  0
  143.0367   78.5261  223.2872 H   0  0  0  0  0  0  0  0  0  0  0  0
  142.2249   78.8063  220.8532 H   0  0  0  0  0  0  0  0  0  0  0  0
  140.3788   79.1567  222.9768 H   0  0  0  0  0  0  0  0  0  0  0  0
  142.1181   76.9971  222.4259 H   0  0  0  0  0  0  0  0  0  0  0  0
  140.7454   77.1345  223.6311 H   0  0  0  0  0  0  0  0  0  0  0  0
  140.5476   76.1578  220.7920 H   0  0  0  0  0  0  0  0  0  0  0  0
  140.5353   75.1581  222.2983 H   0  0  0  0  0  0  0  0  0  0  0  0
  138.2769   75.6108  221.3879 H   0  0  0  0  0  0  0  0  0  0  0  0
  138.5261   76.2317  223.0533 H   0  0  0  0  0  0  0  0  0  0  0  0
  137.7487   77.6420  220.7156 H   0  0  0  0  0  0  0  0  0  0  0  0
  138.0695   78.2627  222.4044 H   0  0  0  0  0  0  0  0  0  0  0  0
  140.0820   78.0131  220.1526 H   0  0  0  0  0  0  0  0  0  0  0  0
  139.3390   79.5288  220.8011 H   0  0  0  0  0  0  0  0  0  0  0  0
  140.1034   75.4613  218.0701 H   0  0  0  0  0  0  0  0  0  0  0  0
  140.8471   73.1901  218.7394 H   0  0  0  0  0  0  0  0  0  0  0  0
  142.5223   71.7046  219.7756 H   0  0  0  0  0  0  0  0  0  0  0  0
  144.6998   71.4845  220.8987 H   0  0  0  0  0  0  0  0  0  0  0  0
  145.2973   75.7347  220.6723 H   0  0  0  0  0  0  0  0  0  0  0  0
  1  2  2  0
  2  3  1  0
  3  4  1  0
  4  5  1  0
  5  6  2  0
  5  7  1  0
  7  8  1  0
  8  9  1  0
  9 10  1  0
 10 11  1  0
 11 12  1  0
 12 13  1  0
 13 14  1  0
 14 15  1  0
 15 16  1  0
 16 17  1  0
 17 18  1  0
  2 19  1  0
 19 20  2  0
 20 21  1  0
 21 22  2  0
 22 23  1  0
 23 24  2  0
 24 25  1  0
 25 26  1  0
 25 27  2  0
 27 28  1  0
 28 29  2  0
 12  7  1  0
 18 13  1  0
 29 19  1  0
 28 22  1  0
  3 30  1  0
  4 31  1  0
  4 32  1  0
  8 33  1  0
  8 34  1  0
  9 35  1  0
  9 36  1  0
 10 37  1  0
 10 38  1  0
 11 39  1  0
 11 40  1  0
 12 41  1  6
 13 42  1  0
 14 43  1  0
 14 44  1  0
 15 45  1  0
 15 46  1  0
 16 47  1  0
 16 48  1  0
 17 49  1  0
 17 50  1  0
 18 51  1  0
 18 52  1  0
 20 53  1  0
 21 54  1  0
 23 55  1  0
 24 56  1  0
 27 57  1  0
M  END
>  <smiles>  (59) 
O=C(NCC(=O)N1CCCCC1C1CCCCC1)c1ccc2ccc(Cl)cc2n1

>  <score_type>  (59) 
oracle

>  <origin>  (59) 
autodockgpu

>  <m_score__min__energy>  (59) 
-8.8499999999999996

>  <m_primary>  (59) 
energy

>  <rmsd>  (59) 
7.641110644523981

>  <m_score__min__rmsd>  (59) 
7.641110644523981

>  <meeko>  (59) 
{"free_energy": -7.32, "intermolecular_energy": -8.81, "internal_energy": -2.72, "cluster_size": 11, "cluster_id": 6, "rank_in_cluster": 3}

>  <energy>  (59) 
-8.59

>  <cluster_rmsd>  (59) 
1.04

>  <cluster>  (59) 
1

$$$$

     RDKit          3D

 57 60  0  0  0  0  0  0  0  0999 V2000
  139.8480   73.1740  220.4070 O   0  0  0  0  0  0  0  0  0  0  0  0
  139.6820   73.2560  221.6640 C   0  0  0  0  0  0  0  0  0  0  0  0
  139.5840   74.5340  222.2790 N   0  0  0  0  0  0  0  0  0  0  0  0
  139.6700   75.7800  221.5100 C   0  0  0  0  0  0  0  0  0  0  0  0
  139.4550   76.9510  222.3200 C   0  0  0  0  0  0  0  0  0  0  0  0
  138.4320   76.9640  223.0920 O   0  0  0  0  0  0  0  0  0  0  0  0
  140.2450   78.1470  222.3860 N   0  0  0  0  0  0  0  0  0  0  0  0
  141.1140   78.3240  221.2260 C   0  0  0  0  0  0  0  0  0  0  0  0
  141.8710   79.5930  221.3330 C   0  0  0  0  0  0  0  0  0  0  0  0
  142.4510   79.7920  222.6820 C   0  0  0  0  0  0  0  0  0  0  0  0
  141.6460   79.3670  223.8560 C   0  0  0  0  0  0  0  0  0  0  0  0
  140.2010   79.0580  223.5040 C   0  0  1  0  0  0  0  0  0  0  0  0
  139.3420   80.2400  223.4010 C   0  0  0  0  0  0  0  0  0  0  0  0
  138.4600   80.5250  224.5890 C   0  0  0  0  0  0  0  0  0  0  0  0
  137.0220   80.6880  224.2520 C   0  0  0  0  0  0  0  0  0  0  0  0
  136.8250   81.7880  223.2730 C   0  0  0  0  0  0  0  0  0  0  0  0
  137.6730   81.5400  222.0770 C   0  0  0  0  0  0  0  0  0  0  0  0
  138.4750   80.2610  222.1580 C   0  0  0  0  0  0  0  0  0  0  0  0
  139.5870   72.0810  222.5240 C   0  0  0  0  0  0  0  0  0  0  0  0
  138.9770   70.9540  221.9640 C   0  0  0  0  0  0  0  0  0  0  0  0
  138.8620   69.8250  222.7470 C   0  0  0  0  0  0  0  0  0  0  0  0
  139.3320   69.7930  224.0470 C   0  0  0  0  0  0  0  0  0  0  0  0
  139.2260   68.6610  224.8460 C   0  0  0  0  0  0  0  0  0  0  0  0
  139.7190   68.7070  226.1170 C   0  0  0  0  0  0  0  0  0  0  0  0
  140.3190   69.8530  226.6280 C   0  0  0  0  0  0  0  0  0  0  0  0
  140.9470   69.8660  228.2780 Cl  0  0  0  0  0  0  0  0  0  0  0  0
  140.4140   70.9740  225.8140 C   0  0  0  0  0  0  0  0  0  0  0  0
  139.9180   70.9470  224.5180 C   0  0  0  0  0  0  0  0  0  0  0  0
  140.0470   72.0660  223.7830 N   0  0  0  0  0  0  0  0  0  0  0  0
  139.4420   74.5850  223.3290 H   0  0  0  0  0  0  0  0  0  0  0  0
  140.6701   75.8450  221.0566 H   0  0  0  0  0  0  0  0  0  0  0  0
  138.8775   75.7543  220.7476 H   0  0  0  0  0  0  0  0  0  0  0  0
  141.8219   77.4837  221.1725 H   0  0  0  0  0  0  0  0  0  0  0  0
  140.4934   78.3557  220.3183 H   0  0  0  0  0  0  0  0  0  0  0  0
  142.6872   79.5808  220.5957 H   0  0  0  0  0  0  0  0  0  0  0  0
  141.1698   80.4191  221.1439 H   0  0  0  0  0  0  0  0  0  0  0  0
  143.3989   79.2349  222.7161 H   0  0  0  0  0  0  0  0  0  0  0  0
  142.5353   80.8837  222.7869 H   0  0  0  0  0  0  0  0  0  0  0  0
  142.1030   78.4635  224.2859 H   0  0  0  0  0  0  0  0  0  0  0  0
  141.6391   80.2033  224.5705 H   0  0  0  0  0  0  0  0  0  0  0  0
  139.6722   78.5511  224.3246 H   0  0  0  0  0  0  0  0  0  0  0  0
  140.0968   81.0385  223.3499 H   0  0  0  0  0  0  0  0  0  0  0  0
  138.5560   79.6900  225.2987 H   0  0  0  0  0  0  0  0  0  0  0  0
  138.7972   81.4829  225.0118 H   0  0  0  0  0  0  0  0  0  0  0  0
  136.6456   79.7495  223.8189 H   0  0  0  0  0  0  0  0  0  0  0  0
  136.4727   80.9359  225.1722 H   0  0  0  0  0  0  0  0  0  0  0  0
  135.7677   81.8269  222.9720 H   0  0  0  0  0  0  0  0  0  0  0  0
  137.1088   82.7459  223.7334 H   0  0  0  0  0  0  0  0  0  0  0  0
  137.0203   81.4858  221.1932 H   0  0  0  0  0  0  0  0  0  0  0  0
  138.3934   82.3690  222.0150 H   0  0  0  0  0  0  0  0  0  0  0  0
  137.7847   79.4050  222.1866 H   0  0  0  0  0  0  0  0  0  0  0  0
  139.1280   80.2009  221.2748 H   0  0  0  0  0  0  0  0  0  0  0  0
  138.6005   70.9679  220.9305 H   0  0  0  0  0  0  0  0  0  0  0  0
  138.3845   68.9274  222.3271 H   0  0  0  0  0  0  0  0  0  0  0  0
  138.7535   67.7453  224.4608 H   0  0  0  0  0  0  0  0  0  0  0  0
  139.6399   67.8142  226.7547 H   0  0  0  0  0  0  0  0  0  0  0  0
  140.8858   71.8900  226.1991 H   0  0  0  0  0  0  0  0  0  0  0  0
  1  2  2  0
  2  3  1  0
  3  4  1  0
  4  5  1  0
  5  6  2  0
  5  7  1  0
  7  8  1  0
  8  9  1  0
  9 10  1  0
 10 11  1  0
 11 12  1  0
 12 13  1  0
 13 14  1  0
 14 15  1  0
 15 16  1  0
 16 17  1  0
 17 18  1  0
  2 19  1  0
 19 20  2  0
 20 21  1  0
 21 22  2  0
 22 23  1  0
 23 24  2  0
 24 25  1  0
 25 26  1  0
 25 27  2  0
 27 28  1  0
 28 29  2  0
 12  7  1  0
 18 13  1  0
 29 19  1  0
 28 22  1  0
  3 30  1  0
  4 31  1  0
  4 32  1  0
  8 33  1  0
  8 34  1  0
  9 35  1  0
  9 36  1  0
 10 37  1  0
 10 38  1  0
 11 39  1  0
 11 40  1  0
 12 41  1  1
 13 42  1  0
 14 43  1  0
 14 44  1  0
 15 45  1  0
 15 46  1  0
 16 47  1  0
 16 48  1  0
 17 49  1  0
 17 50  1  0
 18 51  1  0
 18 52  1  0
 20 53  1  0
 21 54  1  0
 23 55  1  0
 24 56  1  0
 27 57  1  0
M  END
>  <smiles>  (60) 
O=C(NCC(=O)N1CCCCC1C1CCCCC1)c1ccc2ccc(Cl)cc2n1

>  <score_type>  (60) 
oracle

>  <origin>  (60) 
autodockgpu

>  <m_score__min__energy>  (60) 
-8.8499999999999996

>  <m_primary>  (60) 
energy

>  <rmsd>  (60) 
3.700943528945232

>  <m_score__min__rmsd>  (60) 
3.700943528945232

>  <meeko>  (60) 
{"free_energy": -8.19, "intermolecular_energy": -9.68, "internal_energy": -1.72, "cluster_size": 28, "cluster_id": 1, "rank_in_cluster": 26}

>  <energy>  (60) 
-8.56

>  <cluster_rmsd>  (60) 
1.03

>  <cluster>  (60) 
1

$$$$

     RDKit          3D

 57 60  0  0  0  0  0  0  0  0999 V2000
  141.5650   72.7490  221.8290 O   0  0  0  0  0  0  0  0  0  0  0  0
  140.4530   72.6700  222.4380 C   0  0  0  0  0  0  0  0  0  0  0  0
  139.5300   73.7490  222.3620 N   0  0  0  0  0  0  0  0  0  0  0  0
  139.8170   74.9690  221.5990 C   0  0  0  0  0  0  0  0  0  0  0  0
  140.2620   74.6950  220.2580 C   0  0  0  0  0  0  0  0  0  0  0  0
  139.4490   74.0960  219.4680 O   0  0  0  0  0  0  0  0  0  0  0  0
  141.5290   75.0040  219.6580 N   0  0  0  0  0  0  0  0  0  0  0  0
  141.9300   76.3960  219.8520 C   0  0  0  0  0  0  0  0  0  0  0  0
  143.2600   76.6410  219.2480 C   0  0  0  0  0  0  0  0  0  0  0  0
  143.3800   76.0580  217.8910 C   0  0  0  0  0  0  0  0  0  0  0  0
  142.7410   74.7410  217.6390 C   0  0  0  0  0  0  0  0  0  0  0  0
  142.3040   74.0410  218.9150 C   0  0  1  0  0  0  0  0  0  0  0  0
  143.3810   73.3330  219.6100 C   0  0  0  0  0  0  0  0  0  0  0  0
  143.9440   74.0150  220.8310 C   0  0  0  0  0  0  0  0  0  0  0  0
  145.4210   74.1750  220.8100 C   0  0  0  0  0  0  0  0  0  0  0  0
  146.0990   72.8600  220.6790 C   0  0  0  0  0  0  0  0  0  0  0  0
  145.5780   72.1560  219.4760 C   0  0  0  0  0  0  0  0  0  0  0  0
  144.5410   72.9480  218.7130 C   0  0  0  0  0  0  0  0  0  0  0  0
  140.0680   71.5050  223.2280 C   0  0  0  0  0  0  0  0  0  0  0  0
  139.1140   70.6590  222.6560 C   0  0  0  0  0  0  0  0  0  0  0  0
  138.7190   69.5500  223.3730 C   0  0  0  0  0  0  0  0  0  0  0  0
  139.2430   69.2680  224.6210 C   0  0  0  0  0  0  0  0  0  0  0  0
  138.8580   68.1530  225.3540 C   0  0  0  0  0  0  0  0  0  0  0  0
  139.4260   67.9420  226.5760 C   0  0  0  0  0  0  0  0  0  0  0  0
  140.3740   68.8140  227.1020 C   0  0  0  0  0  0  0  0  0  0  0  0
  141.0850   68.4990  228.6870 Cl  0  0  0  0  0  0  0  0  0  0  0  0
  140.7450   69.9230  226.3550 C   0  0  0  0  0  0  0  0  0  0  0  0
  140.1780   70.1550  225.1090 C   0  0  0  0  0  0  0  0  0  0  0  0
  140.5860   71.2460  224.4380 N   0  0  0  0  0  0  0  0  0  0  0  0
  138.6050   73.6660  222.8740 H   0  0  0  0  0  0  0  0  0  0  0  0
  138.9009   75.5759  221.5485 H   0  0  0  0  0  0  0  0  0  0  0  0
  140.6296   75.5002  222.1161 H   0  0  0  0  0  0  0  0  0  0  0  0
  141.1893   77.0558  219.3766 H   0  0  0  0  0  0  0  0  0  0  0  0
  141.9852   76.6036  220.9308 H   0  0  0  0  0  0  0  0  0  0  0  0
  143.4233   77.7268  219.1817 H   0  0  0  0  0  0  0  0  0  0  0  0
  144.0132   76.1585  219.8882 H   0  0  0  0  0  0  0  0  0  0  0  0
  142.9371   76.7768  217.1858 H   0  0  0  0  0  0  0  0  0  0  0  0
  144.4566   75.8693  217.7672 H   0  0  0  0  0  0  0  0  0  0  0  0
  141.8567   74.8960  217.0034 H   0  0  0  0  0  0  0  0  0  0  0  0
  143.4893   74.0995  217.1507 H   0  0  0  0  0  0  0  0  0  0  0  0
  141.6533   73.1772  218.7139 H   0  0  0  0  0  0  0  0  0  0  0  0
  142.8485   72.4321  219.9488 H   0  0  0  0  0  0  0  0  0  0  0  0
  143.4895   75.0137  220.9092 H   0  0  0  0  0  0  0  0  0  0  0  0
  143.7070   73.3716  221.6911 H   0  0  0  0  0  0  0  0  0  0  0  0
  145.7015   74.8105  219.9571 H   0  0  0  0  0  0  0  0  0  0  0  0
  145.7360   74.6379  221.7568 H   0  0  0  0  0  0  0  0  0  0  0  0
  147.1830   73.0143  220.5738 H   0  0  0  0  0  0  0  0  0  0  0  0
  145.9025   72.2531  221.5752 H   0  0  0  0  0  0  0  0  0  0  0  0
  146.4221   71.9481  218.8020 H   0  0  0  0  0  0  0  0  0  0  0  0
  145.0872   71.2365  219.8277 H   0  0  0  0  0  0  0  0  0  0  0  0
  145.0071   73.8619  218.3160 H   0  0  0  0  0  0  0  0  0  0  0  0
  144.1569   72.3231  217.8933 H   0  0  0  0  0  0  0  0  0  0  0  0
  138.6909   70.8718  221.6632 H   0  0  0  0  0  0  0  0  0  0  0  0
  137.9678   68.8722  222.9413 H   0  0  0  0  0  0  0  0  0  0  0  0
  138.1086   67.4528  224.9563 H   0  0  0  0  0  0  0  0  0  0  0  0
  139.1268   67.0596  227.1607 H   0  0  0  0  0  0  0  0  0  0  0  0
  141.4939   70.6236  226.7529 H   0  0  0  0  0  0  0  0  0  0  0  0
  1  2  2  0
  2  3  1  0
  3  4  1  0
  4  5  1  0
  5  6  2  0
  5  7  1  0
  7  8  1  0
  8  9  1  0
  9 10  1  0
 10 11  1  0
 11 12  1  0
 12 13  1  0
 13 14  1  0
 14 15  1  0
 15 16  1  0
 16 17  1  0
 17 18  1  0
  2 19  1  0
 19 20  2  0
 20 21  1  0
 21 22  2  0
 22 23  1  0
 23 24  2  0
 24 25  1  0
 25 26  1  0
 25 27  2  0
 27 28  1  0
 28 29  2  0
 12  7  1  0
 18 13  1  0
 29 19  1  0
 28 22  1  0
  3 30  1  0
  4 31  1  0
  4 32  1  0
  8 33  1  0
  8 34  1  0
  9 35  1  0
  9 36  1  0
 10 37  1  0
 10 38  1  0
 11 39  1  0
 11 40  1  0
 12 41  1  6
 13 42  1  0
 14 43  1  0
 14 44  1  0
 15 45  1  0
 15 46  1  0
 16 47  1  0
 16 48  1  0
 17 49  1  0
 17 50  1  0
 18 51  1  0
 18 52  1  0
 20 53  1  0
 21 54  1  0
 23 55  1  0
 24 56  1  0
 27 57  1  0
M  END
>  <smiles>  (61) 
O=C(NCC(=O)N1CCCCC1C1CCCCC1)c1ccc2ccc(Cl)cc2n1

>  <score_type>  (61) 
oracle

>  <origin>  (61) 
autodockgpu

>  <m_score__min__energy>  (61) 
-8.8499999999999996

>  <m_primary>  (61) 
energy

>  <rmsd>  (61) 
2.709913285892421

>  <m_score__min__rmsd>  (61) 
2.709913285892421

>  <meeko>  (61) 
{"free_energy": -7.96, "intermolecular_energy": -9.45, "internal_energy": -1.66, "cluster_size": 2, "cluster_id": 3, "rank_in_cluster": 1}

>  <energy>  (61) 
-8.54

>  <cluster_rmsd>  (61) 
1.6

>  <cluster>  (61) 
1

$$$$

     RDKit          3D

 57 60  0  0  0  0  0  0  0  0999 V2000
  141.6800   72.3200  221.6390 O   0  0  0  0  0  0  0  0  0  0  0  0
  140.6390   72.4570  222.3540 C   0  0  0  0  0  0  0  0  0  0  0  0
  139.8930   73.6650  222.2870 N   0  0  0  0  0  0  0  0  0  0  0  0
  140.2840   74.7770  221.4130 C   0  0  0  0  0  0  0  0  0  0  0  0
  139.7320   76.0380  221.8370 C   0  0  0  0  0  0  0  0  0  0  0  0
  138.8160   76.0200  222.7330 O   0  0  0  0  0  0  0  0  0  0  0  0
  140.0700   77.3570  221.3810 N   0  0  0  0  0  0  0  0  0  0  0  0
  138.9430   78.0560  220.7670 C   0  0  0  0  0  0  0  0  0  0  0  0
  139.3420   79.4220  220.3560 C   0  0  0  0  0  0  0  0  0  0  0  0
  140.6480   79.4420  219.6550 C   0  0  0  0  0  0  0  0  0  0  0  0
  141.7140   78.5300  220.1420 C   0  0  0  0  0  0  0  0  0  0  0  0
  141.3960   77.9140  221.4940 C   0  0  1  0  0  0  0  0  0  0  0  0
  141.6860   78.7860  222.6340 C   0  0  0  0  0  0  0  0  0  0  0  0
  140.4940   79.3930  223.3280 C   0  0  0  0  0  0  0  0  0  0  0  0
  140.5570   80.8710  223.4630 C   0  0  0  0  0  0  0  0  0  0  0  0
  141.7710   81.2860  224.2130 C   0  0  0  0  0  0  0  0  0  0  0  0
  142.9760   80.7150  223.5540 C   0  0  0  0  0  0  0  0  0  0  0  0
  142.6620   79.9020  222.3180 C   0  0  0  0  0  0  0  0  0  0  0  0
  140.1630   71.4170  223.2600 C   0  0  0  0  0  0  0  0  0  0  0  0
  139.0000   70.7440  222.8700 C   0  0  0  0  0  0  0  0  0  0  0  0
  138.5140   69.7580  223.7020 C   0  0  0  0  0  0  0  0  0  0  0  0
  139.1470   69.4310  224.8870 C   0  0  0  0  0  0  0  0  0  0  0  0
  138.6710   68.4370  225.7330 C   0  0  0  0  0  0  0  0  0  0  0  0
  139.3550   68.1710  226.8820 C   0  0  0  0  0  0  0  0  0  0  0  0
  140.5090   68.8670  227.2250 C   0  0  0  0  0  0  0  0  0  0  0  0
  141.3650   68.4860  228.7210 Cl  0  0  0  0  0  0  0  0  0  0  0  0
  140.9680   69.8580  226.3670 C   0  0  0  0  0  0  0  0  0  0  0  0
  140.2850   70.1440  225.1930 C   0  0  0  0  0  0  0  0  0  0  0  0
  140.7870   71.1120  224.4060 N   0  0  0  0  0  0  0  0  0  0  0  0
  139.0240   73.7630  222.8880 H   0  0  0  0  0  0  0  0  0  0  0  0
  141.3812   74.8554  221.4128 H   0  0  0  0  0  0  0  0  0  0  0  0
  139.8912   74.5635  220.4079 H   0  0  0  0  0  0  0  0  0  0  0  0
  138.6077   77.4951  219.8822 H   0  0  0  0  0  0  0  0  0  0  0  0
  138.1270   78.1292  221.5010 H   0  0  0  0  0  0  0  0  0  0  0  0
  138.5729   79.8269  219.6818 H   0  0  0  0  0  0  0  0  0  0  0  0
  139.4406   80.0310  221.2667 H   0  0  0  0  0  0  0  0  0  0  0  0
  140.4577   79.1898  218.6014 H   0  0  0  0  0  0  0  0  0  0  0  0
  141.0440   80.4514  219.8400 H   0  0  0  0  0  0  0  0  0  0  0  0
  141.8439   77.7198  219.4094 H   0  0  0  0  0  0  0  0  0  0  0  0
  142.6300   79.1276  220.2598 H   0  0  0  0  0  0  0  0  0  0  0  0
  142.0807   77.0913  221.7477 H   0  0  0  0  0  0  0  0  0  0  0  0
  142.1426   78.0672  223.3303 H   0  0  0  0  0  0  0  0  0  0  0  0
  139.5922   79.1370  222.7525 H   0  0  0  0  0  0  0  0  0  0  0  0
  140.4785   78.9822  224.3483 H   0  0  0  0  0  0  0  0  0  0  0  0
  140.5815   81.3231  222.4605 H   0  0  0  0  0  0  0  0  0  0  0  0
  139.6695   81.2104  224.0172 H   0  0  0  0  0  0  0  0  0  0  0  0
  141.8413   82.3837  224.2195 H   0  0  0  0  0  0  0  0  0  0  0  0
  141.7081   80.9182  225.2478 H   0  0  0  0  0  0  0  0  0  0  0  0
  143.6402   81.5432  223.2661 H   0  0  0  0  0  0  0  0  0  0  0  0
  143.4469   80.0333  224.2775 H   0  0  0  0  0  0  0  0  0  0  0  0
  142.2199   80.5614  221.5567 H   0  0  0  0  0  0  0  0  0  0  0  0
  143.5960   79.4553  221.9463 H   0  0  0  0  0  0  0  0  0  0  0  0
  138.4891   70.9939  221.9284 H   0  0  0  0  0  0  0  0  0  0  0  0
  137.5995   69.2178  223.4159 H   0  0  0  0  0  0  0  0  0  0  0  0
  137.7596   67.8753  225.4806 H   0  0  0  0  0  0  0  0  0  0  0  0
  138.9840   67.3847  227.5559 H   0  0  0  0  0  0  0  0  0  0  0  0
  141.8791   70.4201  226.6196 H   0  0  0  0  0  0  0  0  0  0  0  0
  1  2  2  0
  2  3  1  0
  3  4  1  0
  4  5  1  0
  5  6  2  0
  5  7  1  0
  7  8  1  0
  8  9  1  0
  9 10  1  0
 10 11  1  0
 11 12  1  0
 12 13  1  0
 13 14  1  0
 14 15  1  0
 15 16  1  0
 16 17  1  0
 17 18  1  0
  2 19  1  0
 19 20  2  0
 20 21  1  0
 21 22  2  0
 22 23  1  0
 23 24  2  0
 24 25  1  0
 25 26  1  0
 25 27  2  0
 27 28  1  0
 28 29  2  0
 12  7  1  0
 18 13  1  0
 29 19  1  0
 28 22  1  0
  3 30  1  0
  4 31  1  0
  4 32  1  0
  8 33  1  0
  8 34  1  0
  9 35  1  0
  9 36  1  0
 10 37  1  0
 10 38  1  0
 11 39  1  0
 11 40  1  0
 12 41  1  1
 13 42  1  0
 14 43  1  0
 14 44  1  0
 15 45  1  0
 15 46  1  0
 16 47  1  0
 16 48  1  0
 17 49  1  0
 17 50  1  0
 18 51  1  0
 18 52  1  0
 20 53  1  0
 21 54  1  0
 23 55  1  0
 24 56  1  0
 27 57  1  0
M  END
>  <smiles>  (62) 
O=C(NCC(=O)N1CCCCC1C1CCCCC1)c1ccc2ccc(Cl)cc2n1

>  <score_type>  (62) 
oracle

>  <origin>  (62) 
autodockgpu

>  <m_score__min__energy>  (62) 
-8.8499999999999996

>  <m_primary>  (62) 
energy

>  <rmsd>  (62) 
2.625010480942893

>  <m_score__min__rmsd>  (62) 
2.625010480942893

>  <meeko>  (62) 
{"free_energy": -8.85, "intermolecular_energy": -10.34, "internal_energy": -1.81, "cluster_size": 28, "cluster_id": 1, "rank_in_cluster": 1}

>  <energy>  (62) 
-8.53

>  <cluster_rmsd>  (62) 
1.55

>  <cluster>  (62) 
1

$$$$

     RDKit          3D

 57 60  0  0  0  0  0  0  0  0999 V2000
  141.2420   73.2920  221.0190 O   0  0  0  0  0  0  0  0  0  0  0  0
  140.4030   73.4200  221.9640 C   0  0  0  0  0  0  0  0  0  0  0  0
  139.8870   74.7060  222.2790 N   0  0  0  0  0  0  0  0  0  0  0  0
  140.2940   75.9120  221.5480 C   0  0  0  0  0  0  0  0  0  0  0  0
  139.8370   77.1240  222.1760 C   0  0  0  0  0  0  0  0  0  0  0  0
  138.6580   77.1300  222.6790 O   0  0  0  0  0  0  0  0  0  0  0  0
  140.5340   78.3710  222.3200 N   0  0  0  0  0  0  0  0  0  0  0  0
  141.4010   78.6760  221.1850 C   0  0  0  0  0  0  0  0  0  0  0  0
  142.0590   79.9900  221.3730 C   0  0  0  0  0  0  0  0  0  0  0  0
  142.6060   80.1570  222.7400 C   0  0  0  0  0  0  0  0  0  0  0  0
  141.8220   79.6090  223.8760 C   0  0  0  0  0  0  0  0  0  0  0  0
  140.4080   79.2130  223.4850 C   0  0  1  0  0  0  0  0  0  0  0  0
  139.4640   80.3310  223.4330 C   0  0  0  0  0  0  0  0  0  0  0  0
  138.4320   80.3810  224.5310 C   0  0  0  0  0  0  0  0  0  0  0  0
  137.0320   80.4830  224.0440 C   0  0  0  0  0  0  0  0  0  0  0  0
  136.8480   81.6920  223.2010 C   0  0  0  0  0  0  0  0  0  0  0  0
  137.8430   81.6770  222.0950 C   0  0  0  0  0  0  0  0  0  0  0  0
  138.7420   80.4620  222.1060 C   0  0  0  0  0  0  0  0  0  0  0  0
  139.9320   72.2890  222.7570 C   0  0  0  0  0  0  0  0  0  0  0  0
  138.8490   71.5760  222.2350 C   0  0  0  0  0  0  0  0  0  0  0  0
  138.3710   70.5040  222.9580 C   0  0  0  0  0  0  0  0  0  0  0  0
  138.9360   70.1310  224.1640 C   0  0  0  0  0  0  0  0  0  0  0  0
  138.4680   69.0510  224.9000 C   0  0  0  0  0  0  0  0  0  0  0  0
  139.0830   68.7450  226.0790 C   0  0  0  0  0  0  0  0  0  0  0  0
  140.1600   69.4850  226.5560 C   0  0  0  0  0  0  0  0  0  0  0  0
  140.9280   69.0490  228.0850 Cl  0  0  0  0  0  0  0  0  0  0  0  0
  140.6120   70.5610  225.8050 C   0  0  0  0  0  0  0  0  0  0  0  0
  139.9990   70.8890  224.6040 C   0  0  0  0  0  0  0  0  0  0  0  0
  140.4910   71.9410  223.9250 N   0  0  0  0  0  0  0  0  0  0  0  0
  139.1840   74.7950  223.0690 H   0  0  0  0  0  0  0  0  0  0  0  0
  141.3924   75.9365  221.4937 H   0  0  0  0  0  0  0  0  0  0  0  0
  139.8378   75.8639  220.5482 H   0  0  0  0  0  0  0  0  0  0  0  0
  142.1706   77.8950  221.0973 H   0  0  0  0  0  0  0  0  0  0  0  0
  140.7907   78.7114  220.2705 H   0  0  0  0  0  0  0  0  0  0  0  0
  142.8827   80.0794  220.6495 H   0  0  0  0  0  0  0  0  0  0  0  0
  141.2998   80.7707  221.2177 H   0  0  0  0  0  0  0  0  0  0  0  0
  143.5928   79.6714  222.7591 H   0  0  0  0  0  0  0  0  0  0  0  0
  142.6059   81.2445  222.9052 H   0  0  0  0  0  0  0  0  0  0  0  0
  142.3407   78.7197  224.2633 H   0  0  0  0  0  0  0  0  0  0  0  0
  141.7439   80.4016  224.6347 H   0  0  0  0  0  0  0  0  0  0  0  0
  139.9089   78.6236  224.2683 H   0  0  0  0  0  0  0  0  0  0  0  0
  140.1455   81.1818  223.5801 H   0  0  0  0  0  0  0  0  0  0  0  0
  138.5226   79.4643  225.1322 H   0  0  0  0  0  0  0  0  0  0  0  0
  138.6324   81.2926  225.1131 H   0  0  0  0  0  0  0  0  0  0  0  0
  136.7923   79.5896  223.4487 H   0  0  0  0  0  0  0  0  0  0  0  0
  136.3630   80.5575  224.9140 H   0  0  0  0  0  0  0  0  0  0  0  0
  135.8315   81.6955  222.7806 H   0  0  0  0  0  0  0  0  0  0  0  0
  136.9924   82.5938  223.8140 H   0  0  0  0  0  0  0  0  0  0  0  0
  137.3001   81.6992  221.1386 H   0  0  0  0  0  0  0  0  0  0  0  0
  138.4887   82.5572  222.2302 H   0  0  0  0  0  0  0  0  0  0  0  0
  138.1322   79.5620  221.9381 H   0  0  0  0  0  0  0  0  0  0  0  0
  139.4919   80.5742  221.3091 H   0  0  0  0  0  0  0  0  0  0  0  0
  138.3919   71.8617  221.2761 H   0  0  0  0  0  0  0  0  0  0  0  0
  137.5183   69.9305  222.5656 H   0  0  0  0  0  0  0  0  0  0  0  0
  137.6177   68.4534  224.5397 H   0  0  0  0  0  0  0  0  0  0  0  0
  138.7175   67.8907  226.6677 H   0  0  0  0  0  0  0  0  0  0  0  0
  141.4628   71.1585  226.1645 H   0  0  0  0  0  0  0  0  0  0  0  0
  1  2  2  0
  2  3  1  0
  3  4  1  0
  4  5  1  0
  5  6  2  0
  5  7  1  0
  7  8  1  0
  8  9  1  0
  9 10  1  0
 10 11  1  0
 11 12  1  0
 12 13  1  0
 13 14  1  0
 14 15  1  0
 15 16  1  0
 16 17  1  0
 17 18  1  0
  2 19  1  0
 19 20  2  0
 20 21  1  0
 21 22  2  0
 22 23  1  0
 23 24  2  0
 24 25  1  0
 25 26  1  0
 25 27  2  0
 27 28  1  0
 28 29  2  0
 12  7  1  0
 18 13  1  0
 29 19  1  0
 28 22  1  0
  3 30  1  0
  4 31  1  0
  4 32  1  0
  8 33  1  0
  8 34  1  0
  9 35  1  0
  9 36  1  0
 10 37  1  0
 10 38  1  0
 11 39  1  0
 11 40  1  0
 12 41  1  1
 13 42  1  0
 14 43  1  0
 14 44  1  0
 15 45  1  0
 15 46  1  0
 16 47  1  0
 16 48  1  0
 17 49  1  0
 17 50  1  0
 18 51  1  0
 18 52  1  0
 20 53  1  0
 21 54  1  0
 23 55  1  0
 24 56  1  0
 27 57  1  0
M  END
>  <smiles>  (63) 
O=C(NCC(=O)N1CCCCC1C1CCCCC1)c1ccc2ccc(Cl)cc2n1

>  <score_type>  (63) 
oracle

>  <origin>  (63) 
autodockgpu

>  <m_score__min__energy>  (63) 
-8.8499999999999996

>  <m_primary>  (63) 
energy

>  <rmsd>  (63) 
3.972517068563511

>  <m_score__min__rmsd>  (63) 
3.972517068563511

>  <meeko>  (63) 
{"free_energy": -8.53, "intermolecular_energy": -10.02, "internal_energy": -1.69, "cluster_size": 28, "cluster_id": 1, "rank_in_cluster": 12}

>  <energy>  (63) 
-8.52

>  <cluster_rmsd>  (63) 
1.42

>  <cluster>  (63) 
1

$$$$

     RDKit          3D

 57 60  0  0  0  0  0  0  0  0999 V2000
  140.6270   77.9730  217.6130 O   0  0  0  0  0  0  0  0  0  0  0  0
  141.6740   77.7840  218.3070 C   0  0  0  0  0  0  0  0  0  0  0  0
  142.4400   78.8990  218.7430 N   0  0  0  0  0  0  0  0  0  0  0  0
  142.0670   80.2800  218.4170 C   0  0  0  0  0  0  0  0  0  0  0  0
  141.7800   81.0700  219.5850 C   0  0  0  0  0  0  0  0  0  0  0  0
  141.8180   82.3460  219.4680 O   0  0  0  0  0  0  0  0  0  0  0  0
  141.4510   80.6200  220.9080 N   0  0  0  0  0  0  0  0  0  0  0  0
  140.6900   81.6040  221.6740 C   0  0  0  0  0  0  0  0  0  0  0  0
  140.3470   81.0670  223.0110 C   0  0  0  0  0  0  0  0  0  0  0  0
  141.4990   80.4040  223.6670 C   0  0  0  0  0  0  0  0  0  0  0  0
  142.4180   79.6040  222.8180 C   0  0  0  0  0  0  0  0  0  0  0  0
  141.8630   79.3390  221.4290 C   0  0  1  0  0  0  0  0  0  0  0  0
  140.9110   78.2270  221.3650 C   0  0  0  0  0  0  0  0  0  0  0  0
  139.4550   78.6030  221.2740 C   0  0  0  0  0  0  0  0  0  0  0  0
  138.5970   77.9630  222.3040 C   0  0  0  0  0  0  0  0  0  0  0  0
  138.6830   76.4820  222.2240 C   0  0  0  0  0  0  0  0  0  0  0  0
  140.1080   76.0670  222.3210 C   0  0  0  0  0  0  0  0  0  0  0  0
  141.0660   77.2240  222.4900 C   0  0  0  0  0  0  0  0  0  0  0  0
  142.1380   76.4540  218.6860 C   0  0  0  0  0  0  0  0  0  0  0  0
  141.3620   75.3780  218.2390 C   0  0  0  0  0  0  0  0  0  0  0  0
  141.7640   74.1050  218.5810 C   0  0  0  0  0  0  0  0  0  0  0  0
  142.8980   73.8810  219.3410 C   0  0  0  0  0  0  0  0  0  0  0  0
  143.3170   72.6040  219.6890 C   0  0  0  0  0  0  0  0  0  0  0  0
  144.4490   72.4660  220.4370 C   0  0  0  0  0  0  0  0  0  0  0  0
  145.1880   73.5670  220.8560 C   0  0  0  0  0  0  0  0  0  0  0  0
  146.6510   73.3410  221.8180 Cl  0  0  0  0  0  0  0  0  0  0  0  0
  144.7520   74.8360  220.4970 C   0  0  0  0  0  0  0  0  0  0  0  0
  143.6020   74.9970  219.7370 C   0  0  0  0  0  0  0  0  0  0  0  0
  143.2390   76.2530  219.4230 N   0  0  0  0  0  0  0  0  0  0  0  0
  143.3100   78.7240  219.3250 H   0  0  0  0  0  0  0  0  0  0  0  0
  142.8986   80.7492  217.8709 H   0  0  0  0  0  0  0  0  0  0  0  0
  141.1507   80.2413  217.8097 H   0  0  0  0  0  0  0  0  0  0  0  0
  141.2941   82.5154  221.7939 H   0  0  0  0  0  0  0  0  0  0  0  0
  139.7600   81.8342  221.1334 H   0  0  0  0  0  0  0  0  0  0  0  0
  140.0073   81.8968  223.6483 H   0  0  0  0  0  0  0  0  0  0  0  0
  139.5581   80.3123  222.8767 H   0  0  0  0  0  0  0  0  0  0  0  0
  142.0991   81.1906  224.1478 H   0  0  0  0  0  0  0  0  0  0  0  0
  141.0430   79.6693  224.3469 H   0  0  0  0  0  0  0  0  0  0  0  0
  143.3675   80.1503  222.7178 H   0  0  0  0  0  0  0  0  0  0  0  0
  142.5550   78.6293  223.3091 H   0  0  0  0  0  0  0  0  0  0  0  0
  142.6252   78.9334  220.7474 H   0  0  0  0  0  0  0  0  0  0  0  0
  141.1944   77.7691  220.4059 H   0  0  0  0  0  0  0  0  0  0  0  0
  139.3726   79.6942  221.3854 H   0  0  0  0  0  0  0  0  0  0  0  0
  139.0963   78.2469  220.2970 H   0  0  0  0  0  0  0  0  0  0  0  0
  138.9280   78.2891  223.3010 H   0  0  0  0  0  0  0  0  0  0  0  0
  137.5538   78.2633  222.1267 H   0  0  0  0  0  0  0  0  0  0  0  0
  138.1129   76.0355  223.0520 H   0  0  0  0  0  0  0  0  0  0  0  0
  138.2635   76.1395  221.2665 H   0  0  0  0  0  0  0  0  0  0  0  0
  140.2166   75.3965  223.1863 H   0  0  0  0  0  0  0  0  0  0  0  0
  140.3647   75.5720  221.3728 H   0  0  0  0  0  0  0  0  0  0  0  0
  140.8607   77.7238  223.4482 H   0  0  0  0  0  0  0  0  0  0  0  0
  142.0940   76.8330  222.4713 H   0  0  0  0  0  0  0  0  0  0  0  0
  140.4589   75.5436  217.6332 H   0  0  0  0  0  0  0  0  0  0  0  0
  141.1681   73.2452  218.2410 H   0  0  0  0  0  0  0  0  0  0  0  0
  142.7467   71.7201  219.3674 H   0  0  0  0  0  0  0  0  0  0  0  0
  144.7865   71.4570  220.7163 H   0  0  0  0  0  0  0  0  0  0  0  0
  145.3226   75.7201  220.8175 H   0  0  0  0  0  0  0  0  0  0  0  0
  1  2  2  0
  2  3  1  0
  3  4  1  0
  4  5  1  0
  5  6  2  0
  5  7  1  0
  7  8  1  0
  8  9  1  0
  9 10  1  0
 10 11  1  0
 11 12  1  0
 12 13  1  0
 13 14  1  0
 14 15  1  0
 15 16  1  0
 16 17  1  0
 17 18  1  0
  2 19  1  0
 19 20  2  0
 20 21  1  0
 21 22  2  0
 22 23  1  0
 23 24  2  0
 24 25  1  0
 25 26  1  0
 25 27  2  0
 27 28  1  0
 28 29  2  0
 12  7  1  0
 18 13  1  0
 29 19  1  0
 28 22  1  0
  3 30  1  0
  4 31  1  0
  4 32  1  0
  8 33  1  0
  8 34  1  0
  9 35  1  0
  9 36  1  0
 10 37  1  0
 10 38  1  0
 11 39  1  0
 11 40  1  0
 12 41  1  6
 13 42  1  0
 14 43  1  0
 14 44  1  0
 15 45  1  0
 15 46  1  0
 16 47  1  0
 16 48  1  0
 17 49  1  0
 17 50  1  0
 18 51  1  0
 18 52  1  0
 20 53  1  0
 21 54  1  0
 23 55  1  0
 24 56  1  0
 27 57  1  0
M  END
>  <smiles>  (64) 
O=C(NCC(=O)N1CCCCC1C1CCCCC1)c1ccc2ccc(Cl)cc2n1

>  <score_type>  (64) 
oracle

>  <origin>  (64) 
autodockgpu

>  <m_score__min__energy>  (64) 
-8.8499999999999996

>  <m_primary>  (64) 
energy

>  <rmsd>  (64) 
7.681864399348421

>  <m_score__min__rmsd>  (64) 
7.681864399348421

>  <meeko>  (64) 
{"free_energy": -7.23, "intermolecular_energy": -8.72, "internal_energy": -2.7, "cluster_size": 11, "cluster_id": 6, "rank_in_cluster": 7}

>  <energy>  (64) 
-8.52

>  <cluster_rmsd>  (64) 
1.42

>  <cluster>  (64) 
1

$$$$

     RDKit          3D

 57 60  0  0  0  0  0  0  0  0999 V2000
  140.5860   73.4750  220.5850 O   0  0  0  0  0  0  0  0  0  0  0  0
  139.9670   73.4790  221.6940 C   0  0  0  0  0  0  0  0  0  0  0  0
  139.3660   74.6810  222.1610 N   0  0  0  0  0  0  0  0  0  0  0  0
  139.4370   75.9350  221.4030 C   0  0  0  0  0  0  0  0  0  0  0  0
  140.7180   76.5830  221.5180 C   0  0  0  0  0  0  0  0  0  0  0  0
  141.7680   75.8670  221.3520 O   0  0  0  0  0  0  0  0  0  0  0  0
  140.9970   77.9620  221.8050 N   0  0  0  0  0  0  0  0  0  0  0  0
  141.8220   78.6020  220.7840 C   0  0  0  0  0  0  0  0  0  0  0  0
  142.0410   80.0300  221.1150 C   0  0  0  0  0  0  0  0  0  0  0  0
  142.4020   80.2310  222.5380 C   0  0  0  0  0  0  0  0  0  0  0  0
  141.7280   79.3830  223.5540 C   0  0  0  0  0  0  0  0  0  0  0  0
  140.5330   78.6270  222.9970 C   0  0  1  0  0  0  0  0  0  0  0  0
  139.3060   79.4220  222.9150 C   0  0  0  0  0  0  0  0  0  0  0  0
  139.2230   80.6140  223.8330 C   0  0  0  0  0  0  0  0  0  0  0  0
  137.9980   80.6490  224.6730 C   0  0  0  0  0  0  0  0  0  0  0  0
  136.7740   80.6460  223.8310 C   0  0  0  0  0  0  0  0  0  0  0  0
  136.8110   79.4750  222.9140 C   0  0  0  0  0  0  0  0  0  0  0  0
  138.0380   78.6090  223.0870 C   0  0  0  0  0  0  0  0  0  0  0  0
  139.8380   72.2900  222.5290 C   0  0  0  0  0  0  0  0  0  0  0  0
  139.2140   71.1860  221.9400 C   0  0  0  0  0  0  0  0  0  0  0  0
  139.0680   70.0440  222.6990 C   0  0  0  0  0  0  0  0  0  0  0  0
  139.5220   69.9760  224.0030 C   0  0  0  0  0  0  0  0  0  0  0  0
  139.3850   68.8310  224.7770 C   0  0  0  0  0  0  0  0  0  0  0  0
  139.8640   68.8420  226.0540 C   0  0  0  0  0  0  0  0  0  0  0  0
  140.4800   69.9660  226.5950 C   0  0  0  0  0  0  0  0  0  0  0  0
  141.0890   69.9340  228.2520 Cl  0  0  0  0  0  0  0  0  0  0  0  0
  140.6060   71.1010  225.8050 C   0  0  0  0  0  0  0  0  0  0  0  0
  140.1250   71.1090  224.5030 C   0  0  0  0  0  0  0  0  0  0  0  0
  140.2830   72.2400  223.7930 N   0  0  0  0  0  0  0  0  0  0  0  0
  138.8500   74.6670  223.0870 H   0  0  0  0  0  0  0  0  0  0  0  0
  139.2477   75.7158  220.3418 H   0  0  0  0  0  0  0  0  0  0  0  0
  138.6812   76.6175  221.8189 H   0  0  0  0  0  0  0  0  0  0  0  0
  142.7939   78.0896  220.7301 H   0  0  0  0  0  0  0  0  0  0  0  0
  141.3049   78.5361  219.8154 H   0  0  0  0  0  0  0  0  0  0  0  0
  142.8557   80.4176  220.4857 H   0  0  0  0  0  0  0  0  0  0  0  0
  141.0984   80.5658  220.9292 H   0  0  0  0  0  0  0  0  0  0  0  0
  143.4838   80.0538  222.6294 H   0  0  0  0  0  0  0  0  0  0  0  0
  142.0651   81.2531  222.7655 H   0  0  0  0  0  0  0  0  0  0  0  0
  142.4552   78.6538  223.9404 H   0  0  0  0  0  0  0  0  0  0  0  0
  141.3560   80.0501  224.3455 H   0  0  0  0  0  0  0  0  0  0  0  0
  140.1712   77.8517  223.6883 H   0  0  0  0  0  0  0  0  0  0  0  0
  139.3768   79.8029  221.8855 H   0  0  0  0  0  0  0  0  0  0  0  0
  140.0982   80.5985  224.4991 H   0  0  0  0  0  0  0  0  0  0  0  0
  139.1930   81.5069  223.1913 H   0  0  0  0  0  0  0  0  0  0  0  0
  137.9859   79.7655  225.3282 H   0  0  0  0  0  0  0  0  0  0  0  0
  138.0096   81.5724  225.2707 H   0  0  0  0  0  0  0  0  0  0  0  0
  135.8849   80.5802  224.4753 H   0  0  0  0  0  0  0  0  0  0  0  0
  136.7295   81.5740  223.2421 H   0  0  0  0  0  0  0  0  0  0  0  0
  135.9203   78.8576  223.1024 H   0  0  0  0  0  0  0  0  0  0  0  0
  136.8371   79.8699  221.8877 H   0  0  0  0  0  0  0  0  0  0  0  0
  138.0276   78.1678  224.0946 H   0  0  0  0  0  0  0  0  0  0  0  0
  138.0209   77.8203  222.3204 H   0  0  0  0  0  0  0  0  0  0  0  0
  138.8506   71.2272  220.9026 H   0  0  0  0  0  0  0  0  0  0  0  0
  138.5778   69.1647  222.2556 H   0  0  0  0  0  0  0  0  0  0  0  0
  138.8996   67.9326  224.3680 H   0  0  0  0  0  0  0  0  0  0  0  0
  139.7605   67.9383  226.6725 H   0  0  0  0  0  0  0  0  0  0  0  0
  141.0904   72.0000  226.2138 H   0  0  0  0  0  0  0  0  0  0  0  0
  1  2  2  0
  2  3  1  0
  3  4  1  0
  4  5  1  0
  5  6  2  0
  5  7  1  0
  7  8  1  0
  8  9  1  0
  9 10  1  0
 10 11  1  0
 11 12  1  0
 12 13  1  0
 13 14  1  0
 14 15  1  0
 15 16  1  0
 16 17  1  0
 17 18  1  0
  2 19  1  0
 19 20  2  0
 20 21  1  0
 21 22  2  0
 22 23  1  0
 23 24  2  0
 24 25  1  0
 25 26  1  0
 25 27  2  0
 27 28  1  0
 28 29  2  0
 12  7  1  0
 18 13  1  0
 29 19  1  0
 28 22  1  0
  3 30  1  0
  4 31  1  0
  4 32  1  0
  8 33  1  0
  8 34  1  0
  9 35  1  0
  9 36  1  0
 10 37  1  0
 10 38  1  0
 11 39  1  0
 11 40  1  0
 12 41  1  1
 13 42  1  0
 14 43  1  0
 14 44  1  0
 15 45  1  0
 15 46  1  0
 16 47  1  0
 16 48  1  0
 17 49  1  0
 17 50  1  0
 18 51  1  0
 18 52  1  0
 20 53  1  0
 21 54  1  0
 23 55  1  0
 24 56  1  0
 27 57  1  0
M  END
>  <smiles>  (65) 
O=C(NCC(=O)N1CCCCC1C1CCCCC1)c1ccc2ccc(Cl)cc2n1

>  <score_type>  (65) 
oracle

>  <origin>  (65) 
autodockgpu

>  <m_score__min__energy>  (65) 
-8.8499999999999996

>  <m_primary>  (65) 
energy

>  <rmsd>  (65) 
3.678359738795632

>  <m_score__min__rmsd>  (65) 
3.678359738795632

>  <meeko>  (65) 
{"free_energy": -8.42, "intermolecular_energy": -9.91, "internal_energy": -1.4, "cluster_size": 28, "cluster_id": 1, "rank_in_cluster": 23}

>  <energy>  (65) 
-8.51

>  <cluster_rmsd>  (65) 
1.43

>  <cluster>  (65) 
1

$$$$

     RDKit          3D

 57 60  0  0  0  0  0  0  0  0999 V2000
  140.5770   78.3850  217.8740 O   0  0  0  0  0  0  0  0  0  0  0  0
  141.7380   78.1430  218.3300 C   0  0  0  0  0  0  0  0  0  0  0  0
  142.6170   79.2200  218.6260 N   0  0  0  0  0  0  0  0  0  0  0  0
  142.2330   80.6210  218.4210 C   0  0  0  0  0  0  0  0  0  0  0  0
  141.4670   81.1540  219.5170 C   0  0  0  0  0  0  0  0  0  0  0  0
  140.7860   82.2200  219.3090 O   0  0  0  0  0  0  0  0  0  0  0  0
  141.3540   80.6490  220.8560 N   0  0  0  0  0  0  0  0  0  0  0  0
  140.7780   81.6170  221.7860 C   0  0  0  0  0  0  0  0  0  0  0  0
  140.6510   81.0250  223.1380 C   0  0  0  0  0  0  0  0  0  0  0  0
  141.8710   80.2930  223.5520 C   0  0  0  0  0  0  0  0  0  0  0  0
  142.5950   79.5070  222.5200 C   0  0  0  0  0  0  0  0  0  0  0  0
  141.7970   79.3310  221.2400 C   0  0  1  0  0  0  0  0  0  0  0  0
  140.8040   78.2550  221.2950 C   0  0  0  0  0  0  0  0  0  0  0  0
  139.3620   78.6860  221.3880 C   0  0  0  0  0  0  0  0  0  0  0  0
  138.6170   78.0720  222.5180 C   0  0  0  0  0  0  0  0  0  0  0  0
  138.6370   76.5890  222.4270 C   0  0  0  0  0  0  0  0  0  0  0  0
  140.0470   76.1210  222.3430 C   0  0  0  0  0  0  0  0  0  0  0  0
  141.0610   77.2410  222.3920 C   0  0  0  0  0  0  0  0  0  0  0  0
  142.2230   76.7880  218.5680 C   0  0  0  0  0  0  0  0  0  0  0  0
  141.5760   75.7670  217.8640 C   0  0  0  0  0  0  0  0  0  0  0  0
  142.0020   74.4720  218.0660 C   0  0  0  0  0  0  0  0  0  0  0  0
  143.0360   74.1740  218.9340 C   0  0  0  0  0  0  0  0  0  0  0  0
  143.4780   72.8740  219.1440 C   0  0  0  0  0  0  0  0  0  0  0  0
  144.5070   72.6640  220.0130 C   0  0  0  0  0  0  0  0  0  0  0  0
  145.1200   73.7140  220.6900 C   0  0  0  0  0  0  0  0  0  0  0  0
  146.4540   73.3950  221.8020 Cl  0  0  0  0  0  0  0  0  0  0  0  0
  144.6640   75.0060  220.4660 C   0  0  0  0  0  0  0  0  0  0  0  0
  143.6170   75.2400  219.5860 C   0  0  0  0  0  0  0  0  0  0  0  0
  143.2280   76.5150  219.4140 N   0  0  0  0  0  0  0  0  0  0  0  0
  143.5820   79.0010  219.0090 H   0  0  0  0  0  0  0  0  0  0  0  0
  143.1465   81.2227  218.3049 H   0  0  0  0  0  0  0  0  0  0  0  0
  141.6003   80.6636  217.5222 H   0  0  0  0  0  0  0  0  0  0  0  0
  141.4299   82.5015  221.8378 H   0  0  0  0  0  0  0  0  0  0  0  0
  139.7783   81.9035  221.4276 H   0  0  0  0  0  0  0  0  0  0  0  0
  140.4614   81.8324  223.8606 H   0  0  0  0  0  0  0  0  0  0  0  0
  139.8206   80.3041  223.1114 H   0  0  0  0  0  0  0  0  0  0  0  0
  142.5771   81.0345  223.9539 H   0  0  0  0  0  0  0  0  0  0  0  0
  141.5107   79.5404  224.2688 H   0  0  0  0  0  0  0  0  0  0  0  0
  143.5343   80.0263  222.2789 H   0  0  0  0  0  0  0  0  0  0  0  0
  142.7750   78.5047  222.9360 H   0  0  0  0  0  0  0  0  0  0  0  0
  142.4118   78.9359  220.4179 H   0  0  0  0  0  0  0  0  0  0  0  0
  140.9479   77.7914  220.3079 H   0  0  0  0  0  0  0  0  0  0  0  0
  139.3352   79.7789  221.5098 H   0  0  0  0  0  0  0  0  0  0  0  0
  138.8700   78.3495  220.4635 H   0  0  0  0  0  0  0  0  0  0  0  0
  139.0828   78.3804  223.4656 H   0  0  0  0  0  0  0  0  0  0  0  0
  137.5716   78.4114  222.4736 H   0  0  0  0  0  0  0  0  0  0  0  0
  138.1597   76.1595  223.3202 H   0  0  0  0  0  0  0  0  0  0  0  0
  138.0876   76.2672  221.5300 H   0  0  0  0  0  0  0  0  0  0  0  0
  140.2386   75.4415  223.1865 H   0  0  0  0  0  0  0  0  0  0  0  0
  140.1638   75.6229  221.3692 H   0  0  0  0  0  0  0  0  0  0  0  0
  140.9954   77.7431  223.3685 H   0  0  0  0  0  0  0  0  0  0  0  0
  142.0635   76.8127  222.2454 H   0  0  0  0  0  0  0  0  0  0  0  0
  140.7522   75.9909  217.1703 H   0  0  0  0  0  0  0  0  0  0  0  0
  141.5064   73.6541  217.5224 H   0  0  0  0  0  0  0  0  0  0  0  0
  143.0066   72.0301  218.6190 H   0  0  0  0  0  0  0  0  0  0  0  0
  144.8624   71.6371  220.1837 H   0  0  0  0  0  0  0  0  0  0  0  0
  145.1361   75.8502  220.9899 H   0  0  0  0  0  0  0  0  0  0  0  0
  1  2  2  0
  2  3  1  0
  3  4  1  0
  4  5  1  0
  5  6  2  0
  5  7  1  0
  7  8  1  0
  8  9  1  0
  9 10  1  0
 10 11  1  0
 11 12  1  0
 12 13  1  0
 13 14  1  0
 14 15  1  0
 15 16  1  0
 16 17  1  0
 17 18  1  0
  2 19  1  0
 19 20  2  0
 20 21  1  0
 21 22  2  0
 22 23  1  0
 23 24  2  0
 24 25  1  0
 25 26  1  0
 25 27  2  0
 27 28  1  0
 28 29  2  0
 12  7  1  0
 18 13  1  0
 29 19  1  0
 28 22  1  0
  3 30  1  0
  4 31  1  0
  4 32  1  0
  8 33  1  0
  8 34  1  0
  9 35  1  0
  9 36  1  0
 10 37  1  0
 10 38  1  0
 11 39  1  0
 11 40  1  0
 12 41  1  6
 13 42  1  0
 14 43  1  0
 14 44  1  0
 15 45  1  0
 15 46  1  0
 16 47  1  0
 16 48  1  0
 17 49  1  0
 17 50  1  0
 18 51  1  0
 18 52  1  0
 20 53  1  0
 21 54  1  0
 23 55  1  0
 24 56  1  0
 27 57  1  0
M  END
>  <smiles>  (66) 
O=C(NCC(=O)N1CCCCC1C1CCCCC1)c1ccc2ccc(Cl)cc2n1

>  <score_type>  (66) 
oracle

>  <origin>  (66) 
autodockgpu

>  <m_score__min__energy>  (66) 
-8.8499999999999996

>  <m_primary>  (66) 
energy

>  <rmsd>  (66) 
7.944378825699496

>  <m_score__min__rmsd>  (66) 
7.944378825699496

>  <meeko>  (66) 
{"free_energy": -7.11, "intermolecular_energy": -8.6, "internal_energy": -2.56, "cluster_size": 11, "cluster_id": 6, "rank_in_cluster": 10}

>  <energy>  (66) 
-8.51

>  <cluster_rmsd>  (66) 
1.41

>  <cluster>  (66) 
1

$$$$

     RDKit          3D

 57 60  0  0  0  0  0  0  0  0999 V2000
  141.6490   72.5710  221.4030 O   0  0  0  0  0  0  0  0  0  0  0  0
  140.6680   72.6310  222.2060 C   0  0  0  0  0  0  0  0  0  0  0  0
  139.9440   73.8470  222.3440 N   0  0  0  0  0  0  0  0  0  0  0  0
  140.2930   75.0540  221.5870 C   0  0  0  0  0  0  0  0  0  0  0  0
  139.8220   76.2610  222.2150 C   0  0  0  0  0  0  0  0  0  0  0  0
  138.7450   76.1950  222.9060 O   0  0  0  0  0  0  0  0  0  0  0  0
  140.4030   77.5730  222.1730 N   0  0  0  0  0  0  0  0  0  0  0  0
  141.2550   77.7840  221.0060 C   0  0  0  0  0  0  0  0  0  0  0  0
  141.7900   79.1660  220.9990 C   0  0  0  0  0  0  0  0  0  0  0  0
  142.3020   79.5810  222.3260 C   0  0  0  0  0  0  0  0  0  0  0  0
  141.5530   79.1380  223.5300 C   0  0  0  0  0  0  0  0  0  0  0  0
  140.1870   78.5620  223.2010 C   0  0  1  0  0  0  0  0  0  0  0  0
  139.1470   79.5710  222.9830 C   0  0  0  0  0  0  0  0  0  0  0  0
  139.1800   80.7670  223.9000 C   0  0  0  0  0  0  0  0  0  0  0  0
  137.8930   81.0390  224.5900 C   0  0  0  0  0  0  0  0  0  0  0  0
  136.7970   81.2550  223.6100 C   0  0  0  0  0  0  0  0  0  0  0  0
  136.7230   80.0880  222.6900 C   0  0  0  0  0  0  0  0  0  0  0  0
  137.7390   79.0110  222.9960 C   0  0  0  0  0  0  0  0  0  0  0  0
  140.2370   71.4920  223.0100 C   0  0  0  0  0  0  0  0  0  0  0  0
  139.2820   70.6510  222.4300 C   0  0  0  0  0  0  0  0  0  0  0  0
  138.8450   69.5670  223.1600 C   0  0  0  0  0  0  0  0  0  0  0  0
  139.3280   69.3040  224.4290 C   0  0  0  0  0  0  0  0  0  0  0  0
  138.8990   68.2140  225.1740 C   0  0  0  0  0  0  0  0  0  0  0  0
  139.4280   68.0200  226.4170 C   0  0  0  0  0  0  0  0  0  0  0  0
  140.3780   68.8850  226.9510 C   0  0  0  0  0  0  0  0  0  0  0  0
  141.0380   68.5930  228.5620 Cl  0  0  0  0  0  0  0  0  0  0  0  0
  140.7920   69.9700  226.1900 C   0  0  0  0  0  0  0  0  0  0  0  0
  140.2660   70.1830  224.9240 C   0  0  0  0  0  0  0  0  0  0  0  0
  140.7140   71.2510  224.2400 N   0  0  0  0  0  0  0  0  0  0  0  0
  139.1240   73.8790  223.0170 H   0  0  0  0  0  0  0  0  0  0  0  0
  141.3880   75.1085  221.4973 H   0  0  0  0  0  0  0  0  0  0  0  0
  139.8066   74.9806  220.6031 H   0  0  0  0  0  0  0  0  0  0  0  0
  142.0925   77.0714  221.0353 H   0  0  0  0  0  0  0  0  0  0  0  0
  140.6575   77.6285  220.0956 H   0  0  0  0  0  0  0  0  0  0  0  0
  142.6117   79.2229  220.2699 H   0  0  0  0  0  0  0  0  0  0  0  0
  140.9655   79.8431  220.7313 H   0  0  0  0  0  0  0  0  0  0  0  0
  143.3274   79.1935  222.4172 H   0  0  0  0  0  0  0  0  0  0  0  0
  142.2049   80.6767  222.3286 H   0  0  0  0  0  0  0  0  0  0  0  0
  142.1436   78.3666  224.0459 H   0  0  0  0  0  0  0  0  0  0  0  0
  141.3927   80.0240  224.1620 H   0  0  0  0  0  0  0  0  0  0  0  0
  139.7331   78.0508  224.0628 H   0  0  0  0  0  0  0  0  0  0  0  0
  139.4076   79.9202  221.9730 H   0  0  0  0  0  0  0  0  0  0  0  0
  139.9519   80.5947  224.6645 H   0  0  0  0  0  0  0  0  0  0  0  0
  139.3931   81.6433  223.2702 H   0  0  0  0  0  0  0  0  0  0  0  0
  137.6395   80.1806  225.2294 H   0  0  0  0  0  0  0  0  0  0  0  0
  138.0062   81.9508  225.1948 H   0  0  0  0  0  0  0  0  0  0  0  0
  135.8418   81.3625  224.1448 H   0  0  0  0  0  0  0  0  0  0  0  0
  136.9953   82.1689  223.0308 H   0  0  0  0  0  0  0  0  0  0  0  0
  135.7173   79.6489  222.7654 H   0  0  0  0  0  0  0  0  0  0  0  0
  136.9421   80.4602  221.6783 H   0  0  0  0  0  0  0  0  0  0  0  0
  137.5286   78.5905  223.9904 H   0  0  0  0  0  0  0  0  0  0  0  0
  137.6656   78.2313  222.2236 H   0  0  0  0  0  0  0  0  0  0  0  0
  138.8912   70.8489  221.4210 H   0  0  0  0  0  0  0  0  0  0  0  0
  138.0930   68.8939  222.7224 H   0  0  0  0  0  0  0  0  0  0  0  0
  138.1471   67.5200  224.7702 H   0  0  0  0  0  0  0  0  0  0  0  0
  139.0946   67.1572  227.0123 H   0  0  0  0  0  0  0  0  0  0  0  0
  141.5424   70.6657  226.5937 H   0  0  0  0  0  0  0  0  0  0  0  0
  1  2  2  0
  2  3  1  0
  3  4  1  0
  4  5  1  0
  5  6  2  0
  5  7  1  0
  7  8  1  0
  8  9  1  0
  9 10  1  0
 10 11  1  0
 11 12  1  0
 12 13  1  0
 13 14  1  0
 14 15  1  0
 15 16  1  0
 16 17  1  0
 17 18  1  0
  2 19  1  0
 19 20  2  0
 20 21  1  0
 21 22  2  0
 22 23  1  0
 23 24  2  0
 24 25  1  0
 25 26  1  0
 25 27  2  0
 27 28  1  0
 28 29  2  0
 12  7  1  0
 18 13  1  0
 29 19  1  0
 28 22  1  0
  3 30  1  0
  4 31  1  0
  4 32  1  0
  8 33  1  0
  8 34  1  0
  9 35  1  0
  9 36  1  0
 10 37  1  0
 10 38  1  0
 11 39  1  0
 11 40  1  0
 12 41  1  1
 13 42  1  0
 14 43  1  0
 14 44  1  0
 15 45  1  0
 15 46  1  0
 16 47  1  0
 16 48  1  0
 17 49  1  0
 17 50  1  0
 18 51  1  0
 18 52  1  0
 20 53  1  0
 21 54  1  0
 23 55  1  0
 24 56  1  0
 27 57  1  0
M  END
>  <smiles>  (67) 
O=C(NCC(=O)N1CCCCC1C1CCCCC1)c1ccc2ccc(Cl)cc2n1

>  <score_type>  (67) 
oracle

>  <origin>  (67) 
autodockgpu

>  <m_score__min__energy>  (67) 
-8.8499999999999996

>  <m_primary>  (67) 
energy

>  <rmsd>  (67) 
3.448592893163604

>  <m_score__min__rmsd>  (67) 
3.448592893163604

>  <meeko>  (67) 
{"free_energy": -8.7, "intermolecular_energy": -10.19, "internal_energy": -1.69, "cluster_size": 28, "cluster_id": 1, "rank_in_cluster": 4}

>  <energy>  (67) 
-8.51

>  <cluster_rmsd>  (67) 
1.41

>  <cluster>  (67) 
1

$$$$

     RDKit          3D

 57 60  0  0  0  0  0  0  0  0999 V2000
  141.5660   72.9510  221.6620 O   0  0  0  0  0  0  0  0  0  0  0  0
  140.4990   72.8220  222.3380 C   0  0  0  0  0  0  0  0  0  0  0  0
  139.5600   73.8880  222.3820 N   0  0  0  0  0  0  0  0  0  0  0  0
  139.7780   75.1510  221.6690 C   0  0  0  0  0  0  0  0  0  0  0  0
  138.7340   76.1140  221.9090 C   0  0  0  0  0  0  0  0  0  0  0  0
  137.5620   75.6700  222.1810 O   0  0  0  0  0  0  0  0  0  0  0  0
  138.8180   77.5470  221.8820 N   0  0  0  0  0  0  0  0  0  0  0  0
  137.8360   78.1940  222.7480 C   0  0  0  0  0  0  0  0  0  0  0  0
  138.0000   79.6660  222.7080 C   0  0  0  0  0  0  0  0  0  0  0  0
  138.1650   80.1790  221.3270 C   0  0  0  0  0  0  0  0  0  0  0  0
  138.9690   79.3690  220.3760 C   0  0  0  0  0  0  0  0  0  0  0  0
  139.7590   78.2640  221.0560 C   0  0  1  0  0  0  0  0  0  0  0  0
  141.0140   78.7110  221.6640 C   0  0  0  0  0  0  0  0  0  0  0  0
  141.2470   78.2910  223.0920 C   0  0  0  0  0  0  0  0  0  0  0  0
  141.5680   79.4140  224.0100 C   0  0  0  0  0  0  0  0  0  0  0  0
  142.7780   80.1450  223.5550 C   0  0  0  0  0  0  0  0  0  0  0  0
  142.5850   80.5880  222.1480 C   0  0  0  0  0  0  0  0  0  0  0  0
  141.2410   80.2070  221.5730 C   0  0  0  0  0  0  0  0  0  0  0  0
  140.1840   71.6110  223.0880 C   0  0  0  0  0  0  0  0  0  0  0  0
  139.3820   70.6700  222.4330 C   0  0  0  0  0  0  0  0  0  0  0  0
  139.0570   69.5140  223.1090 C   0  0  0  0  0  0  0  0  0  0  0  0
  139.5030   69.2760  224.3960 C   0  0  0  0  0  0  0  0  0  0  0  0
  139.1860   68.1150  225.0880 C   0  0  0  0  0  0  0  0  0  0  0  0
  139.6690   67.9520  226.3540 C   0  0  0  0  0  0  0  0  0  0  0  0
  140.4650   68.9170  226.9620 C   0  0  0  0  0  0  0  0  0  0  0  0
  141.0720   68.6630  228.6000 Cl  0  0  0  0  0  0  0  0  0  0  0  0
  140.7700   70.0720  226.2540 C   0  0  0  0  0  0  0  0  0  0  0  0
  140.2870   70.2550  224.9650 C   0  0  0  0  0  0  0  0  0  0  0  0
  140.6240   71.3950  224.3360 N   0  0  0  0  0  0  0  0  0  0  0  0
  138.6720   73.7630  222.9490 H   0  0  0  0  0  0  0  0  0  0  0  0
  140.7353   75.5805  221.9993 H   0  0  0  0  0  0  0  0  0  0  0  0
  139.7816   74.9274  220.5920 H   0  0  0  0  0  0  0  0  0  0  0  0
  136.8237   77.9330  222.4058 H   0  0  0  0  0  0  0  0  0  0  0  0
  137.9882   77.8467  223.7806 H   0  0  0  0  0  0  0  0  0  0  0  0
  137.1096   80.1329  223.1542 H   0  0  0  0  0  0  0  0  0  0  0  0
  138.9115   79.9173  223.2702 H   0  0  0  0  0  0  0  0  0  0  0  0
  137.1590   80.2877  220.8956 H   0  0  0  0  0  0  0  0  0  0  0  0
  138.7356   81.1119  221.4456 H   0  0  0  0  0  0  0  0  0  0  0  0
  138.2884   78.9125  219.6423 H   0  0  0  0  0  0  0  0  0  0  0  0
  139.6937   80.0455  219.8994 H   0  0  0  0  0  0  0  0  0  0  0  0
  140.1801   77.5483  220.3346 H   0  0  0  0  0  0  0  0  0  0  0  0
  141.7452   78.1779  221.0386 H   0  0  0  0  0  0  0  0  0  0  0  0
  140.3366   77.7944  223.4589 H   0  0  0  0  0  0  0  0  0  0  0  0
  142.1222   77.6247  223.0878 H   0  0  0  0  0  0  0  0  0  0  0  0
  140.7167   80.1101  224.0381 H   0  0  0  0  0  0  0  0  0  0  0  0
  141.7632   79.0028  225.0114 H   0  0  0  0  0  0  0  0  0  0  0  0
  142.9402   81.0229  224.1976 H   0  0  0  0  0  0  0  0  0  0  0  0
  143.6535   79.4819  223.6156 H   0  0  0  0  0  0  0  0  0  0  0  0
  142.6808   81.6832  222.1120 H   0  0  0  0  0  0  0  0  0  0  0  0
  143.3505   80.0809  221.5423 H   0  0  0  0  0  0  0  0  0  0  0  0
  140.4498   80.7254  222.1344 H   0  0  0  0  0  0  0  0  0  0  0  0
  141.2180   80.5005  220.5131 H   0  0  0  0  0  0  0  0  0  0  0  0
  139.0217   70.8477  221.4090 H   0  0  0  0  0  0  0  0  0  0  0  0
  138.4269   68.7616  222.6122 H   0  0  0  0  0  0  0  0  0  0  0  0
  138.5571   67.3407  224.6244 H   0  0  0  0  0  0  0  0  0  0  0  0
  139.4225   67.0340  226.9077 H   0  0  0  0  0  0  0  0  0  0  0  0
  141.3983   70.8470  226.7172 H   0  0  0  0  0  0  0  0  0  0  0  0
  1  2  2  0
  2  3  1  0
  3  4  1  0
  4  5  1  0
  5  6  2  0
  5  7  1  0
  7  8  1  0
  8  9  1  0
  9 10  1  0
 10 11  1  0
 11 12  1  0
 12 13  1  0
 13 14  1  0
 14 15  1  0
 15 16  1  0
 16 17  1  0
 17 18  1  0
  2 19  1  0
 19 20  2  0
 20 21  1  0
 21 22  2  0
 22 23  1  0
 23 24  2  0
 24 25  1  0
 25 26  1  0
 25 27  2  0
 27 28  1  0
 28 29  2  0
 12  7  1  0
 18 13  1  0
 29 19  1  0
 28 22  1  0
  3 30  1  0
  4 31  1  0
  4 32  1  0
  8 33  1  0
  8 34  1  0
  9 35  1  0
  9 36  1  0
 10 37  1  0
 10 38  1  0
 11 39  1  0
 11 40  1  0
 12 41  1  6
 13 42  1  0
 14 43  1  0
 14 44  1  0
 15 45  1  0
 15 46  1  0
 16 47  1  0
 16 48  1  0
 17 49  1  0
 17 50  1  0
 18 51  1  0
 18 52  1  0
 20 53  1  0
 21 54  1  0
 23 55  1  0
 24 56  1  0
 27 57  1  0
M  END
>  <smiles>  (68) 
O=C(NCC(=O)N1CCCCC1C1CCCCC1)c1ccc2ccc(Cl)cc2n1

>  <score_type>  (68) 
oracle

>  <origin>  (68) 
autodockgpu

>  <m_score__min__energy>  (68) 
-8.8499999999999996

>  <m_primary>  (68) 
energy

>  <rmsd>  (68) 
3.4251202979903237

>  <m_score__min__rmsd>  (68) 
3.4251202979903237

>  <meeko>  (68) 
{"free_energy": -8.56, "intermolecular_energy": -10.05, "internal_energy": -1.77, "cluster_size": 28, "cluster_id": 1, "rank_in_cluster": 10}

>  <energy>  (68) 
-8.5

>  <cluster_rmsd>  (68) 
1.11

>  <cluster>  (68) 
1

$$$$

     RDKit          3D

 57 60  0  0  0  0  0  0  0  0999 V2000
  135.6610   71.1650  223.0480 O   0  0  0  0  0  0  0  0  0  0  0  0
  135.6740   72.3300  223.5540 C   0  0  0  0  0  0  0  0  0  0  0  0
  136.6200   73.2870  223.0950 N   0  0  0  0  0  0  0  0  0  0  0  0
  137.5980   72.9770  222.0470 C   0  0  0  0  0  0  0  0  0  0  0  0
  138.7260   72.2310  222.5410 C   0  0  0  0  0  0  0  0  0  0  0  0
  139.8440   72.8470  222.6640 O   0  0  0  0  0  0  0  0  0  0  0  0
  138.7830   70.8490  222.9240 N   0  0  0  0  0  0  0  0  0  0  0  0
  139.1370   69.9630  221.8180 C   0  0  0  0  0  0  0  0  0  0  0  0
  139.2190   68.5590  222.2840 C   0  0  0  0  0  0  0  0  0  0  0  0
  138.0750   68.1820  223.1480 C   0  0  0  0  0  0  0  0  0  0  0  0
  137.5600   69.1970  224.1020 C   0  0  0  0  0  0  0  0  0  0  0  0
  138.4880   70.3890  224.2590 C   0  0  1  0  0  0  0  0  0  0  0  0
  139.6060   70.1620  225.1770 C   0  0  0  0  0  0  0  0  0  0  0  0
  139.3730   69.1540  226.2720 C   0  0  0  0  0  0  0  0  0  0  0  0
  139.6620   69.6620  227.6380 C   0  0  0  0  0  0  0  0  0  0  0  0
  141.0700   70.1250  227.7480 C   0  0  0  0  0  0  0  0  0  0  0  0
  141.3400   71.1340  226.6880 C   0  0  0  0  0  0  0  0  0  0  0  0
  140.1420   71.4290  225.8140 C   0  0  0  0  0  0  0  0  0  0  0  0
  134.7490   72.7420  224.6040 C   0  0  0  0  0  0  0  0  0  0  0  0
  134.0090   71.7220  225.2120 C   0  0  0  0  0  0  0  0  0  0  0  0
  133.1190   72.0720  226.2040 C   0  0  0  0  0  0  0  0  0  0  0  0
  132.9530   73.3870  226.6010 C   0  0  0  0  0  0  0  0  0  0  0  0
  132.0630   73.7530  227.6020 C   0  0  0  0  0  0  0  0  0  0  0  0
  131.9610   75.0700  227.9390 C   0  0  0  0  0  0  0  0  0  0  0  0
  132.7210   76.0480  227.3060 C   0  0  0  0  0  0  0  0  0  0  0  0
  132.5590   77.7420  227.7780 Cl  0  0  0  0  0  0  0  0  0  0  0  0
  133.6040   75.6620  226.3070 C   0  0  0  0  0  0  0  0  0  0  0  0
  133.7220   74.3260  225.9500 C   0  0  0  0  0  0  0  0  0  0  0  0
  134.5990   74.0210  224.9770 N   0  0  0  0  0  0  0  0  0  0  0  0
  136.6160   74.2560  223.5260 H   0  0  0  0  0  0  0  0  0  0  0  0
  137.0999   72.3848  221.2652 H   0  0  0  0  0  0  0  0  0  0  0  0
  137.9779   73.9320  221.6549 H   0  0  0  0  0  0  0  0  0  0  0  0
  138.3702   70.0397  221.0330 H   0  0  0  0  0  0  0  0  0  0  0  0
  140.1176   70.2640  221.4208 H   0  0  0  0  0  0  0  0  0  0  0  0
  139.2324   67.8959  221.4065 H   0  0  0  0  0  0  0  0  0  0  0  0
  140.1375   68.4571  222.8807 H   0  0  0  0  0  0  0  0  0  0  0  0
  137.2423   67.9030  222.4856 H   0  0  0  0  0  0  0  0  0  0  0  0
  138.4659   67.3765  223.7870 H   0  0  0  0  0  0  0  0  0  0  0  0
  136.5859   69.5566  223.7391 H   0  0  0  0  0  0  0  0  0  0  0  0
  137.4782   68.7120  225.0859 H   0  0  0  0  0  0  0  0  0  0  0  0
  138.0099   71.2207  224.7973 H   0  0  0  0  0  0  0  0  0  0  0  0
  140.3522   69.7369  224.4896 H   0  0  0  0  0  0  0  0  0  0  0  0
  138.3187   68.8424  226.2356 H   0  0  0  0  0  0  0  0  0  0  0  0
  140.0694   68.3222  226.0898 H   0  0  0  0  0  0  0  0  0  0  0  0
  138.9885   70.5033  227.8587 H   0  0  0  0  0  0  0  0  0  0  0  0
  139.5053   68.8438  228.3563 H   0  0  0  0  0  0  0  0  0  0  0  0
  141.2314   70.5788  228.7370 H   0  0  0  0  0  0  0  0  0  0  0  0
  141.7501   69.2693  227.6242 H   0  0  0  0  0  0  0  0  0  0  0  0
  141.6567   72.0700  227.1714 H   0  0  0  0  0  0  0  0  0  0  0  0
  142.1202   70.7154  226.0353 H   0  0  0  0  0  0  0  0  0  0  0  0
  139.3517   71.8839  226.4292 H   0  0  0  0  0  0  0  0  0  0  0  0
  140.4538   72.1172  225.0145 H   0  0  0  0  0  0  0  0  0  0  0  0
  134.1339   70.6725  224.9073 H   0  0  0  0  0  0  0  0  0  0  0  0
  132.5252   71.2857  226.6929 H   0  0  0  0  0  0  0  0  0  0  0  0
  131.4519   72.9947  228.1134 H   0  0  0  0  0  0  0  0  0  0  0  0
  131.2593   75.3670  228.7323 H   0  0  0  0  0  0  0  0  0  0  0  0
  134.2145   76.4202  225.7947 H   0  0  0  0  0  0  0  0  0  0  0  0
  1  2  2  0
  2  3  1  0
  3  4  1  0
  4  5  1  0
  5  6  2  0
  5  7  1  0
  7  8  1  0
  8  9  1  0
  9 10  1  0
 10 11  1  0
 11 12  1  0
 12 13  1  0
 13 14  1  0
 14 15  1  0
 15 16  1  0
 16 17  1  0
 17 18  1  0
  2 19  1  0
 19 20  2  0
 20 21  1  0
 21 22  2  0
 22 23  1  0
 23 24  2  0
 24 25  1  0
 25 26  1  0
 25 27  2  0
 27 28  1  0
 28 29  2  0
 12  7  1  0
 18 13  1  0
 29 19  1  0
 28 22  1  0
  3 30  1  0
  4 31  1  0
  4 32  1  0
  8 33  1  0
  8 34  1  0
  9 35  1  0
  9 36  1  0
 10 37  1  0
 10 38  1  0
 11 39  1  0
 11 40  1  0
 12 41  1  1
 13 42  1  0
 14 43  1  0
 14 44  1  0
 15 45  1  0
 15 46  1  0
 16 47  1  0
 16 48  1  0
 17 49  1  0
 17 50  1  0
 18 51  1  0
 18 52  1  0
 20 53  1  0
 21 54  1  0
 23 55  1  0
 24 56  1  0
 27 57  1  0
M  END
>  <smiles>  (69) 
O=C(NCC(=O)N1CCCCC1C1CCCCC1)c1ccc2ccc(Cl)cc2n1

>  <score_type>  (69) 
oracle

>  <origin>  (69) 
autodockgpu

>  <m_score__min__energy>  (69) 
-8.8499999999999996

>  <m_primary>  (69) 
energy

>  <rmsd>  (69) 
7.248620044043153

>  <m_score__min__rmsd>  (69) 
7.248620044043153

>  <meeko>  (69) 
{"free_energy": -7.67, "intermolecular_energy": -9.16, "internal_energy": -2.14, "cluster_size": 1, "cluster_id": 4, "rank_in_cluster": 1}

>  <energy>  (69) 
-8.47

>  <cluster_rmsd>  (69) 
1.17

>  <cluster>  (69) 
1

$$$$

     RDKit          3D

 57 60  0  0  0  0  0  0  0  0999 V2000
  140.2220   77.7720  217.8050 O   0  0  0  0  0  0  0  0  0  0  0  0
  141.2660   77.6290  218.5140 C   0  0  0  0  0  0  0  0  0  0  0  0
  141.9650   78.7760  218.9780 N   0  0  0  0  0  0  0  0  0  0  0  0
  141.5250   80.1400  218.6630 C   0  0  0  0  0  0  0  0  0  0  0  0
  141.6480   81.0370  219.7820 C   0  0  0  0  0  0  0  0  0  0  0  0
  141.7280   82.2930  219.5370 O   0  0  0  0  0  0  0  0  0  0  0  0
  141.6990   80.7170  221.1810 N   0  0  0  0  0  0  0  0  0  0  0  0
  141.5630   81.8890  222.0410 C   0  0  0  0  0  0  0  0  0  0  0  0
  141.5820   81.4900  223.4680 C   0  0  0  0  0  0  0  0  0  0  0  0
  142.6610   80.5190  223.7690 C   0  0  0  0  0  0  0  0  0  0  0  0
  142.9590   79.4740  222.7560 C   0  0  0  0  0  0  0  0  0  0  0  0
  141.8970   79.3760  221.6750 C   0  0  1  0  0  0  0  0  0  0  0  0
  140.7180   78.5980  222.0610 C   0  0  0  0  0  0  0  0  0  0  0  0
  140.9670   77.1660  222.4580 C   0  0  0  0  0  0  0  0  0  0  0  0
  140.1380   76.1780  221.7210 C   0  0  0  0  0  0  0  0  0  0  0  0
  138.6900   76.4500  221.9110 C   0  0  0  0  0  0  0  0  0  0  0  0
  138.3980   77.8550  221.5180 C   0  0  0  0  0  0  0  0  0  0  0  0
  139.6110   78.6100  221.0250 C   0  0  0  0  0  0  0  0  0  0  0  0
  141.7930   76.3190  218.8830 C   0  0  0  0  0  0  0  0  0  0  0  0
  141.0010   75.2170  218.5460 C   0  0  0  0  0  0  0  0  0  0  0  0
  141.4620   73.9620  218.8830 C   0  0  0  0  0  0  0  0  0  0  0  0
  142.6690   73.7830  219.5330 C   0  0  0  0  0  0  0  0  0  0  0  0
  143.1470   72.5240  219.8750 C   0  0  0  0  0  0  0  0  0  0  0  0
  144.3500   72.4300  220.5100 C   0  0  0  0  0  0  0  0  0  0  0  0
  145.1030   73.5580  220.8230 C   0  0  0  0  0  0  0  0  0  0  0  0
  146.6570   73.3890  221.6420 Cl  0  0  0  0  0  0  0  0  0  0  0  0
  144.6070   74.8070  220.4730 C   0  0  0  0  0  0  0  0  0  0  0  0
  143.3850   74.9230  219.8260 C   0  0  0  0  0  0  0  0  0  0  0  0
  142.9660   76.1620  219.5130 N   0  0  0  0  0  0  0  0  0  0  0  0
  142.8330   78.6390  219.5720 H   0  0  0  0  0  0  0  0  0  0  0  0
  142.1381   80.5248  217.8347 H   0  0  0  0  0  0  0  0  0  0  0  0
  140.4598   80.0908  218.3928 H   0  0  0  0  0  0  0  0  0  0  0  0
  142.3972   82.5793  221.8469 H   0  0  0  0  0  0  0  0  0  0  0  0
  140.6044   82.3820  221.8219 H   0  0  0  0  0  0  0  0  0  0  0  0
  141.7335   82.3886  224.0841 H   0  0  0  0  0  0  0  0  0  0  0  0
  140.6212   81.0041  223.6932 H   0  0  0  0  0  0  0  0  0  0  0  0
  143.5849   81.0947  223.9271 H   0  0  0  0  0  0  0  0  0  0  0  0
  142.2929   79.9597  224.6417 H   0  0  0  0  0  0  0  0  0  0  0  0
  143.9223   79.7111  222.2807 H   0  0  0  0  0  0  0  0  0  0  0  0
  142.9865   78.5067  223.2791 H   0  0  0  0  0  0  0  0  0  0  0  0
  142.2226   78.7560  220.8267 H   0  0  0  0  0  0  0  0  0  0  0  0
  140.4007   79.1410  222.9635 H   0  0  0  0  0  0  0  0  0  0  0  0
  142.0262   76.9353  222.2715 H   0  0  0  0  0  0  0  0  0  0  0  0
  140.6932   77.0797  223.5199 H   0  0  0  0  0  0  0  0  0  0  0  0
  140.3772   76.2363  220.6489 H   0  0  0  0  0  0  0  0  0  0  0  0
  140.3599   75.1739  222.1116 H   0  0  0  0  0  0  0  0  0  0  0  0
  138.1018   75.7634  221.2844 H   0  0  0  0  0  0  0  0  0  0  0  0
  138.4222   76.2995  222.9672 H   0  0  0  0  0  0  0  0  0  0  0  0
  137.6462   77.8424  220.7151 H   0  0  0  0  0  0  0  0  0  0  0  0
  138.0392   78.3741  222.4190 H   0  0  0  0  0  0  0  0  0  0  0  0
  139.9776   78.1378  220.1016 H   0  0  0  0  0  0  0  0  0  0  0  0
  139.3203   79.6538  220.8355 H   0  0  0  0  0  0  0  0  0  0  0  0
  140.0395   75.3473  218.0278 H   0  0  0  0  0  0  0  0  0  0  0  0
  140.8543   73.0812  218.6283 H   0  0  0  0  0  0  0  0  0  0  0  0
  142.5661   71.6205  219.6380 H   0  0  0  0  0  0  0  0  0  0  0  0
  144.7356   71.4364  220.7821 H   0  0  0  0  0  0  0  0  0  0  0  0
  145.1871   75.7110  220.7104 H   0  0  0  0  0  0  0  0  0  0  0  0
  1  2  2  0
  2  3  1  0
  3  4  1  0
  4  5  1  0
  5  6  2  0
  5  7  1  0
  7  8  1  0
  8  9  1  0
  9 10  1  0
 10 11  1  0
 11 12  1  0
 12 13  1  0
 13 14  1  0
 14 15  1  0
 15 16  1  0
 16 17  1  0
 17 18  1  0
  2 19  1  0
 19 20  2  0
 20 21  1  0
 21 22  2  0
 22 23  1  0
 23 24  2  0
 24 25  1  0
 25 26  1  0
 25 27  2  0
 27 28  1  0
 28 29  2  0
 12  7  1  0
 18 13  1  0
 29 19  1  0
 28 22  1  0
  3 30  1  0
  4 31  1  0
  4 32  1  0
  8 33  1  0
  8 34  1  0
  9 35  1  0
  9 36  1  0
 10 37  1  0
 10 38  1  0
 11 39  1  0
 11 40  1  0
 12 41  1  6
 13 42  1  0
 14 43  1  0
 14 44  1  0
 15 45  1  0
 15 46  1  0
 16 47  1  0
 16 48  1  0
 17 49  1  0
 17 50  1  0
 18 51  1  0
 18 52  1  0
 20 53  1  0
 21 54  1  0
 23 55  1  0
 24 56  1  0
 27 57  1  0
M  END
>  <smiles>  (70) 
O=C(NCC(=O)N1CCCCC1C1CCCCC1)c1ccc2ccc(Cl)cc2n1

>  <score_type>  (70) 
oracle

>  <origin>  (70) 
autodockgpu

>  <m_score__min__energy>  (70) 
-8.8499999999999996

>  <m_primary>  (70) 
energy

>  <rmsd>  (70) 
7.597655660146173

>  <m_score__min__rmsd>  (70) 
7.597655660146173

>  <meeko>  (70) 
{"free_energy": -7.18, "intermolecular_energy": -8.67, "internal_energy": -2.8, "cluster_size": 11, "cluster_id": 6, "rank_in_cluster": 8}

>  <energy>  (70) 
-8.47

>  <cluster_rmsd>  (70) 
1.34

>  <cluster>  (70) 
1

$$$$

     RDKit          3D

 57 60  0  0  0  0  0  0  0  0999 V2000
  141.1450   73.6380  220.7740 O   0  0  0  0  0  0  0  0  0  0  0  0
  140.3900   73.7030  221.7930 C   0  0  0  0  0  0  0  0  0  0  0  0
  139.9160   74.9670  222.2390 N   0  0  0  0  0  0  0  0  0  0  0  0
  140.2720   76.2180  221.5620 C   0  0  0  0  0  0  0  0  0  0  0  0
  139.9570   77.3840  222.3450 C   0  0  0  0  0  0  0  0  0  0  0  0
  138.8700   77.3730  223.0250 O   0  0  0  0  0  0  0  0  0  0  0  0
  140.7080   78.6010  222.4750 N   0  0  0  0  0  0  0  0  0  0  0  0
  141.5750   78.6150  223.6500 C   0  0  0  0  0  0  0  0  0  0  0  0
  142.3510   79.8760  223.7060 C   0  0  0  0  0  0  0  0  0  0  0  0
  141.5130   81.0680  223.4380 C   0  0  0  0  0  0  0  0  0  0  0  0
  140.4550   80.9560  222.4020 C   0  0  0  0  0  0  0  0  0  0  0  0
  140.5860   79.7040  221.5520 C   0  0  1  0  0  0  0  0  0  0  0  0
  141.5670   79.8130  220.4700 C   0  0  0  0  0  0  0  0  0  0  0  0
  141.7240   81.1780  219.8510 C   0  0  0  0  0  0  0  0  0  0  0  0
  141.5810   81.1930  218.3720 C   0  0  0  0  0  0  0  0  0  0  0  0
  142.5750   80.2930  217.7310 C   0  0  0  0  0  0  0  0  0  0  0  0
  142.4460   78.9280  218.3080 C   0  0  0  0  0  0  0  0  0  0  0  0
  141.3580   78.8120  219.3510 C   0  0  0  0  0  0  0  0  0  0  0  0
  139.9770   72.5210  222.5430 C   0  0  0  0  0  0  0  0  0  0  0  0
  139.0820   71.6610  221.8980 C   0  0  0  0  0  0  0  0  0  0  0  0
  138.6630   70.5370  222.5760 C   0  0  0  0  0  0  0  0  0  0  0  0
  139.1060   70.2530  223.8550 C   0  0  0  0  0  0  0  0  0  0  0  0
  138.6950   69.1220  224.5480 C   0  0  0  0  0  0  0  0  0  0  0  0
  139.1810   68.9100  225.8040 C   0  0  0  0  0  0  0  0  0  0  0  0
  140.0710   69.7950  226.4030 C   0  0  0  0  0  0  0  0  0  0  0  0
  140.6780   69.4790  228.0310 Cl  0  0  0  0  0  0  0  0  0  0  0  0
  140.4690   70.9200  225.6940 C   0  0  0  0  0  0  0  0  0  0  0  0
  139.9850   71.1530  224.4140 C   0  0  0  0  0  0  0  0  0  0  0  0
  140.4150   72.2600  223.7830 N   0  0  0  0  0  0  0  0  0  0  0  0
  139.2830   75.0030  223.0900 H   0  0  0  0  0  0  0  0  0  0  0  0
  141.3530   76.2125  221.3586 H   0  0  0  0  0  0  0  0  0  0  0  0
  139.6831   76.2724  220.6345 H   0  0  0  0  0  0  0  0  0  0  0  0
  140.9579   78.5289  224.5565 H   0  0  0  0  0  0  0  0  0  0  0  0
  142.2747   77.7686  223.5865 H   0  0  0  0  0  0  0  0  0  0  0  0
  142.7940   79.9738  224.7081 H   0  0  0  0  0  0  0  0  0  0  0  0
  143.1249   79.8282  222.9257 H   0  0  0  0  0  0  0  0  0  0  0  0
  141.0189   81.3399  224.3824 H   0  0  0  0  0  0  0  0  0  0  0  0
  142.2149   81.8132  223.0355 H   0  0  0  0  0  0  0  0  0  0  0  0
  139.4753   80.9392  222.9020 H   0  0  0  0  0  0  0  0  0  0  0  0
  140.5591   81.8213  221.7309 H   0  0  0  0  0  0  0  0  0  0  0  0
  139.6924   79.5241  220.9363 H   0  0  0  0  0  0  0  0  0  0  0  0
  142.4970   79.5870  221.0122 H   0  0  0  0  0  0  0  0  0  0  0  0
  140.9582   81.8416  220.2789 H   0  0  0  0  0  0  0  0  0  0  0  0
  142.7480   81.5119  220.0743 H   0  0  0  0  0  0  0  0  0  0  0  0
  140.5678   80.8578  218.1053 H   0  0  0  0  0  0  0  0  0  0  0  0
  141.7548   82.2184  218.0138 H   0  0  0  0  0  0  0  0  0  0  0  0
  142.3895   80.2530  216.6475 H   0  0  0  0  0  0  0  0  0  0  0  0
  143.5901   80.6757  217.9132 H   0  0  0  0  0  0  0  0  0  0  0  0
  142.2217   78.2253  217.4920 H   0  0  0  0  0  0  0  0  0  0  0  0
  143.3982   78.6981  218.8084 H   0  0  0  0  0  0  0  0  0  0  0  0
  140.3837   79.0013  218.8767 H   0  0  0  0  0  0  0  0  0  0  0  0
  141.3893   77.7987  219.7778 H   0  0  0  0  0  0  0  0  0  0  0  0
  138.7236   71.8755  220.8804 H   0  0  0  0  0  0  0  0  0  0  0  0
  137.9582   69.8480  222.0876 H   0  0  0  0  0  0  0  0  0  0  0  0
  137.9906   68.4106  224.0922 H   0  0  0  0  0  0  0  0  0  0  0  0
  138.8607   68.0154  226.3582 H   0  0  0  0  0  0  0  0  0  0  0  0
  141.1729   71.6319  226.1497 H   0  0  0  0  0  0  0  0  0  0  0  0
  1  2  2  0
  2  3  1  0
  3  4  1  0
  4  5  1  0
  5  6  2  0
  5  7  1  0
  7  8  1  0
  8  9  1  0
  9 10  1  0
 10 11  1  0
 11 12  1  0
 12 13  1  0
 13 14  1  0
 14 15  1  0
 15 16  1  0
 16 17  1  0
 17 18  1  0
  2 19  1  0
 19 20  2  0
 20 21  1  0
 21 22  2  0
 22 23  1  0
 23 24  2  0
 24 25  1  0
 25 26  1  0
 25 27  2  0
 27 28  1  0
 28 29  2  0
 12  7  1  0
 18 13  1  0
 29 19  1  0
 28 22  1  0
  3 30  1  0
  4 31  1  0
  4 32  1  0
  8 33  1  0
  8 34  1  0
  9 35  1  0
  9 36  1  0
 10 37  1  0
 10 38  1  0
 11 39  1  0
 11 40  1  0
 12 41  1  6
 13 42  1  0
 14 43  1  0
 14 44  1  0
 15 45  1  0
 15 46  1  0
 16 47  1  0
 16 48  1  0
 17 49  1  0
 17 50  1  0
 18 51  1  0
 18 52  1  0
 20 53  1  0
 21 54  1  0
 23 55  1  0
 24 56  1  0
 27 57  1  0
M  END
>  <smiles>  (71) 
O=C(NCC(=O)N1CCCCC1C1CCCCC1)c1ccc2ccc(Cl)cc2n1

>  <score_type>  (71) 
oracle

>  <origin>  (71) 
autodockgpu

>  <m_score__min__energy>  (71) 
-8.8499999999999996

>  <m_primary>  (71) 
energy

>  <rmsd>  (71) 
4.385949573902509

>  <m_score__min__rmsd>  (71) 
4.385949573902509

>  <meeko>  (71) 
{"free_energy": -8.47, "intermolecular_energy": -9.96, "internal_energy": -1.69, "cluster_size": 28, "cluster_id": 1, "rank_in_cluster": 21}

>  <energy>  (71) 
-8.47

>  <cluster_rmsd>  (71) 
1.4

>  <cluster>  (71) 
1

$$$$

     RDKit          3D

 57 60  0  0  0  0  0  0  0  0999 V2000
  141.7550   72.4240  221.7420 O   0  0  0  0  0  0  0  0  0  0  0  0
  140.6680   72.5380  222.3900 C   0  0  0  0  0  0  0  0  0  0  0  0
  139.8860   73.7180  222.2520 N   0  0  0  0  0  0  0  0  0  0  0  0
  140.2920   74.8260  221.3810 C   0  0  0  0  0  0  0  0  0  0  0  0
  139.3100   75.8780  221.3240 C   0  0  0  0  0  0  0  0  0  0  0  0
  138.1510   75.6420  221.8180 O   0  0  0  0  0  0  0  0  0  0  0  0
  139.4460   77.1960  220.7710 N   0  0  0  0  0  0  0  0  0  0  0  0
  138.2120   77.6930  220.1680 C   0  0  0  0  0  0  0  0  0  0  0  0
  138.4040   79.0690  219.6540 C   0  0  0  0  0  0  0  0  0  0  0  0
  139.6670   79.2170  218.8920 C   0  0  0  0  0  0  0  0  0  0  0  0
  140.8650   78.4910  219.3850 C   0  0  0  0  0  0  0  0  0  0  0  0
  140.6870   77.9320  220.7860 C   0  0  1  0  0  0  0  0  0  0  0  0
  140.8980   78.9110  221.8550 C   0  0  0  0  0  0  0  0  0  0  0  0
  141.7530   80.1030  221.5040 C   0  0  0  0  0  0  0  0  0  0  0  0
  142.8860   80.3320  222.4370 C   0  0  0  0  0  0  0  0  0  0  0  0
  142.4010   80.5220  223.8290 C   0  0  0  0  0  0  0  0  0  0  0  0
  141.5590   79.3590  224.2190 C   0  0  0  0  0  0  0  0  0  0  0  0
  141.4370   78.3100  223.1380 C   0  0  0  0  0  0  0  0  0  0  0  0
  140.1730   71.4990  223.2860 C   0  0  0  0  0  0  0  0  0  0  0  0
  138.9950   70.8550  222.8940 C   0  0  0  0  0  0  0  0  0  0  0  0
  138.4910   69.8710  223.7170 C   0  0  0  0  0  0  0  0  0  0  0  0
  139.1210   69.5180  224.8970 C   0  0  0  0  0  0  0  0  0  0  0  0
  138.6260   68.5260  225.7340 C   0  0  0  0  0  0  0  0  0  0  0  0
  139.3080   68.2340  226.8780 C   0  0  0  0  0  0  0  0  0  0  0  0
  140.4780   68.9030  227.2250 C   0  0  0  0  0  0  0  0  0  0  0  0
  141.3300   68.4890  228.7140 Cl  0  0  0  0  0  0  0  0  0  0  0  0
  140.9550   69.8920  226.3750 C   0  0  0  0  0  0  0  0  0  0  0  0
  140.2750   70.2040  225.2060 C   0  0  0  0  0  0  0  0  0  0  0  0
  140.7940   71.1700  224.4280 N   0  0  0  0  0  0  0  0  0  0  0  0
  138.9800   73.7960  222.7970 H   0  0  0  0  0  0  0  0  0  0  0  0
  141.2350   75.2453  221.7617 H   0  0  0  0  0  0  0  0  0  0  0  0
  140.4066   74.4235  220.3637 H   0  0  0  0  0  0  0  0  0  0  0  0
  137.9238   77.0329  219.3367 H   0  0  0  0  0  0  0  0  0  0  0  0
  137.4218   77.7058  220.9332 H   0  0  0  0  0  0  0  0  0  0  0  0
  137.5613   79.3199  218.9931 H   0  0  0  0  0  0  0  0  0  0  0  0
  138.4533   79.7462  220.5194 H   0  0  0  0  0  0  0  0  0  0  0  0
  139.4732   78.8706  217.8661 H   0  0  0  0  0  0  0  0  0  0  0  0
  139.9277   80.2808  218.9940 H   0  0  0  0  0  0  0  0  0  0  0  0
  141.0760   77.6571  218.6993 H   0  0  0  0  0  0  0  0  0  0  0  0
  141.6942   79.2128  219.4223 H   0  0  0  0  0  0  0  0  0  0  0  0
  141.4877   77.2283  221.0574 H   0  0  0  0  0  0  0  0  0  0  0  0
  139.8707   79.2733  222.0082 H   0  0  0  0  0  0  0  0  0  0  0  0
  142.1623   79.9494  220.4946 H   0  0  0  0  0  0  0  0  0  0  0  0
  141.1043   80.9890  221.5689 H   0  0  0  0  0  0  0  0  0  0  0  0
  143.5586   79.4621  222.4062 H   0  0  0  0  0  0  0  0  0  0  0  0
  143.4182   81.2425  222.1244 H   0  0  0  0  0  0  0  0  0  0  0  0
  143.2610   80.5981  224.5106 H   0  0  0  0  0  0  0  0  0  0  0  0
  141.8055   81.4449  223.8891 H   0  0  0  0  0  0  0  0  0  0  0  0
  142.0040   78.8906  225.1093 H   0  0  0  0  0  0  0  0  0  0  0  0
  140.5465   79.7439  224.4103 H   0  0  0  0  0  0  0  0  0  0  0  0
  142.4294   77.8773  222.9432 H   0  0  0  0  0  0  0  0  0  0  0  0
  140.7380   77.5331  223.4814 H   0  0  0  0  0  0  0  0  0  0  0  0
  138.4861   71.1257  221.9571 H   0  0  0  0  0  0  0  0  0  0  0  0
  137.5644   69.3532  223.4283 H   0  0  0  0  0  0  0  0  0  0  0  0
  137.7019   67.9866  225.4788 H   0  0  0  0  0  0  0  0  0  0  0  0
  138.9230   67.4484  227.5447 H   0  0  0  0  0  0  0  0  0  0  0  0
  141.8787   70.4322  226.6300 H   0  0  0  0  0  0  0  0  0  0  0  0
  1  2  2  0
  2  3  1  0
  3  4  1  0
  4  5  1  0
  5  6  2  0
  5  7  1  0
  7  8  1  0
  8  9  1  0
  9 10  1  0
 10 11  1  0
 11 12  1  0
 12 13  1  0
 13 14  1  0
 14 15  1  0
 15 16  1  0
 16 17  1  0
 17 18  1  0
  2 19  1  0
 19 20  2  0
 20 21  1  0
 21 22  2  0
 22 23  1  0
 23 24  2  0
 24 25  1  0
 25 26  1  0
 25 27  2  0
 27 28  1  0
 28 29  2  0
 12  7  1  0
 18 13  1  0
 29 19  1  0
 28 22  1  0
  3 30  1  0
  4 31  1  0
  4 32  1  0
  8 33  1  0
  8 34  1  0
  9 35  1  0
  9 36  1  0
 10 37  1  0
 10 38  1  0
 11 39  1  0
 11 40  1  0
 12 41  1  1
 13 42  1  0
 14 43  1  0
 14 44  1  0
 15 45  1  0
 15 46  1  0
 16 47  1  0
 16 48  1  0
 17 49  1  0
 17 50  1  0
 18 51  1  0
 18 52  1  0
 20 53  1  0
 21 54  1  0
 23 55  1  0
 24 56  1  0
 27 57  1  0
M  END
>  <smiles>  (72) 
O=C(NCC(=O)N1CCCCC1C1CCCCC1)c1ccc2ccc(Cl)cc2n1

>  <score_type>  (72) 
oracle

>  <origin>  (72) 
autodockgpu

>  <m_score__min__energy>  (72) 
-8.8499999999999996

>  <m_primary>  (72) 
energy

>  <rmsd>  (72) 
2.4613812837250406

>  <m_score__min__rmsd>  (72) 
2.4613812837250406

>  <meeko>  (72) 
{"free_energy": -8.17, "intermolecular_energy": -9.66, "internal_energy": -1.81, "cluster_size": 28, "cluster_id": 1, "rank_in_cluster": 27}

>  <energy>  (72) 
-8.43

>  <cluster_rmsd>  (72) 
1.06

>  <cluster>  (72) 
1

$$$$

     RDKit          3D

 57 60  0  0  0  0  0  0  0  0999 V2000
  140.2940   78.1260  218.3120 O   0  0  0  0  0  0  0  0  0  0  0  0
  141.4620   77.8940  218.7540 C   0  0  0  0  0  0  0  0  0  0  0  0
  142.3560   78.9750  218.9830 N   0  0  0  0  0  0  0  0  0  0  0  0
  141.9790   80.3690  218.7230 C   0  0  0  0  0  0  0  0  0  0  0  0
  141.2940   80.9780  219.8340 C   0  0  0  0  0  0  0  0  0  0  0  0
  140.3940   81.8520  219.5750 O   0  0  0  0  0  0  0  0  0  0  0  0
  141.4850   80.7410  221.2370 N   0  0  0  0  0  0  0  0  0  0  0  0
  141.3420   81.9490  222.0450 C   0  0  0  0  0  0  0  0  0  0  0  0
  141.5090   81.6330  223.4830 C   0  0  0  0  0  0  0  0  0  0  0  0
  142.6720   80.7510  223.7370 C   0  0  0  0  0  0  0  0  0  0  0  0
  142.9540   79.6710  222.7570 C   0  0  0  0  0  0  0  0  0  0  0  0
  141.8130   79.4450  221.7790 C   0  0  1  0  0  0  0  0  0  0  0  0
  140.7250   78.6180  222.3060 C   0  0  0  0  0  0  0  0  0  0  0  0
  141.0680   77.1810  222.6050 C   0  0  0  0  0  0  0  0  0  0  0  0
  140.1630   76.1940  221.9610 C   0  0  0  0  0  0  0  0  0  0  0  0
  138.7530   76.4150  222.3760 C   0  0  0  0  0  0  0  0  0  0  0  0
  138.3700   77.8230  222.0880 C   0  0  0  0  0  0  0  0  0  0  0  0
  139.4750   78.6320  221.4490 C   0  0  0  0  0  0  0  0  0  0  0  0
  141.9400   76.5460  219.0430 C   0  0  0  0  0  0  0  0  0  0  0  0
  141.1090   75.4960  218.6410 C   0  0  0  0  0  0  0  0  0  0  0  0
  141.5230   74.2070  218.9010 C   0  0  0  0  0  0  0  0  0  0  0  0
  142.7220   73.9450  219.5390 C   0  0  0  0  0  0  0  0  0  0  0  0
  143.1540   72.6520  219.8040 C   0  0  0  0  0  0  0  0  0  0  0  0
  144.3510   72.4760  220.4330 C   0  0  0  0  0  0  0  0  0  0  0  0
  145.1440   73.5540  220.8120 C   0  0  0  0  0  0  0  0  0  0  0  0
  146.6890   73.2800  221.6200 Cl  0  0  0  0  0  0  0  0  0  0  0  0
  144.6940   74.8390  220.5390 C   0  0  0  0  0  0  0  0  0  0  0  0
  143.4780   75.0380  219.9000 C   0  0  0  0  0  0  0  0  0  0  0  0
  143.1050   76.3080  219.6630 N   0  0  0  0  0  0  0  0  0  0  0  0
  143.3260   78.7640  219.3560 H   0  0  0  0  0  0  0  0  0  0  0  0
  142.8913   80.9466  218.5132 H   0  0  0  0  0  0  0  0  0  0  0  0
  141.2888   80.3714  217.8665 H   0  0  0  0  0  0  0  0  0  0  0  0
  142.1074   82.6792  221.7434 H   0  0  0  0  0  0  0  0  0  0  0  0
  140.3368   82.3667  221.8865 H   0  0  0  0  0  0  0  0  0  0  0  0
  141.6509   82.5727  224.0368 H   0  0  0  0  0  0  0  0  0  0  0  0
  140.6058   81.1007  223.8161 H   0  0  0  0  0  0  0  0  0  0  0  0
  143.5648   81.3919  223.7837 H   0  0  0  0  0  0  0  0  0  0  0  0
  142.4170   80.2200  224.6660 H   0  0  0  0  0  0  0  0  0  0  0  0
  143.8557   79.9408  222.1876 H   0  0  0  0  0  0  0  0  0  0  0  0
  143.0909   78.7387  223.3246 H   0  0  0  0  0  0  0  0  0  0  0  0
  142.1067   78.7989  220.9386 H   0  0  0  0  0  0  0  0  0  0  0  0
  140.5327   79.1192  223.2661 H   0  0  0  0  0  0  0  0  0  0  0  0
  142.0928   76.9903  222.2538 H   0  0  0  0  0  0  0  0  0  0  0  0
  140.9594   77.0487  223.6916 H   0  0  0  0  0  0  0  0  0  0  0  0
  140.2369   76.2974  220.8684 H   0  0  0  0  0  0  0  0  0  0  0  0
  140.4664   75.1839  222.2736 H   0  0  0  0  0  0  0  0  0  0  0  0
  138.0946   75.7336  221.8173 H   0  0  0  0  0  0  0  0  0  0  0  0
  138.6513   76.2189  223.4536 H   0  0  0  0  0  0  0  0  0  0  0  0
  137.5059   77.8160  221.4073 H   0  0  0  0  0  0  0  0  0  0  0  0
  138.1388   78.2982  223.0528 H   0  0  0  0  0  0  0  0  0  0  0  0
  139.7101   78.2040  220.4633 H   0  0  0  0  0  0  0  0  0  0  0  0
  139.1327   79.6723  221.3463 H   0  0  0  0  0  0  0  0  0  0  0  0
  140.1536   75.6925  218.1326 H   0  0  0  0  0  0  0  0  0  0  0  0
  140.8840   73.3661  218.5935 H   0  0  0  0  0  0  0  0  0  0  0  0
  142.5420   71.7859  219.5119 H   0  0  0  0  0  0  0  0  0  0  0  0
  144.6987   71.4544  220.6463 H   0  0  0  0  0  0  0  0  0  0  0  0
  145.3056   75.7054  220.8312 H   0  0  0  0  0  0  0  0  0  0  0  0
  1  2  2  0
  2  3  1  0
  3  4  1  0
  4  5  1  0
  5  6  2  0
  5  7  1  0
  7  8  1  0
  8  9  1  0
  9 10  1  0
 10 11  1  0
 11 12  1  0
 12 13  1  0
 13 14  1  0
 14 15  1  0
 15 16  1  0
 16 17  1  0
 17 18  1  0
  2 19  1  0
 19 20  2  0
 20 21  1  0
 21 22  2  0
 22 23  1  0
 23 24  2  0
 24 25  1  0
 25 26  1  0
 25 27  2  0
 27 28  1  0
 28 29  2  0
 12  7  1  0
 18 13  1  0
 29 19  1  0
 28 22  1  0
  3 30  1  0
  4 31  1  0
  4 32  1  0
  8 33  1  0
  8 34  1  0
  9 35  1  0
  9 36  1  0
 10 37  1  0
 10 38  1  0
 11 39  1  0
 11 40  1  0
 12 41  1  6
 13 42  1  0
 14 43  1  0
 14 44  1  0
 15 45  1  0
 15 46  1  0
 16 47  1  0
 16 48  1  0
 17 49  1  0
 17 50  1  0
 18 51  1  0
 18 52  1  0
 20 53  1  0
 21 54  1  0
 23 55  1  0
 24 56  1  0
 27 57  1  0
M  END
>  <smiles>  (73) 
O=C(NCC(=O)N1CCCCC1C1CCCCC1)c1ccc2ccc(Cl)cc2n1

>  <score_type>  (73) 
oracle

>  <origin>  (73) 
autodockgpu

>  <m_score__min__energy>  (73) 
-8.8499999999999996

>  <m_primary>  (73) 
energy

>  <rmsd>  (73) 
7.720740938151764

>  <m_score__min__rmsd>  (73) 
7.720740938151764

>  <meeko>  (73) 
{"free_energy": -7.3, "intermolecular_energy": -8.8, "internal_energy": -3.01, "cluster_size": 11, "cluster_id": 6, "rank_in_cluster": 6}

>  <energy>  (73) 
-8.42

>  <cluster_rmsd>  (73) 
1.66

>  <cluster>  (73) 
1

$$$$

     RDKit          3D

 57 60  0  0  0  0  0  0  0  0999 V2000
  141.2340   73.6730  220.9590 O   0  0  0  0  0  0  0  0  0  0  0  0
  140.4010   73.7750  221.9120 C   0  0  0  0  0  0  0  0  0  0  0  0
  139.9080   75.0550  222.2830 N   0  0  0  0  0  0  0  0  0  0  0  0
  140.3330   76.2830  221.6020 C   0  0  0  0  0  0  0  0  0  0  0  0
  140.0570   77.4700  222.3690 C   0  0  0  0  0  0  0  0  0  0  0  0
  138.9720   77.5030  223.0500 O   0  0  0  0  0  0  0  0  0  0  0  0
  140.8470   78.6630  222.4810 N   0  0  0  0  0  0  0  0  0  0  0  0
  141.7590   78.6400  223.6220 C   0  0  0  0  0  0  0  0  0  0  0  0
  142.5730   79.8770  223.6610 C   0  0  0  0  0  0  0  0  0  0  0  0
  141.7600   81.0960  223.4350 C   0  0  0  0  0  0  0  0  0  0  0  0
  140.6600   81.0250  222.4400 C   0  0  0  0  0  0  0  0  0  0  0  0
  140.7230   79.7780  221.5740 C   0  0  1  0  0  0  0  0  0  0  0  0
  141.6650   79.8700  220.4560 C   0  0  0  0  0  0  0  0  0  0  0  0
  141.7460   81.2060  219.7640 C   0  0  0  0  0  0  0  0  0  0  0  0
  141.5570   81.1390  218.2920 C   0  0  0  0  0  0  0  0  0  0  0  0
  142.5680   80.2480  217.6650 C   0  0  0  0  0  0  0  0  0  0  0  0
  142.5140   78.9110  218.3150 C   0  0  0  0  0  0  0  0  0  0  0  0
  141.4640   78.8050  219.3970 C   0  0  0  0  0  0  0  0  0  0  0  0
  139.9140   72.6200  222.6590 C   0  0  0  0  0  0  0  0  0  0  0  0
  138.8700   71.8990  222.0710 C   0  0  0  0  0  0  0  0  0  0  0  0
  138.3780   70.8040  222.7480 C   0  0  0  0  0  0  0  0  0  0  0  0
  138.8920   70.4160  223.9720 C   0  0  0  0  0  0  0  0  0  0  0  0
  138.4080   69.3130  224.6640 C   0  0  0  0  0  0  0  0  0  0  0  0
  138.9720   68.9930  225.8640 C   0  0  0  0  0  0  0  0  0  0  0  0
  140.0110   69.7420  226.4070 C   0  0  0  0  0  0  0  0  0  0  0  0
  140.7140   69.2880  227.9620 Cl  0  0  0  0  0  0  0  0  0  0  0  0
  140.4790   70.8410  225.7010 C   0  0  0  0  0  0  0  0  0  0  0  0
  139.9180   71.1830  224.4780 C   0  0  0  0  0  0  0  0  0  0  0  0
  140.4230   72.2570  223.8450 N   0  0  0  0  0  0  0  0  0  0  0  0
  139.2100   75.1230  223.0790 H   0  0  0  0  0  0  0  0  0  0  0  0
  141.4162   76.2266  221.4190 H   0  0  0  0  0  0  0  0  0  0  0  0
  139.7640   76.3553  220.6633 H   0  0  0  0  0  0  0  0  0  0  0  0
  141.1748   78.5617  224.5508 H   0  0  0  0  0  0  0  0  0  0  0  0
  142.4312   77.7750  223.5226 H   0  0  0  0  0  0  0  0  0  0  0  0
  143.0551   79.9517  224.6469 H   0  0  0  0  0  0  0  0  0  0  0  0
  143.3163   79.8150  222.8525 H   0  0  0  0  0  0  0  0  0  0  0  0
  141.3109   81.3734  224.4001 H   0  0  0  0  0  0  0  0  0  0  0  0
  142.4676   81.8239  223.0113 H   0  0  0  0  0  0  0  0  0  0  0  0
  139.7002   81.0306  222.9774 H   0  0  0  0  0  0  0  0  0  0  0  0
  140.7622   81.8942  221.7736 H   0  0  0  0  0  0  0  0  0  0  0  0
  139.8021   79.6299  220.9909 H   0  0  0  0  0  0  0  0  0  0  0  0
  142.6198   79.7099  220.9783 H   0  0  0  0  0  0  0  0  0  0  0  0
  140.9669   81.8598  220.1829 H   0  0  0  0  0  0  0  0  0  0  0  0
  142.7618   81.5914  219.9362 H   0  0  0  0  0  0  0  0  0  0  0  0
  140.5511   80.7498  218.0759 H   0  0  0  0  0  0  0  0  0  0  0  0
  141.6762   82.1507  217.8771 H   0  0  0  0  0  0  0  0  0  0  0  0
  142.3511   80.1440  216.5916 H   0  0  0  0  0  0  0  0  0  0  0  0
  143.5712   80.6805  217.7935 H   0  0  0  0  0  0  0  0  0  0  0  0
  142.2953   78.1580  217.5435 H   0  0  0  0  0  0  0  0  0  0  0  0
  143.4897   78.7470  218.7958 H   0  0  0  0  0  0  0  0  0  0  0  0
  140.4687   78.9300  218.9457 H   0  0  0  0  0  0  0  0  0  0  0  0
  141.5503   77.8171  219.8731 H   0  0  0  0  0  0  0  0  0  0  0  0
  138.4539   72.1969  221.0973 H   0  0  0  0  0  0  0  0  0  0  0  0
  137.5558   70.2240  222.3036 H   0  0  0  0  0  0  0  0  0  0  0  0
  137.5858   68.7093  224.2522 H   0  0  0  0  0  0  0  0  0  0  0  0
  138.5954   68.1198  226.4169 H   0  0  0  0  0  0  0  0  0  0  0  0
  141.3003   71.4456  226.1132 H   0  0  0  0  0  0  0  0  0  0  0  0
  1  2  2  0
  2  3  1  0
  3  4  1  0
  4  5  1  0
  5  6  2  0
  5  7  1  0
  7  8  1  0
  8  9  1  0
  9 10  1  0
 10 11  1  0
 11 12  1  0
 12 13  1  0
 13 14  1  0
 14 15  1  0
 15 16  1  0
 16 17  1  0
 17 18  1  0
  2 19  1  0
 19 20  2  0
 20 21  1  0
 21 22  2  0
 22 23  1  0
 23 24  2  0
 24 25  1  0
 25 26  1  0
 25 27  2  0
 27 28  1  0
 28 29  2  0
 12  7  1  0
 18 13  1  0
 29 19  1  0
 28 22  1  0
  3 30  1  0
  4 31  1  0
  4 32  1  0
  8 33  1  0
  8 34  1  0
  9 35  1  0
  9 36  1  0
 10 37  1  0
 10 38  1  0
 11 39  1  0
 11 40  1  0
 12 41  1  6
 13 42  1  0
 14 43  1  0
 14 44  1  0
 15 45  1  0
 15 46  1  0
 16 47  1  0
 16 48  1  0
 17 49  1  0
 17 50  1  0
 18 51  1  0
 18 52  1  0
 20 53  1  0
 21 54  1  0
 23 55  1  0
 24 56  1  0
 27 57  1  0
M  END
>  <smiles>  (74) 
O=C(NCC(=O)N1CCCCC1C1CCCCC1)c1ccc2ccc(Cl)cc2n1

>  <score_type>  (74) 
oracle

>  <origin>  (74) 
autodockgpu

>  <m_score__min__energy>  (74) 
-8.8499999999999996

>  <m_primary>  (74) 
energy

>  <rmsd>  (74) 
4.4517920497038785

>  <m_score__min__rmsd>  (74) 
4.4517920497038785

>  <meeko>  (74) 
{"free_energy": -8.52, "intermolecular_energy": -10.01, "internal_energy": -1.7, "cluster_size": 28, "cluster_id": 1, "rank_in_cluster": 14}

>  <energy>  (74) 
-8.27

>  <cluster_rmsd>  (74) 
0.96

>  <cluster>  (74) 
1

$$$$

     RDKit          3D

 57 60  0  0  0  0  0  0  0  0999 V2000
  140.1490   78.3130  218.7000 O   0  0  0  0  0  0  0  0  0  0  0  0
  141.3790   78.0270  218.8390 C   0  0  0  0  0  0  0  0  0  0  0  0
  142.3440   79.0700  218.8880 N   0  0  0  0  0  0  0  0  0  0  0  0
  141.9710   80.4840  218.7790 C   0  0  0  0  0  0  0  0  0  0  0  0
  141.2210   80.9520  219.9160 C   0  0  0  0  0  0  0  0  0  0  0  0
  140.2070   81.7040  219.6950 O   0  0  0  0  0  0  0  0  0  0  0  0
  141.4570   80.6910  221.3080 N   0  0  0  0  0  0  0  0  0  0  0  0
  141.3330   81.8840  222.1420 C   0  0  0  0  0  0  0  0  0  0  0  0
  141.5450   81.5440  223.5680 C   0  0  0  0  0  0  0  0  0  0  0  0
  142.7210   80.6640  223.7700 C   0  0  0  0  0  0  0  0  0  0  0  0
  142.9780   79.6040  222.7620 C   0  0  0  0  0  0  0  0  0  0  0  0
  141.8090   79.3880  221.8160 C   0  0  1  0  0  0  0  0  0  0  0  0
  140.7430   78.5450  222.3620 C   0  0  0  0  0  0  0  0  0  0  0  0
  141.0090   77.0610  222.3730 C   0  0  0  0  0  0  0  0  0  0  0  0
  139.9480   76.2490  221.7230 C   0  0  0  0  0  0  0  0  0  0  0  0
  138.6320   76.4740  222.3750 C   0  0  0  0  0  0  0  0  0  0  0  0
  138.3250   77.9290  222.3750 C   0  0  0  0  0  0  0  0  0  0  0  0
  139.3910   78.7730  221.7150 C   0  0  0  0  0  0  0  0  0  0  0  0
  141.8590   76.6540  218.9540 C   0  0  0  0  0  0  0  0  0  0  0  0
  141.1080   75.6790  218.2900 C   0  0  0  0  0  0  0  0  0  0  0  0
  141.5260   74.3680  218.3790 C   0  0  0  0  0  0  0  0  0  0  0  0
  142.6530   74.0130  219.0970 C   0  0  0  0  0  0  0  0  0  0  0  0
  143.0870   72.6970  219.1920 C   0  0  0  0  0  0  0  0  0  0  0  0
  144.2120   72.4280  219.9160 C   0  0  0  0  0  0  0  0  0  0  0  0
  144.9270   73.4340  220.5570 C   0  0  0  0  0  0  0  0  0  0  0  0
  146.3790   73.0410  221.4800 Cl  0  0  0  0  0  0  0  0  0  0  0  0
  144.4750   74.7430  220.4510 C   0  0  0  0  0  0  0  0  0  0  0  0
  143.3330   75.0360  219.7190 C   0  0  0  0  0  0  0  0  0  0  0  0
  142.9540   76.3250  219.6550 N   0  0  0  0  0  0  0  0  0  0  0  0
  143.3660   78.8130  219.0080 H   0  0  0  0  0  0  0  0  0  0  0  0
  142.8888   81.0840  218.6921 H   0  0  0  0  0  0  0  0  0  0  0  0
  141.3291   80.5900  217.8921 H   0  0  0  0  0  0  0  0  0  0  0  0
  142.0854   82.6234  221.8304 H   0  0  0  0  0  0  0  0  0  0  0  0
  140.3213   82.2988  222.0216 H   0  0  0  0  0  0  0  0  0  0  0  0
  141.6987   82.4746  224.1340 H   0  0  0  0  0  0  0  0  0  0  0  0
  140.6552   81.0010  223.9194 H   0  0  0  0  0  0  0  0  0  0  0  0
  143.6113   81.3093  223.8009 H   0  0  0  0  0  0  0  0  0  0  0  0
  142.4981   80.1148  224.6966 H   0  0  0  0  0  0  0  0  0  0  0  0
  143.8598   79.8899  222.1699 H   0  0  0  0  0  0  0  0  0  0  0  0
  143.1375   78.6625  223.3081 H   0  0  0  0  0  0  0  0  0  0  0  0
  142.0799   78.7589  220.9553 H   0  0  0  0  0  0  0  0  0  0  0  0
  140.7265   78.8860  223.4077 H   0  0  0  0  0  0  0  0  0  0  0  0
  141.9568   76.8762  221.8462 H   0  0  0  0  0  0  0  0  0  0  0  0
  141.0421   76.7528  223.4284 H   0  0  0  0  0  0  0  0  0  0  0  0
  139.8772   76.5320  220.6624 H   0  0  0  0  0  0  0  0  0  0  0  0
  140.2108   75.1853  221.8209 H   0  0  0  0  0  0  0  0  0  0  0  0
  137.8504   75.9337  221.8208 H   0  0  0  0  0  0  0  0  0  0  0  0
  138.6664   76.1050  223.4107 H   0  0  0  0  0  0  0  0  0  0  0  0
  137.3772   78.0843  221.8388 H   0  0  0  0  0  0  0  0  0  0  0  0
  138.2680   78.2463  223.4267 H   0  0  0  0  0  0  0  0  0  0  0  0
  139.4526   78.5062  220.6496 H   0  0  0  0  0  0  0  0  0  0  0  0
  139.1209   79.8329  221.8321 H   0  0  0  0  0  0  0  0  0  0  0  0
  140.2108   75.9497  217.7140 H   0  0  0  0  0  0  0  0  0  0  0  0
  140.9484   73.5850  217.8659 H   0  0  0  0  0  0  0  0  0  0  0  0
  142.5345   71.8871  218.6932 H   0  0  0  0  0  0  0  0  0  0  0  0
  144.5625   71.3883  219.9947 H   0  0  0  0  0  0  0  0  0  0  0  0
  145.0261   75.5532  220.9508 H   0  0  0  0  0  0  0  0  0  0  0  0
  1  2  2  0
  2  3  1  0
  3  4  1  0
  4  5  1  0
  5  6  2  0
  5  7  1  0
  7  8  1  0
  8  9  1  0
  9 10  1  0
 10 11  1  0
 11 12  1  0
 12 13  1  0
 13 14  1  0
 14 15  1  0
 15 16  1  0
 16 17  1  0
 17 18  1  0
  2 19  1  0
 19 20  2  0
 20 21  1  0
 21 22  2  0
 22 23  1  0
 23 24  2  0
 24 25  1  0
 25 26  1  0
 25 27  2  0
 27 28  1  0
 28 29  2  0
 12  7  1  0
 18 13  1  0
 29 19  1  0
 28 22  1  0
  3 30  1  0
  4 31  1  0
  4 32  1  0
  8 33  1  0
  8 34  1  0
  9 35  1  0
  9 36  1  0
 10 37  1  0
 10 38  1  0
 11 39  1  0
 11 40  1  0
 12 41  1  6
 13 42  1  0
 14 43  1  0
 14 44  1  0
 15 45  1  0
 15 46  1  0
 16 47  1  0
 16 48  1  0
 17 49  1  0
 17 50  1  0
 18 51  1  0
 18 52  1  0
 20 53  1  0
 21 54  1  0
 23 55  1  0
 24 56  1  0
 27 57  1  0
M  END
>  <smiles>  (75) 
O=C(NCC(=O)N1CCCCC1C1CCCCC1)c1ccc2ccc(Cl)cc2n1

>  <score_type>  (75) 
oracle

>  <origin>  (75) 
autodockgpu

>  <m_score__min__energy>  (75) 
-8.8499999999999996

>  <m_primary>  (75) 
energy

>  <rmsd>  (75) 
7.847370830610724

>  <m_score__min__rmsd>  (75) 
7.847370830610724

>  <meeko>  (75) 
{"free_energy": -7.14, "intermolecular_energy": -8.63, "internal_energy": -2.93, "cluster_size": 11, "cluster_id": 6, "rank_in_cluster": 9}

>  <energy>  (75) 
-8.19

>  <cluster_rmsd>  (75) 
1.48

>  <cluster>  (75) 
1

$$$$

     RDKit          3D

 57 60  0  0  0  0  0  0  0  0999 V2000
  140.2320   73.5050  222.3540 O   0  0  0  0  0  0  0  0  0  0  0  0
  140.1570   74.5030  221.5740 C   0  0  0  0  0  0  0  0  0  0  0  0
  140.3470   74.3210  220.1770 N   0  0  0  0  0  0  0  0  0  0  0  0
  140.6340   73.0070  219.5920 C   0  0  0  0  0  0  0  0  0  0  0  0
  141.8770   72.4500  220.0580 C   0  0  0  0  0  0  0  0  0  0  0  0
  141.8240   71.4170  220.8160 O   0  0  0  0  0  0  0  0  0  0  0  0
  143.2140   72.9030  219.7910 N   0  0  0  0  0  0  0  0  0  0  0  0
  143.9710   71.9820  218.9480 C   0  0  0  0  0  0  0  0  0  0  0  0
  145.3240   72.5220  218.6750 C   0  0  0  0  0  0  0  0  0  0  0  0
  145.9750   73.0560  219.8950 C   0  0  0  0  0  0  0  0  0  0  0  0
  145.1280   73.7810  220.8760 C   0  0  0  0  0  0  0  0  0  0  0  0
  143.7530   74.1270  220.3320 C   0  0  1  0  0  0  0  0  0  0  0  0
  143.7240   75.3270  219.4920 C   0  0  0  0  0  0  0  0  0  0  0  0
  142.9220   76.4880  220.0210 C   0  0  0  0  0  0  0  0  0  0  0  0
  141.9120   77.0140  219.0660 C   0  0  0  0  0  0  0  0  0  0  0  0
  142.5540   77.4520  217.8000 C   0  0  0  0  0  0  0  0  0  0  0  0
  143.3490   76.3280  217.2370 C   0  0  0  0  0  0  0  0  0  0  0  0
  143.2830   75.0650  218.0660 C   0  0  0  0  0  0  0  0  0  0  0  0
  139.8800   75.8550  222.0490 C   0  0  0  0  0  0  0  0  0  0  0  0
  138.5310   76.1940  222.1950 C   0  0  0  0  0  0  0  0  0  0  0  0
  138.2270   77.4640  222.6360 C   0  0  0  0  0  0  0  0  0  0  0  0
  139.2150   78.3860  222.9300 C   0  0  0  0  0  0  0  0  0  0  0  0
  138.9240   79.6670  223.3790 C   0  0  0  0  0  0  0  0  0  0  0  0
  139.9550   80.5170  223.6530 C   0  0  0  0  0  0  0  0  0  0  0  0
  141.2820   80.1320  223.4930 C   0  0  0  0  0  0  0  0  0  0  0  0
  142.5860   81.2630  223.8640 Cl  0  0  0  0  0  0  0  0  0  0  0  0
  141.5520   78.8470  223.0430 C   0  0  0  0  0  0  0  0  0  0  0  0
  140.5160   77.9680  222.7580 C   0  0  0  0  0  0  0  0  0  0  0  0
  140.8490   76.7380  222.3300 N   0  0  0  0  0  0  0  0  0  0  0  0
  140.2780   75.1660  219.5380 H   0  0  0  0  0  0  0  0  0  0  0  0
  139.8185   72.3181  219.8573 H   0  0  0  0  0  0  0  0  0  0  0  0
  140.7172   73.1395  218.5032 H   0  0  0  0  0  0  0  0  0  0  0  0
  144.0644   71.0141  219.4622 H   0  0  0  0  0  0  0  0  0  0  0  0
  143.4394   71.8543  217.9935 H   0  0  0  0  0  0  0  0  0  0  0  0
  145.9500   71.7161  218.2643 H   0  0  0  0  0  0  0  0  0  0  0  0
  145.2166   73.3519  217.9610 H   0  0  0  0  0  0  0  0  0  0  0  0
  146.4306   72.2047  220.4221 H   0  0  0  0  0  0  0  0  0  0  0  0
  146.6763   73.8169  219.5219 H   0  0  0  0  0  0  0  0  0  0  0  0
  145.0033   73.1478  221.7668 H   0  0  0  0  0  0  0  0  0  0  0  0
  145.6358   74.7276  221.1127 H   0  0  0  0  0  0  0  0  0  0  0  0
  143.0683   74.4709  221.1212 H   0  0  0  0  0  0  0  0  0  0  0  0
  144.7842   75.6194  219.5139 H   0  0  0  0  0  0  0  0  0  0  0  0
  142.3986   76.1599  220.9312 H   0  0  0  0  0  0  0  0  0  0  0  0
  143.6341   77.3047  220.2109 H   0  0  0  0  0  0  0  0  0  0  0  0
  141.1809   76.2228  218.8436 H   0  0  0  0  0  0  0  0  0  0  0  0
  141.4140   77.8810  219.5247 H   0  0  0  0  0  0  0  0  0  0  0  0
  141.7787   77.7509  217.0792 H   0  0  0  0  0  0  0  0  0  0  0  0
  143.2159   78.3076  217.9995 H   0  0  0  0  0  0  0  0  0  0  0  0
  142.9684   76.1031  216.2297 H   0  0  0  0  0  0  0  0  0  0  0  0
  144.4004   76.6511  217.2245 H   0  0  0  0  0  0  0  0  0  0  0  0
  142.2480   74.6927  218.0723 H   0  0  0  0  0  0  0  0  0  0  0  0
  143.9585   74.3190  217.6220 H   0  0  0  0  0  0  0  0  0  0  0  0
  137.7365   75.4689  221.9648 H   0  0  0  0  0  0  0  0  0  0  0  0
  137.1721   77.7514  222.7571 H   0  0  0  0  0  0  0  0  0  0  0  0
  137.8810   79.9906  223.5114 H   0  0  0  0  0  0  0  0  0  0  0  0
  139.7312   81.5332  224.0097 H   0  0  0  0  0  0  0  0  0  0  0  0
  142.5948   78.5227  222.9112 H   0  0  0  0  0  0  0  0  0  0  0  0
  1  2  2  0
  2  3  1  0
  3  4  1  0
  4  5  1  0
  5  6  2  0
  5  7  1  0
  7  8  1  0
  8  9  1  0
  9 10  1  0
 10 11  1  0
 11 12  1  0
 12 13  1  0
 13 14  1  0
 14 15  1  0
 15 16  1  0
 16 17  1  0
 17 18  1  0
  2 19  1  0
 19 20  2  0
 20 21  1  0
 21 22  2  0
 22 23  1  0
 23 24  2  0
 24 25  1  0
 25 26  1  0
 25 27  2  0
 27 28  1  0
 28 29  2  0
 12  7  1  0
 18 13  1  0
 29 19  1  0
 28 22  1  0
  3 30  1  0
  4 31  1  0
  4 32  1  0
  8 33  1  0
  8 34  1  0
  9 35  1  0
  9 36  1  0
 10 37  1  0
 10 38  1  0
 11 39  1  0
 11 40  1  0
 12 41  1  1
 13 42  1  0
 14 43  1  0
 14 44  1  0
 15 45  1  0
 15 46  1  0
 16 47  1  0
 16 48  1  0
 17 49  1  0
 17 50  1  0
 18 51  1  0
 18 52  1  0
 20 53  1  0
 21 54  1  0
 23 55  1  0
 24 56  1  0
 27 57  1  0
M  END
>  <smiles>  (76) 
O=C(NCC(=O)N1CCCCC1C1CCCCC1)c1ccc2ccc(Cl)cc2n1

>  <score_type>  (76) 
oracle

>  <origin>  (76) 
autodockgpu

>  <m_score__min__energy>  (76) 
-8.8499999999999996

>  <m_primary>  (76) 
energy

>  <rmsd>  (76) 
6.906630166023168

>  <m_score__min__rmsd>  (76) 
6.906630166023168

>  <meeko>  (76) 
{"free_energy": -7.6, "intermolecular_energy": -9.09, "internal_energy": -2.42, "cluster_size": 4, "cluster_id": 5, "rank_in_cluster": 1}

>  <energy>  (76) 
-8.19

>  <cluster_rmsd>  (76) 
1.64

>  <cluster>  (76) 
1

$$$$

     RDKit          3D

 57 60  0  0  0  0  0  0  0  0999 V2000
  141.5310   73.0390  221.6330 O   0  0  0  0  0  0  0  0  0  0  0  0
  140.4640   72.8930  222.3060 C   0  0  0  0  0  0  0  0  0  0  0  0
  139.5180   73.9520  222.3660 N   0  0  0  0  0  0  0  0  0  0  0  0
  139.7300   75.2290  221.6740 C   0  0  0  0  0  0  0  0  0  0  0  0
  138.7430   76.2190  222.0190 C   0  0  0  0  0  0  0  0  0  0  0  0
  137.6170   75.8090  222.4740 O   0  0  0  0  0  0  0  0  0  0  0  0
  138.8410   77.6480  221.9180 N   0  0  0  0  0  0  0  0  0  0  0  0
  137.8330   78.3470  222.7110 C   0  0  0  0  0  0  0  0  0  0  0  0
  138.0110   79.8140  222.5990 C   0  0  0  0  0  0  0  0  0  0  0  0
  138.2320   80.2510  221.2000 C   0  0  0  0  0  0  0  0  0  0  0  0
  139.0630   79.3870  220.3240 C   0  0  0  0  0  0  0  0  0  0  0  0
  139.8180   78.3140  221.0920 C   0  0  1  0  0  0  0  0  0  0  0  0
  141.0540   78.7840  221.7220 C   0  0  0  0  0  0  0  0  0  0  0  0
  141.3050   78.3070  223.1290 C   0  0  0  0  0  0  0  0  0  0  0  0
  141.5780   79.3980  224.1000 C   0  0  0  0  0  0  0  0  0  0  0  0
  142.7570   80.2010  223.6820 C   0  0  0  0  0  0  0  0  0  0  0  0
  142.5440   80.7010  222.2970 C   0  0  0  0  0  0  0  0  0  0  0  0
  141.2160   80.2910  221.7020 C   0  0  0  0  0  0  0  0  0  0  0  0
  140.1540   71.6670  223.0350 C   0  0  0  0  0  0  0  0  0  0  0  0
  139.3590   70.7330  222.3630 C   0  0  0  0  0  0  0  0  0  0  0  0
  139.0390   69.5650  223.0210 C   0  0  0  0  0  0  0  0  0  0  0  0
  139.4850   69.3080  224.3040 C   0  0  0  0  0  0  0  0  0  0  0  0
  139.1740   68.1330  224.9770 C   0  0  0  0  0  0  0  0  0  0  0  0
  139.6560   67.9530  226.2390 C   0  0  0  0  0  0  0  0  0  0  0  0
  140.4460   68.9120  226.8650 C   0  0  0  0  0  0  0  0  0  0  0  0
  141.0530   68.6340  228.5000 Cl  0  0  0  0  0  0  0  0  0  0  0  0
  140.7450   70.0800  226.1760 C   0  0  0  0  0  0  0  0  0  0  0  0
  140.2630   70.2820  224.8900 C   0  0  0  0  0  0  0  0  0  0  0  0
  140.5940   71.4330  224.2800 N   0  0  0  0  0  0  0  0  0  0  0  0
  138.6300   73.8130  222.9300 H   0  0  0  0  0  0  0  0  0  0  0  0
  140.7243   75.6145  221.9438 H   0  0  0  0  0  0  0  0  0  0  0  0
  139.6464   75.0392  220.5937 H   0  0  0  0  0  0  0  0  0  0  0  0
  136.8319   78.0747  222.3454 H   0  0  0  0  0  0  0  0  0  0  0  0
  137.9438   78.0544  223.7656 H   0  0  0  0  0  0  0  0  0  0  0  0
  137.1085   80.3099  222.9857 H   0  0  0  0  0  0  0  0  0  0  0  0
  138.9028   80.0891  223.1812 H   0  0  0  0  0  0  0  0  0  0  0  0
  137.2437   80.3435  220.7260 H   0  0  0  0  0  0  0  0  0  0  0  0
  138.8066   81.1846  221.2908 H   0  0  0  0  0  0  0  0  0  0  0  0
  138.4062   78.8965  219.5905 H   0  0  0  0  0  0  0  0  0  0  0  0
  139.8104   80.0321  219.8390 H   0  0  0  0  0  0  0  0  0  0  0  0
  140.2598   77.5581  220.4261 H   0  0  0  0  0  0  0  0  0  0  0  0
  141.8076   78.3127  221.0739 H   0  0  0  0  0  0  0  0  0  0  0  0
  140.4167   77.7552  223.4703 H   0  0  0  0  0  0  0  0  0  0  0  0
  142.2079   77.6796  223.0948 H   0  0  0  0  0  0  0  0  0  0  0  0
  140.6979   80.0553  224.1593 H   0  0  0  0  0  0  0  0  0  0  0  0
  141.7904   78.9486  225.0813 H   0  0  0  0  0  0  0  0  0  0  0  0
  142.8821   81.0537  224.3655 H   0  0  0  0  0  0  0  0  0  0  0  0
  143.6603   79.5740  223.7131 H   0  0  0  0  0  0  0  0  0  0  0  0
  142.5934   81.7998  222.3127 H   0  0  0  0  0  0  0  0  0  0  0  0
  143.3296   80.2553  221.6692 H   0  0  0  0  0  0  0  0  0  0  0  0
  140.4036   80.7479  222.2862 H   0  0  0  0  0  0  0  0  0  0  0  0
  141.1792   80.6336  220.6574 H   0  0  0  0  0  0  0  0  0  0  0  0
  139.0002   70.9247  221.3410 H   0  0  0  0  0  0  0  0  0  0  0  0
  138.4124   68.8178  222.5120 H   0  0  0  0  0  0  0  0  0  0  0  0
  138.5504   67.3624  224.5002 H   0  0  0  0  0  0  0  0  0  0  0  0
  139.4140   67.0246  226.7771 H   0  0  0  0  0  0  0  0  0  0  0  0
  141.3684   70.8508  226.6528 H   0  0  0  0  0  0  0  0  0  0  0  0
  1  2  2  0
  2  3  1  0
  3  4  1  0
  4  5  1  0
  5  6  2  0
  5  7  1  0
  7  8  1  0
  8  9  1  0
  9 10  1  0
 10 11  1  0
 11 12  1  0
 12 13  1  0
 13 14  1  0
 14 15  1  0
 15 16  1  0
 16 17  1  0
 17 18  1  0
  2 19  1  0
 19 20  2  0
 20 21  1  0
 21 22  2  0
 22 23  1  0
 23 24  2  0
 24 25  1  0
 25 26  1  0
 25 27  2  0
 27 28  1  0
 28 29  2  0
 12  7  1  0
 18 13  1  0
 29 19  1  0
 28 22  1  0
  3 30  1  0
  4 31  1  0
  4 32  1  0
  8 33  1  0
  8 34  1  0
  9 35  1  0
  9 36  1  0
 10 37  1  0
 10 38  1  0
 11 39  1  0
 11 40  1  0
 12 41  1  6
 13 42  1  0
 14 43  1  0
 14 44  1  0
 15 45  1  0
 15 46  1  0
 16 47  1  0
 16 48  1  0
 17 49  1  0
 17 50  1  0
 18 51  1  0
 18 52  1  0
 20 53  1  0
 21 54  1  0
 23 55  1  0
 24 56  1  0
 27 57  1  0
M  END
>  <smiles>  (77) 
O=C(NCC(=O)N1CCCCC1C1CCCCC1)c1ccc2ccc(Cl)cc2n1

>  <score_type>  (77) 
oracle

>  <origin>  (77) 
autodockgpu

>  <m_score__min__energy>  (77) 
-8.8499999999999996

>  <m_primary>  (77) 
energy

>  <rmsd>  (77) 
3.4407381398780874

>  <m_score__min__rmsd>  (77) 
3.4407381398780874

>  <meeko>  (77) 
{"free_energy": -8.59, "intermolecular_energy": -10.08, "internal_energy": -1.81, "cluster_size": 28, "cluster_id": 1, "rank_in_cluster": 9}

>  <energy>  (77) 
-8.17

>  <cluster_rmsd>  (77) 
0.7

>  <cluster>  (77) 
1

$$$$

     RDKit          3D

 57 60  0  0  0  0  0  0  0  0999 V2000
  140.3390   73.4170  222.3370 O   0  0  0  0  0  0  0  0  0  0  0  0
  140.3100   74.3870  221.5190 C   0  0  0  0  0  0  0  0  0  0  0  0
  140.5110   74.1450  220.1320 N   0  0  0  0  0  0  0  0  0  0  0  0
  140.7570   72.8000  219.6020 C   0  0  0  0  0  0  0  0  0  0  0  0
  142.0550   72.2900  219.9570 C   0  0  0  0  0  0  0  0  0  0  0  0
  142.1100   71.1670  220.5730 O   0  0  0  0  0  0  0  0  0  0  0  0
  143.3420   72.8810  219.7170 N   0  0  0  0  0  0  0  0  0  0  0  0
  144.2540   71.9920  219.0000 C   0  0  0  0  0  0  0  0  0  0  0  0
  145.5460   72.6710  218.7470 C   0  0  0  0  0  0  0  0  0  0  0  0
  146.0540   73.3840  219.9430 C   0  0  0  0  0  0  0  0  0  0  0  0
  145.0690   74.0790  220.8100 C   0  0  0  0  0  0  0  0  0  0  0  0
  143.6980   74.2040  220.1680 C   0  0  1  0  0  0  0  0  0  0  0  0
  143.5770   75.3150  219.2210 C   0  0  0  0  0  0  0  0  0  0  0  0
  143.0050   76.5970  219.7700 C   0  0  0  0  0  0  0  0  0  0  0  0
  141.8530   77.1280  218.9960 C   0  0  0  0  0  0  0  0  0  0  0  0
  142.2310   77.3760  217.5810 C   0  0  0  0  0  0  0  0  0  0  0  0
  142.7930   76.1280  216.9960 C   0  0  0  0  0  0  0  0  0  0  0  0
  142.8130   74.9640  217.9600 C   0  0  0  0  0  0  0  0  0  0  0  0
  140.0770   75.7650  221.9390 C   0  0  0  0  0  0  0  0  0  0  0  0
  138.7470   76.1980  221.9280 C   0  0  0  0  0  0  0  0  0  0  0  0
  138.4860   77.4950  222.3120 C   0  0  0  0  0  0  0  0  0  0  0  0
  139.4970   78.3550  222.7010 C   0  0  0  0  0  0  0  0  0  0  0  0
  139.2480   79.6630  223.0950 C   0  0  0  0  0  0  0  0  0  0  0  0
  140.2990   80.4470  223.4690 C   0  0  0  0  0  0  0  0  0  0  0  0
  141.6060   79.9700  223.4650 C   0  0  0  0  0  0  0  0  0  0  0  0
  142.9360   81.0180  223.9620 Cl  0  0  0  0  0  0  0  0  0  0  0  0
  141.8340   78.6590  223.0670 C   0  0  0  0  0  0  0  0  0  0  0  0
  140.7770   77.8460  222.6820 C   0  0  0  0  0  0  0  0  0  0  0  0
  141.0690   76.5870  222.3130 N   0  0  0  0  0  0  0  0  0  0  0  0
  140.4810   74.9670  219.4610 H   0  0  0  0  0  0  0  0  0  0  0  0
  139.9906   72.1193  220.0011 H   0  0  0  0  0  0  0  0  0  0  0  0
  140.7146   72.8634  218.5046 H   0  0  0  0  0  0  0  0  0  0  0  0
  144.4309   71.0903  219.6046 H   0  0  0  0  0  0  0  0  0  0  0  0
  143.8004   71.7183  218.0360 H   0  0  0  0  0  0  0  0  0  0  0  0
  146.2876   71.9173  218.4437 H   0  0  0  0  0  0  0  0  0  0  0  0
  145.3829   73.4176  217.9558 H   0  0  0  0  0  0  0  0  0  0  0  0
  146.5756   72.6442  220.5681 H   0  0  0  0  0  0  0  0  0  0  0  0
  146.6806   74.1915  219.5364 H   0  0  0  0  0  0  0  0  0  0  0  0
  144.9667   73.5133  221.7478 H   0  0  0  0  0  0  0  0  0  0  0  0
  145.4450   75.0979  220.9843 H   0  0  0  0  0  0  0  0  0  0  0  0
  142.9303   74.5269  220.8866 H   0  0  0  0  0  0  0  0  0  0  0  0
  144.6354   75.4994  218.9849 H   0  0  0  0  0  0  0  0  0  0  0  0
  142.6721   76.4126  220.8021 H   0  0  0  0  0  0  0  0  0  0  0  0
  143.8028   77.3519  219.7093 H   0  0  0  0  0  0  0  0  0  0  0  0
  141.0318   76.3967  219.0260 H   0  0  0  0  0  0  0  0  0  0  0  0
  141.5375   78.0807  219.4465 H   0  0  0  0  0  0  0  0  0  0  0  0
  141.3410   77.6807  217.0109 H   0  0  0  0  0  0  0  0  0  0  0  0
  142.9845   78.1761  217.5357 H   0  0  0  0  0  0  0  0  0  0  0  0
  142.1836   75.8473  216.1243 H   0  0  0  0  0  0  0  0  0  0  0  0
  143.8377   76.3405  216.7249 H   0  0  0  0  0  0  0  0  0  0  0  0
  141.7790   74.7009  218.2276 H   0  0  0  0  0  0  0  0  0  0  0  0
  143.3135   74.1143  217.4726 H   0  0  0  0  0  0  0  0  0  0  0  0
  137.9340   75.5232  221.6219 H   0  0  0  0  0  0  0  0  0  0  0  0
  137.4469   77.8559  222.3092 H   0  0  0  0  0  0  0  0  0  0  0  0
  138.2219   80.0593  223.1052 H   0  0  0  0  0  0  0  0  0  0  0  0
  140.1085   81.4841  223.7822 H   0  0  0  0  0  0  0  0  0  0  0  0
  142.8599   78.2621  223.0568 H   0  0  0  0  0  0  0  0  0  0  0  0
  1  2  2  0
  2  3  1  0
  3  4  1  0
  4  5  1  0
  5  6  2  0
  5  7  1  0
  7  8  1  0
  8  9  1  0
  9 10  1  0
 10 11  1  0
 11 12  1  0
 12 13  1  0
 13 14  1  0
 14 15  1  0
 15 16  1  0
 16 17  1  0
 17 18  1  0
  2 19  1  0
 19 20  2  0
 20 21  1  0
 21 22  2  0
 22 23  1  0
 23 24  2  0
 24 25  1  0
 25 26  1  0
 25 27  2  0
 27 28  1  0
 28 29  2  0
 12  7  1  0
 18 13  1  0
 29 19  1  0
 28 22  1  0
  3 30  1  0
  4 31  1  0
  4 32  1  0
  8 33  1  0
  8 34  1  0
  9 35  1  0
  9 36  1  0
 10 37  1  0
 10 38  1  0
 11 39  1  0
 11 40  1  0
 12 41  1  1
 13 42  1  0
 14 43  1  0
 14 44  1  0
 15 45  1  0
 15 46  1  0
 16 47  1  0
 16 48  1  0
 17 49  1  0
 17 50  1  0
 18 51  1  0
 18 52  1  0
 20 53  1  0
 21 54  1  0
 23 55  1  0
 24 56  1  0
 27 57  1  0
M  END
>  <smiles>  (78) 
O=C(NCC(=O)N1CCCCC1C1CCCCC1)c1ccc2ccc(Cl)cc2n1

>  <score_type>  (78) 
oracle

>  <origin>  (78) 
autodockgpu

>  <m_score__min__energy>  (78) 
-8.8499999999999996

>  <m_primary>  (78) 
energy

>  <rmsd>  (78) 
6.929807486031947

>  <m_score__min__rmsd>  (78) 
6.929807486031947

>  <meeko>  (78) 
{"free_energy": -7.46, "intermolecular_energy": -8.95, "internal_energy": -2.58, "cluster_size": 4, "cluster_id": 5, "rank_in_cluster": 2}

>  <energy>  (78) 
-8.08

>  <cluster_rmsd>  (78) 
1.37

>  <cluster>  (78) 
1

$$$$

     RDKit          3D

 57 60  0  0  0  0  0  0  0  0999 V2000
  141.3390   74.1640  220.6770 O   0  0  0  0  0  0  0  0  0  0  0  0
  140.5140   74.4310  221.6050 C   0  0  0  0  0  0  0  0  0  0  0  0
  139.9010   73.3720  222.3290 N   0  0  0  0  0  0  0  0  0  0  0  0
  140.1850   71.9620  222.0410 C   0  0  0  0  0  0  0  0  0  0  0  0
  140.1540   71.1360  223.2200 C   0  0  0  0  0  0  0  0  0  0  0  0
  141.1280   71.2360  224.0470 O   0  0  0  0  0  0  0  0  0  0  0  0
  139.1560   70.1810  223.6130 N   0  0  0  0  0  0  0  0  0  0  0  0
  138.7890   69.2620  222.5390 C   0  0  0  0  0  0  0  0  0  0  0  0
  137.7890   68.2790  223.0170 C   0  0  0  0  0  0  0  0  0  0  0  0
  136.7040   68.9120  223.8020 C   0  0  0  0  0  0  0  0  0  0  0  0
  137.0640   70.0280  224.7140 C   0  0  0  0  0  0  0  0  0  0  0  0
  138.5620   70.1590  224.9280 C   0  0  1  0  0  0  0  0  0  0  0  0
  139.1110   69.2330  225.9210 C   0  0  0  0  0  0  0  0  0  0  0  0
  139.1170   69.7170  227.3480 C   0  0  0  0  0  0  0  0  0  0  0  0
  140.4440   69.6360  228.0110 C   0  0  0  0  0  0  0  0  0  0  0  0
  140.9560   68.2410  228.0090 C   0  0  0  0  0  0  0  0  0  0  0  0
  140.9770   67.7270  226.6130 C   0  0  0  0  0  0  0  0  0  0  0  0
  140.5040   68.7350  225.5900 C   0  0  0  0  0  0  0  0  0  0  0  0
  140.1570   75.7970  221.9710 C   0  0  0  0  0  0  0  0  0  0  0  0
  138.7990   76.1230  221.8960 C   0  0  0  0  0  0  0  0  0  0  0  0
  138.4210   77.4060  222.2280 C   0  0  0  0  0  0  0  0  0  0  0  0
  139.3450   78.3540  222.6280 C   0  0  0  0  0  0  0  0  0  0  0  0
  138.9790   79.6490  222.9700 C   0  0  0  0  0  0  0  0  0  0  0  0
  139.9490   80.5240  223.3590 C   0  0  0  0  0  0  0  0  0  0  0  0
  141.2880   80.1520  223.4200 C   0  0  0  0  0  0  0  0  0  0  0  0
  142.5110   81.3180  223.9340 Cl  0  0  0  0  0  0  0  0  0  0  0  0
  141.6340   78.8530  223.0740 C   0  0  0  0  0  0  0  0  0  0  0  0
  140.6610   77.9480  222.6750 C   0  0  0  0  0  0  0  0  0  0  0  0
  141.0650   76.7060  222.3570 N   0  0  0  0  0  0  0  0  0  0  0  0
  139.2170   73.6130  223.1030 H   0  0  0  0  0  0  0  0  0  0  0  0
  139.4322   71.5895  221.3307 H   0  0  0  0  0  0  0  0  0  0  0  0
  141.2012   71.9067  221.6236 H   0  0  0  0  0  0  0  0  0  0  0  0
  138.3625   69.8347  221.7023 H   0  0  0  0  0  0  0  0  0  0  0  0
  139.6890   68.7225  222.2091 H   0  0  0  0  0  0  0  0  0  0  0  0
  137.3461   67.7739  222.1460 H   0  0  0  0  0  0  0  0  0  0  0  0
  138.3076   67.5670  223.6759 H   0  0  0  0  0  0  0  0  0  0  0  0
  135.9653   69.3003  223.0854 H   0  0  0  0  0  0  0  0  0  0  0  0
  136.3468   68.1147  224.4704 H   0  0  0  0  0  0  0  0  0  0  0  0
  136.6877   70.9678  224.2837 H   0  0  0  0  0  0  0  0  0  0  0  0
  136.6091   69.8136  225.6923 H   0  0  0  0  0  0  0  0  0  0  0  0
  138.8296   71.1010  225.4291 H   0  0  0  0  0  0  0  0  0  0  0  0
  138.3871   68.4075  225.8541 H   0  0  0  0  0  0  0  0  0  0  0  0
  138.7896   70.7671  227.3579 H   0  0  0  0  0  0  0  0  0  0  0  0
  138.4411   69.0556  227.9099 H   0  0  0  0  0  0  0  0  0  0  0  0
  141.1547   70.2808  227.4733 H   0  0  0  0  0  0  0  0  0  0  0  0
  140.3355   69.9680  229.0541 H   0  0  0  0  0  0  0  0  0  0  0  0
  141.9751   68.2230  228.4226 H   0  0  0  0  0  0  0  0  0  0  0  0
  140.3013   67.6073  228.6252 H   0  0  0  0  0  0  0  0  0  0  0  0
  142.0086   67.4372  226.3646 H   0  0  0  0  0  0  0  0  0  0  0  0
  140.2820   66.8753  226.5722 H   0  0  0  0  0  0  0  0  0  0  0  0
  141.1978   69.5885  225.5787 H   0  0  0  0  0  0  0  0  0  0  0  0
  140.4766   68.2472  224.6044 H   0  0  0  0  0  0  0  0  0  0  0  0
  138.0544   75.3771  221.5812 H   0  0  0  0  0  0  0  0  0  0  0  0
  137.3578   77.6829  222.1735 H   0  0  0  0  0  0  0  0  0  0  0  0
  137.9256   79.9630  222.9278 H   0  0  0  0  0  0  0  0  0  0  0  0
  139.6656   81.5512  223.6318 H   0  0  0  0  0  0  0  0  0  0  0  0
  142.6873   78.5388  223.1165 H   0  0  0  0  0  0  0  0  0  0  0  0
  1  2  2  0
  2  3  1  0
  3  4  1  0
  4  5  1  0
  5  6  2  0
  5  7  1  0
  7  8  1  0
  8  9  1  0
  9 10  1  0
 10 11  1  0
 11 12  1  0
 12 13  1  0
 13 14  1  0
 14 15  1  0
 15 16  1  0
 16 17  1  0
 17 18  1  0
  2 19  1  0
 19 20  2  0
 20 21  1  0
 21 22  2  0
 22 23  1  0
 23 24  2  0
 24 25  1  0
 25 26  1  0
 25 27  2  0
 27 28  1  0
 28 29  2  0
 12  7  1  0
 18 13  1  0
 29 19  1  0
 28 22  1  0
  3 30  1  0
  4 31  1  0
  4 32  1  0
  8 33  1  0
  8 34  1  0
  9 35  1  0
  9 36  1  0
 10 37  1  0
 10 38  1  0
 11 39  1  0
 11 40  1  0
 12 41  1  1
 13 42  1  0
 14 43  1  0
 14 44  1  0
 15 45  1  0
 15 46  1  0
 16 47  1  0
 16 48  1  0
 17 49  1  0
 17 50  1  0
 18 51  1  0
 18 52  1  0
 20 53  1  0
 21 54  1  0
 23 55  1  0
 24 56  1  0
 27 57  1  0
M  END
>  <smiles>  (79) 
O=C(NCC(=O)N1CCCCC1C1CCCCC1)c1ccc2ccc(Cl)cc2n1

>  <score_type>  (79) 
oracle

>  <origin>  (79) 
autodockgpu

>  <m_score__min__energy>  (79) 
-8.8499999999999996

>  <m_primary>  (79) 
energy

>  <rmsd>  (79) 
8.092244133404801

>  <m_score__min__rmsd>  (79) 
8.092244133404801

>  <meeko>  (79) 
{"free_energy": -8.52, "intermolecular_energy": -10.01, "internal_energy": -1.34, "cluster_size": 4, "cluster_id": 2, "rank_in_cluster": 2}

>  <energy>  (79) 
-8.83

>  <cluster_rmsd>  (79) 
0.0

>  <cluster>  (79) 
2

$$$$

     RDKit          3D

 57 60  0  0  0  0  0  0  0  0999 V2000
  140.8740   72.4730  220.8140 O   0  0  0  0  0  0  0  0  0  0  0  0
  140.0490   72.5350  221.7780 C   0  0  0  0  0  0  0  0  0  0  0  0
  139.3130   73.7310  221.9980 N   0  0  0  0  0  0  0  0  0  0  0  0
  139.4730   74.9150  221.1470 C   0  0  0  0  0  0  0  0  0  0  0  0
  140.8110   75.4470  221.1780 C   0  0  0  0  0  0  0  0  0  0  0  0
  141.3380   75.6760  222.3230 O   0  0  0  0  0  0  0  0  0  0  0  0
  141.6670   75.7720  220.0720 N   0  0  0  0  0  0  0  0  0  0  0  0
  142.0180   77.1890  220.0180 C   0  0  0  0  0  0  0  0  0  0  0  0
  142.9330   77.4530  218.8830 C   0  0  0  0  0  0  0  0  0  0  0  0
  142.4900   76.7910  217.6340 C   0  0  0  0  0  0  0  0  0  0  0  0
  141.8960   75.4340  217.7380 C   0  0  0  0  0  0  0  0  0  0  0  0
  142.1050   74.7980  219.1020 C   0  0  1  0  0  0  0  0  0  0  0  0
  143.4220   74.1830  219.2820 C   0  0  0  0  0  0  0  0  0  0  0  0
  143.4470   72.6790  219.3670 C   0  0  0  0  0  0  0  0  0  0  0  0
  144.1460   72.1490  220.5660 C   0  0  0  0  0  0  0  0  0  0  0  0
  145.5520   72.6250  220.6170 C   0  0  0  0  0  0  0  0  0  0  0  0
  145.5720   74.1110  220.5470 C   0  0  0  0  0  0  0  0  0  0  0  0
  144.1960   74.7310  220.4650 C   0  0  0  0  0  0  0  0  0  0  0  0
  139.8150   71.4190  222.6880 C   0  0  0  0  0  0  0  0  0  0  0  0
  139.0020   70.3890  222.2050 C   0  0  0  0  0  0  0  0  0  0  0  0
  138.7510   69.3180  223.0370 C   0  0  0  0  0  0  0  0  0  0  0  0
  139.2830   69.2500  224.3120 C   0  0  0  0  0  0  0  0  0  0  0  0
  139.0420   68.1760  225.1590 C   0  0  0  0  0  0  0  0  0  0  0  0
  139.6070   68.1810  226.4000 C   0  0  0  0  0  0  0  0  0  0  0  0
  140.4110   69.2290  226.8340 C   0  0  0  0  0  0  0  0  0  0  0  0
  141.1250   69.1910  228.4480 Cl  0  0  0  0  0  0  0  0  0  0  0  0
  140.6390   70.2940  225.9730 C   0  0  0  0  0  0  0  0  0  0  0  0
  140.0720   70.3070  224.7050 C   0  0  0  0  0  0  0  0  0  0  0  0
  140.3370   71.3670  223.9210 N   0  0  0  0  0  0  0  0  0  0  0  0
  138.6260   73.7660  222.8060 H   0  0  0  0  0  0  0  0  0  0  0  0
  139.2284   74.6388  220.1107 H   0  0  0  0  0  0  0  0  0  0  0  0
  138.7977   75.6935  221.5317 H   0  0  0  0  0  0  0  0  0  0  0  0
  141.1019   77.7845  219.8908 H   0  0  0  0  0  0  0  0  0  0  0  0
  142.5232   77.4668  220.9548 H   0  0  0  0  0  0  0  0  0  0  0  0
  142.9778   78.5385  218.7106 H   0  0  0  0  0  0  0  0  0  0  0  0
  143.9201   77.0453  219.1465 H   0  0  0  0  0  0  0  0  0  0  0  0
  141.7369   77.4430  217.1674 H   0  0  0  0  0  0  0  0  0  0  0  0
  143.4154   76.6428  217.0580 H   0  0  0  0  0  0  0  0  0  0  0  0
  140.8151   75.5089  217.5479 H   0  0  0  0  0  0  0  0  0  0  0  0
  142.3998   74.7963  216.9967 H   0  0  0  0  0  0  0  0  0  0  0  0
  141.4914   73.8954  219.2393 H   0  0  0  0  0  0  0  0  0  0  0  0
  143.9130   74.4692  218.3402 H   0  0  0  0  0  0  0  0  0  0  0  0
  142.4084   72.3171  219.3849 H   0  0  0  0  0  0  0  0  0  0  0  0
  144.0074   72.3218  218.4904 H   0  0  0  0  0  0  0  0  0  0  0  0
  143.6183   72.4888  221.4694 H   0  0  0  0  0  0  0  0  0  0  0  0
  144.1500   71.0503  220.5119 H   0  0  0  0  0  0  0  0  0  0  0  0
  146.0174   72.2954  221.5576 H   0  0  0  0  0  0  0  0  0  0  0  0
  146.1125   72.2089  219.7669 H   0  0  0  0  0  0  0  0  0  0  0  0
  146.0734   74.4949  221.4476 H   0  0  0  0  0  0  0  0  0  0  0  0
  146.1044   74.3835  219.6238 H   0  0  0  0  0  0  0  0  0  0  0  0
  143.6449   74.5069  221.3902 H   0  0  0  0  0  0  0  0  0  0  0  0
  144.3086   75.8177  220.3367 H   0  0  0  0  0  0  0  0  0  0  0  0
  138.5754   70.4316  221.1920 H   0  0  0  0  0  0  0  0  0  0  0  0
  138.1121   68.4978  222.6778 H   0  0  0  0  0  0  0  0  0  0  0  0
  138.4077   67.3377  224.8350 H   0  0  0  0  0  0  0  0  0  0  0  0
  139.4217   67.3331  227.0759 H   0  0  0  0  0  0  0  0  0  0  0  0
  141.2726   71.1328  226.2970 H   0  0  0  0  0  0  0  0  0  0  0  0
  1  2  2  0
  2  3  1  0
  3  4  1  0
  4  5  1  0
  5  6  2  0
  5  7  1  0
  7  8  1  0
  8  9  1  0
  9 10  1  0
 10 11  1  0
 11 12  1  0
 12 13  1  0
 13 14  1  0
 14 15  1  0
 15 16  1  0
 16 17  1  0
 17 18  1  0
  2 19  1  0
 19 20  2  0
 20 21  1  0
 21 22  2  0
 22 23  1  0
 23 24  2  0
 24 25  1  0
 25 26  1  0
 25 27  2  0
 27 28  1  0
 28 29  2  0
 12  7  1  0
 18 13  1  0
 29 19  1  0
 28 22  1  0
  3 30  1  0
  4 31  1  0
  4 32  1  0
  8 33  1  0
  8 34  1  0
  9 35  1  0
  9 36  1  0
 10 37  1  0
 10 38  1  0
 11 39  1  0
 11 40  1  0
 12 41  1  6
 13 42  1  0
 14 43  1  0
 14 44  1  0
 15 45  1  0
 15 46  1  0
 16 47  1  0
 16 48  1  0
 17 49  1  0
 17 50  1  0
 18 51  1  0
 18 52  1  0
 20 53  1  0
 21 54  1  0
 23 55  1  0
 24 56  1  0
 27 57  1  0
M  END
>  <smiles>  (80) 
O=C(NCC(=O)N1CCCCC1C1CCCCC1)c1ccc2ccc(Cl)cc2n1

>  <score_type>  (80) 
oracle

>  <origin>  (80) 
autodockgpu

>  <m_score__min__energy>  (80) 
-8.8499999999999996

>  <m_primary>  (80) 
energy

>  <rmsd>  (80) 
2.438515781018098

>  <m_score__min__rmsd>  (80) 
2.438515781018098

>  <meeko>  (80) 
{"free_energy": -7.85, "intermolecular_energy": -9.34, "internal_energy": -1.91, "cluster_size": 2, "cluster_id": 3, "rank_in_cluster": 2}

>  <energy>  (80) 
-8.52

>  <cluster_rmsd>  (80) 
0.48

>  <cluster>  (80) 
2

$$$$

     RDKit          3D

 57 60  0  0  0  0  0  0  0  0999 V2000
  140.3010   78.0090  218.2120 O   0  0  0  0  0  0  0  0  0  0  0  0
  141.4730   77.7980  218.6540 C   0  0  0  0  0  0  0  0  0  0  0  0
  142.3260   78.8980  218.9410 N   0  0  0  0  0  0  0  0  0  0  0  0
  141.9030   80.2880  218.7410 C   0  0  0  0  0  0  0  0  0  0  0  0
  141.1590   80.8090  219.8580 C   0  0  0  0  0  0  0  0  0  0  0  0
  140.1370   81.5410  219.6080 O   0  0  0  0  0  0  0  0  0  0  0  0
  141.4090   80.6240  221.2600 N   0  0  0  0  0  0  0  0  0  0  0  0
  141.2190   81.8440  222.0410 C   0  0  0  0  0  0  0  0  0  0  0  0
  141.4510   81.5800  223.4800 C   0  0  0  0  0  0  0  0  0  0  0  0
  142.6730   80.7780  223.7170 C   0  0  0  0  0  0  0  0  0  0  0  0
  142.9890   79.6900  222.7570 C   0  0  0  0  0  0  0  0  0  0  0  0
  141.8340   79.3670  221.8250 C   0  0  1  0  0  0  0  0  0  0  0  0
  140.8170   78.4910  222.4110 C   0  0  0  0  0  0  0  0  0  0  0  0
  141.0450   77.0090  222.2530 C   0  0  0  0  0  0  0  0  0  0  0  0
  139.8970   76.2780  221.6590 C   0  0  0  0  0  0  0  0  0  0  0  0
  138.6700   76.4570  222.4770 C   0  0  0  0  0  0  0  0  0  0  0  0
  138.4010   77.9100  222.6490 C   0  0  0  0  0  0  0  0  0  0  0  0
  139.4060   78.7980  221.9500 C   0  0  0  0  0  0  0  0  0  0  0  0
  141.9970   76.4560  218.8850 C   0  0  0  0  0  0  0  0  0  0  0  0
  141.2560   75.4010  218.3430 C   0  0  0  0  0  0  0  0  0  0  0  0
  141.7150   74.1170  218.5450 C   0  0  0  0  0  0  0  0  0  0  0  0
  142.8720   73.8630  219.2580 C   0  0  0  0  0  0  0  0  0  0  0  0
  143.3480   72.5750  219.4660 C   0  0  0  0  0  0  0  0  0  0  0  0
  144.5000   72.4080  220.1760 C   0  0  0  0  0  0  0  0  0  0  0  0
  145.2030   73.4910  220.6950 C   0  0  0  0  0  0  0  0  0  0  0  0
  146.6930   73.2280  221.6050 Cl  0  0  0  0  0  0  0  0  0  0  0  0
  144.7100   74.7700  220.4770 C   0  0  0  0  0  0  0  0  0  0  0  0
  143.5390   74.9600  219.7560 C   0  0  0  0  0  0  0  0  0  0  0  0
  143.1210   76.2260  219.5800 N   0  0  0  0  0  0  0  0  0  0  0  0
  143.3010   78.7040  219.3120 H   0  0  0  0  0  0  0  0  0  0  0  0
  142.7979   80.9103  218.5934 H   0  0  0  0  0  0  0  0  0  0  0  0
  141.2419   80.3107  217.8621 H   0  0  0  0  0  0  0  0  0  0  0  0
  141.9285   82.6099  221.6945 H   0  0  0  0  0  0  0  0  0  0  0  0
  140.1855   82.1957  221.9059 H   0  0  0  0  0  0  0  0  0  0  0  0
  141.5527   82.5420  224.0037 H   0  0  0  0  0  0  0  0  0  0  0  0
  140.5934   81.0041  223.8578 H   0  0  0  0  0  0  0  0  0  0  0  0
  143.5257   81.4729  223.7164 H   0  0  0  0  0  0  0  0  0  0  0  0
  142.4813   80.2589  224.6677 H   0  0  0  0  0  0  0  0  0  0  0  0
  143.8534   79.9979  222.1504 H   0  0  0  0  0  0  0  0  0  0  0  0
  143.2012   78.7844  223.3442 H   0  0  0  0  0  0  0  0  0  0  0  0
  142.1400   78.7163  220.9925 H   0  0  0  0  0  0  0  0  0  0  0  0
  140.9295   78.7315  223.4785 H   0  0  0  0  0  0  0  0  0  0  0  0
  141.9211   76.8617  221.6043 H   0  0  0  0  0  0  0  0  0  0  0  0
  141.1911   76.6014  223.2642 H   0  0  0  0  0  0  0  0  0  0  0  0
  139.7122   76.6619  220.6449 H   0  0  0  0  0  0  0  0  0  0  0  0
  140.1431   75.2064  221.6270 H   0  0  0  0  0  0  0  0  0  0  0  0
  137.8173   75.9831  221.9688 H   0  0  0  0  0  0  0  0  0  0  0  0
  138.8129   75.9897  223.4625 H   0  0  0  0  0  0  0  0  0  0  0  0
  137.4021   78.1292  222.2439 H   0  0  0  0  0  0  0  0  0  0  0  0
  138.4724   78.1264  223.7251 H   0  0  0  0  0  0  0  0  0  0  0  0
  139.3384   78.6324  220.8646 H   0  0  0  0  0  0  0  0  0  0  0  0
  139.1778   79.8457  222.1956 H   0  0  0  0  0  0  0  0  0  0  0  0
  140.3346   75.5901  217.7727 H   0  0  0  0  0  0  0  0  0  0  0  0
  141.1461   73.2728  218.1282 H   0  0  0  0  0  0  0  0  0  0  0  0
  142.8058   71.7058  219.0654 H   0  0  0  0  0  0  0  0  0  0  0  0
  144.8837   71.3907  220.3429 H   0  0  0  0  0  0  0  0  0  0  0  0
  145.2511   75.6395  220.8785 H   0  0  0  0  0  0  0  0  0  0  0  0
  1  2  2  0
  2  3  1  0
  3  4  1  0
  4  5  1  0
  5  6  2  0
  5  7  1  0
  7  8  1  0
  8  9  1  0
  9 10  1  0
 10 11  1  0
 11 12  1  0
 12 13  1  0
 13 14  1  0
 14 15  1  0
 15 16  1  0
 16 17  1  0
 17 18  1  0
  2 19  1  0
 19 20  2  0
 20 21  1  0
 21 22  2  0
 22 23  1  0
 23 24  2  0
 24 25  1  0
 25 26  1  0
 25 27  2  0
 27 28  1  0
 28 29  2  0
 12  7  1  0
 18 13  1  0
 29 19  1  0
 28 22  1  0
  3 30  1  0
  4 31  1  0
  4 32  1  0
  8 33  1  0
  8 34  1  0
  9 35  1  0
  9 36  1  0
 10 37  1  0
 10 38  1  0
 11 39  1  0
 11 40  1  0
 12 41  1  6
 13 42  1  0
 14 43  1  0
 14 44  1  0
 15 45  1  0
 15 46  1  0
 16 47  1  0
 16 48  1  0
 17 49  1  0
 17 50  1  0
 18 51  1  0
 18 52  1  0
 20 53  1  0
 21 54  1  0
 23 55  1  0
 24 56  1  0
 27 57  1  0
M  END
>  <smiles>  (81) 
O=C(NCC(=O)N1CCCCC1C1CCCCC1)c1ccc2ccc(Cl)cc2n1

>  <score_type>  (81) 
oracle

>  <origin>  (81) 
autodockgpu

>  <m_score__min__energy>  (81) 
-8.8499999999999996

>  <m_primary>  (81) 
energy

>  <rmsd>  (81) 
7.74467422383137

>  <m_score__min__rmsd>  (81) 
7.74467422383137

>  <meeko>  (81) 
{"free_energy": -7.3, "intermolecular_energy": -8.8, "internal_energy": -2.9, "cluster_size": 11, "cluster_id": 6, "rank_in_cluster": 5}

>  <energy>  (81) 
-8.09

>  <cluster_rmsd>  (81) 
1.56

>  <cluster>  (81) 
2

$$$$

     RDKit          3D

 57 60  0  0  0  0  0  0  0  0999 V2000
  140.3180   78.1080  218.1690 O   0  0  0  0  0  0  0  0  0  0  0  0
  141.4550   77.8710  218.6840 C   0  0  0  0  0  0  0  0  0  0  0  0
  142.3380   78.9490  218.9680 N   0  0  0  0  0  0  0  0  0  0  0  0
  141.9850   80.3440  218.6810 C   0  0  0  0  0  0  0  0  0  0  0  0
  141.3400   80.9940  219.7920 C   0  0  0  0  0  0  0  0  0  0  0  0
  140.4920   81.9200  219.5330 O   0  0  0  0  0  0  0  0  0  0  0  0
  141.5180   80.7500  221.1950 N   0  0  0  0  0  0  0  0  0  0  0  0
  141.3810   81.9560  222.0080 C   0  0  0  0  0  0  0  0  0  0  0  0
  141.5350   81.6320  223.4460 C   0  0  0  0  0  0  0  0  0  0  0  0
  142.6880   80.7380  223.7040 C   0  0  0  0  0  0  0  0  0  0  0  0
  142.9670   79.6610  222.7210 C   0  0  0  0  0  0  0  0  0  0  0  0
  141.8320   79.4490  221.7340 C   0  0  1  0  0  0  0  0  0  0  0  0
  140.7330   78.6290  222.2500 C   0  0  0  0  0  0  0  0  0  0  0  0
  141.0770   77.2070  222.6100 C   0  0  0  0  0  0  0  0  0  0  0  0
  140.2040   76.1900  221.9680 C   0  0  0  0  0  0  0  0  0  0  0  0
  138.7780   76.4100  222.3250 C   0  0  0  0  0  0  0  0  0  0  0  0
  138.3940   77.8040  221.9750 C   0  0  0  0  0  0  0  0  0  0  0  0
  139.5140   78.6020  221.3490 C   0  0  0  0  0  0  0  0  0  0  0  0
  141.9080   76.5220  219.0060 C   0  0  0  0  0  0  0  0  0  0  0  0
  141.0400   75.4810  218.6610 C   0  0  0  0  0  0  0  0  0  0  0  0
  141.4290   74.1910  218.9540 C   0  0  0  0  0  0  0  0  0  0  0  0
  142.6380   73.9190  219.5690 C   0  0  0  0  0  0  0  0  0  0  0  0
  143.0440   72.6250  219.8660 C   0  0  0  0  0  0  0  0  0  0  0  0
  144.2530   72.4390  220.4690 C   0  0  0  0  0  0  0  0  0  0  0  0
  145.0820   73.5090  220.7910 C   0  0  0  0  0  0  0  0  0  0  0  0
  146.6420   73.2220  221.5680 Cl  0  0  0  0  0  0  0  0  0  0  0  0
  144.6570   74.7950  220.4870 C   0  0  0  0  0  0  0  0  0  0  0  0
  143.4300   75.0040  219.8740 C   0  0  0  0  0  0  0  0  0  0  0  0
  143.0820   76.2750  219.6030 N   0  0  0  0  0  0  0  0  0  0  0  0
  143.2820   78.7340  219.4020 H   0  0  0  0  0  0  0  0  0  0  0  0
  142.9042   80.8962  218.4356 H   0  0  0  0  0  0  0  0  0  0  0  0
  141.2755   80.3409  217.8404 H   0  0  0  0  0  0  0  0  0  0  0  0
  142.1554   82.6802  221.7150 H   0  0  0  0  0  0  0  0  0  0  0  0
  140.3809   82.3839  221.8445 H   0  0  0  0  0  0  0  0  0  0  0  0
  141.6818   82.5679  224.0051 H   0  0  0  0  0  0  0  0  0  0  0  0
  140.6246   81.1068  223.7705 H   0  0  0  0  0  0  0  0  0  0  0  0
  143.5863   81.3703  223.7605 H   0  0  0  0  0  0  0  0  0  0  0  0
  142.4214   80.2047  224.6284 H   0  0  0  0  0  0  0  0  0  0  0  0
  143.8750   79.9258  222.1593 H   0  0  0  0  0  0  0  0  0  0  0  0
  143.0912   78.7249  223.2852 H   0  0  0  0  0  0  0  0  0  0  0  0
  142.1272   78.8044  220.8929 H   0  0  0  0  0  0  0  0  0  0  0  0
  140.5025   79.1602  223.1852 H   0  0  0  0  0  0  0  0  0  0  0  0
  142.1154   77.0144  222.3025 H   0  0  0  0  0  0  0  0  0  0  0  0
  140.9304   77.1106  223.6959 H   0  0  0  0  0  0  0  0  0  0  0  0
  140.3159   76.2578  220.8758 H   0  0  0  0  0  0  0  0  0  0  0  0
  140.5050   75.1941  222.3253 H   0  0  0  0  0  0  0  0  0  0  0  0
  138.1461   75.7035  221.7669 H   0  0  0  0  0  0  0  0  0  0  0  0
  138.6388   76.2489  223.4042 H   0  0  0  0  0  0  0  0  0  0  0  0
  137.5553   77.7654  221.2643 H   0  0  0  0  0  0  0  0  0  0  0  0
  138.1243   78.3093  222.9141 H   0  0  0  0  0  0  0  0  0  0  0  0
  139.7879   78.1438  220.3872 H   0  0  0  0  0  0  0  0  0  0  0  0
  139.1665   79.6349  221.1994 H   0  0  0  0  0  0  0  0  0  0  0  0
  140.0766   75.6851  218.1710 H   0  0  0  0  0  0  0  0  0  0  0  0
  140.7612   73.3571  218.6921 H   0  0  0  0  0  0  0  0  0  0  0  0
  142.4026   71.7660  219.6196 H   0  0  0  0  0  0  0  0  0  0  0  0
  144.5813   71.4165  220.7070 H   0  0  0  0  0  0  0  0  0  0  0  0
  145.2976   75.6545  220.7339 H   0  0  0  0  0  0  0  0  0  0  0  0
  1  2  2  0
  2  3  1  0
  3  4  1  0
  4  5  1  0
  5  6  2  0
  5  7  1  0
  7  8  1  0
  8  9  1  0
  9 10  1  0
 10 11  1  0
 11 12  1  0
 12 13  1  0
 13 14  1  0
 14 15  1  0
 15 16  1  0
 16 17  1  0
 17 18  1  0
  2 19  1  0
 19 20  2  0
 20 21  1  0
 21 22  2  0
 22 23  1  0
 23 24  2  0
 24 25  1  0
 25 26  1  0
 25 27  2  0
 27 28  1  0
 28 29  2  0
 12  7  1  0
 18 13  1  0
 29 19  1  0
 28 22  1  0
  3 30  1  0
  4 31  1  0
  4 32  1  0
  8 33  1  0
  8 34  1  0
  9 35  1  0
  9 36  1  0
 10 37  1  0
 10 38  1  0
 11 39  1  0
 11 40  1  0
 12 41  1  6
 13 42  1  0
 14 43  1  0
 14 44  1  0
 15 45  1  0
 15 46  1  0
 16 47  1  0
 16 48  1  0
 17 49  1  0
 17 50  1  0
 18 51  1  0
 18 52  1  0
 20 53  1  0
 21 54  1  0
 23 55  1  0
 24 56  1  0
 27 57  1  0
M  END
>  <smiles>  (82) 
O=C(NCC(=O)N1CCCCC1C1CCCCC1)c1ccc2ccc(Cl)cc2n1

>  <score_type>  (82) 
oracle

>  <origin>  (82) 
autodockgpu

>  <m_score__min__energy>  (82) 
-8.8499999999999996

>  <m_primary>  (82) 
energy

>  <rmsd>  (82) 
7.696381440813945

>  <m_score__min__rmsd>  (82) 
7.696381440813945

>  <meeko>  (82) 
{"free_energy": -7.31, "intermolecular_energy": -8.8, "internal_energy": -2.99, "cluster_size": 11, "cluster_id": 6, "rank_in_cluster": 4}

>  <energy>  (82) 
-7.86

>  <cluster_rmsd>  (82) 
1.62

>  <cluster>  (82) 
2

$$$$

     RDKit          3D

 57 60  0  0  0  0  0  0  0  0999 V2000
  141.7030   72.3570  221.5460 O   0  0  0  0  0  0  0  0  0  0  0  0
  140.6920   72.4680  222.3070 C   0  0  0  0  0  0  0  0  0  0  0  0
  139.9690   73.6920  222.3430 N   0  0  0  0  0  0  0  0  0  0  0  0
  140.3510   74.8490  221.5270 C   0  0  0  0  0  0  0  0  0  0  0  0
  139.5660   76.0200  221.8180 C   0  0  0  0  0  0  0  0  0  0  0  0
  138.5080   75.8700  222.5260 O   0  0  0  0  0  0  0  0  0  0  0  0
  139.8040   77.3770  221.4140 N   0  0  0  0  0  0  0  0  0  0  0  0
  138.5850   78.0790  221.0220 C   0  0  0  0  0  0  0  0  0  0  0  0
  138.8890   79.4820  220.6560 C   0  0  0  0  0  0  0  0  0  0  0  0
  140.0760   79.5910  219.7760 C   0  0  0  0  0  0  0  0  0  0  0  0
  141.2220   78.6830  220.0360 C   0  0  0  0  0  0  0  0  0  0  0  0
  141.1200   77.9670  221.3720 C   0  0  1  0  0  0  0  0  0  0  0  0
  141.5560   78.7690  222.5180 C   0  0  0  0  0  0  0  0  0  0  0  0
  140.4670   79.4450  223.3100 C   0  0  0  0  0  0  0  0  0  0  0  0
  140.6630   80.9060  223.4880 C   0  0  0  0  0  0  0  0  0  0  0  0
  141.9530   81.1920  224.1670 C   0  0  0  0  0  0  0  0  0  0  0  0
  143.0600   80.5500  223.4090 C   0  0  0  0  0  0  0  0  0  0  0  0
  142.6000   79.8130  222.1720 C   0  0  0  0  0  0  0  0  0  0  0  0
  140.2270   71.3820  223.1640 C   0  0  0  0  0  0  0  0  0  0  0  0
  139.1660   70.6160  222.6690 C   0  0  0  0  0  0  0  0  0  0  0  0
  138.6940   69.5840  223.4510 C   0  0  0  0  0  0  0  0  0  0  0  0
  139.2430   69.3010  224.6880 C   0  0  0  0  0  0  0  0  0  0  0  0
  138.7800   68.2620  225.4850 C   0  0  0  0  0  0  0  0  0  0  0  0
  139.3780   68.0430  226.6910 C   0  0  0  0  0  0  0  0  0  0  0  0
  140.4320   68.8320  227.1380 C   0  0  0  0  0  0  0  0  0  0  0  0
  141.1800   68.5100  228.7050 Cl  0  0  0  0  0  0  0  0  0  0  0  0
  140.8800   69.8660  226.3280 C   0  0  0  0  0  0  0  0  0  0  0  0
  140.2840   70.1050  225.0970 C   0  0  0  0  0  0  0  0  0  0  0  0
  140.7700   71.1200  224.3610 N   0  0  0  0  0  0  0  0  0  0  0  0
  139.1250   73.7680  222.9820 H   0  0  0  0  0  0  0  0  0  0  0  0
  141.4096   75.0793  221.7174 H   0  0  0  0  0  0  0  0  0  0  0  0
  140.1740   74.5847  220.4740 H   0  0  0  0  0  0  0  0  0  0  0  0
  138.1355   77.5686  220.1574 H   0  0  0  0  0  0  0  0  0  0  0  0
  137.8846   78.0764  221.8702 H   0  0  0  0  0  0  0  0  0  0  0  0
  138.0202   79.9066  220.1317 H   0  0  0  0  0  0  0  0  0  0  0  0
  139.1074   80.0311  221.5838 H   0  0  0  0  0  0  0  0  0  0  0  0
  139.7379   79.4044  218.7460 H   0  0  0  0  0  0  0  0  0  0  0  0
  140.4728   80.5978  219.9731 H   0  0  0  0  0  0  0  0  0  0  0  0
  141.2604   77.9289  219.2361 H   0  0  0  0  0  0  0  0  0  0  0  0
  142.1320   79.3004  220.0619 H   0  0  0  0  0  0  0  0  0  0  0  0
  141.8523   77.1513  221.4631 H   0  0  0  0  0  0  0  0  0  0  0  0
  141.9946   77.9897  223.1585 H   0  0  0  0  0  0  0  0  0  0  0  0
  139.5115   79.2859  222.7887 H   0  0  0  0  0  0  0  0  0  0  0  0
  140.4828   78.9986  224.3152 H   0  0  0  0  0  0  0  0  0  0  0  0
  140.6606   81.3920  222.5012 H   0  0  0  0  0  0  0  0  0  0  0  0
  139.8450   81.2956  224.1119 H   0  0  0  0  0  0  0  0  0  0  0  0
  142.1155   82.2793  224.2045 H   0  0  0  0  0  0  0  0  0  0  0  0
  141.9271   80.7919  225.1913 H   0  0  0  0  0  0  0  0  0  0  0  0
  143.7711   81.3317  223.1036 H   0  0  0  0  0  0  0  0  0  0  0  0
  143.5176   79.8049  224.0764 H   0  0  0  0  0  0  0  0  0  0  0  0
  142.1663   80.5345  221.4639 H   0  0  0  0  0  0  0  0  0  0  0  0
  143.4671   79.3062  221.7233 H   0  0  0  0  0  0  0  0  0  0  0  0
  138.7221   70.8309  221.6857 H   0  0  0  0  0  0  0  0  0  0  0  0
  137.8594   68.9699  223.0817 H   0  0  0  0  0  0  0  0  0  0  0  0
  137.9464   67.6275  225.1497 H   0  0  0  0  0  0  0  0  0  0  0  0
  139.0171   67.2209  227.3265 H   0  0  0  0  0  0  0  0  0  0  0  0
  141.7133   70.5008  226.6637 H   0  0  0  0  0  0  0  0  0  0  0  0
  1  2  2  0
  2  3  1  0
  3  4  1  0
  4  5  1  0
  5  6  2  0
  5  7  1  0
  7  8  1  0
  8  9  1  0
  9 10  1  0
 10 11  1  0
 11 12  1  0
 12 13  1  0
 13 14  1  0
 14 15  1  0
 15 16  1  0
 16 17  1  0
 17 18  1  0
  2 19  1  0
 19 20  2  0
 20 21  1  0
 21 22  2  0
 22 23  1  0
 23 24  2  0
 24 25  1  0
 25 26  1  0
 25 27  2  0
 27 28  1  0
 28 29  2  0
 12  7  1  0
 18 13  1  0
 29 19  1  0
 28 22  1  0
  3 30  1  0
  4 31  1  0
  4 32  1  0
  8 33  1  0
  8 34  1  0
  9 35  1  0
  9 36  1  0
 10 37  1  0
 10 38  1  0
 11 39  1  0
 11 40  1  0
 12 41  1  6
 13 42  1  0
 14 43  1  0
 14 44  1  0
 15 45  1  0
 15 46  1  0
 16 47  1  0
 16 48  1  0
 17 49  1  0
 17 50  1  0
 18 51  1  0
 18 52  1  0
 20 53  1  0
 21 54  1  0
 23 55  1  0
 24 56  1  0
 27 57  1  0
M  END
>  <smiles>  (83) 
O=C(NCC(=O)N1CCCCC1C1CCCCC1)c1ccc2ccc(Cl)cc2n1

>  <score_type>  (83) 
oracle

>  <origin>  (83) 
autodockgpu

>  <m_score__min__energy>  (83) 
-8.8499999999999996

>  <m_primary>  (83) 
energy

>  <rmsd>  (83) 
2.7131898272643573

>  <m_score__min__rmsd>  (83) 
2.7131898272643573

>  <meeko>  (83) 
{"free_energy": -8.78, "intermolecular_energy": -10.27, "internal_energy": -1.79, "cluster_size": 28, "cluster_id": 1, "rank_in_cluster": 2}

>  <energy>  (83) 
-7.96

>  <cluster_rmsd>  (83) 
0.0

>  <cluster>  (83) 
3

$$$$

     RDKit          3D

 57 60  0  0  0  0  0  0  0  0999 V2000
  140.1590   78.1550  218.3610 O   0  0  0  0  0  0  0  0  0  0  0  0
  141.3360   77.9300  218.7820 C   0  0  0  0  0  0  0  0  0  0  0  0
  142.2210   79.0190  219.0140 N   0  0  0  0  0  0  0  0  0  0  0  0
  141.8240   80.4110  218.7790 C   0  0  0  0  0  0  0  0  0  0  0  0
  141.2730   81.0380  219.9520 C   0  0  0  0  0  0  0  0  0  0  0  0
  140.4630   82.0180  219.7820 O   0  0  0  0  0  0  0  0  0  0  0  0
  141.5100   80.7160  221.3310 N   0  0  0  0  0  0  0  0  0  0  0  0
  141.4400   81.8800  222.2100 C   0  0  0  0  0  0  0  0  0  0  0  0
  141.6520   81.4790  223.6200 C   0  0  0  0  0  0  0  0  0  0  0  0
  142.7950   80.5480  223.7760 C   0  0  0  0  0  0  0  0  0  0  0  0
  143.0020   79.5180  222.7270 C   0  0  0  0  0  0  0  0  0  0  0  0
  141.8180   79.3820  221.7860 C   0  0  1  0  0  0  0  0  0  0  0  0
  140.7250   78.5600  222.3110 C   0  0  0  0  0  0  0  0  0  0  0  0
  141.0550   77.1170  222.5930 C   0  0  0  0  0  0  0  0  0  0  0  0
  140.1370   76.1460  221.9440 C   0  0  0  0  0  0  0  0  0  0  0  0
  138.7320   76.3750  222.3690 C   0  0  0  0  0  0  0  0  0  0  0  0
  138.3610   77.7900  222.0970 C   0  0  0  0  0  0  0  0  0  0  0  0
  139.4700   78.5950  221.4610 C   0  0  0  0  0  0  0  0  0  0  0  0
  141.8350   76.5840  219.0450 C   0  0  0  0  0  0  0  0  0  0  0  0
  141.0100   75.5300  218.6400 C   0  0  0  0  0  0  0  0  0  0  0  0
  141.4430   74.2430  218.8760 C   0  0  0  0  0  0  0  0  0  0  0  0
  142.6540   73.9860  219.4920 C   0  0  0  0  0  0  0  0  0  0  0  0
  143.1050   72.6940  219.7320 C   0  0  0  0  0  0  0  0  0  0  0  0
  144.3140   72.5240  220.3400 C   0  0  0  0  0  0  0  0  0  0  0  0
  145.0990   73.6060  220.7220 C   0  0  0  0  0  0  0  0  0  0  0  0
  146.6600   73.3380  221.5020 Cl  0  0  0  0  0  0  0  0  0  0  0  0
  144.6310   74.8890  220.4740 C   0  0  0  0  0  0  0  0  0  0  0  0
  143.4030   75.0830  219.8570 C   0  0  0  0  0  0  0  0  0  0  0  0
  143.0120   76.3510  219.6430 N   0  0  0  0  0  0  0  0  0  0  0  0
  143.1990   78.8140  219.3690 H   0  0  0  0  0  0  0  0  0  0  0  0
  142.7093   80.9800  218.4590 H   0  0  0  0  0  0  0  0  0  0  0  0
  141.0413   80.4069  218.0061 H   0  0  0  0  0  0  0  0  0  0  0  0
  142.2175   82.6013  221.9180 H   0  0  0  0  0  0  0  0  0  0  0  0
  140.4439   82.3372  222.1162 H   0  0  0  0  0  0  0  0  0  0  0  0
  141.8467   82.3811  224.2186 H   0  0  0  0  0  0  0  0  0  0  0  0
  140.7453   80.9577  223.9608 H   0  0  0  0  0  0  0  0  0  0  0  0
  143.7096   81.1574  223.8213 H   0  0  0  0  0  0  0  0  0  0  0  0
  142.5596   79.9729  224.6837 H   0  0  0  0  0  0  0  0  0  0  0  0
  143.8889   79.7922  222.1369 H   0  0  0  0  0  0  0  0  0  0  0  0
  143.1299   78.5514  223.2362 H   0  0  0  0  0  0  0  0  0  0  0  0
  142.0585   78.7762  220.8999 H   0  0  0  0  0  0  0  0  0  0  0  0
  140.5436   79.0531  223.2774 H   0  0  0  0  0  0  0  0  0  0  0  0
  142.0760   76.9198  222.2342 H   0  0  0  0  0  0  0  0  0  0  0  0
  140.9508   76.9745  223.6787 H   0  0  0  0  0  0  0  0  0  0  0  0
  140.2057   76.2607  220.8522 H   0  0  0  0  0  0  0  0  0  0  0  0
  140.4326   75.1299  222.2444 H   0  0  0  0  0  0  0  0  0  0  0  0
  138.0642   75.7054  221.8071 H   0  0  0  0  0  0  0  0  0  0  0  0
  138.6339   76.1684  223.4450 H   0  0  0  0  0  0  0  0  0  0  0  0
  137.4936   77.7981  221.4206 H   0  0  0  0  0  0  0  0  0  0  0  0
  138.1393   78.2574  223.0677 H   0  0  0  0  0  0  0  0  0  0  0  0
  139.6956   78.1755  220.4695 H   0  0  0  0  0  0  0  0  0  0  0  0
  139.1371   79.6396  221.3716 H   0  0  0  0  0  0  0  0  0  0  0  0
  140.0450   75.7222  218.1481 H   0  0  0  0  0  0  0  0  0  0  0  0
  140.8092   73.3989  218.5665 H   0  0  0  0  0  0  0  0  0  0  0  0
  142.4986   71.8248  219.4373 H   0  0  0  0  0  0  0  0  0  0  0  0
  144.6775   71.5039  220.5332 H   0  0  0  0  0  0  0  0  0  0  0  0
  145.2376   75.7581  220.7685 H   0  0  0  0  0  0  0  0  0  0  0  0
  1  2  2  0
  2  3  1  0
  3  4  1  0
  4  5  1  0
  5  6  2  0
  5  7  1  0
  7  8  1  0
  8  9  1  0
  9 10  1  0
 10 11  1  0
 11 12  1  0
 12 13  1  0
 13 14  1  0
 14 15  1  0
 15 16  1  0
 16 17  1  0
 17 18  1  0
  2 19  1  0
 19 20  2  0
 20 21  1  0
 21 22  2  0
 22 23  1  0
 23 24  2  0
 24 25  1  0
 25 26  1  0
 25 27  2  0
 27 28  1  0
 28 29  2  0
 12  7  1  0
 18 13  1  0
 29 19  1  0
 28 22  1  0
  3 30  1  0
  4 31  1  0
  4 32  1  0
  8 33  1  0
  8 34  1  0
  9 35  1  0
  9 36  1  0
 10 37  1  0
 10 38  1  0
 11 39  1  0
 11 40  1  0
 12 41  1  6
 13 42  1  0
 14 43  1  0
 14 44  1  0
 15 45  1  0
 15 46  1  0
 16 47  1  0
 16 48  1  0
 17 49  1  0
 17 50  1  0
 18 51  1  0
 18 52  1  0
 20 53  1  0
 21 54  1  0
 23 55  1  0
 24 56  1  0
 27 57  1  0
M  END
>  <smiles>  (84) 
O=C(NCC(=O)N1CCCCC1C1CCCCC1)c1ccc2ccc(Cl)cc2n1

>  <score_type>  (84) 
oracle

>  <origin>  (84) 
autodockgpu

>  <m_score__min__energy>  (84) 
-8.8499999999999996

>  <m_primary>  (84) 
energy

>  <rmsd>  (84) 
7.7252730894398125

>  <m_score__min__rmsd>  (84) 
7.7252730894398125

>  <meeko>  (84) 
{"free_energy": -7.32, "intermolecular_energy": -8.81, "internal_energy": -2.99, "cluster_size": 11, "cluster_id": 6, "rank_in_cluster": 2}

>  <energy>  (84) 
-7.85

>  <cluster_rmsd>  (84) 
0.94

>  <cluster>  (84) 
3

$$$$

     RDKit          3D

 57 60  0  0  0  0  0  0  0  0999 V2000
  141.5570   73.0740  221.6470 O   0  0  0  0  0  0  0  0  0  0  0  0
  140.4740   72.9830  222.3030 C   0  0  0  0  0  0  0  0  0  0  0  0
  139.5710   74.0810  222.3280 N   0  0  0  0  0  0  0  0  0  0  0  0
  139.8470   75.3350  221.6190 C   0  0  0  0  0  0  0  0  0  0  0  0
  138.7610   76.2760  221.7080 C   0  0  0  0  0  0  0  0  0  0  0  0
  137.5670   75.8260  221.5820 O   0  0  0  0  0  0  0  0  0  0  0  0
  138.8240   77.6940  221.9220 N   0  0  0  0  0  0  0  0  0  0  0  0
  137.9440   78.1510  222.9950 C   0  0  0  0  0  0  0  0  0  0  0  0
  138.0840   79.6120  223.1940 C   0  0  0  0  0  0  0  0  0  0  0  0
  138.0790   80.3600  221.9150 C   0  0  0  0  0  0  0  0  0  0  0  0
  138.7730   79.7530  220.7510 C   0  0  0  0  0  0  0  0  0  0  0  0
  139.6510   78.5730  221.1330 C   0  0  1  0  0  0  0  0  0  0  0  0
  140.9650   78.9490  221.6600 C   0  0  0  0  0  0  0  0  0  0  0  0
  141.3530   78.3300  222.9790 C   0  0  0  0  0  0  0  0  0  0  0  0
  141.7690   79.3130  224.0120 C   0  0  0  0  0  0  0  0  0  0  0  0
  142.9220   80.1240  223.5410 C   0  0  0  0  0  0  0  0  0  0  0  0
  142.5760   80.7640  222.2430 C   0  0  0  0  0  0  0  0  0  0  0  0
  141.1770   80.4460  221.7660 C   0  0  0  0  0  0  0  0  0  0  0  0
  140.1020   71.7840  223.0460 C   0  0  0  0  0  0  0  0  0  0  0  0
  139.1810   70.9330  222.4250 C   0  0  0  0  0  0  0  0  0  0  0  0
  138.7990   69.7920  223.0980 C   0  0  0  0  0  0  0  0  0  0  0  0
  139.3040   69.4830  224.3480 C   0  0  0  0  0  0  0  0  0  0  0  0
  138.9310   68.3350  225.0350 C   0  0  0  0  0  0  0  0  0  0  0  0
  139.4780   68.0990  226.2620 C   0  0  0  0  0  0  0  0  0  0  0  0
  140.3920   68.9760  226.8370 C   0  0  0  0  0  0  0  0  0  0  0  0
  141.0780   68.6270  228.4260 Cl  0  0  0  0  0  0  0  0  0  0  0  0
  140.7510   70.1180  226.1340 C   0  0  0  0  0  0  0  0  0  0  0  0
  140.2050   70.3760  224.8840 C   0  0  0  0  0  0  0  0  0  0  0  0
  140.6000   71.4980  224.2580 N   0  0  0  0  0  0  0  0  0  0  0  0
  138.6690   73.9870  222.8780 H   0  0  0  0  0  0  0  0  0  0  0  0
  140.7468   75.7943  222.0542 H   0  0  0  0  0  0  0  0  0  0  0  0
  139.9877   75.0907  220.5557 H   0  0  0  0  0  0  0  0  0  0  0  0
  136.9014   77.9199  222.7312 H   0  0  0  0  0  0  0  0  0  0  0  0
  138.2224   77.6368  223.9267 H   0  0  0  0  0  0  0  0  0  0  0  0
  137.2466   79.9659  223.8133 H   0  0  0  0  0  0  0  0  0  0  0  0
  139.0523   79.7922  223.6838 H   0  0  0  0  0  0  0  0  0  0  0  0
  137.0278   80.5100  221.6276 H   0  0  0  0  0  0  0  0  0  0  0  0
  138.6500   81.2754  222.1292 H   0  0  0  0  0  0  0  0  0  0  0  0
  138.0154   79.4081  220.0319 H   0  0  0  0  0  0  0  0  0  0  0  0
  139.4276   80.5243  220.3191 H   0  0  0  0  0  0  0  0  0  0  0  0
  139.9917   78.0054  220.2545 H   0  0  0  0  0  0  0  0  0  0  0  0
  141.6246   78.5260  220.8880 H   0  0  0  0  0  0  0  0  0  0  0  0
  140.4891   77.7687  223.3645 H   0  0  0  0  0  0  0  0  0  0  0  0
  142.2244   77.6878  222.7835 H   0  0  0  0  0  0  0  0  0  0  0  0
  140.9244   79.9824  224.2325 H   0  0  0  0  0  0  0  0  0  0  0  0
  142.0720   78.7646  224.9161 H   0  0  0  0  0  0  0  0  0  0  0  0
  143.1522   80.9016  224.2842 H   0  0  0  0  0  0  0  0  0  0  0  0
  143.7998   79.4743  223.4089 H   0  0  0  0  0  0  0  0  0  0  0  0
  142.6649   81.8543  222.3581 H   0  0  0  0  0  0  0  0  0  0  0  0
  143.2722   80.3650  221.4906 H   0  0  0  0  0  0  0  0  0  0  0  0
  140.4506   80.8623  222.4795 H   0  0  0  0  0  0  0  0  0  0  0  0
  141.0376   80.8905  220.7695 H   0  0  0  0  0  0  0  0  0  0  0  0
  138.7742   71.1673  221.4302 H   0  0  0  0  0  0  0  0  0  0  0  0
  138.0743   69.1102  222.6290 H   0  0  0  0  0  0  0  0  0  0  0  0
  138.2086   67.6299  224.5981 H   0  0  0  0  0  0  0  0  0  0  0  0
  139.1887   67.1910  226.8115 H   0  0  0  0  0  0  0  0  0  0  0  0
  141.4733   70.8235  226.5706 H   0  0  0  0  0  0  0  0  0  0  0  0
  1  2  2  0
  2  3  1  0
  3  4  1  0
  4  5  1  0
  5  6  2  0
  5  7  1  0
  7  8  1  0
  8  9  1  0
  9 10  1  0
 10 11  1  0
 11 12  1  0
 12 13  1  0
 13 14  1  0
 14 15  1  0
 15 16  1  0
 16 17  1  0
 17 18  1  0
  2 19  1  0
 19 20  2  0
 20 21  1  0
 21 22  2  0
 22 23  1  0
 23 24  2  0
 24 25  1  0
 25 26  1  0
 25 27  2  0
 27 28  1  0
 28 29  2  0
 12  7  1  0
 18 13  1  0
 29 19  1  0
 28 22  1  0
  3 30  1  0
  4 31  1  0
  4 32  1  0
  8 33  1  0
  8 34  1  0
  9 35  1  0
  9 36  1  0
 10 37  1  0
 10 38  1  0
 11 39  1  0
 11 40  1  0
 12 41  1  6
 13 42  1  0
 14 43  1  0
 14 44  1  0
 15 45  1  0
 15 46  1  0
 16 47  1  0
 16 48  1  0
 17 49  1  0
 17 50  1  0
 18 51  1  0
 18 52  1  0
 20 53  1  0
 21 54  1  0
 23 55  1  0
 24 56  1  0
 27 57  1  0
M  END
>  <smiles>  (85) 
O=C(NCC(=O)N1CCCCC1C1CCCCC1)c1ccc2ccc(Cl)cc2n1

>  <score_type>  (85) 
oracle

>  <origin>  (85) 
autodockgpu

>  <m_score__min__energy>  (85) 
-8.8499999999999996

>  <m_primary>  (85) 
energy

>  <rmsd>  (85) 
3.6380287451831093

>  <m_score__min__rmsd>  (85) 
3.6380287451831093

>  <meeko>  (85) 
{"free_energy": -8.5, "intermolecular_energy": -10.0, "internal_energy": -1.6, "cluster_size": 28, "cluster_id": 1, "rank_in_cluster": 18}

>  <energy>  (85) 
-7.67

>  <cluster_rmsd>  (85) 
0.0

>  <cluster>  (85) 
4

$$$$

     RDKit          3D

 57 60  0  0  0  0  0  0  0  0999 V2000
  140.2770   73.3260  220.3850 O   0  0  0  0  0  0  0  0  0  0  0  0
  139.8560   73.3980  221.5810 C   0  0  0  0  0  0  0  0  0  0  0  0
  139.4520   74.6540  222.1110 N   0  0  0  0  0  0  0  0  0  0  0  0
  139.5060   75.8890  221.3220 C   0  0  0  0  0  0  0  0  0  0  0  0
  139.6440   77.0660  222.1380 C   0  0  0  0  0  0  0  0  0  0  0  0
  138.8040   77.2350  223.0920 O   0  0  0  0  0  0  0  0  0  0  0  0
  140.6170   78.1170  222.0330 N   0  0  0  0  0  0  0  0  0  0  0  0
  141.3970   78.2980  223.2540 C   0  0  0  0  0  0  0  0  0  0  0  0
  142.4090   79.3650  223.0690 C   0  0  0  0  0  0  0  0  0  0  0  0
  141.8480   80.5670  222.4090 C   0  0  0  0  0  0  0  0  0  0  0  0
  140.8520   80.3650  221.3250 C   0  0  0  0  0  0  0  0  0  0  0  0
  140.7780   78.9250  220.8490 C   0  0  1  0  0  0  0  0  0  0  0  0
  141.8230   78.5540  219.8930 C   0  0  0  0  0  0  0  0  0  0  0  0
  141.6300   79.0340  218.4770 C   0  0  0  0  0  0  0  0  0  0  0  0
  141.7120   77.9590  217.4550 C   0  0  0  0  0  0  0  0  0  0  0  0
  143.0230   77.2620  217.5170 C   0  0  0  0  0  0  0  0  0  0  0  0
  143.2490   76.7620  218.9000 C   0  0  0  0  0  0  0  0  0  0  0  0
  142.1100   77.0660  219.8470 C   0  0  0  0  0  0  0  0  0  0  0  0
  139.7650   72.2330  222.4550 C   0  0  0  0  0  0  0  0  0  0  0  0
  139.2070   71.0810  221.8930 C   0  0  0  0  0  0  0  0  0  0  0  0
  139.0980   69.9600  222.6880 C   0  0  0  0  0  0  0  0  0  0  0  0
  139.5240   69.9600  224.0040 C   0  0  0  0  0  0  0  0  0  0  0  0
  139.4240   68.8370  224.8150 C   0  0  0  0  0  0  0  0  0  0  0  0
  139.8710   68.9150  226.1010 C   0  0  0  0  0  0  0  0  0  0  0  0
  140.4200   70.0850  226.6150 C   0  0  0  0  0  0  0  0  0  0  0  0
  140.9910   70.1400  228.2850 Cl  0  0  0  0  0  0  0  0  0  0  0  0
  140.5110   71.1970  225.7880 C   0  0  0  0  0  0  0  0  0  0  0  0
  140.0610   71.1370  224.4760 C   0  0  0  0  0  0  0  0  0  0  0  0
  140.1820   72.2490  223.7300 N   0  0  0  0  0  0  0  0  0  0  0  0
  139.1000   74.6960  223.1110 H   0  0  0  0  0  0  0  0  0  0  0  0
  140.3661   75.8322  220.6386 H   0  0  0  0  0  0  0  0  0  0  0  0
  138.5554   75.9746  220.7751 H   0  0  0  0  0  0  0  0  0  0  0  0
  140.7224   78.5774  224.0767 H   0  0  0  0  0  0  0  0  0  0  0  0
  141.9124   77.3554  223.4904 H   0  0  0  0  0  0  0  0  0  0  0  0
  142.8017   79.6542  224.0550 H   0  0  0  0  0  0  0  0  0  0  0  0
  143.2027   78.9658  222.4204 H   0  0  0  0  0  0  0  0  0  0  0  0
  141.3644   81.1732  223.1891 H   0  0  0  0  0  0  0  0  0  0  0  0
  142.7092   81.0335  221.9083 H   0  0  0  0  0  0  0  0  0  0  0  0
  139.8612   80.6619  221.6994 H   0  0  0  0  0  0  0  0  0  0  0  0
  141.1680   80.9790  220.4688 H   0  0  0  0  0  0  0  0  0  0  0  0
  139.9056   78.7443  220.2038 H   0  0  0  0  0  0  0  0  0  0  0  0
  142.6847   79.0950  220.3112 H   0  0  0  0  0  0  0  0  0  0  0  0
  140.6386   79.5049  218.4041 H   0  0  0  0  0  0  0  0  0  0  0  0
  142.4505   79.7355  218.2656 H   0  0  0  0  0  0  0  0  0  0  0  0
  140.9084   77.2298  217.6351 H   0  0  0  0  0  0  0  0  0  0  0  0
  141.6045   78.4140  216.4593 H   0  0  0  0  0  0  0  0  0  0  0  0
  143.0223   76.4147  216.8155 H   0  0  0  0  0  0  0  0  0  0  0  0
  143.8259   77.9620  217.2424 H   0  0  0  0  0  0  0  0  0  0  0  0
  143.3844   75.6712  218.8577 H   0  0  0  0  0  0  0  0  0  0  0  0
  144.1386   77.2791  219.2887 H   0  0  0  0  0  0  0  0  0  0  0  0
  141.2081   76.5362  219.5065 H   0  0  0  0  0  0  0  0  0  0  0  0
  142.3952   76.7331  220.8559 H   0  0  0  0  0  0  0  0  0  0  0  0
  138.8651   71.0693  220.8476 H   0  0  0  0  0  0  0  0  0  0  0  0
  138.6615   69.0430  222.2654 H   0  0  0  0  0  0  0  0  0  0  0  0
  138.9924   67.9024  224.4274 H   0  0  0  0  0  0  0  0  0  0  0  0
  139.7954   68.0293  226.7489 H   0  0  0  0  0  0  0  0  0  0  0  0
  140.9426   72.1318  226.1752 H   0  0  0  0  0  0  0  0  0  0  0  0
  1  2  2  0
  2  3  1  0
  3  4  1  0
  4  5  1  0
  5  6  2  0
  5  7  1  0
  7  8  1  0
  8  9  1  0
  9 10  1  0
 10 11  1  0
 11 12  1  0
 12 13  1  0
 13 14  1  0
 14 15  1  0
 15 16  1  0
 16 17  1  0
 17 18  1  0
  2 19  1  0
 19 20  2  0
 20 21  1  0
 21 22  2  0
 22 23  1  0
 23 24  2  0
 24 25  1  0
 25 26  1  0
 25 27  2  0
 27 28  1  0
 28 29  2  0
 12  7  1  0
 18 13  1  0
 29 19  1  0
 28 22  1  0
  3 30  1  0
  4 31  1  0
  4 32  1  0
  8 33  1  0
  8 34  1  0
  9 35  1  0
  9 36  1  0
 10 37  1  0
 10 38  1  0
 11 39  1  0
 11 40  1  0
 12 41  1  6
 13 42  1  0
 14 43  1  0
 14 44  1  0
 15 45  1  0
 15 46  1  0
 16 47  1  0
 16 48  1  0
 17 49  1  0
 17 50  1  0
 18 51  1  0
 18 52  1  0
 20 53  1  0
 21 54  1  0
 23 55  1  0
 24 56  1  0
 27 57  1  0
M  END
>  <smiles>  (86) 
O=C(NCC(=O)N1CCCCC1C1CCCCC1)c1ccc2ccc(Cl)cc2n1

>  <score_type>  (86) 
oracle

>  <origin>  (86) 
autodockgpu

>  <m_score__min__energy>  (86) 
-8.8499999999999996

>  <m_primary>  (86) 
energy

>  <rmsd>  (86) 
3.7833774418643946

>  <m_score__min__rmsd>  (86) 
3.7833774418643946

>  <meeko>  (86) 
{"free_energy": -8.19, "intermolecular_energy": -9.68, "internal_energy": -1.76, "cluster_size": 28, "cluster_id": 1, "rank_in_cluster": 25}

>  <energy>  (86) 
-7.6

>  <cluster_rmsd>  (86) 
0.0

>  <cluster>  (86) 
5

$$$$

     RDKit          3D

 57 60  0  0  0  0  0  0  0  0999 V2000
  137.8620   72.1360  220.7290 O   0  0  0  0  0  0  0  0  0  0  0  0
  138.5140   72.2330  221.8150 C   0  0  0  0  0  0  0  0  0  0  0  0
  139.0690   73.4850  222.1940 N   0  0  0  0  0  0  0  0  0  0  0  0
  138.9200   74.6880  221.3670 C   0  0  0  0  0  0  0  0  0  0  0  0
  140.0710   75.5510  221.4270 C   0  0  0  0  0  0  0  0  0  0  0  0
  140.9760   75.2830  222.2940 O   0  0  0  0  0  0  0  0  0  0  0  0
  140.3580   76.7120  220.6320 N   0  0  0  0  0  0  0  0  0  0  0  0
  139.4510   76.8660  219.4970 C   0  0  0  0  0  0  0  0  0  0  0  0
  139.7720   78.0990  218.7410 C   0  0  0  0  0  0  0  0  0  0  0  0
  141.2270   78.2540  218.5050 C   0  0  0  0  0  0  0  0  0  0  0  0
  142.1560   77.8500  219.5900 C   0  0  0  0  0  0  0  0  0  0  0  0
  141.4520   77.6090  220.9150 C   0  0  1  0  0  0  0  0  0  0  0  0
  141.1690   78.8280  221.6750 C   0  0  0  0  0  0  0  0  0  0  0  0
  142.2030   79.9210  221.5880 C   0  0  0  0  0  0  0  0  0  0  0  0
  142.6840   80.4090  222.9060 C   0  0  0  0  0  0  0  0  0  0  0  0
  141.5570   80.9230  223.7270 C   0  0  0  0  0  0  0  0  0  0  0  0
  140.5150   79.8680  223.8480 C   0  0  0  0  0  0  0  0  0  0  0  0
  140.8730   78.5800  223.1410 C   0  0  0  0  0  0  0  0  0  0  0  0
  138.7260   71.1000  222.7100 C   0  0  0  0  0  0  0  0  0  0  0  0
  138.2840   69.8560  222.2470 C   0  0  0  0  0  0  0  0  0  0  0  0
  138.4600   68.7620  223.0660 C   0  0  0  0  0  0  0  0  0  0  0  0
  139.0560   68.8730  224.3080 C   0  0  0  0  0  0  0  0  0  0  0  0
  139.2440   67.7780  225.1420 C   0  0  0  0  0  0  0  0  0  0  0  0
  139.8450   67.9700  226.3510 C   0  0  0  0  0  0  0  0  0  0  0  0
  140.2690   69.2280  226.7660 C   0  0  0  0  0  0  0  0  0  0  0  0
  141.0460   69.4290  228.3390 Cl  0  0  0  0  0  0  0  0  0  0  0  0
  140.0710   70.3090  225.9190 C   0  0  0  0  0  0  0  0  0  0  0  0
  139.4610   70.1340  224.6840 C   0  0  0  0  0  0  0  0  0  0  0  0
  139.3050   71.2240  223.9120 N   0  0  0  0  0  0  0  0  0  0  0  0
  139.6080   73.5500  223.1050 H   0  0  0  0  0  0  0  0  0  0  0  0
  138.7656   74.3798  220.3224 H   0  0  0  0  0  0  0  0  0  0  0  0
  138.0606   75.2537  221.7561 H   0  0  0  0  0  0  0  0  0  0  0  0
  139.5529   75.9962  218.8314 H   0  0  0  0  0  0  0  0  0  0  0  0
  138.4195   76.9368  219.8725 H   0  0  0  0  0  0  0  0  0  0  0  0
  139.2585   78.0612  217.7690 H   0  0  0  0  0  0  0  0  0  0  0  0
  139.4361   78.9575  219.3411 H   0  0  0  0  0  0  0  0  0  0  0  0
  141.4801   77.6550  217.6178 H   0  0  0  0  0  0  0  0  0  0  0  0
  141.3752   79.3395  218.4065 H   0  0  0  0  0  0  0  0  0  0  0  0
  142.6641   76.9219  219.2891 H   0  0  0  0  0  0  0  0  0  0  0  0
  142.8661   78.6766  219.7401 H   0  0  0  0  0  0  0  0  0  0  0  0
  142.1051   77.1148  221.6493 H   0  0  0  0  0  0  0  0  0  0  0  0
  140.2655   79.1858  221.1597 H   0  0  0  0  0  0  0  0  0  0  0  0
  143.0667   79.5352  221.0266 H   0  0  0  0  0  0  0  0  0  0  0  0
  141.7197   80.7752  221.0913 H   0  0  0  0  0  0  0  0  0  0  0  0
  143.1700   79.5799  223.4411 H   0  0  0  0  0  0  0  0  0  0  0  0
  143.3972   81.2292  222.7371 H   0  0  0  0  0  0  0  0  0  0  0  0
  141.9248   81.1926  224.7280 H   0  0  0  0  0  0  0  0  0  0  0  0
  141.1260   81.8128  223.2448 H   0  0  0  0  0  0  0  0  0  0  0  0
  140.3644   79.6486  224.9153 H   0  0  0  0  0  0  0  0  0  0  0  0
  139.6046   80.2571  223.3685 H   0  0  0  0  0  0  0  0  0  0  0  0
  141.7624   78.1430  223.6185 H   0  0  0  0  0  0  0  0  0  0  0  0
  140.0183   77.8914  223.2139 H   0  0  0  0  0  0  0  0  0  0  0  0
  137.8105   69.7544  221.2594 H   0  0  0  0  0  0  0  0  0  0  0  0
  138.1173   67.7748  222.7224 H   0  0  0  0  0  0  0  0  0  0  0  0
  138.9143   66.7751  224.8330 H   0  0  0  0  0  0  0  0  0  0  0  0
  139.9985   67.1070  227.0156 H   0  0  0  0  0  0  0  0  0  0  0  0
  140.3997   71.3122  226.2282 H   0  0  0  0  0  0  0  0  0  0  0  0
  1  2  2  0
  2  3  1  0
  3  4  1  0
  4  5  1  0
  5  6  2  0
  5  7  1  0
  7  8  1  0
  8  9  1  0
  9 10  1  0
 10 11  1  0
 11 12  1  0
 12 13  1  0
 13 14  1  0
 14 15  1  0
 15 16  1  0
 16 17  1  0
 17 18  1  0
  2 19  1  0
 19 20  2  0
 20 21  1  0
 21 22  2  0
 22 23  1  0
 23 24  2  0
 24 25  1  0
 25 26  1  0
 25 27  2  0
 27 28  1  0
 28 29  2  0
 12  7  1  0
 18 13  1  0
 29 19  1  0
 28 22  1  0
  3 30  1  0
  4 31  1  0
  4 32  1  0
  8 33  1  0
  8 34  1  0
  9 35  1  0
  9 36  1  0
 10 37  1  0
 10 38  1  0
 11 39  1  0
 11 40  1  0
 12 41  1  1
 13 42  1  0
 14 43  1  0
 14 44  1  0
 15 45  1  0
 15 46  1  0
 16 47  1  0
 16 48  1  0
 17 49  1  0
 17 50  1  0
 18 51  1  0
 18 52  1  0
 20 53  1  0
 21 54  1  0
 23 55  1  0
 24 56  1  0
 27 57  1  0
M  END
>  <smiles>  (87) 
O=C(NCC(=O)N1CCCCC1C1CCCCC1)c1ccc2ccc(Cl)cc2n1

>  <score_type>  (87) 
oracle

>  <origin>  (87) 
autodockgpu

>  <m_score__min__energy>  (87) 
-8.8499999999999996

>  <m_primary>  (87) 
energy

>  <rmsd>  (87) 
1.7693152283041342

>  <m_score__min__rmsd>  (87) 
1.7693152283041342

>  <meeko>  (87) 
{"free_energy": -8.08, "intermolecular_energy": -9.57, "internal_energy": -2.03, "cluster_size": 28, "cluster_id": 1, "rank_in_cluster": 28}

>  <energy>  (87) 
-7.46

>  <cluster_rmsd>  (87) 
0.34

>  <cluster>  (87) 
5

$$$$

     RDKit          3D

 57 60  0  0  0  0  0  0  0  0999 V2000
  141.7360   72.4430  221.5040 O   0  0  0  0  0  0  0  0  0  0  0  0
  140.7230   72.5150  222.2660 C   0  0  0  0  0  0  0  0  0  0  0  0
  139.9840   73.7270  222.3410 N   0  0  0  0  0  0  0  0  0  0  0  0
  140.3520   74.9160  221.5640 C   0  0  0  0  0  0  0  0  0  0  0  0
  139.7930   76.1280  222.1040 C   0  0  0  0  0  0  0  0  0  0  0  0
  138.6510   76.0560  222.6820 O   0  0  0  0  0  0  0  0  0  0  0  0
  140.3480   77.4530  222.0830 N   0  0  0  0  0  0  0  0  0  0  0  0
  141.1810   77.7050  220.9100 C   0  0  0  0  0  0  0  0  0  0  0  0
  141.6900   79.0960  220.9250 C   0  0  0  0  0  0  0  0  0  0  0  0
  142.2080   79.4940  222.2550 C   0  0  0  0  0  0  0  0  0  0  0  0
  141.4830   79.0120  223.4580 C   0  0  0  0  0  0  0  0  0  0  0  0
  140.1240   78.4160  223.1330 C   0  0  1  0  0  0  0  0  0  0  0  0
  139.0620   79.4080  222.9480 C   0  0  0  0  0  0  0  0  0  0  0  0
  138.8060   79.8510  221.5300 C   0  0  0  0  0  0  0  0  0  0  0  0
  138.8380   81.3240  221.3390 C   0  0  0  0  0  0  0  0  0  0  0  0
  137.8370   81.9960  222.2060 C   0  0  0  0  0  0  0  0  0  0  0  0
  138.0620   81.5940  223.6210 C   0  0  0  0  0  0  0  0  0  0  0  0
  139.2280   80.6490  223.8030 C   0  0  0  0  0  0  0  0  0  0  0  0
  140.2720   71.3950  223.0850 C   0  0  0  0  0  0  0  0  0  0  0  0
  139.2860   70.5770  222.5240 C   0  0  0  0  0  0  0  0  0  0  0  0
  138.8280   69.5120  223.2680 C   0  0  0  0  0  0  0  0  0  0  0  0
  139.3210   69.2450  224.5330 C   0  0  0  0  0  0  0  0  0  0  0  0
  138.8720   68.1720  225.2920 C   0  0  0  0  0  0  0  0  0  0  0  0
  139.4110   67.9730  226.5290 C   0  0  0  0  0  0  0  0  0  0  0  0
  140.3930   68.8140  227.0430 C   0  0  0  0  0  0  0  0  0  0  0  0
  141.0660   68.5160  228.6480 Cl  0  0  0  0  0  0  0  0  0  0  0  0
  140.8270   69.8810  226.2690 C   0  0  0  0  0  0  0  0  0  0  0  0
  140.2900   70.1000  225.0080 C   0  0  0  0  0  0  0  0  0  0  0  0
  140.7590   71.1500  224.3100 N   0  0  0  0  0  0  0  0  0  0  0  0
  139.1380   73.7700  222.9800 H   0  0  0  0  0  0  0  0  0  0  0  0
  141.4482   75.0066  221.5574 H   0  0  0  0  0  0  0  0  0  0  0  0
  139.9481   74.7875  220.5489 H   0  0  0  0  0  0  0  0  0  0  0  0
  142.0320   77.0080  220.9137 H   0  0  0  0  0  0  0  0  0  0  0  0
  140.5744   77.5576  220.0043 H   0  0  0  0  0  0  0  0  0  0  0  0
  142.5029   79.1826  220.1890 H   0  0  0  0  0  0  0  0  0  0  0  0
  140.8505   79.7628  220.6789 H   0  0  0  0  0  0  0  0  0  0  0  0
  143.2421   79.1259  222.3269 H   0  0  0  0  0  0  0  0  0  0  0  0
  142.0875   80.5871  222.2811 H   0  0  0  0  0  0  0  0  0  0  0  0
  142.0947   78.2419  223.9508 H   0  0  0  0  0  0  0  0  0  0  0  0
  141.3135   79.8814  224.1103 H   0  0  0  0  0  0  0  0  0  0  0  0
  139.6896   77.8789  223.9890 H   0  0  0  0  0  0  0  0  0  0  0  0
  138.1843   78.8332  223.2787 H   0  0  0  0  0  0  0  0  0  0  0  0
  139.5748   79.4022  220.8839 H   0  0  0  0  0  0  0  0  0  0  0  0
  137.7888   79.5201  221.2733 H   0  0  0  0  0  0  0  0  0  0  0  0
  139.8412   81.6976  221.5919 H   0  0  0  0  0  0  0  0  0  0  0  0
  138.5968   81.5461  220.2890 H   0  0  0  0  0  0  0  0  0  0  0  0
  137.9436   83.0868  222.1127 H   0  0  0  0  0  0  0  0  0  0  0  0
  136.8238   81.7004  221.8959 H   0  0  0  0  0  0  0  0  0  0  0  0
  138.2531   82.5005  224.2140 H   0  0  0  0  0  0  0  0  0  0  0  0
  137.1591   81.0603  223.9525 H   0  0  0  0  0  0  0  0  0  0  0  0
  140.1562   81.1634  223.5135 H   0  0  0  0  0  0  0  0  0  0  0  0
  139.2691   80.3434  224.8589 H   0  0  0  0  0  0  0  0  0  0  0  0
  138.8880   70.7781  221.5184 H   0  0  0  0  0  0  0  0  0  0  0  0
  138.0511   68.8576  222.8460 H   0  0  0  0  0  0  0  0  0  0  0  0
  138.0966   67.4957  224.9030 H   0  0  0  0  0  0  0  0  0  0  0  0
  139.0602   67.1255  227.1361 H   0  0  0  0  0  0  0  0  0  0  0  0
  141.6021   70.5580  226.6576 H   0  0  0  0  0  0  0  0  0  0  0  0
  1  2  2  0
  2  3  1  0
  3  4  1  0
  4  5  1  0
  5  6  2  0
  5  7  1  0
  7  8  1  0
  8  9  1  0
  9 10  1  0
 10 11  1  0
 11 12  1  0
 12 13  1  0
 13 14  1  0
 14 15  1  0
 15 16  1  0
 16 17  1  0
 17 18  1  0
  2 19  1  0
 19 20  2  0
 20 21  1  0
 21 22  2  0
 22 23  1  0
 23 24  2  0
 24 25  1  0
 25 26  1  0
 25 27  2  0
 27 28  1  0
 28 29  2  0
 12  7  1  0
 18 13  1  0
 29 19  1  0
 28 22  1  0
  3 30  1  0
  4 31  1  0
  4 32  1  0
  8 33  1  0
  8 34  1  0
  9 35  1  0
  9 36  1  0
 10 37  1  0
 10 38  1  0
 11 39  1  0
 11 40  1  0
 12 41  1  1
 13 42  1  0
 14 43  1  0
 14 44  1  0
 15 45  1  0
 15 46  1  0
 16 47  1  0
 16 48  1  0
 17 49  1  0
 17 50  1  0
 18 51  1  0
 18 52  1  0
 20 53  1  0
 21 54  1  0
 23 55  1  0
 24 56  1  0
 27 57  1  0
M  END
>  <smiles>  (88) 
O=C(NCC(=O)N1CCCCC1C1CCCCC1)c1ccc2ccc(Cl)cc2n1

>  <score_type>  (88) 
oracle

>  <origin>  (88) 
autodockgpu

>  <m_score__min__energy>  (88) 
-8.8499999999999996

>  <m_primary>  (88) 
energy

>  <rmsd>  (88) 
3.375444308685685

>  <m_score__min__rmsd>  (88) 
3.375444308685685

>  <meeko>  (88) 
{"free_energy": -8.43, "intermolecular_energy": -9.92, "internal_energy": -1.62, "cluster_size": 28, "cluster_id": 1, "rank_in_cluster": 22}

>  <energy>  (88) 
-7.3

>  <cluster_rmsd>  (88) 
0.72

>  <cluster>  (88) 
5

$$$$

     RDKit          3D

 57 60  0  0  0  0  0  0  0  0999 V2000
  136.4840   75.2820  222.4050 O   0  0  0  0  0  0  0  0  0  0  0  0
  137.7090   75.6100  222.3370 C   0  0  0  0  0  0  0  0  0  0  0  0
  138.6890   74.6190  222.0530 N   0  0  0  0  0  0  0  0  0  0  0  0
  138.3360   73.2120  221.8350 C   0  0  0  0  0  0  0  0  0  0  0  0
  139.2650   72.3030  222.4530 C   0  0  0  0  0  0  0  0  0  0  0  0
  140.4060   72.7650  222.8130 O   0  0  0  0  0  0  0  0  0  0  0  0
  139.0940   70.9050  222.7310 N   0  0  0  0  0  0  0  0  0  0  0  0
  139.3450   70.0560  221.5690 C   0  0  0  0  0  0  0  0  0  0  0  0
  139.1930   68.6270  221.9280 C   0  0  0  0  0  0  0  0  0  0  0  0
  137.9760   68.3730  222.7350 C   0  0  0  0  0  0  0  0  0  0  0  0
  137.5910   69.3850  223.7520 C   0  0  0  0  0  0  0  0  0  0  0  0
  138.6860   70.4020  224.0200 C   0  0  1  0  0  0  0  0  0  0  0  0
  139.7250   69.9380  224.9430 C   0  0  0  0  0  0  0  0  0  0  0  0
  139.5380   68.5540  225.5100 C   0  0  0  0  0  0  0  0  0  0  0  0
  139.6000   68.4920  226.9930 C   0  0  0  0  0  0  0  0  0  0  0  0
  140.8990   69.0110  227.4950 C   0  0  0  0  0  0  0  0  0  0  0  0
  141.1180   70.3840  226.9650 C   0  0  0  0  0  0  0  0  0  0  0  0
  139.9860   70.8850  226.0970 C   0  0  0  0  0  0  0  0  0  0  0  0
  138.1710   76.9790  222.5410 C   0  0  0  0  0  0  0  0  0  0  0  0
  137.1830   77.9690  222.5480 C   0  0  0  0  0  0  0  0  0  0  0  0
  137.5790   79.2770  222.7310 C   0  0  0  0  0  0  0  0  0  0  0  0
  138.9080   79.6150  222.9060 C   0  0  0  0  0  0  0  0  0  0  0  0
  139.3210   80.9270  223.0960 C   0  0  0  0  0  0  0  0  0  0  0  0
  140.6510   81.1790  223.2660 C   0  0  0  0  0  0  0  0  0  0  0  0
  141.5960   80.1580  223.2530 C   0  0  0  0  0  0  0  0  0  0  0  0
  143.3070   80.5290  223.4820 Cl  0  0  0  0  0  0  0  0  0  0  0  0
  141.1630   78.8530  223.0610 C   0  0  0  0  0  0  0  0  0  0  0  0
  139.8140   78.5770  222.8850 C   0  0  0  0  0  0  0  0  0  0  0  0
  139.4640   77.2910  222.7080 N   0  0  0  0  0  0  0  0  0  0  0  0
  139.7070   74.9100  221.9970 H   0  0  0  0  0  0  0  0  0  0  0  0
  137.3353   73.0314  222.2546 H   0  0  0  0  0  0  0  0  0  0  0  0
  138.3626   73.0274  220.7509 H   0  0  0  0  0  0  0  0  0  0  0  0
  138.6270   70.3080  220.7747 H   0  0  0  0  0  0  0  0  0  0  0  0
  140.3736   70.2273  221.2188 H   0  0  0  0  0  0  0  0  0  0  0  0
  139.1332   68.0349  221.0029 H   0  0  0  0  0  0  0  0  0  0  0  0
  140.0639   68.3395  222.5353 H   0  0  0  0  0  0  0  0  0  0  0  0
  137.1333   68.2757  222.0347 H   0  0  0  0  0  0  0  0  0  0  0  0
  138.2165   67.4729  223.3198 H   0  0  0  0  0  0  0  0  0  0  0  0
  136.6971   69.9179  223.3956 H   0  0  0  0  0  0  0  0  0  0  0  0
  137.4011   68.8496  224.6939 H   0  0  0  0  0  0  0  0  0  0  0  0
  138.3232   71.2567  224.6098 H   0  0  0  0  0  0  0  0  0  0  0  0
  140.5970   69.9072  224.2732 H   0  0  0  0  0  0  0  0  0  0  0  0
  138.5546   68.1795  225.1895 H   0  0  0  0  0  0  0  0  0  0  0  0
  140.3700   67.9416  225.1321 H   0  0  0  0  0  0  0  0  0  0  0  0
  138.7841   69.0988  227.4126 H   0  0  0  0  0  0  0  0  0  0  0  0
  139.4991   67.4417  227.3039 H   0  0  0  0  0  0  0  0  0  0  0  0
  140.8830   69.0398  228.5945 H   0  0  0  0  0  0  0  0  0  0  0  0
  141.7135   68.3522  227.1593 H   0  0  0  0  0  0  0  0  0  0  0  0
  141.2339   71.0710  227.8162 H   0  0  0  0  0  0  0  0  0  0  0  0
  142.0173   70.3462  226.3326 H   0  0  0  0  0  0  0  0  0  0  0  0
  139.0746   70.9679  226.7073 H   0  0  0  0  0  0  0  0  0  0  0  0
  140.2669   71.8666  225.6876 H   0  0  0  0  0  0  0  0  0  0  0  0
  136.1222   77.7119  222.4117 H   0  0  0  0  0  0  0  0  0  0  0  0
  136.8183   80.0715  222.7379 H   0  0  0  0  0  0  0  0  0  0  0  0
  138.5892   81.7482  223.1092 H   0  0  0  0  0  0  0  0  0  0  0  0
  140.9848   82.2162  223.4173 H   0  0  0  0  0  0  0  0  0  0  0  0
  141.8944   78.0315  223.0483 H   0  0  0  0  0  0  0  0  0  0  0  0
  1  2  2  0
  2  3  1  0
  3  4  1  0
  4  5  1  0
  5  6  2  0
  5  7  1  0
  7  8  1  0
  8  9  1  0
  9 10  1  0
 10 11  1  0
 11 12  1  0
 12 13  1  0
 13 14  1  0
 14 15  1  0
 15 16  1  0
 16 17  1  0
 17 18  1  0
  2 19  1  0
 19 20  2  0
 20 21  1  0
 21 22  2  0
 22 23  1  0
 23 24  2  0
 24 25  1  0
 25 26  1  0
 25 27  2  0
 27 28  1  0
 28 29  2  0
 12  7  1  0
 18 13  1  0
 29 19  1  0
 28 22  1  0
  3 30  1  0
  4 31  1  0
  4 32  1  0
  8 33  1  0
  8 34  1  0
  9 35  1  0
  9 36  1  0
 10 37  1  0
 10 38  1  0
 11 39  1  0
 11 40  1  0
 12 41  1  1
 13 42  1  0
 14 43  1  0
 14 44  1  0
 15 45  1  0
 15 46  1  0
 16 47  1  0
 16 48  1  0
 17 49  1  0
 17 50  1  0
 18 51  1  0
 18 52  1  0
 20 53  1  0
 21 54  1  0
 23 55  1  0
 24 56  1  0
 27 57  1  0
M  END
>  <smiles>  (89) 
O=C(NCC(=O)N1CCCCC1C1CCCCC1)c1ccc2ccc(Cl)cc2n1

>  <score_type>  (89) 
oracle

>  <origin>  (89) 
autodockgpu

>  <m_score__min__energy>  (89) 
-8.8499999999999996

>  <m_primary>  (89) 
energy

>  <rmsd>  (89) 
8.284662123931863

>  <m_score__min__rmsd>  (89) 
8.284662123931863

>  <meeko>  (89) 
{"free_energy": -8.09, "intermolecular_energy": -9.58, "internal_energy": -1.9, "cluster_size": 4, "cluster_id": 2, "rank_in_cluster": 3}

>  <energy>  (89) 
-6.68

>  <cluster_rmsd>  (89) 
1.1

>  <cluster>  (89) 
5

$$$$

     RDKit          3D

 57 60  0  0  0  0  0  0  0  0999 V2000
  141.2330   73.6750  220.9820 O   0  0  0  0  0  0  0  0  0  0  0  0
  140.3970   73.7770  221.9320 C   0  0  0  0  0  0  0  0  0  0  0  0
  139.9050   75.0590  222.3030 N   0  0  0  0  0  0  0  0  0  0  0  0
  140.3340   76.2860  221.6230 C   0  0  0  0  0  0  0  0  0  0  0  0
  140.0590   77.4730  222.3910 C   0  0  0  0  0  0  0  0  0  0  0  0
  138.9710   77.5080  223.0690 O   0  0  0  0  0  0  0  0  0  0  0  0
  140.8510   78.6650  222.5070 N   0  0  0  0  0  0  0  0  0  0  0  0
  141.7620   78.6370  223.6480 C   0  0  0  0  0  0  0  0  0  0  0  0
  142.5780   79.8730  223.6900 C   0  0  0  0  0  0  0  0  0  0  0  0
  141.7680   81.0930  223.4670 C   0  0  0  0  0  0  0  0  0  0  0  0
  140.6680   81.0260  222.4700 C   0  0  0  0  0  0  0  0  0  0  0  0
  140.7290   79.7820  221.6020 C   0  0  1  0  0  0  0  0  0  0  0  0
  141.6720   79.8740  220.4850 C   0  0  0  0  0  0  0  0  0  0  0  0
  141.7300   81.2010  219.7720 C   0  0  0  0  0  0  0  0  0  0  0  0
  141.5460   81.1090  218.3010 C   0  0  0  0  0  0  0  0  0  0  0  0
  142.5740   80.2270  217.6900 C   0  0  0  0  0  0  0  0  0  0  0  0
  142.5440   78.8990  218.3600 C   0  0  0  0  0  0  0  0  0  0  0  0
  141.4930   78.7900  219.4410 C   0  0  0  0  0  0  0  0  0  0  0  0
  139.9060   72.6230  222.6770 C   0  0  0  0  0  0  0  0  0  0  0  0
  138.8650   71.9010  222.0840 C   0  0  0  0  0  0  0  0  0  0  0  0
  138.3690   70.8070  222.7590 C   0  0  0  0  0  0  0  0  0  0  0  0
  138.8770   70.4200  223.9860 C   0  0  0  0  0  0  0  0  0  0  0  0
  138.3900   69.3170  224.6760 C   0  0  0  0  0  0  0  0  0  0  0  0
  138.9470   68.9970  225.8790 C   0  0  0  0  0  0  0  0  0  0  0  0
  139.9830   69.7460  226.4270 C   0  0  0  0  0  0  0  0  0  0  0  0
  140.6770   69.2930  227.9860 Cl  0  0  0  0  0  0  0  0  0  0  0  0
  140.4550   70.8450  225.7230 C   0  0  0  0  0  0  0  0  0  0  0  0
  139.9010   71.1870  224.4970 C   0  0  0  0  0  0  0  0  0  0  0  0
  140.4080   72.2610  223.8670 N   0  0  0  0  0  0  0  0  0  0  0  0
  139.2050   75.1270  223.0970 H   0  0  0  0  0  0  0  0  0  0  0  0
  141.4174   76.2274  221.4418 H   0  0  0  0  0  0  0  0  0  0  0  0
  139.7674   76.3601  220.6831 H   0  0  0  0  0  0  0  0  0  0  0  0
  141.1773   78.5573  224.5763 H   0  0  0  0  0  0  0  0  0  0  0  0
  142.4325   77.7709  223.5471 H   0  0  0  0  0  0  0  0  0  0  0  0
  143.0601   79.9446  224.6762 H   0  0  0  0  0  0  0  0  0  0  0  0
  143.3211   79.8116  222.8812 H   0  0  0  0  0  0  0  0  0  0  0  0
  141.3185   81.3685  224.4324 H   0  0  0  0  0  0  0  0  0  0  0  0
  142.4770   81.8211  223.0462 H   0  0  0  0  0  0  0  0  0  0  0  0
  139.7078   81.0323  223.0066 H   0  0  0  0  0  0  0  0  0  0  0  0
  140.7728   81.8963  221.8055 H   0  0  0  0  0  0  0  0  0  0  0  0
  139.8081   79.6374  221.0180 H   0  0  0  0  0  0  0  0  0  0  0  0
  142.6278   79.7390  221.0124 H   0  0  0  0  0  0  0  0  0  0  0  0
  140.9379   81.8466  220.1793 H   0  0  0  0  0  0  0  0  0  0  0  0
  142.7384   81.6070  219.9402 H   0  0  0  0  0  0  0  0  0  0  0  0
  140.5477   80.6989  218.0883 H   0  0  0  0  0  0  0  0  0  0  0  0
  141.6483   82.1164  217.8713 H   0  0  0  0  0  0  0  0  0  0  0  0
  142.3611   80.1025  216.6180 H   0  0  0  0  0  0  0  0  0  0  0  0
  143.5688   80.6798  217.8142 H   0  0  0  0  0  0  0  0  0  0  0  0
  142.3417   78.1304  217.5996 H   0  0  0  0  0  0  0  0  0  0  0  0
  143.5214   78.7605  218.8453 H   0  0  0  0  0  0  0  0  0  0  0  0
  140.4968   78.8905  218.9854 H   0  0  0  0  0  0  0  0  0  0  0  0
  141.5957   77.8109  219.9317 H   0  0  0  0  0  0  0  0  0  0  0  0
  138.4545   72.1978  221.1076 H   0  0  0  0  0  0  0  0  0  0  0  0
  137.5487   70.2270  222.3110 H   0  0  0  0  0  0  0  0  0  0  0  0
  137.5703   68.7129  224.2598 H   0  0  0  0  0  0  0  0  0  0  0  0
  138.5672   68.1241  226.4301 H   0  0  0  0  0  0  0  0  0  0  0  0
  141.2741   71.4495  226.1396 H   0  0  0  0  0  0  0  0  0  0  0  0
  1  2  2  0
  2  3  1  0
  3  4  1  0
  4  5  1  0
  5  6  2  0
  5  7  1  0
  7  8  1  0
  8  9  1  0
  9 10  1  0
 10 11  1  0
 11 12  1  0
 12 13  1  0
 13 14  1  0
 14 15  1  0
 15 16  1  0
 16 17  1  0
 17 18  1  0
  2 19  1  0
 19 20  2  0
 20 21  1  0
 21 22  2  0
 22 23  1  0
 23 24  2  0
 24 25  1  0
 25 26  1  0
 25 27  2  0
 27 28  1  0
 28 29  2  0
 12  7  1  0
 18 13  1  0
 29 19  1  0
 28 22  1  0
  3 30  1  0
  4 31  1  0
  4 32  1  0
  8 33  1  0
  8 34  1  0
  9 35  1  0
  9 36  1  0
 10 37  1  0
 10 38  1  0
 11 39  1  0
 11 40  1  0
 12 41  1  6
 13 42  1  0
 14 43  1  0
 14 44  1  0
 15 45  1  0
 15 46  1  0
 16 47  1  0
 16 48  1  0
 17 49  1  0
 17 50  1  0
 18 51  1  0
 18 52  1  0
 20 53  1  0
 21 54  1  0
 23 55  1  0
 24 56  1  0
 27 57  1  0
M  END
>  <smiles>  (90) 
O=C(NCC(=O)N1CCCCC1C1CCCCC1)c1ccc2ccc(Cl)cc2n1

>  <score_type>  (90) 
oracle

>  <origin>  (90) 
autodockgpu

>  <m_score__min__energy>  (90) 
-8.8499999999999996

>  <m_primary>  (90) 
energy

>  <rmsd>  (90) 
4.4619221260319115

>  <m_score__min__rmsd>  (90) 
4.4619221260319115

>  <meeko>  (90) 
{"free_energy": -8.52, "intermolecular_energy": -10.01, "internal_energy": -1.7, "cluster_size": 28, "cluster_id": 1, "rank_in_cluster": 13}

>  <energy>  (90) 
-7.34

>  <cluster_rmsd>  (90) 
0.0

>  <cluster>  (90) 
6

$$$$

     RDKit          3D

 57 60  0  0  0  0  0  0  0  0999 V2000
  136.3990   75.4430  222.0400 O   0  0  0  0  0  0  0  0  0  0  0  0
  137.6170   75.7000  222.2920 C   0  0  0  0  0  0  0  0  0  0  0  0
  138.5700   74.6460  222.3110 N   0  0  0  0  0  0  0  0  0  0  0  0
  138.1980   73.2510  222.0500 C   0  0  0  0  0  0  0  0  0  0  0  0
  139.2700   72.3290  222.3200 C   0  0  0  0  0  0  0  0  0  0  0  0
  140.4610   72.7970  222.3810 O   0  0  0  0  0  0  0  0  0  0  0  0
  139.1940   70.9110  222.5330 N   0  0  0  0  0  0  0  0  0  0  0  0
  139.5830   70.1340  221.3590 C   0  0  0  0  0  0  0  0  0  0  0  0
  139.5240   68.6840  221.6540 C   0  0  0  0  0  0  0  0  0  0  0  0
  138.2830   68.3030  222.3690 C   0  0  0  0  0  0  0  0  0  0  0  0
  137.7570   69.2370  223.3960 C   0  0  0  0  0  0  0  0  0  0  0  0
  138.7490   70.3240  223.7740 C   0  0  1  0  0  0  0  0  0  0  0  0
  139.7620   69.9030  224.7440 C   0  0  0  0  0  0  0  0  0  0  0  0
  139.3490   68.8180  225.7060 C   0  0  0  0  0  0  0  0  0  0  0  0
  139.5650   69.1610  227.1360 C   0  0  0  0  0  0  0  0  0  0  0  0
  140.9940   69.4740  227.3990 C   0  0  0  0  0  0  0  0  0  0  0  0
  141.4390   70.5510  226.4740 C   0  0  0  0  0  0  0  0  0  0  0  0
  140.3500   71.0440  225.5500 C   0  0  0  0  0  0  0  0  0  0  0  0
  138.0950   77.0500  222.5690 C   0  0  0  0  0  0  0  0  0  0  0  0
  137.1140   78.0400  222.6960 C   0  0  0  0  0  0  0  0  0  0  0  0
  137.5260   79.3300  222.9510 C   0  0  0  0  0  0  0  0  0  0  0  0
  138.8640   79.6520  223.0840 C   0  0  0  0  0  0  0  0  0  0  0  0
  139.2930   80.9470  223.3460 C   0  0  0  0  0  0  0  0  0  0  0  0
  140.6310   81.1830  223.4670 C   0  0  0  0  0  0  0  0  0  0  0  0
  141.5680   80.1640  223.3350 C   0  0  0  0  0  0  0  0  0  0  0  0
  143.2900   80.5140  223.5050 Cl  0  0  0  0  0  0  0  0  0  0  0  0
  141.1190   78.8770  223.0720 C   0  0  0  0  0  0  0  0  0  0  0  0
  139.7620   78.6170  222.9450 C   0  0  0  0  0  0  0  0  0  0  0  0
  139.3960   77.3470  222.6940 N   0  0  0  0  0  0  0  0  0  0  0  0
  139.5840   74.8780  222.5200 H   0  0  0  0  0  0  0  0  0  0  0  0
  137.3408   72.9903  222.6882 H   0  0  0  0  0  0  0  0  0  0  0  0
  137.9505   73.1681  220.9814 H   0  0  0  0  0  0  0  0  0  0  0  0
  138.8973   70.3629  220.5299 H   0  0  0  0  0  0  0  0  0  0  0  0
  140.6141   70.3992  221.0825 H   0  0  0  0  0  0  0  0  0  0  0  0
  139.5701   68.1284  220.7058 H   0  0  0  0  0  0  0  0  0  0  0  0
  140.3754   68.4395  222.3062 H   0  0  0  0  0  0  0  0  0  0  0  0
  137.4960   68.1722  221.6117 H   0  0  0  0  0  0  0  0  0  0  0  0
  138.5568   67.3993  222.9332 H   0  0  0  0  0  0  0  0  0  0  0  0
  136.8472   69.7141  223.0027 H   0  0  0  0  0  0  0  0  0  0  0  0
  137.5530   68.6482  224.3025 H   0  0  0  0  0  0  0  0  0  0  0  0
  138.2841   71.1221  224.3715 H   0  0  0  0  0  0  0  0  0  0  0  0
  140.5248   69.4796  224.0740 H   0  0  0  0  0  0  0  0  0  0  0  0
  138.2784   68.6138  225.5576 H   0  0  0  0  0  0  0  0  0  0  0  0
  139.9818   67.9446  225.4900 H   0  0  0  0  0  0  0  0  0  0  0  0
  138.9518   70.0375  227.3922 H   0  0  0  0  0  0  0  0  0  0  0  0
  139.2769   68.2958  227.7512 H   0  0  0  0  0  0  0  0  0  0  0  0
  141.1109   69.8115  228.4394 H   0  0  0  0  0  0  0  0  0  0  0  0
  141.6046   68.5734  227.2374 H   0  0  0  0  0  0  0  0  0  0  0  0
  141.7956   71.4003  227.0753 H   0  0  0  0  0  0  0  0  0  0  0  0
  142.2307   70.1248  225.8404 H   0  0  0  0  0  0  0  0  0  0  0  0
  139.5532   71.5088  226.1492 H   0  0  0  0  0  0  0  0  0  0  0  0
  140.7863   71.7756  224.8540 H   0  0  0  0  0  0  0  0  0  0  0  0
  136.0462   77.7957  222.5953 H   0  0  0  0  0  0  0  0  0  0  0  0
  136.7711   80.1238  223.0513 H   0  0  0  0  0  0  0  0  0  0  0  0
  138.5674   81.7667  223.4538 H   0  0  0  0  0  0  0  0  0  0  0  0
  140.9779   82.2061  223.6744 H   0  0  0  0  0  0  0  0  0  0  0  0
  141.8444   78.0572  222.9635 H   0  0  0  0  0  0  0  0  0  0  0  0
  1  2  2  0
  2  3  1  0
  3  4  1  0
  4  5  1  0
  5  6  2  0
  5  7  1  0
  7  8  1  0
  8  9  1  0
  9 10  1  0
 10 11  1  0
 11 12  1  0
 12 13  1  0
 13 14  1  0
 14 15  1  0
 15 16  1  0
 16 17  1  0
 17 18  1  0
  2 19  1  0
 19 20  2  0
 20 21  1  0
 21 22  2  0
 22 23  1  0
 23 24  2  0
 24 25  1  0
 25 26  1  0
 25 27  2  0
 27 28  1  0
 28 29  2  0
 12  7  1  0
 18 13  1  0
 29 19  1  0
 28 22  1  0
  3 30  1  0
  4 31  1  0
  4 32  1  0
  8 33  1  0
  8 34  1  0
  9 35  1  0
  9 36  1  0
 10 37  1  0
 10 38  1  0
 11 39  1  0
 11 40  1  0
 12 41  1  1
 13 42  1  0
 14 43  1  0
 14 44  1  0
 15 45  1  0
 15 46  1  0
 16 47  1  0
 16 48  1  0
 17 49  1  0
 17 50  1  0
 18 51  1  0
 18 52  1  0
 20 53  1  0
 21 54  1  0
 23 55  1  0
 24 56  1  0
 27 57  1  0
M  END
>  <smiles>  (91) 
O=C(NCC(=O)N1CCCCC1C1CCCCC1)c1ccc2ccc(Cl)cc2n1

>  <score_type>  (91) 
oracle

>  <origin>  (91) 
autodockgpu

>  <m_score__min__energy>  (91) 
-8.8499999999999996

>  <m_primary>  (91) 
energy

>  <rmsd>  (91) 
8.241126432570825

>  <m_score__min__rmsd>  (91) 
8.241126432570825

>  <meeko>  (91) 
{"free_energy": -7.86, "intermolecular_energy": -9.35, "internal_energy": -2.13, "cluster_size": 4, "cluster_id": 2, "rank_in_cluster": 4}

>  <energy>  (91) 
-7.32

>  <cluster_rmsd>  (91) 
0.23

>  <cluster>  (91) 
6

$$$$

     RDKit          3D

 57 60  0  0  0  0  0  0  0  0999 V2000
  141.2520   73.6540  221.0040 O   0  0  0  0  0  0  0  0  0  0  0  0
  140.4070   73.7680  221.9450 C   0  0  0  0  0  0  0  0  0  0  0  0
  139.9230   75.0550  222.3050 N   0  0  0  0  0  0  0  0  0  0  0  0
  140.3690   76.2760  221.6250 C   0  0  0  0  0  0  0  0  0  0  0  0
  140.0680   77.4700  222.3700 C   0  0  0  0  0  0  0  0  0  0  0  0
  138.9670   77.5050  223.0260 O   0  0  0  0  0  0  0  0  0  0  0  0
  140.8490   78.6700  222.4860 N   0  0  0  0  0  0  0  0  0  0  0  0
  141.7600   78.6510  223.6270 C   0  0  0  0  0  0  0  0  0  0  0  0
  142.5640   79.8950  223.6680 C   0  0  0  0  0  0  0  0  0  0  0  0
  141.7410   81.1070  223.4450 C   0  0  0  0  0  0  0  0  0  0  0  0
  140.6420   81.0300  222.4500 C   0  0  0  0  0  0  0  0  0  0  0  0
  140.7150   79.7850  221.5810 C   0  0  1  0  0  0  0  0  0  0  0  0
  141.6570   79.8880  220.4640 C   0  0  0  0  0  0  0  0  0  0  0  0
  141.7580   81.2380  219.8020 C   0  0  0  0  0  0  0  0  0  0  0  0
  141.5660   81.2080  218.3290 C   0  0  0  0  0  0  0  0  0  0  0  0
  142.5600   80.3150  217.6800 C   0  0  0  0  0  0  0  0  0  0  0  0
  142.4860   78.9640  218.2980 C   0  0  0  0  0  0  0  0  0  0  0  0
  141.4360   78.8510  219.3800 C   0  0  0  0  0  0  0  0  0  0  0  0
  139.8990   72.6210  222.6910 C   0  0  0  0  0  0  0  0  0  0  0  0
  138.8230   71.9370  222.1150 C   0  0  0  0  0  0  0  0  0  0  0  0
  138.3100   70.8510  222.7910 C   0  0  0  0  0  0  0  0  0  0  0  0
  138.8340   70.4360  224.0020 C   0  0  0  0  0  0  0  0  0  0  0  0
  138.3300   69.3420  224.6920 C   0  0  0  0  0  0  0  0  0  0  0  0
  138.9050   68.9920  225.8790 C   0  0  0  0  0  0  0  0  0  0  0  0
  139.9770   69.7040  226.4090 C   0  0  0  0  0  0  0  0  0  0  0  0
  140.6930   69.2130  227.9470 Cl  0  0  0  0  0  0  0  0  0  0  0  0
  140.4650   70.7950  225.7040 C   0  0  0  0  0  0  0  0  0  0  0  0
  139.8930   71.1660  224.4960 C   0  0  0  0  0  0  0  0  0  0  0  0
  140.4180   72.2310  223.8640 N   0  0  0  0  0  0  0  0  0  0  0  0
  139.2150   75.1320  223.0920 H   0  0  0  0  0  0  0  0  0  0  0  0
  141.4576   76.2187  221.4775 H   0  0  0  0  0  0  0  0  0  0  0  0
  139.8306   76.3379  220.6678 H   0  0  0  0  0  0  0  0  0  0  0  0
  141.1761   78.5663  224.5554 H   0  0  0  0  0  0  0  0  0  0  0  0
  142.4387   77.7911  223.5269 H   0  0  0  0  0  0  0  0  0  0  0  0
  143.0461   79.9718  224.6538 H   0  0  0  0  0  0  0  0  0  0  0  0
  143.3073   79.8408  222.8590 H   0  0  0  0  0  0  0  0  0  0  0  0
  141.2894   81.3779  224.4108 H   0  0  0  0  0  0  0  0  0  0  0  0
  142.4426   81.8416  223.0230 H   0  0  0  0  0  0  0  0  0  0  0  0
  139.6821   81.0269  222.9872 H   0  0  0  0  0  0  0  0  0  0  0  0
  140.7374   81.9015  221.7857 H   0  0  0  0  0  0  0  0  0  0  0  0
  139.7956   79.6296  220.9975 H   0  0  0  0  0  0  0  0  0  0  0  0
  142.6098   79.7010  220.9809 H   0  0  0  0  0  0  0  0  0  0  0  0
  140.9898   81.8943  220.2371 H   0  0  0  0  0  0  0  0  0  0  0  0
  142.7801   81.6030  219.9809 H   0  0  0  0  0  0  0  0  0  0  0  0
  140.5533   80.8412  218.1058 H   0  0  0  0  0  0  0  0  0  0  0  0
  141.7022   82.2268  217.9373 H   0  0  0  0  0  0  0  0  0  0  0  0
  142.3393   80.2397  216.6050 H   0  0  0  0  0  0  0  0  0  0  0  0
  143.5704   80.7277  217.8172 H   0  0  0  0  0  0  0  0  0  0  0  0
  142.2532   78.2330  217.5096 H   0  0  0  0  0  0  0  0  0  0  0  0
  143.4600   78.7718  218.7718 H   0  0  0  0  0  0  0  0  0  0  0  0
  140.4422   79.0036  218.9338 H   0  0  0  0  0  0  0  0  0  0  0  0
  141.5065   77.8510  219.8329 H   0  0  0  0  0  0  0  0  0  0  0  0
  138.3992   72.2564  221.1515 H   0  0  0  0  0  0  0  0  0  0  0  0
  137.4626   70.3004  222.3566 H   0  0  0  0  0  0  0  0  0  0  0  0
  137.4826   68.7677  224.2893 H   0  0  0  0  0  0  0  0  0  0  0  0
  138.5114   68.1255  226.4307 H   0  0  0  0  0  0  0  0  0  0  0  0
  141.3120   71.3701  226.1062 H   0  0  0  0  0  0  0  0  0  0  0  0
  1  2  2  0
  2  3  1  0
  3  4  1  0
  4  5  1  0
  5  6  2  0
  5  7  1  0
  7  8  1  0
  8  9  1  0
  9 10  1  0
 10 11  1  0
 11 12  1  0
 12 13  1  0
 13 14  1  0
 14 15  1  0
 15 16  1  0
 16 17  1  0
 17 18  1  0
  2 19  1  0
 19 20  2  0
 20 21  1  0
 21 22  2  0
 22 23  1  0
 23 24  2  0
 24 25  1  0
 25 26  1  0
 25 27  2  0
 27 28  1  0
 28 29  2  0
 12  7  1  0
 18 13  1  0
 29 19  1  0
 28 22  1  0
  3 30  1  0
  4 31  1  0
  4 32  1  0
  8 33  1  0
  8 34  1  0
  9 35  1  0
  9 36  1  0
 10 37  1  0
 10 38  1  0
 11 39  1  0
 11 40  1  0
 12 41  1  6
 13 42  1  0
 14 43  1  0
 14 44  1  0
 15 45  1  0
 15 46  1  0
 16 47  1  0
 16 48  1  0
 17 49  1  0
 17 50  1  0
 18 51  1  0
 18 52  1  0
 20 53  1  0
 21 54  1  0
 23 55  1  0
 24 56  1  0
 27 57  1  0
M  END
>  <smiles>  (92) 
O=C(NCC(=O)N1CCCCC1C1CCCCC1)c1ccc2ccc(Cl)cc2n1

>  <score_type>  (92) 
oracle

>  <origin>  (92) 
autodockgpu

>  <m_score__min__energy>  (92) 
-8.8499999999999996

>  <m_primary>  (92) 
energy

>  <rmsd>  (92) 
4.4656918552367735

>  <m_score__min__rmsd>  (92) 
4.4656918552367735

>  <meeko>  (92) 
{"free_energy": -8.51, "intermolecular_energy": -10.0, "internal_energy": -1.69, "cluster_size": 28, "cluster_id": 1, "rank_in_cluster": 15}

>  <energy>  (92) 
-7.32

>  <cluster_rmsd>  (92) 
0.28

>  <cluster>  (92) 
6

$$$$

     RDKit          3D

 57 60  0  0  0  0  0  0  0  0999 V2000
  138.6730   73.3180  221.5380 O   0  0  0  0  0  0  0  0  0  0  0  0
  139.6870   74.0310  221.8140 C   0  0  0  0  0  0  0  0  0  0  0  0
  140.9760   73.4330  221.8610 N   0  0  0  0  0  0  0  0  0  0  0  0
  141.1840   72.0040  221.6040 C   0  0  0  0  0  0  0  0  0  0  0  0
  142.0150   71.7600  220.4540 C   0  0  0  0  0  0  0  0  0  0  0  0
  141.7100   70.7760  219.6920 O   0  0  0  0  0  0  0  0  0  0  0  0
  143.1790   72.4840  220.0250 N   0  0  0  0  0  0  0  0  0  0  0  0
  144.0980   71.6710  219.2330 C   0  0  0  0  0  0  0  0  0  0  0  0
  145.2550   72.4820  218.7870 C   0  0  0  0  0  0  0  0  0  0  0  0
  145.8150   73.3140  219.8780 C   0  0  0  0  0  0  0  0  0  0  0  0
  144.8670   73.9350  220.8370 C   0  0  0  0  0  0  0  0  0  0  0  0
  143.4220   73.8620  220.3740 C   0  0  1  0  0  0  0  0  0  0  0  0
  143.0490   74.8980  219.4070 C   0  0  0  0  0  0  0  0  0  0  0  0
  143.5480   76.2900  219.6980 C   0  0  0  0  0  0  0  0  0  0  0  0
  142.4840   77.3260  219.7070 C   0  0  0  0  0  0  0  0  0  0  0  0
  141.7700   77.3690  218.4050 C   0  0  0  0  0  0  0  0  0  0  0  0
  141.2510   76.0130  218.0830 C   0  0  0  0  0  0  0  0  0  0  0  0
  141.5580   74.9800  219.1440 C   0  0  0  0  0  0  0  0  0  0  0  0
  139.5930   75.4610  222.0900 C   0  0  0  0  0  0  0  0  0  0  0  0
  138.3180   76.0270  221.9910 C   0  0  0  0  0  0  0  0  0  0  0  0
  138.1890   77.3760  222.2380 C   0  0  0  0  0  0  0  0  0  0  0  0
  139.2770   78.1600  222.5770 C   0  0  0  0  0  0  0  0  0  0  0  0
  139.1600   79.5200  222.8330 C   0  0  0  0  0  0  0  0  0  0  0  0
  140.2810   80.2230  223.1660 C   0  0  0  0  0  0  0  0  0  0  0  0
  141.5280   79.6140  223.2530 C   0  0  0  0  0  0  0  0  0  0  0  0
  142.9510   80.5620  223.6920 Cl  0  0  0  0  0  0  0  0  0  0  0  0
  141.6230   78.2530  222.9930 C   0  0  0  0  0  0  0  0  0  0  0  0
  140.4950   77.5210  222.6520 C   0  0  0  0  0  0  0  0  0  0  0  0
  140.6580   76.2070  222.4160 N   0  0  0  0  0  0  0  0  0  0  0  0
  141.8130   74.0430  222.0900 H   0  0  0  0  0  0  0  0  0  0  0  0
  141.6634   71.5543  222.4860 H   0  0  0  0  0  0  0  0  0  0  0  0
  140.1995   71.5566  221.4026 H   0  0  0  0  0  0  0  0  0  0  0  0
  144.4588   70.8317  219.8456 H   0  0  0  0  0  0  0  0  0  0  0  0
  143.5660   71.2927  218.3476 H   0  0  0  0  0  0  0  0  0  0  0  0
  146.0406   71.8051  218.4200 H   0  0  0  0  0  0  0  0  0  0  0  0
  144.9045   73.1594  217.9944 H   0  0  0  0  0  0  0  0  0  0  0  0
  146.4971   72.6759  220.4590 H   0  0  0  0  0  0  0  0  0  0  0  0
  146.2819   74.1660  219.3621 H   0  0  0  0  0  0  0  0  0  0  0  0
  144.9527   73.4139  221.8020 H   0  0  0  0  0  0  0  0  0  0  0  0
  145.1327   74.9992  220.9202 H   0  0  0  0  0  0  0  0  0  0  0  0
  142.7152   74.1303  221.1730 H   0  0  0  0  0  0  0  0  0  0  0  0
  143.5745   74.5403  218.5093 H   0  0  0  0  0  0  0  0  0  0  0  0
  144.0325   76.2839  220.6855 H   0  0  0  0  0  0  0  0  0  0  0  0
  144.2415   76.5546  218.8861 H   0  0  0  0  0  0  0  0  0  0  0  0
  141.7631   77.0940  220.5048 H   0  0  0  0  0  0  0  0  0  0  0  0
  142.9515   78.3062  219.8822 H   0  0  0  0  0  0  0  0  0  0  0  0
  140.9311   78.0776  218.4694 H   0  0  0  0  0  0  0  0  0  0  0  0
  142.4633   77.6948  217.6156 H   0  0  0  0  0  0  0  0  0  0  0  0
  140.1592   76.0773  217.9657 H   0  0  0  0  0  0  0  0  0  0  0  0
  141.7522   75.6864  217.1599 H   0  0  0  0  0  0  0  0  0  0  0  0
  141.0431   75.2572  220.0757 H   0  0  0  0  0  0  0  0  0  0  0  0
  141.2102   73.9987  218.7889 H   0  0  0  0  0  0  0  0  0  0  0  0
  137.4448   75.4136  221.7240 H   0  0  0  0  0  0  0  0  0  0  0  0
  137.1952   77.8417  222.1638 H   0  0  0  0  0  0  0  0  0  0  0  0
  138.1827   80.0207  222.7685 H   0  0  0  0  0  0  0  0  0  0  0  0
  140.1960   81.3004  223.3711 H   0  0  0  0  0  0  0  0  0  0  0  0
  142.6000   77.7517  223.0579 H   0  0  0  0  0  0  0  0  0  0  0  0
  1  2  2  0
  2  3  1  0
  3  4  1  0
  4  5  1  0
  5  6  2  0
  5  7  1  0
  7  8  1  0
  8  9  1  0
  9 10  1  0
 10 11  1  0
 11 12  1  0
 12 13  1  0
 13 14  1  0
 14 15  1  0
 15 16  1  0
 16 17  1  0
 17 18  1  0
  2 19  1  0
 19 20  2  0
 20 21  1  0
 21 22  2  0
 22 23  1  0
 23 24  2  0
 24 25  1  0
 25 26  1  0
 25 27  2  0
 27 28  1  0
 28 29  2  0
 12  7  1  0
 18 13  1  0
 29 19  1  0
 28 22  1  0
  3 30  1  0
  4 31  1  0
  4 32  1  0
  8 33  1  0
  8 34  1  0
  9 35  1  0
  9 36  1  0
 10 37  1  0
 10 38  1  0
 11 39  1  0
 11 40  1  0
 12 41  1  1
 13 42  1  0
 14 43  1  0
 14 44  1  0
 15 45  1  0
 15 46  1  0
 16 47  1  0
 16 48  1  0
 17 49  1  0
 17 50  1  0
 18 51  1  0
 18 52  1  0
 20 53  1  0
 21 54  1  0
 23 55  1  0
 24 56  1  0
 27 57  1  0
M  END
>  <smiles>  (93) 
O=C(NCC(=O)N1CCCCC1C1CCCCC1)c1ccc2ccc(Cl)cc2n1

>  <score_type>  (93) 
oracle

>  <origin>  (93) 
autodockgpu

>  <m_score__min__energy>  (93) 
-8.8499999999999996

>  <m_primary>  (93) 
energy

>  <rmsd>  (93) 
6.8483733375641

>  <m_score__min__rmsd>  (93) 
6.8483733375641

>  <meeko>  (93) 
{"free_energy": -6.68, "intermolecular_energy": -8.18, "internal_energy": -2.96, "cluster_size": 4, "cluster_id": 5, "rank_in_cluster": 4}

>  <energy>  (93) 
-7.31

>  <cluster_rmsd>  (93) 
0.19

>  <cluster>  (93) 
6

$$$$

     RDKit          3D

 57 60  0  0  0  0  0  0  0  0999 V2000
  139.9720   73.3390  222.4360 O   0  0  0  0  0  0  0  0  0  0  0  0
  140.1380   74.2980  221.6200 C   0  0  0  0  0  0  0  0  0  0  0  0
  140.5290   74.0250  220.2810 N   0  0  0  0  0  0  0  0  0  0  0  0
  140.7560   72.6590  219.7970 C   0  0  0  0  0  0  0  0  0  0  0  0
  141.9150   72.5540  218.9500 C   0  0  0  0  0  0  0  0  0  0  0  0
  141.8100   71.8660  217.8740 O   0  0  0  0  0  0  0  0  0  0  0  0
  143.2180   73.1250  219.1460 N   0  0  0  0  0  0  0  0  0  0  0  0
  144.2760   72.3830  218.4650 C   0  0  0  0  0  0  0  0  0  0  0  0
  145.5870   73.0420  218.6700 C   0  0  0  0  0  0  0  0  0  0  0  0
  145.8040   73.4410  220.0810 C   0  0  0  0  0  0  0  0  0  0  0  0
  144.6420   73.9630  220.8440 C   0  0  0  0  0  0  0  0  0  0  0  0
  143.4510   74.2930  219.9590 C   0  0  1  0  0  0  0  0  0  0  0  0
  143.5400   75.5950  219.2930 C   0  0  0  0  0  0  0  0  0  0  0  0
  142.8350   76.7390  219.9750 C   0  0  0  0  0  0  0  0  0  0  0  0
  141.8900   77.4780  219.0990 C   0  0  0  0  0  0  0  0  0  0  0  0
  142.5860   78.0270  217.9070 C   0  0  0  0  0  0  0  0  0  0  0  0
  143.2890   76.9250  217.1970 C   0  0  0  0  0  0  0  0  0  0  0  0
  143.1000   75.5710  217.8430 C   0  0  0  0  0  0  0  0  0  0  0  0
  139.9420   75.6940  221.9970 C   0  0  0  0  0  0  0  0  0  0  0  0
  138.6260   76.1660  221.9600 C   0  0  0  0  0  0  0  0  0  0  0  0
  138.4010   77.4820  222.3030 C   0  0  0  0  0  0  0  0  0  0  0  0
  139.4330   78.3220  222.6760 C   0  0  0  0  0  0  0  0  0  0  0  0
  139.2200   79.6490  223.0280 C   0  0  0  0  0  0  0  0  0  0  0  0
  140.2910   80.4120  223.3890 C   0  0  0  0  0  0  0  0  0  0  0  0
  141.5830   79.8960  223.4120 C   0  0  0  0  0  0  0  0  0  0  0  0
  142.9400   80.9190  223.8910 Cl  0  0  0  0  0  0  0  0  0  0  0  0
  141.7750   78.5670  223.0560 C   0  0  0  0  0  0  0  0  0  0  0  0
  140.6980   77.7750  222.6850 C   0  0  0  0  0  0  0  0  0  0  0  0
  140.9550   76.4970  222.3560 N   0  0  0  0  0  0  0  0  0  0  0  0
  140.6600   74.8370  219.6120 H   0  0  0  0  0  0  0  0  0  0  0  0
  140.8932   71.9968  220.6645 H   0  0  0  0  0  0  0  0  0  0  0  0
  139.8800   72.3695  219.1980 H   0  0  0  0  0  0  0  0  0  0  0  0
  144.3180   71.3604  218.8681 H   0  0  0  0  0  0  0  0  0  0  0  0
  144.0555   72.3574  217.3876 H   0  0  0  0  0  0  0  0  0  0  0  0
  146.3836   72.3437  218.3738 H   0  0  0  0  0  0  0  0  0  0  0  0
  145.6031   73.9551  218.0568 H   0  0  0  0  0  0  0  0  0  0  0  0
  146.1769   72.5561  220.6176 H   0  0  0  0  0  0  0  0  0  0  0  0
  146.4990   74.2916  220.0224 H   0  0  0  0  0  0  0  0  0  0  0  0
  144.3341   73.2031  221.5773 H   0  0  0  0  0  0  0  0  0  0  0  0
  144.9600   74.8971  221.3301 H   0  0  0  0  0  0  0  0  0  0  0  0
  142.5373   74.4783  220.5427 H   0  0  0  0  0  0  0  0  0  0  0  0
  144.6211   75.7869  219.3586 H   0  0  0  0  0  0  0  0  0  0  0  0
  142.2713   76.3370  220.8298 H   0  0  0  0  0  0  0  0  0  0  0  0
  143.6128   77.4554  220.2780 H   0  0  0  0  0  0  0  0  0  0  0  0
  141.0959   76.7926  218.7678 H   0  0  0  0  0  0  0  0  0  0  0  0
  141.4634   78.3148  219.6715 H   0  0  0  0  0  0  0  0  0  0  0  0
  141.8502   78.4884  217.2320 H   0  0  0  0  0  0  0  0  0  0  0  0
  143.3164   78.7860  218.2239 H   0  0  0  0  0  0  0  0  0  0  0  0
  142.9064   76.8753  216.1669 H   0  0  0  0  0  0  0  0  0  0  0  0
  144.3646   77.1524  217.2334 H   0  0  0  0  0  0  0  0  0  0  0  0
  142.0364   75.2945  217.7943 H   0  0  0  0  0  0  0  0  0  0  0  0
  143.7144   74.8359  217.3024 H   0  0  0  0  0  0  0  0  0  0  0  0
  137.7957   75.5071  221.6661 H   0  0  0  0  0  0  0  0  0  0  0  0
  137.3734   77.8737  222.2792 H   0  0  0  0  0  0  0  0  0  0  0  0
  138.2064   80.0762  223.0157 H   0  0  0  0  0  0  0  0  0  0  0  0
  140.1292   81.4633  223.6695 H   0  0  0  0  0  0  0  0  0  0  0  0
  142.7884   78.1394  223.0684 H   0  0  0  0  0  0  0  0  0  0  0  0
  1  2  2  0
  2  3  1  0
  3  4  1  0
  4  5  1  0
  5  6  2  0
  5  7  1  0
  7  8  1  0
  8  9  1  0
  9 10  1  0
 10 11  1  0
 11 12  1  0
 12 13  1  0
 13 14  1  0
 14 15  1  0
 15 16  1  0
 16 17  1  0
 17 18  1  0
  2 19  1  0
 19 20  2  0
 20 21  1  0
 21 22  2  0
 22 23  1  0
 23 24  2  0
 24 25  1  0
 25 26  1  0
 25 27  2  0
 27 28  1  0
 28 29  2  0
 12  7  1  0
 18 13  1  0
 29 19  1  0
 28 22  1  0
  3 30  1  0
  4 31  1  0
  4 32  1  0
  8 33  1  0
  8 34  1  0
  9 35  1  0
  9 36  1  0
 10 37  1  0
 10 38  1  0
 11 39  1  0
 11 40  1  0
 12 41  1  1
 13 42  1  0
 14 43  1  0
 14 44  1  0
 15 45  1  0
 15 46  1  0
 16 47  1  0
 16 48  1  0
 17 49  1  0
 17 50  1  0
 18 51  1  0
 18 52  1  0
 20 53  1  0
 21 54  1  0
 23 55  1  0
 24 56  1  0
 27 57  1  0
M  END
>  <smiles>  (94) 
O=C(NCC(=O)N1CCCCC1C1CCCCC1)c1ccc2ccc(Cl)cc2n1

>  <score_type>  (94) 
oracle

>  <origin>  (94) 
autodockgpu

>  <m_score__min__energy>  (94) 
-8.8499999999999996

>  <m_primary>  (94) 
energy

>  <rmsd>  (94) 
6.876465308834521

>  <m_score__min__rmsd>  (94) 
6.876465308834521

>  <meeko>  (94) 
{"free_energy": -7.3, "intermolecular_energy": -8.79, "internal_energy": -2.5, "cluster_size": 4, "cluster_id": 5, "rank_in_cluster": 3}

>  <energy>  (94) 
-7.3

>  <cluster_rmsd>  (94) 
0.36

>  <cluster>  (94) 
6

$$$$

     RDKit          3D

 57 60  0  0  0  0  0  0  0  0999 V2000
  141.4960   72.9150  221.4990 O   0  0  0  0  0  0  0  0  0  0  0  0
  140.4650   72.9920  222.2370 C   0  0  0  0  0  0  0  0  0  0  0  0
  139.7290   74.2070  222.2930 N   0  0  0  0  0  0  0  0  0  0  0  0
  140.1200   75.3940  221.5250 C   0  0  0  0  0  0  0  0  0  0  0  0
  139.9120   76.6200  222.2510 C   0  0  0  0  0  0  0  0  0  0  0  0
  138.9290   76.6700  223.0730 O   0  0  0  0  0  0  0  0  0  0  0  0
  140.6690   77.8380  222.1810 N   0  0  0  0  0  0  0  0  0  0  0  0
  141.4340   78.1070  223.3960 C   0  0  0  0  0  0  0  0  0  0  0  0
  142.2230   79.3520  223.2470 C   0  0  0  0  0  0  0  0  0  0  0  0
  141.4310   80.4560  222.6560 C   0  0  0  0  0  0  0  0  0  0  0  0
  140.4630   80.1210  221.5810 C   0  0  0  0  0  0  0  0  0  0  0  0
  140.6450   78.7150  221.0350 C   0  0  1  0  0  0  0  0  0  0  0  0
  141.7170   78.5900  220.0440 C   0  0  0  0  0  0  0  0  0  0  0  0
  141.7280   79.6210  218.9450 C   0  0  0  0  0  0  0  0  0  0  0  0
  141.7580   79.0470  217.5750 C   0  0  0  0  0  0  0  0  0  0  0  0
  142.9490   78.1780  217.3870 C   0  0  0  0  0  0  0  0  0  0  0  0
  142.9700   77.1370  218.4490 C   0  0  0  0  0  0  0  0  0  0  0  0
  141.7990   77.2200  219.4020 C   0  0  0  0  0  0  0  0  0  0  0  0
  139.9890   71.8740  223.0440 C   0  0  0  0  0  0  0  0  0  0  0  0
  138.8760   71.1860  222.5510 C   0  0  0  0  0  0  0  0  0  0  0  0
  138.3920   70.1260  223.2880 C   0  0  0  0  0  0  0  0  0  0  0  0
  138.9790   69.7430  224.4800 C   0  0  0  0  0  0  0  0  0  0  0  0
  138.5040   68.6750  225.2310 C   0  0  0  0  0  0  0  0  0  0  0  0
  139.1420   68.3560  226.3930 C   0  0  0  0  0  0  0  0  0  0  0  0
  140.2480   69.0710  226.8410 C   0  0  0  0  0  0  0  0  0  0  0  0
  141.0450   68.6200  228.3510 Cl  0  0  0  0  0  0  0  0  0  0  0  0
  140.7060   70.1360  226.0770 C   0  0  0  0  0  0  0  0  0  0  0  0
  140.0700   70.4760  224.8910 C   0  0  0  0  0  0  0  0  0  0  0  0
  140.5690   71.5150  224.1980 N   0  0  0  0  0  0  0  0  0  0  0  0
  138.8680   74.2540  222.9110 H   0  0  0  0  0  0  0  0  0  0  0  0
  141.1871   75.3126  221.2706 H   0  0  0  0  0  0  0  0  0  0  0  0
  139.4884   75.4299  220.6251 H   0  0  0  0  0  0  0  0  0  0  0  0
  140.7411   78.2167  224.2433 H   0  0  0  0  0  0  0  0  0  0  0  0
  142.1229   77.2685  223.5758 H   0  0  0  0  0  0  0  0  0  0  0  0
  142.5795   79.6651  224.2394 H   0  0  0  0  0  0  0  0  0  0  0  0
  143.0604   79.1386  222.5664 H   0  0  0  0  0  0  0  0  0  0  0  0
  140.8632   80.9252  223.4730 H   0  0  0  0  0  0  0  0  0  0  0  0
  142.1773   81.0971  222.1640 H   0  0  0  0  0  0  0  0  0  0  0  0
  139.4443   80.2105  221.9863 H   0  0  0  0  0  0  0  0  0  0  0  0
  140.6378   80.8214  220.7510 H   0  0  0  0  0  0  0  0  0  0  0  0
  139.8046   78.4041  220.3970 H   0  0  0  0  0  0  0  0  0  0  0  0
  142.6016   78.7678  220.6732 H   0  0  0  0  0  0  0  0  0  0  0  0
  140.8225   80.2381  219.0412 H   0  0  0  0  0  0  0  0  0  0  0  0
  142.6536   80.2030  219.0654 H   0  0  0  0  0  0  0  0  0  0  0  0
  140.8482   78.4497  217.4154 H   0  0  0  0  0  0  0  0  0  0  0  0
  141.8092   79.8729  216.8503 H   0  0  0  0  0  0  0  0  0  0  0  0
  142.8995   77.6951  216.3999 H   0  0  0  0  0  0  0  0  0  0  0  0
  143.8631   78.7868  217.4494 H   0  0  0  0  0  0  0  0  0  0  0  0
  142.9566   76.1483  217.9670 H   0  0  0  0  0  0  0  0  0  0  0  0
  143.8812   77.3008  219.0430 H   0  0  0  0  0  0  0  0  0  0  0  0
  140.8692   77.0267  218.8469 H   0  0  0  0  0  0  0  0  0  0  0  0
  141.9382   76.4697  220.1942 H   0  0  0  0  0  0  0  0  0  0  0  0
  138.4010   71.4815  221.6039 H   0  0  0  0  0  0  0  0  0  0  0  0
  137.5170   69.5711  222.9185 H   0  0  0  0  0  0  0  0  0  0  0  0
  137.6300   68.0979  224.8946 H   0  0  0  0  0  0  0  0  0  0  0  0
  138.7723   67.5108  226.9921 H   0  0  0  0  0  0  0  0  0  0  0  0
  141.5789   70.7143  226.4139 H   0  0  0  0  0  0  0  0  0  0  0  0
  1  2  2  0
  2  3  1  0
  3  4  1  0
  4  5  1  0
  5  6  2  0
  5  7  1  0
  7  8  1  0
  8  9  1  0
  9 10  1  0
 10 11  1  0
 11 12  1  0
 12 13  1  0
 13 14  1  0
 14 15  1  0
 15 16  1  0
 16 17  1  0
 17 18  1  0
  2 19  1  0
 19 20  2  0
 20 21  1  0
 21 22  2  0
 22 23  1  0
 23 24  2  0
 24 25  1  0
 25 26  1  0
 25 27  2  0
 27 28  1  0
 28 29  2  0
 12  7  1  0
 18 13  1  0
 29 19  1  0
 28 22  1  0
  3 30  1  0
  4 31  1  0
  4 32  1  0
  8 33  1  0
  8 34  1  0
  9 35  1  0
  9 36  1  0
 10 37  1  0
 10 38  1  0
 11 39  1  0
 11 40  1  0
 12 41  1  6
 13 42  1  0
 14 43  1  0
 14 44  1  0
 15 45  1  0
 15 46  1  0
 16 47  1  0
 16 48  1  0
 17 49  1  0
 17 50  1  0
 18 51  1  0
 18 52  1  0
 20 53  1  0
 21 54  1  0
 23 55  1  0
 24 56  1  0
 27 57  1  0
M  END
>  <smiles>  (95) 
O=C(NCC(=O)N1CCCCC1C1CCCCC1)c1ccc2ccc(Cl)cc2n1

>  <score_type>  (95) 
oracle

>  <origin>  (95) 
autodockgpu

>  <m_score__min__energy>  (95) 
-8.8499999999999996

>  <m_primary>  (95) 
energy

>  <rmsd>  (95) 
3.811606308503516

>  <m_score__min__rmsd>  (95) 
3.811606308503516

>  <meeko>  (95) 
{"free_energy": -8.47, "intermolecular_energy": -9.96, "internal_energy": -1.66, "cluster_size": 28, "cluster_id": 1, "rank_in_cluster": 19}

>  <energy>  (95) 
-7.3

>  <cluster_rmsd>  (95) 
0.2

>  <cluster>  (95) 
6

$$$$

     RDKit          3D

 57 60  0  0  0  0  0  0  0  0999 V2000
  141.2890   73.3010  221.7550 O   0  0  0  0  0  0  0  0  0  0  0  0
  140.1970   73.0380  222.3480 C   0  0  0  0  0  0  0  0  0  0  0  0
  139.1400   73.9880  222.3290 N   0  0  0  0  0  0  0  0  0  0  0  0
  139.2630   75.2810  221.6470 C   0  0  0  0  0  0  0  0  0  0  0  0
  138.5300   76.3310  222.3060 C   0  0  0  0  0  0  0  0  0  0  0  0
  137.6020   75.9910  223.1220 O   0  0  0  0  0  0  0  0  0  0  0  0
  138.6920   77.7510  222.1730 N   0  0  0  0  0  0  0  0  0  0  0  0
  137.8020   78.5120  223.0450 C   0  0  0  0  0  0  0  0  0  0  0  0
  138.0440   79.9660  222.8920 C   0  0  0  0  0  0  0  0  0  0  0  0
  138.1540   80.3740  221.4720 C   0  0  0  0  0  0  0  0  0  0  0  0
  138.8520   79.4560  220.5360 C   0  0  0  0  0  0  0  0  0  0  0  0
  139.6190   78.3540  221.2470 C   0  0  1  0  0  0  0  0  0  0  0  0
  140.9320   78.7650  221.7500 C   0  0  0  0  0  0  0  0  0  0  0  0
  141.2750   78.3230  223.1500 C   0  0  0  0  0  0  0  0  0  0  0  0
  141.7000   79.4280  224.0470 C   0  0  0  0  0  0  0  0  0  0  0  0
  142.8840   80.1370  223.4980 C   0  0  0  0  0  0  0  0  0  0  0  0
  142.5830   80.6000  222.1160 C   0  0  0  0  0  0  0  0  0  0  0  0
  141.1860   80.2560  221.6540 C   0  0  0  0  0  0  0  0  0  0  0  0
  139.9690   71.7850  223.0600 C   0  0  0  0  0  0  0  0  0  0  0  0
  139.2340   70.8110  222.3760 C   0  0  0  0  0  0  0  0  0  0  0  0
  138.9920   69.6150  223.0170 C   0  0  0  0  0  0  0  0  0  0  0  0
  139.4560   69.3700  224.2960 C   0  0  0  0  0  0  0  0  0  0  0  0
  139.2230   68.1680  224.9520 C   0  0  0  0  0  0  0  0  0  0  0  0
  139.7190   68.0020  226.2120 C   0  0  0  0  0  0  0  0  0  0  0  0
  140.4470   69.0010  226.8500 C   0  0  0  0  0  0  0  0  0  0  0  0
  141.0740   68.7400  228.4790 Cl  0  0  0  0  0  0  0  0  0  0  0  0
  140.6680   70.1950  226.1770 C   0  0  0  0  0  0  0  0  0  0  0  0
  140.1710   70.3840  224.8950 C   0  0  0  0  0  0  0  0  0  0  0  0
  140.4260   71.5630  224.3000 N   0  0  0  0  0  0  0  0  0  0  0  0
  138.2330   73.7520  222.8260 H   0  0  0  0  0  0  0  0  0  0  0  0
  140.3261   75.5615  221.6144 H   0  0  0  0  0  0  0  0  0  0  0  0
  138.8407   75.1649  220.6380 H   0  0  0  0  0  0  0  0  0  0  0  0
  136.7579   78.2890  222.7801 H   0  0  0  0  0  0  0  0  0  0  0  0
  137.9975   78.2267  224.0892 H   0  0  0  0  0  0  0  0  0  0  0  0
  137.2088   80.5136  223.3532 H   0  0  0  0  0  0  0  0  0  0  0  0
  138.9999   80.2004  223.3833 H   0  0  0  0  0  0  0  0  0  0  0  0
  137.1315   80.5141  221.0915 H   0  0  0  0  0  0  0  0  0  0  0  0
  138.7828   81.2763  221.4928 H   0  0  0  0  0  0  0  0  0  0  0  0
  138.1037   78.9927  219.8761 H   0  0  0  0  0  0  0  0  0  0  0  0
  139.5827   80.0543  219.9719 H   0  0  0  0  0  0  0  0  0  0  0  0
  139.9550   77.5677  220.5550 H   0  0  0  0  0  0  0  0  0  0  0  0
  141.5949   78.2226  221.0598 H   0  0  0  0  0  0  0  0  0  0  0  0
  140.3871   77.8440  223.5885 H   0  0  0  0  0  0  0  0  0  0  0  0
  142.1298   77.6359  223.0656 H   0  0  0  0  0  0  0  0  0  0  0  0
  140.8709   80.1429  224.1541 H   0  0  0  0  0  0  0  0  0  0  0  0
  141.9706   79.0006  225.0238 H   0  0  0  0  0  0  0  0  0  0  0  0
  143.1201   81.0039  224.1327 H   0  0  0  0  0  0  0  0  0  0  0  0
  143.7460   79.4540  223.4782 H   0  0  0  0  0  0  0  0  0  0  0  0
  142.7014   81.6931  222.0818 H   0  0  0  0  0  0  0  0  0  0  0  0
  143.2822   80.0825  221.4428 H   0  0  0  0  0  0  0  0  0  0  0  0
  140.4579   80.7860  222.2856 H   0  0  0  0  0  0  0  0  0  0  0  0
  141.0802   80.5618  220.6027 H   0  0  0  0  0  0  0  0  0  0  0  0
  138.8605   70.9940  221.3577 H   0  0  0  0  0  0  0  0  0  0  0  0
  138.4150   68.8357  222.4977 H   0  0  0  0  0  0  0  0  0  0  0  0
  138.6497   67.3655  224.4649 H   0  0  0  0  0  0  0  0  0  0  0  0
  139.5384   67.0527  226.7376 H   0  0  0  0  0  0  0  0  0  0  0  0
  141.2415   70.9976  226.6637 H   0  0  0  0  0  0  0  0  0  0  0  0
  1  2  2  0
  2  3  1  0
  3  4  1  0
  4  5  1  0
  5  6  2  0
  5  7  1  0
  7  8  1  0
  8  9  1  0
  9 10  1  0
 10 11  1  0
 11 12  1  0
 12 13  1  0
 13 14  1  0
 14 15  1  0
 15 16  1  0
 16 17  1  0
 17 18  1  0
  2 19  1  0
 19 20  2  0
 20 21  1  0
 21 22  2  0
 22 23  1  0
 23 24  2  0
 24 25  1  0
 25 26  1  0
 25 27  2  0
 27 28  1  0
 28 29  2  0
 12  7  1  0
 18 13  1  0
 29 19  1  0
 28 22  1  0
  3 30  1  0
  4 31  1  0
  4 32  1  0
  8 33  1  0
  8 34  1  0
  9 35  1  0
  9 36  1  0
 10 37  1  0
 10 38  1  0
 11 39  1  0
 11 40  1  0
 12 41  1  6
 13 42  1  0
 14 43  1  0
 14 44  1  0
 15 45  1  0
 15 46  1  0
 16 47  1  0
 16 48  1  0
 17 49  1  0
 17 50  1  0
 18 51  1  0
 18 52  1  0
 20 53  1  0
 21 54  1  0
 23 55  1  0
 24 56  1  0
 27 57  1  0
M  END
>  <smiles>  (96) 
O=C(NCC(=O)N1CCCCC1C1CCCCC1)c1ccc2ccc(Cl)cc2n1

>  <score_type>  (96) 
oracle

>  <origin>  (96) 
autodockgpu

>  <m_score__min__energy>  (96) 
-8.8499999999999996

>  <m_primary>  (96) 
energy

>  <rmsd>  (96) 
3.571565940436206

>  <m_score__min__rmsd>  (96) 
3.571565940436206

>  <meeko>  (96) 
{"free_energy": -8.64, "intermolecular_energy": -10.13, "internal_energy": -1.75, "cluster_size": 28, "cluster_id": 1, "rank_in_cluster": 8}

>  <energy>  (96) 
-7.23

>  <cluster_rmsd>  (96) 
0.52

>  <cluster>  (96) 
6

$$$$

     RDKit          3D

 57 60  0  0  0  0  0  0  0  0999 V2000
  141.3710   74.3540  220.7250 O   0  0  0  0  0  0  0  0  0  0  0  0
  140.4810   74.5920  221.5980 C   0  0  0  0  0  0  0  0  0  0  0  0
  139.7660   73.5140  222.1870 N   0  0  0  0  0  0  0  0  0  0  0  0
  140.0160   72.1160  221.8190 C   0  0  0  0  0  0  0  0  0  0  0  0
  140.0340   71.2350  222.9570 C   0  0  0  0  0  0  0  0  0  0  0  0
  141.0440   71.2920  223.7430 O   0  0  0  0  0  0  0  0  0  0  0  0
  139.0500   70.2650  223.3490 N   0  0  0  0  0  0  0  0  0  0  0  0
  138.8150   69.2450  222.3300 C   0  0  0  0  0  0  0  0  0  0  0  0
  137.8230   68.2540  222.8090 C   0  0  0  0  0  0  0  0  0  0  0  0
  136.6490   68.8920  223.4490 C   0  0  0  0  0  0  0  0  0  0  0  0
  136.8820   70.0950  224.2880 C   0  0  0  0  0  0  0  0  0  0  0  0
  138.3500   70.3190  224.6090 C   0  0  1  0  0  0  0  0  0  0  0  0
  138.8540   69.5060  225.7180 C   0  0  0  0  0  0  0  0  0  0  0  0
  139.7430   70.2110  226.7090 C   0  0  0  0  0  0  0  0  0  0  0  0
  141.0470   69.5380  226.9410 C   0  0  0  0  0  0  0  0  0  0  0  0
  140.8510   68.1470  227.4250 C   0  0  0  0  0  0  0  0  0  0  0  0
  139.9840   67.4100  226.4670 C   0  0  0  0  0  0  0  0  0  0  0  0
  139.5580   68.2380  225.2760 C   0  0  0  0  0  0  0  0  0  0  0  0
  140.1490   75.9440  222.0360 C   0  0  0  0  0  0  0  0  0  0  0  0
  138.7920   76.2830  222.0190 C   0  0  0  0  0  0  0  0  0  0  0  0
  138.4370   77.5540  222.4190 C   0  0  0  0  0  0  0  0  0  0  0  0
  139.3830   78.4760  222.8300 C   0  0  0  0  0  0  0  0  0  0  0  0
  139.0400   79.7570  223.2390 C   0  0  0  0  0  0  0  0  0  0  0  0
  140.0310   80.6070  223.6340 C   0  0  0  0  0  0  0  0  0  0  0  0
  141.3670   80.2220  223.6350 C   0  0  0  0  0  0  0  0  0  0  0  0
  142.6170   81.3530  224.1590 Cl  0  0  0  0  0  0  0  0  0  0  0  0
  141.6900   78.9360  223.2210 C   0  0  0  0  0  0  0  0  0  0  0  0
  140.6950   78.0580  222.8150 C   0  0  0  0  0  0  0  0  0  0  0  0
  141.0770   76.8270  222.4300 N   0  0  0  0  0  0  0  0  0  0  0  0
  139.0270   73.7300  222.9180 H   0  0  0  0  0  0  0  0  0  0  0  0
  139.2231   71.7862  221.1316 H   0  0  0  0  0  0  0  0  0  0  0  0
  141.0091   72.0697  221.3482 H   0  0  0  0  0  0  0  0  0  0  0  0
  138.4346   69.7261  221.4168 H   0  0  0  0  0  0  0  0  0  0  0  0
  139.7623   68.7275  222.1186 H   0  0  0  0  0  0  0  0  0  0  0  0
  137.4771   67.6580  221.9516 H   0  0  0  0  0  0  0  0  0  0  0  0
  138.3160   67.6254  223.5651 H   0  0  0  0  0  0  0  0  0  0  0  0
  135.9558   69.1823  222.6458 H   0  0  0  0  0  0  0  0  0  0  0  0
  136.2732   68.1343  224.1524 H   0  0  0  0  0  0  0  0  0  0  0  0
  136.5022   70.9763  223.7504 H   0  0  0  0  0  0  0  0  0  0  0  0
  136.3567   69.9381  225.2416 H   0  0  0  0  0  0  0  0  0  0  0  0
  138.5334   71.3108  225.0480 H   0  0  0  0  0  0  0  0  0  0  0  0
  137.9149   69.2590  226.2348 H   0  0  0  0  0  0  0  0  0  0  0  0
  139.9402   71.2264  226.3347 H   0  0  0  0  0  0  0  0  0  0  0  0
  139.2096   70.2086  227.6710 H   0  0  0  0  0  0  0  0  0  0  0  0
  141.6121   69.5141  225.9975 H   0  0  0  0  0  0  0  0  0  0  0  0
  141.5997   70.1007  227.7078 H   0  0  0  0  0  0  0  0  0  0  0  0
  141.8261   67.6434  227.5003 H   0  0  0  0  0  0  0  0  0  0  0  0
  140.3725   68.1657  228.4153 H   0  0  0  0  0  0  0  0  0  0  0  0
  140.5377   66.5329  226.1007 H   0  0  0  0  0  0  0  0  0  0  0  0
  139.0688   67.1303  227.0094 H   0  0  0  0  0  0  0  0  0  0  0  0
  140.4481   68.5072  224.6884 H   0  0  0  0  0  0  0  0  0  0  0  0
  138.8597   67.6437  224.6685 H   0  0  0  0  0  0  0  0  0  0  0  0
  138.0309   75.5574  221.6962 H   0  0  0  0  0  0  0  0  0  0  0  0
  137.3754   77.8419  222.4111 H   0  0  0  0  0  0  0  0  0  0  0  0
  137.9887   80.0808  223.2445 H   0  0  0  0  0  0  0  0  0  0  0  0
  139.7663   81.6236  223.9603 H   0  0  0  0  0  0  0  0  0  0  0  0
  142.7411   78.6116  223.2149 H   0  0  0  0  0  0  0  0  0  0  0  0
  1  2  2  0
  2  3  1  0
  3  4  1  0
  4  5  1  0
  5  6  2  0
  5  7  1  0
  7  8  1  0
  8  9  1  0
  9 10  1  0
 10 11  1  0
 11 12  1  0
 12 13  1  0
 13 14  1  0
 14 15  1  0
 15 16  1  0
 16 17  1  0
 17 18  1  0
  2 19  1  0
 19 20  2  0
 20 21  1  0
 21 22  2  0
 22 23  1  0
 23 24  2  0
 24 25  1  0
 25 26  1  0
 25 27  2  0
 27 28  1  0
 28 29  2  0
 12  7  1  0
 18 13  1  0
 29 19  1  0
 28 22  1  0
  3 30  1  0
  4 31  1  0
  4 32  1  0
  8 33  1  0
  8 34  1  0
  9 35  1  0
  9 36  1  0
 10 37  1  0
 10 38  1  0
 11 39  1  0
 11 40  1  0
 12 41  1  1
 13 42  1  0
 14 43  1  0
 14 44  1  0
 15 45  1  0
 15 46  1  0
 16 47  1  0
 16 48  1  0
 17 49  1  0
 17 50  1  0
 18 51  1  0
 18 52  1  0
 20 53  1  0
 21 54  1  0
 23 55  1  0
 24 56  1  0
 27 57  1  0
M  END
>  <smiles>  (97) 
O=C(NCC(=O)N1CCCCC1C1CCCCC1)c1ccc2ccc(Cl)cc2n1

>  <score_type>  (97) 
oracle

>  <origin>  (97) 
autodockgpu

>  <m_score__min__energy>  (97) 
-8.8499999999999996

>  <m_primary>  (97) 
energy

>  <rmsd>  (97) 
8.03210537222053

>  <m_score__min__rmsd>  (97) 
8.03210537222053

>  <meeko>  (97) 
{"free_energy": -8.83, "intermolecular_energy": -10.32, "internal_energy": -1.25, "cluster_size": 4, "cluster_id": 2, "rank_in_cluster": 1}

>  <energy>  (97) 
-7.18

>  <cluster_rmsd>  (97) 
0.34

>  <cluster>  (97) 
6

$$$$

     RDKit          3D

 57 60  0  0  0  0  0  0  0  0999 V2000
  140.5060   78.0920  217.9110 O   0  0  0  0  0  0  0  0  0  0  0  0
  141.5830   77.8740  218.5480 C   0  0  0  0  0  0  0  0  0  0  0  0
  142.3840   78.9690  218.9730 N   0  0  0  0  0  0  0  0  0  0  0  0
  142.0130   80.3610  218.6970 C   0  0  0  0  0  0  0  0  0  0  0  0
  141.4000   81.0080  219.8280 C   0  0  0  0  0  0  0  0  0  0  0  0
  140.6270   82.0050  219.6010 O   0  0  0  0  0  0  0  0  0  0  0  0
  141.5390   80.6900  221.2220 N   0  0  0  0  0  0  0  0  0  0  0  0
  141.3990   81.8550  222.0910 C   0  0  0  0  0  0  0  0  0  0  0  0
  141.5110   81.4570  223.5140 C   0  0  0  0  0  0  0  0  0  0  0  0
  142.6440   80.5330  223.7540 C   0  0  0  0  0  0  0  0  0  0  0  0
  142.9330   79.5020  222.7250 C   0  0  0  0  0  0  0  0  0  0  0  0
  141.8200   79.3590  221.7000 C   0  0  1  0  0  0  0  0  0  0  0  0
  140.6960   78.5310  222.1460 C   0  0  0  0  0  0  0  0  0  0  0  0
  141.0400   77.1400  222.6130 C   0  0  0  0  0  0  0  0  0  0  0  0
  140.2640   76.0660  221.9410 C   0  0  0  0  0  0  0  0  0  0  0  0
  138.8040   76.2580  222.1420 C   0  0  0  0  0  0  0  0  0  0  0  0
  138.4200   77.6200  221.6830 C   0  0  0  0  0  0  0  0  0  0  0  0
  139.5770   78.4210  221.1310 C   0  0  0  0  0  0  0  0  0  0  0  0
  142.0480   76.5290  218.8720 C   0  0  0  0  0  0  0  0  0  0  0  0
  141.2270   75.4750  218.4570 C   0  0  0  0  0  0  0  0  0  0  0  0
  141.6280   74.1900  218.7500 C   0  0  0  0  0  0  0  0  0  0  0  0
  142.8050   73.9330  219.4310 C   0  0  0  0  0  0  0  0  0  0  0  0
  143.2230   72.6430  219.7280 C   0  0  0  0  0  0  0  0  0  0  0  0
  144.3980   72.4730  220.3990 C   0  0  0  0  0  0  0  0  0  0  0  0
  145.1810   73.5550  220.7890 C   0  0  0  0  0  0  0  0  0  0  0  0
  146.6980   73.2870  221.6520 Cl  0  0  0  0  0  0  0  0  0  0  0  0
  144.7450   74.8360  220.4830 C   0  0  0  0  0  0  0  0  0  0  0  0
  143.5510   75.0300  219.8020 C   0  0  0  0  0  0  0  0  0  0  0  0
  143.1900   76.2970  219.5340 N   0  0  0  0  0  0  0  0  0  0  0  0
  143.2790   78.7700  219.5070 H   0  0  0  0  0  0  0  0  0  0  0  0
  142.9202   80.9189  218.4216 H   0  0  0  0  0  0  0  0  0  0  0  0
  141.2765   80.3526  217.8800 H   0  0  0  0  0  0  0  0  0  0  0  0
  142.1914   82.5804  221.8545 H   0  0  0  0  0  0  0  0  0  0  0  0
  140.4098   82.3064  221.9245 H   0  0  0  0  0  0  0  0  0  0  0  0
  141.6572   82.3611  224.1233 H   0  0  0  0  0  0  0  0  0  0  0  0
  140.5849   80.9311  223.7893 H   0  0  0  0  0  0  0  0  0  0  0  0
  143.5495   81.1476  223.8645 H   0  0  0  0  0  0  0  0  0  0  0  0
  142.3458   79.9578  224.6429 H   0  0  0  0  0  0  0  0  0  0  0  0
  143.8592   79.7799  222.2006 H   0  0  0  0  0  0  0  0  0  0  0  0
  143.0292   78.5368  223.2437 H   0  0  0  0  0  0  0  0  0  0  0  0
  142.1270   78.7540  220.8341 H   0  0  0  0  0  0  0  0  0  0  0  0
  140.3571   79.1001  223.0242 H   0  0  0  0  0  0  0  0  0  0  0  0
  142.1090   76.9656  222.4213 H   0  0  0  0  0  0  0  0  0  0  0  0
  140.7873   77.0926  223.6825 H   0  0  0  0  0  0  0  0  0  0  0  0
  140.4841   76.0837  220.8634 H   0  0  0  0  0  0  0  0  0  0  0  0
  140.5536   75.0989  222.3778 H   0  0  0  0  0  0  0  0  0  0  0  0
  138.2509   75.5050  221.5615 H   0  0  0  0  0  0  0  0  0  0  0  0
  138.5608   76.1463  223.2090 H   0  0  0  0  0  0  0  0  0  0  0  0
  137.6591   77.5198  220.8950 H   0  0  0  0  0  0  0  0  0  0  0  0
  138.0426   78.1624  222.5624 H   0  0  0  0  0  0  0  0  0  0  0  0
  139.9592   77.9243  220.2270 H   0  0  0  0  0  0  0  0  0  0  0  0
  139.2195   79.4337  220.8932 H   0  0  0  0  0  0  0  0  0  0  0  0
  140.2900   75.6664  217.9134 H   0  0  0  0  0  0  0  0  0  0  0  0
  140.9964   73.3465  218.4345 H   0  0  0  0  0  0  0  0  0  0  0  0
  142.6181   71.7746  219.4279 H   0  0  0  0  0  0  0  0  0  0  0  0
  144.7356   71.4538  220.6382 H   0  0  0  0  0  0  0  0  0  0  0  0
  145.3500   75.7046  220.7823 H   0  0  0  0  0  0  0  0  0  0  0  0
  1  2  2  0
  2  3  1  0
  3  4  1  0
  4  5  1  0
  5  6  2  0
  5  7  1  0
  7  8  1  0
  8  9  1  0
  9 10  1  0
 10 11  1  0
 11 12  1  0
 12 13  1  0
 13 14  1  0
 14 15  1  0
 15 16  1  0
 16 17  1  0
 17 18  1  0
  2 19  1  0
 19 20  2  0
 20 21  1  0
 21 22  2  0
 22 23  1  0
 23 24  2  0
 24 25  1  0
 25 26  1  0
 25 27  2  0
 27 28  1  0
 28 29  2  0
 12  7  1  0
 18 13  1  0
 29 19  1  0
 28 22  1  0
  3 30  1  0
  4 31  1  0
  4 32  1  0
  8 33  1  0
  8 34  1  0
  9 35  1  0
  9 36  1  0
 10 37  1  0
 10 38  1  0
 11 39  1  0
 11 40  1  0
 12 41  1  6
 13 42  1  0
 14 43  1  0
 14 44  1  0
 15 45  1  0
 15 46  1  0
 16 47  1  0
 16 48  1  0
 17 49  1  0
 17 50  1  0
 18 51  1  0
 18 52  1  0
 20 53  1  0
 21 54  1  0
 23 55  1  0
 24 56  1  0
 27 57  1  0
M  END
>  <smiles>  (98) 
O=C(NCC(=O)N1CCCCC1C1CCCCC1)c1ccc2ccc(Cl)cc2n1

>  <score_type>  (98) 
oracle

>  <origin>  (98) 
autodockgpu

>  <m_score__min__energy>  (98) 
-8.8499999999999996

>  <m_primary>  (98) 
energy

>  <rmsd>  (98) 
7.746855592623602

>  <m_score__min__rmsd>  (98) 
7.746855592623602

>  <meeko>  (98) 
{"free_energy": -7.34, "intermolecular_energy": -8.83, "internal_energy": -2.96, "cluster_size": 11, "cluster_id": 6, "rank_in_cluster": 1}

>  <energy>  (98) 
-7.14

>  <cluster_rmsd>  (98) 
0.4

>  <cluster>  (98) 
6

$$$$

     RDKit          3D

 57 60  0  0  0  0  0  0  0  0999 V2000
  141.2510   73.4610  221.0140 O   0  0  0  0  0  0  0  0  0  0  0  0
  140.4080   73.5570  221.9590 C   0  0  0  0  0  0  0  0  0  0  0  0
  139.8810   74.8300  222.3080 N   0  0  0  0  0  0  0  0  0  0  0  0
  140.2810   76.0580  221.6110 C   0  0  0  0  0  0  0  0  0  0  0  0
  139.8660   77.2510  222.3030 C   0  0  0  0  0  0  0  0  0  0  0  0
  138.7500   77.2200  222.9320 O   0  0  0  0  0  0  0  0  0  0  0  0
  140.5440   78.5130  222.3890 N   0  0  0  0  0  0  0  0  0  0  0  0
  141.3670   78.8010  221.2170 C   0  0  0  0  0  0  0  0  0  0  0  0
  142.0070   80.1310  221.3470 C   0  0  0  0  0  0  0  0  0  0  0  0
  142.5960   80.3470  222.6890 C   0  0  0  0  0  0  0  0  0  0  0  0
  141.8590   79.8180  223.8660 C   0  0  0  0  0  0  0  0  0  0  0  0
  140.4410   79.3860  223.5330 C   0  0  1  0  0  0  0  0  0  0  0  0
  139.4750   80.4850  223.4810 C   0  0  0  0  0  0  0  0  0  0  0  0
  138.4240   80.4970  224.5620 C   0  0  0  0  0  0  0  0  0  0  0  0
  137.0310   80.5780  224.0530 C   0  0  0  0  0  0  0  0  0  0  0  0
  136.8360   81.7960  223.2250 C   0  0  0  0  0  0  0  0  0  0  0  0
  137.8490   81.8180  222.1360 C   0  0  0  0  0  0  0  0  0  0  0  0
  138.7730   80.6210  222.1450 C   0  0  0  0  0  0  0  0  0  0  0  0
  139.9440   72.4010  222.7200 C   0  0  0  0  0  0  0  0  0  0  0  0
  138.9370   71.6340  222.1270 C   0  0  0  0  0  0  0  0  0  0  0  0
  138.4670   70.5370  222.8170 C   0  0  0  0  0  0  0  0  0  0  0  0
  138.9690   70.1910  224.0580 C   0  0  0  0  0  0  0  0  0  0  0  0
  138.5080   69.0870  224.7630 C   0  0  0  0  0  0  0  0  0  0  0  0
  139.0570   68.8090  225.9800 C   0  0  0  0  0  0  0  0  0  0  0  0
  140.0600   69.6030  226.5280 C   0  0  0  0  0  0  0  0  0  0  0  0
  140.7450   69.2030  228.1060 Cl  0  0  0  0  0  0  0  0  0  0  0  0
  140.5060   70.7030  225.8080 C   0  0  0  0  0  0  0  0  0  0  0  0
  139.9590   71.0020  224.5680 C   0  0  0  0  0  0  0  0  0  0  0  0
  140.4400   72.0790  223.9240 N   0  0  0  0  0  0  0  0  0  0  0  0
  139.1750   74.8920  223.0970 H   0  0  0  0  0  0  0  0  0  0  0  0
  141.3770   76.0686  221.5179 H   0  0  0  0  0  0  0  0  0  0  0  0
  139.7888   76.0567  220.6272 H   0  0  0  0  0  0  0  0  0  0  0  0
  142.1473   78.0312  221.1245 H   0  0  0  0  0  0  0  0  0  0  0  0
  140.7260   78.8003  220.3231 H   0  0  0  0  0  0  0  0  0  0  0  0
  142.8045   80.2141  220.5939 H   0  0  0  0  0  0  0  0  0  0  0  0
  141.2284   80.8933  221.1964 H   0  0  0  0  0  0  0  0  0  0  0  0
  143.5916   79.8792  222.6888 H   0  0  0  0  0  0  0  0  0  0  0  0
  142.5824   81.4387  222.8233 H   0  0  0  0  0  0  0  0  0  0  0  0
  142.4064   78.9495  224.2611 H   0  0  0  0  0  0  0  0  0  0  0  0
  141.7908   80.6307  224.6041 H   0  0  0  0  0  0  0  0  0  0  0  0
  139.9791   78.8105  224.3488 H   0  0  0  0  0  0  0  0  0  0  0  0
  140.1362   81.3474  223.6516 H   0  0  0  0  0  0  0  0  0  0  0  0
  138.5234   79.5731  225.1507 H   0  0  0  0  0  0  0  0  0  0  0  0
  138.5958   81.4033  225.1612 H   0  0  0  0  0  0  0  0  0  0  0  0
  136.8197   79.6891  223.4404 H   0  0  0  0  0  0  0  0  0  0  0  0
  136.3463   80.6256  224.9126 H   0  0  0  0  0  0  0  0  0  0  0  0
  135.8267   81.7852  222.7877 H   0  0  0  0  0  0  0  0  0  0  0  0
  136.9516   82.6912  223.8537 H   0  0  0  0  0  0  0  0  0  0  0  0
  137.3217   81.8431  221.1709 H   0  0  0  0  0  0  0  0  0  0  0  0
  138.4739   82.7093  222.2944 H   0  0  0  0  0  0  0  0  0  0  0  0
  138.1847   79.7114  221.9538 H   0  0  0  0  0  0  0  0  0  0  0  0
  139.5337   80.7604  221.3627 H   0  0  0  0  0  0  0  0  0  0  0  0
  138.5316   71.8979  221.1391 H   0  0  0  0  0  0  0  0  0  0  0  0
  137.6728   69.9216  222.3691 H   0  0  0  0  0  0  0  0  0  0  0  0
  137.7146   68.4484  224.3474 H   0  0  0  0  0  0  0  0  0  0  0  0
  138.6979   67.9348  226.5429 H   0  0  0  0  0  0  0  0  0  0  0  0
  141.2988   71.3424  226.2234 H   0  0  0  0  0  0  0  0  0  0  0  0
  1  2  2  0
  2  3  1  0
  3  4  1  0
  4  5  1  0
  5  6  2  0
  5  7  1  0
  7  8  1  0
  8  9  1  0
  9 10  1  0
 10 11  1  0
 11 12  1  0
 12 13  1  0
 13 14  1  0
 14 15  1  0
 15 16  1  0
 16 17  1  0
 17 18  1  0
  2 19  1  0
 19 20  2  0
 20 21  1  0
 21 22  2  0
 22 23  1  0
 23 24  2  0
 24 25  1  0
 25 26  1  0
 25 27  2  0
 27 28  1  0
 28 29  2  0
 12  7  1  0
 18 13  1  0
 29 19  1  0
 28 22  1  0
  3 30  1  0
  4 31  1  0
  4 32  1  0
  8 33  1  0
  8 34  1  0
  9 35  1  0
  9 36  1  0
 10 37  1  0
 10 38  1  0
 11 39  1  0
 11 40  1  0
 12 41  1  1
 13 42  1  0
 14 43  1  0
 14 44  1  0
 15 45  1  0
 15 46  1  0
 16 47  1  0
 16 48  1  0
 17 49  1  0
 17 50  1  0
 18 51  1  0
 18 52  1  0
 20 53  1  0
 21 54  1  0
 23 55  1  0
 24 56  1  0
 27 57  1  0
M  END
>  <smiles>  (99) 
O=C(NCC(=O)N1CCCCC1C1CCCCC1)c1ccc2ccc(Cl)cc2n1

>  <score_type>  (99) 
oracle

>  <origin>  (99) 
autodockgpu

>  <m_score__min__energy>  (99) 
-8.8499999999999996

>  <m_primary>  (99) 
energy

>  <rmsd>  (99) 
4.048012172582853

>  <m_score__min__rmsd>  (99) 
4.048012172582853

>  <meeko>  (99) 
{"free_energy": -8.54, "intermolecular_energy": -10.04, "internal_energy": -1.75, "cluster_size": 28, "cluster_id": 1, "rank_in_cluster": 11}

>  <energy>  (99) 
-7.11

>  <cluster_rmsd>  (99) 
0.56

>  <cluster>  (99) 
6

$$$$

     RDKit          3D

 57 60  0  0  0  0  0  0  0  0999 V2000
  141.7250   72.5420  221.5800 O   0  0  0  0  0  0  0  0  0  0  0  0
  140.6760   72.6150  222.2930 C   0  0  0  0  0  0  0  0  0  0  0  0
  139.9240   73.8210  222.3170 N   0  0  0  0  0  0  0  0  0  0  0  0
  140.3170   75.0030  221.5430 C   0  0  0  0  0  0  0  0  0  0  0  0
  139.7590   76.2230  222.0660 C   0  0  0  0  0  0  0  0  0  0  0  0
  138.6180   76.1590  222.6450 O   0  0  0  0  0  0  0  0  0  0  0  0
  140.3150   77.5470  222.0280 N   0  0  0  0  0  0  0  0  0  0  0  0
  141.1190   77.7950  220.8350 C   0  0  0  0  0  0  0  0  0  0  0  0
  141.6290   79.1860  220.8340 C   0  0  0  0  0  0  0  0  0  0  0  0
  142.1810   79.5860  222.1490 C   0  0  0  0  0  0  0  0  0  0  0  0
  141.4850   79.1080  223.3710 C   0  0  0  0  0  0  0  0  0  0  0  0
  140.1180   78.5130  223.0810 C   0  0  1  0  0  0  0  0  0  0  0  0
  139.0530   79.5060  222.9200 C   0  0  0  0  0  0  0  0  0  0  0  0
  139.0930   80.6820  223.8610 C   0  0  0  0  0  0  0  0  0  0  0  0
  137.8240   80.9130  224.5990 C   0  0  0  0  0  0  0  0  0  0  0  0
  136.6930   81.1290  223.6590 C   0  0  0  0  0  0  0  0  0  0  0  0
  136.6110   79.9820  222.7160 C   0  0  0  0  0  0  0  0  0  0  0  0
  137.6560   78.9180  222.9640 C   0  0  0  0  0  0  0  0  0  0  0  0
  140.1960   71.5010  223.1040 C   0  0  0  0  0  0  0  0  0  0  0  0
  139.1600   70.7390  222.5550 C   0  0  0  0  0  0  0  0  0  0  0  0
  138.6740   69.6810  223.2930 C   0  0  0  0  0  0  0  0  0  0  0  0
  139.1870   69.3690  224.5390 C   0  0  0  0  0  0  0  0  0  0  0  0
  138.7100   68.3040  225.2920 C   0  0  0  0  0  0  0  0  0  0  0  0
  139.2720   68.0580  226.5100 C   0  0  0  0  0  0  0  0  0  0  0  0
  140.3040   68.8450  227.0120 C   0  0  0  0  0  0  0  0  0  0  0  0
  141.0050   68.4880  228.5930 Cl  0  0  0  0  0  0  0  0  0  0  0  0
  140.7650   69.9060  226.2450 C   0  0  0  0  0  0  0  0  0  0  0  0
  140.2060   70.1720  225.0030 C   0  0  0  0  0  0  0  0  0  0  0  0
  140.7040   71.2120  224.3110 N   0  0  0  0  0  0  0  0  0  0  0  0
  139.0480   73.8640  222.9150 H   0  0  0  0  0  0  0  0  0  0  0  0
  141.4139   75.0837  221.5573 H   0  0  0  0  0  0  0  0  0  0  0  0
  139.9308   74.8734  220.5212 H   0  0  0  0  0  0  0  0  0  0  0  0
  141.9694   77.0975  220.8200 H   0  0  0  0  0  0  0  0  0  0  0  0
  140.4906   77.6454  219.9446 H   0  0  0  0  0  0  0  0  0  0  0  0
  142.4227   79.2707  220.0772 H   0  0  0  0  0  0  0  0  0  0  0  0
  140.7839   79.8529  220.6081 H   0  0  0  0  0  0  0  0  0  0  0  0
  143.2158   79.2159  222.1958 H   0  0  0  0  0  0  0  0  0  0  0  0
  142.0638   80.6794  222.1755 H   0  0  0  0  0  0  0  0  0  0  0  0
  142.1077   78.3384  223.8507 H   0  0  0  0  0  0  0  0  0  0  0  0
  141.3326   79.9793  224.0250 H   0  0  0  0  0  0  0  0  0  0  0  0
  139.7040   77.9784  223.9486 H   0  0  0  0  0  0  0  0  0  0  0  0
  139.2748   79.8829  221.9107 H   0  0  0  0  0  0  0  0  0  0  0  0
  139.8932   80.5092  224.5957 H   0  0  0  0  0  0  0  0  0  0  0  0
  139.2679   81.5757  223.2440 H   0  0  0  0  0  0  0  0  0  0  0  0
  137.6079   80.0357  225.2263 H   0  0  0  0  0  0  0  0  0  0  0  0
  137.9392   81.8127  225.2213 H   0  0  0  0  0  0  0  0  0  0  0  0
  135.7536   81.2062  224.2261 H   0  0  0  0  0  0  0  0  0  0  0  0
  136.8558   82.0589  223.0945 H   0  0  0  0  0  0  0  0  0  0  0  0
  135.6166   79.5221  222.8137 H   0  0  0  0  0  0  0  0  0  0  0  0
  136.7904   80.3810  221.7067 H   0  0  0  0  0  0  0  0  0  0  0  0
  137.4854   78.4704  223.9542 H   0  0  0  0  0  0  0  0  0  0  0  0
  137.5725   78.1551  222.1760 H   0  0  0  0  0  0  0  0  0  0  0  0
  138.7454   70.9766  221.5642 H   0  0  0  0  0  0  0  0  0  0  0  0
  137.8578   69.0696  222.8807 H   0  0  0  0  0  0  0  0  0  0  0  0
  137.8942   67.6708  224.9131 H   0  0  0  0  0  0  0  0  0  0  0  0
  138.8998   67.2154  227.1113 H   0  0  0  0  0  0  0  0  0  0  0  0
  141.5794   70.5407  226.6244 H   0  0  0  0  0  0  0  0  0  0  0  0
  1  2  2  0
  2  3  1  0
  3  4  1  0
  4  5  1  0
  5  6  2  0
  5  7  1  0
  7  8  1  0
  8  9  1  0
  9 10  1  0
 10 11  1  0
 11 12  1  0
 12 13  1  0
 13 14  1  0
 14 15  1  0
 15 16  1  0
 16 17  1  0
 17 18  1  0
  2 19  1  0
 19 20  2  0
 20 21  1  0
 21 22  2  0
 22 23  1  0
 23 24  2  0
 24 25  1  0
 25 26  1  0
 25 27  2  0
 27 28  1  0
 28 29  2  0
 12  7  1  0
 18 13  1  0
 29 19  1  0
 28 22  1  0
  3 30  1  0
  4 31  1  0
  4 32  1  0
  8 33  1  0
  8 34  1  0
  9 35  1  0
  9 36  1  0
 10 37  1  0
 10 38  1  0
 11 39  1  0
 11 40  1  0
 12 41  1  1
 13 42  1  0
 14 43  1  0
 14 44  1  0
 15 45  1  0
 15 46  1  0
 16 47  1  0
 16 48  1  0
 17 49  1  0
 17 50  1  0
 18 51  1  0
 18 52  1  0
 20 53  1  0
 21 54  1  0
 23 55  1  0
 24 56  1  0
 27 57  1  0
M  END
>  <smiles>  (100) 
O=C(NCC(=O)N1CCCCC1C1CCCCC1)c1ccc2ccc(Cl)cc2n1

>  <score_type>  (100) 
oracle

>  <origin>  (100) 
autodockgpu

>  <m_score__min__energy>  (100) 
-8.8499999999999996

>  <m_primary>  (100) 
energy

>  <rmsd>  (100) 
3.382374368037953

>  <m_score__min__rmsd>  (100) 
3.382374368037953

>  <meeko>  (100) 
{"free_energy": -8.69, "intermolecular_energy": -10.18, "internal_energy": -1.68, "cluster_size": 28, "cluster_id": 1, "rank_in_cluster": 5}

>  <energy>  (100) 
-7.1

>  <cluster_rmsd>  (100) 
0.58

>  <cluster>  (100) 
6

$$$$
