
     RDKit          3D

 55 58  0  0  0  0  0  0  0  0999 V2000
  138.4180   70.7310  221.2150 O   0  0  0  0  0  0  0  0  0  0  0  0
  138.5370   71.3910  222.2820 C   0  0  0  0  0  0  0  0  0  0  0  0
  138.2560   72.8250  222.2010 N   0  0  0  0  0  0  0  0  0  0  0  0
  137.8810   73.2980  220.9230 C   0  0  0  0  0  0  0  0  0  0  0  0
  138.2740   74.6380  220.5430 C   0  0  0  0  0  0  0  0  0  0  0  0
  137.9170   74.9570  219.3220 O   0  0  0  0  0  0  0  0  0  0  0  0
  138.9740   75.6500  221.2690 N   0  0  0  0  0  0  0  0  0  0  0  0
  138.4910   76.6250  222.2080 C   0  0  0  0  0  0  0  0  0  0  0  0
  139.6110   77.6280  222.3240 C   0  0  2  0  0  0  0  0  0  0  0  0
  139.4270   78.6220  221.4140 F   0  0  0  0  0  0  0  0  0  0  0  0
  140.8450   76.8060  222.0550 C   0  0  0  0  0  0  0  0  0  0  0  0
  140.4440   75.7460  221.1010 C   0  0  1  0  0  0  0  0  0  0  0  0
  141.0550   74.4230  221.4340 C   0  0  0  0  0  0  0  0  0  0  0  0
  140.4790   73.7620  222.3450 O   0  0  0  0  0  0  0  0  0  0  0  0
  142.2050   73.9110  220.7890 N   0  0  0  0  0  0  0  0  0  0  0  0
  142.9210   74.5890  219.7280 C   0  0  0  0  0  0  0  0  0  0  0  0
  144.3940   74.5280  220.1540 C   0  0  0  0  0  0  0  0  0  0  0  0
  144.8170   73.0870  219.8690 C   0  0  0  0  0  0  0  0  0  0  0  0
  143.7010   72.1180  220.1490 C   0  0  0  0  0  0  0  0  0  0  0  0
  142.7260   72.6190  221.2050 C   0  0  0  0  0  0  0  0  0  0  0  0
  138.9340   70.7910  223.5510 C   0  0  0  0  0  0  0  0  0  0  0  0
  138.5800   69.4730  223.7540 C   0  0  0  0  0  0  0  0  0  0  0  0
  138.9350   68.8450  224.9520 C   0  0  0  0  0  0  0  0  0  0  0  0
  139.6400   69.5720  225.9140 C   0  0  0  0  0  0  0  0  0  0  0  0
  139.9700   68.9170  227.0790 C   0  0  0  0  0  0  0  0  0  0  0  0
  140.6710   69.6550  228.0260 C   0  0  0  0  0  0  0  0  0  0  0  0
  141.0090   70.9730  227.7890 C   0  0  0  0  0  0  0  0  0  0  0  0
  140.6670   71.6170  226.6060 C   0  0  0  0  0  0  0  0  0  0  0  0
  139.9710   70.8900  225.6620 C   0  0  0  0  0  0  0  0  0  0  0  0
  139.6180   71.4870  224.4910 N   0  0  0  0  0  0  0  0  0  0  0  0
  138.3790   73.3110  223.0930 H   0  0  0  0  0  0  0  0  0  0  0  0
  138.3131   72.6097  220.1817 H   0  0  0  0  0  0  0  0  0  0  0  0
  136.7824   73.3387  220.9611 H   0  0  0  0  0  0  0  0  0  0  0  0
  137.5760   77.1062  221.8322 H   0  0  0  0  0  0  0  0  0  0  0  0
  138.2300   76.1767  223.1780 H   0  0  0  0  0  0  0  0  0  0  0  0
  139.6733   78.1339  223.2988 H   0  0  0  0  0  0  0  0  0  0  0  0
  141.6325   77.4354  221.6149 H   0  0  0  0  0  0  0  0  0  0  0  0
  141.2460   76.3744  222.9839 H   0  0  0  0  0  0  0  0  0  0  0  0
  140.7694   75.9903  220.0790 H   0  0  0  0  0  0  0  0  0  0  0  0
  142.7728   74.0728  218.7680 H   0  0  0  0  0  0  0  0  0  0  0  0
  142.5714   75.6218  219.5828 H   0  0  0  0  0  0  0  0  0  0  0  0
  144.9983   75.2340  219.5654 H   0  0  0  0  0  0  0  0  0  0  0  0
  144.5353   74.8038  221.2094 H   0  0  0  0  0  0  0  0  0  0  0  0
  145.1066   73.0023  218.8112 H   0  0  0  0  0  0  0  0  0  0  0  0
  145.6621   72.8391  220.5281 H   0  0  0  0  0  0  0  0  0  0  0  0
  143.1464   71.9434  219.2152 H   0  0  0  0  0  0  0  0  0  0  0  0
  144.1575   71.1949  220.5357 H   0  0  0  0  0  0  0  0  0  0  0  0
  141.8973   71.9035  221.3117 H   0  0  0  0  0  0  0  0  0  0  0  0
  143.2417   72.7185  222.1715 H   0  0  0  0  0  0  0  0  0  0  0  0
  138.0241   68.9217  222.9813 H   0  0  0  0  0  0  0  0  0  0  0  0
  138.6632   67.7947  225.1339 H   0  0  0  0  0  0  0  0  0  0  0  0
  139.6939   67.8663  227.2513 H   0  0  0  0  0  0  0  0  0  0  0  0
  140.9603   69.1830  228.9765 H   0  0  0  0  0  0  0  0  0  0  0  0
  141.5647   71.5288  228.5586 H   0  0  0  0  0  0  0  0  0  0  0  0
  140.9410   72.6675  226.4287 H   0  0  0  0  0  0  0  0  0  0  0  0
  1  2  2  0
  2  3  1  0
  3  4  1  0
  4  5  1  0
  5  6  2  0
  5  7  1  0
  7  8  1  0
  8  9  1  0
  9 10  1  0
  9 11  1  0
 11 12  1  0
 12 13  1  0
 13 14  2  0
 13 15  1  0
 15 16  1  0
 16 17  1  0
 17 18  1  0
 18 19  1  0
 19 20  1  0
  2 21  1  0
 21 22  2  0
 22 23  1  0
 23 24  2  0
 24 25  1  0
 25 26  2  0
 26 27  1  0
 27 28  2  0
 28 29  1  0
 29 30  2  0
 12  7  1  0
 20 15  1  0
 30 21  1  0
 29 24  1  0
  3 31  1  0
  4 32  1  0
  4 33  1  0
  8 34  1  0
  8 35  1  0
  9 36  1  1
 11 37  1  0
 11 38  1  0
 12 39  1  6
 16 40  1  0
 16 41  1  0
 17 42  1  0
 17 43  1  0
 18 44  1  0
 18 45  1  0
 19 46  1  0
 19 47  1  0
 20 48  1  0
 20 49  1  0
 22 50  1  0
 23 51  1  0
 25 52  1  0
 26 53  1  0
 27 54  1  0
 28 55  1  0
M  END
>  <smiles>  (1) 
O=C(NCC(=O)N1C[C@H](F)C[C@H]1C(=O)N1CCCCC1)c1ccc2ccccc2n1

>  <score_type>  (1) 
oracle

>  <origin>  (1) 
autodockgpu

>  <m_score__min__energy>  (1) 
-8.8300000000000001

>  <m_primary>  (1) 
energy

>  <rmsd>  (1) 
4.489040733894099

>  <m_score__min__rmsd>  (1) 
4.489040733894099

>  <meeko>  (1) 
{"free_energy": -7.82, "intermolecular_energy": -9.31, "internal_energy": -2.24, "cluster_size": 20, "cluster_id": 3, "rank_in_cluster": 14}

>  <energy>  (1) 
-8.83

>  <cluster_rmsd>  (1) 
0.0

>  <cluster>  (1) 
1

$$$$

     RDKit          3D

 55 58  0  0  0  0  0  0  0  0999 V2000
  139.0250   70.7390  221.4130 O   0  0  0  0  0  0  0  0  0  0  0  0
  138.7680   71.2890  222.5170 C   0  0  0  0  0  0  0  0  0  0  0  0
  138.0070   72.5390  222.4660 N   0  0  0  0  0  0  0  0  0  0  0  0
  137.6510   72.9780  221.1700 C   0  0  0  0  0  0  0  0  0  0  0  0
  138.2410   74.2020  220.6730 C   0  0  0  0  0  0  0  0  0  0  0  0
  138.1300   74.3420  219.3740 O   0  0  0  0  0  0  0  0  0  0  0  0
  138.9140   75.2630  221.3560 N   0  0  0  0  0  0  0  0  0  0  0  0
  138.4180   76.2170  222.3090 C   0  0  0  0  0  0  0  0  0  0  0  0
  139.4790   77.2870  222.3630 C   0  0  2  0  0  0  0  0  0  0  0  0
  139.1910   78.2580  221.4550 F   0  0  0  0  0  0  0  0  0  0  0  0
  140.7470   76.5380  222.0390 C   0  0  0  0  0  0  0  0  0  0  0  0
  140.3650   75.4450  221.1140 C   0  0  1  0  0  0  0  0  0  0  0  0
  141.0720   74.1660  221.4260 C   0  0  0  0  0  0  0  0  0  0  0  0
  140.5570   73.4600  222.3410 O   0  0  0  0  0  0  0  0  0  0  0  0
  142.2440   73.7400  220.7590 N   0  0  0  0  0  0  0  0  0  0  0  0
  142.8940   74.4720  219.6930 C   0  0  0  0  0  0  0  0  0  0  0  0
  144.3730   74.5110  220.0950 C   0  0  0  0  0  0  0  0  0  0  0  0
  144.8900   73.1050  219.7920 C   0  0  0  0  0  0  0  0  0  0  0  0
  143.8490   72.0590  220.0820 C   0  0  0  0  0  0  0  0  0  0  0  0
  142.8590   72.4830  221.1570 C   0  0  0  0  0  0  0  0  0  0  0  0
  139.1910   70.7400  223.8000 C   0  0  0  0  0  0  0  0  0  0  0  0
  138.9890   69.3900  223.9960 C   0  0  0  0  0  0  0  0  0  0  0  0
  139.3760   68.8070  225.2070 C   0  0  0  0  0  0  0  0  0  0  0  0
  139.9580   69.6110  226.1900 C   0  0  0  0  0  0  0  0  0  0  0  0
  140.3240   68.9990  227.3670 C   0  0  0  0  0  0  0  0  0  0  0  0
  140.9020   69.8150  228.3330 C   0  0  0  0  0  0  0  0  0  0  0  0
  141.0880   71.1640  228.1040 C   0  0  0  0  0  0  0  0  0  0  0  0
  140.7120   71.7630  226.9080 C   0  0  0  0  0  0  0  0  0  0  0  0
  140.1380   70.9600  225.9440 C   0  0  0  0  0  0  0  0  0  0  0  0
  139.7550   71.5110  224.7600 N   0  0  0  0  0  0  0  0  0  0  0  0
  137.8370   72.9460  223.3890 H   0  0  0  0  0  0  0  0  0  0  0  0
  137.9248   72.1764  220.4682 H   0  0  0  0  0  0  0  0  0  0  0  0
  136.5777   73.2063  221.2466 H   0  0  0  0  0  0  0  0  0  0  0  0
  137.4586   76.6380  221.9738 H   0  0  0  0  0  0  0  0  0  0  0  0
  138.2313   75.7644  223.2940 H   0  0  0  0  0  0  0  0  0  0  0  0
  139.5575   77.8056  223.3299 H   0  0  0  0  0  0  0  0  0  0  0  0
  141.4719   77.2093  221.5554 H   0  0  0  0  0  0  0  0  0  0  0  0
  141.2188   76.1415  222.9501 H   0  0  0  0  0  0  0  0  0  0  0  0
  140.6237   75.6965  220.0749 H   0  0  0  0  0  0  0  0  0  0  0  0
  142.7666   73.9526  218.7317 H   0  0  0  0  0  0  0  0  0  0  0  0
  142.4714   75.4789  219.5610 H   0  0  0  0  0  0  0  0  0  0  0  0
  144.9172   75.2613  219.5025 H   0  0  0  0  0  0  0  0  0  0  0  0
  144.5121   74.7891  221.1501 H   0  0  0  0  0  0  0  0  0  0  0  0
  145.1674   73.0478  218.7291 H   0  0  0  0  0  0  0  0  0  0  0  0
  145.7609   72.9120  220.4357 H   0  0  0  0  0  0  0  0  0  0  0  0
  143.2927   71.8527  219.1557 H   0  0  0  0  0  0  0  0  0  0  0  0
  144.3750   71.1675  220.4542 H   0  0  0  0  0  0  0  0  0  0  0  0
  142.0832   71.7114  221.2701 H   0  0  0  0  0  0  0  0  0  0  0  0
  143.3813   72.6100  222.1167 H   0  0  0  0  0  0  0  0  0  0  0  0
  138.5278   68.7774  223.2073 H   0  0  0  0  0  0  0  0  0  0  0  0
  139.2244   67.7318  225.3827 H   0  0  0  0  0  0  0  0  0  0  0  0
  140.1678   67.9231  227.5344 H   0  0  0  0  0  0  0  0  0  0  0  0
  141.2156   69.3798  229.2933 H   0  0  0  0  0  0  0  0  0  0  0  0
  141.5466   71.7816  228.8903 H   0  0  0  0  0  0  0  0  0  0  0  0
  140.8664   72.8384  226.7360 H   0  0  0  0  0  0  0  0  0  0  0  0
  1  2  2  0
  2  3  1  0
  3  4  1  0
  4  5  1  0
  5  6  2  0
  5  7  1  0
  7  8  1  0
  8  9  1  0
  9 10  1  0
  9 11  1  0
 11 12  1  0
 12 13  1  0
 13 14  2  0
 13 15  1  0
 15 16  1  0
 16 17  1  0
 17 18  1  0
 18 19  1  0
 19 20  1  0
  2 21  1  0
 21 22  2  0
 22 23  1  0
 23 24  2  0
 24 25  1  0
 25 26  2  0
 26 27  1  0
 27 28  2  0
 28 29  1  0
 29 30  2  0
 12  7  1  0
 20 15  1  0
 30 21  1  0
 29 24  1  0
  3 31  1  0
  4 32  1  0
  4 33  1  0
  8 34  1  0
  8 35  1  0
  9 36  1  1
 11 37  1  0
 11 38  1  0
 12 39  1  6
 16 40  1  0
 16 41  1  0
 17 42  1  0
 17 43  1  0
 18 44  1  0
 18 45  1  0
 19 46  1  0
 19 47  1  0
 20 48  1  0
 20 49  1  0
 22 50  1  0
 23 51  1  0
 25 52  1  0
 26 53  1  0
 27 54  1  0
 28 55  1  0
M  END
>  <smiles>  (2) 
O=C(NCC(=O)N1C[C@H](F)C[C@H]1C(=O)N1CCCCC1)c1ccc2ccccc2n1

>  <score_type>  (2) 
oracle

>  <origin>  (2) 
autodockgpu

>  <m_score__min__energy>  (2) 
-8.8300000000000001

>  <m_primary>  (2) 
energy

>  <rmsd>  (2) 
4.546531739243908

>  <m_score__min__rmsd>  (2) 
4.546531739243908

>  <meeko>  (2) 
{"free_energy": -7.99, "intermolecular_energy": -9.48, "internal_energy": -1.96, "cluster_size": 20, "cluster_id": 3, "rank_in_cluster": 1}

>  <energy>  (2) 
-8.8

>  <cluster_rmsd>  (2) 
0.26

>  <cluster>  (2) 
1

$$$$

     RDKit          3D

 55 58  0  0  0  0  0  0  0  0999 V2000
  138.9550   70.1970  221.3860 O   0  0  0  0  0  0  0  0  0  0  0  0
  139.0380   71.0220  222.3360 C   0  0  0  0  0  0  0  0  0  0  0  0
  138.7330   72.4190  222.0210 N   0  0  0  0  0  0  0  0  0  0  0  0
  138.3780   72.6730  220.6770 C   0  0  0  0  0  0  0  0  0  0  0  0
  139.4280   72.6920  219.6800 C   0  0  0  0  0  0  0  0  0  0  0  0
  138.9800   72.8470  218.4580 O   0  0  0  0  0  0  0  0  0  0  0  0
  140.8460   72.5700  219.8120 N   0  0  0  0  0  0  0  0  0  0  0  0
  141.8330   72.1270  218.8660 C   0  0  0  0  0  0  0  0  0  0  0  0
  143.0620   71.8570  219.6970 C   0  0  2  0  0  0  0  0  0  0  0  0
  143.0660   70.5570  220.0950 F   0  0  0  0  0  0  0  0  0  0  0  0
  142.9240   72.8230  220.8470 C   0  0  0  0  0  0  0  0  0  0  0  0
  141.4710   72.9800  221.0910 C   0  0  1  0  0  0  0  0  0  0  0  0
  141.0950   74.3970  221.3810 C   0  0  0  0  0  0  0  0  0  0  0  0
  140.2860   74.5680  222.3380 O   0  0  0  0  0  0  0  0  0  0  0  0
  141.5930   75.5010  220.6520 N   0  0  0  0  0  0  0  0  0  0  0  0
  142.5320   75.4030  219.5540 C   0  0  0  0  0  0  0  0  0  0  0  0
  141.9150   76.2590  218.4400 C   0  0  0  0  0  0  0  0  0  0  0  0
  142.1790   77.7010  218.8740 C   0  0  0  0  0  0  0  0  0  0  0  0
  142.0750   77.8570  220.3660 C   0  0  0  0  0  0  0  0  0  0  0  0
  141.1460   76.8380  221.0110 C   0  0  0  0  0  0  0  0  0  0  0  0
  139.4190   70.6410  223.6910 C   0  0  0  0  0  0  0  0  0  0  0  0
  139.1090   69.3560  224.0870 C   0  0  0  0  0  0  0  0  0  0  0  0
  139.4500   68.9340  225.3760 C   0  0  0  0  0  0  0  0  0  0  0  0
  140.0960   69.8290  226.2320 C   0  0  0  0  0  0  0  0  0  0  0  0
  140.4150   69.3740  227.4910 C   0  0  0  0  0  0  0  0  0  0  0  0
  141.0570   70.2780  228.3300 C   0  0  0  0  0  0  0  0  0  0  0  0
  141.3510   71.5580  227.9020 C   0  0  0  0  0  0  0  0  0  0  0  0
  141.0220   71.9980  226.6250 C   0  0  0  0  0  0  0  0  0  0  0  0
  140.3840   71.1060  225.7880 C   0  0  0  0  0  0  0  0  0  0  0  0
  140.0450   71.5010  224.5300 N   0  0  0  0  0  0  0  0  0  0  0  0
  138.8280   73.0430  222.8260 H   0  0  0  0  0  0  0  0  0  0  0  0
  137.6593   71.8958  220.3779 H   0  0  0  0  0  0  0  0  0  0  0  0
  137.9964   73.7046  220.6881 H   0  0  0  0  0  0  0  0  0  0  0  0
  141.4993   71.2107  218.3570 H   0  0  0  0  0  0  0  0  0  0  0  0
  142.0180   72.8708  218.0770 H   0  0  0  0  0  0  0  0  0  0  0  0
  144.0143   72.0010  219.1657 H   0  0  0  0  0  0  0  0  0  0  0  0
  143.4187   72.4204  221.7432 H   0  0  0  0  0  0  0  0  0  0  0  0
  143.3954   73.7892  220.6143 H   0  0  0  0  0  0  0  0  0  0  0  0
  141.1503   72.3895  221.9619 H   0  0  0  0  0  0  0  0  0  0  0  0
  143.5157   75.7981  219.8477 H   0  0  0  0  0  0  0  0  0  0  0  0
  142.6972   74.3625  219.2378 H   0  0  0  0  0  0  0  0  0  0  0  0
  142.3990   76.0487  217.4749 H   0  0  0  0  0  0  0  0  0  0  0  0
  140.8434   76.0540  218.3001 H   0  0  0  0  0  0  0  0  0  0  0  0
  143.1909   77.9906  218.5543 H   0  0  0  0  0  0  0  0  0  0  0  0
  141.4202   78.3458  218.4066 H   0  0  0  0  0  0  0  0  0  0  0  0
  143.0786   77.7399  220.8008 H   0  0  0  0  0  0  0  0  0  0  0  0
  141.6541   78.8541  220.5624 H   0  0  0  0  0  0  0  0  0  0  0  0
  141.1715   76.9549  222.1045 H   0  0  0  0  0  0  0  0  0  0  0  0
  140.1164   76.9949  220.6569 H   0  0  0  0  0  0  0  0  0  0  0  0
  138.5984   68.6699  223.3952 H   0  0  0  0  0  0  0  0  0  0  0  0
  139.2132   67.9132  225.7105 H   0  0  0  0  0  0  0  0  0  0  0  0
  140.1751   68.3508  227.8159 H   0  0  0  0  0  0  0  0  0  0  0  0
  141.3346   69.9696  229.3487 H   0  0  0  0  0  0  0  0  0  0  0  0
  141.8597   72.2485  228.5909 H   0  0  0  0  0  0  0  0  0  0  0  0
  141.2615   73.0194  226.2942 H   0  0  0  0  0  0  0  0  0  0  0  0
  1  2  2  0
  2  3  1  0
  3  4  1  0
  4  5  1  0
  5  6  2  0
  5  7  1  0
  7  8  1  0
  8  9  1  0
  9 10  1  0
  9 11  1  0
 11 12  1  0
 12 13  1  0
 13 14  2  0
 13 15  1  0
 15 16  1  0
 16 17  1  0
 17 18  1  0
 18 19  1  0
 19 20  1  0
  2 21  1  0
 21 22  2  0
 22 23  1  0
 23 24  2  0
 24 25  1  0
 25 26  2  0
 26 27  1  0
 27 28  2  0
 28 29  1  0
 29 30  2  0
 12  7  1  0
 20 15  1  0
 30 21  1  0
 29 24  1  0
  3 31  1  0
  4 32  1  0
  4 33  1  0
  8 34  1  0
  8 35  1  0
  9 36  1  6
 11 37  1  0
 11 38  1  0
 12 39  1  1
 16 40  1  0
 16 41  1  0
 17 42  1  0
 17 43  1  0
 18 44  1  0
 18 45  1  0
 19 46  1  0
 19 47  1  0
 20 48  1  0
 20 49  1  0
 22 50  1  0
 23 51  1  0
 25 52  1  0
 26 53  1  0
 27 54  1  0
 28 55  1  0
M  END
>  <smiles>  (3) 
O=C(NCC(=O)N1C[C@H](F)C[C@H]1C(=O)N1CCCCC1)c1ccc2ccccc2n1

>  <score_type>  (3) 
oracle

>  <origin>  (3) 
autodockgpu

>  <m_score__min__energy>  (3) 
-8.8300000000000001

>  <m_primary>  (3) 
energy

>  <rmsd>  (3) 
3.4764055346228635

>  <m_score__min__rmsd>  (3) 
3.4764055346228635

>  <meeko>  (3) 
{"free_energy": -7.18, "intermolecular_energy": -8.67, "internal_energy": -2.55, "cluster_size": 4, "cluster_id": 4, "rank_in_cluster": 3}

>  <energy>  (3) 
-8.6

>  <cluster_rmsd>  (3) 
0.47

>  <cluster>  (3) 
1

$$$$

     RDKit          3D

 55 58  0  0  0  0  0  0  0  0999 V2000
  139.4520   71.0880  221.4670 O   0  0  0  0  0  0  0  0  0  0  0  0
  139.0400   71.5200  222.5770 C   0  0  0  0  0  0  0  0  0  0  0  0
  138.0180   72.5670  222.5350 N   0  0  0  0  0  0  0  0  0  0  0  0
  137.6140   72.9680  221.2410 C   0  0  0  0  0  0  0  0  0  0  0  0
  138.1130   74.2250  220.7240 C   0  0  0  0  0  0  0  0  0  0  0  0
  137.9870   74.3370  219.4240 O   0  0  0  0  0  0  0  0  0  0  0  0
  138.7090   75.3400  221.3890 N   0  0  0  0  0  0  0  0  0  0  0  0
  138.1700   76.2280  222.3820 C   0  0  0  0  0  0  0  0  0  0  0  0
  139.1190   77.4000  222.3990 C   0  0  2  0  0  0  0  0  0  0  0  0
  138.6880   78.3470  221.5230 F   0  0  0  0  0  0  0  0  0  0  0  0
  140.4370   76.7880  221.9990 C   0  0  0  0  0  0  0  0  0  0  0  0
  140.1200   75.6720  221.0770 C   0  0  1  0  0  0  0  0  0  0  0  0
  140.9670   74.4680  221.3320 C   0  0  0  0  0  0  0  0  0  0  0  0
  140.6240   73.7490  222.3140 O   0  0  0  0  0  0  0  0  0  0  0  0
  142.0900   74.1230  220.5440 N   0  0  0  0  0  0  0  0  0  0  0  0
  142.5480   74.8760  219.3950 C   0  0  0  0  0  0  0  0  0  0  0  0
  144.0550   75.0530  219.6240 C   0  0  0  0  0  0  0  0  0  0  0  0
  144.6570   73.6870  219.2920 C   0  0  0  0  0  0  0  0  0  0  0  0
  143.7510   72.5660  219.7210 C   0  0  0  0  0  0  0  0  0  0  0  0
  142.8540   72.9360  220.8940 C   0  0  0  0  0  0  0  0  0  0  0  0
  139.5340   71.0280  223.8580 C   0  0  0  0  0  0  0  0  0  0  0  0
  140.3960   71.8530  224.5510 C   0  0  0  0  0  0  0  0  0  0  0  0
  140.9020   71.4340  225.7850 C   0  0  0  0  0  0  0  0  0  0  0  0
  140.5210   70.1870  226.2850 C   0  0  0  0  0  0  0  0  0  0  0  0
  141.0400   69.8120  227.5030 C   0  0  0  0  0  0  0  0  0  0  0  0
  140.6500   68.5680  227.9860 C   0  0  0  0  0  0  0  0  0  0  0  0
  139.7860   67.7670  227.2650 C   0  0  0  0  0  0  0  0  0  0  0  0
  139.2710   68.1640  226.0360 C   0  0  0  0  0  0  0  0  0  0  0  0
  139.6550   69.3970  225.5520 C   0  0  0  0  0  0  0  0  0  0  0  0
  139.1710   69.8200  224.3510 N   0  0  0  0  0  0  0  0  0  0  0  0
  137.7290   72.8860  223.4630 H   0  0  0  0  0  0  0  0  0  0  0  0
  137.9309   72.1798  220.5422 H   0  0  0  0  0  0  0  0  0  0  0  0
  136.5289   73.1239  221.3320 H   0  0  0  0  0  0  0  0  0  0  0  0
  137.1566   76.5528  222.1035 H   0  0  0  0  0  0  0  0  0  0  0  0
  138.0822   75.7478  223.3677 H   0  0  0  0  0  0  0  0  0  0  0  0
  139.1945   77.9130  223.3691 H   0  0  0  0  0  0  0  0  0  0  0  0
  141.0640   77.5350  221.4901 H   0  0  0  0  0  0  0  0  0  0  0  0
  140.9934   76.4317  222.8784 H   0  0  0  0  0  0  0  0  0  0  0  0
  140.2981   75.9606  220.0306 H   0  0  0  0  0  0  0  0  0  0  0  0
  142.3592   74.3191  218.4654 H   0  0  0  0  0  0  0  0  0  0  0  0
  142.0258   75.8386  219.2919 H   0  0  0  0  0  0  0  0  0  0  0  0
  144.4608   75.8287  218.9580 H   0  0  0  0  0  0  0  0  0  0  0  0
  144.2868   75.3734  220.6504 H   0  0  0  0  0  0  0  0  0  0  0  0
  144.8169   73.6214  218.2057 H   0  0  0  0  0  0  0  0  0  0  0  0
  145.6087   73.5883  219.8348 H   0  0  0  0  0  0  0  0  0  0  0  0
  143.1145   72.2853  218.8689 H   0  0  0  0  0  0  0  0  0  0  0  0
  144.3922   71.7346  220.0490 H   0  0  0  0  0  0  0  0  0  0  0  0
  142.1669   72.1047  221.1105 H   0  0  0  0  0  0  0  0  0  0  0  0
  143.4674   73.1358  221.7849 H   0  0  0  0  0  0  0  0  0  0  0  0
  140.6823   72.8309  224.1365 H   0  0  0  0  0  0  0  0  0  0  0  0
  141.5900   72.0769  226.3536 H   0  0  0  0  0  0  0  0  0  0  0  0
  141.7270   70.4620  228.0647 H   0  0  0  0  0  0  0  0  0  0  0  0
  141.0345   68.2170  228.9550 H   0  0  0  0  0  0  0  0  0  0  0  0
  139.4973   66.7877  227.6745 H   0  0  0  0  0  0  0  0  0  0  0  0
  138.5827   67.5185  225.4706 H   0  0  0  0  0  0  0  0  0  0  0  0
  1  2  2  0
  2  3  1  0
  3  4  1  0
  4  5  1  0
  5  6  2  0
  5  7  1  0
  7  8  1  0
  8  9  1  0
  9 10  1  0
  9 11  1  0
 11 12  1  0
 12 13  1  0
 13 14  2  0
 13 15  1  0
 15 16  1  0
 16 17  1  0
 17 18  1  0
 18 19  1  0
 19 20  1  0
  2 21  1  0
 21 22  2  0
 22 23  1  0
 23 24  2  0
 24 25  1  0
 25 26  2  0
 26 27  1  0
 27 28  2  0
 28 29  1  0
 29 30  2  0
 12  7  1  0
 20 15  1  0
 30 21  1  0
 29 24  1  0
  3 31  1  0
  4 32  1  0
  4 33  1  0
  8 34  1  0
  8 35  1  0
  9 36  1  1
 11 37  1  0
 11 38  1  0
 12 39  1  6
 16 40  1  0
 16 41  1  0
 17 42  1  0
 17 43  1  0
 18 44  1  0
 18 45  1  0
 19 46  1  0
 19 47  1  0
 20 48  1  0
 20 49  1  0
 22 50  1  0
 23 51  1  0
 25 52  1  0
 26 53  1  0
 27 54  1  0
 28 55  1  0
M  END
>  <smiles>  (4) 
O=C(NCC(=O)N1C[C@H](F)C[C@H]1C(=O)N1CCCCC1)c1ccc2ccccc2n1

>  <score_type>  (4) 
oracle

>  <origin>  (4) 
autodockgpu

>  <m_score__min__energy>  (4) 
-8.8300000000000001

>  <m_primary>  (4) 
energy

>  <rmsd>  (4) 
4.784131952339453

>  <m_score__min__rmsd>  (4) 
4.784131952339453

>  <meeko>  (4) 
{"free_energy": -7.81, "intermolecular_energy": -9.31, "internal_energy": -1.86, "cluster_size": 20, "cluster_id": 3, "rank_in_cluster": 15}

>  <energy>  (4) 
-8.55

>  <cluster_rmsd>  (4) 
0.39

>  <cluster>  (4) 
1

$$$$

     RDKit          3D

 55 58  0  0  0  0  0  0  0  0999 V2000
  138.9110   70.1160  221.4110 O   0  0  0  0  0  0  0  0  0  0  0  0
  139.0200   70.9300  222.3670 C   0  0  0  0  0  0  0  0  0  0  0  0
  138.7190   72.3330  222.0720 N   0  0  0  0  0  0  0  0  0  0  0  0
  138.3410   72.6030  220.7370 C   0  0  0  0  0  0  0  0  0  0  0  0
  139.3780   72.6880  219.7310 C   0  0  0  0  0  0  0  0  0  0  0  0
  138.9130   72.8800  218.5210 O   0  0  0  0  0  0  0  0  0  0  0  0
  140.8000   72.5970  219.8440 N   0  0  0  0  0  0  0  0  0  0  0  0
  141.7840   72.1770  218.8840 C   0  0  0  0  0  0  0  0  0  0  0  0
  143.0300   71.9340  219.6990 C   0  0  2  0  0  0  0  0  0  0  0  0
  143.0680   70.6330  220.0940 F   0  0  0  0  0  0  0  0  0  0  0  0
  142.8860   72.8940  220.8520 C   0  0  0  0  0  0  0  0  0  0  0  0
  141.4330   73.0190  221.1160 C   0  0  1  0  0  0  0  0  0  0  0  0
  141.0300   74.4270  221.4130 C   0  0  0  0  0  0  0  0  0  0  0  0
  140.1780   74.5740  222.3370 O   0  0  0  0  0  0  0  0  0  0  0  0
  141.5480   75.5490  220.7250 N   0  0  0  0  0  0  0  0  0  0  0  0
  142.5340   75.4790  219.6670 C   0  0  0  0  0  0  0  0  0  0  0  0
  141.9570   76.3480  218.5420 C   0  0  0  0  0  0  0  0  0  0  0  0
  142.1860   77.7850  219.0120 C   0  0  0  0  0  0  0  0  0  0  0  0
  142.0160   77.9130  220.5000 C   0  0  0  0  0  0  0  0  0  0  0  0
  141.0710   76.8740  221.0860 C   0  0  0  0  0  0  0  0  0  0  0  0
  139.4230   70.5340  223.7110 C   0  0  0  0  0  0  0  0  0  0  0  0
  139.2150   69.2150  224.0600 C   0  0  0  0  0  0  0  0  0  0  0  0
  139.5820   68.7770  225.3360 C   0  0  0  0  0  0  0  0  0  0  0  0
  140.1510   69.6900  226.2270 C   0  0  0  0  0  0  0  0  0  0  0  0
  140.4990   69.2180  227.4720 C   0  0  0  0  0  0  0  0  0  0  0  0
  141.0640   70.1400  228.3470 C   0  0  0  0  0  0  0  0  0  0  0  0
  141.2570   71.4540  227.9650 C   0  0  0  0  0  0  0  0  0  0  0  0
  140.8990   71.9100  226.7020 C   0  0  0  0  0  0  0  0  0  0  0  0
  140.3380   71.0000  225.8290 C   0  0  0  0  0  0  0  0  0  0  0  0
  139.9740   71.4110  224.5830 N   0  0  0  0  0  0  0  0  0  0  0  0
  138.8340   72.9490  222.8800 H   0  0  0  0  0  0  0  0  0  0  0  0
  137.6516   71.8041  220.4265 H   0  0  0  0  0  0  0  0  0  0  0  0
  137.9187   73.6180  220.7759 H   0  0  0  0  0  0  0  0  0  0  0  0
  141.4643   71.2538  218.3785 H   0  0  0  0  0  0  0  0  0  0  0  0
  141.9417   72.9251  218.0932 H   0  0  0  0  0  0  0  0  0  0  0  0
  143.9719   72.1011  219.1560 H   0  0  0  0  0  0  0  0  0  0  0  0
  143.4013   72.5007  221.7407 H   0  0  0  0  0  0  0  0  0  0  0  0
  143.3329   73.8708  220.6148 H   0  0  0  0  0  0  0  0  0  0  0  0
  141.1369   72.4207  221.9903 H   0  0  0  0  0  0  0  0  0  0  0  0
  143.5001   75.8783  220.0095 H   0  0  0  0  0  0  0  0  0  0  0  0
  142.7230   74.4457  219.3407 H   0  0  0  0  0  0  0  0  0  0  0  0
  142.4850   76.1597  217.5956 H   0  0  0  0  0  0  0  0  0  0  0  0
  140.8948   76.1346  218.3517 H   0  0  0  0  0  0  0  0  0  0  0  0
  143.2075   78.0908  218.7416 H   0  0  0  0  0  0  0  0  0  0  0  0
  141.4411   78.4302  218.5233 H   0  0  0  0  0  0  0  0  0  0  0  0
  143.0011   77.7978  220.9758 H   0  0  0  0  0  0  0  0  0  0  0  0
  141.5766   78.9023  220.6954 H   0  0  0  0  0  0  0  0  0  0  0  0
  141.0470   76.9724  222.1813 H   0  0  0  0  0  0  0  0  0  0  0  0
  140.0563   77.0264  220.6895 H   0  0  0  0  0  0  0  0  0  0  0  0
  138.7647   68.5149  223.3409 H   0  0  0  0  0  0  0  0  0  0  0  0
  139.4251   67.7297  225.6336 H   0  0  0  0  0  0  0  0  0  0  0  0
  140.3390   68.1684  227.7596 H   0  0  0  0  0  0  0  0  0  0  0  0
  141.3611   69.8190  229.3563 H   0  0  0  0  0  0  0  0  0  0  0  0
  141.7064   72.1584  228.6804 H   0  0  0  0  0  0  0  0  0  0  0  0
  141.0570   72.9583  226.4087 H   0  0  0  0  0  0  0  0  0  0  0  0
  1  2  2  0
  2  3  1  0
  3  4  1  0
  4  5  1  0
  5  6  2  0
  5  7  1  0
  7  8  1  0
  8  9  1  0
  9 10  1  0
  9 11  1  0
 11 12  1  0
 12 13  1  0
 13 14  2  0
 13 15  1  0
 15 16  1  0
 16 17  1  0
 17 18  1  0
 18 19  1  0
 19 20  1  0
  2 21  1  0
 21 22  2  0
 22 23  1  0
 23 24  2  0
 24 25  1  0
 25 26  2  0
 26 27  1  0
 27 28  2  0
 28 29  1  0
 29 30  2  0
 12  7  1  0
 20 15  1  0
 30 21  1  0
 29 24  1  0
  3 31  1  0
  4 32  1  0
  4 33  1  0
  8 34  1  0
  8 35  1  0
  9 36  1  6
 11 37  1  0
 11 38  1  0
 12 39  1  1
 16 40  1  0
 16 41  1  0
 17 42  1  0
 17 43  1  0
 18 44  1  0
 18 45  1  0
 19 46  1  0
 19 47  1  0
 20 48  1  0
 20 49  1  0
 22 50  1  0
 23 51  1  0
 25 52  1  0
 26 53  1  0
 27 54  1  0
 28 55  1  0
M  END
>  <smiles>  (5) 
O=C(NCC(=O)N1C[C@H](F)C[C@H]1C(=O)N1CCCCC1)c1ccc2ccccc2n1

>  <score_type>  (5) 
oracle

>  <origin>  (5) 
autodockgpu

>  <m_score__min__energy>  (5) 
-8.8300000000000001

>  <m_primary>  (5) 
energy

>  <rmsd>  (5) 
3.4209068814672974

>  <m_score__min__rmsd>  (5) 
3.4209068814672974

>  <meeko>  (5) 
{"free_energy": -7.24, "intermolecular_energy": -8.73, "internal_energy": -2.52, "cluster_size": 4, "cluster_id": 4, "rank_in_cluster": 2}

>  <energy>  (5) 
-8.55

>  <cluster_rmsd>  (5) 
0.52

>  <cluster>  (5) 
1

$$$$

     RDKit          3D

 55 58  0  0  0  0  0  0  0  0999 V2000
  139.5700   71.0810  221.2510 O   0  0  0  0  0  0  0  0  0  0  0  0
  139.6410   71.7480  222.3190 C   0  0  0  0  0  0  0  0  0  0  0  0
  139.5400   73.2030  222.1910 N   0  0  0  0  0  0  0  0  0  0  0  0
  139.3740   73.6860  220.8730 C   0  0  0  0  0  0  0  0  0  0  0  0
  138.4510   74.7790  220.6520 C   0  0  0  0  0  0  0  0  0  0  0  0
  138.3950   75.1650  219.4010 O   0  0  0  0  0  0  0  0  0  0  0  0
  137.6090   75.4910  221.5610 N   0  0  0  0  0  0  0  0  0  0  0  0
  136.4420   75.0590  222.2810 C   0  0  0  0  0  0  0  0  0  0  0  0
  135.7920   76.3360  222.7520 C   0  0  2  0  0  0  0  0  0  0  0  0
  134.8900   76.7550  221.8250 F   0  0  0  0  0  0  0  0  0  0  0  0
  136.9550   77.2830  222.9090 C   0  0  0  0  0  0  0  0  0  0  0  0
  137.9530   76.8960  221.8840 C   0  0  1  0  0  0  0  0  0  0  0  0
  139.3510   76.9430  222.4080 C   0  0  0  0  0  0  0  0  0  0  0  0
  139.8690   75.8270  222.7020 O   0  0  0  0  0  0  0  0  0  0  0  0
  140.0810   78.1430  222.5780 N   0  0  0  0  0  0  0  0  0  0  0  0
  139.5770   79.4620  222.2570 C   0  0  0  0  0  0  0  0  0  0  0  0
  139.8850   80.3070  223.4990 C   0  0  0  0  0  0  0  0  0  0  0  0
  141.3870   80.5790  223.4160 C   0  0  0  0  0  0  0  0  0  0  0  0
  142.1320   79.3990  222.8560 C   0  0  0  0  0  0  0  0  0  0  0  0
  141.4310   78.0720  223.1140 C   0  0  0  0  0  0  0  0  0  0  0  0
  139.8160   71.1370  223.6310 C   0  0  0  0  0  0  0  0  0  0  0  0
  139.4560   69.8100  223.7530 C   0  0  0  0  0  0  0  0  0  0  0  0
  139.6020   69.1700  224.9880 C   0  0  0  0  0  0  0  0  0  0  0  0
  140.1100   69.8940  226.0690 C   0  0  0  0  0  0  0  0  0  0  0  0
  140.2380   69.2280  227.2660 C   0  0  0  0  0  0  0  0  0  0  0  0
  140.7450   69.9630  228.3310 C   0  0  0  0  0  0  0  0  0  0  0  0
  141.0950   71.2900  228.1750 C   0  0  0  0  0  0  0  0  0  0  0  0
  140.9580   71.9460  226.9570 C   0  0  0  0  0  0  0  0  0  0  0  0
  140.4550   71.2210  225.8950 C   0  0  0  0  0  0  0  0  0  0  0  0
  140.3070   71.8290  224.6860 N   0  0  0  0  0  0  0  0  0  0  0  0
  139.6150   73.6920  223.0870 H   0  0  0  0  0  0  0  0  0  0  0  0
  140.3619   74.0183  220.5215 H   0  0  0  0  0  0  0  0  0  0  0  0
  138.9274   72.8405  220.3292 H   0  0  0  0  0  0  0  0  0  0  0  0
  135.7637   74.4984  221.6209 H   0  0  0  0  0  0  0  0  0  0  0  0
  136.6912   74.3855  223.1142 H   0  0  0  0  0  0  0  0  0  0  0  0
  135.2245   76.2417  223.6896 H   0  0  0  0  0  0  0  0  0  0  0  0
  136.6256   78.3199  222.7465 H   0  0  0  0  0  0  0  0  0  0  0  0
  137.3813   77.2256  223.9214 H   0  0  0  0  0  0  0  0  0  0  0  0
  137.9213   77.5802  221.0233 H   0  0  0  0  0  0  0  0  0  0  0  0
  140.0901   79.8692  221.3733 H   0  0  0  0  0  0  0  0  0  0  0  0
  138.5038   79.4510  222.0157 H   0  0  0  0  0  0  0  0  0  0  0  0
  139.3178   81.2492  223.4783 H   0  0  0  0  0  0  0  0  0  0  0  0
  139.6040   79.7963  224.4318 H   0  0  0  0  0  0  0  0  0  0  0  0
  141.5569   81.4499  222.7659 H   0  0  0  0  0  0  0  0  0  0  0  0
  141.7592   80.7703  224.4333 H   0  0  0  0  0  0  0  0  0  0  0  0
  142.2360   79.5344  221.7693 H   0  0  0  0  0  0  0  0  0  0  0  0
  143.1081   79.3577  223.3615 H   0  0  0  0  0  0  0  0  0  0  0  0
  141.9832   77.2598  222.6186 H   0  0  0  0  0  0  0  0  0  0  0  0
  141.3938   77.8730  224.1952 H   0  0  0  0  0  0  0  0  0  0  0  0
  139.0580   69.2609  222.8869 H   0  0  0  0  0  0  0  0  0  0  0  0
  139.3212   68.1130  225.1061 H   0  0  0  0  0  0  0  0  0  0  0  0
  139.9544   68.1707  227.3743 H   0  0  0  0  0  0  0  0  0  0  0  0
  140.8693   69.4811  229.3120 H   0  0  0  0  0  0  0  0  0  0  0  0
  141.4932   71.8431  229.0385 H   0  0  0  0  0  0  0  0  0  0  0  0
  141.2398   73.0032  226.8435 H   0  0  0  0  0  0  0  0  0  0  0  0
  1  2  2  0
  2  3  1  0
  3  4  1  0
  4  5  1  0
  5  6  2  0
  5  7  1  0
  7  8  1  0
  8  9  1  0
  9 10  1  0
  9 11  1  0
 11 12  1  0
 12 13  1  0
 13 14  2  0
 13 15  1  0
 15 16  1  0
 16 17  1  0
 17 18  1  0
 18 19  1  0
 19 20  1  0
  2 21  1  0
 21 22  2  0
 22 23  1  0
 23 24  2  0
 24 25  1  0
 25 26  2  0
 26 27  1  0
 27 28  2  0
 28 29  1  0
 29 30  2  0
 12  7  1  0
 20 15  1  0
 30 21  1  0
 29 24  1  0
  3 31  1  0
  4 32  1  0
  4 33  1  0
  8 34  1  0
  8 35  1  0
  9 36  1  1
 11 37  1  0
 11 38  1  0
 12 39  1  6
 16 40  1  0
 16 41  1  0
 17 42  1  0
 17 43  1  0
 18 44  1  0
 18 45  1  0
 19 46  1  0
 19 47  1  0
 20 48  1  0
 20 49  1  0
 22 50  1  0
 23 51  1  0
 25 52  1  0
 26 53  1  0
 27 54  1  0
 28 55  1  0
M  END
>  <smiles>  (6) 
O=C(NCC(=O)N1C[C@H](F)C[C@H]1C(=O)N1CCCCC1)c1ccc2ccccc2n1

>  <score_type>  (6) 
oracle

>  <origin>  (6) 
autodockgpu

>  <m_score__min__energy>  (6) 
-8.8300000000000001

>  <m_primary>  (6) 
energy

>  <rmsd>  (6) 
3.307886938760772

>  <m_score__min__rmsd>  (6) 
3.307886938760772

>  <meeko>  (6) 
{"free_energy": -8.22, "intermolecular_energy": -9.71, "internal_energy": -2.11, "cluster_size": 16, "cluster_id": 2, "rank_in_cluster": 5}

>  <energy>  (6) 
-8.54

>  <cluster_rmsd>  (6) 
0.48

>  <cluster>  (6) 
1

$$$$

     RDKit          3D

 55 58  0  0  0  0  0  0  0  0999 V2000
  139.1930   70.6930  221.4940 O   0  0  0  0  0  0  0  0  0  0  0  0
  139.4270   71.2390  222.6060 C   0  0  0  0  0  0  0  0  0  0  0  0
  139.5420   72.6990  222.6090 N   0  0  0  0  0  0  0  0  0  0  0  0
  139.3750   73.3220  221.3510 C   0  0  0  0  0  0  0  0  0  0  0  0
  140.1190   74.5340  221.0800 C   0  0  0  0  0  0  0  0  0  0  0  0
  140.9590   74.8510  222.0340 O   0  0  0  0  0  0  0  0  0  0  0  0
  140.0850   75.4220  219.9610 N   0  0  0  0  0  0  0  0  0  0  0  0
  139.4690   75.2710  218.6710 C   0  0  0  0  0  0  0  0  0  0  0  0
  140.0990   76.3450  217.8200 C   0  0  2  0  0  0  0  0  0  0  0  0
  141.1980   75.8430  217.1960 F   0  0  0  0  0  0  0  0  0  0  0  0
  140.4320   77.4280  218.8150 C   0  0  0  0  0  0  0  0  0  0  0  0
  140.7430   76.7430  220.0920 C   0  0  1  0  0  0  0  0  0  0  0  0
  140.1660   77.4560  221.2720 C   0  0  0  0  0  0  0  0  0  0  0  0
  139.0250   77.0610  221.6520 O   0  0  0  0  0  0  0  0  0  0  0  0
  140.8250   78.5090  221.9470 N   0  0  0  0  0  0  0  0  0  0  0  0
  142.1340   79.0170  221.5950 C   0  0  0  0  0  0  0  0  0  0  0  0
  141.9570   80.5400  221.5400 C   0  0  0  0  0  0  0  0  0  0  0  0
  141.9000   80.9730  223.0040 C   0  0  0  0  0  0  0  0  0  0  0  0
  141.1850   79.9580  223.8530 C   0  0  0  0  0  0  0  0  0  0  0  0
  140.1610   79.1430  223.0750 C   0  0  0  0  0  0  0  0  0  0  0  0
  139.5840   70.4880  223.8460 C   0  0  0  0  0  0  0  0  0  0  0  0
  139.0980   69.1960  223.8570 C   0  0  0  0  0  0  0  0  0  0  0  0
  139.2210   68.4280  225.0180 C   0  0  0  0  0  0  0  0  0  0  0  0
  139.8320   68.9900  226.1410 C   0  0  0  0  0  0  0  0  0  0  0  0
  139.9330   68.2000  227.2630 C   0  0  0  0  0  0  0  0  0  0  0  0
  140.5440   68.7760  228.3710 C   0  0  0  0  0  0  0  0  0  0  0  0
  141.0180   70.0730  228.3260 C   0  0  0  0  0  0  0  0  0  0  0  0
  140.9070   70.8540  227.1820 C   0  0  0  0  0  0  0  0  0  0  0  0
  140.3010   70.2890  226.0790 C   0  0  0  0  0  0  0  0  0  0  0  0
  140.1740   71.0240  224.9400 N   0  0  0  0  0  0  0  0  0  0  0  0
  139.7430   73.0850  223.5350 H   0  0  0  0  0  0  0  0  0  0  0  0
  139.6594   72.5871  220.5835 H   0  0  0  0  0  0  0  0  0  0  0  0
  138.3229   73.6429  221.3451 H   0  0  0  0  0  0  0  0  0  0  0  0
  139.6776   74.2741  218.2554 H   0  0  0  0  0  0  0  0  0  0  0  0
  138.3740   75.3652  218.7182 H   0  0  0  0  0  0  0  0  0  0  0  0
  139.4553   76.7273  217.0142 H   0  0  0  0  0  0  0  0  0  0  0  0
  141.3029   78.0055  218.4713 H   0  0  0  0  0  0  0  0  0  0  0  0
  139.5945   78.1312  218.9338 H   0  0  0  0  0  0  0  0  0  0  0  0
  141.8290   76.6932  220.2596 H   0  0  0  0  0  0  0  0  0  0  0  0
  142.8761   78.7397  222.3582 H   0  0  0  0  0  0  0  0  0  0  0  0
  142.4987   78.6051  220.6425 H   0  0  0  0  0  0  0  0  0  0  0  0
  142.8086   81.0119  221.0281 H   0  0  0  0  0  0  0  0  0  0  0  0
  141.0568   80.8360  220.9815 H   0  0  0  0  0  0  0  0  0  0  0  0
  142.9263   81.0945  223.3808 H   0  0  0  0  0  0  0  0  0  0  0  0
  141.3462   81.9217  223.0614 H   0  0  0  0  0  0  0  0  0  0  0  0
  141.9304   79.2697  224.2779 H   0  0  0  0  0  0  0  0  0  0  0  0
  140.6405   80.5090  224.6340 H   0  0  0  0  0  0  0  0  0  0  0  0
  139.7275   78.3724  223.7295 H   0  0  0  0  0  0  0  0  0  0  0  0
  139.3568   79.8007  222.7135 H   0  0  0  0  0  0  0  0  0  0  0  0
  138.6187   68.7752  222.9608 H   0  0  0  0  0  0  0  0  0  0  0  0
  138.8420   67.3958  225.0469 H   0  0  0  0  0  0  0  0  0  0  0  0
  139.5510   67.1686  227.2823 H   0  0  0  0  0  0  0  0  0  0  0  0
  140.6516   68.1910  229.2963 H   0  0  0  0  0  0  0  0  0  0  0  0
  141.4964   70.4991  229.2202 H   0  0  0  0  0  0  0  0  0  0  0  0
  141.2885   71.8854  227.1569 H   0  0  0  0  0  0  0  0  0  0  0  0
  1  2  2  0
  2  3  1  0
  3  4  1  0
  4  5  1  0
  5  6  2  0
  5  7  1  0
  7  8  1  0
  8  9  1  0
  9 10  1  0
  9 11  1  0
 11 12  1  0
 12 13  1  0
 13 14  2  0
 13 15  1  0
 15 16  1  0
 16 17  1  0
 17 18  1  0
 18 19  1  0
 19 20  1  0
  2 21  1  0
 21 22  2  0
 22 23  1  0
 23 24  2  0
 24 25  1  0
 25 26  2  0
 26 27  1  0
 27 28  2  0
 28 29  1  0
 29 30  2  0
 12  7  1  0
 20 15  1  0
 30 21  1  0
 29 24  1  0
  3 31  1  0
  4 32  1  0
  4 33  1  0
  8 34  1  0
  8 35  1  0
  9 36  1  6
 11 37  1  0
 11 38  1  0
 12 39  1  1
 16 40  1  0
 16 41  1  0
 17 42  1  0
 17 43  1  0
 18 44  1  0
 18 45  1  0
 19 46  1  0
 19 47  1  0
 20 48  1  0
 20 49  1  0
 22 50  1  0
 23 51  1  0
 25 52  1  0
 26 53  1  0
 27 54  1  0
 28 55  1  0
M  END
>  <smiles>  (7) 
O=C(NCC(=O)N1C[C@H](F)C[C@H]1C(=O)N1CCCCC1)c1ccc2ccccc2n1

>  <score_type>  (7) 
oracle

>  <origin>  (7) 
autodockgpu

>  <m_score__min__energy>  (7) 
-8.8300000000000001

>  <m_primary>  (7) 
energy

>  <rmsd>  (7) 
1.7575218943222315

>  <m_score__min__rmsd>  (7) 
1.7575218943222315

>  <meeko>  (7) 
{"free_energy": -7.86, "intermolecular_energy": -9.36, "internal_energy": -1.62, "cluster_size": 9, "cluster_id": 1, "rank_in_cluster": 7}

>  <energy>  (7) 
-7.86

>  <cluster_rmsd>  (7) 
1.38

>  <cluster>  (7) 
1

$$$$

     RDKit          3D

 55 58  0  0  0  0  0  0  0  0999 V2000
  139.1280   70.8360  221.4190 O   0  0  0  0  0  0  0  0  0  0  0  0
  138.7850   71.3080  222.5370 C   0  0  0  0  0  0  0  0  0  0  0  0
  137.9150   72.4860  222.5120 N   0  0  0  0  0  0  0  0  0  0  0  0
  137.5630   72.9520  221.2250 C   0  0  0  0  0  0  0  0  0  0  0  0
  138.2410   74.1210  220.7070 C   0  0  0  0  0  0  0  0  0  0  0  0
  138.2380   74.1850  219.3980 O   0  0  0  0  0  0  0  0  0  0  0  0
  138.9010   75.1950  221.3800 N   0  0  0  0  0  0  0  0  0  0  0  0
  138.3970   76.1440  222.3360 C   0  0  0  0  0  0  0  0  0  0  0  0
  139.4390   77.2330  222.3760 C   0  0  2  0  0  0  0  0  0  0  0  0
  139.1250   78.1960  221.4680 F   0  0  0  0  0  0  0  0  0  0  0  0
  140.7170   76.5060  222.0420 C   0  0  0  0  0  0  0  0  0  0  0  0
  140.3460   75.4030  221.1240 C   0  0  1  0  0  0  0  0  0  0  0  0
  141.0780   74.1380  221.4330 C   0  0  0  0  0  0  0  0  0  0  0  0
  140.5760   73.4170  222.3430 O   0  0  0  0  0  0  0  0  0  0  0  0
  142.2620   73.7390  220.7690 N   0  0  0  0  0  0  0  0  0  0  0  0
  142.9000   74.4900  219.7090 C   0  0  0  0  0  0  0  0  0  0  0  0
  144.3770   74.5590  220.1170 C   0  0  0  0  0  0  0  0  0  0  0  0
  144.9250   73.1650  219.8090 C   0  0  0  0  0  0  0  0  0  0  0  0
  143.9050   72.0960  220.0900 C   0  0  0  0  0  0  0  0  0  0  0  0
  142.9020   72.4940  221.1630 C   0  0  0  0  0  0  0  0  0  0  0  0
  139.2150   70.7400  223.8090 C   0  0  0  0  0  0  0  0  0  0  0  0
  139.0450   69.3810  223.9720 C   0  0  0  0  0  0  0  0  0  0  0  0
  139.4400   68.7790  225.1720 C   0  0  0  0  0  0  0  0  0  0  0  0
  139.9960   69.5740  226.1760 C   0  0  0  0  0  0  0  0  0  0  0  0
  140.3720   68.9440  227.3400 C   0  0  0  0  0  0  0  0  0  0  0  0
  140.9240   69.7510  228.3290 C   0  0  0  0  0  0  0  0  0  0  0  0
  141.0790   71.1090  228.1320 C   0  0  0  0  0  0  0  0  0  0  0  0
  140.6950   71.7270  226.9480 C   0  0  0  0  0  0  0  0  0  0  0  0
  140.1450   70.9320  225.9630 C   0  0  0  0  0  0  0  0  0  0  0  0
  139.7560   71.5020  224.7890 N   0  0  0  0  0  0  0  0  0  0  0  0
  137.6790   72.8320  223.4450 H   0  0  0  0  0  0  0  0  0  0  0  0
  137.7485   72.1290  220.5191 H   0  0  0  0  0  0  0  0  0  0  0  0
  136.5156   73.2713  221.3302 H   0  0  0  0  0  0  0  0  0  0  0  0
  137.4269   76.5465  222.0092 H   0  0  0  0  0  0  0  0  0  0  0  0
  138.2284   75.6913  223.3242 H   0  0  0  0  0  0  0  0  0  0  0  0
  139.5173   77.7561  223.3405 H   0  0  0  0  0  0  0  0  0  0  0  0
  141.4249   77.1887  221.5493 H   0  0  0  0  0  0  0  0  0  0  0  0
  141.2046   76.1211  222.9498 H   0  0  0  0  0  0  0  0  0  0  0  0
  140.5907   75.6565  220.0819 H   0  0  0  0  0  0  0  0  0  0  0  0
  142.7874   73.9727  218.7448 H   0  0  0  0  0  0  0  0  0  0  0  0
  142.4562   75.4882  219.5802 H   0  0  0  0  0  0  0  0  0  0  0  0
  144.9071   75.3236  219.5301 H   0  0  0  0  0  0  0  0  0  0  0  0
  144.5065   74.8351  221.1739 H   0  0  0  0  0  0  0  0  0  0  0  0
  145.2075   73.1189  218.7469 H   0  0  0  0  0  0  0  0  0  0  0  0
  145.7974   72.9872  220.4550 H   0  0  0  0  0  0  0  0  0  0  0  0
  143.3568   71.8824  219.1605 H   0  0  0  0  0  0  0  0  0  0  0  0
  144.4482   71.2141  220.4603 H   0  0  0  0  0  0  0  0  0  0  0  0
  142.1424   71.7056  221.2694 H   0  0  0  0  0  0  0  0  0  0  0  0
  143.4180   72.6277  222.1252 H   0  0  0  0  0  0  0  0  0  0  0  0
  138.6032   68.7761  223.1665 H   0  0  0  0  0  0  0  0  0  0  0  0
  139.3144   67.6965  225.3218 H   0  0  0  0  0  0  0  0  0  0  0  0
  140.2430   67.8607  227.4807 H   0  0  0  0  0  0  0  0  0  0  0  0
  141.2415   69.3014  229.2814 H   0  0  0  0  0  0  0  0  0  0  0  0
  141.5188   71.7188  228.9350 H   0  0  0  0  0  0  0  0  0  0  0  0
  140.8246   72.8094  226.8013 H   0  0  0  0  0  0  0  0  0  0  0  0
  1  2  2  0
  2  3  1  0
  3  4  1  0
  4  5  1  0
  5  6  2  0
  5  7  1  0
  7  8  1  0
  8  9  1  0
  9 10  1  0
  9 11  1  0
 11 12  1  0
 12 13  1  0
 13 14  2  0
 13 15  1  0
 15 16  1  0
 16 17  1  0
 17 18  1  0
 18 19  1  0
 19 20  1  0
  2 21  1  0
 21 22  2  0
 22 23  1  0
 23 24  2  0
 24 25  1  0
 25 26  2  0
 26 27  1  0
 27 28  2  0
 28 29  1  0
 29 30  2  0
 12  7  1  0
 20 15  1  0
 30 21  1  0
 29 24  1  0
  3 31  1  0
  4 32  1  0
  4 33  1  0
  8 34  1  0
  8 35  1  0
  9 36  1  1
 11 37  1  0
 11 38  1  0
 12 39  1  6
 16 40  1  0
 16 41  1  0
 17 42  1  0
 17 43  1  0
 18 44  1  0
 18 45  1  0
 19 46  1  0
 19 47  1  0
 20 48  1  0
 20 49  1  0
 22 50  1  0
 23 51  1  0
 25 52  1  0
 26 53  1  0
 27 54  1  0
 28 55  1  0
M  END
>  <smiles>  (8) 
O=C(NCC(=O)N1C[C@H](F)C[C@H]1C(=O)N1CCCCC1)c1ccc2ccccc2n1

>  <score_type>  (8) 
oracle

>  <origin>  (8) 
autodockgpu

>  <m_score__min__energy>  (8) 
-8.8300000000000001

>  <m_primary>  (8) 
energy

>  <rmsd>  (8) 
4.54224733818486

>  <m_score__min__rmsd>  (8) 
4.54224733818486

>  <meeko>  (8) 
{"free_energy": -7.99, "intermolecular_energy": -9.48, "internal_energy": -1.93, "cluster_size": 20, "cluster_id": 3, "rank_in_cluster": 2}

>  <energy>  (8) 
-7.3

>  <cluster_rmsd>  (8) 
1.85

>  <cluster>  (8) 
1

$$$$

     RDKit          3D

 55 58  0  0  0  0  0  0  0  0999 V2000
  139.4520   71.1050  221.2800 O   0  0  0  0  0  0  0  0  0  0  0  0
  139.6130   71.7750  222.3350 C   0  0  0  0  0  0  0  0  0  0  0  0
  139.6020   73.2330  222.1940 N   0  0  0  0  0  0  0  0  0  0  0  0
  139.4110   73.7130  220.8790 C   0  0  0  0  0  0  0  0  0  0  0  0
  138.4920   74.8130  220.6750 C   0  0  0  0  0  0  0  0  0  0  0  0
  138.4450   75.2250  219.4310 O   0  0  0  0  0  0  0  0  0  0  0  0
  137.6460   75.5080  221.5930 N   0  0  0  0  0  0  0  0  0  0  0  0
  136.4910   75.0560  222.3190 C   0  0  0  0  0  0  0  0  0  0  0  0
  135.8250   76.3200  222.8000 C   0  0  2  0  0  0  0  0  0  0  0  0
  134.9100   76.7300  221.8810 F   0  0  0  0  0  0  0  0  0  0  0  0
  136.9750   77.2840  222.9530 C   0  0  0  0  0  0  0  0  0  0  0  0
  137.9710   76.9170  221.9190 C   0  0  1  0  0  0  0  0  0  0  0  0
  139.3730   76.9820  222.4340 C   0  0  0  0  0  0  0  0  0  0  0  0
  139.9080   75.8730  222.7220 O   0  0  0  0  0  0  0  0  0  0  0  0
  140.0860   78.1920  222.6010 N   0  0  0  0  0  0  0  0  0  0  0  0
  139.5620   79.5040  222.2860 C   0  0  0  0  0  0  0  0  0  0  0  0
  139.8670   80.3520  223.5270 C   0  0  0  0  0  0  0  0  0  0  0  0
  141.3650   80.6440  223.4340 C   0  0  0  0  0  0  0  0  0  0  0  0
  142.1220   79.4760  222.8660 C   0  0  0  0  0  0  0  0  0  0  0  0
  141.4410   78.1390  223.1270 C   0  0  0  0  0  0  0  0  0  0  0  0
  139.8040   71.1660  223.6460 C   0  0  0  0  0  0  0  0  0  0  0  0
  139.4480   69.8390  223.7740 C   0  0  0  0  0  0  0  0  0  0  0  0
  139.6100   69.2020  225.0080 C   0  0  0  0  0  0  0  0  0  0  0  0
  140.1280   69.9280  226.0820 C   0  0  0  0  0  0  0  0  0  0  0  0
  140.2720   69.2640  227.2790 C   0  0  0  0  0  0  0  0  0  0  0  0
  140.7900   70.0020  228.3370 C   0  0  0  0  0  0  0  0  0  0  0  0
  141.1350   71.3290  228.1750 C   0  0  0  0  0  0  0  0  0  0  0  0
  140.9830   71.9820  226.9570 C   0  0  0  0  0  0  0  0  0  0  0  0
  140.4700   71.2560  225.9030 C   0  0  0  0  0  0  0  0  0  0  0  0
  140.3060   71.8620  224.6950 N   0  0  0  0  0  0  0  0  0  0  0  0
  139.7480   73.7240  223.0800 H   0  0  0  0  0  0  0  0  0  0  0  0
  140.3936   74.0362  220.5047 H   0  0  0  0  0  0  0  0  0  0  0  0
  138.9458   72.8695  220.3478 H   0  0  0  0  0  0  0  0  0  0  0  0
  135.8167   74.4880  221.6612 H   0  0  0  0  0  0  0  0  0  0  0  0
  136.7564   74.3831  223.1478 H   0  0  0  0  0  0  0  0  0  0  0  0
  135.2653   76.2125  223.7408 H   0  0  0  0  0  0  0  0  0  0  0  0
  136.6288   78.3165  222.7978 H   0  0  0  0  0  0  0  0  0  0  0  0
  137.4096   77.2283  223.9620 H   0  0  0  0  0  0  0  0  0  0  0  0
  137.9226   77.6045  221.0617 H   0  0  0  0  0  0  0  0  0  0  0  0
  140.0632   79.9194  221.3993 H   0  0  0  0  0  0  0  0  0  0  0  0
  138.4873   79.4784  222.0527 H   0  0  0  0  0  0  0  0  0  0  0  0
  139.2872   81.2866  223.5111 H   0  0  0  0  0  0  0  0  0  0  0  0
  139.5990   79.8368  224.4612 H   0  0  0  0  0  0  0  0  0  0  0  0
  141.5186   81.5187  222.7850 H   0  0  0  0  0  0  0  0  0  0  0  0
  141.7416   80.8373  224.4493 H   0  0  0  0  0  0  0  0  0  0  0  0
  142.2157   79.6148  221.7788 H   0  0  0  0  0  0  0  0  0  0  0  0
  143.1026   79.4473  223.3635 H   0  0  0  0  0  0  0  0  0  0  0  0
  142.0006   77.3352  222.6263 H   0  0  0  0  0  0  0  0  0  0  0  0
  141.4144   77.9381  224.2082 H   0  0  0  0  0  0  0  0  0  0  0  0
  139.0407   69.2877  222.9136 H   0  0  0  0  0  0  0  0  0  0  0  0
  139.3334   68.1445  225.1308 H   0  0  0  0  0  0  0  0  0  0  0  0
  139.9922   68.2062  227.3923 H   0  0  0  0  0  0  0  0  0  0  0  0
  140.9270   69.5219  229.3172 H   0  0  0  0  0  0  0  0  0  0  0  0
  141.5412   71.8848  229.0330 H   0  0  0  0  0  0  0  0  0  0  0  0
  141.2619   73.0394  226.8385 H   0  0  0  0  0  0  0  0  0  0  0  0
  1  2  2  0
  2  3  1  0
  3  4  1  0
  4  5  1  0
  5  6  2  0
  5  7  1  0
  7  8  1  0
  8  9  1  0
  9 10  1  0
  9 11  1  0
 11 12  1  0
 12 13  1  0
 13 14  2  0
 13 15  1  0
 15 16  1  0
 16 17  1  0
 17 18  1  0
 18 19  1  0
 19 20  1  0
  2 21  1  0
 21 22  2  0
 22 23  1  0
 23 24  2  0
 24 25  1  0
 25 26  2  0
 26 27  1  0
 27 28  2  0
 28 29  1  0
 29 30  2  0
 12  7  1  0
 20 15  1  0
 30 21  1  0
 29 24  1  0
  3 31  1  0
  4 32  1  0
  4 33  1  0
  8 34  1  0
  8 35  1  0
  9 36  1  1
 11 37  1  0
 11 38  1  0
 12 39  1  6
 16 40  1  0
 16 41  1  0
 17 42  1  0
 17 43  1  0
 18 44  1  0
 18 45  1  0
 19 46  1  0
 19 47  1  0
 20 48  1  0
 20 49  1  0
 22 50  1  0
 23 51  1  0
 25 52  1  0
 26 53  1  0
 27 54  1  0
 28 55  1  0
M  END
>  <smiles>  (9) 
O=C(NCC(=O)N1C[C@H](F)C[C@H]1C(=O)N1CCCCC1)c1ccc2ccccc2n1

>  <score_type>  (9) 
oracle

>  <origin>  (9) 
autodockgpu

>  <m_score__min__energy>  (9) 
-8.8300000000000001

>  <m_primary>  (9) 
energy

>  <rmsd>  (9) 
3.3130524009703772

>  <m_score__min__rmsd>  (9) 
3.3130524009703772

>  <meeko>  (9) 
{"free_energy": -8.15, "intermolecular_energy": -9.64, "internal_energy": -2.16, "cluster_size": 16, "cluster_id": 2, "rank_in_cluster": 9}

>  <energy>  (9) 
-7.19

>  <cluster_rmsd>  (9) 
1.98

>  <cluster>  (9) 
1

$$$$

     RDKit          3D

 55 58  0  0  0  0  0  0  0  0999 V2000
  138.3190   70.2800  221.5900 O   0  0  0  0  0  0  0  0  0  0  0  0
  138.6170   71.0040  222.5780 C   0  0  0  0  0  0  0  0  0  0  0  0
  138.4800   72.4500  222.3960 N   0  0  0  0  0  0  0  0  0  0  0  0
  138.0270   72.8600  221.1210 C   0  0  0  0  0  0  0  0  0  0  0  0
  138.2430   74.2350  220.7240 C   0  0  0  0  0  0  0  0  0  0  0  0
  137.7160   74.5270  219.5600 O   0  0  0  0  0  0  0  0  0  0  0  0
  138.9250   75.3040  221.3840 N   0  0  0  0  0  0  0  0  0  0  0  0
  138.4500   76.2520  222.3550 C   0  0  0  0  0  0  0  0  0  0  0  0
  139.4980   77.3360  222.3710 C   0  0  2  0  0  0  0  0  0  0  0  0
  139.1650   78.3030  221.4750 F   0  0  0  0  0  0  0  0  0  0  0  0
  140.7630   76.6050  222.0020 C   0  0  0  0  0  0  0  0  0  0  0  0
  140.3630   75.5070  221.0910 C   0  0  1  0  0  0  0  0  0  0  0  0
  141.0980   74.2370  221.3770 C   0  0  0  0  0  0  0  0  0  0  0  0
  140.6600   73.5520  222.3460 O   0  0  0  0  0  0  0  0  0  0  0  0
  142.2160   73.7970  220.6300 N   0  0  0  0  0  0  0  0  0  0  0  0
  142.7770   74.5060  219.4990 C   0  0  0  0  0  0  0  0  0  0  0  0
  144.2830   74.5570  219.7820 C   0  0  0  0  0  0  0  0  0  0  0  0
  144.7810   73.1450  219.4730 C   0  0  0  0  0  0  0  0  0  0  0  0
  143.7700   72.1040  219.8690 C   0  0  0  0  0  0  0  0  0  0  0  0
  142.8650   72.5520  221.0080 C   0  0  0  0  0  0  0  0  0  0  0  0
  139.0780   70.4650  223.8520 C   0  0  0  0  0  0  0  0  0  0  0  0
  138.8810   69.1160  224.0650 C   0  0  0  0  0  0  0  0  0  0  0  0
  139.3030   68.5430  225.2680 C   0  0  0  0  0  0  0  0  0  0  0  0
  139.9160   69.3540  226.2260 C   0  0  0  0  0  0  0  0  0  0  0  0
  140.3170   68.7510  227.3960 C   0  0  0  0  0  0  0  0  0  0  0  0
  140.9250   69.5740  228.3380 C   0  0  0  0  0  0  0  0  0  0  0  0
  141.1060   70.9210  228.0920 C   0  0  0  0  0  0  0  0  0  0  0  0
  140.6940   71.5110  226.9030 C   0  0  0  0  0  0  0  0  0  0  0  0
  140.0900   70.7000  225.9640 C   0  0  0  0  0  0  0  0  0  0  0  0
  139.6720   71.2430  224.7880 N   0  0  0  0  0  0  0  0  0  0  0  0
  138.7450   72.9880  223.2260 H   0  0  0  0  0  0  0  0  0  0  0  0
  138.5291   72.2239  220.3772 H   0  0  0  0  0  0  0  0  0  0  0  0
  136.9327   72.7635  221.1785 H   0  0  0  0  0  0  0  0  0  0  0  0
  137.4737   76.6599  222.0544 H   0  0  0  0  0  0  0  0  0  0  0  0
  138.3044   75.7973  223.3460 H   0  0  0  0  0  0  0  0  0  0  0  0
  139.6039   77.8554  223.3348 H   0  0  0  0  0  0  0  0  0  0  0  0
  141.4609   77.2861  221.4930 H   0  0  0  0  0  0  0  0  0  0  0  0
  141.2727   76.2153  222.8955 H   0  0  0  0  0  0  0  0  0  0  0  0
  140.5811   75.7631  220.0437 H   0  0  0  0  0  0  0  0  0  0  0  0
  142.5760   73.9645  218.5628 H   0  0  0  0  0  0  0  0  0  0  0  0
  142.3414   75.5088  219.3778 H   0  0  0  0  0  0  0  0  0  0  0  0
  144.7759   75.2939  219.1308 H   0  0  0  0  0  0  0  0  0  0  0  0
  144.5033   74.8602  220.8162 H   0  0  0  0  0  0  0  0  0  0  0  0
  144.9744   73.0627  218.3933 H   0  0  0  0  0  0  0  0  0  0  0  0
  145.7007   72.9697  220.0505 H   0  0  0  0  0  0  0  0  0  0  0  0
  143.1438   71.8738  218.9944 H   0  0  0  0  0  0  0  0  0  0  0  0
  144.3273   71.2231  220.2205 H   0  0  0  0  0  0  0  0  0  0  0  0
  142.1035   71.7817  221.1998 H   0  0  0  0  0  0  0  0  0  0  0  0
  143.4604   72.7034  221.9205 H   0  0  0  0  0  0  0  0  0  0  0  0
  138.3964   68.4974  223.2953 H   0  0  0  0  0  0  0  0  0  0  0  0
  139.1546   67.4697  225.4575 H   0  0  0  0  0  0  0  0  0  0  0  0
  140.1650   67.6766  227.5765 H   0  0  0  0  0  0  0  0  0  0  0  0
  141.2664   69.1462  229.2922 H   0  0  0  0  0  0  0  0  0  0  0  0
  141.5898   71.5442  228.8585 H   0  0  0  0  0  0  0  0  0  0  0  0
  140.8438   72.5848  226.7173 H   0  0  0  0  0  0  0  0  0  0  0  0
  1  2  2  0
  2  3  1  0
  3  4  1  0
  4  5  1  0
  5  6  2  0
  5  7  1  0
  7  8  1  0
  8  9  1  0
  9 10  1  0
  9 11  1  0
 11 12  1  0
 12 13  1  0
 13 14  2  0
 13 15  1  0
 15 16  1  0
 16 17  1  0
 17 18  1  0
 18 19  1  0
 19 20  1  0
  2 21  1  0
 21 22  2  0
 22 23  1  0
 23 24  2  0
 24 25  1  0
 25 26  2  0
 26 27  1  0
 27 28  2  0
 28 29  1  0
 29 30  2  0
 12  7  1  0
 20 15  1  0
 30 21  1  0
 29 24  1  0
  3 31  1  0
  4 32  1  0
  4 33  1  0
  8 34  1  0
  8 35  1  0
  9 36  1  1
 11 37  1  0
 11 38  1  0
 12 39  1  6
 16 40  1  0
 16 41  1  0
 17 42  1  0
 17 43  1  0
 18 44  1  0
 18 45  1  0
 19 46  1  0
 19 47  1  0
 20 48  1  0
 20 49  1  0
 22 50  1  0
 23 51  1  0
 25 52  1  0
 26 53  1  0
 27 54  1  0
 28 55  1  0
M  END
>  <smiles>  (10) 
O=C(NCC(=O)N1C[C@H](F)C[C@H]1C(=O)N1CCCCC1)c1ccc2ccccc2n1

>  <score_type>  (10) 
oracle

>  <origin>  (10) 
autodockgpu

>  <m_score__min__energy>  (10) 
-8.8300000000000001

>  <m_primary>  (10) 
energy

>  <rmsd>  (10) 
4.531639510121021

>  <m_score__min__rmsd>  (10) 
4.531639510121021

>  <meeko>  (10) 
{"free_energy": -7.85, "intermolecular_energy": -9.34, "internal_energy": -2.33, "cluster_size": 20, "cluster_id": 3, "rank_in_cluster": 8}

>  <energy>  (10) 
-8.29

>  <cluster_rmsd>  (10) 
0.0

>  <cluster>  (10) 
2

$$$$

     RDKit          3D

 55 58  0  0  0  0  0  0  0  0999 V2000
  139.8600   71.1620  221.2540 O   0  0  0  0  0  0  0  0  0  0  0  0
  139.8050   71.8090  222.3350 C   0  0  0  0  0  0  0  0  0  0  0  0
  139.5970   73.2540  222.2240 N   0  0  0  0  0  0  0  0  0  0  0  0
  139.4810   73.7500  220.9050 C   0  0  0  0  0  0  0  0  0  0  0  0
  138.5030   74.7840  220.6430 C   0  0  0  0  0  0  0  0  0  0  0  0
  138.4100   75.1000  219.3740 O   0  0  0  0  0  0  0  0  0  0  0  0
  137.6410   75.5030  221.5270 N   0  0  0  0  0  0  0  0  0  0  0  0
  136.4580   75.0760  222.2240 C   0  0  0  0  0  0  0  0  0  0  0  0
  135.7980   76.3560  222.6700 C   0  0  2  0  0  0  0  0  0  0  0  0
  134.9160   76.7680  221.7200 F   0  0  0  0  0  0  0  0  0  0  0  0
  136.9560   77.3040  222.8470 C   0  0  0  0  0  0  0  0  0  0  0  0
  137.9770   76.9100  221.8470 C   0  0  1  0  0  0  0  0  0  0  0  0
  139.3640   76.9610  222.4030 C   0  0  0  0  0  0  0  0  0  0  0  0
  139.8730   75.8480  222.7180 O   0  0  0  0  0  0  0  0  0  0  0  0
  140.0900   78.1620  222.5770 N   0  0  0  0  0  0  0  0  0  0  0  0
  139.5950   79.4780  222.2320 C   0  0  0  0  0  0  0  0  0  0  0  0
  139.8760   80.3360  223.4730 C   0  0  0  0  0  0  0  0  0  0  0  0
  141.3800   80.6050  223.4210 C   0  0  0  0  0  0  0  0  0  0  0  0
  142.1360   79.4190  222.8890 C   0  0  0  0  0  0  0  0  0  0  0  0
  141.4280   78.0960  223.1440 C   0  0  0  0  0  0  0  0  0  0  0  0
  139.9410   71.1850  223.6460 C   0  0  0  0  0  0  0  0  0  0  0  0
  139.5270   69.8740  223.7570 C   0  0  0  0  0  0  0  0  0  0  0  0
  139.6340   69.2230  224.9910 C   0  0  0  0  0  0  0  0  0  0  0  0
  140.1560   69.9220  226.0810 C   0  0  0  0  0  0  0  0  0  0  0  0
  140.2440   69.2460  227.2770 C   0  0  0  0  0  0  0  0  0  0  0  0
  140.7670   69.9560  228.3510 C   0  0  0  0  0  0  0  0  0  0  0  0
  141.1700   71.2690  228.2050 C   0  0  0  0  0  0  0  0  0  0  0  0
  141.0740   71.9340  226.9890 C   0  0  0  0  0  0  0  0  0  0  0  0
  140.5560   71.2350  225.9180 C   0  0  0  0  0  0  0  0  0  0  0  0
  140.4450   71.8540  224.7100 N   0  0  0  0  0  0  0  0  0  0  0  0
  139.5720   73.7280  223.1300 H   0  0  0  0  0  0  0  0  0  0  0  0
  140.4644   74.1529  220.6212 H   0  0  0  0  0  0  0  0  0  0  0  0
  139.1262   72.8876  220.3216 H   0  0  0  0  0  0  0  0  0  0  0  0
  135.7948   74.5101  221.5532 H   0  0  0  0  0  0  0  0  0  0  0  0
  136.6883   74.4088  223.0677 H   0  0  0  0  0  0  0  0  0  0  0  0
  135.2095   76.2685  223.5952 H   0  0  0  0  0  0  0  0  0  0  0  0
  136.6301   78.3396  222.6701 H   0  0  0  0  0  0  0  0  0  0  0  0
  137.3593   77.2540  223.8692 H   0  0  0  0  0  0  0  0  0  0  0  0
  137.9643   77.5878  220.9808 H   0  0  0  0  0  0  0  0  0  0  0  0
  140.1283   79.8760  221.3561 H   0  0  0  0  0  0  0  0  0  0  0  0
  138.5275   79.4655  221.9670 H   0  0  0  0  0  0  0  0  0  0  0  0
  139.3109   81.2787  223.4298 H   0  0  0  0  0  0  0  0  0  0  0  0
  139.5730   79.8355  224.4045 H   0  0  0  0  0  0  0  0  0  0  0  0
  141.5657   81.4695  222.7667 H   0  0  0  0  0  0  0  0  0  0  0  0
  141.7295   80.8051  224.4446 H   0  0  0  0  0  0  0  0  0  0  0  0
  142.2643   79.5438  221.8037 H   0  0  0  0  0  0  0  0  0  0  0  0
  143.1006   79.3816  223.4163 H   0  0  0  0  0  0  0  0  0  0  0  0
  141.9905   77.2785  222.6694 H   0  0  0  0  0  0  0  0  0  0  0  0
  141.3659   77.9084  224.2261 H   0  0  0  0  0  0  0  0  0  0  0  0
  139.1167   69.3454  222.8840 H   0  0  0  0  0  0  0  0  0  0  0  0
  139.3119   68.1769  225.1005 H   0  0  0  0  0  0  0  0  0  0  0  0
  139.9179   68.2002  227.3771 H   0  0  0  0  0  0  0  0  0  0  0  0
  140.8613   69.4655  229.3311 H   0  0  0  0  0  0  0  0  0  0  0  0
  141.5783   71.8030  229.0757 H   0  0  0  0  0  0  0  0  0  0  0  0
  141.3991   72.9796  226.8838 H   0  0  0  0  0  0  0  0  0  0  0  0
  1  2  2  0
  2  3  1  0
  3  4  1  0
  4  5  1  0
  5  6  2  0
  5  7  1  0
  7  8  1  0
  8  9  1  0
  9 10  1  0
  9 11  1  0
 11 12  1  0
 12 13  1  0
 13 14  2  0
 13 15  1  0
 15 16  1  0
 16 17  1  0
 17 18  1  0
 18 19  1  0
 19 20  1  0
  2 21  1  0
 21 22  2  0
 22 23  1  0
 23 24  2  0
 24 25  1  0
 25 26  2  0
 26 27  1  0
 27 28  2  0
 28 29  1  0
 29 30  2  0
 12  7  1  0
 20 15  1  0
 30 21  1  0
 29 24  1  0
  3 31  1  0
  4 32  1  0
  4 33  1  0
  8 34  1  0
  8 35  1  0
  9 36  1  1
 11 37  1  0
 11 38  1  0
 12 39  1  6
 16 40  1  0
 16 41  1  0
 17 42  1  0
 17 43  1  0
 18 44  1  0
 18 45  1  0
 19 46  1  0
 19 47  1  0
 20 48  1  0
 20 49  1  0
 22 50  1  0
 23 51  1  0
 25 52  1  0
 26 53  1  0
 27 54  1  0
 28 55  1  0
M  END
>  <smiles>  (11) 
O=C(NCC(=O)N1C[C@H](F)C[C@H]1C(=O)N1CCCCC1)c1ccc2ccccc2n1

>  <score_type>  (11) 
oracle

>  <origin>  (11) 
autodockgpu

>  <m_score__min__energy>  (11) 
-8.8300000000000001

>  <m_primary>  (11) 
energy

>  <rmsd>  (11) 
3.2998218174569054

>  <m_score__min__rmsd>  (11) 
3.2998218174569054

>  <meeko>  (11) 
{"free_energy": -8.29, "intermolecular_energy": -9.78, "internal_energy": -2.03, "cluster_size": 16, "cluster_id": 2, "rank_in_cluster": 1}

>  <energy>  (11) 
-8.27

>  <cluster_rmsd>  (11) 
0.06

>  <cluster>  (11) 
2

$$$$

     RDKit          3D

 55 58  0  0  0  0  0  0  0  0999 V2000
  140.7470   71.5020  221.3250 O   0  0  0  0  0  0  0  0  0  0  0  0
  140.2990   72.0030  222.3920 C   0  0  0  0  0  0  0  0  0  0  0  0
  139.8950   73.4090  222.3370 N   0  0  0  0  0  0  0  0  0  0  0  0
  140.0580   74.0380  221.0810 C   0  0  0  0  0  0  0  0  0  0  0  0
  140.8170   75.2680  221.0220 C   0  0  0  0  0  0  0  0  0  0  0  0
  140.9780   75.8350  222.1930 O   0  0  0  0  0  0  0  0  0  0  0  0
  141.4070   75.9520  219.9140 N   0  0  0  0  0  0  0  0  0  0  0  0
  141.5390   75.5550  218.5390 C   0  0  0  0  0  0  0  0  0  0  0  0
  142.5670   76.5000  217.9680 C   0  0  2  0  0  0  0  0  0  0  0  0
  143.8060   75.9540  218.0960 F   0  0  0  0  0  0  0  0  0  0  0  0
  142.3880   77.7500  218.7910 C   0  0  0  0  0  0  0  0  0  0  0  0
  141.9630   77.3070  220.1400 C   0  0  1  0  0  0  0  0  0  0  0  0
  140.8930   78.1800  220.7120 C   0  0  0  0  0  0  0  0  0  0  0  0
  139.7810   78.1560  220.1100 O   0  0  0  0  0  0  0  0  0  0  0  0
  141.0770   78.9930  221.8550 N   0  0  0  0  0  0  0  0  0  0  0  0
  142.3070   79.0730  222.6150 C   0  0  0  0  0  0  0  0  0  0  0  0
  142.5680   80.5770  222.7720 C   0  0  0  0  0  0  0  0  0  0  0  0
  141.5740   81.0290  223.8420 C   0  0  0  0  0  0  0  0  0  0  0  0
  140.2670   80.2940  223.7290 C   0  0  0  0  0  0  0  0  0  0  0  0
  139.9700   79.8170  222.3150 C   0  0  0  0  0  0  0  0  0  0  0  0
  140.1770   71.2520  223.6350 C   0  0  0  0  0  0  0  0  0  0  0  0
  139.6040   70.0000  223.5530 C   0  0  0  0  0  0  0  0  0  0  0  0
  139.4610   69.2330  224.7140 C   0  0  0  0  0  0  0  0  0  0  0  0
  139.9030   69.7580  225.9300 C   0  0  0  0  0  0  0  0  0  0  0  0
  139.7450   68.9720  227.0490 C   0  0  0  0  0  0  0  0  0  0  0  0
  140.1910   69.5100  228.2510 C   0  0  0  0  0  0  0  0  0  0  0  0
  140.7600   70.7680  228.2970 C   0  0  0  0  0  0  0  0  0  0  0  0
  140.9120   71.5460  227.1560 C   0  0  0  0  0  0  0  0  0  0  0  0
  140.4710   71.0180  225.9600 C   0  0  0  0  0  0  0  0  0  0  0  0
  140.6020   71.7520  224.8200 N   0  0  0  0  0  0  0  0  0  0  0  0
  139.5500   73.7640  223.2320 H   0  0  0  0  0  0  0  0  0  0  0  0
  140.5565   73.3159  220.4177 H   0  0  0  0  0  0  0  0  0  0  0  0
  139.0388   74.3345  220.7923 H   0  0  0  0  0  0  0  0  0  0  0  0
  141.8861   74.5137  218.4669 H   0  0  0  0  0  0  0  0  0  0  0  0
  140.5827   75.6015  217.9974 H   0  0  0  0  0  0  0  0  0  0  0  0
  142.4502   76.7093  216.8944 H   0  0  0  0  0  0  0  0  0  0  0  0
  143.3368   78.3030  218.8538 H   0  0  0  0  0  0  0  0  0  0  0  0
  141.6428   78.4211  218.3390 H   0  0  0  0  0  0  0  0  0  0  0  0
  142.8026   77.3398  220.8499 H   0  0  0  0  0  0  0  0  0  0  0  0
  142.1876   78.5949  223.5984 H   0  0  0  0  0  0  0  0  0  0  0  0
  143.1397   78.5549  222.1167 H   0  0  0  0  0  0  0  0  0  0  0  0
  143.6019   80.7600  223.0999 H   0  0  0  0  0  0  0  0  0  0  0  0
  142.4416   81.1242  221.8262 H   0  0  0  0  0  0  0  0  0  0  0  0
  142.0067   80.8373  224.8350 H   0  0  0  0  0  0  0  0  0  0  0  0
  141.3788   82.1021  223.6991 H   0  0  0  0  0  0  0  0  0  0  0  0
  140.2992   79.4185  224.3942 H   0  0  0  0  0  0  0  0  0  0  0  0
  139.4700   80.9974  224.0118 H   0  0  0  0  0  0  0  0  0  0  0  0
  139.0427   79.2254  222.3117 H   0  0  0  0  0  0  0  0  0  0  0  0
  139.8462   80.6824  221.6474 H   0  0  0  0  0  0  0  0  0  0  0  0
  139.2626   69.6083  222.5835 H   0  0  0  0  0  0  0  0  0  0  0  0
  139.0074   68.2319  224.6697 H   0  0  0  0  0  0  0  0  0  0  0  0
  139.2902   67.9719  226.9951 H   0  0  0  0  0  0  0  0  0  0  0  0
  140.0894   68.9262  229.1777 H   0  0  0  0  0  0  0  0  0  0  0  0
  141.1023   71.1648  229.2641 H   0  0  0  0  0  0  0  0  0  0  0  0
  141.3672   72.5462  227.2044 H   0  0  0  0  0  0  0  0  0  0  0  0
  1  2  2  0
  2  3  1  0
  3  4  1  0
  4  5  1  0
  5  6  2  0
  5  7  1  0
  7  8  1  0
  8  9  1  0
  9 10  1  0
  9 11  1  0
 11 12  1  0
 12 13  1  0
 13 14  2  0
 13 15  1  0
 15 16  1  0
 16 17  1  0
 17 18  1  0
 18 19  1  0
 19 20  1  0
  2 21  1  0
 21 22  2  0
 22 23  1  0
 23 24  2  0
 24 25  1  0
 25 26  2  0
 26 27  1  0
 27 28  2  0
 28 29  1  0
 29 30  2  0
 12  7  1  0
 20 15  1  0
 30 21  1  0
 29 24  1  0
  3 31  1  0
  4 32  1  0
  4 33  1  0
  8 34  1  0
  8 35  1  0
  9 36  1  6
 11 37  1  0
 11 38  1  0
 12 39  1  1
 16 40  1  0
 16 41  1  0
 17 42  1  0
 17 43  1  0
 18 44  1  0
 18 45  1  0
 19 46  1  0
 19 47  1  0
 20 48  1  0
 20 49  1  0
 22 50  1  0
 23 51  1  0
 25 52  1  0
 26 53  1  0
 27 54  1  0
 28 55  1  0
M  END
>  <smiles>  (12) 
O=C(NCC(=O)N1C[C@H](F)C[C@H]1C(=O)N1CCCCC1)c1ccc2ccccc2n1

>  <score_type>  (12) 
oracle

>  <origin>  (12) 
autodockgpu

>  <m_score__min__energy>  (12) 
-8.8300000000000001

>  <m_primary>  (12) 
energy

>  <rmsd>  (12) 
2.114544232699926

>  <m_score__min__rmsd>  (12) 
2.114544232699926

>  <meeko>  (12) 
{"free_energy": -8.6, "intermolecular_energy": -10.09, "internal_energy": -1.51, "cluster_size": 9, "cluster_id": 1, "rank_in_cluster": 3}

>  <energy>  (12) 
-8.26

>  <cluster_rmsd>  (12) 
0.17

>  <cluster>  (12) 
2

$$$$

     RDKit          3D

 55 58  0  0  0  0  0  0  0  0999 V2000
  138.3270   70.2720  221.6070 O   0  0  0  0  0  0  0  0  0  0  0  0
  138.6450   71.0120  222.5770 C   0  0  0  0  0  0  0  0  0  0  0  0
  138.5220   72.4560  222.3680 N   0  0  0  0  0  0  0  0  0  0  0  0
  138.0550   72.8450  221.0920 C   0  0  0  0  0  0  0  0  0  0  0  0
  138.1490   74.2410  220.7220 C   0  0  0  0  0  0  0  0  0  0  0  0
  137.5540   74.5180  219.5870 O   0  0  0  0  0  0  0  0  0  0  0  0
  138.7750   75.3440  221.3810 N   0  0  0  0  0  0  0  0  0  0  0  0
  138.2600   76.2510  222.3690 C   0  0  0  0  0  0  0  0  0  0  0  0
  139.2390   77.3980  222.3790 C   0  0  2  0  0  0  0  0  0  0  0  0
  138.8310   78.3510  221.4990 F   0  0  0  0  0  0  0  0  0  0  0  0
  140.5410   76.7500  221.9820 C   0  0  0  0  0  0  0  0  0  0  0  0
  140.1930   75.6380  221.0660 C   0  0  1  0  0  0  0  0  0  0  0  0
  141.0100   74.4130  221.3260 C   0  0  0  0  0  0  0  0  0  0  0  0
  140.6690   73.7260  222.3320 O   0  0  0  0  0  0  0  0  0  0  0  0
  142.1010   74.0170  220.5190 N   0  0  0  0  0  0  0  0  0  0  0  0
  142.5540   74.7310  219.3430 C   0  0  0  0  0  0  0  0  0  0  0  0
  144.0700   74.8660  219.5310 C   0  0  0  0  0  0  0  0  0  0  0  0
  144.6210   73.4760  219.2150 C   0  0  0  0  0  0  0  0  0  0  0  0
  143.6930   72.3920  219.6900 C   0  0  0  0  0  0  0  0  0  0  0  0
  142.8380   72.8150  220.8760 C   0  0  0  0  0  0  0  0  0  0  0  0
  139.1190   70.4930  223.8550 C   0  0  0  0  0  0  0  0  0  0  0  0
  138.9710   69.1380  224.0700 C   0  0  0  0  0  0  0  0  0  0  0  0
  139.4070   68.5840  225.2770 C   0  0  0  0  0  0  0  0  0  0  0  0
  139.9820   69.4200  226.2370 C   0  0  0  0  0  0  0  0  0  0  0  0
  140.3990   68.8350  227.4110 C   0  0  0  0  0  0  0  0  0  0  0  0
  140.9690   69.6810  228.3550 C   0  0  0  0  0  0  0  0  0  0  0  0
  141.1010   71.0340  228.1070 C   0  0  0  0  0  0  0  0  0  0  0  0
  140.6740   71.6050  226.9140 C   0  0  0  0  0  0  0  0  0  0  0  0
  140.1070   70.7710  225.9730 C   0  0  0  0  0  0  0  0  0  0  0  0
  139.6770   71.2950  224.7920 N   0  0  0  0  0  0  0  0  0  0  0  0
  138.8030   73.0060  223.1830 H   0  0  0  0  0  0  0  0  0  0  0  0
  138.6269   72.2718  220.3475 H   0  0  0  0  0  0  0  0  0  0  0  0
  136.9737   72.6463  221.1271 H   0  0  0  0  0  0  0  0  0  0  0  0
  137.2552   76.6004  222.0892 H   0  0  0  0  0  0  0  0  0  0  0  0
  138.1604   75.7787  223.3575 H   0  0  0  0  0  0  0  0  0  0  0  0
  139.3293   77.9143  223.3461 H   0  0  0  0  0  0  0  0  0  0  0  0
  141.1871   77.4775  221.4689 H   0  0  0  0  0  0  0  0  0  0  0  0
  141.0892   76.3843  222.8628 H   0  0  0  0  0  0  0  0  0  0  0  0
  140.3762   75.9170  220.0179 H   0  0  0  0  0  0  0  0  0  0  0  0
  142.3253   74.1607  218.4306 H   0  0  0  0  0  0  0  0  0  0  0  0
  142.0593   75.7072  219.2319 H   0  0  0  0  0  0  0  0  0  0  0  0
  144.4824   75.6143  218.8382 H   0  0  0  0  0  0  0  0  0  0  0  0
  144.3373   75.2011  220.5441 H   0  0  0  0  0  0  0  0  0  0  0  0
  144.7517   73.3826  218.1268 H   0  0  0  0  0  0  0  0  0  0  0  0
  145.5821   73.3597  219.7373 H   0  0  0  0  0  0  0  0  0  0  0  0
  143.0270   72.1129  218.8602 H   0  0  0  0  0  0  0  0  0  0  0  0
  144.3164   71.5478  220.0197 H   0  0  0  0  0  0  0  0  0  0  0  0
  142.1321   72.0100  221.1284 H   0  0  0  0  0  0  0  0  0  0  0  0
  143.4801   73.0156  221.7463 H   0  0  0  0  0  0  0  0  0  0  0  0
  138.5143   68.5000  223.2990 H   0  0  0  0  0  0  0  0  0  0  0  0
  139.2989   67.5061  225.4679 H   0  0  0  0  0  0  0  0  0  0  0  0
  140.2872   67.7558  227.5924 H   0  0  0  0  0  0  0  0  0  0  0  0
  141.3197   69.2680  229.3123 H   0  0  0  0  0  0  0  0  0  0  0  0
  141.5565   71.6767  228.8748 H   0  0  0  0  0  0  0  0  0  0  0  0
  140.7843   72.6834  226.7269 H   0  0  0  0  0  0  0  0  0  0  0  0
  1  2  2  0
  2  3  1  0
  3  4  1  0
  4  5  1  0
  5  6  2  0
  5  7  1  0
  7  8  1  0
  8  9  1  0
  9 10  1  0
  9 11  1  0
 11 12  1  0
 12 13  1  0
 13 14  2  0
 13 15  1  0
 15 16  1  0
 16 17  1  0
 17 18  1  0
 18 19  1  0
 19 20  1  0
  2 21  1  0
 21 22  2  0
 22 23  1  0
 23 24  2  0
 24 25  1  0
 25 26  2  0
 26 27  1  0
 27 28  2  0
 28 29  1  0
 29 30  2  0
 12  7  1  0
 20 15  1  0
 30 21  1  0
 29 24  1  0
  3 31  1  0
  4 32  1  0
  4 33  1  0
  8 34  1  0
  8 35  1  0
  9 36  1  1
 11 37  1  0
 11 38  1  0
 12 39  1  6
 16 40  1  0
 16 41  1  0
 17 42  1  0
 17 43  1  0
 18 44  1  0
 18 45  1  0
 19 46  1  0
 19 47  1  0
 20 48  1  0
 20 49  1  0
 22 50  1  0
 23 51  1  0
 25 52  1  0
 26 53  1  0
 27 54  1  0
 28 55  1  0
M  END
>  <smiles>  (13) 
O=C(NCC(=O)N1C[C@H](F)C[C@H]1C(=O)N1CCCCC1)c1ccc2ccccc2n1

>  <score_type>  (13) 
oracle

>  <origin>  (13) 
autodockgpu

>  <m_score__min__energy>  (13) 
-8.8300000000000001

>  <m_primary>  (13) 
energy

>  <rmsd>  (13) 
4.441353791768493

>  <m_score__min__rmsd>  (13) 
4.441353791768493

>  <meeko>  (13) 
{"free_energy": -7.82, "intermolecular_energy": -9.31, "internal_energy": -2.4, "cluster_size": 20, "cluster_id": 3, "rank_in_cluster": 13}

>  <energy>  (13) 
-8.26

>  <cluster_rmsd>  (13) 
0.22

>  <cluster>  (13) 
2

$$$$

     RDKit          3D

 55 58  0  0  0  0  0  0  0  0999 V2000
  138.0030   69.8770  221.8330 O   0  0  0  0  0  0  0  0  0  0  0  0
  138.4670   70.6790  222.6890 C   0  0  0  0  0  0  0  0  0  0  0  0
  138.4140   72.1020  222.3490 N   0  0  0  0  0  0  0  0  0  0  0  0
  137.8440   72.4040  221.0910 C   0  0  0  0  0  0  0  0  0  0  0  0
  137.4160   73.7640  220.8390 C   0  0  0  0  0  0  0  0  0  0  0  0
  136.8770   73.9260  219.6560 O   0  0  0  0  0  0  0  0  0  0  0  0
  137.4860   74.9340  221.6560 N   0  0  0  0  0  0  0  0  0  0  0  0
  136.6760   75.3400  222.7710 C   0  0  0  0  0  0  0  0  0  0  0  0
  136.9850   76.8050  222.9530 C   0  0  2  0  0  0  0  0  0  0  0  0
  136.1080   77.5480  222.2270 F   0  0  0  0  0  0  0  0  0  0  0  0
  138.4050   76.9250  222.4600 C   0  0  0  0  0  0  0  0  0  0  0  0
  138.5640   75.9150  221.3880 C   0  0  1  0  0  0  0  0  0  0  0  0
  139.8830   75.2160  221.4590 C   0  0  0  0  0  0  0  0  0  0  0  0
  139.9830   74.3150  222.3410 O   0  0  0  0  0  0  0  0  0  0  0  0
  140.9720   75.5160  220.6080 N   0  0  0  0  0  0  0  0  0  0  0  0
  140.9450   76.5180  219.5630 C   0  0  0  0  0  0  0  0  0  0  0  0
  142.2210   77.3410  219.7820 C   0  0  0  0  0  0  0  0  0  0  0  0
  143.3470   76.4520  219.2560 C   0  0  0  0  0  0  0  0  0  0  0  0
  143.0860   75.0000  219.5470 C   0  0  0  0  0  0  0  0  0  0  0  0
  142.2170   74.7830  220.7780 C   0  0  0  0  0  0  0  0  0  0  0  0
  139.0350   70.2480  223.9600 C   0  0  0  0  0  0  0  0  0  0  0  0
  138.9970   68.8960  224.2330 C   0  0  0  0  0  0  0  0  0  0  0  0
  139.5280   68.4240  225.4380 C   0  0  0  0  0  0  0  0  0  0  0  0
  140.0840   69.3380  226.3360 C   0  0  0  0  0  0  0  0  0  0  0  0
  140.5960   68.8330  227.5090 C   0  0  0  0  0  0  0  0  0  0  0  0
  141.1460   69.7560  228.3920 C   0  0  0  0  0  0  0  0  0  0  0  0
  141.1670   71.1030  228.0870 C   0  0  0  0  0  0  0  0  0  0  0  0
  140.6450   71.5930  226.8960 C   0  0  0  0  0  0  0  0  0  0  0  0
  140.0980   70.6820  226.0160 C   0  0  0  0  0  0  0  0  0  0  0  0
  139.5760   71.1250  224.8390 N   0  0  0  0  0  0  0  0  0  0  0  0
  138.8130   72.7040  223.0740 H   0  0  0  0  0  0  0  0  0  0  0  0
  138.5923   72.1512  220.3255 H   0  0  0  0  0  0  0  0  0  0  0  0
  136.9132   71.8182  221.0676 H   0  0  0  0  0  0  0  0  0  0  0  0
  135.6086   75.1930  222.5494 H   0  0  0  0  0  0  0  0  0  0  0  0
  136.8892   74.7533  223.6767 H   0  0  0  0  0  0  0  0  0  0  0  0
  136.8884   77.1685  223.9867 H   0  0  0  0  0  0  0  0  0  0  0  0
  138.5849   77.9342  222.0612 H   0  0  0  0  0  0  0  0  0  0  0  0
  139.1248   76.7575  223.2748 H   0  0  0  0  0  0  0  0  0  0  0  0
  138.5140   76.3828  220.3937 H   0  0  0  0  0  0  0  0  0  0  0  0
  140.9543   76.0440  218.5704 H   0  0  0  0  0  0  0  0  0  0  0  0
  140.0371   77.1378  219.6031 H   0  0  0  0  0  0  0  0  0  0  0  0
  142.1759   78.2848  219.2189 H   0  0  0  0  0  0  0  0  0  0  0  0
  142.3645   77.6159  220.8374 H   0  0  0  0  0  0  0  0  0  0  0  0
  143.4313   76.5887  218.1678 H   0  0  0  0  0  0  0  0  0  0  0  0
  144.2800   76.7424  219.7612 H   0  0  0  0  0  0  0  0  0  0  0  0
  142.5792   74.5547  218.6781 H   0  0  0  0  0  0  0  0  0  0  0  0
  144.0586   74.5259  219.7451 H   0  0  0  0  0  0  0  0  0  0  0  0
  142.0017   73.7105  220.8942 H   0  0  0  0  0  0  0  0  0  0  0  0
  142.7429   75.1424  221.6748 H   0  0  0  0  0  0  0  0  0  0  0  0
  138.5533   68.1959  223.5098 H   0  0  0  0  0  0  0  0  0  0  0  0
  139.5080   67.3499  225.6746 H   0  0  0  0  0  0  0  0  0  0  0  0
  140.5716   67.7570  227.7362 H   0  0  0  0  0  0  0  0  0  0  0  0
  141.5699   69.4088  229.3458 H   0  0  0  0  0  0  0  0  0  0  0  0
  141.6092   71.8074  228.8069 H   0  0  0  0  0  0  0  0  0  0  0  0
  140.6671   72.6679  226.6633 H   0  0  0  0  0  0  0  0  0  0  0  0
  1  2  2  0
  2  3  1  0
  3  4  1  0
  4  5  1  0
  5  6  2  0
  5  7  1  0
  7  8  1  0
  8  9  1  0
  9 10  1  0
  9 11  1  0
 11 12  1  0
 12 13  1  0
 13 14  2  0
 13 15  1  0
 15 16  1  0
 16 17  1  0
 17 18  1  0
 18 19  1  0
 19 20  1  0
  2 21  1  0
 21 22  2  0
 22 23  1  0
 23 24  2  0
 24 25  1  0
 25 26  2  0
 26 27  1  0
 27 28  2  0
 28 29  1  0
 29 30  2  0
 12  7  1  0
 20 15  1  0
 30 21  1  0
 29 24  1  0
  3 31  1  0
  4 32  1  0
  4 33  1  0
  8 34  1  0
  8 35  1  0
  9 36  1  1
 11 37  1  0
 11 38  1  0
 12 39  1  6
 16 40  1  0
 16 41  1  0
 17 42  1  0
 17 43  1  0
 18 44  1  0
 18 45  1  0
 19 46  1  0
 19 47  1  0
 20 48  1  0
 20 49  1  0
 22 50  1  0
 23 51  1  0
 25 52  1  0
 26 53  1  0
 27 54  1  0
 28 55  1  0
M  END
>  <smiles>  (14) 
O=C(NCC(=O)N1C[C@H](F)C[C@H]1C(=O)N1CCCCC1)c1ccc2ccccc2n1

>  <score_type>  (14) 
oracle

>  <origin>  (14) 
autodockgpu

>  <m_score__min__energy>  (14) 
-8.8300000000000001

>  <m_primary>  (14) 
energy

>  <rmsd>  (14) 
3.9093247457367393

>  <m_score__min__rmsd>  (14) 
3.9093247457367393

>  <meeko>  (14) 
{"free_energy": -7.54, "intermolecular_energy": -9.03, "internal_energy": -2.41, "cluster_size": 16, "cluster_id": 2, "rank_in_cluster": 16}

>  <energy>  (14) 
-8.22

>  <cluster_rmsd>  (14) 
0.1

>  <cluster>  (14) 
2

$$$$

     RDKit          3D

 55 58  0  0  0  0  0  0  0  0999 V2000
  138.9510   70.1810  221.4080 O   0  0  0  0  0  0  0  0  0  0  0  0
  139.0650   71.0030  222.3580 C   0  0  0  0  0  0  0  0  0  0  0  0
  138.7830   72.4060  222.0480 N   0  0  0  0  0  0  0  0  0  0  0  0
  138.4130   72.6680  220.7100 C   0  0  0  0  0  0  0  0  0  0  0  0
  139.4530   72.7160  219.7050 C   0  0  0  0  0  0  0  0  0  0  0  0
  138.9910   72.8410  218.4850 O   0  0  0  0  0  0  0  0  0  0  0  0
  140.8760   72.6490  219.8270 N   0  0  0  0  0  0  0  0  0  0  0  0
  141.8720   72.2390  218.8760 C   0  0  0  0  0  0  0  0  0  0  0  0
  143.1170   72.0210  219.7000 C   0  0  2  0  0  0  0  0  0  0  0  0
  143.1730   70.7240  220.1040 F   0  0  0  0  0  0  0  0  0  0  0  0
  142.9500   72.9860  220.8460 C   0  0  0  0  0  0  0  0  0  0  0  0
  141.4940   73.0890  221.1000 C   0  0  1  0  0  0  0  0  0  0  0  0
  141.0660   74.4920  221.3850 C   0  0  0  0  0  0  0  0  0  0  0  0
  140.2530   74.6370  222.3440 O   0  0  0  0  0  0  0  0  0  0  0  0
  141.5210   75.6120  220.6510 N   0  0  0  0  0  0  0  0  0  0  0  0
  142.4600   75.5440  219.5500 C   0  0  0  0  0  0  0  0  0  0  0  0
  141.8090   76.3720  218.4350 C   0  0  0  0  0  0  0  0  0  0  0  0
  142.0200   77.8250  218.8630 C   0  0  0  0  0  0  0  0  0  0  0  0
  141.9140   77.9820  220.3550 C   0  0  0  0  0  0  0  0  0  0  0  0
  141.0250   76.9320  221.0050 C   0  0  0  0  0  0  0  0  0  0  0  0
  139.4590   70.6130  223.7060 C   0  0  0  0  0  0  0  0  0  0  0  0
  139.2250   69.3030  224.0690 C   0  0  0  0  0  0  0  0  0  0  0  0
  139.5820   68.8720  225.3510 C   0  0  0  0  0  0  0  0  0  0  0  0
  140.1670   69.7830  226.2330 C   0  0  0  0  0  0  0  0  0  0  0  0
  140.5040   69.3190  227.4840 C   0  0  0  0  0  0  0  0  0  0  0  0
  141.0840   70.2390  228.3490 C   0  0  0  0  0  0  0  0  0  0  0  0
  141.3030   71.5440  227.9530 C   0  0  0  0  0  0  0  0  0  0  0  0
  140.9560   71.9940  226.6850 C   0  0  0  0  0  0  0  0  0  0  0  0
  140.3790   71.0850  225.8210 C   0  0  0  0  0  0  0  0  0  0  0  0
  140.0260   71.4890  224.5700 N   0  0  0  0  0  0  0  0  0  0  0  0
  138.9020   73.0270  222.8520 H   0  0  0  0  0  0  0  0  0  0  0  0
  137.7054   71.8817  220.4084 H   0  0  0  0  0  0  0  0  0  0  0  0
  138.0143   73.6929  220.7356 H   0  0  0  0  0  0  0  0  0  0  0  0
  141.5701   71.3077  218.3744 H   0  0  0  0  0  0  0  0  0  0  0  0
  142.0225   72.9847  218.0815 H   0  0  0  0  0  0  0  0  0  0  0  0
  144.0595   72.1993  219.1615 H   0  0  0  0  0  0  0  0  0  0  0  0
  143.4660   72.6068  221.7404 H   0  0  0  0  0  0  0  0  0  0  0  0
  143.3824   73.9684  220.6052 H   0  0  0  0  0  0  0  0  0  0  0  0
  141.2025   72.4915  221.9764 H   0  0  0  0  0  0  0  0  0  0  0  0
  143.4294   75.9760  219.8391 H   0  0  0  0  0  0  0  0  0  0  0  0
  142.6622   74.5089  219.2373 H   0  0  0  0  0  0  0  0  0  0  0  0
  142.2982   76.1763  217.4694 H   0  0  0  0  0  0  0  0  0  0  0  0
  140.7454   76.1266  218.2988 H   0  0  0  0  0  0  0  0  0  0  0  0
  143.0195   78.1512  218.5396 H   0  0  0  0  0  0  0  0  0  0  0  0
  141.2366   78.4394  218.3952 H   0  0  0  0  0  0  0  0  0  0  0  0
  142.9223   77.9032  220.7876 H   0  0  0  0  0  0  0  0  0  0  0  0
  141.4574   78.9637  220.5494 H   0  0  0  0  0  0  0  0  0  0  0  0
  141.0474   77.0542  222.0980 H   0  0  0  0  0  0  0  0  0  0  0  0
  139.9899   77.0488  220.6516 H   0  0  0  0  0  0  0  0  0  0  0  0
  138.7620   68.6038  223.3571 H   0  0  0  0  0  0  0  0  0  0  0  0
  139.4046   67.8312  225.6597 H   0  0  0  0  0  0  0  0  0  0  0  0
  140.3239   68.2759  227.7831 H   0  0  0  0  0  0  0  0  0  0  0  0
  141.3726   69.9238  229.3626 H   0  0  0  0  0  0  0  0  0  0  0  0
  141.7652   72.2470  228.6616 H   0  0  0  0  0  0  0  0  0  0  0  0
  141.1344   73.0360  226.3809 H   0  0  0  0  0  0  0  0  0  0  0  0
  1  2  2  0
  2  3  1  0
  3  4  1  0
  4  5  1  0
  5  6  2  0
  5  7  1  0
  7  8  1  0
  8  9  1  0
  9 10  1  0
  9 11  1  0
 11 12  1  0
 12 13  1  0
 13 14  2  0
 13 15  1  0
 15 16  1  0
 16 17  1  0
 17 18  1  0
 18 19  1  0
 19 20  1  0
  2 21  1  0
 21 22  2  0
 22 23  1  0
 23 24  2  0
 24 25  1  0
 25 26  2  0
 26 27  1  0
 27 28  2  0
 28 29  1  0
 29 30  2  0
 12  7  1  0
 20 15  1  0
 30 21  1  0
 29 24  1  0
  3 31  1  0
  4 32  1  0
  4 33  1  0
  8 34  1  0
  8 35  1  0
  9 36  1  6
 11 37  1  0
 11 38  1  0
 12 39  1  1
 16 40  1  0
 16 41  1  0
 17 42  1  0
 17 43  1  0
 18 44  1  0
 18 45  1  0
 19 46  1  0
 19 47  1  0
 20 48  1  0
 20 49  1  0
 22 50  1  0
 23 51  1  0
 25 52  1  0
 26 53  1  0
 27 54  1  0
 28 55  1  0
M  END
>  <smiles>  (15) 
O=C(NCC(=O)N1C[C@H](F)C[C@H]1C(=O)N1CCCCC1)c1ccc2ccccc2n1

>  <score_type>  (15) 
oracle

>  <origin>  (15) 
autodockgpu

>  <m_score__min__energy>  (15) 
-8.8300000000000001

>  <m_primary>  (15) 
energy

>  <rmsd>  (15) 
3.399835260239621

>  <m_score__min__rmsd>  (15) 
3.399835260239621

>  <meeko>  (15) 
{"free_energy": -7.19, "intermolecular_energy": -8.68, "internal_energy": -2.56, "cluster_size": 9, "cluster_id": 1, "rank_in_cluster": 9}

>  <energy>  (15) 
-8.21

>  <cluster_rmsd>  (15) 
0.09

>  <cluster>  (15) 
2

$$$$

     RDKit          3D

 55 58  0  0  0  0  0  0  0  0999 V2000
  141.1740   72.4980  221.7210 O   0  0  0  0  0  0  0  0  0  0  0  0
  140.2180   72.4980  222.5430 C   0  0  0  0  0  0  0  0  0  0  0  0
  139.1680   73.4960  222.3280 N   0  0  0  0  0  0  0  0  0  0  0  0
  139.3580   74.3440  221.2130 C   0  0  0  0  0  0  0  0  0  0  0  0
  140.4930   75.2430  221.2190 C   0  0  0  0  0  0  0  0  0  0  0  0
  140.6750   75.8400  222.3710 O   0  0  0  0  0  0  0  0  0  0  0  0
  141.4270   75.5780  220.1900 N   0  0  0  0  0  0  0  0  0  0  0  0
  141.7920   74.8650  218.9970 C   0  0  0  0  0  0  0  0  0  0  0  0
  143.0710   75.5200  218.5400 C   0  0  2  0  0  0  0  0  0  0  0  0
  144.1340   74.8680  219.0830 F   0  0  0  0  0  0  0  0  0  0  0  0
  142.9350   76.9370  219.0360 C   0  0  0  0  0  0  0  0  0  0  0  0
  142.1470   76.8690  220.2890 C   0  0  1  0  0  0  0  0  0  0  0  0
  141.1470   77.9750  220.3900 C   0  0  0  0  0  0  0  0  0  0  0  0
  140.3750   78.1130  219.3980 O   0  0  0  0  0  0  0  0  0  0  0  0
  141.0410   78.8320  221.5100 N   0  0  0  0  0  0  0  0  0  0  0  0
  141.8700   78.7410  222.6940 C   0  0  0  0  0  0  0  0  0  0  0  0
  142.3580   80.1750  222.9370 C   0  0  0  0  0  0  0  0  0  0  0  0
  141.1470   80.8970  223.5270 C   0  0  0  0  0  0  0  0  0  0  0  0
  139.8620   80.4170  222.9100 C   0  0  0  0  0  0  0  0  0  0  0  0
  140.0410   79.8870  221.4940 C   0  0  0  0  0  0  0  0  0  0  0  0
  140.1290   71.5690  223.6630 C   0  0  0  0  0  0  0  0  0  0  0  0
  139.5250   70.3530  223.4180 C   0  0  0  0  0  0  0  0  0  0  0  0
  139.4120   69.4220  224.4550 C   0  0  0  0  0  0  0  0  0  0  0  0
  139.9150   69.7490  225.7160 C   0  0  0  0  0  0  0  0  0  0  0  0
  139.7840   68.8050  226.7090 C   0  0  0  0  0  0  0  0  0  0  0  0
  140.2900   69.1470  227.9580 C   0  0  0  0  0  0  0  0  0  0  0  0
  140.8880   70.3740  228.1690 C   0  0  0  0  0  0  0  0  0  0  0  0
  141.0110   71.3140  227.1530 C   0  0  0  0  0  0  0  0  0  0  0  0
  140.5110   70.9810  225.9110 C   0  0  0  0  0  0  0  0  0  0  0  0
  140.6130   71.8770  224.8910 N   0  0  0  0  0  0  0  0  0  0  0  0
  138.4250   73.4570  223.0300 H   0  0  0  0  0  0  0  0  0  0  0  0
  139.4579   73.6995  220.3272 H   0  0  0  0  0  0  0  0  0  0  0  0
  138.4836   75.0112  221.2277 H   0  0  0  0  0  0  0  0  0  0  0  0
  141.9578   73.7999  219.2163 H   0  0  0  0  0  0  0  0  0  0  0  0
  141.0051   74.9048  218.2295 H   0  0  0  0  0  0  0  0  0  0  0  0
  143.2364   75.4923  217.4528 H   0  0  0  0  0  0  0  0  0  0  0  0
  143.9277   77.3675  219.2340 H   0  0  0  0  0  0  0  0  0  0  0  0
  142.4405   77.5749  218.2886 H   0  0  0  0  0  0  0  0  0  0  0  0
  142.7979   76.9582  221.1712 H   0  0  0  0  0  0  0  0  0  0  0  0
  141.2835   78.3800  223.5517 H   0  0  0  0  0  0  0  0  0  0  0  0
  142.7025   78.0334  222.5665 H   0  0  0  0  0  0  0  0  0  0  0  0
  143.1994   80.1845  223.6455 H   0  0  0  0  0  0  0  0  0  0  0  0
  142.7229   80.6541  222.0165 H   0  0  0  0  0  0  0  0  0  0  0  0
  141.1138   80.7116  224.6107 H   0  0  0  0  0  0  0  0  0  0  0  0
  141.2501   81.9715  223.3155 H   0  0  0  0  0  0  0  0  0  0  0  0
  139.4525   79.6108  223.5364 H   0  0  0  0  0  0  0  0  0  0  0  0
  139.1825   81.2802  222.8538 H   0  0  0  0  0  0  0  0  0  0  0  0
  139.0854   79.4847  221.1266 H   0  0  0  0  0  0  0  0  0  0  0  0
  140.3676   80.7006  220.8296 H   0  0  0  0  0  0  0  0  0  0  0  0
  139.1360   70.1182  222.4162 H   0  0  0  0  0  0  0  0  0  0  0  0
  138.9341   68.4468  224.2802 H   0  0  0  0  0  0  0  0  0  0  0  0
  139.3047   67.8323  226.5244 H   0  0  0  0  0  0  0  0  0  0  0  0
  140.2130   68.4308  228.7893 H   0  0  0  0  0  0  0  0  0  0  0  0
  141.2778   70.6138  229.1693 H   0  0  0  0  0  0  0  0  0  0  0  0
  141.4896   72.2881  227.3324 H   0  0  0  0  0  0  0  0  0  0  0  0
  1  2  2  0
  2  3  1  0
  3  4  1  0
  4  5  1  0
  5  6  2  0
  5  7  1  0
  7  8  1  0
  8  9  1  0
  9 10  1  0
  9 11  1  0
 11 12  1  0
 12 13  1  0
 13 14  2  0
 13 15  1  0
 15 16  1  0
 16 17  1  0
 17 18  1  0
 18 19  1  0
 19 20  1  0
  2 21  1  0
 21 22  2  0
 22 23  1  0
 23 24  2  0
 24 25  1  0
 25 26  2  0
 26 27  1  0
 27 28  2  0
 28 29  1  0
 29 30  2  0
 12  7  1  0
 20 15  1  0
 30 21  1  0
 29 24  1  0
  3 31  1  0
  4 32  1  0
  4 33  1  0
  8 34  1  0
  8 35  1  0
  9 36  1  6
 11 37  1  0
 11 38  1  0
 12 39  1  1
 16 40  1  0
 16 41  1  0
 17 42  1  0
 17 43  1  0
 18 44  1  0
 18 45  1  0
 19 46  1  0
 19 47  1  0
 20 48  1  0
 20 49  1  0
 22 50  1  0
 23 51  1  0
 25 52  1  0
 26 53  1  0
 27 54  1  0
 28 55  1  0
M  END
>  <smiles>  (16) 
O=C(NCC(=O)N1C[C@H](F)C[C@H]1C(=O)N1CCCCC1)c1ccc2ccccc2n1

>  <score_type>  (16) 
oracle

>  <origin>  (16) 
autodockgpu

>  <m_score__min__energy>  (16) 
-8.8300000000000001

>  <m_primary>  (16) 
energy

>  <rmsd>  (16) 
2.0860976494838313

>  <m_score__min__rmsd>  (16) 
2.0860976494838313

>  <meeko>  (16) 
{"free_energy": -8.55, "intermolecular_energy": -10.05, "internal_energy": -1.49, "cluster_size": 9, "cluster_id": 1, "rank_in_cluster": 4}

>  <energy>  (16) 
-8.17

>  <cluster_rmsd>  (16) 
0.15

>  <cluster>  (16) 
2

$$$$

     RDKit          3D

 55 58  0  0  0  0  0  0  0  0999 V2000
  139.5360   71.0740  221.2840 O   0  0  0  0  0  0  0  0  0  0  0  0
  139.6470   71.7630  222.3340 C   0  0  0  0  0  0  0  0  0  0  0  0
  139.5810   73.2170  222.1750 N   0  0  0  0  0  0  0  0  0  0  0  0
  139.3980   73.6730  220.8490 C   0  0  0  0  0  0  0  0  0  0  0  0
  138.5510   74.8260  220.6300 C   0  0  0  0  0  0  0  0  0  0  0  0
  138.6040   75.2820  219.4020 O   0  0  0  0  0  0  0  0  0  0  0  0
  137.6850   75.5340  221.5190 N   0  0  0  0  0  0  0  0  0  0  0  0
  136.5010   75.0980  222.2080 C   0  0  0  0  0  0  0  0  0  0  0  0
  135.8360   76.3720  222.6650 C   0  0  2  0  0  0  0  0  0  0  0  0
  134.9570   76.7910  221.7170 F   0  0  0  0  0  0  0  0  0  0  0  0
  136.9920   77.3210  222.8540 C   0  0  0  0  0  0  0  0  0  0  0  0
  138.0170   76.9390  221.8540 C   0  0  1  0  0  0  0  0  0  0  0  0
  139.4020   76.9880  222.4130 C   0  0  0  0  0  0  0  0  0  0  0  0
  139.9160   75.8720  222.7120 O   0  0  0  0  0  0  0  0  0  0  0  0
  140.1220   78.1890  222.6100 N   0  0  0  0  0  0  0  0  0  0  0  0
  139.6210   79.5080  222.2860 C   0  0  0  0  0  0  0  0  0  0  0  0
  139.8940   80.3460  223.5420 C   0  0  0  0  0  0  0  0  0  0  0  0
  141.3960   80.6240  223.4980 C   0  0  0  0  0  0  0  0  0  0  0  0
  142.1600   79.4510  222.9480 C   0  0  0  0  0  0  0  0  0  0  0  0
  141.4580   78.1200  223.1790 C   0  0  0  0  0  0  0  0  0  0  0  0
  139.8360   71.1780  223.6560 C   0  0  0  0  0  0  0  0  0  0  0  0
  139.4720   69.8560  223.8100 C   0  0  0  0  0  0  0  0  0  0  0  0
  139.6310   69.2400  225.0550 C   0  0  0  0  0  0  0  0  0  0  0  0
  140.1540   69.9840  226.1150 C   0  0  0  0  0  0  0  0  0  0  0  0
  140.2940   69.3410  227.3240 C   0  0  0  0  0  0  0  0  0  0  0  0
  140.8170   70.0960  228.3680 C   0  0  0  0  0  0  0  0  0  0  0  0
  141.1700   71.4180  228.1800 C   0  0  0  0  0  0  0  0  0  0  0  0
  141.0220   72.0490  226.9510 C   0  0  0  0  0  0  0  0  0  0  0  0
  140.5030   71.3060  225.9100 C   0  0  0  0  0  0  0  0  0  0  0  0
  140.3420   71.8900  224.6910 N   0  0  0  0  0  0  0  0  0  0  0  0
  139.6880   73.7240  223.0570 H   0  0  0  0  0  0  0  0  0  0  0  0
  140.3928   73.9192  220.4492 H   0  0  0  0  0  0  0  0  0  0  0  0
  138.8682   72.8485  220.3494 H   0  0  0  0  0  0  0  0  0  0  0  0
  135.8412   74.5373  221.5296 H   0  0  0  0  0  0  0  0  0  0  0  0
  136.7305   74.4234  223.0460 H   0  0  0  0  0  0  0  0  0  0  0  0
  135.2448   76.2740  223.5874 H   0  0  0  0  0  0  0  0  0  0  0  0
  136.6644   78.3575  222.6856 H   0  0  0  0  0  0  0  0  0  0  0  0
  137.3923   77.2620  223.8769 H   0  0  0  0  0  0  0  0  0  0  0  0
  138.0053   77.6257  220.9947 H   0  0  0  0  0  0  0  0  0  0  0  0
  140.1546   79.9236  221.4185 H   0  0  0  0  0  0  0  0  0  0  0  0
  138.5543   79.4944  222.0177 H   0  0  0  0  0  0  0  0  0  0  0  0
  139.3236   81.2862  223.5136 H   0  0  0  0  0  0  0  0  0  0  0  0
  139.5915   79.8281  224.4641 H   0  0  0  0  0  0  0  0  0  0  0  0
  141.5783   81.5003  222.8586 H   0  0  0  0  0  0  0  0  0  0  0  0
  141.7421   80.8089  224.5257 H   0  0  0  0  0  0  0  0  0  0  0  0
  142.2905   79.5947  221.8653 H   0  0  0  0  0  0  0  0  0  0  0  0
  143.1236   79.4099  223.4770 H   0  0  0  0  0  0  0  0  0  0  0  0
  142.0258   77.3134  222.6922 H   0  0  0  0  0  0  0  0  0  0  0  0
  141.3942   77.9138  224.2576 H   0  0  0  0  0  0  0  0  0  0  0  0
  139.0602   69.2915  222.9604 H   0  0  0  0  0  0  0  0  0  0  0  0
  139.3487   68.1864  225.1974 H   0  0  0  0  0  0  0  0  0  0  0  0
  140.0077   68.2873  227.4570 H   0  0  0  0  0  0  0  0  0  0  0  0
  140.9514   69.6341  229.3572 H   0  0  0  0  0  0  0  0  0  0  0  0
  141.5799   71.9874  229.0272 H   0  0  0  0  0  0  0  0  0  0  0  0
  141.3080   73.1021  226.8127 H   0  0  0  0  0  0  0  0  0  0  0  0
  1  2  2  0
  2  3  1  0
  3  4  1  0
  4  5  1  0
  5  6  2  0
  5  7  1  0
  7  8  1  0
  8  9  1  0
  9 10  1  0
  9 11  1  0
 11 12  1  0
 12 13  1  0
 13 14  2  0
 13 15  1  0
 15 16  1  0
 16 17  1  0
 17 18  1  0
 18 19  1  0
 19 20  1  0
  2 21  1  0
 21 22  2  0
 22 23  1  0
 23 24  2  0
 24 25  1  0
 25 26  2  0
 26 27  1  0
 27 28  2  0
 28 29  1  0
 29 30  2  0
 12  7  1  0
 20 15  1  0
 30 21  1  0
 29 24  1  0
  3 31  1  0
  4 32  1  0
  4 33  1  0
  8 34  1  0
  8 35  1  0
  9 36  1  1
 11 37  1  0
 11 38  1  0
 12 39  1  6
 16 40  1  0
 16 41  1  0
 17 42  1  0
 17 43  1  0
 18 44  1  0
 18 45  1  0
 19 46  1  0
 19 47  1  0
 20 48  1  0
 20 49  1  0
 22 50  1  0
 23 51  1  0
 25 52  1  0
 26 53  1  0
 27 54  1  0
 28 55  1  0
M  END
>  <smiles>  (17) 
O=C(NCC(=O)N1C[C@H](F)C[C@H]1C(=O)N1CCCCC1)c1ccc2ccccc2n1

>  <score_type>  (17) 
oracle

>  <origin>  (17) 
autodockgpu

>  <m_score__min__energy>  (17) 
-8.8300000000000001

>  <m_primary>  (17) 
energy

>  <rmsd>  (17) 
3.2894262593281627

>  <m_score__min__rmsd>  (17) 
3.2894262593281627

>  <meeko>  (17) 
{"free_energy": -8.16, "intermolecular_energy": -9.65, "internal_energy": -2.15, "cluster_size": 16, "cluster_id": 2, "rank_in_cluster": 8}

>  <energy>  (17) 
-8.16

>  <cluster_rmsd>  (17) 
0.12

>  <cluster>  (17) 
2

$$$$

     RDKit          3D

 55 58  0  0  0  0  0  0  0  0999 V2000
  141.1760   71.9680  221.5870 O   0  0  0  0  0  0  0  0  0  0  0  0
  140.3630   72.2520  222.5080 C   0  0  0  0  0  0  0  0  0  0  0  0
  139.5460   73.4520  222.3140 N   0  0  0  0  0  0  0  0  0  0  0  0
  139.7730   74.1510  221.1070 C   0  0  0  0  0  0  0  0  0  0  0  0
  140.7360   75.2320  221.1090 C   0  0  0  0  0  0  0  0  0  0  0  0
  141.0020   75.6870  222.3090 O   0  0  0  0  0  0  0  0  0  0  0  0
  141.4300   75.8700  220.0350 N   0  0  0  0  0  0  0  0  0  0  0  0
  141.6470   75.4390  218.6810 C   0  0  0  0  0  0  0  0  0  0  0  0
  142.7480   76.3330  218.1690 C   0  0  2  0  0  0  0  0  0  0  0  0
  143.9530   75.7470  218.3980 F   0  0  0  0  0  0  0  0  0  0  0  0
  142.5560   77.6070  218.9530 C   0  0  0  0  0  0  0  0  0  0  0  0
  142.0180   77.2090  220.2750 C   0  0  1  0  0  0  0  0  0  0  0  0
  140.9420   78.1310  220.7500 C   0  0  0  0  0  0  0  0  0  0  0  0
  139.8660   78.1130  220.0850 O   0  0  0  0  0  0  0  0  0  0  0  0
  141.0830   78.9840  221.8690 N   0  0  0  0  0  0  0  0  0  0  0  0
  142.2680   79.0620  222.6970 C   0  0  0  0  0  0  0  0  0  0  0  0
  142.5630   80.5630  222.8110 C   0  0  0  0  0  0  0  0  0  0  0  0
  141.5230   81.0840  223.8030 C   0  0  0  0  0  0  0  0  0  0  0  0
  140.2040   80.3790  223.6420 C   0  0  0  0  0  0  0  0  0  0  0  0
  139.9750   79.8540  222.2320 C   0  0  0  0  0  0  0  0  0  0  0  0
  140.2150   71.4510  223.7170 C   0  0  0  0  0  0  0  0  0  0  0  0
  139.5760   70.2360  223.5850 C   0  0  0  0  0  0  0  0  0  0  0  0
  139.4070   69.4240  224.7110 C   0  0  0  0  0  0  0  0  0  0  0  0
  139.8900   69.8680  225.9440 C   0  0  0  0  0  0  0  0  0  0  0  0
  139.7030   69.0390  227.0270 C   0  0  0  0  0  0  0  0  0  0  0  0
  140.1910   69.4960  228.2460 C   0  0  0  0  0  0  0  0  0  0  0  0
  140.8250   70.7190  228.3430 C   0  0  0  0  0  0  0  0  0  0  0  0
  141.0050   71.5420  227.2370 C   0  0  0  0  0  0  0  0  0  0  0  0
  140.5230   71.0940  226.0240 C   0  0  0  0  0  0  0  0  0  0  0  0
  140.6800   71.8720  224.9180 N   0  0  0  0  0  0  0  0  0  0  0  0
  138.9130   73.6380  223.0960 H   0  0  0  0  0  0  0  0  0  0  0  0
  140.1119   73.4147  220.3634 H   0  0  0  0  0  0  0  0  0  0  0  0
  138.8128   74.6441  220.8949 H   0  0  0  0  0  0  0  0  0  0  0  0
  141.9591   74.3845  218.6544 H   0  0  0  0  0  0  0  0  0  0  0  0
  140.7350   75.5086  218.0699 H   0  0  0  0  0  0  0  0  0  0  0  0
  142.7175   76.5219  217.0858 H   0  0  0  0  0  0  0  0  0  0  0  0
  143.5176   78.1271  219.0747 H   0  0  0  0  0  0  0  0  0  0  0  0
  141.8711   78.2942  218.4347 H   0  0  0  0  0  0  0  0  0  0  0  0
  142.8047   77.2278  221.0436 H   0  0  0  0  0  0  0  0  0  0  0  0
  142.0775   78.6273  223.6894 H   0  0  0  0  0  0  0  0  0  0  0  0
  143.1130   78.5023  222.2694 H   0  0  0  0  0  0  0  0  0  0  0  0
  143.5814   80.7312  223.1913 H   0  0  0  0  0  0  0  0  0  0  0  0
  142.5068   81.0750  221.8391 H   0  0  0  0  0  0  0  0  0  0  0  0
  141.8924   80.9213  224.8262 H   0  0  0  0  0  0  0  0  0  0  0  0
  141.3671   82.1553  223.6079 H   0  0  0  0  0  0  0  0  0  0  0  0
  140.1734   79.5300  224.3408 H   0  0  0  0  0  0  0  0  0  0  0  0
  139.4122   81.1135  223.8508 H   0  0  0  0  0  0  0  0  0  0  0  0
  139.0331   79.2869  222.1973 H   0  0  0  0  0  0  0  0  0  0  0  0
  139.9139   80.6951  221.5258 H   0  0  0  0  0  0  0  0  0  0  0  0
  139.2028   69.9087  222.6034 H   0  0  0  0  0  0  0  0  0  0  0  0
  138.9015   68.4507  224.6269 H   0  0  0  0  0  0  0  0  0  0  0  0
  139.1951   68.0678  226.9330 H   0  0  0  0  0  0  0  0  0  0  0  0
  140.0704   68.8748  229.1457 H   0  0  0  0  0  0  0  0  0  0  0  0
  141.1981   71.0514  229.3230 H   0  0  0  0  0  0  0  0  0  0  0  0
  141.5126   72.5138  227.3255 H   0  0  0  0  0  0  0  0  0  0  0  0
  1  2  2  0
  2  3  1  0
  3  4  1  0
  4  5  1  0
  5  6  2  0
  5  7  1  0
  7  8  1  0
  8  9  1  0
  9 10  1  0
  9 11  1  0
 11 12  1  0
 12 13  1  0
 13 14  2  0
 13 15  1  0
 15 16  1  0
 16 17  1  0
 17 18  1  0
 18 19  1  0
 19 20  1  0
  2 21  1  0
 21 22  2  0
 22 23  1  0
 23 24  2  0
 24 25  1  0
 25 26  2  0
 26 27  1  0
 27 28  2  0
 28 29  1  0
 29 30  2  0
 12  7  1  0
 20 15  1  0
 30 21  1  0
 29 24  1  0
  3 31  1  0
  4 32  1  0
  4 33  1  0
  8 34  1  0
  8 35  1  0
  9 36  1  6
 11 37  1  0
 11 38  1  0
 12 39  1  1
 16 40  1  0
 16 41  1  0
 17 42  1  0
 17 43  1  0
 18 44  1  0
 18 45  1  0
 19 46  1  0
 19 47  1  0
 20 48  1  0
 20 49  1  0
 22 50  1  0
 23 51  1  0
 25 52  1  0
 26 53  1  0
 27 54  1  0
 28 55  1  0
M  END
>  <smiles>  (18) 
O=C(NCC(=O)N1C[C@H](F)C[C@H]1C(=O)N1CCCCC1)c1ccc2ccccc2n1

>  <score_type>  (18) 
oracle

>  <origin>  (18) 
autodockgpu

>  <m_score__min__energy>  (18) 
-8.8300000000000001

>  <m_primary>  (18) 
energy

>  <rmsd>  (18) 
2.1336960885227128

>  <m_score__min__rmsd>  (18) 
2.1336960885227128

>  <meeko>  (18) 
{"free_energy": -8.8, "intermolecular_energy": -10.29, "internal_energy": -1.46, "cluster_size": 9, "cluster_id": 1, "rank_in_cluster": 2}

>  <energy>  (18) 
-8.15

>  <cluster_rmsd>  (18) 
0.12

>  <cluster>  (18) 
2

$$$$

     RDKit          3D

 55 58  0  0  0  0  0  0  0  0999 V2000
  139.5440   71.2330  221.2820 O   0  0  0  0  0  0  0  0  0  0  0  0
  139.6440   71.8620  222.3700 C   0  0  0  0  0  0  0  0  0  0  0  0
  139.5840   73.3230  222.2910 N   0  0  0  0  0  0  0  0  0  0  0  0
  139.4190   73.8530  220.9910 C   0  0  0  0  0  0  0  0  0  0  0  0
  138.3260   74.7720  220.7570 C   0  0  0  0  0  0  0  0  0  0  0  0
  138.0530   74.9400  219.4860 O   0  0  0  0  0  0  0  0  0  0  0  0
  137.5130   75.5120  221.6710 N   0  0  0  0  0  0  0  0  0  0  0  0
  136.3700   75.1040  222.4390 C   0  0  0  0  0  0  0  0  0  0  0  0
  135.7360   76.3950  222.8920 C   0  0  2  0  0  0  0  0  0  0  0  0
  134.8050   76.7880  221.9820 F   0  0  0  0  0  0  0  0  0  0  0  0
  136.9030   77.3440  222.9850 C   0  0  0  0  0  0  0  0  0  0  0  0
  137.8690   76.9250  221.9410 C   0  0  1  0  0  0  0  0  0  0  0  0
  139.2830   76.9850  222.4200 C   0  0  0  0  0  0  0  0  0  0  0  0
  139.8080   75.8770  222.7310 O   0  0  0  0  0  0  0  0  0  0  0  0
  140.0190   78.1870  222.5310 N   0  0  0  0  0  0  0  0  0  0  0  0
  139.5070   79.4970  222.1860 C   0  0  0  0  0  0  0  0  0  0  0  0
  139.8550   80.3790  223.3920 C   0  0  0  0  0  0  0  0  0  0  0  0
  141.3540   80.6450  223.2540 C   0  0  0  0  0  0  0  0  0  0  0  0
  142.0790   79.4470  222.7060 C   0  0  0  0  0  0  0  0  0  0  0  0
  141.3850   78.1300  223.0260 C   0  0  0  0  0  0  0  0  0  0  0  0
  139.8140   71.2030  223.6600 C   0  0  0  0  0  0  0  0  0  0  0  0
  139.4690   69.8690  223.7270 C   0  0  0  0  0  0  0  0  0  0  0  0
  139.6120   69.1840  224.9380 C   0  0  0  0  0  0  0  0  0  0  0  0
  140.1000   69.8720  226.0510 C   0  0  0  0  0  0  0  0  0  0  0  0
  140.2250   69.1620  227.2230 C   0  0  0  0  0  0  0  0  0  0  0  0
  140.7130   69.8620  228.3210 C   0  0  0  0  0  0  0  0  0  0  0  0
  141.0480   71.1980  228.2180 C   0  0  0  0  0  0  0  0  0  0  0  0
  140.9150   71.8980  227.0250 C   0  0  0  0  0  0  0  0  0  0  0  0
  140.4310   71.2090  225.9320 C   0  0  0  0  0  0  0  0  0  0  0  0
  140.2870   71.8610  224.7450 N   0  0  0  0  0  0  0  0  0  0  0  0
  139.6820   73.7800  223.2020 H   0  0  0  0  0  0  0  0  0  0  0  0
  140.3490   74.3815  220.7346 H   0  0  0  0  0  0  0  0  0  0  0  0
  139.1746   72.9780  220.3708 H   0  0  0  0  0  0  0  0  0  0  0  0
  135.6710   74.5252  221.8174 H   0  0  0  0  0  0  0  0  0  0  0  0
  136.6448   74.4552  223.2837 H   0  0  0  0  0  0  0  0  0  0  0  0
  135.1981   76.3290  223.8492 H   0  0  0  0  0  0  0  0  0  0  0  0
  136.5693   78.3761  222.8021 H   0  0  0  0  0  0  0  0  0  0  0  0
  137.3603   77.3161  223.9850 H   0  0  0  0  0  0  0  0  0  0  0  0
  137.8119   77.5834  221.0616 H   0  0  0  0  0  0  0  0  0  0  0  0
  139.9928   79.8761  221.2748 H   0  0  0  0  0  0  0  0  0  0  0  0
  138.4268   79.4812  221.9789 H   0  0  0  0  0  0  0  0  0  0  0  0
  139.2886   81.3215  223.3604 H   0  0  0  0  0  0  0  0  0  0  0  0
  139.6026   79.8974  224.3482 H   0  0  0  0  0  0  0  0  0  0  0  0
  141.5047   81.4959  222.5734 H   0  0  0  0  0  0  0  0  0  0  0  0
  141.7584   80.8655  224.2529 H   0  0  0  0  0  0  0  0  0  0  0  0
  142.1481   79.5496  221.6130 H   0  0  0  0  0  0  0  0  0  0  0  0
  143.0708   79.4186  223.1809 H   0  0  0  0  0  0  0  0  0  0  0  0
  141.9205   77.3020  222.5384 H   0  0  0  0  0  0  0  0  0  0  0  0
  141.3815   77.9643  224.1134 H   0  0  0  0  0  0  0  0  0  0  0  0
  139.0852   69.3492  222.8368 H   0  0  0  0  0  0  0  0  0  0  0  0
  139.3442   68.1197  225.0126 H   0  0  0  0  0  0  0  0  0  0  0  0
  139.9535   68.0980  227.2879 H   0  0  0  0  0  0  0  0  0  0  0  0
  140.8338   69.3449  229.2843 H   0  0  0  0  0  0  0  0  0  0  0  0
  141.4310   71.7228  229.1056 H   0  0  0  0  0  0  0  0  0  0  0  0
  141.1855   72.9619  226.9546 H   0  0  0  0  0  0  0  0  0  0  0  0
  1  2  2  0
  2  3  1  0
  3  4  1  0
  4  5  1  0
  5  6  2  0
  5  7  1  0
  7  8  1  0
  8  9  1  0
  9 10  1  0
  9 11  1  0
 11 12  1  0
 12 13  1  0
 13 14  2  0
 13 15  1  0
 15 16  1  0
 16 17  1  0
 17 18  1  0
 18 19  1  0
 19 20  1  0
  2 21  1  0
 21 22  2  0
 22 23  1  0
 23 24  2  0
 24 25  1  0
 25 26  2  0
 26 27  1  0
 27 28  2  0
 28 29  1  0
 29 30  2  0
 12  7  1  0
 20 15  1  0
 30 21  1  0
 29 24  1  0
  3 31  1  0
  4 32  1  0
  4 33  1  0
  8 34  1  0
  8 35  1  0
  9 36  1  1
 11 37  1  0
 11 38  1  0
 12 39  1  6
 16 40  1  0
 16 41  1  0
 17 42  1  0
 17 43  1  0
 18 44  1  0
 18 45  1  0
 19 46  1  0
 19 47  1  0
 20 48  1  0
 20 49  1  0
 22 50  1  0
 23 51  1  0
 25 52  1  0
 26 53  1  0
 27 54  1  0
 28 55  1  0
M  END
>  <smiles>  (19) 
O=C(NCC(=O)N1C[C@H](F)C[C@H]1C(=O)N1CCCCC1)c1ccc2ccccc2n1

>  <score_type>  (19) 
oracle

>  <origin>  (19) 
autodockgpu

>  <m_score__min__energy>  (19) 
-8.8300000000000001

>  <m_primary>  (19) 
energy

>  <rmsd>  (19) 
3.3488593066185244

>  <m_score__min__rmsd>  (19) 
3.3488593066185244

>  <meeko>  (19) 
{"free_energy": -8.12, "intermolecular_energy": -9.62, "internal_energy": -2.0, "cluster_size": 16, "cluster_id": 2, "rank_in_cluster": 10}

>  <energy>  (19) 
-8.12

>  <cluster_rmsd>  (19) 
0.17

>  <cluster>  (19) 
2

$$$$

     RDKit          3D

 55 58  0  0  0  0  0  0  0  0999 V2000
  141.2320   72.3330  221.7710 O   0  0  0  0  0  0  0  0  0  0  0  0
  140.2830   72.3830  222.6000 C   0  0  0  0  0  0  0  0  0  0  0  0
  139.2410   73.3800  222.3450 N   0  0  0  0  0  0  0  0  0  0  0  0
  139.4310   74.1720  221.1890 C   0  0  0  0  0  0  0  0  0  0  0  0
  140.4340   75.2140  221.2260 C   0  0  0  0  0  0  0  0  0  0  0  0
  140.5950   75.7370  222.4170 O   0  0  0  0  0  0  0  0  0  0  0  0
  141.2610   75.7550  220.1930 N   0  0  0  0  0  0  0  0  0  0  0  0
  141.5460   75.2590  218.8750 C   0  0  0  0  0  0  0  0  0  0  0  0
  142.7550   76.0420  218.4280 C   0  0  2  0  0  0  0  0  0  0  0  0
  143.8850   75.3680  218.7700 F   0  0  0  0  0  0  0  0  0  0  0  0
  142.6100   77.3540  219.1560 C   0  0  0  0  0  0  0  0  0  0  0  0
  141.9390   77.0490  220.4420 C   0  0  1  0  0  0  0  0  0  0  0  0
  140.9110   78.0720  220.8010 C   0  0  0  0  0  0  0  0  0  0  0  0
  139.8720   78.0880  220.0800 O   0  0  0  0  0  0  0  0  0  0  0  0
  141.0570   78.9820  221.8740 N   0  0  0  0  0  0  0  0  0  0  0  0
  142.2020   79.0280  222.7600 C   0  0  0  0  0  0  0  0  0  0  0  0
  142.5990   80.5090  222.8020 C   0  0  0  0  0  0  0  0  0  0  0  0
  141.5510   81.1620  223.7030 C   0  0  0  0  0  0  0  0  0  0  0  0
  140.1940   80.5430  223.5110 C   0  0  0  0  0  0  0  0  0  0  0  0
  139.9990   79.9480  222.1230 C   0  0  0  0  0  0  0  0  0  0  0  0
  140.1940   71.5100  223.7640 C   0  0  0  0  0  0  0  0  0  0  0  0
  139.5850   70.2860  223.5800 C   0  0  0  0  0  0  0  0  0  0  0  0
  139.4720   69.4070  224.6610 C   0  0  0  0  0  0  0  0  0  0  0  0
  139.9790   69.7930  225.9040 C   0  0  0  0  0  0  0  0  0  0  0  0
  139.8480   68.8990  226.9420 C   0  0  0  0  0  0  0  0  0  0  0  0
  140.3590   69.3000  228.1710 C   0  0  0  0  0  0  0  0  0  0  0  0
  140.9610   70.5330  228.3210 C   0  0  0  0  0  0  0  0  0  0  0  0
  141.0850   71.4220  227.2590 C   0  0  0  0  0  0  0  0  0  0  0  0
  140.5800   71.0310  226.0370 C   0  0  0  0  0  0  0  0  0  0  0  0
  140.6820   71.8750  224.9740 N   0  0  0  0  0  0  0  0  0  0  0  0
  138.5040   73.3830  223.0540 H   0  0  0  0  0  0  0  0  0  0  0  0
  139.7002   73.4905  220.3685 H   0  0  0  0  0  0  0  0  0  0  0  0
  138.4812   74.7149  221.0741 H   0  0  0  0  0  0  0  0  0  0  0  0
  141.7697   74.1824  218.9050 H   0  0  0  0  0  0  0  0  0  0  0  0
  140.6937   75.3798  218.1901 H   0  0  0  0  0  0  0  0  0  0  0  0
  142.8253   76.1945  217.3409 H   0  0  0  0  0  0  0  0  0  0  0  0
  143.5994   77.7983  219.3395 H   0  0  0  0  0  0  0  0  0  0  0  0
  142.0273   78.0753  218.5642 H   0  0  0  0  0  0  0  0  0  0  0  0
  142.6614   77.0310  221.2713 H   0  0  0  0  0  0  0  0  0  0  0  0
  141.9307   78.6700  223.7641 H   0  0  0  0  0  0  0  0  0  0  0  0
  143.0244   78.3852  222.4128 H   0  0  0  0  0  0  0  0  0  0  0  0
  143.6063   80.6294  223.2272 H   0  0  0  0  0  0  0  0  0  0  0  0
  142.6293   80.9620  221.8001 H   0  0  0  0  0  0  0  0  0  0  0  0
  141.8550   81.0375  224.7528 H   0  0  0  0  0  0  0  0  0  0  0  0
  141.4842   82.2274  223.4375 H   0  0  0  0  0  0  0  0  0  0  0  0
  140.0655   79.7436  224.2556 H   0  0  0  0  0  0  0  0  0  0  0  0
  139.4488   81.3430  223.6322 H   0  0  0  0  0  0  0  0  0  0  0  0
  139.0211   79.4471  222.0696 H   0  0  0  0  0  0  0  0  0  0  0  0
  140.0355   80.7454  221.3662 H   0  0  0  0  0  0  0  0  0  0  0  0
  139.1920   70.0043  222.5920 H   0  0  0  0  0  0  0  0  0  0  0  0
  138.9909   68.4259  224.5347 H   0  0  0  0  0  0  0  0  0  0  0  0
  139.3651   67.9200  226.8065 H   0  0  0  0  0  0  0  0  0  0  0  0
  140.2825   68.6251  229.0363 H   0  0  0  0  0  0  0  0  0  0  0  0
  141.3534   70.8202  229.3077 H   0  0  0  0  0  0  0  0  0  0  0  0
  141.5684   72.4015  227.3890 H   0  0  0  0  0  0  0  0  0  0  0  0
  1  2  2  0
  2  3  1  0
  3  4  1  0
  4  5  1  0
  5  6  2  0
  5  7  1  0
  7  8  1  0
  8  9  1  0
  9 10  1  0
  9 11  1  0
 11 12  1  0
 12 13  1  0
 13 14  2  0
 13 15  1  0
 15 16  1  0
 16 17  1  0
 17 18  1  0
 18 19  1  0
 19 20  1  0
  2 21  1  0
 21 22  2  0
 22 23  1  0
 23 24  2  0
 24 25  1  0
 25 26  2  0
 26 27  1  0
 27 28  2  0
 28 29  1  0
 29 30  2  0
 12  7  1  0
 20 15  1  0
 30 21  1  0
 29 24  1  0
  3 31  1  0
  4 32  1  0
  4 33  1  0
  8 34  1  0
  8 35  1  0
  9 36  1  6
 11 37  1  0
 11 38  1  0
 12 39  1  1
 16 40  1  0
 16 41  1  0
 17 42  1  0
 17 43  1  0
 18 44  1  0
 18 45  1  0
 19 46  1  0
 19 47  1  0
 20 48  1  0
 20 49  1  0
 22 50  1  0
 23 51  1  0
 25 52  1  0
 26 53  1  0
 27 54  1  0
 28 55  1  0
M  END
>  <smiles>  (20) 
O=C(NCC(=O)N1C[C@H](F)C[C@H]1C(=O)N1CCCCC1)c1ccc2ccccc2n1

>  <score_type>  (20) 
oracle

>  <origin>  (20) 
autodockgpu

>  <m_score__min__energy>  (20) 
-8.8300000000000001

>  <m_primary>  (20) 
energy

>  <rmsd>  (20) 
2.081328947074466

>  <m_score__min__rmsd>  (20) 
2.081328947074466

>  <meeko>  (20) 
{"free_energy": -8.83, "intermolecular_energy": -10.32, "internal_energy": -1.44, "cluster_size": 9, "cluster_id": 1, "rank_in_cluster": 1}

>  <energy>  (20) 
-8.12

>  <cluster_rmsd>  (20) 
0.22

>  <cluster>  (20) 
2

$$$$

     RDKit          3D

 55 58  0  0  0  0  0  0  0  0999 V2000
  138.0730   69.8820  221.7680 O   0  0  0  0  0  0  0  0  0  0  0  0
  138.4750   70.6830  222.6550 C   0  0  0  0  0  0  0  0  0  0  0  0
  138.3690   72.1110  222.3460 N   0  0  0  0  0  0  0  0  0  0  0  0
  137.8230   72.4170  221.0790 C   0  0  0  0  0  0  0  0  0  0  0  0
  137.3510   73.7640  220.8410 C   0  0  0  0  0  0  0  0  0  0  0  0
  136.7530   73.9080  219.6830 O   0  0  0  0  0  0  0  0  0  0  0  0
  137.4300   74.9410  221.6490 N   0  0  0  0  0  0  0  0  0  0  0  0
  136.6170   75.3670  222.7550 C   0  0  0  0  0  0  0  0  0  0  0  0
  136.9450   76.8280  222.9270 C   0  0  2  0  0  0  0  0  0  0  0  0
  136.0830   77.5780  222.1890 F   0  0  0  0  0  0  0  0  0  0  0  0
  138.3700   76.9260  222.4440 C   0  0  0  0  0  0  0  0  0  0  0  0
  138.5230   75.9050  221.3800 C   0  0  1  0  0  0  0  0  0  0  0  0
  139.8320   75.1890  221.4670 C   0  0  0  0  0  0  0  0  0  0  0  0
  139.9090   74.2830  222.3460 O   0  0  0  0  0  0  0  0  0  0  0  0
  140.9370   75.4790  220.6340 N   0  0  0  0  0  0  0  0  0  0  0  0
  140.9380   76.4860  219.5930 C   0  0  0  0  0  0  0  0  0  0  0  0
  142.2200   77.2920  219.8340 C   0  0  0  0  0  0  0  0  0  0  0  0
  143.3420   76.3910  219.3200 C   0  0  0  0  0  0  0  0  0  0  0  0
  143.0590   74.9410  219.6000 C   0  0  0  0  0  0  0  0  0  0  0  0
  142.1700   74.7300  220.8170 C   0  0  0  0  0  0  0  0  0  0  0  0
  139.0260   70.2480  223.9330 C   0  0  0  0  0  0  0  0  0  0  0  0
  138.9680   68.8970  224.2080 C   0  0  0  0  0  0  0  0  0  0  0  0
  139.4810   68.4210  225.4190 C   0  0  0  0  0  0  0  0  0  0  0  0
  140.0390   69.3290  226.3210 C   0  0  0  0  0  0  0  0  0  0  0  0
  140.5330   68.8200  227.5000 C   0  0  0  0  0  0  0  0  0  0  0  0
  141.0860   69.7380  228.3860 C   0  0  0  0  0  0  0  0  0  0  0  0
  141.1260   71.0850  228.0790 C   0  0  0  0  0  0  0  0  0  0  0  0
  140.6220   71.5790  226.8820 C   0  0  0  0  0  0  0  0  0  0  0  0
  140.0730   70.6730  225.9980 C   0  0  0  0  0  0  0  0  0  0  0  0
  139.5690   71.1200  224.8150 N   0  0  0  0  0  0  0  0  0  0  0  0
  138.7200   72.7120  223.0960 H   0  0  0  0  0  0  0  0  0  0  0  0
  138.6012   72.2079  220.3302 H   0  0  0  0  0  0  0  0  0  0  0  0
  136.9160   71.7976  221.0183 H   0  0  0  0  0  0  0  0  0  0  0  0
  135.5494   75.2329  222.5266 H   0  0  0  0  0  0  0  0  0  0  0  0
  136.8149   74.7847  223.6670 H   0  0  0  0  0  0  0  0  0  0  0  0
  136.8462   77.2002  223.9574 H   0  0  0  0  0  0  0  0  0  0  0  0
  138.5661   77.9297  222.0390 H   0  0  0  0  0  0  0  0  0  0  0  0
  139.0818   76.7556  223.2652 H   0  0  0  0  0  0  0  0  0  0  0  0
  138.4864   76.3648  220.3814 H   0  0  0  0  0  0  0  0  0  0  0  0
  140.9561   76.0162  218.5986 H   0  0  0  0  0  0  0  0  0  0  0  0
  140.0374   77.1169  219.6227 H   0  0  0  0  0  0  0  0  0  0  0  0
  142.1948   78.2388  219.2746 H   0  0  0  0  0  0  0  0  0  0  0  0
  142.3518   77.5609  220.8925 H   0  0  0  0  0  0  0  0  0  0  0  0
  143.4437   76.5317  218.2338 H   0  0  0  0  0  0  0  0  0  0  0  0
  144.2710   76.6672  219.8403 H   0  0  0  0  0  0  0  0  0  0  0  0
  142.5593   74.5060  218.7219 H   0  0  0  0  0  0  0  0  0  0  0  0
  144.0226   74.4535  219.8094 H   0  0  0  0  0  0  0  0  0  0  0  0
  141.9396   73.6599  220.9251 H   0  0  0  0  0  0  0  0  0  0  0  0
  142.6879   75.0793  221.7224 H   0  0  0  0  0  0  0  0  0  0  0  0
  138.5226   68.2011  223.4818 H   0  0  0  0  0  0  0  0  0  0  0  0
  139.4454   67.3477  225.6571 H   0  0  0  0  0  0  0  0  0  0  0  0
  140.4927   67.7449  227.7293 H   0  0  0  0  0  0  0  0  0  0  0  0
  141.4972   69.3874  229.3442 H   0  0  0  0  0  0  0  0  0  0  0  0
  141.5691   71.7854  228.8023 H   0  0  0  0  0  0  0  0  0  0  0  0
  140.6593   72.6531  226.6478 H   0  0  0  0  0  0  0  0  0  0  0  0
  1  2  2  0
  2  3  1  0
  3  4  1  0
  4  5  1  0
  5  6  2  0
  5  7  1  0
  7  8  1  0
  8  9  1  0
  9 10  1  0
  9 11  1  0
 11 12  1  0
 12 13  1  0
 13 14  2  0
 13 15  1  0
 15 16  1  0
 16 17  1  0
 17 18  1  0
 18 19  1  0
 19 20  1  0
  2 21  1  0
 21 22  2  0
 22 23  1  0
 23 24  2  0
 24 25  1  0
 25 26  2  0
 26 27  1  0
 27 28  2  0
 28 29  1  0
 29 30  2  0
 12  7  1  0
 20 15  1  0
 30 21  1  0
 29 24  1  0
  3 31  1  0
  4 32  1  0
  4 33  1  0
  8 34  1  0
  8 35  1  0
  9 36  1  1
 11 37  1  0
 11 38  1  0
 12 39  1  6
 16 40  1  0
 16 41  1  0
 17 42  1  0
 17 43  1  0
 18 44  1  0
 18 45  1  0
 19 46  1  0
 19 47  1  0
 20 48  1  0
 20 49  1  0
 22 50  1  0
 23 51  1  0
 25 52  1  0
 26 53  1  0
 27 54  1  0
 28 55  1  0
M  END
>  <smiles>  (21) 
O=C(NCC(=O)N1C[C@H](F)C[C@H]1C(=O)N1CCCCC1)c1ccc2ccccc2n1

>  <score_type>  (21) 
oracle

>  <origin>  (21) 
autodockgpu

>  <m_score__min__energy>  (21) 
-8.8300000000000001

>  <m_primary>  (21) 
energy

>  <rmsd>  (21) 
3.9209124641642554

>  <m_score__min__rmsd>  (21) 
3.9209124641642554

>  <meeko>  (21) 
{"free_energy": -7.59, "intermolecular_energy": -9.09, "internal_energy": -2.4, "cluster_size": 16, "cluster_id": 2, "rank_in_cluster": 13}

>  <energy>  (21) 
-7.96

>  <cluster_rmsd>  (21) 
0.31

>  <cluster>  (21) 
2

$$$$

     RDKit          3D

 55 58  0  0  0  0  0  0  0  0999 V2000
  138.4770   70.3090  221.4710 O   0  0  0  0  0  0  0  0  0  0  0  0
  138.6830   71.0230  222.4900 C   0  0  0  0  0  0  0  0  0  0  0  0
  138.4660   72.4630  222.3370 N   0  0  0  0  0  0  0  0  0  0  0  0
  138.0470   72.8790  221.0530 C   0  0  0  0  0  0  0  0  0  0  0  0
  138.2840   74.2530  220.6650 C   0  0  0  0  0  0  0  0  0  0  0  0
  137.7910   74.5520  219.4880 O   0  0  0  0  0  0  0  0  0  0  0  0
  138.9550   75.3160  221.3450 N   0  0  0  0  0  0  0  0  0  0  0  0
  138.4600   76.2700  222.2990 C   0  0  0  0  0  0  0  0  0  0  0  0
  139.5180   77.3430  222.3480 C   0  0  2  0  0  0  0  0  0  0  0  0
  139.2250   78.3120  221.4400 F   0  0  0  0  0  0  0  0  0  0  0  0
  140.7870   76.5980  222.0210 C   0  0  0  0  0  0  0  0  0  0  0  0
  140.4050   75.5020  221.0990 C   0  0  1  0  0  0  0  0  0  0  0  0
  141.1160   74.2250  221.4100 C   0  0  0  0  0  0  0  0  0  0  0  0
  140.6160   73.5270  222.3390 O   0  0  0  0  0  0  0  0  0  0  0  0
  142.2780   73.7930  220.7290 N   0  0  0  0  0  0  0  0  0  0  0  0
  142.9110   74.5160  219.6470 C   0  0  0  0  0  0  0  0  0  0  0  0
  144.3970   74.5570  220.0260 C   0  0  0  0  0  0  0  0  0  0  0  0
  144.9090   73.1480  219.7270 C   0  0  0  0  0  0  0  0  0  0  0  0
  143.8720   72.1060  220.0410 C   0  0  0  0  0  0  0  0  0  0  0  0
  142.8980   72.5390  221.1270 C   0  0  0  0  0  0  0  0  0  0  0  0
  139.1180   70.4780  223.7700 C   0  0  0  0  0  0  0  0  0  0  0  0
  138.8950   69.1330  223.9830 C   0  0  0  0  0  0  0  0  0  0  0  0
  139.2910   68.5540  225.1930 C   0  0  0  0  0  0  0  0  0  0  0  0
  139.9050   69.3560  226.1570 C   0  0  0  0  0  0  0  0  0  0  0  0
  140.2800   68.7490  227.3330 C   0  0  0  0  0  0  0  0  0  0  0  0
  140.8890   69.5620  228.2820 C   0  0  0  0  0  0  0  0  0  0  0  0
  141.0970   70.9050  228.0370 C   0  0  0  0  0  0  0  0  0  0  0  0
  140.7110   71.5000  226.8420 C   0  0  0  0  0  0  0  0  0  0  0  0
  140.1060   70.6990  225.8960 C   0  0  0  0  0  0  0  0  0  0  0  0
  139.7130   71.2470  224.7130 N   0  0  0  0  0  0  0  0  0  0  0  0
  138.6590   72.9920  223.1910 H   0  0  0  0  0  0  0  0  0  0  0  0
  138.5614   72.2403  220.3199 H   0  0  0  0  0  0  0  0  0  0  0  0
  136.9509   72.7911  221.0837 H   0  0  0  0  0  0  0  0  0  0  0  0
  137.4982   76.6879  221.9670 H   0  0  0  0  0  0  0  0  0  0  0  0
  138.2784   75.8179  223.2852 H   0  0  0  0  0  0  0  0  0  0  0  0
  139.5974   77.8627  223.3142 H   0  0  0  0  0  0  0  0  0  0  0  0
  141.5080   77.2708  221.5337 H   0  0  0  0  0  0  0  0  0  0  0  0
  141.2636   76.2047  222.9311 H   0  0  0  0  0  0  0  0  0  0  0  0
  140.6604   75.7533  220.0590 H   0  0  0  0  0  0  0  0  0  0  0  0
  142.7682   73.9891  218.6920 H   0  0  0  0  0  0  0  0  0  0  0  0
  142.4868   75.5220  219.5132 H   0  0  0  0  0  0  0  0  0  0  0  0
  144.9324   75.3019  219.4190 H   0  0  0  0  0  0  0  0  0  0  0  0
  144.5523   74.8436  221.0766 H   0  0  0  0  0  0  0  0  0  0  0  0
  145.1706   73.0817  218.6606 H   0  0  0  0  0  0  0  0  0  0  0  0
  145.7894   72.9597  220.3591 H   0  0  0  0  0  0  0  0  0  0  0  0
  143.3020   71.8926  219.1247 H   0  0  0  0  0  0  0  0  0  0  0  0
  144.4031   71.2175  220.4131 H   0  0  0  0  0  0  0  0  0  0  0  0
  142.1235   71.7688  221.2572 H   0  0  0  0  0  0  0  0  0  0  0  0
  143.4345   72.6731  222.0779 H   0  0  0  0  0  0  0  0  0  0  0  0
  138.4100   68.5215  223.2079 H   0  0  0  0  0  0  0  0  0  0  0  0
  139.1214   67.4837  225.3822 H   0  0  0  0  0  0  0  0  0  0  0  0
  140.1072   67.6776  227.5129 H   0  0  0  0  0  0  0  0  0  0  0  0
  141.2096   69.1296  229.2413 H   0  0  0  0  0  0  0  0  0  0  0  0
  141.5816   71.5208  228.8090 H   0  0  0  0  0  0  0  0  0  0  0  0
  140.8817   72.5708  226.6572 H   0  0  0  0  0  0  0  0  0  0  0  0
  1  2  2  0
  2  3  1  0
  3  4  1  0
  4  5  1  0
  5  6  2  0
  5  7  1  0
  7  8  1  0
  8  9  1  0
  9 10  1  0
  9 11  1  0
 11 12  1  0
 12 13  1  0
 13 14  2  0
 13 15  1  0
 15 16  1  0
 16 17  1  0
 17 18  1  0
 18 19  1  0
 19 20  1  0
  2 21  1  0
 21 22  2  0
 22 23  1  0
 23 24  2  0
 24 25  1  0
 25 26  2  0
 26 27  1  0
 27 28  2  0
 28 29  1  0
 29 30  2  0
 12  7  1  0
 20 15  1  0
 30 21  1  0
 29 24  1  0
  3 31  1  0
  4 32  1  0
  4 33  1  0
  8 34  1  0
  8 35  1  0
  9 36  1  1
 11 37  1  0
 11 38  1  0
 12 39  1  6
 16 40  1  0
 16 41  1  0
 17 42  1  0
 17 43  1  0
 18 44  1  0
 18 45  1  0
 19 46  1  0
 19 47  1  0
 20 48  1  0
 20 49  1  0
 22 50  1  0
 23 51  1  0
 25 52  1  0
 26 53  1  0
 27 54  1  0
 28 55  1  0
M  END
>  <smiles>  (22) 
O=C(NCC(=O)N1C[C@H](F)C[C@H]1C(=O)N1CCCCC1)c1ccc2ccccc2n1

>  <score_type>  (22) 
oracle

>  <origin>  (22) 
autodockgpu

>  <m_score__min__energy>  (22) 
-8.8300000000000001

>  <m_primary>  (22) 
energy

>  <rmsd>  (22) 
4.526093907062335

>  <m_score__min__rmsd>  (22) 
4.526093907062335

>  <meeko>  (22) 
{"free_energy": -7.92, "intermolecular_energy": -9.41, "internal_energy": -2.25, "cluster_size": 20, "cluster_id": 3, "rank_in_cluster": 4}

>  <energy>  (22) 
-7.59

>  <cluster_rmsd>  (22) 
1.94

>  <cluster>  (22) 
2

$$$$

     RDKit          3D

 55 58  0  0  0  0  0  0  0  0999 V2000
  138.3690   70.4520  221.5260 O   0  0  0  0  0  0  0  0  0  0  0  0
  138.6390   71.2000  222.5040 C   0  0  0  0  0  0  0  0  0  0  0  0
  138.4670   72.6390  222.2960 N   0  0  0  0  0  0  0  0  0  0  0  0
  138.0150   73.0160  221.0110 C   0  0  0  0  0  0  0  0  0  0  0  0
  138.3870   74.3200  220.5060 C   0  0  0  0  0  0  0  0  0  0  0  0
  137.9950   74.5300  219.2730 O   0  0  0  0  0  0  0  0  0  0  0  0
  139.1010   75.3940  221.1220 N   0  0  0  0  0  0  0  0  0  0  0  0
  138.6380   76.4390  221.9940 C   0  0  0  0  0  0  0  0  0  0  0  0
  139.7490   77.4580  221.9890 C   0  0  2  0  0  0  0  0  0  0  0  0
  139.5230   78.3720  221.0080 F   0  0  0  0  0  0  0  0  0  0  0  0
  140.9840   76.6280  221.7450 C   0  0  0  0  0  0  0  0  0  0  0  0
  140.5620   75.4890  220.8960 C   0  0  1  0  0  0  0  0  0  0  0  0
  141.2000   74.2030  221.3130 C   0  0  0  0  0  0  0  0  0  0  0  0
  140.6980   73.6430  222.3300 O   0  0  0  0  0  0  0  0  0  0  0  0
  142.2970   73.6210  220.6370 N   0  0  0  0  0  0  0  0  0  0  0  0
  142.9260   74.1810  219.4600 C   0  0  0  0  0  0  0  0  0  0  0  0
  144.4280   74.1560  219.7730 C   0  0  0  0  0  0  0  0  0  0  0  0
  144.8300   72.6900  219.6060 C   0  0  0  0  0  0  0  0  0  0  0  0
  143.7410   71.7620  220.0700 C   0  0  0  0  0  0  0  0  0  0  0  0
  142.8510   72.3750  221.1420 C   0  0  0  0  0  0  0  0  0  0  0  0
  139.1020   70.6940  223.7910 C   0  0  0  0  0  0  0  0  0  0  0  0
  138.9220   69.3480  224.0320 C   0  0  0  0  0  0  0  0  0  0  0  0
  139.3480   68.8060  225.2490 C   0  0  0  0  0  0  0  0  0  0  0  0
  139.9450   69.6460  226.1910 C   0  0  0  0  0  0  0  0  0  0  0  0
  140.3500   69.0740  227.3760 C   0  0  0  0  0  0  0  0  0  0  0  0
  140.9430   69.9240  228.3020 C   0  0  0  0  0  0  0  0  0  0  0  0
  141.1070   71.2680  228.0280 C   0  0  0  0  0  0  0  0  0  0  0  0
  140.6920   71.8270  226.8250 C   0  0  0  0  0  0  0  0  0  0  0  0
  140.1020   70.9880  225.9010 C   0  0  0  0  0  0  0  0  0  0  0  0
  139.6820   71.5000  224.7120 N   0  0  0  0  0  0  0  0  0  0  0  0
  138.7110   73.1970  223.1180 H   0  0  0  0  0  0  0  0  0  0  0  0
  138.3987   72.2701  220.2994 H   0  0  0  0  0  0  0  0  0  0  0  0
  136.9210   73.0676  221.1135 H   0  0  0  0  0  0  0  0  0  0  0  0
  137.7054   76.8793  221.6115 H   0  0  0  0  0  0  0  0  0  0  0  0
  138.4149   76.0699  223.0059 H   0  0  0  0  0  0  0  0  0  0  0  0
  139.8377   78.0423  222.9168 H   0  0  0  0  0  0  0  0  0  0  0  0
  141.7480   77.2261  221.2268 H   0  0  0  0  0  0  0  0  0  0  0  0
  141.4229   76.2787  222.6912 H   0  0  0  0  0  0  0  0  0  0  0  0
  140.8490   75.6518  219.8466 H   0  0  0  0  0  0  0  0  0  0  0  0
  142.7042   73.5692  218.5732 H   0  0  0  0  0  0  0  0  0  0  0  0
  142.5638   75.1954  219.2369 H   0  0  0  0  0  0  0  0  0  0  0  0
  144.9825   74.7938  219.0689 H   0  0  0  0  0  0  0  0  0  0  0  0
  144.6517   74.5388  220.7797 H   0  0  0  0  0  0  0  0  0  0  0  0
  145.0366   72.4951  218.5433 H   0  0  0  0  0  0  0  0  0  0  0  0
  145.7242   72.5059  220.2197 H   0  0  0  0  0  0  0  0  0  0  0  0
  143.1152   71.4964  219.2052 H   0  0  0  0  0  0  0  0  0  0  0  0
  144.2277   70.8803  220.5124 H   0  0  0  0  0  0  0  0  0  0  0  0
  142.0343   71.6797  221.3861 H   0  0  0  0  0  0  0  0  0  0  0  0
  143.4406   72.5697  222.0500 H   0  0  0  0  0  0  0  0  0  0  0  0
  138.4479   68.7068  223.2743 H   0  0  0  0  0  0  0  0  0  0  0  0
  139.2148   67.7348  225.4606 H   0  0  0  0  0  0  0  0  0  0  0  0
  140.2117   68.0018  227.5790 H   0  0  0  0  0  0  0  0  0  0  0  0
  141.2864   69.5211  229.2662 H   0  0  0  0  0  0  0  0  0  0  0  0
  141.5792   71.9138  228.7829 H   0  0  0  0  0  0  0  0  0  0  0  0
  140.8287   72.8985  226.6169 H   0  0  0  0  0  0  0  0  0  0  0  0
  1  2  2  0
  2  3  1  0
  3  4  1  0
  4  5  1  0
  5  6  2  0
  5  7  1  0
  7  8  1  0
  8  9  1  0
  9 10  1  0
  9 11  1  0
 11 12  1  0
 12 13  1  0
 13 14  2  0
 13 15  1  0
 15 16  1  0
 16 17  1  0
 17 18  1  0
 18 19  1  0
 19 20  1  0
  2 21  1  0
 21 22  2  0
 22 23  1  0
 23 24  2  0
 24 25  1  0
 25 26  2  0
 26 27  1  0
 27 28  2  0
 28 29  1  0
 29 30  2  0
 12  7  1  0
 20 15  1  0
 30 21  1  0
 29 24  1  0
  3 31  1  0
  4 32  1  0
  4 33  1  0
  8 34  1  0
  8 35  1  0
  9 36  1  1
 11 37  1  0
 11 38  1  0
 12 39  1  6
 16 40  1  0
 16 41  1  0
 17 42  1  0
 17 43  1  0
 18 44  1  0
 18 45  1  0
 19 46  1  0
 19 47  1  0
 20 48  1  0
 20 49  1  0
 22 50  1  0
 23 51  1  0
 25 52  1  0
 26 53  1  0
 27 54  1  0
 28 55  1  0
M  END
>  <smiles>  (23) 
O=C(NCC(=O)N1C[C@H](F)C[C@H]1C(=O)N1CCCCC1)c1ccc2ccccc2n1

>  <score_type>  (23) 
oracle

>  <origin>  (23) 
autodockgpu

>  <m_score__min__energy>  (23) 
-8.8300000000000001

>  <m_primary>  (23) 
energy

>  <rmsd>  (23) 
4.602852032085039

>  <m_score__min__rmsd>  (23) 
4.602852032085039

>  <meeko>  (23) 
{"free_energy": -7.72, "intermolecular_energy": -9.21, "internal_energy": -2.44, "cluster_size": 20, "cluster_id": 3, "rank_in_cluster": 19}

>  <energy>  (23) 
-7.56

>  <cluster_rmsd>  (23) 
0.49

>  <cluster>  (23) 
2

$$$$

     RDKit          3D

 55 58  0  0  0  0  0  0  0  0999 V2000
  138.5480   70.3020  221.5180 O   0  0  0  0  0  0  0  0  0  0  0  0
  138.7620   71.0320  222.5240 C   0  0  0  0  0  0  0  0  0  0  0  0
  138.5560   72.4710  222.3450 N   0  0  0  0  0  0  0  0  0  0  0  0
  138.1400   72.8680  221.0540 C   0  0  0  0  0  0  0  0  0  0  0  0
  137.9060   74.2750  220.8090 C   0  0  0  0  0  0  0  0  0  0  0  0
  137.0050   74.4970  219.8830 O   0  0  0  0  0  0  0  0  0  0  0  0
  138.4870   75.4380  221.4010 N   0  0  0  0  0  0  0  0  0  0  0  0
  137.9550   76.3510  222.3750 C   0  0  0  0  0  0  0  0  0  0  0  0
  138.8620   77.5540  222.3040 C   0  0  2  0  0  0  0  0  0  0  0  0
  138.3660   78.4450  221.4060 F   0  0  0  0  0  0  0  0  0  0  0  0
  140.1860   76.9680  221.8800 C   0  0  0  0  0  0  0  0  0  0  0  0
  139.8730   75.8020  221.0210 C   0  0  1  0  0  0  0  0  0  0  0  0
  140.7710   74.6390  221.2940 C   0  0  0  0  0  0  0  0  0  0  0  0
  140.5120   73.9750  222.3390 O   0  0  0  0  0  0  0  0  0  0  0  0
  141.8520   74.2750  220.4580 N   0  0  0  0  0  0  0  0  0  0  0  0
  142.2140   74.9640  219.2380 C   0  0  0  0  0  0  0  0  0  0  0  0
  143.7260   75.1950  219.3570 C   0  0  0  0  0  0  0  0  0  0  0  0
  144.3470   73.8280  219.0730 C   0  0  0  0  0  0  0  0  0  0  0  0
  143.5040   72.7120  219.6280 C   0  0  0  0  0  0  0  0  0  0  0  0
  142.6720   73.1330  220.8310 C   0  0  0  0  0  0  0  0  0  0  0  0
  139.1930   70.5070  223.8140 C   0  0  0  0  0  0  0  0  0  0  0  0
  139.0300   69.1530  224.0210 C   0  0  0  0  0  0  0  0  0  0  0  0
  139.4270   68.5930  225.2390 C   0  0  0  0  0  0  0  0  0  0  0  0
  139.9780   69.4220  226.2180 C   0  0  0  0  0  0  0  0  0  0  0  0
  140.3550   68.8320  227.4020 C   0  0  0  0  0  0  0  0  0  0  0  0
  140.9020   69.6720  228.3650 C   0  0  0  0  0  0  0  0  0  0  0  0
  141.0500   71.0240  228.1250 C   0  0  0  0  0  0  0  0  0  0  0  0
  140.6630   71.6020  226.9220 C   0  0  0  0  0  0  0  0  0  0  0  0
  140.1190   70.7730  225.9620 C   0  0  0  0  0  0  0  0  0  0  0  0
  139.7280   71.3030  224.7700 N   0  0  0  0  0  0  0  0  0  0  0  0
  138.7540   73.0140  223.1890 H   0  0  0  0  0  0  0  0  0  0  0  0
  138.9158   72.5393  220.3468 H   0  0  0  0  0  0  0  0  0  0  0  0
  137.1498   72.4042  220.9343 H   0  0  0  0  0  0  0  0  0  0  0  0
  136.9210   76.6288  222.1228 H   0  0  0  0  0  0  0  0  0  0  0  0
  137.9217   75.9126  223.3833 H   0  0  0  0  0  0  0  0  0  0  0  0
  138.9556   78.1128  223.2469 H   0  0  0  0  0  0  0  0  0  0  0  0
  140.7673   77.7114  221.3149 H   0  0  0  0  0  0  0  0  0  0  0  0
  140.7873   76.6704  222.7518 H   0  0  0  0  0  0  0  0  0  0  0  0
  140.0012   76.0493  219.9569 H   0  0  0  0  0  0  0  0  0  0  0  0
  141.9841   74.3438  218.3591 H   0  0  0  0  0  0  0  0  0  0  0  0
  141.6576   75.9041  219.1095 H   0  0  0  0  0  0  0  0  0  0  0  0
  144.0650   75.9367  218.6188 H   0  0  0  0  0  0  0  0  0  0  0  0
  144.0122   75.5868  220.3442 H   0  0  0  0  0  0  0  0  0  0  0  0
  144.4410   73.6975  217.9848 H   0  0  0  0  0  0  0  0  0  0  0  0
  145.3330   73.7897  219.5592 H   0  0  0  0  0  0  0  0  0  0  0  0
  142.8241   72.3608  218.8379 H   0  0  0  0  0  0  0  0  0  0  0  0
  144.1891   71.9198  219.9644 H   0  0  0  0  0  0  0  0  0  0  0  0
  142.0252   72.2997  221.1429 H   0  0  0  0  0  0  0  0  0  0  0  0
  143.3341   73.4055  221.6661 H   0  0  0  0  0  0  0  0  0  0  0  0
  138.5919   68.5199  223.2353 H   0  0  0  0  0  0  0  0  0  0  0  0
  139.3070   67.5152  225.4232 H   0  0  0  0  0  0  0  0  0  0  0  0
  140.2303   67.7533  227.5774 H   0  0  0  0  0  0  0  0  0  0  0  0
  141.2213   69.2543  229.3312 H   0  0  0  0  0  0  0  0  0  0  0  0
  141.4865   71.6613  228.9082 H   0  0  0  0  0  0  0  0  0  0  0  0
  140.7857   72.6801  226.7416 H   0  0  0  0  0  0  0  0  0  0  0  0
  1  2  2  0
  2  3  1  0
  3  4  1  0
  4  5  1  0
  5  6  2  0
  5  7  1  0
  7  8  1  0
  8  9  1  0
  9 10  1  0
  9 11  1  0
 11 12  1  0
 12 13  1  0
 13 14  2  0
 13 15  1  0
 15 16  1  0
 16 17  1  0
 17 18  1  0
 18 19  1  0
 19 20  1  0
  2 21  1  0
 21 22  2  0
 22 23  1  0
 23 24  2  0
 24 25  1  0
 25 26  2  0
 26 27  1  0
 27 28  2  0
 28 29  1  0
 29 30  2  0
 12  7  1  0
 20 15  1  0
 30 21  1  0
 29 24  1  0
  3 31  1  0
  4 32  1  0
  4 33  1  0
  8 34  1  0
  8 35  1  0
  9 36  1  1
 11 37  1  0
 11 38  1  0
 12 39  1  6
 16 40  1  0
 16 41  1  0
 17 42  1  0
 17 43  1  0
 18 44  1  0
 18 45  1  0
 19 46  1  0
 19 47  1  0
 20 48  1  0
 20 49  1  0
 22 50  1  0
 23 51  1  0
 25 52  1  0
 26 53  1  0
 27 54  1  0
 28 55  1  0
M  END
>  <smiles>  (24) 
O=C(NCC(=O)N1C[C@H](F)C[C@H]1C(=O)N1CCCCC1)c1ccc2ccccc2n1

>  <score_type>  (24) 
oracle

>  <origin>  (24) 
autodockgpu

>  <m_score__min__energy>  (24) 
-8.8300000000000001

>  <m_primary>  (24) 
energy

>  <rmsd>  (24) 
4.328713843149506

>  <m_score__min__rmsd>  (24) 
4.328713843149506

>  <meeko>  (24) 
{"free_energy": -7.74, "intermolecular_energy": -9.23, "internal_energy": -2.27, "cluster_size": 20, "cluster_id": 3, "rank_in_cluster": 18}

>  <energy>  (24) 
-7.54

>  <cluster_rmsd>  (24) 
0.77

>  <cluster>  (24) 
2

$$$$

     RDKit          3D

 55 58  0  0  0  0  0  0  0  0999 V2000
  138.4220   70.3250  221.4840 O   0  0  0  0  0  0  0  0  0  0  0  0
  138.6370   71.0400  222.5000 C   0  0  0  0  0  0  0  0  0  0  0  0
  138.4280   72.4810  222.3440 N   0  0  0  0  0  0  0  0  0  0  0  0
  138.0070   72.8960  221.0600 C   0  0  0  0  0  0  0  0  0  0  0  0
  138.2660   74.2630  220.6600 C   0  0  0  0  0  0  0  0  0  0  0  0
  137.7990   74.5520  219.4700 O   0  0  0  0  0  0  0  0  0  0  0  0
  138.9380   75.3260  221.3390 N   0  0  0  0  0  0  0  0  0  0  0  0
  138.4420   76.2820  222.2910 C   0  0  0  0  0  0  0  0  0  0  0  0
  139.5010   77.3540  222.3400 C   0  0  2  0  0  0  0  0  0  0  0  0
  139.2100   78.3220  221.4300 F   0  0  0  0  0  0  0  0  0  0  0  0
  140.7700   76.6070  222.0160 C   0  0  0  0  0  0  0  0  0  0  0  0
  140.3880   75.5100  221.0950 C   0  0  1  0  0  0  0  0  0  0  0  0
  141.0980   74.2330  221.4090 C   0  0  0  0  0  0  0  0  0  0  0  0
  140.6000   73.5400  222.3430 O   0  0  0  0  0  0  0  0  0  0  0  0
  142.2550   73.7950  220.7250 N   0  0  0  0  0  0  0  0  0  0  0  0
  142.8860   74.5120  219.6370 C   0  0  0  0  0  0  0  0  0  0  0  0
  144.3730   74.5520  220.0090 C   0  0  0  0  0  0  0  0  0  0  0  0
  144.8800   73.1400  219.7140 C   0  0  0  0  0  0  0  0  0  0  0  0
  143.8420   72.1010  220.0370 C   0  0  0  0  0  0  0  0  0  0  0  0
  142.8750   72.5420  221.1260 C   0  0  0  0  0  0  0  0  0  0  0  0
  139.0730   70.4970  223.7810 C   0  0  0  0  0  0  0  0  0  0  0  0
  138.8360   69.1550  224.0010 C   0  0  0  0  0  0  0  0  0  0  0  0
  139.2330   68.5780  225.2110 C   0  0  0  0  0  0  0  0  0  0  0  0
  139.8610   69.3780  226.1680 C   0  0  0  0  0  0  0  0  0  0  0  0
  140.2370   68.7720  227.3450 C   0  0  0  0  0  0  0  0  0  0  0  0
  140.8610   69.5830  228.2870 C   0  0  0  0  0  0  0  0  0  0  0  0
  141.0820   70.9220  228.0340 C   0  0  0  0  0  0  0  0  0  0  0  0
  140.6960   71.5160  226.8380 C   0  0  0  0  0  0  0  0  0  0  0  0
  140.0760   70.7170  225.8990 C   0  0  0  0  0  0  0  0  0  0  0  0
  139.6830   71.2630  224.7160 N   0  0  0  0  0  0  0  0  0  0  0  0
  138.6270   73.0120  223.1960 H   0  0  0  0  0  0  0  0  0  0  0  0
  138.5042   72.2429  220.3277 H   0  0  0  0  0  0  0  0  0  0  0  0
  136.9098   72.8287  221.0998 H   0  0  0  0  0  0  0  0  0  0  0  0
  137.4811   76.7003  221.9567 H   0  0  0  0  0  0  0  0  0  0  0  0
  138.2582   75.8316  223.2776 H   0  0  0  0  0  0  0  0  0  0  0  0
  139.5797   77.8752  223.3055 H   0  0  0  0  0  0  0  0  0  0  0  0
  141.4925   77.2783  221.5287 H   0  0  0  0  0  0  0  0  0  0  0  0
  141.2448   76.2146  222.9274 H   0  0  0  0  0  0  0  0  0  0  0  0
  140.6446   75.7592  220.0548 H   0  0  0  0  0  0  0  0  0  0  0  0
  142.7383   73.9810  218.6850 H   0  0  0  0  0  0  0  0  0  0  0  0
  142.4634   75.5184  219.5009 H   0  0  0  0  0  0  0  0  0  0  0  0
  144.9073   75.2928  219.3961 H   0  0  0  0  0  0  0  0  0  0  0  0
  144.5340   74.8435  221.0574 H   0  0  0  0  0  0  0  0  0  0  0  0
  145.1368   73.0685  218.6468 H   0  0  0  0  0  0  0  0  0  0  0  0
  145.7624   72.9525  220.3435 H   0  0  0  0  0  0  0  0  0  0  0  0
  143.2669   71.8851  219.1245 H   0  0  0  0  0  0  0  0  0  0  0  0
  144.3723   71.2121  220.4094 H   0  0  0  0  0  0  0  0  0  0  0  0
  142.0998   71.7740  221.2648 H   0  0  0  0  0  0  0  0  0  0  0  0
  143.4174   72.6804  222.0729 H   0  0  0  0  0  0  0  0  0  0  0  0
  138.3395   68.5454  223.2316 H   0  0  0  0  0  0  0  0  0  0  0  0
  139.0535   67.5104  225.4062 H   0  0  0  0  0  0  0  0  0  0  0  0
  140.0538   67.7034  227.5308 H   0  0  0  0  0  0  0  0  0  0  0  0
  141.1827   69.1517  229.2464 H   0  0  0  0  0  0  0  0  0  0  0  0
  141.5775   71.5361  228.8004 H   0  0  0  0  0  0  0  0  0  0  0  0
  140.8781   72.5839  226.6470 H   0  0  0  0  0  0  0  0  0  0  0  0
  1  2  2  0
  2  3  1  0
  3  4  1  0
  4  5  1  0
  5  6  2  0
  5  7  1  0
  7  8  1  0
  8  9  1  0
  9 10  1  0
  9 11  1  0
 11 12  1  0
 12 13  1  0
 13 14  2  0
 13 15  1  0
 15 16  1  0
 16 17  1  0
 17 18  1  0
 18 19  1  0
 19 20  1  0
  2 21  1  0
 21 22  2  0
 22 23  1  0
 23 24  2  0
 24 25  1  0
 25 26  2  0
 26 27  1  0
 27 28  2  0
 28 29  1  0
 29 30  2  0
 12  7  1  0
 20 15  1  0
 30 21  1  0
 29 24  1  0
  3 31  1  0
  4 32  1  0
  4 33  1  0
  8 34  1  0
  8 35  1  0
  9 36  1  1
 11 37  1  0
 11 38  1  0
 12 39  1  6
 16 40  1  0
 16 41  1  0
 17 42  1  0
 17 43  1  0
 18 44  1  0
 18 45  1  0
 19 46  1  0
 19 47  1  0
 20 48  1  0
 20 49  1  0
 22 50  1  0
 23 51  1  0
 25 52  1  0
 26 53  1  0
 27 54  1  0
 28 55  1  0
M  END
>  <smiles>  (25) 
O=C(NCC(=O)N1C[C@H](F)C[C@H]1C(=O)N1CCCCC1)c1ccc2ccccc2n1

>  <score_type>  (25) 
oracle

>  <origin>  (25) 
autodockgpu

>  <m_score__min__energy>  (25) 
-8.8300000000000001

>  <m_primary>  (25) 
energy

>  <rmsd>  (25) 
4.524487876060162

>  <m_score__min__rmsd>  (25) 
4.524487876060162

>  <meeko>  (25) 
{"free_energy": -7.93, "intermolecular_energy": -9.42, "internal_energy": -2.27, "cluster_size": 20, "cluster_id": 3, "rank_in_cluster": 3}

>  <energy>  (25) 
-7.54

>  <cluster_rmsd>  (25) 
1.95

>  <cluster>  (25) 
2

$$$$

     RDKit          3D

 55 58  0  0  0  0  0  0  0  0999 V2000
  137.6990   70.2190  221.9170 O   0  0  0  0  0  0  0  0  0  0  0  0
  138.2430   70.9010  222.8280 C   0  0  0  0  0  0  0  0  0  0  0  0
  138.2890   72.3500  222.6230 N   0  0  0  0  0  0  0  0  0  0  0  0
  137.7120   72.8090  221.4170 C   0  0  0  0  0  0  0  0  0  0  0  0
  138.2090   74.0420  220.8430 C   0  0  0  0  0  0  0  0  0  0  0  0
  137.9860   74.1400  219.5550 O   0  0  0  0  0  0  0  0  0  0  0  0
  138.8900   75.1460  221.4420 N   0  0  0  0  0  0  0  0  0  0  0  0
  138.4240   76.1270  222.3830 C   0  0  0  0  0  0  0  0  0  0  0  0
  139.4580   77.2240  222.3310 C   0  0  2  0  0  0  0  0  0  0  0  0
  139.0930   78.1490  221.4030 F   0  0  0  0  0  0  0  0  0  0  0  0
  140.7250   76.4930  221.9650 C   0  0  0  0  0  0  0  0  0  0  0  0
  140.3200   75.3530  221.1090 C   0  0  1  0  0  0  0  0  0  0  0  0
  141.0770   74.1060  221.4310 C   0  0  0  0  0  0  0  0  0  0  0  0
  140.5910   73.3870  222.3520 O   0  0  0  0  0  0  0  0  0  0  0  0
  142.2650   73.7210  220.7680 N   0  0  0  0  0  0  0  0  0  0  0  0
  142.8850   74.4700  219.6950 C   0  0  0  0  0  0  0  0  0  0  0  0
  144.3620   74.5710  220.0960 C   0  0  0  0  0  0  0  0  0  0  0  0
  144.9350   73.1840  219.8050 C   0  0  0  0  0  0  0  0  0  0  0  0
  143.9360   72.1000  220.1030 C   0  0  0  0  0  0  0  0  0  0  0  0
  142.9300   72.4930  221.1750 C   0  0  0  0  0  0  0  0  0  0  0  0
  138.8090   70.3120  224.0360 C   0  0  0  0  0  0  0  0  0  0  0  0
  138.6920   68.9440  224.1750 C   0  0  0  0  0  0  0  0  0  0  0  0
  139.2170   68.3240  225.3130 C   0  0  0  0  0  0  0  0  0  0  0  0
  139.8470   69.1090  226.2820 C   0  0  0  0  0  0  0  0  0  0  0  0
  140.3500   68.4600  227.3860 C   0  0  0  0  0  0  0  0  0  0  0  0
  140.9730   69.2560  228.3410 C   0  0  0  0  0  0  0  0  0  0  0  0
  141.0710   70.6230  228.1700 C   0  0  0  0  0  0  0  0  0  0  0  0
  140.5570   71.2600  227.0460 C   0  0  0  0  0  0  0  0  0  0  0  0
  139.9370   70.4750  226.0950 C   0  0  0  0  0  0  0  0  0  0  0  0
  139.4200   71.0640  224.9820 N   0  0  0  0  0  0  0  0  0  0  0  0
  138.7500   72.8500  223.3870 H   0  0  0  0  0  0  0  0  0  0  0  0
  137.8564   72.0187  220.6656 H   0  0  0  0  0  0  0  0  0  0  0  0
  136.6693   73.0354  221.6843 H   0  0  0  0  0  0  0  0  0  0  0  0
  137.4360   76.5100  222.0877 H   0  0  0  0  0  0  0  0  0  0  0  0
  138.3061   75.7120  223.3949 H   0  0  0  0  0  0  0  0  0  0  0  0
  139.5777   77.7848  223.2697 H   0  0  0  0  0  0  0  0  0  0  0  0
  141.4032   77.1606  221.4132 H   0  0  0  0  0  0  0  0  0  0  0  0
  141.2584   76.1470  222.8626 H   0  0  0  0  0  0  0  0  0  0  0  0
  140.5124   75.5670  220.0473 H   0  0  0  0  0  0  0  0  0  0  0  0
  142.7780   73.9382  218.7381 H   0  0  0  0  0  0  0  0  0  0  0  0
  142.4225   75.4582  219.5549 H   0  0  0  0  0  0  0  0  0  0  0  0
  144.8758   75.3372  219.4968 H   0  0  0  0  0  0  0  0  0  0  0  0
  144.4899   74.8633  221.1487 H   0  0  0  0  0  0  0  0  0  0  0  0
  145.2155   73.1291  218.7428 H   0  0  0  0  0  0  0  0  0  0  0  0
  145.8123   73.0311  220.4507 H   0  0  0  0  0  0  0  0  0  0  0  0
  143.3884   71.8649  219.1784 H   0  0  0  0  0  0  0  0  0  0  0  0
  144.4966   71.2327  220.4818 H   0  0  0  0  0  0  0  0  0  0  0  0
  142.1857   71.6919  221.2946 H   0  0  0  0  0  0  0  0  0  0  0  0
  143.4474   72.6487  222.1332 H   0  0  0  0  0  0  0  0  0  0  0  0
  138.1909   68.3474  223.3985 H   0  0  0  0  0  0  0  0  0  0  0  0
  139.1353   67.2348  225.4434 H   0  0  0  0  0  0  0  0  0  0  0  0
  140.2640   67.3700  227.5067 H   0  0  0  0  0  0  0  0  0  0  0  0
  141.3934   68.7907  229.2447 H   0  0  0  0  0  0  0  0  0  0  0  0
  141.5695   71.2245  228.9445 H   0  0  0  0  0  0  0  0  0  0  0  0
  140.6414   72.3494  226.9194 H   0  0  0  0  0  0  0  0  0  0  0  0
  1  2  2  0
  2  3  1  0
  3  4  1  0
  4  5  1  0
  5  6  2  0
  5  7  1  0
  7  8  1  0
  8  9  1  0
  9 10  1  0
  9 11  1  0
 11 12  1  0
 12 13  1  0
 13 14  2  0
 13 15  1  0
 15 16  1  0
 16 17  1  0
 17 18  1  0
 18 19  1  0
 19 20  1  0
  2 21  1  0
 21 22  2  0
 22 23  1  0
 23 24  2  0
 24 25  1  0
 25 26  2  0
 26 27  1  0
 27 28  2  0
 28 29  1  0
 29 30  2  0
 12  7  1  0
 20 15  1  0
 30 21  1  0
 29 24  1  0
  3 31  1  0
  4 32  1  0
  4 33  1  0
  8 34  1  0
  8 35  1  0
  9 36  1  1
 11 37  1  0
 11 38  1  0
 12 39  1  6
 16 40  1  0
 16 41  1  0
 17 42  1  0
 17 43  1  0
 18 44  1  0
 18 45  1  0
 19 46  1  0
 19 47  1  0
 20 48  1  0
 20 49  1  0
 22 50  1  0
 23 51  1  0
 25 52  1  0
 26 53  1  0
 27 54  1  0
 28 55  1  0
M  END
>  <smiles>  (26) 
O=C(NCC(=O)N1C[C@H](F)C[C@H]1C(=O)N1CCCCC1)c1ccc2ccccc2n1

>  <score_type>  (26) 
oracle

>  <origin>  (26) 
autodockgpu

>  <m_score__min__energy>  (26) 
-8.8300000000000001

>  <m_primary>  (26) 
energy

>  <rmsd>  (26) 
4.554587233021914

>  <m_score__min__rmsd>  (26) 
4.554587233021914

>  <meeko>  (26) 
{"free_energy": -7.85, "intermolecular_energy": -9.34, "internal_energy": -2.4, "cluster_size": 20, "cluster_id": 3, "rank_in_cluster": 9}

>  <energy>  (26) 
-7.99

>  <cluster_rmsd>  (26) 
0.0

>  <cluster>  (26) 
3

$$$$

     RDKit          3D

 55 58  0  0  0  0  0  0  0  0999 V2000
  139.4630   71.0210  221.3250 O   0  0  0  0  0  0  0  0  0  0  0  0
  139.5900   71.7160  222.3700 C   0  0  0  0  0  0  0  0  0  0  0  0
  139.4930   73.1680  222.2070 N   0  0  0  0  0  0  0  0  0  0  0  0
  139.2660   73.6160  220.8850 C   0  0  0  0  0  0  0  0  0  0  0  0
  138.4360   74.7840  220.6880 C   0  0  0  0  0  0  0  0  0  0  0  0
  138.4680   75.2420  219.4600 O   0  0  0  0  0  0  0  0  0  0  0  0
  137.6030   75.5050  221.5980 N   0  0  0  0  0  0  0  0  0  0  0  0
  136.4360   75.0850  222.3250 C   0  0  0  0  0  0  0  0  0  0  0  0
  135.7980   76.3670  222.7940 C   0  0  2  0  0  0  0  0  0  0  0  0
  134.8940   76.7900  221.8700 F   0  0  0  0  0  0  0  0  0  0  0  0
  136.9680   77.3060  222.9430 C   0  0  0  0  0  0  0  0  0  0  0  0
  137.9580   76.9090  221.9150 C   0  0  1  0  0  0  0  0  0  0  0  0
  139.3600   76.9470  222.4330 C   0  0  0  0  0  0  0  0  0  0  0  0
  139.8730   75.8270  222.7210 O   0  0  0  0  0  0  0  0  0  0  0  0
  140.0960   78.1420  222.6030 N   0  0  0  0  0  0  0  0  0  0  0  0
  139.5980   79.4650  222.2880 C   0  0  0  0  0  0  0  0  0  0  0  0
  139.9160   80.3050  223.5320 C   0  0  0  0  0  0  0  0  0  0  0  0
  141.4190   80.5690  223.4430 C   0  0  0  0  0  0  0  0  0  0  0  0
  142.1550   79.3860  222.8750 C   0  0  0  0  0  0  0  0  0  0  0  0
  141.4490   78.0630  223.1330 C   0  0  0  0  0  0  0  0  0  0  0  0
  139.8240   71.1400  223.6880 C   0  0  0  0  0  0  0  0  0  0  0  0
  139.4960   69.8100  223.8530 C   0  0  0  0  0  0  0  0  0  0  0  0
  139.6990   69.2030  225.0970 C   0  0  0  0  0  0  0  0  0  0  0  0
  140.2300   69.9620  226.1420 C   0  0  0  0  0  0  0  0  0  0  0  0
  140.4150   69.3270  227.3490 C   0  0  0  0  0  0  0  0  0  0  0  0
  140.9440   70.0970  228.3780 C   0  0  0  0  0  0  0  0  0  0  0  0
  141.2610   71.4260  228.1780 C   0  0  0  0  0  0  0  0  0  0  0  0
  141.0680   72.0500  226.9510 C   0  0  0  0  0  0  0  0  0  0  0  0
  140.5420   71.2910  225.9250 C   0  0  0  0  0  0  0  0  0  0  0  0
  140.3380   71.8670  224.7090 N   0  0  0  0  0  0  0  0  0  0  0  0
  139.6140   73.6810  223.0840 H   0  0  0  0  0  0  0  0  0  0  0  0
  140.2488   73.8371  220.4432 H   0  0  0  0  0  0  0  0  0  0  0  0
  138.6987   72.7986  220.4159 H   0  0  0  0  0  0  0  0  0  0  0  0
  135.7505   74.5271  221.6701 H   0  0  0  0  0  0  0  0  0  0  0  0
  136.6842   74.4130  223.1598 H   0  0  0  0  0  0  0  0  0  0  0  0
  135.2340   76.2794  223.7344 H   0  0  0  0  0  0  0  0  0  0  0  0
  136.6452   78.3447  222.7789 H   0  0  0  0  0  0  0  0  0  0  0  0
  137.3985   77.2487  223.9536 H   0  0  0  0  0  0  0  0  0  0  0  0
  137.9267   77.5910  221.0525 H   0  0  0  0  0  0  0  0  0  0  0  0
  140.1098   79.8720  221.4034 H   0  0  0  0  0  0  0  0  0  0  0  0
  138.5238   79.4608  222.0511 H   0  0  0  0  0  0  0  0  0  0  0  0
  139.3538   81.2504  223.5167 H   0  0  0  0  0  0  0  0  0  0  0  0
  139.6362   79.7931  224.4645 H   0  0  0  0  0  0  0  0  0  0  0  0
  141.5908   81.4413  222.7952 H   0  0  0  0  0  0  0  0  0  0  0  0
  141.7971   80.7547  224.4591 H   0  0  0  0  0  0  0  0  0  0  0  0
  142.2535   79.5240  221.7881 H   0  0  0  0  0  0  0  0  0  0  0  0
  143.1337   79.3381  223.3748 H   0  0  0  0  0  0  0  0  0  0  0  0
  141.9948   77.2491  222.6333 H   0  0  0  0  0  0  0  0  0  0  0  0
  141.4157   77.8618  224.2139 H   0  0  0  0  0  0  0  0  0  0  0  0
  139.0790   69.2326  223.0147 H   0  0  0  0  0  0  0  0  0  0  0  0
  139.4442   68.1439  225.2497 H   0  0  0  0  0  0  0  0  0  0  0  0
  140.1580   68.2670  227.4916 H   0  0  0  0  0  0  0  0  0  0  0  0
  141.1124   69.6416  229.3650 H   0  0  0  0  0  0  0  0  0  0  0  0
  141.6781   72.0074  229.0134 H   0  0  0  0  0  0  0  0  0  0  0  0
  141.3249   73.1093  226.8031 H   0  0  0  0  0  0  0  0  0  0  0  0
  1  2  2  0
  2  3  1  0
  3  4  1  0
  4  5  1  0
  5  6  2  0
  5  7  1  0
  7  8  1  0
  8  9  1  0
  9 10  1  0
  9 11  1  0
 11 12  1  0
 12 13  1  0
 13 14  2  0
 13 15  1  0
 15 16  1  0
 16 17  1  0
 17 18  1  0
 18 19  1  0
 19 20  1  0
  2 21  1  0
 21 22  2  0
 22 23  1  0
 23 24  2  0
 24 25  1  0
 25 26  2  0
 26 27  1  0
 27 28  2  0
 28 29  1  0
 29 30  2  0
 12  7  1  0
 20 15  1  0
 30 21  1  0
 29 24  1  0
  3 31  1  0
  4 32  1  0
  4 33  1  0
  8 34  1  0
  8 35  1  0
  9 36  1  1
 11 37  1  0
 11 38  1  0
 12 39  1  6
 16 40  1  0
 16 41  1  0
 17 42  1  0
 17 43  1  0
 18 44  1  0
 18 45  1  0
 19 46  1  0
 19 47  1  0
 20 48  1  0
 20 49  1  0
 22 50  1  0
 23 51  1  0
 25 52  1  0
 26 53  1  0
 27 54  1  0
 28 55  1  0
M  END
>  <smiles>  (27) 
O=C(NCC(=O)N1C[C@H](F)C[C@H]1C(=O)N1CCCCC1)c1ccc2ccccc2n1

>  <score_type>  (27) 
oracle

>  <origin>  (27) 
autodockgpu

>  <m_score__min__energy>  (27) 
-8.8300000000000001

>  <m_primary>  (27) 
energy

>  <rmsd>  (27) 
3.327502056752809

>  <m_score__min__rmsd>  (27) 
3.327502056752809

>  <meeko>  (27) 
{"free_energy": -8.17, "intermolecular_energy": -9.66, "internal_energy": -2.15, "cluster_size": 16, "cluster_id": 2, "rank_in_cluster": 7}

>  <energy>  (27) 
-7.99

>  <cluster_rmsd>  (27) 
0.08

>  <cluster>  (27) 
3

$$$$

     RDKit          3D

 55 58  0  0  0  0  0  0  0  0999 V2000
  140.9760   72.1140  221.6880 O   0  0  0  0  0  0  0  0  0  0  0  0
  140.0800   72.1820  222.5720 C   0  0  0  0  0  0  0  0  0  0  0  0
  138.9990   73.1420  222.3380 N   0  0  0  0  0  0  0  0  0  0  0  0
  139.0950   73.8810  221.1370 C   0  0  0  0  0  0  0  0  0  0  0  0
  139.9010   75.0830  221.1320 C   0  0  0  0  0  0  0  0  0  0  0  0
  139.5080   75.9750  222.0090 O   0  0  0  0  0  0  0  0  0  0  0  0
  141.0330   75.4480  220.3400 N   0  0  0  0  0  0  0  0  0  0  0  0
  141.5480   74.8680  219.1300 C   0  0  0  0  0  0  0  0  0  0  0  0
  142.9420   75.4300  219.0020 C   0  0  2  0  0  0  0  0  0  0  0  0
  143.8270   74.5960  219.6110 F   0  0  0  0  0  0  0  0  0  0  0  0
  142.8400   76.7730  219.6800 C   0  0  0  0  0  0  0  0  0  0  0  0
  141.8320   76.6250  220.7570 C   0  0  1  0  0  0  0  0  0  0  0  0
  140.9300   77.8120  220.8560 C   0  0  0  0  0  0  0  0  0  0  0  0
  140.0930   77.9490  219.9170 O   0  0  0  0  0  0  0  0  0  0  0  0
  140.9790   78.7430  221.9190 N   0  0  0  0  0  0  0  0  0  0  0  0
  141.8900   78.6590  223.0420 C   0  0  0  0  0  0  0  0  0  0  0  0
  142.5020   80.0610  223.1490 C   0  0  0  0  0  0  0  0  0  0  0  0
  141.4000   80.9150  223.7760 C   0  0  0  0  0  0  0  0  0  0  0  0
  140.0380   80.5020  223.2910 C   0  0  0  0  0  0  0  0  0  0  0  0
  140.0630   79.8720  221.9050 C   0  0  0  0  0  0  0  0  0  0  0  0
  140.0870   71.3650  223.7790 C   0  0  0  0  0  0  0  0  0  0  0  0
  139.5670   70.0910  223.6720 C   0  0  0  0  0  0  0  0  0  0  0  0
  139.5480   69.2610  224.7970 C   0  0  0  0  0  0  0  0  0  0  0  0
  140.0570   69.7460  226.0040 C   0  0  0  0  0  0  0  0  0  0  0  0
  140.0200   68.8970  227.0870 C   0  0  0  0  0  0  0  0  0  0  0  0
  140.5300   69.3950  228.2800 C   0  0  0  0  0  0  0  0  0  0  0  0
  141.0430   70.6760  228.3530 C   0  0  0  0  0  0  0  0  0  0  0  0
  141.0720   71.5170  227.2470 C   0  0  0  0  0  0  0  0  0  0  0  0
  140.5670   71.0290  226.0600 C   0  0  0  0  0  0  0  0  0  0  0  0
  140.5780   71.8250  224.9550 N   0  0  0  0  0  0  0  0  0  0  0  0
  138.3080   73.1620  223.0920 H   0  0  0  0  0  0  0  0  0  0  0  0
  139.5104   73.2075  220.3729 H   0  0  0  0  0  0  0  0  0  0  0  0
  138.0711   74.2408  220.9579 H   0  0  0  0  0  0  0  0  0  0  0  0
  141.5771   73.7711  219.2069 H   0  0  0  0  0  0  0  0  0  0  0  0
  140.9221   75.1016  218.2561 H   0  0  0  0  0  0  0  0  0  0  0  0
  143.3013   75.5302  217.9672 H   0  0  0  0  0  0  0  0  0  0  0  0
  143.8129   77.0583  220.1066 H   0  0  0  0  0  0  0  0  0  0  0  0
  142.5478   77.5577  218.9666 H   0  0  0  0  0  0  0  0  0  0  0  0
  142.3150   76.5203  221.7397 H   0  0  0  0  0  0  0  0  0  0  0  0
  141.3477   78.4006  223.9635 H   0  0  0  0  0  0  0  0  0  0  0  0
  142.6538   77.8798  222.9023 H   0  0  0  0  0  0  0  0  0  0  0  0
  143.3952   80.0470  223.7908 H   0  0  0  0  0  0  0  0  0  0  0  0
  142.8274   80.4501  222.1729 H   0  0  0  0  0  0  0  0  0  0  0  0
  141.4392   80.8022  224.8695 H   0  0  0  0  0  0  0  0  0  0  0  0
  141.5671   81.9622  223.4836 H   0  0  0  0  0  0  0  0  0  0  0  0
  139.6205   79.7718  223.9999 H   0  0  0  0  0  0  0  0  0  0  0  0
  139.4230   81.4118  223.2266 H   0  0  0  0  0  0  0  0  0  0  0  0
  139.0536   79.5256  221.6383 H   0  0  0  0  0  0  0  0  0  0  0  0
  140.3957   80.6135  221.1638 H   0  0  0  0  0  0  0  0  0  0  0  0
  139.1712   69.7320  222.7105 H   0  0  0  0  0  0  0  0  0  0  0  0
  139.1386   68.2420  224.7326 H   0  0  0  0  0  0  0  0  0  0  0  0
  139.6090   67.8794  227.0122 H   0  0  0  0  0  0  0  0  0  0  0  0
  140.5252   68.7606  229.1786 H   0  0  0  0  0  0  0  0  0  0  0  0
  141.4391   71.0399  229.3125 H   0  0  0  0  0  0  0  0  0  0  0  0
  141.4829   72.5351  227.3158 H   0  0  0  0  0  0  0  0  0  0  0  0
  1  2  2  0
  2  3  1  0
  3  4  1  0
  4  5  1  0
  5  6  2  0
  5  7  1  0
  7  8  1  0
  8  9  1  0
  9 10  1  0
  9 11  1  0
 11 12  1  0
 12 13  1  0
 13 14  2  0
 13 15  1  0
 15 16  1  0
 16 17  1  0
 17 18  1  0
 18 19  1  0
 19 20  1  0
  2 21  1  0
 21 22  2  0
 22 23  1  0
 23 24  2  0
 24 25  1  0
 25 26  2  0
 26 27  1  0
 27 28  2  0
 28 29  1  0
 29 30  2  0
 12  7  1  0
 20 15  1  0
 30 21  1  0
 29 24  1  0
  3 31  1  0
  4 32  1  0
  4 33  1  0
  8 34  1  0
  8 35  1  0
  9 36  1  6
 11 37  1  0
 11 38  1  0
 12 39  1  1
 16 40  1  0
 16 41  1  0
 17 42  1  0
 17 43  1  0
 18 44  1  0
 18 45  1  0
 19 46  1  0
 19 47  1  0
 20 48  1  0
 20 49  1  0
 22 50  1  0
 23 51  1  0
 25 52  1  0
 26 53  1  0
 27 54  1  0
 28 55  1  0
M  END
>  <smiles>  (28) 
O=C(NCC(=O)N1C[C@H](F)C[C@H]1C(=O)N1CCCCC1)c1ccc2ccccc2n1

>  <score_type>  (28) 
oracle

>  <origin>  (28) 
autodockgpu

>  <m_score__min__energy>  (28) 
-8.8300000000000001

>  <m_primary>  (28) 
energy

>  <rmsd>  (28) 
2.112345911491603

>  <m_score__min__rmsd>  (28) 
2.112345911491603

>  <meeko>  (28) 
{"free_energy": -8.54, "intermolecular_energy": -10.03, "internal_energy": -1.23, "cluster_size": 9, "cluster_id": 1, "rank_in_cluster": 6}

>  <energy>  (28) 
-7.93

>  <cluster_rmsd>  (28) 
0.29

>  <cluster>  (28) 
3

$$$$

     RDKit          3D

 55 58  0  0  0  0  0  0  0  0999 V2000
  139.3920   70.2050  221.5600 O   0  0  0  0  0  0  0  0  0  0  0  0
  139.3450   71.0800  222.4660 C   0  0  0  0  0  0  0  0  0  0  0  0
  138.8270   72.3950  222.0820 N   0  0  0  0  0  0  0  0  0  0  0  0
  138.4390   72.5200  220.7280 C   0  0  0  0  0  0  0  0  0  0  0  0
  139.4740   72.6540  219.7260 C   0  0  0  0  0  0  0  0  0  0  0  0
  139.0040   72.8500  218.5180 O   0  0  0  0  0  0  0  0  0  0  0  0
  140.8980   72.6050  219.8380 N   0  0  0  0  0  0  0  0  0  0  0  0
  141.8930   72.2010  218.8830 C   0  0  0  0  0  0  0  0  0  0  0  0
  143.1450   72.0040  219.7000 C   0  0  2  0  0  0  0  0  0  0  0  0
  143.2210   70.7100  220.1120 F   0  0  0  0  0  0  0  0  0  0  0  0
  142.9750   72.9750  220.8410 C   0  0  0  0  0  0  0  0  0  0  0  0
  141.5190   73.0610  221.1040 C   0  0  1  0  0  0  0  0  0  0  0  0
  141.0750   74.4600  221.3840 C   0  0  0  0  0  0  0  0  0  0  0  0
  140.2510   74.5990  222.3330 O   0  0  0  0  0  0  0  0  0  0  0  0
  141.5290   75.5830  220.6540 N   0  0  0  0  0  0  0  0  0  0  0  0
  142.4800   75.5230  219.5630 C   0  0  0  0  0  0  0  0  0  0  0  0
  141.8340   76.3450  218.4400 C   0  0  0  0  0  0  0  0  0  0  0  0
  142.0270   77.8000  218.8700 C   0  0  0  0  0  0  0  0  0  0  0  0
  141.9040   77.9570  220.3600 C   0  0  0  0  0  0  0  0  0  0  0  0
  141.0170   76.8990  221.0010 C   0  0  0  0  0  0  0  0  0  0  0  0
  139.7780   70.8340  223.8360 C   0  0  0  0  0  0  0  0  0  0  0  0
  140.4920   71.8400  224.4540 C   0  0  0  0  0  0  0  0  0  0  0  0
  140.9330   71.6600  225.7690 C   0  0  0  0  0  0  0  0  0  0  0  0
  140.6380   70.4620  226.4240 C   0  0  0  0  0  0  0  0  0  0  0  0
  141.0900   70.3260  227.7160 C   0  0  0  0  0  0  0  0  0  0  0  0
  140.7880   69.1270  228.3530 C   0  0  0  0  0  0  0  0  0  0  0  0
  140.0720   68.1400  227.7040 C   0  0  0  0  0  0  0  0  0  0  0  0
  139.6240   68.2980  226.3980 C   0  0  0  0  0  0  0  0  0  0  0  0
  139.9200   69.4850  225.7600 C   0  0  0  0  0  0  0  0  0  0  0  0
  139.4990   69.6750  224.4800 N   0  0  0  0  0  0  0  0  0  0  0  0
  138.8220   73.0670  222.8530 H   0  0  0  0  0  0  0  0  0  0  0  0
  137.8536   71.6242  220.4733 H   0  0  0  0  0  0  0  0  0  0  0  0
  137.8984   73.4772  220.6885 H   0  0  0  0  0  0  0  0  0  0  0  0
  141.5995   71.2628  218.3895 H   0  0  0  0  0  0  0  0  0  0  0  0
  142.0292   72.9431  218.0825 H   0  0  0  0  0  0  0  0  0  0  0  0
  144.0813   72.1906  219.1535 H   0  0  0  0  0  0  0  0  0  0  0  0
  143.5019   72.6083  221.7343 H   0  0  0  0  0  0  0  0  0  0  0  0
  143.3940   73.9609  220.5913 H   0  0  0  0  0  0  0  0  0  0  0  0
  141.2409   72.4651  221.9858 H   0  0  0  0  0  0  0  0  0  0  0  0
  143.4425   75.9636  219.8623 H   0  0  0  0  0  0  0  0  0  0  0  0
  142.6941   74.4896  219.2530 H   0  0  0  0  0  0  0  0  0  0  0  0
  142.3359   76.1535  217.4801 H   0  0  0  0  0  0  0  0  0  0  0  0
  140.7743   76.0899  218.2917 H   0  0  0  0  0  0  0  0  0  0  0  0
  143.0268   78.1353  218.5569 H   0  0  0  0  0  0  0  0  0  0  0  0
  141.2426   78.4067  218.3939 H   0  0  0  0  0  0  0  0  0  0  0  0
  142.9083   77.8873  220.8034 H   0  0  0  0  0  0  0  0  0  0  0  0
  141.4371   78.9348  220.5492 H   0  0  0  0  0  0  0  0  0  0  0  0
  141.0258   77.0224  222.0940 H   0  0  0  0  0  0  0  0  0  0  0  0
  139.9850   77.0061  220.6355 H   0  0  0  0  0  0  0  0  0  0  0  0
  140.7123   72.7747  223.9175 H   0  0  0  0  0  0  0  0  0  0  0  0
  141.5035   72.4498  226.2797 H   0  0  0  0  0  0  0  0  0  0  0  0
  141.6593   71.1221  228.2181 H   0  0  0  0  0  0  0  0  0  0  0  0
  141.1238   68.9625  229.3875 H   0  0  0  0  0  0  0  0  0  0  0  0
  139.8503   67.2029  228.2357 H   0  0  0  0  0  0  0  0  0  0  0  0
  139.0540   67.5054  225.8912 H   0  0  0  0  0  0  0  0  0  0  0  0
  1  2  2  0
  2  3  1  0
  3  4  1  0
  4  5  1  0
  5  6  2  0
  5  7  1  0
  7  8  1  0
  8  9  1  0
  9 10  1  0
  9 11  1  0
 11 12  1  0
 12 13  1  0
 13 14  2  0
 13 15  1  0
 15 16  1  0
 16 17  1  0
 17 18  1  0
 18 19  1  0
 19 20  1  0
  2 21  1  0
 21 22  2  0
 22 23  1  0
 23 24  2  0
 24 25  1  0
 25 26  2  0
 26 27  1  0
 27 28  2  0
 28 29  1  0
 29 30  2  0
 12  7  1  0
 20 15  1  0
 30 21  1  0
 29 24  1  0
  3 31  1  0
  4 32  1  0
  4 33  1  0
  8 34  1  0
  8 35  1  0
  9 36  1  6
 11 37  1  0
 11 38  1  0
 12 39  1  1
 16 40  1  0
 16 41  1  0
 17 42  1  0
 17 43  1  0
 18 44  1  0
 18 45  1  0
 19 46  1  0
 19 47  1  0
 20 48  1  0
 20 49  1  0
 22 50  1  0
 23 51  1  0
 25 52  1  0
 26 53  1  0
 27 54  1  0
 28 55  1  0
M  END
>  <smiles>  (29) 
O=C(NCC(=O)N1C[C@H](F)C[C@H]1C(=O)N1CCCCC1)c1ccc2ccccc2n1

>  <score_type>  (29) 
oracle

>  <origin>  (29) 
autodockgpu

>  <m_score__min__energy>  (29) 
-8.8300000000000001

>  <m_primary>  (29) 
energy

>  <rmsd>  (29) 
3.8901959512653246

>  <m_score__min__rmsd>  (29) 
3.8901959512653246

>  <meeko>  (29) 
{"free_energy": -7.25, "intermolecular_energy": -8.75, "internal_energy": -2.32, "cluster_size": 4, "cluster_id": 4, "rank_in_cluster": 1}

>  <energy>  (29) 
-7.92

>  <cluster_rmsd>  (29) 
0.29

>  <cluster>  (29) 
3

$$$$

     RDKit          3D

 55 58  0  0  0  0  0  0  0  0999 V2000
  138.9130   70.4780  221.3700 O   0  0  0  0  0  0  0  0  0  0  0  0
  139.0020   71.2230  222.3830 C   0  0  0  0  0  0  0  0  0  0  0  0
  138.7080   72.6430  222.1810 N   0  0  0  0  0  0  0  0  0  0  0  0
  138.3560   73.0060  220.8610 C   0  0  0  0  0  0  0  0  0  0  0  0
  138.2150   74.4130  220.5500 C   0  0  0  0  0  0  0  0  0  0  0  0
  137.2760   74.6570  219.6680 O   0  0  0  0  0  0  0  0  0  0  0  0
  138.9200   75.5550  221.0390 N   0  0  0  0  0  0  0  0  0  0  0  0
  138.4670   76.6490  221.8550 C   0  0  0  0  0  0  0  0  0  0  0  0
  139.5370   77.7020  221.7060 C   0  0  2  0  0  0  0  0  0  0  0  0
  139.2200   78.5280  220.6740 F   0  0  0  0  0  0  0  0  0  0  0  0
  140.7860   76.8970  221.4530 C   0  0  0  0  0  0  0  0  0  0  0  0
  140.3610   75.6820  220.7190 C   0  0  1  0  0  0  0  0  0  0  0  0
  141.0710   74.4560  221.1950 C   0  0  0  0  0  0  0  0  0  0  0  0
  140.7230   74.0210  222.3300 O   0  0  0  0  0  0  0  0  0  0  0  0
  142.0750   73.7960  220.4480 N   0  0  0  0  0  0  0  0  0  0  0  0
  142.5280   74.2110  219.1360 C   0  0  0  0  0  0  0  0  0  0  0  0
  144.0580   74.2220  219.2410 C   0  0  0  0  0  0  0  0  0  0  0  0
  144.4570   72.7470  219.1950 C   0  0  0  0  0  0  0  0  0  0  0  0
  143.4570   71.8820  219.9120 C   0  0  0  0  0  0  0  0  0  0  0  0
  142.7120   72.6190  221.0160 C   0  0  0  0  0  0  0  0  0  0  0  0
  139.3780   70.7320  223.7040 C   0  0  0  0  0  0  0  0  0  0  0  0
  139.1870   69.3870  223.9460 C   0  0  0  0  0  0  0  0  0  0  0  0
  139.5300   68.8600  225.1950 C   0  0  0  0  0  0  0  0  0  0  0  0
  140.0580   69.7110  226.1670 C   0  0  0  0  0  0  0  0  0  0  0  0
  140.3830   69.1530  227.3820 C   0  0  0  0  0  0  0  0  0  0  0  0
  140.9080   70.0150  228.3390 C   0  0  0  0  0  0  0  0  0  0  0  0
  141.0860   71.3570  228.0630 C   0  0  0  0  0  0  0  0  0  0  0  0
  140.7520   71.9020  226.8280 C   0  0  0  0  0  0  0  0  0  0  0  0
  140.2300   71.0520  225.8750 C   0  0  0  0  0  0  0  0  0  0  0  0
  139.8910   71.5490  224.6540 N   0  0  0  0  0  0  0  0  0  0  0  0
  138.8070   73.2000  223.0340 H   0  0  0  0  0  0  0  0  0  0  0  0
  139.1317   72.6013  220.1942 H   0  0  0  0  0  0  0  0  0  0  0  0
  137.3440   72.5960  220.7277 H   0  0  0  0  0  0  0  0  0  0  0  0
  137.4980   77.0262  221.4960 H   0  0  0  0  0  0  0  0  0  0  0  0
  138.3155   76.3531  222.9036 H   0  0  0  0  0  0  0  0  0  0  0  0
  139.6570   78.3602  222.5791 H   0  0  0  0  0  0  0  0  0  0  0  0
  141.4966   77.4782  220.8470 H   0  0  0  0  0  0  0  0  0  0  0  0
  141.2897   76.6369  222.3956 H   0  0  0  0  0  0  0  0  0  0  0  0
  140.5808   75.7717  219.6449 H   0  0  0  0  0  0  0  0  0  0  0  0
  142.1966   73.4976  218.3671 H   0  0  0  0  0  0  0  0  0  0  0  0
  142.1226   75.1914  218.8454 H   0  0  0  0  0  0  0  0  0  0  0  0
  144.5014   74.7710  218.3972 H   0  0  0  0  0  0  0  0  0  0  0  0
  144.4103   74.7217  220.1554 H   0  0  0  0  0  0  0  0  0  0  0  0
  144.5188   72.4262  218.1446 H   0  0  0  0  0  0  0  0  0  0  0  0
  145.4300   72.6372  219.6963 H   0  0  0  0  0  0  0  0  0  0  0  0
  142.7232   71.5147  219.1795 H   0  0  0  0  0  0  0  0  0  0  0  0
  144.0143   71.0600  220.3850 H   0  0  0  0  0  0  0  0  0  0  0  0
  141.9473   71.9584  221.4504 H   0  0  0  0  0  0  0  0  0  0  0  0
  143.4167   72.9202  221.8051 H   0  0  0  0  0  0  0  0  0  0  0  0
  138.7691   68.7358  223.1641 H   0  0  0  0  0  0  0  0  0  0  0  0
  139.3858   67.7905  225.4083 H   0  0  0  0  0  0  0  0  0  0  0  0
  140.2354   68.0821  227.5856 H   0  0  0  0  0  0  0  0  0  0  0  0
  141.1852   69.6231  229.3287 H   0  0  0  0  0  0  0  0  0  0  0  0
  141.5034   72.0124  228.8416 H   0  0  0  0  0  0  0  0  0  0  0  0
  140.8987   72.9719  226.6186 H   0  0  0  0  0  0  0  0  0  0  0  0
  1  2  2  0
  2  3  1  0
  3  4  1  0
  4  5  1  0
  5  6  2  0
  5  7  1  0
  7  8  1  0
  8  9  1  0
  9 10  1  0
  9 11  1  0
 11 12  1  0
 12 13  1  0
 13 14  2  0
 13 15  1  0
 15 16  1  0
 16 17  1  0
 17 18  1  0
 18 19  1  0
 19 20  1  0
  2 21  1  0
 21 22  2  0
 22 23  1  0
 23 24  2  0
 24 25  1  0
 25 26  2  0
 26 27  1  0
 27 28  2  0
 28 29  1  0
 29 30  2  0
 12  7  1  0
 20 15  1  0
 30 21  1  0
 29 24  1  0
  3 31  1  0
  4 32  1  0
  4 33  1  0
  8 34  1  0
  8 35  1  0
  9 36  1  1
 11 37  1  0
 11 38  1  0
 12 39  1  6
 16 40  1  0
 16 41  1  0
 17 42  1  0
 17 43  1  0
 18 44  1  0
 18 45  1  0
 19 46  1  0
 19 47  1  0
 20 48  1  0
 20 49  1  0
 22 50  1  0
 23 51  1  0
 25 52  1  0
 26 53  1  0
 27 54  1  0
 28 55  1  0
M  END
>  <smiles>  (30) 
O=C(NCC(=O)N1C[C@H](F)C[C@H]1C(=O)N1CCCCC1)c1ccc2ccccc2n1

>  <score_type>  (30) 
oracle

>  <origin>  (30) 
autodockgpu

>  <m_score__min__energy>  (30) 
-8.8300000000000001

>  <m_primary>  (30) 
energy

>  <rmsd>  (30) 
4.527958182295439

>  <m_score__min__rmsd>  (30) 
4.527958182295439

>  <meeko>  (30) 
{"free_energy": -7.47, "intermolecular_energy": -8.96, "internal_energy": -2.34, "cluster_size": 20, "cluster_id": 3, "rank_in_cluster": 20}

>  <energy>  (30) 
-7.89

>  <cluster_rmsd>  (30) 
1.72

>  <cluster>  (30) 
3

$$$$

     RDKit          3D

 55 58  0  0  0  0  0  0  0  0999 V2000
  138.2700   70.2890  221.5990 O   0  0  0  0  0  0  0  0  0  0  0  0
  138.5910   71.0240  222.5720 C   0  0  0  0  0  0  0  0  0  0  0  0
  138.4580   72.4690  222.3730 N   0  0  0  0  0  0  0  0  0  0  0  0
  137.9810   72.8650  221.1030 C   0  0  0  0  0  0  0  0  0  0  0  0
  138.1150   74.2540  220.7200 C   0  0  0  0  0  0  0  0  0  0  0  0
  137.5610   74.5300  219.5650 O   0  0  0  0  0  0  0  0  0  0  0  0
  138.7430   75.3520  221.3860 N   0  0  0  0  0  0  0  0  0  0  0  0
  138.2280   76.2580  222.3750 C   0  0  0  0  0  0  0  0  0  0  0  0
  139.2120   77.4010  222.3930 C   0  0  2  0  0  0  0  0  0  0  0  0
  138.8130   78.3580  221.5140 F   0  0  0  0  0  0  0  0  0  0  0  0
  140.5130   76.7480  222.0000 C   0  0  0  0  0  0  0  0  0  0  0  0
  140.1640   75.6400  221.0790 C   0  0  1  0  0  0  0  0  0  0  0  0
  140.9740   74.4110  221.3390 C   0  0  0  0  0  0  0  0  0  0  0  0
  140.6110   73.7100  222.3280 O   0  0  0  0  0  0  0  0  0  0  0  0
  142.0820   74.0240  220.5500 N   0  0  0  0  0  0  0  0  0  0  0  0
  142.5590   74.7540  219.3940 C   0  0  0  0  0  0  0  0  0  0  0  0
  144.0720   74.8830  219.6160 C   0  0  0  0  0  0  0  0  0  0  0  0
  144.6280   73.4970  219.2920 C   0  0  0  0  0  0  0  0  0  0  0  0
  143.6880   72.4080  219.7320 C   0  0  0  0  0  0  0  0  0  0  0  0
  142.8090   72.8160  220.9050 C   0  0  0  0  0  0  0  0  0  0  0  0
  139.0760   70.4990  223.8420 C   0  0  0  0  0  0  0  0  0  0  0  0
  138.9410   69.1410  224.0470 C   0  0  0  0  0  0  0  0  0  0  0  0
  139.3880   68.5810  225.2480 C   0  0  0  0  0  0  0  0  0  0  0  0
  139.9610   69.4140  226.2110 C   0  0  0  0  0  0  0  0  0  0  0  0
  140.3890   68.8230  227.3780 C   0  0  0  0  0  0  0  0  0  0  0  0
  140.9560   69.6670  228.3260 C   0  0  0  0  0  0  0  0  0  0  0  0
  141.0750   71.0230  228.0890 C   0  0  0  0  0  0  0  0  0  0  0  0
  140.6370   71.6000  226.9030 C   0  0  0  0  0  0  0  0  0  0  0  0
  140.0730   70.7680  225.9580 C   0  0  0  0  0  0  0  0  0  0  0  0
  139.6320   71.2980  224.7840 N   0  0  0  0  0  0  0  0  0  0  0  0
  138.7420   73.0150  223.1910 H   0  0  0  0  0  0  0  0  0  0  0  0
  138.5193   72.2674  220.3526 H   0  0  0  0  0  0  0  0  0  0  0  0
  136.8944   72.7038  221.1600 H   0  0  0  0  0  0  0  0  0  0  0  0
  137.2259   76.6127  222.0923 H   0  0  0  0  0  0  0  0  0  0  0  0
  138.1225   75.7828  223.3614 H   0  0  0  0  0  0  0  0  0  0  0  0
  139.2996   77.9142  223.3620 H   0  0  0  0  0  0  0  0  0  0  0  0
  141.1648   77.4740  221.4919 H   0  0  0  0  0  0  0  0  0  0  0  0
  141.0555   76.3772  222.8822 H   0  0  0  0  0  0  0  0  0  0  0  0
  140.3535   75.9210  220.0325 H   0  0  0  0  0  0  0  0  0  0  0  0
  142.3482   74.1974  218.4689 H   0  0  0  0  0  0  0  0  0  0  0  0
  142.0679   75.7324  219.2862 H   0  0  0  0  0  0  0  0  0  0  0  0
  144.5002   75.6404  218.9429 H   0  0  0  0  0  0  0  0  0  0  0  0
  144.3180   75.2027  220.6394 H   0  0  0  0  0  0  0  0  0  0  0  0
  144.7818   73.4188  218.2056 H   0  0  0  0  0  0  0  0  0  0  0  0
  145.5778   73.3717  219.8326 H   0  0  0  0  0  0  0  0  0  0  0  0
  143.0393   72.1419  218.8844 H   0  0  0  0  0  0  0  0  0  0  0  0
  144.3028   71.5580  220.0630 H   0  0  0  0  0  0  0  0  0  0  0  0
  142.0965   72.0090  221.1309 H   0  0  0  0  0  0  0  0  0  0  0  0
  143.4330   73.0031  221.7913 H   0  0  0  0  0  0  0  0  0  0  0  0
  138.4862   68.5051  223.2732 H   0  0  0  0  0  0  0  0  0  0  0  0
  139.2897   67.5008  225.4312 H   0  0  0  0  0  0  0  0  0  0  0  0
  140.2879   67.7414  227.5512 H   0  0  0  0  0  0  0  0  0  0  0  0
  141.3150   69.2494  229.2782 H   0  0  0  0  0  0  0  0  0  0  0  0
  141.5287   71.6632  228.8599 H   0  0  0  0  0  0  0  0  0  0  0  0
  140.7364   72.6808  226.7242 H   0  0  0  0  0  0  0  0  0  0  0  0
  1  2  2  0
  2  3  1  0
  3  4  1  0
  4  5  1  0
  5  6  2  0
  5  7  1  0
  7  8  1  0
  8  9  1  0
  9 10  1  0
  9 11  1  0
 11 12  1  0
 12 13  1  0
 13 14  2  0
 13 15  1  0
 15 16  1  0
 16 17  1  0
 17 18  1  0
 18 19  1  0
 19 20  1  0
  2 21  1  0
 21 22  2  0
 22 23  1  0
 23 24  2  0
 24 25  1  0
 25 26  2  0
 26 27  1  0
 27 28  2  0
 28 29  1  0
 29 30  2  0
 12  7  1  0
 20 15  1  0
 30 21  1  0
 29 24  1  0
  3 31  1  0
  4 32  1  0
  4 33  1  0
  8 34  1  0
  8 35  1  0
  9 36  1  1
 11 37  1  0
 11 38  1  0
 12 39  1  6
 16 40  1  0
 16 41  1  0
 17 42  1  0
 17 43  1  0
 18 44  1  0
 18 45  1  0
 19 46  1  0
 19 47  1  0
 20 48  1  0
 20 49  1  0
 22 50  1  0
 23 51  1  0
 25 52  1  0
 26 53  1  0
 27 54  1  0
 28 55  1  0
M  END
>  <smiles>  (31) 
O=C(NCC(=O)N1C[C@H](F)C[C@H]1C(=O)N1CCCCC1)c1ccc2ccccc2n1

>  <score_type>  (31) 
oracle

>  <origin>  (31) 
autodockgpu

>  <m_score__min__energy>  (31) 
-8.8300000000000001

>  <m_primary>  (31) 
energy

>  <rmsd>  (31) 
4.433805039593897

>  <m_score__min__rmsd>  (31) 
4.433805039593897

>  <meeko>  (31) 
{"free_energy": -7.84, "intermolecular_energy": -9.33, "internal_energy": -2.39, "cluster_size": 20, "cluster_id": 3, "rank_in_cluster": 10}

>  <energy>  (31) 
-7.87

>  <cluster_rmsd>  (31) 
0.41

>  <cluster>  (31) 
3

$$$$

     RDKit          3D

 55 58  0  0  0  0  0  0  0  0999 V2000
  140.8700   71.5770  221.3750 O   0  0  0  0  0  0  0  0  0  0  0  0
  140.3890   72.1100  222.4110 C   0  0  0  0  0  0  0  0  0  0  0  0
  139.9690   73.5090  222.2940 N   0  0  0  0  0  0  0  0  0  0  0  0
  140.1580   74.0930  221.0210 C   0  0  0  0  0  0  0  0  0  0  0  0
  139.0070   74.6500  220.3430 C   0  0  0  0  0  0  0  0  0  0  0  0
  138.9790   74.3800  219.0610 O   0  0  0  0  0  0  0  0  0  0  0  0
  137.9170   75.4320  220.8370 N   0  0  0  0  0  0  0  0  0  0  0  0
  136.5670   75.0530  221.1530 C   0  0  0  0  0  0  0  0  0  0  0  0
  135.8180   76.3580  221.2480 C   0  0  2  0  0  0  0  0  0  0  0  0
  135.2940   76.6710  220.0330 F   0  0  0  0  0  0  0  0  0  0  0  0
  136.8740   77.3340  221.7020 C   0  0  0  0  0  0  0  0  0  0  0  0
  138.1550   76.8670  221.1220 C   0  0  1  0  0  0  0  0  0  0  0  0
  139.2910   76.9870  222.0860 C   0  0  0  0  0  0  0  0  0  0  0  0
  139.4150   76.0380  222.9130 O   0  0  0  0  0  0  0  0  0  0  0  0
  140.1900   78.0780  222.1000 N   0  0  0  0  0  0  0  0  0  0  0  0
  140.1350   79.1990  221.1850 C   0  0  0  0  0  0  0  0  0  0  0  0
  140.2290   80.4380  222.0850 C   0  0  0  0  0  0  0  0  0  0  0  0
  141.7010   80.5090  222.4880 C   0  0  0  0  0  0  0  0  0  0  0  0
  142.2860   79.1380  222.6870 C   0  0  0  0  0  0  0  0  0  0  0  0
  141.2500   78.1000  223.0950 C   0  0  0  0  0  0  0  0  0  0  0  0
  140.2440   71.4040  223.6780 C   0  0  0  0  0  0  0  0  0  0  0  0
  139.5890   70.1900  223.6420 C   0  0  0  0  0  0  0  0  0  0  0  0
  139.4210   69.4660  224.8270 C   0  0  0  0  0  0  0  0  0  0  0  0
  139.9200   69.9950  226.0190 C   0  0  0  0  0  0  0  0  0  0  0  0
  139.7340   69.2520  227.1630 C   0  0  0  0  0  0  0  0  0  0  0  0
  140.2370   69.7920  228.3400 C   0  0  0  0  0  0  0  0  0  0  0  0
  140.8860   71.0120  228.3400 C   0  0  0  0  0  0  0  0  0  0  0  0
  141.0650   71.7470  227.1740 C   0  0  0  0  0  0  0  0  0  0  0  0
  140.5680   71.2160  226.0020 C   0  0  0  0  0  0  0  0  0  0  0  0
  140.7230   71.9080  224.8400 N   0  0  0  0  0  0  0  0  0  0  0  0
  139.5970   73.8920  223.1670 H   0  0  0  0  0  0  0  0  0  0  0  0
  140.8898   74.9055  221.1410 H   0  0  0  0  0  0  0  0  0  0  0  0
  140.4696   73.2540  220.3814 H   0  0  0  0  0  0  0  0  0  0  0  0
  136.1452   74.4201  220.3583 H   0  0  0  0  0  0  0  0  0  0  0  0
  136.5047   74.4676  222.0822 H   0  0  0  0  0  0  0  0  0  0  0  0
  134.9623   76.3455  221.9391 H   0  0  0  0  0  0  0  0  0  0  0  0
  136.6384   78.3452  221.3386 H   0  0  0  0  0  0  0  0  0  0  0  0
  136.9275   77.3803  222.7997 H   0  0  0  0  0  0  0  0  0  0  0  0
  138.4317   77.4647  220.2410 H   0  0  0  0  0  0  0  0  0  0  0  0
  140.9785   79.1664  220.4797 H   0  0  0  0  0  0  0  0  0  0  0  0
  139.2197   79.1950  220.5749 H   0  0  0  0  0  0  0  0  0  0  0  0
  139.9331   81.3424  221.5332 H   0  0  0  0  0  0  0  0  0  0  0  0
  139.5601   80.3734  222.9559 H   0  0  0  0  0  0  0  0  0  0  0  0
  142.2635   81.0259  221.6966 H   0  0  0  0  0  0  0  0  0  0  0  0
  141.7716   81.0553  223.4402 H   0  0  0  0  0  0  0  0  0  0  0  0
  142.7517   78.8159  221.7439 H   0  0  0  0  0  0  0  0  0  0  0  0
  143.0183   79.2095  223.5047 H   0  0  0  0  0  0  0  0  0  0  0  0
  141.7231   77.1086  223.1528 H   0  0  0  0  0  0  0  0  0  0  0  0
  140.8323   78.3566  224.0797 H   0  0  0  0  0  0  0  0  0  0  0  0
  139.2027   69.7954  222.6906 H   0  0  0  0  0  0  0  0  0  0  0  0
  138.9039   68.4951  224.8199 H   0  0  0  0  0  0  0  0  0  0  0  0
  139.2148   68.2824  227.1460 H   0  0  0  0  0  0  0  0  0  0  0  0
  140.1171   69.2411  229.2845 H   0  0  0  0  0  0  0  0  0  0  0  0
  141.2716   71.4126  229.2891 H   0  0  0  0  0  0  0  0  0  0  0  0
  141.5841   72.7168  227.1854 H   0  0  0  0  0  0  0  0  0  0  0  0
  1  2  2  0
  2  3  1  0
  3  4  1  0
  4  5  1  0
  5  6  2  0
  5  7  1  0
  7  8  1  0
  8  9  1  0
  9 10  1  0
  9 11  1  0
 11 12  1  0
 12 13  1  0
 13 14  2  0
 13 15  1  0
 15 16  1  0
 16 17  1  0
 17 18  1  0
 18 19  1  0
 19 20  1  0
  2 21  1  0
 21 22  2  0
 22 23  1  0
 23 24  2  0
 24 25  1  0
 25 26  2  0
 26 27  1  0
 27 28  2  0
 28 29  1  0
 29 30  2  0
 12  7  1  0
 20 15  1  0
 30 21  1  0
 29 24  1  0
  3 31  1  0
  4 32  1  0
  4 33  1  0
  8 34  1  0
  8 35  1  0
  9 36  1  1
 11 37  1  0
 11 38  1  0
 12 39  1  6
 16 40  1  0
 16 41  1  0
 17 42  1  0
 17 43  1  0
 18 44  1  0
 18 45  1  0
 19 46  1  0
 19 47  1  0
 20 48  1  0
 20 49  1  0
 22 50  1  0
 23 51  1  0
 25 52  1  0
 26 53  1  0
 27 54  1  0
 28 55  1  0
M  END
>  <smiles>  (32) 
O=C(NCC(=O)N1C[C@H](F)C[C@H]1C(=O)N1CCCCC1)c1ccc2ccccc2n1

>  <score_type>  (32) 
oracle

>  <origin>  (32) 
autodockgpu

>  <m_score__min__energy>  (32) 
-8.8300000000000001

>  <m_primary>  (32) 
energy

>  <rmsd>  (32) 
3.047284111969851

>  <m_score__min__rmsd>  (32) 
3.047284111969851

>  <meeko>  (32) 
{"free_energy": -7.54, "intermolecular_energy": -9.03, "internal_energy": -2.01, "cluster_size": 16, "cluster_id": 2, "rank_in_cluster": 15}

>  <energy>  (32) 
-7.87

>  <cluster_rmsd>  (32) 
0.44

>  <cluster>  (32) 
3

$$$$

     RDKit          3D

 55 58  0  0  0  0  0  0  0  0999 V2000
  140.1030   71.2830  221.2030 O   0  0  0  0  0  0  0  0  0  0  0  0
  139.9500   71.9190  222.2810 C   0  0  0  0  0  0  0  0  0  0  0  0
  139.7060   73.3580  222.1640 N   0  0  0  0  0  0  0  0  0  0  0  0
  139.6720   73.8610  220.8430 C   0  0  0  0  0  0  0  0  0  0  0  0
  138.7300   74.9150  220.5330 C   0  0  0  0  0  0  0  0  0  0  0  0
  138.7250   75.2500  219.2650 O   0  0  0  0  0  0  0  0  0  0  0  0
  137.8230   75.6370  221.3700 N   0  0  0  0  0  0  0  0  0  0  0  0
  136.6030   75.2140  222.0010 C   0  0  0  0  0  0  0  0  0  0  0  0
  135.9240   76.4960  222.4110 C   0  0  2  0  0  0  0  0  0  0  0  0
  135.0970   76.9110  221.4150 F   0  0  0  0  0  0  0  0  0  0  0  0
  137.0740   77.4400  222.6520 C   0  0  0  0  0  0  0  0  0  0  0  0
  138.1470   77.0420  221.7090 C   0  0  1  0  0  0  0  0  0  0  0  0
  139.5010   77.0880  222.3390 C   0  0  0  0  0  0  0  0  0  0  0  0
  139.9720   75.9770  222.7170 O   0  0  0  0  0  0  0  0  0  0  0  0
  140.2390   78.2810  222.5170 N   0  0  0  0  0  0  0  0  0  0  0  0
  139.7880   79.5940  222.1040 C   0  0  0  0  0  0  0  0  0  0  0  0
  140.0150   80.4860  223.3320 C   0  0  0  0  0  0  0  0  0  0  0  0
  141.5240   80.7280  223.3560 C   0  0  0  0  0  0  0  0  0  0  0  0
  142.2870   79.5140  222.9040 C   0  0  0  0  0  0  0  0  0  0  0  0
  141.5420   78.2110  223.1600 C   0  0  0  0  0  0  0  0  0  0  0  0
  140.0080   71.2890  223.5940 C   0  0  0  0  0  0  0  0  0  0  0  0
  139.5120   70.0050  223.6920 C   0  0  0  0  0  0  0  0  0  0  0  0
  139.5420   69.3500  224.9270 C   0  0  0  0  0  0  0  0  0  0  0  0
  140.0740   70.0160  226.0330 C   0  0  0  0  0  0  0  0  0  0  0  0
  140.0850   69.3360  227.2300 C   0  0  0  0  0  0  0  0  0  0  0  0
  140.6180   70.0140  228.3200 C   0  0  0  0  0  0  0  0  0  0  0  0
  141.1050   71.3000  228.1880 C   0  0  0  0  0  0  0  0  0  0  0  0
  141.0860   71.9690  226.9700 C   0  0  0  0  0  0  0  0  0  0  0  0
  140.5580   71.3020  225.8840 C   0  0  0  0  0  0  0  0  0  0  0  0
  140.5210   71.9260  224.6740 N   0  0  0  0  0  0  0  0  0  0  0  0
  139.6010   73.8240  223.0690 H   0  0  0  0  0  0  0  0  0  0  0  0
  140.6771   74.2455  220.6152 H   0  0  0  0  0  0  0  0  0  0  0  0
  139.3331   73.0079  220.2369 H   0  0  0  0  0  0  0  0  0  0  0  0
  135.9754   74.6506  221.2948 H   0  0  0  0  0  0  0  0  0  0  0  0
  136.7848   74.5458  222.8557 H   0  0  0  0  0  0  0  0  0  0  0  0
  135.2854   76.4103  223.3025 H   0  0  0  0  0  0  0  0  0  0  0  0
  136.7622   78.4769  222.4578 H   0  0  0  0  0  0  0  0  0  0  0  0
  137.4203   77.3886  223.6948 H   0  0  0  0  0  0  0  0  0  0  0  0
  138.1847   77.7201  220.8437 H   0  0  0  0  0  0  0  0  0  0  0  0
  140.3766   79.9551  221.2477 H   0  0  0  0  0  0  0  0  0  0  0  0
  138.7369   79.5908  221.7796 H   0  0  0  0  0  0  0  0  0  0  0  0
  139.4705   81.4361  223.2283 H   0  0  0  0  0  0  0  0  0  0  0  0
  139.6514   80.0205  224.2599 H   0  0  0  0  0  0  0  0  0  0  0  0
  141.7614   81.5682  222.6869 H   0  0  0  0  0  0  0  0  0  0  0  0
  141.8195   80.9541  224.3912 H   0  0  0  0  0  0  0  0  0  0  0  0
  142.4774   79.6021  221.8242 H   0  0  0  0  0  0  0  0  0  0  0  0
  143.2203   79.4779  223.4851 H   0  0  0  0  0  0  0  0  0  0  0  0
  142.1151   77.3696  222.7432 H   0  0  0  0  0  0  0  0  0  0  0  0
  141.4167   78.0589  224.2422 H   0  0  0  0  0  0  0  0  0  0  0  0
  139.0968   69.5013  222.8066 H   0  0  0  0  0  0  0  0  0  0  0  0
  139.1526   68.3260  225.0258 H   0  0  0  0  0  0  0  0  0  0  0  0
  139.6933   68.3119  227.3189 H   0  0  0  0  0  0  0  0  0  0  0  0
  140.6525   69.5194  229.3019 H   0  0  0  0  0  0  0  0  0  0  0  0
  141.5192   71.8084  229.0712 H   0  0  0  0  0  0  0  0  0  0  0  0
  141.4775   72.9926  226.8754 H   0  0  0  0  0  0  0  0  0  0  0  0
  1  2  2  0
  2  3  1  0
  3  4  1  0
  4  5  1  0
  5  6  2  0
  5  7  1  0
  7  8  1  0
  8  9  1  0
  9 10  1  0
  9 11  1  0
 11 12  1  0
 12 13  1  0
 13 14  2  0
 13 15  1  0
 15 16  1  0
 16 17  1  0
 17 18  1  0
 18 19  1  0
 19 20  1  0
  2 21  1  0
 21 22  2  0
 22 23  1  0
 23 24  2  0
 24 25  1  0
 25 26  2  0
 26 27  1  0
 27 28  2  0
 28 29  1  0
 29 30  2  0
 12  7  1  0
 20 15  1  0
 30 21  1  0
 29 24  1  0
  3 31  1  0
  4 32  1  0
  4 33  1  0
  8 34  1  0
  8 35  1  0
  9 36  1  1
 11 37  1  0
 11 38  1  0
 12 39  1  6
 16 40  1  0
 16 41  1  0
 17 42  1  0
 17 43  1  0
 18 44  1  0
 18 45  1  0
 19 46  1  0
 19 47  1  0
 20 48  1  0
 20 49  1  0
 22 50  1  0
 23 51  1  0
 25 52  1  0
 26 53  1  0
 27 54  1  0
 28 55  1  0
M  END
>  <smiles>  (33) 
O=C(NCC(=O)N1C[C@H](F)C[C@H]1C(=O)N1CCCCC1)c1ccc2ccccc2n1

>  <score_type>  (33) 
oracle

>  <origin>  (33) 
autodockgpu

>  <m_score__min__energy>  (33) 
-8.8300000000000001

>  <m_primary>  (33) 
energy

>  <rmsd>  (33) 
3.212914442415182

>  <m_score__min__rmsd>  (33) 
3.212914442415182

>  <meeko>  (33) 
{"free_energy": -8.26, "intermolecular_energy": -9.75, "internal_energy": -2.03, "cluster_size": 16, "cluster_id": 2, "rank_in_cluster": 4}

>  <energy>  (33) 
-7.85

>  <cluster_rmsd>  (33) 
0.34

>  <cluster>  (33) 
3

$$$$

     RDKit          3D

 55 58  0  0  0  0  0  0  0  0999 V2000
  138.0050   70.1680  221.7590 O   0  0  0  0  0  0  0  0  0  0  0  0
  138.4080   70.9110  222.6950 C   0  0  0  0  0  0  0  0  0  0  0  0
  138.3100   72.3550  222.4730 N   0  0  0  0  0  0  0  0  0  0  0  0
  137.7700   72.7410  221.2250 C   0  0  0  0  0  0  0  0  0  0  0  0
  137.8580   74.1330  220.8390 C   0  0  0  0  0  0  0  0  0  0  0  0
  137.3550   74.3750  219.6530 O   0  0  0  0  0  0  0  0  0  0  0  0
  138.3960   75.2640  221.5290 N   0  0  0  0  0  0  0  0  0  0  0  0
  137.8230   76.0810  222.5630 C   0  0  0  0  0  0  0  0  0  0  0  0
  138.6910   77.3130  222.5990 C   0  0  2  0  0  0  0  0  0  0  0  0
  138.1760   78.2570  221.7670 F   0  0  0  0  0  0  0  0  0  0  0  0
  140.0380   76.8050  222.1490 C   0  0  0  0  0  0  0  0  0  0  0  0
  139.7720   75.7010  221.1970 C   0  0  1  0  0  0  0  0  0  0  0  0
  140.7050   74.5490  221.3910 C   0  0  0  0  0  0  0  0  0  0  0  0
  140.4200   73.7620  222.3390 O   0  0  0  0  0  0  0  0  0  0  0  0
  141.8430   74.3220  220.5830 N   0  0  0  0  0  0  0  0  0  0  0  0
  142.2390   75.1590  219.4700 C   0  0  0  0  0  0  0  0  0  0  0  0
  143.7310   75.4310  219.7010 C   0  0  0  0  0  0  0  0  0  0  0  0
  144.4250   74.1280  219.3030 C   0  0  0  0  0  0  0  0  0  0  0  0
  143.6040   72.9270  219.6810 C   0  0  0  0  0  0  0  0  0  0  0  0
  142.6920   73.1770  220.8740 C   0  0  0  0  0  0  0  0  0  0  0  0
  138.9510   70.3950  223.9460 C   0  0  0  0  0  0  0  0  0  0  0  0
  138.8220   69.0400  224.1680 C   0  0  0  0  0  0  0  0  0  0  0  0
  139.3250   68.4880  225.3510 C   0  0  0  0  0  0  0  0  0  0  0  0
  139.9440   69.3280  226.2790 C   0  0  0  0  0  0  0  0  0  0  0  0
  140.4250   68.7460  227.4300 C   0  0  0  0  0  0  0  0  0  0  0  0
  141.0400   69.5960  228.3420 C   0  0  0  0  0  0  0  0  0  0  0  0
  141.1500   70.9490  228.0880 C   0  0  0  0  0  0  0  0  0  0  0  0
  140.6580   71.5180  226.9190 C   0  0  0  0  0  0  0  0  0  0  0  0
  140.0480   70.6800  226.0090 C   0  0  0  0  0  0  0  0  0  0  0  0
  139.5530   71.2010  224.8530 N   0  0  0  0  0  0  0  0  0  0  0  0
  138.6610   72.9080  223.2590 H   0  0  0  0  0  0  0  0  0  0  0  0
  138.2879   72.1554  220.4512 H   0  0  0  0  0  0  0  0  0  0  0  0
  136.6905   72.5562  221.3281 H   0  0  0  0  0  0  0  0  0  0  0  0
  136.7837   76.3452  222.3180 H   0  0  0  0  0  0  0  0  0  0  0  0
  137.7916   75.5643  223.5336 H   0  0  0  0  0  0  0  0  0  0  0  0
  138.7559   77.7979  223.5842 H   0  0  0  0  0  0  0  0  0  0  0  0
  140.6010   77.6087  221.6519 H   0  0  0  0  0  0  0  0  0  0  0  0
  140.6394   76.4592  223.0027 H   0  0  0  0  0  0  0  0  0  0  0  0
  139.9028   76.0355  220.1573 H   0  0  0  0  0  0  0  0  0  0  0  0
  142.0832   74.6349  218.5155 H   0  0  0  0  0  0  0  0  0  0  0  0
  141.6498   76.0863  219.4155 H   0  0  0  0  0  0  0  0  0  0  0  0
  144.0764   76.2636  219.0705 H   0  0  0  0  0  0  0  0  0  0  0  0
  143.9472   75.7189  220.7404 H   0  0  0  0  0  0  0  0  0  0  0  0
  144.5819   74.1250  218.2142 H   0  0  0  0  0  0  0  0  0  0  0  0
  145.3845   74.0715  219.8379 H   0  0  0  0  0  0  0  0  0  0  0  0
  142.9825   72.6427  218.8191 H   0  0  0  0  0  0  0  0  0  0  0  0
  144.3044   72.1281  219.9660 H   0  0  0  0  0  0  0  0  0  0  0  0
  142.0672   72.2897  221.0541 H   0  0  0  0  0  0  0  0  0  0  0  0
  143.2963   73.3780  221.7709 H   0  0  0  0  0  0  0  0  0  0  0  0
  138.3285   68.3995  223.4222 H   0  0  0  0  0  0  0  0  0  0  0  0
  139.2343   67.4094  225.5470 H   0  0  0  0  0  0  0  0  0  0  0  0
  140.3280   67.6665  227.6180 H   0  0  0  0  0  0  0  0  0  0  0  0
  141.4446   69.1853  229.2788 H   0  0  0  0  0  0  0  0  0  0  0  0
  141.6406   71.5944  228.8315 H   0  0  0  0  0  0  0  0  0  0  0  0
  140.7517   72.5970  226.7268 H   0  0  0  0  0  0  0  0  0  0  0  0
  1  2  2  0
  2  3  1  0
  3  4  1  0
  4  5  1  0
  5  6  2  0
  5  7  1  0
  7  8  1  0
  8  9  1  0
  9 10  1  0
  9 11  1  0
 11 12  1  0
 12 13  1  0
 13 14  2  0
 13 15  1  0
 15 16  1  0
 16 17  1  0
 17 18  1  0
 18 19  1  0
 19 20  1  0
  2 21  1  0
 21 22  2  0
 22 23  1  0
 23 24  2  0
 24 25  1  0
 25 26  2  0
 26 27  1  0
 27 28  2  0
 28 29  1  0
 29 30  2  0
 12  7  1  0
 20 15  1  0
 30 21  1  0
 29 24  1  0
  3 31  1  0
  4 32  1  0
  4 33  1  0
  8 34  1  0
  8 35  1  0
  9 36  1  1
 11 37  1  0
 11 38  1  0
 12 39  1  6
 16 40  1  0
 16 41  1  0
 17 42  1  0
 17 43  1  0
 18 44  1  0
 18 45  1  0
 19 46  1  0
 19 47  1  0
 20 48  1  0
 20 49  1  0
 22 50  1  0
 23 51  1  0
 25 52  1  0
 26 53  1  0
 27 54  1  0
 28 55  1  0
M  END
>  <smiles>  (34) 
O=C(NCC(=O)N1C[C@H](F)C[C@H]1C(=O)N1CCCCC1)c1ccc2ccccc2n1

>  <score_type>  (34) 
oracle

>  <origin>  (34) 
autodockgpu

>  <m_score__min__energy>  (34) 
-8.8300000000000001

>  <m_primary>  (34) 
energy

>  <rmsd>  (34) 
4.312532163402264

>  <m_score__min__rmsd>  (34) 
4.312532163402264

>  <meeko>  (34) 
{"free_energy": -7.83, "intermolecular_energy": -9.32, "internal_energy": -2.4, "cluster_size": 20, "cluster_id": 3, "rank_in_cluster": 11}

>  <energy>  (34) 
-7.85

>  <cluster_rmsd>  (34) 
0.48

>  <cluster>  (34) 
3

$$$$

     RDKit          3D

 55 58  0  0  0  0  0  0  0  0999 V2000
  139.7890   71.2040  221.2450 O   0  0  0  0  0  0  0  0  0  0  0  0
  139.7840   71.8430  222.3320 C   0  0  0  0  0  0  0  0  0  0  0  0
  139.6460   73.2970  222.2380 N   0  0  0  0  0  0  0  0  0  0  0  0
  139.5330   73.8110  220.9260 C   0  0  0  0  0  0  0  0  0  0  0  0
  138.5140   74.8030  220.6610 C   0  0  0  0  0  0  0  0  0  0  0  0
  138.3660   75.0680  219.3860 O   0  0  0  0  0  0  0  0  0  0  0  0
  137.6600   75.5280  221.5490 N   0  0  0  0  0  0  0  0  0  0  0  0
  136.4830   75.1070  222.2580 C   0  0  0  0  0  0  0  0  0  0  0  0
  135.8270   76.3900  222.7030 C   0  0  2  0  0  0  0  0  0  0  0  0
  134.9380   76.7980  221.7580 F   0  0  0  0  0  0  0  0  0  0  0  0
  136.9890   77.3370  222.8640 C   0  0  0  0  0  0  0  0  0  0  0  0
  138.0000   76.9370  221.8580 C   0  0  1  0  0  0  0  0  0  0  0  0
  139.3920   76.9890  222.4020 C   0  0  0  0  0  0  0  0  0  0  0  0
  139.9050   75.8760  222.7130 O   0  0  0  0  0  0  0  0  0  0  0  0
  140.1190   78.1900  222.5710 N   0  0  0  0  0  0  0  0  0  0  0  0
  139.6190   79.5060  222.2300 C   0  0  0  0  0  0  0  0  0  0  0  0
  139.9100   80.3630  223.4690 C   0  0  0  0  0  0  0  0  0  0  0  0
  141.4130   80.6350  223.4040 C   0  0  0  0  0  0  0  0  0  0  0  0
  142.1650   79.4490  222.8650 C   0  0  0  0  0  0  0  0  0  0  0  0
  141.4610   78.1250  223.1260 C   0  0  0  0  0  0  0  0  0  0  0  0
  139.9100   71.2000  223.6350 C   0  0  0  0  0  0  0  0  0  0  0  0
  139.4940   69.8880  223.7250 C   0  0  0  0  0  0  0  0  0  0  0  0
  139.5910   69.2200  224.9500 C   0  0  0  0  0  0  0  0  0  0  0  0
  140.1070   69.9020  226.0540 C   0  0  0  0  0  0  0  0  0  0  0  0
  140.1860   69.2090  227.2400 C   0  0  0  0  0  0  0  0  0  0  0  0
  140.7030   69.9040  228.3280 C   0  0  0  0  0  0  0  0  0  0  0  0
  141.1090   71.2180  228.2030 C   0  0  0  0  0  0  0  0  0  0  0  0
  141.0220   71.9000  226.9960 C   0  0  0  0  0  0  0  0  0  0  0  0
  140.5100   71.2170  225.9120 C   0  0  0  0  0  0  0  0  0  0  0  0
  140.4090   71.8530  224.7120 N   0  0  0  0  0  0  0  0  0  0  0  0
  139.6590   73.7630  223.1490 H   0  0  0  0  0  0  0  0  0  0  0  0
  140.5021   74.2638  220.6696 H   0  0  0  0  0  0  0  0  0  0  0  0
  139.2298   72.9437  220.3211 H   0  0  0  0  0  0  0  0  0  0  0  0
  135.8137   74.5380  221.5960 H   0  0  0  0  0  0  0  0  0  0  0  0
  136.7202   74.4449  223.1037 H   0  0  0  0  0  0  0  0  0  0  0  0
  135.2455   76.3085  223.6332 H   0  0  0  0  0  0  0  0  0  0  0  0
  136.6632   78.3722  222.6845 H   0  0  0  0  0  0  0  0  0  0  0  0
  137.4015   77.2909  223.8827 H   0  0  0  0  0  0  0  0  0  0  0  0
  137.9803   77.6102  220.9883 H   0  0  0  0  0  0  0  0  0  0  0  0
  140.1442   79.9050  221.3497 H   0  0  0  0  0  0  0  0  0  0  0  0
  138.5494   79.4926  221.9736 H   0  0  0  0  0  0  0  0  0  0  0  0
  139.3428   81.3047  223.4320 H   0  0  0  0  0  0  0  0  0  0  0  0
  139.6165   79.8607  224.4025 H   0  0  0  0  0  0  0  0  0  0  0  0
  141.5917   81.4998  222.7481 H   0  0  0  0  0  0  0  0  0  0  0  0
  141.7717   80.8366  224.4242 H   0  0  0  0  0  0  0  0  0  0  0  0
  142.2833   79.5741  221.7786 H   0  0  0  0  0  0  0  0  0  0  0  0
  143.1341   79.4124  223.3841 H   0  0  0  0  0  0  0  0  0  0  0  0
  142.0202   77.3082  222.6463 H   0  0  0  0  0  0  0  0  0  0  0  0
  141.4088   77.9368  224.2085 H   0  0  0  0  0  0  0  0  0  0  0  0
  139.0898   69.3719  222.8417 H   0  0  0  0  0  0  0  0  0  0  0  0
  139.2658   68.1733  225.0424 H   0  0  0  0  0  0  0  0  0  0  0  0
  139.8581   68.1623  227.3231 H   0  0  0  0  0  0  0  0  0  0  0  0
  140.7898   69.4000  229.3019 H   0  0  0  0  0  0  0  0  0  0  0  0
  141.5125   71.7391  229.0837 H   0  0  0  0  0  0  0  0  0  0  0  0
  141.3494   72.9464  226.9076 H   0  0  0  0  0  0  0  0  0  0  0  0
  1  2  2  0
  2  3  1  0
  3  4  1  0
  4  5  1  0
  5  6  2  0
  5  7  1  0
  7  8  1  0
  8  9  1  0
  9 10  1  0
  9 11  1  0
 11 12  1  0
 12 13  1  0
 13 14  2  0
 13 15  1  0
 15 16  1  0
 16 17  1  0
 17 18  1  0
 18 19  1  0
 19 20  1  0
  2 21  1  0
 21 22  2  0
 22 23  1  0
 23 24  2  0
 24 25  1  0
 25 26  2  0
 26 27  1  0
 27 28  2  0
 28 29  1  0
 29 30  2  0
 12  7  1  0
 20 15  1  0
 30 21  1  0
 29 24  1  0
  3 31  1  0
  4 32  1  0
  4 33  1  0
  8 34  1  0
  8 35  1  0
  9 36  1  1
 11 37  1  0
 11 38  1  0
 12 39  1  6
 16 40  1  0
 16 41  1  0
 17 42  1  0
 17 43  1  0
 18 44  1  0
 18 45  1  0
 19 46  1  0
 19 47  1  0
 20 48  1  0
 20 49  1  0
 22 50  1  0
 23 51  1  0
 25 52  1  0
 26 53  1  0
 27 54  1  0
 28 55  1  0
M  END
>  <smiles>  (35) 
O=C(NCC(=O)N1C[C@H](F)C[C@H]1C(=O)N1CCCCC1)c1ccc2ccccc2n1

>  <score_type>  (35) 
oracle

>  <origin>  (35) 
autodockgpu

>  <m_score__min__energy>  (35) 
-8.8300000000000001

>  <m_primary>  (35) 
energy

>  <rmsd>  (35) 
3.2960357224928916

>  <m_score__min__rmsd>  (35) 
3.2960357224928916

>  <meeko>  (35) 
{"free_energy": -8.27, "intermolecular_energy": -9.76, "internal_energy": -2.02, "cluster_size": 16, "cluster_id": 2, "rank_in_cluster": 2}

>  <energy>  (35) 
-7.84

>  <cluster_rmsd>  (35) 
0.42

>  <cluster>  (35) 
3

$$$$

     RDKit          3D

 55 58  0  0  0  0  0  0  0  0999 V2000
  138.5460   70.4190  221.4600 O   0  0  0  0  0  0  0  0  0  0  0  0
  138.7410   71.1690  222.4550 C   0  0  0  0  0  0  0  0  0  0  0  0
  138.4990   72.5990  222.2550 N   0  0  0  0  0  0  0  0  0  0  0  0
  138.0730   72.9660  220.9580 C   0  0  0  0  0  0  0  0  0  0  0  0
  138.4020   74.2900  220.4740 C   0  0  0  0  0  0  0  0  0  0  0  0
  137.9770   74.5170  219.2550 O   0  0  0  0  0  0  0  0  0  0  0  0
  139.1020   75.3670  221.1000 N   0  0  0  0  0  0  0  0  0  0  0  0
  138.6240   76.4100  221.9660 C   0  0  0  0  0  0  0  0  0  0  0  0
  139.7300   77.4350  221.9740 C   0  0  2  0  0  0  0  0  0  0  0  0
  139.5120   78.3470  220.9900 F   0  0  0  0  0  0  0  0  0  0  0  0
  140.9710   76.6100  221.7450 C   0  0  0  0  0  0  0  0  0  0  0  0
  140.5660   75.4690  220.8910 C   0  0  1  0  0  0  0  0  0  0  0  0
  141.2050   74.1870  221.3160 C   0  0  0  0  0  0  0  0  0  0  0  0
  140.7030   73.6310  222.3360 O   0  0  0  0  0  0  0  0  0  0  0  0
  142.3040   73.6020  220.6450 N   0  0  0  0  0  0  0  0  0  0  0  0
  142.9340   74.1570  219.4650 C   0  0  0  0  0  0  0  0  0  0  0  0
  144.4350   74.1340  219.7800 C   0  0  0  0  0  0  0  0  0  0  0  0
  144.8390   72.6690  219.6220 C   0  0  0  0  0  0  0  0  0  0  0  0
  143.7510   71.7420  220.0900 C   0  0  0  0  0  0  0  0  0  0  0  0
  142.8580   72.3590  221.1570 C   0  0  0  0  0  0  0  0  0  0  0  0
  139.1850   70.6740  223.7520 C   0  0  0  0  0  0  0  0  0  0  0  0
  139.0170   69.3260  223.9950 C   0  0  0  0  0  0  0  0  0  0  0  0
  139.4250   68.7950  225.2230 C   0  0  0  0  0  0  0  0  0  0  0  0
  139.9930   69.6460  226.1730 C   0  0  0  0  0  0  0  0  0  0  0  0
  140.3820   69.0830  227.3680 C   0  0  0  0  0  0  0  0  0  0  0  0
  140.9450   69.9450  228.3020 C   0  0  0  0  0  0  0  0  0  0  0  0
  141.0980   71.2890  228.0260 C   0  0  0  0  0  0  0  0  0  0  0  0
  140.7000   71.8380  226.8130 C   0  0  0  0  0  0  0  0  0  0  0  0
  140.1390   70.9890  225.8810 C   0  0  0  0  0  0  0  0  0  0  0  0
  139.7360   71.4910  224.6810 N   0  0  0  0  0  0  0  0  0  0  0  0
  138.6830   73.1600  223.0910 H   0  0  0  0  0  0  0  0  0  0  0  0
  138.5134   72.2440  220.2546 H   0  0  0  0  0  0  0  0  0  0  0  0
  136.9750   72.9676  221.0245 H   0  0  0  0  0  0  0  0  0  0  0  0
  137.6938   76.8456  221.5724 H   0  0  0  0  0  0  0  0  0  0  0  0
  138.3911   76.0399  222.9754 H   0  0  0  0  0  0  0  0  0  0  0  0
  139.8045   78.0206  222.9022 H   0  0  0  0  0  0  0  0  0  0  0  0
  141.7387   77.2116  221.2364 H   0  0  0  0  0  0  0  0  0  0  0  0
  141.3987   76.2622  222.6969 H   0  0  0  0  0  0  0  0  0  0  0  0
  140.8652   75.6326  219.8452 H   0  0  0  0  0  0  0  0  0  0  0  0
  142.7134   73.5408  218.5809 H   0  0  0  0  0  0  0  0  0  0  0  0
  142.5715   75.1700  219.2362 H   0  0  0  0  0  0  0  0  0  0  0  0
  144.9900   74.7684  219.0732 H   0  0  0  0  0  0  0  0  0  0  0  0
  144.6565   74.5220  220.7852 H   0  0  0  0  0  0  0  0  0  0  0  0
  145.0471   72.4684  218.5607 H   0  0  0  0  0  0  0  0  0  0  0  0
  145.7327   72.4898  220.2378 H   0  0  0  0  0  0  0  0  0  0  0  0
  143.1271   71.4702  219.2258 H   0  0  0  0  0  0  0  0  0  0  0  0
  144.2389   70.8641  220.5385 H   0  0  0  0  0  0  0  0  0  0  0  0
  142.0414   71.6640  221.4025 H   0  0  0  0  0  0  0  0  0  0  0  0
  143.4453   72.5585  222.0654 H   0  0  0  0  0  0  0  0  0  0  0  0
  138.5667   68.6756  223.2306 H   0  0  0  0  0  0  0  0  0  0  0  0
  139.3003   67.7233  225.4370 H   0  0  0  0  0  0  0  0  0  0  0  0
  140.2542   68.0097  227.5723 H   0  0  0  0  0  0  0  0  0  0  0  0
  141.2733   69.5506  229.2750 H   0  0  0  0  0  0  0  0  0  0  0  0
  141.5474   71.9435  228.7874 H   0  0  0  0  0  0  0  0  0  0  0  0
  140.8275   72.9103  226.6034 H   0  0  0  0  0  0  0  0  0  0  0  0
  1  2  2  0
  2  3  1  0
  3  4  1  0
  4  5  1  0
  5  6  2  0
  5  7  1  0
  7  8  1  0
  8  9  1  0
  9 10  1  0
  9 11  1  0
 11 12  1  0
 12 13  1  0
 13 14  2  0
 13 15  1  0
 15 16  1  0
 16 17  1  0
 17 18  1  0
 18 19  1  0
 19 20  1  0
  2 21  1  0
 21 22  2  0
 22 23  1  0
 23 24  2  0
 24 25  1  0
 25 26  2  0
 26 27  1  0
 27 28  2  0
 28 29  1  0
 29 30  2  0
 12  7  1  0
 20 15  1  0
 30 21  1  0
 29 24  1  0
  3 31  1  0
  4 32  1  0
  4 33  1  0
  8 34  1  0
  8 35  1  0
  9 36  1  1
 11 37  1  0
 11 38  1  0
 12 39  1  6
 16 40  1  0
 16 41  1  0
 17 42  1  0
 17 43  1  0
 18 44  1  0
 18 45  1  0
 19 46  1  0
 19 47  1  0
 20 48  1  0
 20 49  1  0
 22 50  1  0
 23 51  1  0
 25 52  1  0
 26 53  1  0
 27 54  1  0
 28 55  1  0
M  END
>  <smiles>  (36) 
O=C(NCC(=O)N1C[C@H](F)C[C@H]1C(=O)N1CCCCC1)c1ccc2ccccc2n1

>  <score_type>  (36) 
oracle

>  <origin>  (36) 
autodockgpu

>  <m_score__min__energy>  (36) 
-8.8300000000000001

>  <m_primary>  (36) 
energy

>  <rmsd>  (36) 
4.60854632886775

>  <m_score__min__rmsd>  (36) 
4.60854632886775

>  <meeko>  (36) 
{"free_energy": -7.74, "intermolecular_energy": -9.23, "internal_energy": -2.4, "cluster_size": 20, "cluster_id": 3, "rank_in_cluster": 17}

>  <energy>  (36) 
-7.83

>  <cluster_rmsd>  (36) 
0.67

>  <cluster>  (36) 
3

$$$$

     RDKit          3D

 55 58  0  0  0  0  0  0  0  0999 V2000
  137.8240   70.2020  221.8530 O   0  0  0  0  0  0  0  0  0  0  0  0
  138.3000   70.9020  222.7870 C   0  0  0  0  0  0  0  0  0  0  0  0
  138.2850   72.3530  222.5910 N   0  0  0  0  0  0  0  0  0  0  0  0
  137.7320   72.7940  221.3670 C   0  0  0  0  0  0  0  0  0  0  0  0
  138.1910   74.0530  220.8200 C   0  0  0  0  0  0  0  0  0  0  0  0
  137.9300   74.1880  219.5420 O   0  0  0  0  0  0  0  0  0  0  0  0
  138.8690   75.1500  221.4350 N   0  0  0  0  0  0  0  0  0  0  0  0
  138.3940   76.1280  222.3750 C   0  0  0  0  0  0  0  0  0  0  0  0
  139.4330   77.2210  222.3440 C   0  0  2  0  0  0  0  0  0  0  0  0
  139.0850   78.1520  221.4160 F   0  0  0  0  0  0  0  0  0  0  0  0
  140.7010   76.4870  221.9920 C   0  0  0  0  0  0  0  0  0  0  0  0
  140.3030   75.3530  221.1240 C   0  0  1  0  0  0  0  0  0  0  0  0
  141.0500   74.1000  221.4500 C   0  0  0  0  0  0  0  0  0  0  0  0
  140.5590   73.3890  222.3730 O   0  0  0  0  0  0  0  0  0  0  0  0
  142.2350   73.7040  220.7870 N   0  0  0  0  0  0  0  0  0  0  0  0
  142.8610   74.4450  219.7120 C   0  0  0  0  0  0  0  0  0  0  0  0
  144.3390   74.5340  220.1130 C   0  0  0  0  0  0  0  0  0  0  0  0
  144.9000   73.1420  219.8250 C   0  0  0  0  0  0  0  0  0  0  0  0
  143.8930   72.0670  220.1270 C   0  0  0  0  0  0  0  0  0  0  0  0
  142.8900   72.4720  221.1980 C   0  0  0  0  0  0  0  0  0  0  0  0
  138.8480   70.3320  224.0120 C   0  0  0  0  0  0  0  0  0  0  0  0
  138.7100   68.9700  224.1810 C   0  0  0  0  0  0  0  0  0  0  0  0
  139.2170   68.3670  225.3360 C   0  0  0  0  0  0  0  0  0  0  0  0
  139.8510   69.1640  226.2930 C   0  0  0  0  0  0  0  0  0  0  0  0
  140.3360   68.5320  227.4150 C   0  0  0  0  0  0  0  0  0  0  0  0
  140.9640   69.3400  228.3560 C   0  0  0  0  0  0  0  0  0  0  0  0
  141.0830   70.7010  228.1560 C   0  0  0  0  0  0  0  0  0  0  0  0
  140.5870   71.3210  227.0150 C   0  0  0  0  0  0  0  0  0  0  0  0
  139.9630   70.5250  226.0770 C   0  0  0  0  0  0  0  0  0  0  0  0
  139.4640   71.0960  224.9460 N   0  0  0  0  0  0  0  0  0  0  0  0
  138.6930   72.8700  223.3750 H   0  0  0  0  0  0  0  0  0  0  0  0
  137.9414   72.0174  220.6166 H   0  0  0  0  0  0  0  0  0  0  0  0
  136.6705   72.9690  221.5965 H   0  0  0  0  0  0  0  0  0  0  0  0
  137.4119   76.5169  222.0680 H   0  0  0  0  0  0  0  0  0  0  0  0
  138.2603   75.7078  223.3827 H   0  0  0  0  0  0  0  0  0  0  0  0
  139.5417   77.7762  223.2873 H   0  0  0  0  0  0  0  0  0  0  0  0
  141.3896   77.1546  221.4534 H   0  0  0  0  0  0  0  0  0  0  0  0
  141.2203   76.1339  222.8951 H   0  0  0  0  0  0  0  0  0  0  0  0
  140.5115   75.5725  220.0665 H   0  0  0  0  0  0  0  0  0  0  0  0
  142.7493   73.9118  218.7564 H   0  0  0  0  0  0  0  0  0  0  0  0
  142.4070   75.4367  219.5693 H   0  0  0  0  0  0  0  0  0  0  0  0
  144.8594   75.2945  219.5123 H   0  0  0  0  0  0  0  0  0  0  0  0
  144.4693   74.8272  221.1652 H   0  0  0  0  0  0  0  0  0  0  0  0
  145.1786   73.0820  218.7626 H   0  0  0  0  0  0  0  0  0  0  0  0
  145.7768   72.9837  220.4702 H   0  0  0  0  0  0  0  0  0  0  0  0
  143.3434   71.8327  219.2034 H   0  0  0  0  0  0  0  0  0  0  0  0
  144.4469   71.1967  220.5088 H   0  0  0  0  0  0  0  0  0  0  0  0
  142.1392   71.6775  221.3203 H   0  0  0  0  0  0  0  0  0  0  0  0
  143.4087   72.6267  222.1556 H   0  0  0  0  0  0  0  0  0  0  0  0
  138.2057   68.3638  223.4141 H   0  0  0  0  0  0  0  0  0  0  0  0
  139.1184   67.2822  225.4891 H   0  0  0  0  0  0  0  0  0  0  0  0
  140.2324   67.4465  227.5595 H   0  0  0  0  0  0  0  0  0  0  0  0
  141.3718   68.8888  229.2726 H   0  0  0  0  0  0  0  0  0  0  0  0
  141.5844   71.3119  228.9211 H   0  0  0  0  0  0  0  0  0  0  0  0
  140.6884   72.4061  226.8656 H   0  0  0  0  0  0  0  0  0  0  0  0
  1  2  2  0
  2  3  1  0
  3  4  1  0
  4  5  1  0
  5  6  2  0
  5  7  1  0
  7  8  1  0
  8  9  1  0
  9 10  1  0
  9 11  1  0
 11 12  1  0
 12 13  1  0
 13 14  2  0
 13 15  1  0
 15 16  1  0
 16 17  1  0
 17 18  1  0
 18 19  1  0
 19 20  1  0
  2 21  1  0
 21 22  2  0
 22 23  1  0
 23 24  2  0
 24 25  1  0
 25 26  2  0
 26 27  1  0
 27 28  2  0
 28 29  1  0
 29 30  2  0
 12  7  1  0
 20 15  1  0
 30 21  1  0
 29 24  1  0
  3 31  1  0
  4 32  1  0
  4 33  1  0
  8 34  1  0
  8 35  1  0
  9 36  1  1
 11 37  1  0
 11 38  1  0
 12 39  1  6
 16 40  1  0
 16 41  1  0
 17 42  1  0
 17 43  1  0
 18 44  1  0
 18 45  1  0
 19 46  1  0
 19 47  1  0
 20 48  1  0
 20 49  1  0
 22 50  1  0
 23 51  1  0
 25 52  1  0
 26 53  1  0
 27 54  1  0
 28 55  1  0
M  END
>  <smiles>  (37) 
O=C(NCC(=O)N1C[C@H](F)C[C@H]1C(=O)N1CCCCC1)c1ccc2ccccc2n1

>  <score_type>  (37) 
oracle

>  <origin>  (37) 
autodockgpu

>  <m_score__min__energy>  (37) 
-8.8300000000000001

>  <m_primary>  (37) 
energy

>  <rmsd>  (37) 
4.561175388373674

>  <m_score__min__rmsd>  (37) 
4.561175388373674

>  <meeko>  (37) 
{"free_energy": -7.87, "intermolecular_energy": -9.36, "internal_energy": -2.39, "cluster_size": 20, "cluster_id": 3, "rank_in_cluster": 7}

>  <energy>  (37) 
-7.83

>  <cluster_rmsd>  (37) 
0.44

>  <cluster>  (37) 
3

$$$$

     RDKit          3D

 55 58  0  0  0  0  0  0  0  0999 V2000
  140.9080   71.5710  221.3710 O   0  0  0  0  0  0  0  0  0  0  0  0
  140.3940   72.0730  222.4070 C   0  0  0  0  0  0  0  0  0  0  0  0
  139.9330   73.4590  222.3040 N   0  0  0  0  0  0  0  0  0  0  0  0
  140.1220   74.0680  221.0430 C   0  0  0  0  0  0  0  0  0  0  0  0
  141.0450   75.1790  220.9470 C   0  0  0  0  0  0  0  0  0  0  0  0
  141.3050   75.7380  222.1040 O   0  0  0  0  0  0  0  0  0  0  0  0
  141.7040   75.7540  219.8170 N   0  0  0  0  0  0  0  0  0  0  0  0
  142.5080   76.9400  219.7140 C   0  0  0  0  0  0  0  0  0  0  0  0
  142.5870   77.2180  218.2330 C   0  0  2  0  0  0  0  0  0  0  0  0
  141.5720   78.0470  217.8720 F   0  0  0  0  0  0  0  0  0  0  0  0
  142.4760   75.8480  217.6150 C   0  0  0  0  0  0  0  0  0  0  0  0
  141.6130   75.0490  218.5170 C   0  0  1  0  0  0  0  0  0  0  0  0
  142.1130   73.6510  218.6890 C   0  0  0  0  0  0  0  0  0  0  0  0
  141.2910   72.7320  218.4070 O   0  0  0  0  0  0  0  0  0  0  0  0
  143.4180   73.3390  219.1350 N   0  0  0  0  0  0  0  0  0  0  0  0
  144.4290   74.3210  219.4670 C   0  0  0  0  0  0  0  0  0  0  0  0
  144.9660   73.8780  220.8340 C   0  0  0  0  0  0  0  0  0  0  0  0
  145.8640   72.6810  220.5240 C   0  0  0  0  0  0  0  0  0  0  0  0
  145.3080   71.8490  219.4010 C   0  0  0  0  0  0  0  0  0  0  0  0
  143.7930   71.9410  219.2830 C   0  0  0  0  0  0  0  0  0  0  0  0
  140.2520   71.3430  223.6610 C   0  0  0  0  0  0  0  0  0  0  0  0
  139.6530   70.1020  223.5950 C   0  0  0  0  0  0  0  0  0  0  0  0
  139.4910   69.3550  224.7660 C   0  0  0  0  0  0  0  0  0  0  0  0
  139.9390   69.8890  225.9770 C   0  0  0  0  0  0  0  0  0  0  0  0
  139.7600   69.1230  227.1060 C   0  0  0  0  0  0  0  0  0  0  0  0
  140.2120   69.6690  228.3010 C   0  0  0  0  0  0  0  0  0  0  0  0
  140.8060   70.9160  228.3320 C   0  0  0  0  0  0  0  0  0  0  0  0
  140.9780   71.6740  227.1800 C   0  0  0  0  0  0  0  0  0  0  0  0
  140.5320   71.1380  225.9900 C   0  0  0  0  0  0  0  0  0  0  0  0
  140.6820   71.8520  224.8410 N   0  0  0  0  0  0  0  0  0  0  0  0
  139.5350   73.8170  223.1770 H   0  0  0  0  0  0  0  0  0  0  0  0
  140.4796   73.2876  220.3552 H   0  0  0  0  0  0  0  0  0  0  0  0
  139.1424   74.5087  220.8057 H   0  0  0  0  0  0  0  0  0  0  0  0
  142.0316   77.7793  220.2419 H   0  0  0  0  0  0  0  0  0  0  0  0
  143.5016   76.8115  220.1682 H   0  0  0  0  0  0  0  0  0  0  0  0
  143.5070   77.7276  217.9106 H   0  0  0  0  0  0  0  0  0  0  0  0
  142.0206   75.9173  216.6161 H   0  0  0  0  0  0  0  0  0  0  0  0
  143.4660   75.3834  217.4964 H   0  0  0  0  0  0  0  0  0  0  0  0
  140.5920   74.9660  218.1163 H   0  0  0  0  0  0  0  0  0  0  0  0
  145.2324   74.3203  218.7156 H   0  0  0  0  0  0  0  0  0  0  0  0
  144.0250   75.3439  219.4895 H   0  0  0  0  0  0  0  0  0  0  0  0
  145.5447   74.6864  221.3047 H   0  0  0  0  0  0  0  0  0  0  0  0
  144.1594   73.6241  221.5375 H   0  0  0  0  0  0  0  0  0  0  0  0
  146.8609   73.0471  220.2375 H   0  0  0  0  0  0  0  0  0  0  0  0
  145.9210   72.0510  221.4239 H   0  0  0  0  0  0  0  0  0  0  0  0
  145.7543   72.1930  218.4563 H   0  0  0  0  0  0  0  0  0  0  0  0
  145.5571   70.7994  219.6160 H   0  0  0  0  0  0  0  0  0  0  0  0
  143.4555   71.3727  218.4037 H   0  0  0  0  0  0  0  0  0  0  0  0
  143.3219   71.5212  220.1840 H   0  0  0  0  0  0  0  0  0  0  0  0
  139.3060   69.7038  222.6301 H   0  0  0  0  0  0  0  0  0  0  0  0
  139.0182   68.3623  224.7343 H   0  0  0  0  0  0  0  0  0  0  0  0
  139.2847   68.1319  227.0647 H   0  0  0  0  0  0  0  0  0  0  0  0
  140.0953   69.1005  229.2354 H   0  0  0  0  0  0  0  0  0  0  0  0
  141.1522   71.3199  229.2948 H   0  0  0  0  0  0  0  0  0  0  0  0
  141.4527   72.6657  227.2159 H   0  0  0  0  0  0  0  0  0  0  0  0
  1  2  2  0
  2  3  1  0
  3  4  1  0
  4  5  1  0
  5  6  2  0
  5  7  1  0
  7  8  1  0
  8  9  1  0
  9 10  1  0
  9 11  1  0
 11 12  1  0
 12 13  1  0
 13 14  2  0
 13 15  1  0
 15 16  1  0
 16 17  1  0
 17 18  1  0
 18 19  1  0
 19 20  1  0
  2 21  1  0
 21 22  2  0
 22 23  1  0
 23 24  2  0
 24 25  1  0
 25 26  2  0
 26 27  1  0
 27 28  2  0
 28 29  1  0
 29 30  2  0
 12  7  1  0
 20 15  1  0
 30 21  1  0
 29 24  1  0
  3 31  1  0
  4 32  1  0
  4 33  1  0
  8 34  1  0
  8 35  1  0
  9 36  1  1
 11 37  1  0
 11 38  1  0
 12 39  1  6
 16 40  1  0
 16 41  1  0
 17 42  1  0
 17 43  1  0
 18 44  1  0
 18 45  1  0
 19 46  1  0
 19 47  1  0
 20 48  1  0
 20 49  1  0
 22 50  1  0
 23 51  1  0
 25 52  1  0
 26 53  1  0
 27 54  1  0
 28 55  1  0
M  END
>  <smiles>  (38) 
O=C(NCC(=O)N1C[C@H](F)C[C@H]1C(=O)N1CCCCC1)c1ccc2ccccc2n1

>  <score_type>  (38) 
oracle

>  <origin>  (38) 
autodockgpu

>  <m_score__min__energy>  (38) 
-8.8300000000000001

>  <m_primary>  (38) 
energy

>  <rmsd>  (38) 
4.7784493721272066

>  <m_score__min__rmsd>  (38) 
4.7784493721272066

>  <meeko>  (38) 
{"free_energy": -7.79, "intermolecular_energy": -9.28, "internal_energy": -1.89, "cluster_size": 20, "cluster_id": 3, "rank_in_cluster": 16}

>  <energy>  (38) 
-7.82

>  <cluster_rmsd>  (38) 
0.43

>  <cluster>  (38) 
3

$$$$

     RDKit          3D

 55 58  0  0  0  0  0  0  0  0999 V2000
  139.6920   71.0300  221.2190 O   0  0  0  0  0  0  0  0  0  0  0  0
  139.7050   71.7310  222.2670 C   0  0  0  0  0  0  0  0  0  0  0  0
  139.5350   73.1750  222.0920 N   0  0  0  0  0  0  0  0  0  0  0  0
  139.3750   73.6080  220.7560 C   0  0  0  0  0  0  0  0  0  0  0  0
  138.6710   74.8490  220.5150 C   0  0  0  0  0  0  0  0  0  0  0  0
  138.9280   75.3720  219.3410 O   0  0  0  0  0  0  0  0  0  0  0  0
  137.7600   75.5830  221.3360 N   0  0  0  0  0  0  0  0  0  0  0  0
  136.5170   75.1810  221.9360 C   0  0  0  0  0  0  0  0  0  0  0  0
  135.8540   76.4730  222.3400 C   0  0  2  0  0  0  0  0  0  0  0  0
  135.0590   76.9120  221.3280 F   0  0  0  0  0  0  0  0  0  0  0  0
  137.0180   77.3920  222.6130 C   0  0  0  0  0  0  0  0  0  0  0  0
  138.1040   76.9800  221.6920 C   0  0  1  0  0  0  0  0  0  0  0  0
  139.4440   76.9940  222.3540 C   0  0  0  0  0  0  0  0  0  0  0  0
  139.8850   75.8710  222.7310 O   0  0  0  0  0  0  0  0  0  0  0  0
  140.1990   78.1720  222.5610 N   0  0  0  0  0  0  0  0  0  0  0  0
  139.7820   79.4970  222.1510 C   0  0  0  0  0  0  0  0  0  0  0  0
  139.9970   80.3720  223.3930 C   0  0  0  0  0  0  0  0  0  0  0  0
  141.5100   80.5860  223.4540 C   0  0  0  0  0  0  0  0  0  0  0  0
  142.2600   79.3620  223.0070 C   0  0  0  0  0  0  0  0  0  0  0  0
  141.4850   78.0710  223.2320 C   0  0  0  0  0  0  0  0  0  0  0  0
  139.8800   71.1690  223.6010 C   0  0  0  0  0  0  0  0  0  0  0  0
  139.4900   69.8580  223.7800 C   0  0  0  0  0  0  0  0  0  0  0  0
  139.6350   69.2650  225.0390 C   0  0  0  0  0  0  0  0  0  0  0  0
  140.1710   70.0190  226.0840 C   0  0  0  0  0  0  0  0  0  0  0  0
  140.2970   69.3990  227.3060 C   0  0  0  0  0  0  0  0  0  0  0  0
  140.8340   70.1640  228.3350 C   0  0  0  0  0  0  0  0  0  0  0  0
  141.2130   71.4750  228.1210 C   0  0  0  0  0  0  0  0  0  0  0  0
  141.0790   72.0840  226.8790 C   0  0  0  0  0  0  0  0  0  0  0  0
  140.5470   71.3290  225.8530 C   0  0  0  0  0  0  0  0  0  0  0  0
  140.3990   71.8920  224.6220 N   0  0  0  0  0  0  0  0  0  0  0  0
  139.5650   73.6930  222.9730 H   0  0  0  0  0  0  0  0  0  0  0  0
  140.3818   73.7164  220.3264 H   0  0  0  0  0  0  0  0  0  0  0  0
  138.7346   72.8401  220.2975 H   0  0  0  0  0  0  0  0  0  0  0  0
  135.8947   74.6352  221.2115 H   0  0  0  0  0  0  0  0  0  0  0  0
  136.6659   74.5039  222.7900 H   0  0  0  0  0  0  0  0  0  0  0  0
  135.1933   76.3938  223.2159 H   0  0  0  0  0  0  0  0  0  0  0  0
  136.7313   78.4362  222.4196 H   0  0  0  0  0  0  0  0  0  0  0  0
  137.3398   77.3255  223.6628 H   0  0  0  0  0  0  0  0  0  0  0  0
  138.1751   77.6632  220.8328 H   0  0  0  0  0  0  0  0  0  0  0  0
  140.3969   79.8555  221.3123 H   0  0  0  0  0  0  0  0  0  0  0  0
  138.7389   79.5168  221.8022 H   0  0  0  0  0  0  0  0  0  0  0  0
  139.4724   81.3330  223.2870 H   0  0  0  0  0  0  0  0  0  0  0  0
  139.6038   79.9038  224.3074 H   0  0  0  0  0  0  0  0  0  0  0  0
  141.7782   81.4281  222.7991 H   0  0  0  0  0  0  0  0  0  0  0  0
  141.7861   80.7969  224.4977 H   0  0  0  0  0  0  0  0  0  0  0  0
  142.4770   79.4573  221.9328 H   0  0  0  0  0  0  0  0  0  0  0  0
  143.1786   79.3022  223.6092 H   0  0  0  0  0  0  0  0  0  0  0  0
  142.0515   77.2233  222.8192 H   0  0  0  0  0  0  0  0  0  0  0  0
  141.3322   77.9104  224.3094 H   0  0  0  0  0  0  0  0  0  0  0  0
  139.0691   69.2843  222.9411 H   0  0  0  0  0  0  0  0  0  0  0  0
  139.3312   68.2205  225.2026 H   0  0  0  0  0  0  0  0  0  0  0  0
  139.9893   68.3542  227.4603 H   0  0  0  0  0  0  0  0  0  0  0  0
  140.9588   69.7193  229.3333 H   0  0  0  0  0  0  0  0  0  0  0  0
  141.6327   72.0533  228.9573 H   0  0  0  0  0  0  0  0  0  0  0  0
  141.3853   73.1284  226.7195 H   0  0  0  0  0  0  0  0  0  0  0  0
  1  2  2  0
  2  3  1  0
  3  4  1  0
  4  5  1  0
  5  6  2  0
  5  7  1  0
  7  8  1  0
  8  9  1  0
  9 10  1  0
  9 11  1  0
 11 12  1  0
 12 13  1  0
 13 14  2  0
 13 15  1  0
 15 16  1  0
 16 17  1  0
 17 18  1  0
 18 19  1  0
 19 20  1  0
  2 21  1  0
 21 22  2  0
 22 23  1  0
 23 24  2  0
 24 25  1  0
 25 26  2  0
 26 27  1  0
 27 28  2  0
 28 29  1  0
 29 30  2  0
 12  7  1  0
 20 15  1  0
 30 21  1  0
 29 24  1  0
  3 31  1  0
  4 32  1  0
  4 33  1  0
  8 34  1  0
  8 35  1  0
  9 36  1  1
 11 37  1  0
 11 38  1  0
 12 39  1  6
 16 40  1  0
 16 41  1  0
 17 42  1  0
 17 43  1  0
 18 44  1  0
 18 45  1  0
 19 46  1  0
 19 47  1  0
 20 48  1  0
 20 49  1  0
 22 50  1  0
 23 51  1  0
 25 52  1  0
 26 53  1  0
 27 54  1  0
 28 55  1  0
M  END
>  <smiles>  (39) 
O=C(NCC(=O)N1C[C@H](F)C[C@H]1C(=O)N1CCCCC1)c1ccc2ccccc2n1

>  <score_type>  (39) 
oracle

>  <origin>  (39) 
autodockgpu

>  <m_score__min__energy>  (39) 
-8.8300000000000001

>  <m_primary>  (39) 
energy

>  <rmsd>  (39) 
3.212721972088841

>  <m_score__min__rmsd>  (39) 
3.212721972088841

>  <meeko>  (39) 
{"free_energy": -8.12, "intermolecular_energy": -9.61, "internal_energy": -2.14, "cluster_size": 16, "cluster_id": 2, "rank_in_cluster": 11}

>  <energy>  (39) 
-7.82

>  <cluster_rmsd>  (39) 
0.4

>  <cluster>  (39) 
3

$$$$

     RDKit          3D

 55 58  0  0  0  0  0  0  0  0999 V2000
  138.4810   70.0840  221.5680 O   0  0  0  0  0  0  0  0  0  0  0  0
  138.7390   70.9050  222.4900 C   0  0  0  0  0  0  0  0  0  0  0  0
  138.5340   72.3220  222.1820 N   0  0  0  0  0  0  0  0  0  0  0  0
  138.0670   72.5970  220.8760 C   0  0  0  0  0  0  0  0  0  0  0  0
  139.0020   72.4990  219.7760 C   0  0  0  0  0  0  0  0  0  0  0  0
  138.4650   72.7740  218.6130 O   0  0  0  0  0  0  0  0  0  0  0  0
  140.3900   72.1560  219.7550 N   0  0  0  0  0  0  0  0  0  0  0  0
  141.1890   71.5760  218.7100 C   0  0  0  0  0  0  0  0  0  0  0  0
  142.4420   71.1090  219.4060 C   0  0  2  0  0  0  0  0  0  0  0  0
  142.2860   69.8190  219.8070 F   0  0  0  0  0  0  0  0  0  0  0  0
  142.5810   72.0700  220.5600 C   0  0  0  0  0  0  0  0  0  0  0  0
  141.2040   72.4480  220.9580 C   0  0  1  0  0  0  0  0  0  0  0  0
  141.0870   73.9020  221.2800 C   0  0  0  0  0  0  0  0  0  0  0  0
  140.4640   74.1830  222.3450 O   0  0  0  0  0  0  0  0  0  0  0  0
  141.6270   74.9270  220.4690 N   0  0  0  0  0  0  0  0  0  0  0  0
  142.3660   74.7010  219.2450 C   0  0  0  0  0  0  0  0  0  0  0  0
  141.7210   75.6470  218.2230 C   0  0  0  0  0  0  0  0  0  0  0  0
  142.2540   77.0310  218.5920 C   0  0  0  0  0  0  0  0  0  0  0  0
  142.3990   77.1890  220.0810 C   0  0  0  0  0  0  0  0  0  0  0  0
  141.4380   76.3120  220.8710 C   0  0  0  0  0  0  0  0  0  0  0  0
  139.2210   70.5020  223.8050 C   0  0  0  0  0  0  0  0  0  0  0  0
  139.1040   69.1660  224.1280 C   0  0  0  0  0  0  0  0  0  0  0  0
  139.5500   68.7210  225.3770 C   0  0  0  0  0  0  0  0  0  0  0  0
  140.1020   69.6440  226.2670 C   0  0  0  0  0  0  0  0  0  0  0  0
  140.5290   69.1660  227.4850 C   0  0  0  0  0  0  0  0  0  0  0  0
  141.0760   70.0990  228.3580 C   0  0  0  0  0  0  0  0  0  0  0  0
  141.1760   71.4300  228.0030 C   0  0  0  0  0  0  0  0  0  0  0  0
  140.7400   71.8930  226.7670 C   0  0  0  0  0  0  0  0  0  0  0  0
  140.1960   70.9730  225.8960 C   0  0  0  0  0  0  0  0  0  0  0  0
  139.7570   71.3900  224.6760 N   0  0  0  0  0  0  0  0  0  0  0  0
  138.7700   72.9420  222.9610 H   0  0  0  0  0  0  0  0  0  0  0  0
  137.2467   71.8939  220.6692 H   0  0  0  0  0  0  0  0  0  0  0  0
  137.7944   73.6623  220.9051 H   0  0  0  0  0  0  0  0  0  0  0  0
  140.6643   70.7287  218.2445 H   0  0  0  0  0  0  0  0  0  0  0  0
  141.4020   72.2908  217.9015 H   0  0  0  0  0  0  0  0  0  0  0  0
  143.3428   71.1107  218.7747 H   0  0  0  0  0  0  0  0  0  0  0  0
  143.0998   71.5840  221.3994 H   0  0  0  0  0  0  0  0  0  0  0  0
  143.1703   72.9538  220.2742 H   0  0  0  0  0  0  0  0  0  0  0  0
  140.8896   71.9039  221.8608 H   0  0  0  0  0  0  0  0  0  0  0  0
  143.4297   74.9452  219.3829 H   0  0  0  0  0  0  0  0  0  0  0  0
  142.3278   73.6500  218.9227 H   0  0  0  0  0  0  0  0  0  0  0  0
  142.0196   75.3756  217.1997 H   0  0  0  0  0  0  0  0  0  0  0  0
  140.6222   75.6021  218.2473 H   0  0  0  0  0  0  0  0  0  0  0  0
  143.2377   77.1722  218.1204 H   0  0  0  0  0  0  0  0  0  0  0  0
  141.5356   77.7833  218.2342 H   0  0  0  0  0  0  0  0  0  0  0  0
  143.4283   76.9224  220.3627 H   0  0  0  0  0  0  0  0  0  0  0  0
  142.1633   78.2356  220.3242 H   0  0  0  0  0  0  0  0  0  0  0  0
  141.6426   76.4156  221.9468 H   0  0  0  0  0  0  0  0  0  0  0  0
  140.4012   76.6204  220.6712 H   0  0  0  0  0  0  0  0  0  0  0  0
  138.6643   68.4575  223.4105 H   0  0  0  0  0  0  0  0  0  0  0  0
  139.4670   67.6596  225.6537 H   0  0  0  0  0  0  0  0  0  0  0  0
  140.4420   68.1027  227.7531 H   0  0  0  0  0  0  0  0  0  0  0  0
  141.4343   69.7728  229.3455 H   0  0  0  0  0  0  0  0  0  0  0  0
  141.6125   72.1431  228.7178 H   0  0  0  0  0  0  0  0  0  0  0  0
  140.8259   72.9550  226.4937 H   0  0  0  0  0  0  0  0  0  0  0  0
  1  2  2  0
  2  3  1  0
  3  4  1  0
  4  5  1  0
  5  6  2  0
  5  7  1  0
  7  8  1  0
  8  9  1  0
  9 10  1  0
  9 11  1  0
 11 12  1  0
 12 13  1  0
 13 14  2  0
 13 15  1  0
 15 16  1  0
 16 17  1  0
 17 18  1  0
 18 19  1  0
 19 20  1  0
  2 21  1  0
 21 22  2  0
 22 23  1  0
 23 24  2  0
 24 25  1  0
 25 26  2  0
 26 27  1  0
 27 28  2  0
 28 29  1  0
 29 30  2  0
 12  7  1  0
 20 15  1  0
 30 21  1  0
 29 24  1  0
  3 31  1  0
  4 32  1  0
  4 33  1  0
  8 34  1  0
  8 35  1  0
  9 36  1  6
 11 37  1  0
 11 38  1  0
 12 39  1  1
 16 40  1  0
 16 41  1  0
 17 42  1  0
 17 43  1  0
 18 44  1  0
 18 45  1  0
 19 46  1  0
 19 47  1  0
 20 48  1  0
 20 49  1  0
 22 50  1  0
 23 51  1  0
 25 52  1  0
 26 53  1  0
 27 54  1  0
 28 55  1  0
M  END
>  <smiles>  (40) 
O=C(NCC(=O)N1C[C@H](F)C[C@H]1C(=O)N1CCCCC1)c1ccc2ccccc2n1

>  <score_type>  (40) 
oracle

>  <origin>  (40) 
autodockgpu

>  <m_score__min__energy>  (40) 
-8.8300000000000001

>  <m_primary>  (40) 
energy

>  <rmsd>  (40) 
3.77656838054874

>  <m_score__min__rmsd>  (40) 
3.77656838054874

>  <meeko>  (40) 
{"free_energy": -6.91, "intermolecular_energy": -8.4, "internal_energy": -2.68, "cluster_size": 4, "cluster_id": 4, "rank_in_cluster": 4}

>  <energy>  (40) 
-7.81

>  <cluster_rmsd>  (40) 
0.74

>  <cluster>  (40) 
3

$$$$

     RDKit          3D

 55 58  0  0  0  0  0  0  0  0999 V2000
  140.9910   71.7350  221.4640 O   0  0  0  0  0  0  0  0  0  0  0  0
  140.3090   72.1520  222.4390 C   0  0  0  0  0  0  0  0  0  0  0  0
  139.6460   73.4470  222.2700 N   0  0  0  0  0  0  0  0  0  0  0  0
  139.8560   74.0760  221.0220 C   0  0  0  0  0  0  0  0  0  0  0  0
  140.8680   75.1060  220.9330 C   0  0  0  0  0  0  0  0  0  0  0  0
  141.4540   75.3590  222.0780 O   0  0  0  0  0  0  0  0  0  0  0  0
  141.3240   75.8780  219.8190 N   0  0  0  0  0  0  0  0  0  0  0  0
  141.3730   75.5520  218.4200 C   0  0  0  0  0  0  0  0  0  0  0  0
  142.2890   76.5900  217.8210 C   0  0  2  0  0  0  0  0  0  0  0  0
  143.5670   76.1260  217.8280 F   0  0  0  0  0  0  0  0  0  0  0  0
  142.0940   77.7870  218.7160 C   0  0  0  0  0  0  0  0  0  0  0  0
  141.8060   77.2560  220.0690 C   0  0  1  0  0  0  0  0  0  0  0  0
  140.7290   78.0270  220.7630 C   0  0  0  0  0  0  0  0  0  0  0  0
  139.5630   77.8910  220.2920 O   0  0  0  0  0  0  0  0  0  0  0  0
  140.9630   78.8640  221.8780 N   0  0  0  0  0  0  0  0  0  0  0  0
  142.2580   79.0690  222.4920 C   0  0  0  0  0  0  0  0  0  0  0  0
  142.3880   80.5920  222.6220 C   0  0  0  0  0  0  0  0  0  0  0  0
  141.4850   80.9560  223.8000 C   0  0  0  0  0  0  0  0  0  0  0  0
  140.2510   80.0970  223.8360 C   0  0  0  0  0  0  0  0  0  0  0  0
  139.8420   79.5810  222.4640 C   0  0  0  0  0  0  0  0  0  0  0  0
  140.1650   71.4110  223.6870 C   0  0  0  0  0  0  0  0  0  0  0  0
  139.5260   70.1900  223.6160 C   0  0  0  0  0  0  0  0  0  0  0  0
  139.3590   69.4350  224.7810 C   0  0  0  0  0  0  0  0  0  0  0  0
  139.8460   69.9380  225.9890 C   0  0  0  0  0  0  0  0  0  0  0  0
  139.6620   69.1640  227.1120 C   0  0  0  0  0  0  0  0  0  0  0  0
  140.1530   69.6800  228.3060 C   0  0  0  0  0  0  0  0  0  0  0  0
  140.7870   70.9070  228.3410 C   0  0  0  0  0  0  0  0  0  0  0  0
  140.9630   71.6740  227.1960 C   0  0  0  0  0  0  0  0  0  0  0  0
  140.4790   71.1670  226.0070 C   0  0  0  0  0  0  0  0  0  0  0  0
  140.6320   71.8900  224.8640 N   0  0  0  0  0  0  0  0  0  0  0  0
  139.1170   73.7390  223.0960 H   0  0  0  0  0  0  0  0  0  0  0  0
  140.1283   73.2894  220.3029 H   0  0  0  0  0  0  0  0  0  0  0  0
  138.9125   74.6056  220.8237 H   0  0  0  0  0  0  0  0  0  0  0  0
  141.7806   74.5413  218.2705 H   0  0  0  0  0  0  0  0  0  0  0  0
  140.3762   75.5561  217.9549 H   0  0  0  0  0  0  0  0  0  0  0  0
  142.0747   76.8380  216.7710 H   0  0  0  0  0  0  0  0  0  0  0  0
  143.0067   78.4007  218.7346 H   0  0  0  0  0  0  0  0  0  0  0  0
  141.2736   78.4249  218.3553 H   0  0  0  0  0  0  0  0  0  0  0  0
  142.6950   77.3149  220.7142 H   0  0  0  0  0  0  0  0  0  0  0  0
  142.2989   78.5899  223.4814 H   0  0  0  0  0  0  0  0  0  0  0  0
  143.0745   78.6297  221.9001 H   0  0  0  0  0  0  0  0  0  0  0  0
  143.4302   80.8767  222.8289 H   0  0  0  0  0  0  0  0  0  0  0  0
  142.1008   81.1159  221.6984 H   0  0  0  0  0  0  0  0  0  0  0  0
  142.0452   80.8159  224.7362 H   0  0  0  0  0  0  0  0  0  0  0  0
  141.1721   82.0041  223.6834 H   0  0  0  0  0  0  0  0  0  0  0  0
  140.4439   79.2346  224.4910 H   0  0  0  0  0  0  0  0  0  0  0  0
  139.4270   80.7225  224.2100 H   0  0  0  0  0  0  0  0  0  0  0  0
  138.9821   78.9026  222.5658 H   0  0  0  0  0  0  0  0  0  0  0  0
  139.5596   80.4247  221.8171 H   0  0  0  0  0  0  0  0  0  0  0  0
  139.1517   69.8143  222.6523 H   0  0  0  0  0  0  0  0  0  0  0  0
  138.8517   68.4596  224.7463 H   0  0  0  0  0  0  0  0  0  0  0  0
  139.1538   68.1895  227.0673 H   0  0  0  0  0  0  0  0  0  0  0  0
  140.0351   69.1035  229.2354 H   0  0  0  0  0  0  0  0  0  0  0  0
  141.1630   71.2873  229.3023 H   0  0  0  0  0  0  0  0  0  0  0  0
  141.4695   72.6496  227.2356 H   0  0  0  0  0  0  0  0  0  0  0  0
  1  2  2  0
  2  3  1  0
  3  4  1  0
  4  5  1  0
  5  6  2  0
  5  7  1  0
  7  8  1  0
  8  9  1  0
  9 10  1  0
  9 11  1  0
 11 12  1  0
 12 13  1  0
 13 14  2  0
 13 15  1  0
 15 16  1  0
 16 17  1  0
 17 18  1  0
 18 19  1  0
 19 20  1  0
  2 21  1  0
 21 22  2  0
 22 23  1  0
 23 24  2  0
 24 25  1  0
 25 26  2  0
 26 27  1  0
 27 28  2  0
 28 29  1  0
 29 30  2  0
 12  7  1  0
 20 15  1  0
 30 21  1  0
 29 24  1  0
  3 31  1  0
  4 32  1  0
  4 33  1  0
  8 34  1  0
  8 35  1  0
  9 36  1  6
 11 37  1  0
 11 38  1  0
 12 39  1  1
 16 40  1  0
 16 41  1  0
 17 42  1  0
 17 43  1  0
 18 44  1  0
 18 45  1  0
 19 46  1  0
 19 47  1  0
 20 48  1  0
 20 49  1  0
 22 50  1  0
 23 51  1  0
 25 52  1  0
 26 53  1  0
 27 54  1  0
 28 55  1  0
M  END
>  <smiles>  (41) 
O=C(NCC(=O)N1C[C@H](F)C[C@H]1C(=O)N1CCCCC1)c1ccc2ccccc2n1

>  <score_type>  (41) 
oracle

>  <origin>  (41) 
autodockgpu

>  <m_score__min__energy>  (41) 
-8.8300000000000001

>  <m_primary>  (41) 
energy

>  <rmsd>  (41) 
2.0919542748711315

>  <m_score__min__rmsd>  (41) 
2.0919542748711315

>  <meeko>  (41) 
{"free_energy": -8.55, "intermolecular_energy": -10.04, "internal_energy": -1.49, "cluster_size": 9, "cluster_id": 1, "rank_in_cluster": 5}

>  <energy>  (41) 
-7.79

>  <cluster_rmsd>  (41) 
1.83

>  <cluster>  (41) 
3

$$$$

     RDKit          3D

 55 58  0  0  0  0  0  0  0  0999 V2000
  141.3760   72.2780  221.7520 O   0  0  0  0  0  0  0  0  0  0  0  0
  140.4070   72.3740  222.5530 C   0  0  0  0  0  0  0  0  0  0  0  0
  139.4060   73.4000  222.2530 N   0  0  0  0  0  0  0  0  0  0  0  0
  139.6540   74.1650  221.0900 C   0  0  0  0  0  0  0  0  0  0  0  0
  140.7530   75.1060  221.1070 C   0  0  0  0  0  0  0  0  0  0  0  0
  141.1570   75.4100  222.3160 O   0  0  0  0  0  0  0  0  0  0  0  0
  141.4550   75.7450  220.0380 N   0  0  0  0  0  0  0  0  0  0  0  0
  142.2330   76.9530  220.0280 C   0  0  0  0  0  0  0  0  0  0  0  0
  142.3810   77.2970  218.5670 C   0  0  2  0  0  0  0  0  0  0  0  0
  141.3650   78.1160  218.1870 F   0  0  0  0  0  0  0  0  0  0  0  0
  142.3380   75.9530  217.8860 C   0  0  0  0  0  0  0  0  0  0  0  0
  141.4500   75.0950  218.7060 C   0  0  1  0  0  0  0  0  0  0  0  0
  141.9770   73.7030  218.8450 C   0  0  0  0  0  0  0  0  0  0  0  0
  141.1570   72.7750  218.5910 O   0  0  0  0  0  0  0  0  0  0  0  0
  143.3040   73.4060  219.2340 N   0  0  0  0  0  0  0  0  0  0  0  0
  144.3140   74.4010  219.5300 C   0  0  0  0  0  0  0  0  0  0  0  0
  144.9150   73.9550  220.8700 C   0  0  0  0  0  0  0  0  0  0  0  0
  145.8160   72.7730  220.5120 C   0  0  0  0  0  0  0  0  0  0  0  0
  145.2240   71.9420  219.4070 C   0  0  0  0  0  0  0  0  0  0  0  0
  143.7040   72.0140  219.3540 C   0  0  0  0  0  0  0  0  0  0  0  0
  140.2570   71.5250  223.7290 C   0  0  0  0  0  0  0  0  0  0  0  0
  139.5980   70.3250  223.5510 C   0  0  0  0  0  0  0  0  0  0  0  0
  139.4250   69.4700  224.6430 C   0  0  0  0  0  0  0  0  0  0  0  0
  139.9240   69.8530  225.8900 C   0  0  0  0  0  0  0  0  0  0  0  0
  139.7330   68.9830  226.9380 C   0  0  0  0  0  0  0  0  0  0  0  0
  140.2370   69.3810  228.1720 C   0  0  0  0  0  0  0  0  0  0  0  0
  140.8900   70.5890  228.3140 C   0  0  0  0  0  0  0  0  0  0  0  0
  141.0740   71.4540  227.2420 C   0  0  0  0  0  0  0  0  0  0  0  0
  140.5760   71.0660  226.0160 C   0  0  0  0  0  0  0  0  0  0  0  0
  140.7370   71.8880  224.9420 N   0  0  0  0  0  0  0  0  0  0  0  0
  138.6500   73.4390  222.9400 H   0  0  0  0  0  0  0  0  0  0  0  0
  139.8444   73.4573  220.2697 H   0  0  0  0  0  0  0  0  0  0  0  0
  138.7591   74.7961  220.9854 H   0  0  0  0  0  0  0  0  0  0  0  0
  141.7089   77.7571  220.5653 H   0  0  0  0  0  0  0  0  0  0  0  0
  143.2048   76.8279  220.5280 H   0  0  0  0  0  0  0  0  0  0  0  0
  143.3029   77.8424  218.3167 H   0  0  0  0  0  0  0  0  0  0  0  0
  141.9338   76.0553  216.8681 H   0  0  0  0  0  0  0  0  0  0  0  0
  143.3445   75.5175  217.8006 H   0  0  0  0  0  0  0  0  0  0  0  0
  140.4537   75.0050  218.2485 H   0  0  0  0  0  0  0  0  0  0  0  0
  145.0845   74.4178  218.7451 H   0  0  0  0  0  0  0  0  0  0  0  0
  143.8970   75.4178  219.5774 H   0  0  0  0  0  0  0  0  0  0  0  0
  145.5018   74.7679  221.3225 H   0  0  0  0  0  0  0  0  0  0  0  0
  144.1426   73.6842  221.6049 H   0  0  0  0  0  0  0  0  0  0  0  0
  146.7945   73.1556  220.1862 H   0  0  0  0  0  0  0  0  0  0  0  0
  145.9205   72.1370  221.4034 H   0  0  0  0  0  0  0  0  0  0  0  0
  145.6250   72.2992  218.4470 H   0  0  0  0  0  0  0  0  0  0  0  0
  145.4960   70.8943  219.6028 H   0  0  0  0  0  0  0  0  0  0  0  0
  143.3373   71.4479  218.4850 H   0  0  0  0  0  0  0  0  0  0  0  0
  143.2775   71.5807  220.2708 H   0  0  0  0  0  0  0  0  0  0  0  0
  139.2129   70.0445  222.5595 H   0  0  0  0  0  0  0  0  0  0  0  0
  138.9033   68.5092  224.5221 H   0  0  0  0  0  0  0  0  0  0  0  0
  139.2099   68.0242  226.8074 H   0  0  0  0  0  0  0  0  0  0  0  0
  140.1136   68.7246  229.0460 H   0  0  0  0  0  0  0  0  0  0  0  0
  141.2756   70.8750  229.3037 H   0  0  0  0  0  0  0  0  0  0  0  0
  141.5978   72.4132  227.3669 H   0  0  0  0  0  0  0  0  0  0  0  0
  1  2  2  0
  2  3  1  0
  3  4  1  0
  4  5  1  0
  5  6  2  0
  5  7  1  0
  7  8  1  0
  8  9  1  0
  9 10  1  0
  9 11  1  0
 11 12  1  0
 12 13  1  0
 13 14  2  0
 13 15  1  0
 15 16  1  0
 16 17  1  0
 17 18  1  0
 18 19  1  0
 19 20  1  0
  2 21  1  0
 21 22  2  0
 22 23  1  0
 23 24  2  0
 24 25  1  0
 25 26  2  0
 26 27  1  0
 27 28  2  0
 28 29  1  0
 29 30  2  0
 12  7  1  0
 20 15  1  0
 30 21  1  0
 29 24  1  0
  3 31  1  0
  4 32  1  0
  4 33  1  0
  8 34  1  0
  8 35  1  0
  9 36  1  1
 11 37  1  0
 11 38  1  0
 12 39  1  6
 16 40  1  0
 16 41  1  0
 17 42  1  0
 17 43  1  0
 18 44  1  0
 18 45  1  0
 19 46  1  0
 19 47  1  0
 20 48  1  0
 20 49  1  0
 22 50  1  0
 23 51  1  0
 25 52  1  0
 26 53  1  0
 27 54  1  0
 28 55  1  0
M  END
>  <smiles>  (42) 
O=C(NCC(=O)N1C[C@H](F)C[C@H]1C(=O)N1CCCCC1)c1ccc2ccccc2n1

>  <score_type>  (42) 
oracle

>  <origin>  (42) 
autodockgpu

>  <m_score__min__energy>  (42) 
-8.8300000000000001

>  <m_primary>  (42) 
energy

>  <rmsd>  (42) 
4.695641569810291

>  <m_score__min__rmsd>  (42) 
4.695641569810291

>  <meeko>  (42) 
{"free_energy": -7.89, "intermolecular_energy": -9.38, "internal_energy": -1.84, "cluster_size": 20, "cluster_id": 3, "rank_in_cluster": 5}

>  <energy>  (42) 
-7.74

>  <cluster_rmsd>  (42) 
0.36

>  <cluster>  (42) 
3

$$$$

     RDKit          3D

 55 58  0  0  0  0  0  0  0  0999 V2000
  139.9070   71.2130  221.2340 O   0  0  0  0  0  0  0  0  0  0  0  0
  139.8050   71.8650  222.3080 C   0  0  0  0  0  0  0  0  0  0  0  0
  139.5940   73.3090  222.1810 N   0  0  0  0  0  0  0  0  0  0  0  0
  139.5310   73.7970  220.8560 C   0  0  0  0  0  0  0  0  0  0  0  0
  138.6610   74.9200  220.5780 C   0  0  0  0  0  0  0  0  0  0  0  0
  138.7370   75.3420  219.3390 O   0  0  0  0  0  0  0  0  0  0  0  0
  137.7500   75.6300  221.4200 N   0  0  0  0  0  0  0  0  0  0  0  0
  136.5280   75.1980  222.0410 C   0  0  0  0  0  0  0  0  0  0  0  0
  135.8460   76.4740  222.4660 C   0  0  2  0  0  0  0  0  0  0  0  0
  135.0220   76.9020  221.4710 F   0  0  0  0  0  0  0  0  0  0  0  0
  136.9950   77.4160  222.7220 C   0  0  0  0  0  0  0  0  0  0  0  0
  138.0710   77.0310  221.7790 C   0  0  1  0  0  0  0  0  0  0  0  0
  139.4230   77.0700  222.4150 C   0  0  0  0  0  0  0  0  0  0  0  0
  139.8970   75.9530  222.7720 O   0  0  0  0  0  0  0  0  0  0  0  0
  140.1550   78.2620  222.6200 N   0  0  0  0  0  0  0  0  0  0  0  0
  139.7000   79.5810  222.2330 C   0  0  0  0  0  0  0  0  0  0  0  0
  139.9190   80.4480  223.4800 C   0  0  0  0  0  0  0  0  0  0  0  0
  141.4260   80.6970  223.5140 C   0  0  0  0  0  0  0  0  0  0  0  0
  142.1960   79.4950  223.0400 C   0  0  0  0  0  0  0  0  0  0  0  0
  141.4560   78.1840  223.2660 C   0  0  0  0  0  0  0  0  0  0  0  0
  139.8880   71.2490  223.6260 C   0  0  0  0  0  0  0  0  0  0  0  0
  139.3890   69.9690  223.7480 C   0  0  0  0  0  0  0  0  0  0  0  0
  139.4420   69.3270  224.9890 C   0  0  0  0  0  0  0  0  0  0  0  0
  140.0020   70.0020  226.0770 C   0  0  0  0  0  0  0  0  0  0  0  0
  140.0360   69.3350  227.2800 C   0  0  0  0  0  0  0  0  0  0  0  0
  140.5960   70.0210  228.3510 C   0  0  0  0  0  0  0  0  0  0  0  0
  141.0860   71.3030  228.1940 C   0  0  0  0  0  0  0  0  0  0  0  0
  141.0430   71.9590  226.9700 C   0  0  0  0  0  0  0  0  0  0  0  0
  140.4880   71.2840  225.9030 C   0  0  0  0  0  0  0  0  0  0  0  0
  140.4280   71.8950  224.6880 N   0  0  0  0  0  0  0  0  0  0  0  0
  139.5290   73.7870  223.0830 H   0  0  0  0  0  0  0  0  0  0  0  0
  140.5503   74.0965  220.5706 H   0  0  0  0  0  0  0  0  0  0  0  0
  139.0938   72.9668  220.2819 H   0  0  0  0  0  0  0  0  0  0  0  0
  135.9034   74.6436  221.3251 H   0  0  0  0  0  0  0  0  0  0  0  0
  136.7075   74.5188  222.8875 H   0  0  0  0  0  0  0  0  0  0  0  0
  135.2045   76.3759  223.3542 H   0  0  0  0  0  0  0  0  0  0  0  0
  136.6830   78.4549  222.5393 H   0  0  0  0  0  0  0  0  0  0  0  0
  137.3378   77.3519  223.7652 H   0  0  0  0  0  0  0  0  0  0  0  0
  138.1110   77.7203  220.9227 H   0  0  0  0  0  0  0  0  0  0  0  0
  140.2900   79.9623  221.3865 H   0  0  0  0  0  0  0  0  0  0  0  0
  138.6501   79.5802  221.9049 H   0  0  0  0  0  0  0  0  0  0  0  0
  139.3700   81.3974  223.3946 H   0  0  0  0  0  0  0  0  0  0  0  0
  139.5551   79.9611  224.3968 H   0  0  0  0  0  0  0  0  0  0  0  0
  141.6615   81.5516  222.8627 H   0  0  0  0  0  0  0  0  0  0  0  0
  141.7174   80.9043  224.5543 H   0  0  0  0  0  0  0  0  0  0  0  0
  142.3902   79.6061  221.9630 H   0  0  0  0  0  0  0  0  0  0  0  0
  143.1270   79.4508  223.6242 H   0  0  0  0  0  0  0  0  0  0  0  0
  142.0341   77.3540  222.8337 H   0  0  0  0  0  0  0  0  0  0  0  0
  141.3276   78.0086  224.3443 H   0  0  0  0  0  0  0  0  0  0  0  0
  138.9533   69.4578  222.8769 H   0  0  0  0  0  0  0  0  0  0  0  0
  139.0490   68.3064  225.1071 H   0  0  0  0  0  0  0  0  0  0  0  0
  139.6413   68.3140  227.3881 H   0  0  0  0  0  0  0  0  0  0  0  0
  140.6498   69.5366  229.3371 H   0  0  0  0  0  0  0  0  0  0  0  0
  141.5223   71.8188  229.0621 H   0  0  0  0  0  0  0  0  0  0  0  0
  141.4373   72.9796  226.8561 H   0  0  0  0  0  0  0  0  0  0  0  0
  1  2  2  0
  2  3  1  0
  3  4  1  0
  4  5  1  0
  5  6  2  0
  5  7  1  0
  7  8  1  0
  8  9  1  0
  9 10  1  0
  9 11  1  0
 11 12  1  0
 12 13  1  0
 13 14  2  0
 13 15  1  0
 15 16  1  0
 16 17  1  0
 17 18  1  0
 18 19  1  0
 19 20  1  0
  2 21  1  0
 21 22  2  0
 22 23  1  0
 23 24  2  0
 24 25  1  0
 25 26  2  0
 26 27  1  0
 27 28  2  0
 28 29  1  0
 29 30  2  0
 12  7  1  0
 20 15  1  0
 30 21  1  0
 29 24  1  0
  3 31  1  0
  4 32  1  0
  4 33  1  0
  8 34  1  0
  8 35  1  0
  9 36  1  1
 11 37  1  0
 11 38  1  0
 12 39  1  6
 16 40  1  0
 16 41  1  0
 17 42  1  0
 17 43  1  0
 18 44  1  0
 18 45  1  0
 19 46  1  0
 19 47  1  0
 20 48  1  0
 20 49  1  0
 22 50  1  0
 23 51  1  0
 25 52  1  0
 26 53  1  0
 27 54  1  0
 28 55  1  0
M  END
>  <smiles>  (43) 
O=C(NCC(=O)N1C[C@H](F)C[C@H]1C(=O)N1CCCCC1)c1ccc2ccccc2n1

>  <score_type>  (43) 
oracle

>  <origin>  (43) 
autodockgpu

>  <m_score__min__energy>  (43) 
-8.8300000000000001

>  <m_primary>  (43) 
energy

>  <rmsd>  (43) 
3.2480035834402834

>  <m_score__min__rmsd>  (43) 
3.2480035834402834

>  <meeko>  (43) 
{"free_energy": -8.26, "intermolecular_energy": -9.75, "internal_energy": -2.05, "cluster_size": 16, "cluster_id": 2, "rank_in_cluster": 3}

>  <energy>  (43) 
-7.74

>  <cluster_rmsd>  (43) 
0.64

>  <cluster>  (43) 
3

$$$$

     RDKit          3D

 55 58  0  0  0  0  0  0  0  0999 V2000
  141.4930   77.4100  217.4430 O   0  0  0  0  0  0  0  0  0  0  0  0
  142.2660   77.1660  218.4090 C   0  0  0  0  0  0  0  0  0  0  0  0
  142.3590   78.1920  219.4500 N   0  0  0  0  0  0  0  0  0  0  0  0
  141.5610   79.3400  219.2420 C   0  0  0  0  0  0  0  0  0  0  0  0
  141.0020   80.0070  220.3980 C   0  0  0  0  0  0  0  0  0  0  0  0
  139.9040   80.6720  220.1320 O   0  0  0  0  0  0  0  0  0  0  0  0
  141.4450   80.0570  221.7560 N   0  0  0  0  0  0  0  0  0  0  0  0
  141.8090   81.1800  222.5750 C   0  0  0  0  0  0  0  0  0  0  0  0
  142.5420   80.5750  223.7460 C   0  0  2  0  0  0  0  0  0  0  0  0
  143.8730   80.5250  223.4720 F   0  0  0  0  0  0  0  0  0  0  0  0
  141.9180   79.2090  223.8800 C   0  0  0  0  0  0  0  0  0  0  0  0
  141.5370   78.7850  222.5120 C   0  0  1  0  0  0  0  0  0  0  0  0
  140.2060   78.1060  222.4800 C   0  0  0  0  0  0  0  0  0  0  0  0
  139.2690   78.6980  223.0900 O   0  0  0  0  0  0  0  0  0  0  0  0
  139.9720   76.8790  221.8170 N   0  0  0  0  0  0  0  0  0  0  0  0
  140.9760   76.1390  221.0820 C   0  0  0  0  0  0  0  0  0  0  0  0
  140.8540   74.7010  221.6000 C   0  0  0  0  0  0  0  0  0  0  0  0
  139.5930   74.1560  220.9300 C   0  0  0  0  0  0  0  0  0  0  0  0
  138.5350   75.2170  220.7990 C   0  0  0  0  0  0  0  0  0  0  0  0
  138.6390   76.2990  221.8650 C   0  0  0  0  0  0  0  0  0  0  0  0
  143.0460   75.9390  218.5160 C   0  0  0  0  0  0  0  0  0  0  0  0
  143.0530   75.1080  217.4140 C   0  0  0  0  0  0  0  0  0  0  0  0
  143.7840   73.9160  217.4590 C   0  0  0  0  0  0  0  0  0  0  0  0
  144.4890   73.5980  218.6220 C   0  0  0  0  0  0  0  0  0  0  0  0
  145.1960   72.4170  218.6250 C   0  0  0  0  0  0  0  0  0  0  0  0
  145.8920   72.1160  219.7900 C   0  0  0  0  0  0  0  0  0  0  0  0
  145.8620   72.9710  220.8750 C   0  0  0  0  0  0  0  0  0  0  0  0
  145.1430   74.1600  220.8520 C   0  0  0  0  0  0  0  0  0  0  0  0
  144.4490   74.4640  219.6980 C   0  0  0  0  0  0  0  0  0  0  0  0
  143.7330   75.6200  219.6390 N   0  0  0  0  0  0  0  0  0  0  0  0
  143.0090   77.9450  220.2010 H   0  0  0  0  0  0  0  0  0  0  0  0
  142.1820   80.0760  218.7103 H   0  0  0  0  0  0  0  0  0  0  0  0
  140.6835   78.9644  218.6953 H   0  0  0  0  0  0  0  0  0  0  0  0
  142.4637   81.8688  222.0209 H   0  0  0  0  0  0  0  0  0  0  0  0
  140.9342   81.7682  222.8892 H   0  0  0  0  0  0  0  0  0  0  0  0
  142.4589   81.1456  224.6827 H   0  0  0  0  0  0  0  0  0  0  0  0
  142.6419   78.5009  224.3097 H   0  0  0  0  0  0  0  0  0  0  0  0
  141.0435   79.2346  224.5468 H   0  0  0  0  0  0  0  0  0  0  0  0
  142.2622   78.0658  222.1035 H   0  0  0  0  0  0  0  0  0  0  0  0
  140.7753   76.1807  220.0013 H   0  0  0  0  0  0  0  0  0  0  0  0
  141.9860   76.5500  221.2268 H   0  0  0  0  0  0  0  0  0  0  0  0
  141.7344   74.1081  221.3113 H   0  0  0  0  0  0  0  0  0  0  0  0
  140.7960   74.6563  222.6976 H   0  0  0  0  0  0  0  0  0  0  0  0
  139.8529   73.7849  219.9276 H   0  0  0  0  0  0  0  0  0  0  0  0
  139.1926   73.3453  221.5565 H   0  0  0  0  0  0  0  0  0  0  0  0
  138.6331   75.6891  219.8103 H   0  0  0  0  0  0  0  0  0  0  0  0
  137.5594   74.7248  220.9254 H   0  0  0  0  0  0  0  0  0  0  0  0
  137.8889   77.0803  221.6729 H   0  0  0  0  0  0  0  0  0  0  0  0
  138.4571   75.8631  222.8584 H   0  0  0  0  0  0  0  0  0  0  0  0
  142.4894   75.3802  216.5094 H   0  0  0  0  0  0  0  0  0  0  0  0
  143.8032   73.2396  216.5917 H   0  0  0  0  0  0  0  0  0  0  0  0
  145.2095   71.7474  217.7524 H   0  0  0  0  0  0  0  0  0  0  0  0
  146.4744   71.1847  219.8489 H   0  0  0  0  0  0  0  0  0  0  0  0
  146.4230   72.7030  221.7825 H   0  0  0  0  0  0  0  0  0  0  0  0
  145.1274   74.8340  221.7212 H   0  0  0  0  0  0  0  0  0  0  0  0
  1  2  2  0
  2  3  1  0
  3  4  1  0
  4  5  1  0
  5  6  2  0
  5  7  1  0
  7  8  1  0
  8  9  1  0
  9 10  1  0
  9 11  1  0
 11 12  1  0
 12 13  1  0
 13 14  2  0
 13 15  1  0
 15 16  1  0
 16 17  1  0
 17 18  1  0
 18 19  1  0
 19 20  1  0
  2 21  1  0
 21 22  2  0
 22 23  1  0
 23 24  2  0
 24 25  1  0
 25 26  2  0
 26 27  1  0
 27 28  2  0
 28 29  1  0
 29 30  2  0
 12  7  1  0
 20 15  1  0
 30 21  1  0
 29 24  1  0
  3 31  1  0
  4 32  1  0
  4 33  1  0
  8 34  1  0
  8 35  1  0
  9 36  1  1
 11 37  1  0
 11 38  1  0
 12 39  1  6
 16 40  1  0
 16 41  1  0
 17 42  1  0
 17 43  1  0
 18 44  1  0
 18 45  1  0
 19 46  1  0
 19 47  1  0
 20 48  1  0
 20 49  1  0
 22 50  1  0
 23 51  1  0
 25 52  1  0
 26 53  1  0
 27 54  1  0
 28 55  1  0
M  END
>  <smiles>  (44) 
O=C(NCC(=O)N1C[C@H](F)C[C@H]1C(=O)N1CCCCC1)c1ccc2ccccc2n1

>  <score_type>  (44) 
oracle

>  <origin>  (44) 
autodockgpu

>  <m_score__min__energy>  (44) 
-8.8300000000000001

>  <m_primary>  (44) 
energy

>  <rmsd>  (44) 
7.514370613047828

>  <m_score__min__rmsd>  (44) 
7.514370613047828

>  <meeko>  (44) 
{"free_energy": -6.8, "intermolecular_energy": -8.3, "internal_energy": -2.46, "cluster_size": 1, "cluster_id": 5, "rank_in_cluster": 1}

>  <energy>  (44) 
-7.72

>  <cluster_rmsd>  (44) 
0.36

>  <cluster>  (44) 
3

$$$$

     RDKit          3D

 55 58  0  0  0  0  0  0  0  0999 V2000
  138.8220   70.4110  221.4250 O   0  0  0  0  0  0  0  0  0  0  0  0
  139.0640   71.1790  222.3950 C   0  0  0  0  0  0  0  0  0  0  0  0
  138.9410   72.6160  222.1400 N   0  0  0  0  0  0  0  0  0  0  0  0
  138.5620   72.9670  220.8240 C   0  0  0  0  0  0  0  0  0  0  0  0
  139.5760   72.9540  219.7900 C   0  0  0  0  0  0  0  0  0  0  0  0
  139.0790   72.9130  218.5780 O   0  0  0  0  0  0  0  0  0  0  0  0
  141.0020   72.9780  219.8770 N   0  0  0  0  0  0  0  0  0  0  0  0
  142.0000   72.6190  218.9070 C   0  0  0  0  0  0  0  0  0  0  0  0
  143.2740   72.4900  219.7020 C   0  0  2  0  0  0  0  0  0  0  0  0
  143.4220   71.2040  220.1190 F   0  0  0  0  0  0  0  0  0  0  0  0
  143.0750   73.4570  220.8410 C   0  0  0  0  0  0  0  0  0  0  0  0
  141.6210   73.4710  221.1300 C   0  0  1  0  0  0  0  0  0  0  0  0
  141.1130   74.8480  221.4110 C   0  0  0  0  0  0  0  0  0  0  0  0
  140.2550   74.9420  222.3350 O   0  0  0  0  0  0  0  0  0  0  0  0
  141.5430   75.9970  220.7080 N   0  0  0  0  0  0  0  0  0  0  0  0
  142.5290   75.9890  219.6470 C   0  0  0  0  0  0  0  0  0  0  0  0
  141.8860   76.7980  218.5140 C   0  0  0  0  0  0  0  0  0  0  0  0
  142.0060   78.2540  218.9650 C   0  0  0  0  0  0  0  0  0  0  0  0
  141.8300   78.3880  220.4520 C   0  0  0  0  0  0  0  0  0  0  0  0
  140.9670   77.2870  221.0540 C   0  0  0  0  0  0  0  0  0  0  0  0
  139.4500   70.6990  223.7170 C   0  0  0  0  0  0  0  0  0  0  0  0
  139.2640   69.3560  223.9700 C   0  0  0  0  0  0  0  0  0  0  0  0
  139.6170   68.8380  225.2200 C   0  0  0  0  0  0  0  0  0  0  0  0
  140.1490   69.6990  226.1830 C   0  0  0  0  0  0  0  0  0  0  0  0
  140.4830   69.1500  227.4000 C   0  0  0  0  0  0  0  0  0  0  0  0
  141.0120   70.0200  228.3460 C   0  0  0  0  0  0  0  0  0  0  0  0
  141.1840   71.3610  228.0590 C   0  0  0  0  0  0  0  0  0  0  0  0
  140.8400   71.8960  226.8240 C   0  0  0  0  0  0  0  0  0  0  0  0
  140.3150   71.0370  225.8800 C   0  0  0  0  0  0  0  0  0  0  0  0
  139.9660   71.5250  224.6580 N   0  0  0  0  0  0  0  0  0  0  0  0
  139.1580   73.1910  222.9580 H   0  0  0  0  0  0  0  0  0  0  0  0
  137.7727   72.2661  220.5147 H   0  0  0  0  0  0  0  0  0  0  0  0
  138.2659   74.0237  220.9000 H   0  0  0  0  0  0  0  0  0  0  0  0
  141.7457   71.6643  218.4234 H   0  0  0  0  0  0  0  0  0  0  0  0
  142.0848   73.3627  218.1010 H   0  0  0  0  0  0  0  0  0  0  0  0
  144.1899   72.7204  219.1380 H   0  0  0  0  0  0  0  0  0  0  0  0
  143.6355   73.1223  221.7263 H   0  0  0  0  0  0  0  0  0  0  0  0
  143.4389   74.4615  220.5791 H   0  0  0  0  0  0  0  0  0  0  0  0
  141.3882   72.8667  222.0192 H   0  0  0  0  0  0  0  0  0  0  0  0
  143.4630   76.4641  219.9815 H   0  0  0  0  0  0  0  0  0  0  0  0
  142.7943   74.9689  219.3322 H   0  0  0  0  0  0  0  0  0  0  0  0
  142.4249   76.6385  217.5684 H   0  0  0  0  0  0  0  0  0  0  0  0
  140.8425   76.5025  218.3300 H   0  0  0  0  0  0  0  0  0  0  0  0
  143.0006   78.6331  218.6875 H   0  0  0  0  0  0  0  0  0  0  0  0
  141.2130   78.8343  218.4706 H   0  0  0  0  0  0  0  0  0  0  0  0
  142.8219   78.3538  220.9262 H   0  0  0  0  0  0  0  0  0  0  0  0
  141.3175   79.3437  220.6364 H   0  0  0  0  0  0  0  0  0  0  0  0
  140.9375   77.3971  222.1481 H   0  0  0  0  0  0  0  0  0  0  0  0
  139.9429   77.3569  220.6585 H   0  0  0  0  0  0  0  0  0  0  0  0
  138.8419   68.6985  223.1957 H   0  0  0  0  0  0  0  0  0  0  0  0
  139.4780   67.7695  225.4415 H   0  0  0  0  0  0  0  0  0  0  0  0
  140.3391   68.0804  227.6125 H   0  0  0  0  0  0  0  0  0  0  0  0
  141.2976   69.6361  229.3365 H   0  0  0  0  0  0  0  0  0  0  0  0
  141.6050   72.0231  228.8300 H   0  0  0  0  0  0  0  0  0  0  0  0
  140.9809   72.9650  226.6065 H   0  0  0  0  0  0  0  0  0  0  0  0
  1  2  2  0
  2  3  1  0
  3  4  1  0
  4  5  1  0
  5  6  2  0
  5  7  1  0
  7  8  1  0
  8  9  1  0
  9 10  1  0
  9 11  1  0
 11 12  1  0
 12 13  1  0
 13 14  2  0
 13 15  1  0
 15 16  1  0
 16 17  1  0
 17 18  1  0
 18 19  1  0
 19 20  1  0
  2 21  1  0
 21 22  2  0
 22 23  1  0
 23 24  2  0
 24 25  1  0
 25 26  2  0
 26 27  1  0
 27 28  2  0
 28 29  1  0
 29 30  2  0
 12  7  1  0
 20 15  1  0
 30 21  1  0
 29 24  1  0
  3 31  1  0
  4 32  1  0
  4 33  1  0
  8 34  1  0
  8 35  1  0
  9 36  1  6
 11 37  1  0
 11 38  1  0
 12 39  1  1
 16 40  1  0
 16 41  1  0
 17 42  1  0
 17 43  1  0
 18 44  1  0
 18 45  1  0
 19 46  1  0
 19 47  1  0
 20 48  1  0
 20 49  1  0
 22 50  1  0
 23 51  1  0
 25 52  1  0
 26 53  1  0
 27 54  1  0
 28 55  1  0
M  END
>  <smiles>  (45) 
O=C(NCC(=O)N1C[C@H](F)C[C@H]1C(=O)N1CCCCC1)c1ccc2ccccc2n1

>  <score_type>  (45) 
oracle

>  <origin>  (45) 
autodockgpu

>  <m_score__min__energy>  (45) 
-8.8300000000000001

>  <m_primary>  (45) 
energy

>  <rmsd>  (45) 
3.1770747808691033

>  <m_score__min__rmsd>  (45) 
3.1770747808691033

>  <meeko>  (45) 
{"free_energy": -7.3, "intermolecular_energy": -8.79, "internal_energy": -2.4, "cluster_size": 9, "cluster_id": 1, "rank_in_cluster": 8}

>  <energy>  (45) 
-7.47

>  <cluster_rmsd>  (45) 
0.55

>  <cluster>  (45) 
3

$$$$

     RDKit          3D

 55 58  0  0  0  0  0  0  0  0999 V2000
  139.0020   70.8080  221.4690 O   0  0  0  0  0  0  0  0  0  0  0  0
  139.3110   71.5370  222.4500 C   0  0  0  0  0  0  0  0  0  0  0  0
  139.3240   72.9830  222.2130 N   0  0  0  0  0  0  0  0  0  0  0  0
  138.9850   73.3850  220.9010 C   0  0  0  0  0  0  0  0  0  0  0  0
  138.3350   74.6660  220.7210 C   0  0  0  0  0  0  0  0  0  0  0  0
  138.5370   75.1870  219.5350 O   0  0  0  0  0  0  0  0  0  0  0  0
  137.5270   75.4390  221.6110 N   0  0  0  0  0  0  0  0  0  0  0  0
  136.3430   75.0790  222.3420 C   0  0  0  0  0  0  0  0  0  0  0  0
  135.7520   76.3960  222.7780 C   0  0  2  0  0  0  0  0  0  0  0  0
  134.8680   76.8300  221.8400 F   0  0  0  0  0  0  0  0  0  0  0  0
  136.9560   77.2940  222.9100 C   0  0  0  0  0  0  0  0  0  0  0  0
  137.9340   76.8350  221.8960 C   0  0  1  0  0  0  0  0  0  0  0  0
  139.3340   76.8330  222.4190 C   0  0  0  0  0  0  0  0  0  0  0  0
  139.8190   75.6980  222.6930 O   0  0  0  0  0  0  0  0  0  0  0  0
  140.0980   78.0080  222.6070 N   0  0  0  0  0  0  0  0  0  0  0  0
  139.6320   79.3470  222.3080 C   0  0  0  0  0  0  0  0  0  0  0  0
  139.9660   80.1630  223.5630 C   0  0  0  0  0  0  0  0  0  0  0  0
  141.4750   80.3920  223.4820 C   0  0  0  0  0  0  0  0  0  0  0  0
  142.1850   79.2000  222.9020 C   0  0  0  0  0  0  0  0  0  0  0  0
  141.4460   77.8900  223.1390 C   0  0  0  0  0  0  0  0  0  0  0  0
  139.6450   71.0060  223.7650 C   0  0  0  0  0  0  0  0  0  0  0  0
  139.4190   69.6600  223.9690 C   0  0  0  0  0  0  0  0  0  0  0  0
  139.7210   69.0940  225.2110 C   0  0  0  0  0  0  0  0  0  0  0  0
  140.2450   69.9090  226.2170 C   0  0  0  0  0  0  0  0  0  0  0  0
  140.5290   69.3130  227.4240 C   0  0  0  0  0  0  0  0  0  0  0  0
  141.0500   70.1400  228.4140 C   0  0  0  0  0  0  0  0  0  0  0  0
  141.2630   71.4840  228.1760 C   0  0  0  0  0  0  0  0  0  0  0  0
  140.9700   72.0670  226.9490 C   0  0  0  0  0  0  0  0  0  0  0  0
  140.4530   71.2520  225.9630 C   0  0  0  0  0  0  0  0  0  0  0  0
  140.1530   71.7880  224.7480 N   0  0  0  0  0  0  0  0  0  0  0  0
  139.5910   73.5230  223.0400 H   0  0  0  0  0  0  0  0  0  0  0  0
  139.9167   73.4078  220.3166 H   0  0  0  0  0  0  0  0  0  0  0  0
  138.2315   72.6512  220.5789 H   0  0  0  0  0  0  0  0  0  0  0  0
  135.6395   74.5318  221.6972 H   0  0  0  0  0  0  0  0  0  0  0  0
  136.5624   74.4173  223.1929 H   0  0  0  0  0  0  0  0  0  0  0  0
  135.1821   76.3525  223.7178 H   0  0  0  0  0  0  0  0  0  0  0  0
  136.6732   78.3398  222.7196 H   0  0  0  0  0  0  0  0  0  0  0  0
  137.3803   77.2453  223.9237 H   0  0  0  0  0  0  0  0  0  0  0  0
  137.9319   77.4965  221.0171 H   0  0  0  0  0  0  0  0  0  0  0  0
  140.1556   79.7533  221.4301 H   0  0  0  0  0  0  0  0  0  0  0  0
  138.5586   79.3711  222.0686 H   0  0  0  0  0  0  0  0  0  0  0  0
  139.4267   81.1217  223.5581 H   0  0  0  0  0  0  0  0  0  0  0  0
  139.6710   79.6461  224.4881 H   0  0  0  0  0  0  0  0  0  0  0  0
  141.6696   81.2679  222.8457 H   0  0  0  0  0  0  0  0  0  0  0  0
  141.8536   80.5556  224.5017 H   0  0  0  0  0  0  0  0  0  0  0  0
  142.2922   79.3500  221.8176 H   0  0  0  0  0  0  0  0  0  0  0  0
  143.1597   79.1221  223.4058 H   0  0  0  0  0  0  0  0  0  0  0  0
  141.9739   77.0706  222.6293 H   0  0  0  0  0  0  0  0  0  0  0  0
  141.4042   77.6749  224.2170 H   0  0  0  0  0  0  0  0  0  0  0  0
  139.0050   69.0381  223.1616 H   0  0  0  0  0  0  0  0  0  0  0  0
  139.5486   68.0230  225.3933 H   0  0  0  0  0  0  0  0  0  0  0  0
  140.3537   68.2409  227.5969 H   0  0  0  0  0  0  0  0  0  0  0  0
  141.2957   69.7180  229.3997 H   0  0  0  0  0  0  0  0  0  0  0  0
  141.6762   72.1104  228.9803 H   0  0  0  0  0  0  0  0  0  0  0  0
  141.1438   73.1384  226.7705 H   0  0  0  0  0  0  0  0  0  0  0  0
  1  2  2  0
  2  3  1  0
  3  4  1  0
  4  5  1  0
  5  6  2  0
  5  7  1  0
  7  8  1  0
  8  9  1  0
  9 10  1  0
  9 11  1  0
 11 12  1  0
 12 13  1  0
 13 14  2  0
 13 15  1  0
 15 16  1  0
 16 17  1  0
 17 18  1  0
 18 19  1  0
 19 20  1  0
  2 21  1  0
 21 22  2  0
 22 23  1  0
 23 24  2  0
 24 25  1  0
 25 26  2  0
 26 27  1  0
 27 28  2  0
 28 29  1  0
 29 30  2  0
 12  7  1  0
 20 15  1  0
 30 21  1  0
 29 24  1  0
  3 31  1  0
  4 32  1  0
  4 33  1  0
  8 34  1  0
  8 35  1  0
  9 36  1  1
 11 37  1  0
 11 38  1  0
 12 39  1  6
 16 40  1  0
 16 41  1  0
 17 42  1  0
 17 43  1  0
 18 44  1  0
 18 45  1  0
 19 46  1  0
 19 47  1  0
 20 48  1  0
 20 49  1  0
 22 50  1  0
 23 51  1  0
 25 52  1  0
 26 53  1  0
 27 54  1  0
 28 55  1  0
M  END
>  <smiles>  (46) 
O=C(NCC(=O)N1C[C@H](F)C[C@H]1C(=O)N1CCCCC1)c1ccc2ccccc2n1

>  <score_type>  (46) 
oracle

>  <origin>  (46) 
autodockgpu

>  <m_score__min__energy>  (46) 
-8.8300000000000001

>  <m_primary>  (46) 
energy

>  <rmsd>  (46) 
3.3410658830538607

>  <m_score__min__rmsd>  (46) 
3.3410658830538607

>  <meeko>  (46) 
{"free_energy": -7.96, "intermolecular_energy": -9.46, "internal_energy": -2.17, "cluster_size": 16, "cluster_id": 2, "rank_in_cluster": 12}

>  <energy>  (46) 
-7.25

>  <cluster_rmsd>  (46) 
0.0

>  <cluster>  (46) 
4

$$$$

     RDKit          3D

 55 58  0  0  0  0  0  0  0  0999 V2000
  139.5700   71.1040  221.2840 O   0  0  0  0  0  0  0  0  0  0  0  0
  139.6520   71.7790  222.3460 C   0  0  0  0  0  0  0  0  0  0  0  0
  139.5560   73.2340  222.2070 N   0  0  0  0  0  0  0  0  0  0  0  0
  139.3810   73.7060  220.8860 C   0  0  0  0  0  0  0  0  0  0  0  0
  138.4760   74.8130  220.6660 C   0  0  0  0  0  0  0  0  0  0  0  0
  138.4400   75.2140  219.4180 O   0  0  0  0  0  0  0  0  0  0  0  0
  137.6310   75.5270  221.5720 N   0  0  0  0  0  0  0  0  0  0  0  0
  136.4630   75.0960  222.2900 C   0  0  0  0  0  0  0  0  0  0  0  0
  135.8120   76.3730  222.7580 C   0  0  2  0  0  0  0  0  0  0  0  0
  134.9120   76.7910  221.8280 F   0  0  0  0  0  0  0  0  0  0  0  0
  136.9740   77.3200  222.9160 C   0  0  0  0  0  0  0  0  0  0  0  0
  137.9750   76.9320  221.8940 C   0  0  1  0  0  0  0  0  0  0  0  0
  139.3720   76.9790  222.4210 C   0  0  0  0  0  0  0  0  0  0  0  0
  139.8900   75.8630  222.7150 O   0  0  0  0  0  0  0  0  0  0  0  0
  140.1010   78.1790  222.5930 N   0  0  0  0  0  0  0  0  0  0  0  0
  139.5980   79.4980  222.2710 C   0  0  0  0  0  0  0  0  0  0  0  0
  139.9020   80.3430  223.5150 C   0  0  0  0  0  0  0  0  0  0  0  0
  141.4040   80.6160  223.4350 C   0  0  0  0  0  0  0  0  0  0  0  0
  142.1510   79.4360  222.8760 C   0  0  0  0  0  0  0  0  0  0  0  0
  141.4500   78.1090  223.1320 C   0  0  0  0  0  0  0  0  0  0  0  0
  139.8350   71.1780  223.6610 C   0  0  0  0  0  0  0  0  0  0  0  0
  139.4810   69.8510  223.7940 C   0  0  0  0  0  0  0  0  0  0  0  0
  139.6350   69.2200  225.0320 C   0  0  0  0  0  0  0  0  0  0  0  0
  140.1430   69.9540  226.1070 C   0  0  0  0  0  0  0  0  0  0  0  0
  140.2790   69.2970  227.3080 C   0  0  0  0  0  0  0  0  0  0  0  0
  140.7870   70.0420  228.3660 C   0  0  0  0  0  0  0  0  0  0  0  0
  141.1290   71.3690  228.1990 C   0  0  0  0  0  0  0  0  0  0  0  0
  140.9850   72.0150  226.9770 C   0  0  0  0  0  0  0  0  0  0  0  0
  140.4820   71.2810  225.9220 C   0  0  0  0  0  0  0  0  0  0  0  0
  140.3260   71.8800  224.7100 N   0  0  0  0  0  0  0  0  0  0  0  0
  139.6400   73.7300  223.0980 H   0  0  0  0  0  0  0  0  0  0  0  0
  140.3700   74.0161  220.5176 H   0  0  0  0  0  0  0  0  0  0  0  0
  138.9116   72.8633  220.3573 H   0  0  0  0  0  0  0  0  0  0  0  0
  135.7861   74.5345  221.6293 H   0  0  0  0  0  0  0  0  0  0  0  0
  136.7107   74.4236  223.1246 H   0  0  0  0  0  0  0  0  0  0  0  0
  135.2425   76.2796  223.6944 H   0  0  0  0  0  0  0  0  0  0  0  0
  136.6447   78.3565  222.7511 H   0  0  0  0  0  0  0  0  0  0  0  0
  137.3979   77.2639  223.9295 H   0  0  0  0  0  0  0  0  0  0  0  0
  137.9461   77.6157  221.0327 H   0  0  0  0  0  0  0  0  0  0  0  0
  140.1140   79.9057  221.3892 H   0  0  0  0  0  0  0  0  0  0  0  0
  138.5256   79.4870  222.0263 H   0  0  0  0  0  0  0  0  0  0  0  0
  139.3340   81.2848  223.4935 H   0  0  0  0  0  0  0  0  0  0  0  0
  139.6189   79.8319  224.4470 H   0  0  0  0  0  0  0  0  0  0  0  0
  141.5746   81.4871  222.7854 H   0  0  0  0  0  0  0  0  0  0  0  0
  141.7742   80.8074  224.4530 H   0  0  0  0  0  0  0  0  0  0  0  0
  142.2573   79.5718  221.7896 H   0  0  0  0  0  0  0  0  0  0  0  0
  143.1260   79.3949  223.3836 H   0  0  0  0  0  0  0  0  0  0  0  0
  142.0038   77.2971  222.6378 H   0  0  0  0  0  0  0  0  0  0  0  0
  141.4103   77.9102  224.2132 H   0  0  0  0  0  0  0  0  0  0  0  0
  139.0811   69.2945  222.9335 H   0  0  0  0  0  0  0  0  0  0  0  0
  139.3605   68.1623  225.1578 H   0  0  0  0  0  0  0  0  0  0  0  0
  140.0008   68.2392  227.4248 H   0  0  0  0  0  0  0  0  0  0  0  0
  140.9183   69.5676  229.3497 H   0  0  0  0  0  0  0  0  0  0  0  0
  141.5266   71.9307  229.0571 H   0  0  0  0  0  0  0  0  0  0  0  0
  141.2618   73.0726  226.8551 H   0  0  0  0  0  0  0  0  0  0  0  0
  1  2  2  0
  2  3  1  0
  3  4  1  0
  4  5  1  0
  5  6  2  0
  5  7  1  0
  7  8  1  0
  8  9  1  0
  9 10  1  0
  9 11  1  0
 11 12  1  0
 12 13  1  0
 13 14  2  0
 13 15  1  0
 15 16  1  0
 16 17  1  0
 17 18  1  0
 18 19  1  0
 19 20  1  0
  2 21  1  0
 21 22  2  0
 22 23  1  0
 23 24  2  0
 24 25  1  0
 25 26  2  0
 26 27  1  0
 27 28  2  0
 28 29  1  0
 29 30  2  0
 12  7  1  0
 20 15  1  0
 30 21  1  0
 29 24  1  0
  3 31  1  0
  4 32  1  0
  4 33  1  0
  8 34  1  0
  8 35  1  0
  9 36  1  1
 11 37  1  0
 11 38  1  0
 12 39  1  6
 16 40  1  0
 16 41  1  0
 17 42  1  0
 17 43  1  0
 18 44  1  0
 18 45  1  0
 19 46  1  0
 19 47  1  0
 20 48  1  0
 20 49  1  0
 22 50  1  0
 23 51  1  0
 25 52  1  0
 26 53  1  0
 27 54  1  0
 28 55  1  0
M  END
>  <smiles>  (47) 
O=C(NCC(=O)N1C[C@H](F)C[C@H]1C(=O)N1CCCCC1)c1ccc2ccccc2n1

>  <score_type>  (47) 
oracle

>  <origin>  (47) 
autodockgpu

>  <m_score__min__energy>  (47) 
-8.8300000000000001

>  <m_primary>  (47) 
energy

>  <rmsd>  (47) 
3.311818164499944

>  <m_score__min__rmsd>  (47) 
3.311818164499944

>  <meeko>  (47) 
{"free_energy": -8.21, "intermolecular_energy": -9.7, "internal_energy": -2.12, "cluster_size": 16, "cluster_id": 2, "rank_in_cluster": 6}

>  <energy>  (47) 
-7.24

>  <cluster_rmsd>  (47) 
0.64

>  <cluster>  (47) 
4

$$$$

     RDKit          3D

 55 58  0  0  0  0  0  0  0  0999 V2000
  139.5650   71.3030  221.3030 O   0  0  0  0  0  0  0  0  0  0  0  0
  139.6300   71.9120  222.4050 C   0  0  0  0  0  0  0  0  0  0  0  0
  139.5140   73.3710  222.3550 N   0  0  0  0  0  0  0  0  0  0  0  0
  139.3410   73.9210  221.0640 C   0  0  0  0  0  0  0  0  0  0  0  0
  138.0740   74.5450  220.7470 C   0  0  0  0  0  0  0  0  0  0  0  0
  137.6760   74.3140  219.5190 O   0  0  0  0  0  0  0  0  0  0  0  0
  137.2050   75.3560  221.5390 N   0  0  0  0  0  0  0  0  0  0  0  0
  135.9980   75.0160  222.2420 C   0  0  0  0  0  0  0  0  0  0  0  0
  135.3520   76.3430  222.5530 C   0  0  2  0  0  0  0  0  0  0  0  0
  134.5030   76.6810  221.5460 F   0  0  0  0  0  0  0  0  0  0  0  0
  136.5250   77.2820  222.6720 C   0  0  0  0  0  0  0  0  0  0  0  0
  137.5620   76.7810  221.7390 C   0  0  1  0  0  0  0  0  0  0  0  0
  138.9350   76.8580  222.3230 C   0  0  0  0  0  0  0  0  0  0  0  0
  139.3190   75.8400  222.9690 O   0  0  0  0  0  0  0  0  0  0  0  0
  139.7810   77.9830  222.1820 N   0  0  0  0  0  0  0  0  0  0  0  0
  139.4340   79.1830  221.4500 C   0  0  0  0  0  0  0  0  0  0  0  0
  139.7810   80.3330  222.4050 C   0  0  0  0  0  0  0  0  0  0  0  0
  141.3050   80.4310  222.3520 C   0  0  0  0  0  0  0  0  0  0  0  0
  141.9420   79.0750  222.2190 C   0  0  0  0  0  0  0  0  0  0  0  0
  141.0930   77.9560  222.8080 C   0  0  0  0  0  0  0  0  0  0  0  0
  139.8120   71.2340  223.6830 C   0  0  0  0  0  0  0  0  0  0  0  0
  139.4750   69.8970  223.7320 C   0  0  0  0  0  0  0  0  0  0  0  0
  139.6290   69.1940  224.9310 C   0  0  0  0  0  0  0  0  0  0  0  0
  140.1220   69.8670  226.0510 C   0  0  0  0  0  0  0  0  0  0  0  0
  140.2600   69.1390  227.2110 C   0  0  0  0  0  0  0  0  0  0  0  0
  140.7520   69.8240  228.3160 C   0  0  0  0  0  0  0  0  0  0  0  0
  141.0790   71.1640  228.2320 C   0  0  0  0  0  0  0  0  0  0  0  0
  140.9340   71.8810  227.0510 C   0  0  0  0  0  0  0  0  0  0  0  0
  140.4460   71.2070  225.9500 C   0  0  0  0  0  0  0  0  0  0  0  0
  140.2890   71.8770  224.7750 N   0  0  0  0  0  0  0  0  0  0  0  0
  139.5850   73.8130  223.2750 H   0  0  0  0  0  0  0  0  0  0  0  0
  140.1223   74.6832  220.9276 H   0  0  0  0  0  0  0  0  0  0  0  0
  139.3914   73.0527  220.3906 H   0  0  0  0  0  0  0  0  0  0  0  0
  135.3398   74.4025  221.6092 H   0  0  0  0  0  0  0  0  0  0  0  0
  136.1957   74.4256  223.1489 H   0  0  0  0  0  0  0  0  0  0  0  0
  134.7392   76.3517  223.4664 H   0  0  0  0  0  0  0  0  0  0  0  0
  136.2243   78.3027  222.3933 H   0  0  0  0  0  0  0  0  0  0  0  0
  136.9028   77.3175  223.7045 H   0  0  0  0  0  0  0  0  0  0  0  0
  137.5844   77.3775  220.8150 H   0  0  0  0  0  0  0  0  0  0  0  0
  140.0225   79.2566  220.5236 H   0  0  0  0  0  0  0  0  0  0  0  0
  138.3763   79.1963  221.1480 H   0  0  0  0  0  0  0  0  0  0  0  0
  139.3194   81.2721  222.0659 H   0  0  0  0  0  0  0  0  0  0  0  0
  139.4095   80.1550  223.4249 H   0  0  0  0  0  0  0  0  0  0  0  0
  141.5934   81.0473  221.4877 H   0  0  0  0  0  0  0  0  0  0  0  0
  141.6538   80.8847  223.2914 H   0  0  0  0  0  0  0  0  0  0  0  0
  142.1032   78.8671  221.1509 H   0  0  0  0  0  0  0  0  0  0  0  0
  142.8874   79.1001  222.7808 H   0  0  0  0  0  0  0  0  0  0  0  0
  141.5746   76.9860  222.6151 H   0  0  0  0  0  0  0  0  0  0  0  0
  140.9914   78.0967  223.8942 H   0  0  0  0  0  0  0  0  0  0  0  0
  139.0888   69.3887  222.8362 H   0  0  0  0  0  0  0  0  0  0  0  0
  139.3659   68.1276  224.9910 H   0  0  0  0  0  0  0  0  0  0  0  0
  139.9952   68.0725  227.2609 H   0  0  0  0  0  0  0  0  0  0  0  0
  140.8828   69.2923  229.2700 H   0  0  0  0  0  0  0  0  0  0  0  0
  141.4648   71.6772  229.1251 H   0  0  0  0  0  0  0  0  0  0  0  0
  141.1986   72.9473  226.9954 H   0  0  0  0  0  0  0  0  0  0  0  0
  1  2  2  0
  2  3  1  0
  3  4  1  0
  4  5  1  0
  5  6  2  0
  5  7  1  0
  7  8  1  0
  8  9  1  0
  9 10  1  0
  9 11  1  0
 11 12  1  0
 12 13  1  0
 13 14  2  0
 13 15  1  0
 15 16  1  0
 16 17  1  0
 17 18  1  0
 18 19  1  0
 19 20  1  0
  2 21  1  0
 21 22  2  0
 22 23  1  0
 23 24  2  0
 24 25  1  0
 25 26  2  0
 26 27  1  0
 27 28  2  0
 28 29  1  0
 29 30  2  0
 12  7  1  0
 20 15  1  0
 30 21  1  0
 29 24  1  0
  3 31  1  0
  4 32  1  0
  4 33  1  0
  8 34  1  0
  8 35  1  0
  9 36  1  1
 11 37  1  0
 11 38  1  0
 12 39  1  6
 16 40  1  0
 16 41  1  0
 17 42  1  0
 17 43  1  0
 18 44  1  0
 18 45  1  0
 19 46  1  0
 19 47  1  0
 20 48  1  0
 20 49  1  0
 22 50  1  0
 23 51  1  0
 25 52  1  0
 26 53  1  0
 27 54  1  0
 28 55  1  0
M  END
>  <smiles>  (48) 
O=C(NCC(=O)N1C[C@H](F)C[C@H]1C(=O)N1CCCCC1)c1ccc2ccccc2n1

>  <score_type>  (48) 
oracle

>  <origin>  (48) 
autodockgpu

>  <m_score__min__energy>  (48) 
-8.8300000000000001

>  <m_primary>  (48) 
energy

>  <rmsd>  (48) 
3.363285556567144

>  <m_score__min__rmsd>  (48) 
3.363285556567144

>  <meeko>  (48) 
{"free_energy": -7.56, "intermolecular_energy": -9.06, "internal_energy": -2.04, "cluster_size": 16, "cluster_id": 2, "rank_in_cluster": 14}

>  <energy>  (48) 
-7.18

>  <cluster_rmsd>  (48) 
0.64

>  <cluster>  (48) 
4

$$$$

     RDKit          3D

 55 58  0  0  0  0  0  0  0  0999 V2000
  137.8570   70.2440  221.7930 O   0  0  0  0  0  0  0  0  0  0  0  0
  138.3120   70.9430  222.7390 C   0  0  0  0  0  0  0  0  0  0  0  0
  138.2770   72.3960  222.5560 N   0  0  0  0  0  0  0  0  0  0  0  0
  137.7310   72.8390  221.3300 C   0  0  0  0  0  0  0  0  0  0  0  0
  138.1950   74.0970  220.7860 C   0  0  0  0  0  0  0  0  0  0  0  0
  137.9330   74.2370  219.5090 O   0  0  0  0  0  0  0  0  0  0  0  0
  138.8810   75.1890  221.4030 N   0  0  0  0  0  0  0  0  0  0  0  0
  138.4120   76.1700  222.3430 C   0  0  0  0  0  0  0  0  0  0  0  0
  139.4590   77.2540  222.3150 C   0  0  2  0  0  0  0  0  0  0  0  0
  139.1210   78.1890  221.3870 F   0  0  0  0  0  0  0  0  0  0  0  0
  140.7230   76.5100  221.9640 C   0  0  0  0  0  0  0  0  0  0  0  0
  140.3170   75.3800  221.0950 C   0  0  1  0  0  0  0  0  0  0  0  0
  141.0540   74.1210  221.4210 C   0  0  0  0  0  0  0  0  0  0  0  0
  140.5540   73.4120  222.3410 O   0  0  0  0  0  0  0  0  0  0  0  0
  142.2380   73.7170  220.7620 N   0  0  0  0  0  0  0  0  0  0  0  0
  142.8740   74.4560  219.6910 C   0  0  0  0  0  0  0  0  0  0  0  0
  144.3510   74.5340  220.0970 C   0  0  0  0  0  0  0  0  0  0  0  0
  144.9030   73.1380  219.8090 C   0  0  0  0  0  0  0  0  0  0  0  0
  143.8860   72.0700  220.1050 C   0  0  0  0  0  0  0  0  0  0  0  0
  142.8820   72.4800  221.1730 C   0  0  0  0  0  0  0  0  0  0  0  0
  138.8560   70.3700  223.9640 C   0  0  0  0  0  0  0  0  0  0  0  0
  138.7020   69.0100  224.1370 C   0  0  0  0  0  0  0  0  0  0  0  0
  139.2040   68.4050  225.2940 C   0  0  0  0  0  0  0  0  0  0  0  0
  139.8500   69.1960  226.2460 C   0  0  0  0  0  0  0  0  0  0  0  0
  140.3290   68.5620  227.3690 C   0  0  0  0  0  0  0  0  0  0  0  0
  140.9690   69.3650  228.3070 C   0  0  0  0  0  0  0  0  0  0  0  0
  141.1050   70.7240  228.1020 C   0  0  0  0  0  0  0  0  0  0  0  0
  140.6140   71.3460  226.9600 C   0  0  0  0  0  0  0  0  0  0  0  0
  139.9780   70.5550  226.0260 C   0  0  0  0  0  0  0  0  0  0  0  0
  139.4830   71.1290  224.8950 N   0  0  0  0  0  0  0  0  0  0  0  0
  138.6690   72.9110  223.3490 H   0  0  0  0  0  0  0  0  0  0  0  0
  137.9423   72.0624  220.5801 H   0  0  0  0  0  0  0  0  0  0  0  0
  136.6689   73.0162  221.5547 H   0  0  0  0  0  0  0  0  0  0  0  0
  137.4336   76.5670  222.0345 H   0  0  0  0  0  0  0  0  0  0  0  0
  138.2731   75.7500  223.3501 H   0  0  0  0  0  0  0  0  0  0  0  0
  139.5696   77.8070  223.2594 H   0  0  0  0  0  0  0  0  0  0  0  0
  141.4175   77.1725  221.4266 H   0  0  0  0  0  0  0  0  0  0  0  0
  141.2388   76.1525  222.8674 H   0  0  0  0  0  0  0  0  0  0  0  0
  140.5286   75.5981  220.0378 H   0  0  0  0  0  0  0  0  0  0  0  0
  142.7621   73.9257  218.7338 H   0  0  0  0  0  0  0  0  0  0  0  0
  142.4277   75.4514  219.5493 H   0  0  0  0  0  0  0  0  0  0  0  0
  144.8788   75.2915  219.4990 H   0  0  0  0  0  0  0  0  0  0  0  0
  144.4799   74.8250  221.1499 H   0  0  0  0  0  0  0  0  0  0  0  0
  145.1859   73.0776  218.7477 H   0  0  0  0  0  0  0  0  0  0  0  0
  145.7758   72.9720  220.4575 H   0  0  0  0  0  0  0  0  0  0  0  0
  143.3382   71.8421  219.1787 H   0  0  0  0  0  0  0  0  0  0  0  0
  144.4318   71.1947  220.4871 H   0  0  0  0  0  0  0  0  0  0  0  0
  142.1249   71.6907  221.2909 H   0  0  0  0  0  0  0  0  0  0  0  0
  143.3981   72.6289  222.1330 H   0  0  0  0  0  0  0  0  0  0  0  0
  138.1895   68.4074  223.3727 H   0  0  0  0  0  0  0  0  0  0  0  0
  139.0915   67.3222  225.4515 H   0  0  0  0  0  0  0  0  0  0  0  0
  140.2121   67.4783  227.5171 H   0  0  0  0  0  0  0  0  0  0  0  0
  141.3723   68.9116  229.2245 H   0  0  0  0  0  0  0  0  0  0  0  0
  141.6161   71.3311  228.8637 H   0  0  0  0  0  0  0  0  0  0  0  0
  140.7284   72.4292  226.8068 H   0  0  0  0  0  0  0  0  0  0  0  0
  1  2  2  0
  2  3  1  0
  3  4  1  0
  4  5  1  0
  5  6  2  0
  5  7  1  0
  7  8  1  0
  8  9  1  0
  9 10  1  0
  9 11  1  0
 11 12  1  0
 12 13  1  0
 13 14  2  0
 13 15  1  0
 15 16  1  0
 16 17  1  0
 17 18  1  0
 18 19  1  0
 19 20  1  0
  2 21  1  0
 21 22  2  0
 22 23  1  0
 23 24  2  0
 24 25  1  0
 25 26  2  0
 26 27  1  0
 27 28  2  0
 28 29  1  0
 29 30  2  0
 12  7  1  0
 20 15  1  0
 30 21  1  0
 29 24  1  0
  3 31  1  0
  4 32  1  0
  4 33  1  0
  8 34  1  0
  8 35  1  0
  9 36  1  1
 11 37  1  0
 11 38  1  0
 12 39  1  6
 16 40  1  0
 16 41  1  0
 17 42  1  0
 17 43  1  0
 18 44  1  0
 18 45  1  0
 19 46  1  0
 19 47  1  0
 20 48  1  0
 20 49  1  0
 22 50  1  0
 23 51  1  0
 25 52  1  0
 26 53  1  0
 27 54  1  0
 28 55  1  0
M  END
>  <smiles>  (49) 
O=C(NCC(=O)N1C[C@H](F)C[C@H]1C(=O)N1CCCCC1)c1ccc2ccccc2n1

>  <score_type>  (49) 
oracle

>  <origin>  (49) 
autodockgpu

>  <m_score__min__energy>  (49) 
-8.8300000000000001

>  <m_primary>  (49) 
energy

>  <rmsd>  (49) 
4.550397441509573

>  <m_score__min__rmsd>  (49) 
4.550397441509573

>  <meeko>  (49) 
{"free_energy": -7.87, "intermolecular_energy": -9.37, "internal_energy": -2.37, "cluster_size": 20, "cluster_id": 3, "rank_in_cluster": 6}

>  <energy>  (49) 
-6.91

>  <cluster_rmsd>  (49) 
0.9

>  <cluster>  (49) 
4

$$$$

     RDKit          3D

 55 58  0  0  0  0  0  0  0  0999 V2000
  138.3410   70.2850  221.6010 O   0  0  0  0  0  0  0  0  0  0  0  0
  138.6650   71.0180  222.5750 C   0  0  0  0  0  0  0  0  0  0  0  0
  138.5380   72.4630  222.3780 N   0  0  0  0  0  0  0  0  0  0  0  0
  138.0620   72.8620  221.1080 C   0  0  0  0  0  0  0  0  0  0  0  0
  138.1450   74.2620  220.7510 C   0  0  0  0  0  0  0  0  0  0  0  0
  137.5230   74.5500  219.6340 O   0  0  0  0  0  0  0  0  0  0  0  0
  138.7830   75.3600  221.4080 N   0  0  0  0  0  0  0  0  0  0  0  0
  138.2820   76.2670  222.4040 C   0  0  0  0  0  0  0  0  0  0  0  0
  139.2670   77.4080  222.4080 C   0  0  2  0  0  0  0  0  0  0  0  0
  138.8580   78.3660  221.5340 F   0  0  0  0  0  0  0  0  0  0  0  0
  140.5620   76.7540  221.9980 C   0  0  0  0  0  0  0  0  0  0  0  0
  140.2000   75.6460  221.0820 C   0  0  1  0  0  0  0  0  0  0  0  0
  141.0110   74.4160  221.3310 C   0  0  0  0  0  0  0  0  0  0  0  0
  140.6690   73.7230  222.3320 O   0  0  0  0  0  0  0  0  0  0  0  0
  142.1000   74.0210  220.5200 N   0  0  0  0  0  0  0  0  0  0  0  0
  142.5540   74.7420  219.3480 C   0  0  0  0  0  0  0  0  0  0  0  0
  144.0710   74.8680  219.5350 C   0  0  0  0  0  0  0  0  0  0  0  0
  144.6150   73.4780  219.2080 C   0  0  0  0  0  0  0  0  0  0  0  0
  143.6830   72.3950  219.6760 C   0  0  0  0  0  0  0  0  0  0  0  0
  142.8310   72.8130  220.8660 C   0  0  0  0  0  0  0  0  0  0  0  0
  139.1470   70.4900  223.8450 C   0  0  0  0  0  0  0  0  0  0  0  0
  139.0420   69.1270  224.0340 C   0  0  0  0  0  0  0  0  0  0  0  0
  139.4880   68.5640  225.2330 C   0  0  0  0  0  0  0  0  0  0  0  0
  140.0310   69.3990  226.2120 C   0  0  0  0  0  0  0  0  0  0  0  0
  140.4590   68.8050  227.3770 C   0  0  0  0  0  0  0  0  0  0  0  0
  140.9970   69.6510  228.3410 C   0  0  0  0  0  0  0  0  0  0  0  0
  141.0870   71.0120  228.1200 C   0  0  0  0  0  0  0  0  0  0  0  0
  140.6500   71.5920  226.9350 C   0  0  0  0  0  0  0  0  0  0  0  0
  140.1150   70.7580  225.9750 C   0  0  0  0  0  0  0  0  0  0  0  0
  139.6750   71.2910  224.8020 N   0  0  0  0  0  0  0  0  0  0  0  0
  138.8240   73.0080  223.1950 H   0  0  0  0  0  0  0  0  0  0  0  0
  138.6338   72.2998  220.3550 H   0  0  0  0  0  0  0  0  0  0  0  0
  136.9821   72.6563  221.1469 H   0  0  0  0  0  0  0  0  0  0  0  0
  137.2765   76.6228  222.1348 H   0  0  0  0  0  0  0  0  0  0  0  0
  138.1890   75.7923  223.3919 H   0  0  0  0  0  0  0  0  0  0  0  0
  139.3675   77.9210  223.3759 H   0  0  0  0  0  0  0  0  0  0  0  0
  141.2075   77.4794  221.4811 H   0  0  0  0  0  0  0  0  0  0  0  0
  141.1158   76.3831  222.8730 H   0  0  0  0  0  0  0  0  0  0  0  0
  140.3767   75.9267  220.0332 H   0  0  0  0  0  0  0  0  0  0  0  0
  142.3210   74.1797  218.4317 H   0  0  0  0  0  0  0  0  0  0  0  0
  142.0636   75.7212  219.2447 H   0  0  0  0  0  0  0  0  0  0  0  0
  144.4862   75.6194  218.8473 H   0  0  0  0  0  0  0  0  0  0  0  0
  144.3411   75.1941  220.5503 H   0  0  0  0  0  0  0  0  0  0  0  0
  144.7439   73.3921  218.1189 H   0  0  0  0  0  0  0  0  0  0  0  0
  145.5762   73.3534  219.7282 H   0  0  0  0  0  0  0  0  0  0  0  0
  143.0149   72.1248  218.8449 H   0  0  0  0  0  0  0  0  0  0  0  0
  144.3031   71.5458  219.9990 H   0  0  0  0  0  0  0  0  0  0  0  0
  142.1212   72.0096  221.1124 H   0  0  0  0  0  0  0  0  0  0  0  0
  143.4750   73.0035  221.7372 H   0  0  0  0  0  0  0  0  0  0  0  0
  138.6111   68.4894  223.2480 H   0  0  0  0  0  0  0  0  0  0  0  0
  139.4125   67.4798  225.4030 H   0  0  0  0  0  0  0  0  0  0  0  0
  140.3799   67.7196  227.5373 H   0  0  0  0  0  0  0  0  0  0  0  0
  141.3557   69.2309  229.2923 H   0  0  0  0  0  0  0  0  0  0  0  0
  141.5163   71.6540  228.9033 H   0  0  0  0  0  0  0  0  0  0  0  0
  140.7278   72.6766  226.7686 H   0  0  0  0  0  0  0  0  0  0  0  0
  1  2  2  0
  2  3  1  0
  3  4  1  0
  4  5  1  0
  5  6  2  0
  5  7  1  0
  7  8  1  0
  8  9  1  0
  9 10  1  0
  9 11  1  0
 11 12  1  0
 12 13  1  0
 13 14  2  0
 13 15  1  0
 15 16  1  0
 16 17  1  0
 17 18  1  0
 18 19  1  0
 19 20  1  0
  2 21  1  0
 21 22  2  0
 22 23  1  0
 23 24  2  0
 24 25  1  0
 25 26  2  0
 26 27  1  0
 27 28  2  0
 28 29  1  0
 29 30  2  0
 12  7  1  0
 20 15  1  0
 30 21  1  0
 29 24  1  0
  3 31  1  0
  4 32  1  0
  4 33  1  0
  8 34  1  0
  8 35  1  0
  9 36  1  1
 11 37  1  0
 11 38  1  0
 12 39  1  6
 16 40  1  0
 16 41  1  0
 17 42  1  0
 17 43  1  0
 18 44  1  0
 18 45  1  0
 19 46  1  0
 19 47  1  0
 20 48  1  0
 20 49  1  0
 22 50  1  0
 23 51  1  0
 25 52  1  0
 26 53  1  0
 27 54  1  0
 28 55  1  0
M  END
>  <smiles>  (50) 
O=C(NCC(=O)N1C[C@H](F)C[C@H]1C(=O)N1CCCCC1)c1ccc2ccccc2n1

>  <score_type>  (50) 
oracle

>  <origin>  (50) 
autodockgpu

>  <m_score__min__energy>  (50) 
-8.8300000000000001

>  <m_primary>  (50) 
energy

>  <rmsd>  (50) 
4.442285156675645

>  <m_score__min__rmsd>  (50) 
4.442285156675645

>  <meeko>  (50) 
{"free_energy": -7.83, "intermolecular_energy": -9.32, "internal_energy": -2.39, "cluster_size": 20, "cluster_id": 3, "rank_in_cluster": 12}

>  <energy>  (50) 
-6.8

>  <cluster_rmsd>  (50) 
0.0

>  <cluster>  (50) 
5

$$$$
