
     RDKit          3D

 54 58  0  0  0  0  0  0  0  0999 V2000
  143.6440   75.8590  217.7590 O   0  0  0  0  0  0  0  0  0  0  0  0
  143.2400   76.6280  218.6910 C   0  0  0  0  0  0  0  0  0  0  0  0
  143.3200   76.2150  220.0460 N   0  0  0  0  0  0  0  0  0  0  0  0
  143.8620   74.9090  220.4160 C   0  0  0  0  0  0  0  0  0  0  0  0
  142.9200   73.8430  219.9900 C   0  0  0  0  0  0  0  0  0  0  0  0
  143.2940   72.8130  219.3720 O   0  0  0  0  0  0  0  0  0  0  0  0
  141.5370   73.9640  220.2780 N   0  0  0  0  0  0  0  0  0  0  0  0
  140.7580   73.0860  221.1640 C   0  0  0  0  0  0  0  0  0  0  0  0
  139.5350   72.8360  220.3150 C   0  0  0  0  0  0  0  0  0  0  0  0
  139.2990   74.1250  219.6250 C   0  0  0  0  0  0  0  0  0  0  0  0
  140.5620   74.9260  219.8050 C   0  0  1  0  0  0  0  0  0  0  0  0
  140.3190   75.9900  220.8430 C   0  0  0  0  0  0  0  0  0  0  0  0
  140.8720   76.9440  221.2990 N   0  0  0  0  0  0  0  0  0  0  0  0
  140.4620   77.7630  222.2250 C   0  0  0  0  0  0  0  0  0  0  0  0
  141.2070   78.9140  222.7260 C   0  0  0  0  0  0  0  0  0  0  0  0
  142.5760   79.0150  222.5930 C   0  0  0  0  0  0  0  0  0  0  0  0
  143.2670   80.1120  223.0730 C   0  0  0  0  0  0  0  0  0  0  0  0
  142.6010   81.1480  223.7070 C   0  0  0  0  0  0  0  0  0  0  0  0
  141.2360   81.0650  223.8480 C   0  0  0  0  0  0  0  0  0  0  0  0
  140.5710   79.9640  223.3620 C   0  0  0  0  0  0  0  0  0  0  0  0
  139.1940   77.4470  222.7320 C   0  0  0  0  0  0  0  0  0  0  0  0
  138.6810   75.9310  221.7880 S   0  0  0  0  0  0  0  0  0  0  0  0
  142.6860   77.9560  218.3610 C   0  0  0  0  0  0  0  0  0  0  0  0
  142.5820   78.3240  217.0350 C   0  0  0  0  0  0  0  0  0  0  0  0
  142.0550   79.5830  216.7430 C   0  0  0  0  0  0  0  0  0  0  0  0
  141.6510   80.4330  217.7520 C   0  0  0  0  0  0  0  0  0  0  0  0
  141.1300   81.6770  217.4920 C   0  0  0  0  0  0  0  0  0  0  0  0
  140.7530   82.4570  218.5510 C   0  0  0  0  0  0  0  0  0  0  0  0
  140.0810   84.0520  218.2790 Cl  0  0  0  0  0  0  0  0  0  0  0  0
  140.8710   82.0530  219.8750 C   0  0  0  0  0  0  0  0  0  0  0  0
  141.3970   80.8000  220.1110 C   0  0  0  0  0  0  0  0  0  0  0  0
  141.7900   79.9850  219.0550 C   0  0  0  0  0  0  0  0  0  0  0  0
  142.2950   78.7740  219.3560 N   0  0  0  0  0  0  0  0  0  0  0  0
  142.9690   76.8990  220.7590 H   0  0  0  0  0  0  0  0  0  0  0  0
  144.8323   74.7607  219.9194 H   0  0  0  0  0  0  0  0  0  0  0  0
  143.9974   74.8640  221.5067 H   0  0  0  0  0  0  0  0  0  0  0  0
  141.2962   72.1519  221.3828 H   0  0  0  0  0  0  0  0  0  0  0  0
  140.5439   73.5143  222.1543 H   0  0  0  0  0  0  0  0  0  0  0  0
  139.7234   72.0331  219.5871 H   0  0  0  0  0  0  0  0  0  0  0  0
  138.6685   72.5134  220.9109 H   0  0  0  0  0  0  0  0  0  0  0  0
  139.1017   73.9564  218.5560 H   0  0  0  0  0  0  0  0  0  0  0  0
  138.4250   74.6502  220.0376 H   0  0  0  0  0  0  0  0  0  0  0  0
  140.8975   75.4280  218.8855 H   0  0  0  0  0  0  0  0  0  0  0  0
  143.1297   78.2057  222.0945 H   0  0  0  0  0  0  0  0  0  0  0  0
  144.3589   80.1628  222.9500 H   0  0  0  0  0  0  0  0  0  0  0  0
  143.1529   82.0191  224.0897 H   0  0  0  0  0  0  0  0  0  0  0  0
  140.6801   81.8732  224.3458 H   0  0  0  0  0  0  0  0  0  0  0  0
  139.4790   79.9162  223.4853 H   0  0  0  0  0  0  0  0  0  0  0  0
  138.6295   77.9773  223.5131 H   0  0  0  0  0  0  0  0  0  0  0  0
  142.9049   77.6451  216.2319 H   0  0  0  0  0  0  0  0  0  0  0  0
  141.9605   79.9018  215.6945 H   0  0  0  0  0  0  0  0  0  0  0  0
  141.0187   82.0370  216.4586 H   0  0  0  0  0  0  0  0  0  0  0  0
  140.5573   82.7065  220.7023 H   0  0  0  0  0  0  0  0  0  0  0  0
  141.5068   80.4417  221.1452 H   0  0  0  0  0  0  0  0  0  0  0  0
  1  2  2  0
  2  3  1  0
  3  4  1  0
  4  5  1  0
  5  6  2  0
  5  7  1  0
  7  8  1  0
  8  9  1  0
  9 10  1  0
 10 11  1  0
 11 12  1  0
 12 13  2  0
 13 14  1  0
 14 15  1  0
 15 16  2  0
 16 17  1  0
 17 18  2  0
 18 19  1  0
 19 20  2  0
 14 21  2  0
 21 22  1  0
  2 23  1  0
 23 24  2  0
 24 25  1  0
 25 26  2  0
 26 27  1  0
 27 28  2  0
 28 29  1  0
 28 30  1  0
 30 31  2  0
 31 32  1  0
 32 33  2  0
 11  7  1  0
 22 12  1  0
 33 23  1  0
 20 15  1  0
 32 26  1  0
  3 34  1  0
  4 35  1  0
  4 36  1  0
  8 37  1  0
  8 38  1  0
  9 39  1  0
  9 40  1  0
 10 41  1  0
 10 42  1  0
 11 43  1  6
 16 44  1  0
 17 45  1  0
 18 46  1  0
 19 47  1  0
 20 48  1  0
 21 49  1  0
 24 50  1  0
 25 51  1  0
 27 52  1  0
 30 53  1  0
 31 54  1  0
M  END
>  <smiles>  (1) 
O=C(NCC(=O)N1CCC[C@H]1c1nc(-c2ccccc2)cs1)c1ccc2cc(Cl)ccc2n1

>  <score_type>  (1) 
oracle

>  <origin>  (1) 
autodockgpu

>  <m_score__min__energy>  (1) 
-9.7699999999999996

>  <m_primary>  (1) 
energy

>  <rmsd>  (1) 
8.338071636582507

>  <m_score__min__rmsd>  (1) 
8.338071636582507

>  <meeko>  (1) 
{"free_energy": -6.72, "intermolecular_energy": -8.51, "internal_energy": -4.16, "cluster_size": 3, "cluster_id": 5, "rank_in_cluster": 2}

>  <energy>  (1) 
-9.77

>  <cluster_rmsd>  (1) 
0.0

>  <cluster>  (1) 
1

$$$$

     RDKit          3D

 54 58  0  0  0  0  0  0  0  0999 V2000
  138.2550   75.3710  222.7050 O   0  0  0  0  0  0  0  0  0  0  0  0
  139.3010   75.7760  222.1020 C   0  0  0  0  0  0  0  0  0  0  0  0
  139.5180   77.1630  221.8960 N   0  0  0  0  0  0  0  0  0  0  0  0
  138.5610   78.1640  222.3620 C   0  0  0  0  0  0  0  0  0  0  0  0
  139.2690   79.1920  223.1650 C   0  0  0  0  0  0  0  0  0  0  0  0
  138.7630   79.7280  224.1840 O   0  0  0  0  0  0  0  0  0  0  0  0
  140.5740   79.6070  222.7920 N   0  0  0  0  0  0  0  0  0  0  0  0
  141.8360   79.0940  223.3460 C   0  0  0  0  0  0  0  0  0  0  0  0
  142.5830   80.3830  223.5910 C   0  0  0  0  0  0  0  0  0  0  0  0
  142.1990   81.2510  222.4550 C   0  0  0  0  0  0  0  0  0  0  0  0
  141.0010   80.5940  221.8210 C   0  0  1  0  0  0  0  0  0  0  0  0
  141.4310   79.9290  220.5400 C   0  0  0  0  0  0  0  0  0  0  0  0
  141.4670   78.8360  220.0620 N   0  0  0  0  0  0  0  0  0  0  0  0
  141.8910   78.4700  218.8870 C   0  0  0  0  0  0  0  0  0  0  0  0
  141.8980   77.1010  218.3780 C   0  0  0  0  0  0  0  0  0  0  0  0
  143.0110   76.5480  217.7820 C   0  0  0  0  0  0  0  0  0  0  0  0
  143.0020   75.2500  217.3050 C   0  0  0  0  0  0  0  0  0  0  0  0
  141.8680   74.4630  217.4130 C   0  0  0  0  0  0  0  0  0  0  0  0
  140.7490   74.9980  218.0050 C   0  0  0  0  0  0  0  0  0  0  0  0
  140.7820   76.2910  218.4720 C   0  0  0  0  0  0  0  0  0  0  0  0
  142.3640   79.5330  218.1050 C   0  0  0  0  0  0  0  0  0  0  0  0
  142.1460   81.0330  219.1800 S   0  0  0  0  0  0  0  0  0  0  0  0
  140.2940   74.7980  221.6140 C   0  0  0  0  0  0  0  0  0  0  0  0
  139.9350   73.4690  221.5310 C   0  0  0  0  0  0  0  0  0  0  0  0
  140.8870   72.5600  221.0670 C   0  0  0  0  0  0  0  0  0  0  0  0
  142.1500   72.9810  220.7040 C   0  0  0  0  0  0  0  0  0  0  0  0
  143.1050   72.1070  220.2450 C   0  0  0  0  0  0  0  0  0  0  0  0
  144.3330   72.6080  219.9050 C   0  0  0  0  0  0  0  0  0  0  0  0
  145.5900   71.5400  219.3140 Cl  0  0  0  0  0  0  0  0  0  0  0  0
  144.6590   73.9540  220.0010 C   0  0  0  0  0  0  0  0  0  0  0  0
  143.6840   74.8120  220.4650 C   0  0  0  0  0  0  0  0  0  0  0  0
  142.4280   74.3330  220.8180 C   0  0  0  0  0  0  0  0  0  0  0  0
  141.5220   75.2240  221.2620 N   0  0  0  0  0  0  0  0  0  0  0  0
  140.4010   77.4230  221.3920 H   0  0  0  0  0  0  0  0  0  0  0  0
  138.0805   78.6426  221.4959 H   0  0  0  0  0  0  0  0  0  0  0  0
  137.7958   77.6768  222.9842 H   0  0  0  0  0  0  0  0  0  0  0  0
  141.6712   78.5378  224.2806 H   0  0  0  0  0  0  0  0  0  0  0  0
  142.3618   78.3799  222.6951 H   0  0  0  0  0  0  0  0  0  0  0  0
  142.2779   80.8344  224.5466 H   0  0  0  0  0  0  0  0  0  0  0  0
  143.6707   80.2322  223.6553 H   0  0  0  0  0  0  0  0  0  0  0  0
  141.9384   82.2577  222.8136 H   0  0  0  0  0  0  0  0  0  0  0  0
  143.0244   81.3656  221.7369 H   0  0  0  0  0  0  0  0  0  0  0  0
  140.1936   81.2991  221.5740 H   0  0  0  0  0  0  0  0  0  0  0  0
  143.9253   77.1516  217.6837 H   0  0  0  0  0  0  0  0  0  0  0  0
  143.9066   74.8378  216.8341 H   0  0  0  0  0  0  0  0  0  0  0  0
  141.8628   73.4308  217.0328 H   0  0  0  0  0  0  0  0  0  0  0  0
  139.8336   74.3963  218.1046 H   0  0  0  0  0  0  0  0  0  0  0  0
  139.8763   76.7005  218.9432 H   0  0  0  0  0  0  0  0  0  0  0  0
  142.7723   79.4891  217.0845 H   0  0  0  0  0  0  0  0  0  0  0  0
  138.9280   73.1353  221.8219 H   0  0  0  0  0  0  0  0  0  0  0  0
  140.6271   71.4939  220.9896 H   0  0  0  0  0  0  0  0  0  0  0  0
  142.8888   71.0324  220.1529 H   0  0  0  0  0  0  0  0  0  0  0  0
  145.6563   74.3219  219.7180 H   0  0  0  0  0  0  0  0  0  0  0  0
  143.9026   75.8862  220.5566 H   0  0  0  0  0  0  0  0  0  0  0  0
  1  2  2  0
  2  3  1  0
  3  4  1  0
  4  5  1  0
  5  6  2  0
  5  7  1  0
  7  8  1  0
  8  9  1  0
  9 10  1  0
 10 11  1  0
 11 12  1  0
 12 13  2  0
 13 14  1  0
 14 15  1  0
 15 16  2  0
 16 17  1  0
 17 18  2  0
 18 19  1  0
 19 20  2  0
 14 21  2  0
 21 22  1  0
  2 23  1  0
 23 24  2  0
 24 25  1  0
 25 26  2  0
 26 27  1  0
 27 28  2  0
 28 29  1  0
 28 30  1  0
 30 31  2  0
 31 32  1  0
 32 33  2  0
 11  7  1  0
 22 12  1  0
 33 23  1  0
 20 15  1  0
 32 26  1  0
  3 34  1  0
  4 35  1  0
  4 36  1  0
  8 37  1  0
  8 38  1  0
  9 39  1  0
  9 40  1  0
 10 41  1  0
 10 42  1  0
 11 43  1  6
 16 44  1  0
 17 45  1  0
 18 46  1  0
 19 47  1  0
 20 48  1  0
 21 49  1  0
 24 50  1  0
 25 51  1  0
 27 52  1  0
 30 53  1  0
 31 54  1  0
M  END
>  <smiles>  (2) 
O=C(NCC(=O)N1CCC[C@H]1c1nc(-c2ccccc2)cs1)c1ccc2cc(Cl)ccc2n1

>  <score_type>  (2) 
oracle

>  <origin>  (2) 
autodockgpu

>  <m_score__min__energy>  (2) 
-9.7699999999999996

>  <m_primary>  (2) 
energy

>  <rmsd>  (2) 
6.589742691242116

>  <m_score__min__rmsd>  (2) 
6.589742691242116

>  <meeko>  (2) 
{"free_energy": -6.65, "intermolecular_energy": -8.44, "internal_energy": -4.41, "cluster_size": 5, "cluster_id": 7, "rank_in_cluster": 2}

>  <energy>  (2) 
-9.61

>  <cluster_rmsd>  (2) 
0.58

>  <cluster>  (2) 
1

$$$$

     RDKit          3D

 54 58  0  0  0  0  0  0  0  0999 V2000
  139.6030   75.0660  222.3430 O   0  0  0  0  0  0  0  0  0  0  0  0
  139.1390   76.1980  221.9870 C   0  0  0  0  0  0  0  0  0  0  0  0
  137.8160   76.5730  222.3380 N   0  0  0  0  0  0  0  0  0  0  0  0
  136.9500   75.6850  223.1100 C   0  0  0  0  0  0  0  0  0  0  0  0
  135.5390   76.1240  222.9680 C   0  0  0  0  0  0  0  0  0  0  0  0
  134.6180   75.3470  222.6080 O   0  0  0  0  0  0  0  0  0  0  0  0
  135.1840   77.4690  223.2460 N   0  0  0  0  0  0  0  0  0  0  0  0
  134.4380   77.9420  224.4210 C   0  0  0  0  0  0  0  0  0  0  0  0
  133.4370   78.8660  223.7700 C   0  0  0  0  0  0  0  0  0  0  0  0
  134.1910   79.5030  222.6660 C   0  0  0  0  0  0  0  0  0  0  0  0
  135.4410   78.6800  222.4920 C   0  0  1  0  0  0  0  0  0  0  0  0
  136.6050   79.4330  223.0760 C   0  0  0  0  0  0  0  0  0  0  0  0
  137.7960   79.4520  222.9960 N   0  0  0  0  0  0  0  0  0  0  0  0
  138.6460   80.2220  223.6120 C   0  0  0  0  0  0  0  0  0  0  0  0
  140.0970   80.1780  223.4540 C   0  0  0  0  0  0  0  0  0  0  0  0
  140.8330   79.0550  223.7670 C   0  0  0  0  0  0  0  0  0  0  0  0
  142.2070   79.0280  223.6120 C   0  0  0  0  0  0  0  0  0  0  0  0
  142.8880   80.1360  223.1340 C   0  0  0  0  0  0  0  0  0  0  0  0
  142.1700   81.2640  222.8150 C   0  0  0  0  0  0  0  0  0  0  0  0
  140.8050   81.2660  222.9780 C   0  0  0  0  0  0  0  0  0  0  0  0
  138.0430   81.1420  224.4800 C   0  0  0  0  0  0  0  0  0  0  0  0
  136.2230   80.8020  224.3260 S   0  0  0  0  0  0  0  0  0  0  0  0
  139.9820   77.1250  221.2060 C   0  0  0  0  0  0  0  0  0  0  0  0
  141.2590   76.7340  220.8610 C   0  0  0  0  0  0  0  0  0  0  0  0
  142.0400   77.6250  220.1220 C   0  0  0  0  0  0  0  0  0  0  0  0
  141.5470   78.8590  219.7500 C   0  0  0  0  0  0  0  0  0  0  0  0
  142.2950   79.7530  219.0240 C   0  0  0  0  0  0  0  0  0  0  0  0
  141.7300   80.9550  218.6950 C   0  0  0  0  0  0  0  0  0  0  0  0
  142.6360   82.1350  217.7690 Cl  0  0  0  0  0  0  0  0  0  0  0  0
  140.4380   81.3150  219.0600 C   0  0  0  0  0  0  0  0  0  0  0  0
  139.7070   80.4010  219.7890 C   0  0  0  0  0  0  0  0  0  0  0  0
  140.2550   79.1710  220.1380 C   0  0  0  0  0  0  0  0  0  0  0  0
  139.4870   78.3250  220.8500 N   0  0  0  0  0  0  0  0  0  0  0  0
  137.5030   77.5190  222.0110 H   0  0  0  0  0  0  0  0  0  0  0  0
  137.0532   74.6557  222.7359 H   0  0  0  0  0  0  0  0  0  0  0  0
  137.2402   75.7204  224.1704 H   0  0  0  0  0  0  0  0  0  0  0  0
  133.9413   77.1125  224.9456 H   0  0  0  0  0  0  0  0  0  0  0  0
  135.0603   78.4175  225.1935 H   0  0  0  0  0  0  0  0  0  0  0  0
  132.5794   78.2985  223.3795 H   0  0  0  0  0  0  0  0  0  0  0  0
  133.0232   79.6015  224.4755 H   0  0  0  0  0  0  0  0  0  0  0  0
  133.5955   79.4948  221.7412 H   0  0  0  0  0  0  0  0  0  0  0  0
  134.4268   80.5536  222.8911 H   0  0  0  0  0  0  0  0  0  0  0  0
  135.6804   78.4630  221.4405 H   0  0  0  0  0  0  0  0  0  0  0  0
  140.3165   78.1617  224.1480 H   0  0  0  0  0  0  0  0  0  0  0  0
  142.7656   78.1165  223.8711 H   0  0  0  0  0  0  0  0  0  0  0  0
  143.9810   80.1134  223.0123 H   0  0  0  0  0  0  0  0  0  0  0  0
  142.6838   82.1582  222.4322 H   0  0  0  0  0  0  0  0  0  0  0  0
  140.2486   82.1782  222.7168 H   0  0  0  0  0  0  0  0  0  0  0  0
  138.5363   81.8961  225.1108 H   0  0  0  0  0  0  0  0  0  0  0  0
  141.6503   75.7501  221.1590 H   0  0  0  0  0  0  0  0  0  0  0  0
  143.0620   77.3393  219.8325 H   0  0  0  0  0  0  0  0  0  0  0  0
  143.3221   79.5090  218.7149 H   0  0  0  0  0  0  0  0  0  0  0  0
  140.0153   82.2907  218.7783 H   0  0  0  0  0  0  0  0  0  0  0  0
  138.6802   80.6469  220.0977 H   0  0  0  0  0  0  0  0  0  0  0  0
  1  2  2  0
  2  3  1  0
  3  4  1  0
  4  5  1  0
  5  6  2  0
  5  7  1  0
  7  8  1  0
  8  9  1  0
  9 10  1  0
 10 11  1  0
 11 12  1  0
 12 13  2  0
 13 14  1  0
 14 15  1  0
 15 16  2  0
 16 17  1  0
 17 18  2  0
 18 19  1  0
 19 20  2  0
 14 21  2  0
 21 22  1  0
  2 23  1  0
 23 24  2  0
 24 25  1  0
 25 26  2  0
 26 27  1  0
 27 28  2  0
 28 29  1  0
 28 30  1  0
 30 31  2  0
 31 32  1  0
 32 33  2  0
 11  7  1  0
 22 12  1  0
 33 23  1  0
 20 15  1  0
 32 26  1  0
  3 34  1  0
  4 35  1  0
  4 36  1  0
  8 37  1  0
  8 38  1  0
  9 39  1  0
  9 40  1  0
 10 41  1  0
 10 42  1  0
 11 43  1  6
 16 44  1  0
 17 45  1  0
 18 46  1  0
 19 47  1  0
 20 48  1  0
 21 49  1  0
 24 50  1  0
 25 51  1  0
 27 52  1  0
 30 53  1  0
 31 54  1  0
M  END
>  <smiles>  (3) 
O=C(NCC(=O)N1CCC[C@H]1c1nc(-c2ccccc2)cs1)c1ccc2cc(Cl)ccc2n1

>  <score_type>  (3) 
oracle

>  <origin>  (3) 
autodockgpu

>  <m_score__min__energy>  (3) 
-9.7699999999999996

>  <m_primary>  (3) 
energy

>  <rmsd>  (3) 
8.059918079008046

>  <m_score__min__rmsd>  (3) 
8.059918079008046

>  <meeko>  (3) 
{"free_energy": -6.56, "intermolecular_energy": -8.35, "internal_energy": -4.61, "cluster_size": 7, "cluster_id": 10, "rank_in_cluster": 5}

>  <energy>  (3) 
-9.56

>  <cluster_rmsd>  (3) 
0.58

>  <cluster>  (3) 
1

$$$$

     RDKit          3D

 54 58  0  0  0  0  0  0  0  0999 V2000
  138.7630   71.1710  221.3960 O   0  0  0  0  0  0  0  0  0  0  0  0
  138.4840   71.6580  222.5400 C   0  0  0  0  0  0  0  0  0  0  0  0
  137.4860   72.6590  222.6690 N   0  0  0  0  0  0  0  0  0  0  0  0
  136.7540   73.1610  221.5090 C   0  0  0  0  0  0  0  0  0  0  0  0
  137.4790   74.3180  220.9270 C   0  0  0  0  0  0  0  0  0  0  0  0
  136.9430   75.4430  220.7600 O   0  0  0  0  0  0  0  0  0  0  0  0
  138.8360   74.1790  220.5350 N   0  0  0  0  0  0  0  0  0  0  0  0
  139.3210   73.9510  219.1660 C   0  0  0  0  0  0  0  0  0  0  0  0
  140.3200   72.8420  219.3990 C   0  0  0  0  0  0  0  0  0  0  0  0
  140.9390   73.1750  220.7030 C   0  0  0  0  0  0  0  0  0  0  0  0
  140.0480   74.2170  221.3280 C   0  0  1  0  0  0  0  0  0  0  0  0
  140.7160   75.5610  221.2140 C   0  0  0  0  0  0  0  0  0  0  0  0
  140.7550   76.5990  221.8020 N   0  0  0  0  0  0  0  0  0  0  0  0
  141.4320   77.6740  221.5210 C   0  0  0  0  0  0  0  0  0  0  0  0
  141.4230   78.9090  222.3000 C   0  0  0  0  0  0  0  0  0  0  0  0
  142.5830   79.5870  222.6100 C   0  0  0  0  0  0  0  0  0  0  0  0
  142.5580   80.7550  223.3490 C   0  0  0  0  0  0  0  0  0  0  0  0
  141.3600   81.2820  223.8030 C   0  0  0  0  0  0  0  0  0  0  0  0
  140.1940   80.6190  223.5030 C   0  0  0  0  0  0  0  0  0  0  0  0
  140.2440   79.4590  222.7670 C   0  0  0  0  0  0  0  0  0  0  0  0
  142.2100   77.5600  220.3600 C   0  0  0  0  0  0  0  0  0  0  0  0
  141.8820   75.8360  219.7490 S   0  0  0  0  0  0  0  0  0  0  0  0
  139.2010   71.1780  223.7380 C   0  0  0  0  0  0  0  0  0  0  0  0
  140.2720   71.9070  224.2100 C   0  0  0  0  0  0  0  0  0  0  0  0
  140.9360   71.4380  225.3450 C   0  0  0  0  0  0  0  0  0  0  0  0
  140.5320   70.2780  225.9730 C   0  0  0  0  0  0  0  0  0  0  0  0
  141.1680   69.7940  227.0900 C   0  0  0  0  0  0  0  0  0  0  0  0
  140.7020   68.6370  227.6520 C   0  0  0  0  0  0  0  0  0  0  0  0
  141.4740   67.9730  229.0780 Cl  0  0  0  0  0  0  0  0  0  0  0  0
  139.6180   67.9280  227.1490 C   0  0  0  0  0  0  0  0  0  0  0  0
  138.9960   68.4330  226.0270 C   0  0  0  0  0  0  0  0  0  0  0  0
  139.4460   69.6070  225.4330 C   0  0  0  0  0  0  0  0  0  0  0  0
  138.7930   70.0450  224.3410 N   0  0  0  0  0  0  0  0  0  0  0  0
  137.3110   73.0120  223.6410 H   0  0  0  0  0  0  0  0  0  0  0  0
  136.6708   72.3641  220.7554 H   0  0  0  0  0  0  0  0  0  0  0  0
  135.7480   73.4787  221.8206 H   0  0  0  0  0  0  0  0  0  0  0  0
  138.5088   73.6299  218.4973 H   0  0  0  0  0  0  0  0  0  0  0  0
  139.7381   74.8435  218.6767 H   0  0  0  0  0  0  0  0  0  0  0  0
  139.8149   71.8659  219.4454 H   0  0  0  0  0  0  0  0  0  0  0  0
  141.0607   72.7666  218.5892 H   0  0  0  0  0  0  0  0  0  0  0  0
  140.9893   72.2812  221.3422 H   0  0  0  0  0  0  0  0  0  0  0  0
  141.9678   73.5443  220.5795 H   0  0  0  0  0  0  0  0  0  0  0  0
  139.8440   74.0372  222.3939 H   0  0  0  0  0  0  0  0  0  0  0  0
  143.5482   79.1903  222.2621 H   0  0  0  0  0  0  0  0  0  0  0  0
  143.5010   81.2723  223.5794 H   0  0  0  0  0  0  0  0  0  0  0  0
  141.3423   82.2114  224.3911 H   0  0  0  0  0  0  0  0  0  0  0  0
  139.2275   81.0139  223.8494 H   0  0  0  0  0  0  0  0  0  0  0  0
  139.2996   78.9433  222.5385 H   0  0  0  0  0  0  0  0  0  0  0  0
  142.8668   78.3201  219.9118 H   0  0  0  0  0  0  0  0  0  0  0  0
  140.5937   72.8309  223.7071 H   0  0  0  0  0  0  0  0  0  0  0  0
  141.7928   72.0009  225.7439 H   0  0  0  0  0  0  0  0  0  0  0  0
  142.0302   70.3233  227.5218 H   0  0  0  0  0  0  0  0  0  0  0  0
  139.2699   67.0005  227.6271 H   0  0  0  0  0  0  0  0  0  0  0  0
  138.1343   67.9014  225.5970 H   0  0  0  0  0  0  0  0  0  0  0  0
  1  2  2  0
  2  3  1  0
  3  4  1  0
  4  5  1  0
  5  6  2  0
  5  7  1  0
  7  8  1  0
  8  9  1  0
  9 10  1  0
 10 11  1  0
 11 12  1  0
 12 13  2  0
 13 14  1  0
 14 15  1  0
 15 16  2  0
 16 17  1  0
 17 18  2  0
 18 19  1  0
 19 20  2  0
 14 21  2  0
 21 22  1  0
  2 23  1  0
 23 24  2  0
 24 25  1  0
 25 26  2  0
 26 27  1  0
 27 28  2  0
 28 29  1  0
 28 30  1  0
 30 31  2  0
 31 32  1  0
 32 33  2  0
 11  7  1  0
 22 12  1  0
 33 23  1  0
 20 15  1  0
 32 26  1  0
  3 34  1  0
  4 35  1  0
  4 36  1  0
  8 37  1  0
  8 38  1  0
  9 39  1  0
  9 40  1  0
 10 41  1  0
 10 42  1  0
 11 43  1  1
 16 44  1  0
 17 45  1  0
 18 46  1  0
 19 47  1  0
 20 48  1  0
 21 49  1  0
 24 50  1  0
 25 51  1  0
 27 52  1  0
 30 53  1  0
 31 54  1  0
M  END
>  <smiles>  (4) 
O=C(NCC(=O)N1CCC[C@H]1c1nc(-c2ccccc2)cs1)c1ccc2cc(Cl)ccc2n1

>  <score_type>  (4) 
oracle

>  <origin>  (4) 
autodockgpu

>  <m_score__min__energy>  (4) 
-9.7699999999999996

>  <m_primary>  (4) 
energy

>  <rmsd>  (4) 
3.374862707561692

>  <m_score__min__rmsd>  (4) 
3.374862707561692

>  <meeko>  (4) 
{"free_energy": -8.83, "intermolecular_energy": -10.62, "internal_energy": -1.9, "cluster_size": 3, "cluster_id": 2, "rank_in_cluster": 3}

>  <energy>  (4) 
-9.55

>  <cluster_rmsd>  (4) 
0.55

>  <cluster>  (4) 
1

$$$$

     RDKit          3D

 54 58  0  0  0  0  0  0  0  0999 V2000
  138.6070   75.6670  222.9800 O   0  0  0  0  0  0  0  0  0  0  0  0
  139.4740   75.9730  222.0970 C   0  0  0  0  0  0  0  0  0  0  0  0
  139.5290   77.2900  221.5730 N   0  0  0  0  0  0  0  0  0  0  0  0
  138.6050   78.3300  222.0200 C   0  0  0  0  0  0  0  0  0  0  0  0
  139.3160   79.2720  222.9200 C   0  0  0  0  0  0  0  0  0  0  0  0
  138.8420   79.6460  224.0230 O   0  0  0  0  0  0  0  0  0  0  0  0
  140.5840   79.7860  222.5470 N   0  0  0  0  0  0  0  0  0  0  0  0
  141.8760   79.4200  223.1460 C   0  0  0  0  0  0  0  0  0  0  0  0
  142.4970   80.7840  223.3380 C   0  0  0  0  0  0  0  0  0  0  0  0
  142.0580   81.5560  222.1530 C   0  0  0  0  0  0  0  0  0  0  0  0
  140.9390   80.7600  221.5340 C   0  0  1  0  0  0  0  0  0  0  0  0
  141.4540   80.0760  220.2960 C   0  0  0  0  0  0  0  0  0  0  0  0
  141.5500   78.9720  219.8520 N   0  0  0  0  0  0  0  0  0  0  0  0
  142.0440   78.5890  218.7100 C   0  0  0  0  0  0  0  0  0  0  0  0
  142.1210   77.2080  218.2420 C   0  0  0  0  0  0  0  0  0  0  0  0
  141.0470   76.3470  218.3230 C   0  0  0  0  0  0  0  0  0  0  0  0
  141.1350   75.0420  217.8750 C   0  0  0  0  0  0  0  0  0  0  0  0
  142.3120   74.5590  217.3280 C   0  0  0  0  0  0  0  0  0  0  0  0
  143.3930   75.4040  217.2380 C   0  0  0  0  0  0  0  0  0  0  0  0
  143.2810   76.6970  217.6900 C   0  0  0  0  0  0  0  0  0  0  0  0
  142.5200   79.6460  217.9220 C   0  0  0  0  0  0  0  0  0  0  0  0
  142.2000   81.1660  218.9410 S   0  0  0  0  0  0  0  0  0  0  0  0
  140.4270   74.9520  221.6180 C   0  0  0  0  0  0  0  0  0  0  0  0
  140.0160   73.6370  221.5500 C   0  0  0  0  0  0  0  0  0  0  0  0
  140.9310   72.6860  221.0940 C   0  0  0  0  0  0  0  0  0  0  0  0
  142.2080   73.0540  220.7230 C   0  0  0  0  0  0  0  0  0  0  0  0
  143.1270   72.1390  220.2710 C   0  0  0  0  0  0  0  0  0  0  0  0
  144.3720   72.5880  219.9220 C   0  0  0  0  0  0  0  0  0  0  0  0
  145.5850   71.4660  219.3390 Cl  0  0  0  0  0  0  0  0  0  0  0  0
  144.7510   73.9220  220.0030 C   0  0  0  0  0  0  0  0  0  0  0  0
  143.8110   74.8220  220.4600 C   0  0  0  0  0  0  0  0  0  0  0  0
  142.5380   74.3960  220.8220 C   0  0  0  0  0  0  0  0  0  0  0  0
  141.6690   75.3260  221.2580 N   0  0  0  0  0  0  0  0  0  0  0  0
  140.2680   77.4680  220.8500 H   0  0  0  0  0  0  0  0  0  0  0  0
  138.2195   78.8775  221.1472 H   0  0  0  0  0  0  0  0  0  0  0  0
  137.7675   77.8671  222.5625 H   0  0  0  0  0  0  0  0  0  0  0  0
  141.7439   78.8970  224.1046 H   0  0  0  0  0  0  0  0  0  0  0  0
  142.4784   78.7271  222.5402 H   0  0  0  0  0  0  0  0  0  0  0  0
  142.1322   81.2513  224.2646 H   0  0  0  0  0  0  0  0  0  0  0  0
  143.5924   80.7382  223.4276 H   0  0  0  0  0  0  0  0  0  0  0  0
  141.6983   82.5505  222.4558 H   0  0  0  0  0  0  0  0  0  0  0  0
  142.8839   81.7116  221.4433 H   0  0  0  0  0  0  0  0  0  0  0  0
  140.0757   81.3745  221.2387 H   0  0  0  0  0  0  0  0  0  0  0  0
  140.1003   76.7060  218.7531 H   0  0  0  0  0  0  0  0  0  0  0  0
  140.2602   74.3798  217.9539 H   0  0  0  0  0  0  0  0  0  0  0  0
  142.3807   73.5202  216.9727 H   0  0  0  0  0  0  0  0  0  0  0  0
  144.3404   75.0477  216.8074 H   0  0  0  0  0  0  0  0  0  0  0  0
  144.1569   77.3575  217.6086 H   0  0  0  0  0  0  0  0  0  0  0  0
  142.9798   79.5884  216.9243 H   0  0  0  0  0  0  0  0  0  0  0  0
  138.9974   73.3461  221.8463 H   0  0  0  0  0  0  0  0  0  0  0  0
  140.6299   71.6300  221.0297 H   0  0  0  0  0  0  0  0  0  0  0  0
  142.8691   71.0726  220.1915 H   0  0  0  0  0  0  0  0  0  0  0  0
  145.7611   74.2478  219.7140 H   0  0  0  0  0  0  0  0  0  0  0  0
  144.0712   75.8879  220.5389 H   0  0  0  0  0  0  0  0  0  0  0  0
  1  2  2  0
  2  3  1  0
  3  4  1  0
  4  5  1  0
  5  6  2  0
  5  7  1  0
  7  8  1  0
  8  9  1  0
  9 10  1  0
 10 11  1  0
 11 12  1  0
 12 13  2  0
 13 14  1  0
 14 15  1  0
 15 16  2  0
 16 17  1  0
 17 18  2  0
 18 19  1  0
 19 20  2  0
 14 21  2  0
 21 22  1  0
  2 23  1  0
 23 24  2  0
 24 25  1  0
 25 26  2  0
 26 27  1  0
 27 28  2  0
 28 29  1  0
 28 30  1  0
 30 31  2  0
 31 32  1  0
 32 33  2  0
 11  7  1  0
 22 12  1  0
 33 23  1  0
 20 15  1  0
 32 26  1  0
  3 34  1  0
  4 35  1  0
  4 36  1  0
  8 37  1  0
  8 38  1  0
  9 39  1  0
  9 40  1  0
 10 41  1  0
 10 42  1  0
 11 43  1  6
 16 44  1  0
 17 45  1  0
 18 46  1  0
 19 47  1  0
 20 48  1  0
 21 49  1  0
 24 50  1  0
 25 51  1  0
 27 52  1  0
 30 53  1  0
 31 54  1  0
M  END
>  <smiles>  (5) 
O=C(NCC(=O)N1CCC[C@H]1c1nc(-c2ccccc2)cs1)c1ccc2cc(Cl)ccc2n1

>  <score_type>  (5) 
oracle

>  <origin>  (5) 
autodockgpu

>  <m_score__min__energy>  (5) 
-9.7699999999999996

>  <m_primary>  (5) 
energy

>  <rmsd>  (5) 
6.579387734723174

>  <m_score__min__rmsd>  (5) 
6.579387734723174

>  <meeko>  (5) 
{"free_energy": -6.53, "intermolecular_energy": -8.32, "internal_energy": -4.28, "cluster_size": 2, "cluster_id": 8, "rank_in_cluster": 2}

>  <energy>  (5) 
-9.31

>  <cluster_rmsd>  (5) 
0.54

>  <cluster>  (5) 
1

$$$$

     RDKit          3D

 54 58  0  0  0  0  0  0  0  0999 V2000
  139.7400   72.6110  220.6990 O   0  0  0  0  0  0  0  0  0  0  0  0
  139.6080   72.9210  221.9270 C   0  0  0  0  0  0  0  0  0  0  0  0
  139.3230   74.2600  222.3010 N   0  0  0  0  0  0  0  0  0  0  0  0
  139.1720   75.3170  221.3030 C   0  0  0  0  0  0  0  0  0  0  0  0
  139.4100   76.6370  221.9390 C   0  0  0  0  0  0  0  0  0  0  0  0
  138.7490   77.0440  222.9280 O   0  0  0  0  0  0  0  0  0  0  0  0
  140.4200   77.4950  221.4330 N   0  0  0  0  0  0  0  0  0  0  0  0
  141.4570   78.1720  222.2250 C   0  0  0  0  0  0  0  0  0  0  0  0
  141.3870   79.5680  221.6510 C   0  0  0  0  0  0  0  0  0  0  0  0
  141.1220   79.3570  220.2090 C   0  0  0  0  0  0  0  0  0  0  0  0
  140.6930   77.9190  220.0740 C   0  0  1  0  0  0  0  0  0  0  0  0
  141.8300   77.1250  219.4870 C   0  0  0  0  0  0  0  0  0  0  0  0
  142.5360   76.2110  219.7850 N   0  0  0  0  0  0  0  0  0  0  0  0
  143.4920   75.6560  219.0970 C   0  0  0  0  0  0  0  0  0  0  0  0
  144.3120   74.5320  219.5400 C   0  0  0  0  0  0  0  0  0  0  0  0
  144.4870   73.4050  218.7660 C   0  0  0  0  0  0  0  0  0  0  0  0
  145.2670   72.3480  219.1980 C   0  0  0  0  0  0  0  0  0  0  0  0
  145.8990   72.3920  220.4300 C   0  0  0  0  0  0  0  0  0  0  0  0
  145.7350   73.5090  221.2150 C   0  0  0  0  0  0  0  0  0  0  0  0
  144.9550   74.5460  220.7630 C   0  0  0  0  0  0  0  0  0  0  0  0
  143.6890   76.2420  217.8390 C   0  0  0  0  0  0  0  0  0  0  0  0
  142.4240   77.6000  217.7550 S   0  0  0  0  0  0  0  0  0  0  0  0
  139.7520   71.8840  222.9680 C   0  0  0  0  0  0  0  0  0  0  0  0
  139.3740   70.5900  222.6750 C   0  0  0  0  0  0  0  0  0  0  0  0
  139.5190   69.6230  223.6720 C   0  0  0  0  0  0  0  0  0  0  0  0
  140.0250   69.9540  224.9120 C   0  0  0  0  0  0  0  0  0  0  0  0
  140.1770   69.0220  225.9090 C   0  0  0  0  0  0  0  0  0  0  0  0
  140.6880   69.4350  227.1100 C   0  0  0  0  0  0  0  0  0  0  0  0
  140.9050   68.2900  228.4190 Cl  0  0  0  0  0  0  0  0  0  0  0  0
  141.0600   70.7480  227.3690 C   0  0  0  0  0  0  0  0  0  0  0  0
  140.8970   71.6650  226.3520 C   0  0  0  0  0  0  0  0  0  0  0  0
  140.3810   71.2770  225.1210 C   0  0  0  0  0  0  0  0  0  0  0  0
  140.2490   72.2220  224.1730 N   0  0  0  0  0  0  0  0  0  0  0  0
  139.2280   74.4410  223.3300 H   0  0  0  0  0  0  0  0  0  0  0  0
  139.9008   75.1635  220.4935 H   0  0  0  0  0  0  0  0  0  0  0  0
  138.1529   75.2879  220.8900 H   0  0  0  0  0  0  0  0  0  0  0  0
  141.2165   78.1633  223.2984 H   0  0  0  0  0  0  0  0  0  0  0  0
  142.4514   77.7053  222.1665 H   0  0  0  0  0  0  0  0  0  0  0  0
  140.5719   80.1408  222.1174 H   0  0  0  0  0  0  0  0  0  0  0  0
  142.3076   80.1429  221.8298 H   0  0  0  0  0  0  0  0  0  0  0  0
  140.3220   80.0289  219.8647 H   0  0  0  0  0  0  0  0  0  0  0  0
  142.0119   79.5719  219.5992 H   0  0  0  0  0  0  0  0  0  0  0  0
  139.8194   77.7808  219.4200 H   0  0  0  0  0  0  0  0  0  0  0  0
  143.9957   73.3451  217.7837 H   0  0  0  0  0  0  0  0  0  0  0  0
  145.3869   71.4626  218.5564 H   0  0  0  0  0  0  0  0  0  0  0  0
  146.5192   71.5508  220.7732 H   0  0  0  0  0  0  0  0  0  0  0  0
  146.2248   73.5720  222.1979 H   0  0  0  0  0  0  0  0  0  0  0  0
  144.8367   75.4305  221.4062 H   0  0  0  0  0  0  0  0  0  0  0  0
  144.4270   75.9609  217.0733 H   0  0  0  0  0  0  0  0  0  0  0  0
  138.9705   70.3278  221.6858 H   0  0  0  0  0  0  0  0  0  0  0  0
  139.2257   68.5831  223.4658 H   0  0  0  0  0  0  0  0  0  0  0  0
  139.8955   67.9711  225.7468 H   0  0  0  0  0  0  0  0  0  0  0  0
  141.4683   71.0445  228.3464 H   0  0  0  0  0  0  0  0  0  0  0  0
  141.1786   72.7155  226.5168 H   0  0  0  0  0  0  0  0  0  0  0  0
  1  2  2  0
  2  3  1  0
  3  4  1  0
  4  5  1  0
  5  6  2  0
  5  7  1  0
  7  8  1  0
  8  9  1  0
  9 10  1  0
 10 11  1  0
 11 12  1  0
 12 13  2  0
 13 14  1  0
 14 15  1  0
 15 16  2  0
 16 17  1  0
 17 18  2  0
 18 19  1  0
 19 20  2  0
 14 21  2  0
 21 22  1  0
  2 23  1  0
 23 24  2  0
 24 25  1  0
 25 26  2  0
 26 27  1  0
 27 28  2  0
 28 29  1  0
 28 30  1  0
 30 31  2  0
 31 32  1  0
 32 33  2  0
 11  7  1  0
 22 12  1  0
 33 23  1  0
 20 15  1  0
 32 26  1  0
  3 34  1  0
  4 35  1  0
  4 36  1  0
  8 37  1  0
  8 38  1  0
  9 39  1  0
  9 40  1  0
 10 41  1  0
 10 42  1  0
 11 43  1  6
 16 44  1  0
 17 45  1  0
 18 46  1  0
 19 47  1  0
 20 48  1  0
 21 49  1  0
 24 50  1  0
 25 51  1  0
 27 52  1  0
 30 53  1  0
 31 54  1  0
M  END
>  <smiles>  (6) 
O=C(NCC(=O)N1CCC[C@H]1c1nc(-c2ccccc2)cs1)c1ccc2cc(Cl)ccc2n1

>  <score_type>  (6) 
oracle

>  <origin>  (6) 
autodockgpu

>  <m_score__min__energy>  (6) 
-9.7699999999999996

>  <m_primary>  (6) 
energy

>  <rmsd>  (6) 
5.408248226516453

>  <m_score__min__rmsd>  (6) 
5.408248226516453

>  <meeko>  (6) 
{"free_energy": -9.31, "intermolecular_energy": -11.1, "internal_energy": -2.06, "cluster_size": 5, "cluster_id": 1, "rank_in_cluster": 5}

>  <energy>  (6) 
-9.42

>  <cluster_rmsd>  (6) 
0.0

>  <cluster>  (6) 
2

$$$$

     RDKit          3D

 54 58  0  0  0  0  0  0  0  0999 V2000
  137.4990   70.4580  221.4410 O   0  0  0  0  0  0  0  0  0  0  0  0
  137.6620   70.9970  222.5840 C   0  0  0  0  0  0  0  0  0  0  0  0
  137.2130   72.3220  222.8220 N   0  0  0  0  0  0  0  0  0  0  0  0
  136.5580   73.1060  221.7780 C   0  0  0  0  0  0  0  0  0  0  0  0
  137.3980   74.2820  221.4400 C   0  0  0  0  0  0  0  0  0  0  0  0
  136.9490   75.4570  221.4230 O   0  0  0  0  0  0  0  0  0  0  0  0
  138.7690   74.1050  221.1200 N   0  0  0  0  0  0  0  0  0  0  0  0
  139.3060   73.6910  219.8160 C   0  0  0  0  0  0  0  0  0  0  0  0
  140.3030   72.6380  220.2390 C   0  0  0  0  0  0  0  0  0  0  0  0
  140.8720   73.1600  221.5030 C   0  0  0  0  0  0  0  0  0  0  0  0
  139.9510   74.2690  221.9420 C   0  0  1  0  0  0  0  0  0  0  0  0
  140.6140   75.5920  221.6620 C   0  0  0  0  0  0  0  0  0  0  0  0
  140.7890   76.6430  222.2000 N   0  0  0  0  0  0  0  0  0  0  0  0
  141.4220   77.6920  221.7620 C   0  0  0  0  0  0  0  0  0  0  0  0
  141.5910   78.9450  222.4910 C   0  0  0  0  0  0  0  0  0  0  0  0
  142.8350   79.4280  222.8380 C   0  0  0  0  0  0  0  0  0  0  0  0
  142.9800   80.6170  223.5300 C   0  0  0  0  0  0  0  0  0  0  0  0
  141.8710   81.3620  223.8960 C   0  0  0  0  0  0  0  0  0  0  0  0
  140.6230   80.8960  223.5580 C   0  0  0  0  0  0  0  0  0  0  0  0
  140.5050   79.7120  222.8710 C   0  0  0  0  0  0  0  0  0  0  0  0
  141.9580   77.5280  220.4770 C   0  0  0  0  0  0  0  0  0  0  0  0
  141.4800   75.7990  219.9920 S   0  0  0  0  0  0  0  0  0  0  0  0
  138.3190   70.2390  223.6680 C   0  0  0  0  0  0  0  0  0  0  0  0
  138.3870   68.8640  223.5720 C   0  0  0  0  0  0  0  0  0  0  0  0
  139.0130   68.1650  224.6060 C   0  0  0  0  0  0  0  0  0  0  0  0
  139.5470   68.8320  225.6900 C   0  0  0  0  0  0  0  0  0  0  0  0
  140.1670   68.1690  226.7200 C   0  0  0  0  0  0  0  0  0  0  0  0
  140.6710   68.9060  227.7570 C   0  0  0  0  0  0  0  0  0  0  0  0
  141.4730   68.1140  229.0980 Cl  0  0  0  0  0  0  0  0  0  0  0  0
  140.5850   70.2920  227.8180 C   0  0  0  0  0  0  0  0  0  0  0  0
  139.9570   70.9350  226.7730 C   0  0  0  0  0  0  0  0  0  0  0  0
  139.4360   70.2130  225.7050 C   0  0  0  0  0  0  0  0  0  0  0  0
  138.8360   70.9030  224.7170 N   0  0  0  0  0  0  0  0  0  0  0  0
  137.3810   72.6990  223.7860 H   0  0  0  0  0  0  0  0  0  0  0  0
  136.4229   72.4825  220.8819 H   0  0  0  0  0  0  0  0  0  0  0  0
  135.5768   73.4485  222.1386 H   0  0  0  0  0  0  0  0  0  0  0  0
  138.5212   73.2690  219.1710 H   0  0  0  0  0  0  0  0  0  0  0  0
  139.7353   74.5102  219.2205 H   0  0  0  0  0  0  0  0  0  0  0  0
  139.8029   71.6726  220.4061 H   0  0  0  0  0  0  0  0  0  0  0  0
  141.0729   72.4568  219.4746 H   0  0  0  0  0  0  0  0  0  0  0  0
  140.9058   72.3665  222.2641 H   0  0  0  0  0  0  0  0  0  0  0  0
  141.9019   73.5207  221.3643 H   0  0  0  0  0  0  0  0  0  0  0  0
  139.7090   74.2389  223.0146 H   0  0  0  0  0  0  0  0  0  0  0  0
  143.7317   78.8554  222.5585 H   0  0  0  0  0  0  0  0  0  0  0  0
  143.9866   80.9746  223.7924 H   0  0  0  0  0  0  0  0  0  0  0  0
  141.9869   82.3075  224.4461 H   0  0  0  0  0  0  0  0  0  0  0  0
  139.7248   81.4671  223.8356 H   0  0  0  0  0  0  0  0  0  0  0  0
  139.4971   79.3568  222.6105 H   0  0  0  0  0  0  0  0  0  0  0  0
  142.5323   78.2585  219.8883 H   0  0  0  0  0  0  0  0  0  0  0  0
  137.9609   68.3346  222.7070 H   0  0  0  0  0  0  0  0  0  0  0  0
  139.0815   67.0683  224.5560 H   0  0  0  0  0  0  0  0  0  0  0  0
  140.2564   67.0727  226.7119 H   0  0  0  0  0  0  0  0  0  0  0  0
  141.0018   70.8537  228.6670 H   0  0  0  0  0  0  0  0  0  0  0  0
  139.8670   72.0313  226.7841 H   0  0  0  0  0  0  0  0  0  0  0  0
  1  2  2  0
  2  3  1  0
  3  4  1  0
  4  5  1  0
  5  6  2  0
  5  7  1  0
  7  8  1  0
  8  9  1  0
  9 10  1  0
 10 11  1  0
 11 12  1  0
 12 13  2  0
 13 14  1  0
 14 15  1  0
 15 16  2  0
 16 17  1  0
 17 18  2  0
 18 19  1  0
 19 20  2  0
 14 21  2  0
 21 22  1  0
  2 23  1  0
 23 24  2  0
 24 25  1  0
 25 26  2  0
 26 27  1  0
 27 28  2  0
 28 29  1  0
 28 30  1  0
 30 31  2  0
 31 32  1  0
 32 33  2  0
 11  7  1  0
 22 12  1  0
 33 23  1  0
 20 15  1  0
 32 26  1  0
  3 34  1  0
  4 35  1  0
  4 36  1  0
  8 37  1  0
  8 38  1  0
  9 39  1  0
  9 40  1  0
 10 41  1  0
 10 42  1  0
 11 43  1  1
 16 44  1  0
 17 45  1  0
 18 46  1  0
 19 47  1  0
 20 48  1  0
 21 49  1  0
 24 50  1  0
 25 51  1  0
 27 52  1  0
 30 53  1  0
 31 54  1  0
M  END
>  <smiles>  (7) 
O=C(NCC(=O)N1CCC[C@H]1c1nc(-c2ccccc2)cs1)c1ccc2cc(Cl)ccc2n1

>  <score_type>  (7) 
oracle

>  <origin>  (7) 
autodockgpu

>  <m_score__min__energy>  (7) 
-9.7699999999999996

>  <m_primary>  (7) 
energy

>  <rmsd>  (7) 
3.0506680081190836

>  <m_score__min__rmsd>  (7) 
3.0506680081190836

>  <meeko>  (7) 
{"free_energy": -8.99, "intermolecular_energy": -10.78, "internal_energy": -2.06, "cluster_size": 3, "cluster_id": 2, "rank_in_cluster": 2}

>  <energy>  (7) 
-8.99

>  <cluster_rmsd>  (7) 
1.55

>  <cluster>  (7) 
2

$$$$

     RDKit          3D

 54 58  0  0  0  0  0  0  0  0999 V2000
  140.4640   73.6180  220.5030 O   0  0  0  0  0  0  0  0  0  0  0  0
  139.9810   73.6280  221.6820 C   0  0  0  0  0  0  0  0  0  0  0  0
  139.5650   74.8480  222.2740 N   0  0  0  0  0  0  0  0  0  0  0  0
  139.6740   76.1200  221.5630 C   0  0  0  0  0  0  0  0  0  0  0  0
  139.0720   77.2010  222.3840 C   0  0  0  0  0  0  0  0  0  0  0  0
  138.0600   77.0210  223.1090 O   0  0  0  0  0  0  0  0  0  0  0  0
  139.6410   78.5000  222.3710 N   0  0  0  0  0  0  0  0  0  0  0  0
  139.9250   79.3080  221.1760 C   0  0  0  0  0  0  0  0  0  0  0  0
  141.3230   79.7900  221.4840 C   0  0  0  0  0  0  0  0  0  0  0  0
  141.3150   80.0250  222.9460 C   0  0  0  0  0  0  0  0  0  0  0  0
  140.0780   79.3420  223.4670 C   0  0  1  0  0  0  0  0  0  0  0  0
  139.0400   80.3870  223.7810 C   0  0  0  0  0  0  0  0  0  0  0  0
  138.4120   80.7780  224.7170 N   0  0  0  0  0  0  0  0  0  0  0  0
  137.5350   81.7390  224.7710 C   0  0  0  0  0  0  0  0  0  0  0  0
  136.8090   82.1560  225.9670 C   0  0  0  0  0  0  0  0  0  0  0  0
  136.5200   81.2780  226.9900 C   0  0  0  0  0  0  0  0  0  0  0  0
  135.8300   81.6870  228.1170 C   0  0  0  0  0  0  0  0  0  0  0  0
  135.4070   82.9990  228.2510 C   0  0  0  0  0  0  0  0  0  0  0  0
  135.6870   83.8880  227.2410 C   0  0  0  0  0  0  0  0  0  0  0  0
  136.3740   83.4580  226.1310 C   0  0  0  0  0  0  0  0  0  0  0  0
  137.3280   82.3790  223.5410 C   0  0  0  0  0  0  0  0  0  0  0  0
  138.4640   81.4990  222.3620 S   0  0  0  0  0  0  0  0  0  0  0  0
  139.8530   72.3650  222.4360 C   0  0  0  0  0  0  0  0  0  0  0  0
  139.2280   71.2920  221.8360 C   0  0  0  0  0  0  0  0  0  0  0  0
  139.1170   70.1060  222.5650 C   0  0  0  0  0  0  0  0  0  0  0  0
  139.6200   70.0130  223.8460 C   0  0  0  0  0  0  0  0  0  0  0  0
  139.5240   68.8590  224.5840 C   0  0  0  0  0  0  0  0  0  0  0  0
  140.0500   68.8510  225.8480 C   0  0  0  0  0  0  0  0  0  0  0  0
  139.9580   67.4070  226.8350 Cl  0  0  0  0  0  0  0  0  0  0  0  0
  140.6750   69.9520  226.4190 C   0  0  0  0  0  0  0  0  0  0  0  0
  140.7590   71.1000  225.6590 C   0  0  0  0  0  0  0  0  0  0  0  0
  140.2340   71.1380  224.3720 C   0  0  0  0  0  0  0  0  0  0  0  0
  140.3500   72.2890  223.6850 N   0  0  0  0  0  0  0  0  0  0  0  0
  139.1780   74.7800  223.2470 H   0  0  0  0  0  0  0  0  0  0  0  0
  140.7344   76.3471  221.3789 H   0  0  0  0  0  0  0  0  0  0  0  0
  139.1413   76.0496  220.6032 H   0  0  0  0  0  0  0  0  0  0  0  0
  139.8996   78.6989  220.2604 H   0  0  0  0  0  0  0  0  0  0  0  0
  139.1981   80.1117  220.9871 H   0  0  0  0  0  0  0  0  0  0  0  0
  142.0668   79.0250  221.2163 H   0  0  0  0  0  0  0  0  0  0  0  0
  141.5915   80.6921  220.9147 H   0  0  0  0  0  0  0  0  0  0  0  0
  142.2145   79.5921  223.4081 H   0  0  0  0  0  0  0  0  0  0  0  0
  141.3131   81.0993  223.1824 H   0  0  0  0  0  0  0  0  0  0  0  0
  140.2519   78.7604  224.3843 H   0  0  0  0  0  0  0  0  0  0  0  0
  136.8449   80.2303  226.9083 H   0  0  0  0  0  0  0  0  0  0  0  0
  135.6148   80.9620  228.9158 H   0  0  0  0  0  0  0  0  0  0  0  0
  134.8581   83.3229  229.1476 H   0  0  0  0  0  0  0  0  0  0  0  0
  135.3635   84.9364  227.3204 H   0  0  0  0  0  0  0  0  0  0  0  0
  136.5882   84.1854  225.3341 H   0  0  0  0  0  0  0  0  0  0  0  0
  136.6464   83.2143  223.3227 H   0  0  0  0  0  0  0  0  0  0  0  0
  138.8289   71.3680  220.8138 H   0  0  0  0  0  0  0  0  0  0  0  0
  138.6219   69.2346  222.1117 H   0  0  0  0  0  0  0  0  0  0  0  0
  139.0369   67.9638  224.1702 H   0  0  0  0  0  0  0  0  0  0  0  0
  141.0871   69.9101  227.4380 H   0  0  0  0  0  0  0  0  0  0  0  0
  141.2461   71.9942  226.0751 H   0  0  0  0  0  0  0  0  0  0  0  0
  1  2  2  0
  2  3  1  0
  3  4  1  0
  4  5  1  0
  5  6  2  0
  5  7  1  0
  7  8  1  0
  8  9  1  0
  9 10  1  0
 10 11  1  0
 11 12  1  0
 12 13  2  0
 13 14  1  0
 14 15  1  0
 15 16  2  0
 16 17  1  0
 17 18  2  0
 18 19  1  0
 19 20  2  0
 14 21  2  0
 21 22  1  0
  2 23  1  0
 23 24  2  0
 24 25  1  0
 25 26  2  0
 26 27  1  0
 27 28  2  0
 28 29  1  0
 28 30  1  0
 30 31  2  0
 31 32  1  0
 32 33  2  0
 11  7  1  0
 22 12  1  0
 33 23  1  0
 20 15  1  0
 32 26  1  0
  3 34  1  0
  4 35  1  0
  4 36  1  0
  8 37  1  0
  8 38  1  0
  9 39  1  0
  9 40  1  0
 10 41  1  0
 10 42  1  0
 11 43  1  1
 16 44  1  0
 17 45  1  0
 18 46  1  0
 19 47  1  0
 20 48  1  0
 21 49  1  0
 24 50  1  0
 25 51  1  0
 27 52  1  0
 30 53  1  0
 31 54  1  0
M  END
>  <smiles>  (8) 
O=C(NCC(=O)N1CCC[C@H]1c1nc(-c2ccccc2)cs1)c1ccc2cc(Cl)ccc2n1

>  <score_type>  (8) 
oracle

>  <origin>  (8) 
autodockgpu

>  <m_score__min__energy>  (8) 
-9.7699999999999996

>  <m_primary>  (8) 
energy

>  <rmsd>  (8) 
4.797761154820971

>  <m_score__min__rmsd>  (8) 
4.797761154820971

>  <meeko>  (8) 
{"free_energy": -9.01, "intermolecular_energy": -10.8, "internal_energy": -1.45, "cluster_size": 2, "cluster_id": 3, "rank_in_cluster": 2}

>  <energy>  (8) 
-8.83

>  <cluster_rmsd>  (8) 
1.37

>  <cluster>  (8) 
2

$$$$

     RDKit          3D

 54 58  0  0  0  0  0  0  0  0999 V2000
  140.0420   74.1920  221.9360 O   0  0  0  0  0  0  0  0  0  0  0  0
  140.3520   75.4180  221.7880 C   0  0  0  0  0  0  0  0  0  0  0  0
  141.6130   75.7780  221.2460 N   0  0  0  0  0  0  0  0  0  0  0  0
  142.5890   74.7670  220.8450 C   0  0  0  0  0  0  0  0  0  0  0  0
  142.3210   74.3450  219.4480 C   0  0  0  0  0  0  0  0  0  0  0  0
  142.4640   73.1590  219.0550 O   0  0  0  0  0  0  0  0  0  0  0  0
  141.8810   75.2980  218.4920 N   0  0  0  0  0  0  0  0  0  0  0  0
  140.5740   75.3080  217.8190 C   0  0  0  0  0  0  0  0  0  0  0  0
  140.9940   75.5560  216.3890 C   0  0  0  0  0  0  0  0  0  0  0  0
  142.1370   76.4900  216.4990 C   0  0  0  0  0  0  0  0  0  0  0  0
  142.5590   76.4560  217.9450 C   0  0  1  0  0  0  0  0  0  0  0  0
  142.0860   77.7170  218.6200 C   0  0  0  0  0  0  0  0  0  0  0  0
  142.2180   78.2820  219.6630 N   0  0  0  0  0  0  0  0  0  0  0  0
  141.7030   79.4120  220.0520 C   0  0  0  0  0  0  0  0  0  0  0  0
  141.9180   80.0370  221.3540 C   0  0  0  0  0  0  0  0  0  0  0  0
  142.5310   79.3700  222.3930 C   0  0  0  0  0  0  0  0  0  0  0  0
  142.7290   79.9750  223.6210 C   0  0  0  0  0  0  0  0  0  0  0  0
  142.3130   81.2780  223.8440 C   0  0  0  0  0  0  0  0  0  0  0  0
  141.7000   81.9580  222.8190 C   0  0  0  0  0  0  0  0  0  0  0  0
  141.5150   81.3350  221.6070 C   0  0  0  0  0  0  0  0  0  0  0  0
  140.8860   80.0180  219.0870 C   0  0  0  0  0  0  0  0  0  0  0  0
  140.9350   78.8540  217.6400 S   0  0  0  0  0  0  0  0  0  0  0  0
  139.3940   76.4720  222.1800 C   0  0  0  0  0  0  0  0  0  0  0  0
  138.0480   76.2620  221.9640 C   0  0  0  0  0  0  0  0  0  0  0  0
  137.1590   77.2700  222.3430 C   0  0  0  0  0  0  0  0  0  0  0  0
  137.6150   78.4390  222.9150 C   0  0  0  0  0  0  0  0  0  0  0  0
  136.7620   79.4460  223.2960 C   0  0  0  0  0  0  0  0  0  0  0  0
  137.2970   80.5730  223.8570 C   0  0  0  0  0  0  0  0  0  0  0  0
  136.2570   81.8890  224.3620 Cl  0  0  0  0  0  0  0  0  0  0  0  0
  138.6600   80.7490  224.0600 C   0  0  0  0  0  0  0  0  0  0  0  0
  139.4970   79.7250  223.6690 C   0  0  0  0  0  0  0  0  0  0  0  0
  138.9830   78.5680  223.0960 C   0  0  0  0  0  0  0  0  0  0  0  0
  139.8550   77.6070  222.7380 N   0  0  0  0  0  0  0  0  0  0  0  0
  141.7990   76.8060  221.1530 H   0  0  0  0  0  0  0  0  0  0  0  0
  143.6025   75.1893  220.9121 H   0  0  0  0  0  0  0  0  0  0  0  0
  142.5088   73.8961  221.5121 H   0  0  0  0  0  0  0  0  0  0  0  0
  140.0555   74.3439  217.9273 H   0  0  0  0  0  0  0  0  0  0  0  0
  139.8615   76.0445  218.2187 H   0  0  0  0  0  0  0  0  0  0  0  0
  141.3031   74.6175  215.9055 H   0  0  0  0  0  0  0  0  0  0  0  0
  140.1765   75.9634  215.7760 H   0  0  0  0  0  0  0  0  0  0  0  0
  142.9633   76.1618  215.8513 H   0  0  0  0  0  0  0  0  0  0  0  0
  141.8604   77.5065  216.1823 H   0  0  0  0  0  0  0  0  0  0  0  0
  143.6486   76.3939  218.0827 H   0  0  0  0  0  0  0  0  0  0  0  0
  142.8700   78.3344  222.2423 H   0  0  0  0  0  0  0  0  0  0  0  0
  143.2222   79.4156  224.4296 H   0  0  0  0  0  0  0  0  0  0  0  0
  142.4702   81.7580  224.8212 H   0  0  0  0  0  0  0  0  0  0  0  0
  141.3597   82.9935  222.9670 H   0  0  0  0  0  0  0  0  0  0  0  0
  141.0224   81.8968  220.7996 H   0  0  0  0  0  0  0  0  0  0  0  0
  140.3390   80.9689  219.1684 H   0  0  0  0  0  0  0  0  0  0  0  0
  137.6860   75.3291  221.5072 H   0  0  0  0  0  0  0  0  0  0  0  0
  136.0798   77.1296  222.1830 H   0  0  0  0  0  0  0  0  0  0  0  0
  135.6756   79.3485  223.1535 H   0  0  0  0  0  0  0  0  0  0  0  0
  139.0561   81.6690  224.5147 H   0  0  0  0  0  0  0  0  0  0  0  0
  140.5830   79.8251  223.8123 H   0  0  0  0  0  0  0  0  0  0  0  0
  1  2  2  0
  2  3  1  0
  3  4  1  0
  4  5  1  0
  5  6  2  0
  5  7  1  0
  7  8  1  0
  8  9  1  0
  9 10  1  0
 10 11  1  0
 11 12  1  0
 12 13  2  0
 13 14  1  0
 14 15  1  0
 15 16  2  0
 16 17  1  0
 17 18  2  0
 18 19  1  0
 19 20  2  0
 14 21  2  0
 21 22  1  0
  2 23  1  0
 23 24  2  0
 24 25  1  0
 25 26  2  0
 26 27  1  0
 27 28  2  0
 28 29  1  0
 28 30  1  0
 30 31  2  0
 31 32  1  0
 32 33  2  0
 11  7  1  0
 22 12  1  0
 33 23  1  0
 20 15  1  0
 32 26  1  0
  3 34  1  0
  4 35  1  0
  4 36  1  0
  8 37  1  0
  8 38  1  0
  9 39  1  0
  9 40  1  0
 10 41  1  0
 10 42  1  0
 11 43  1  6
 16 44  1  0
 17 45  1  0
 18 46  1  0
 19 47  1  0
 20 48  1  0
 21 49  1  0
 24 50  1  0
 25 51  1  0
 27 52  1  0
 30 53  1  0
 31 54  1  0
M  END
>  <smiles>  (9) 
O=C(NCC(=O)N1CCC[C@H]1c1nc(-c2ccccc2)cs1)c1ccc2cc(Cl)ccc2n1

>  <score_type>  (9) 
oracle

>  <origin>  (9) 
autodockgpu

>  <m_score__min__energy>  (9) 
-9.7699999999999996

>  <m_primary>  (9) 
energy

>  <rmsd>  (9) 
6.150697272472007

>  <m_score__min__rmsd>  (9) 
6.150697272472007

>  <meeko>  (9) 
{"free_energy": -7.06, "intermolecular_energy": -8.85, "internal_energy": -4.07, "cluster_size": 17, "cluster_id": 6, "rank_in_cluster": 7}

>  <energy>  (9) 
-9.17

>  <cluster_rmsd>  (9) 
0.0

>  <cluster>  (9) 
3

$$$$

     RDKit          3D

 54 58  0  0  0  0  0  0  0  0999 V2000
  140.3680   74.1500  221.9410 O   0  0  0  0  0  0  0  0  0  0  0  0
  140.6940   75.3540  221.6850 C   0  0  0  0  0  0  0  0  0  0  0  0
  141.9640   75.6490  221.1250 N   0  0  0  0  0  0  0  0  0  0  0  0
  142.9320   74.5950  220.8270 C   0  0  0  0  0  0  0  0  0  0  0  0
  142.9750   74.3610  219.3620 C   0  0  0  0  0  0  0  0  0  0  0  0
  143.6040   73.4030  218.8440 O   0  0  0  0  0  0  0  0  0  0  0  0
  142.2860   75.2380  218.4840 N   0  0  0  0  0  0  0  0  0  0  0  0
  140.9270   75.0420  217.9570 C   0  0  0  0  0  0  0  0  0  0  0  0
  141.1390   75.3640  216.4970 C   0  0  0  0  0  0  0  0  0  0  0  0
  142.1250   76.4700  216.5060 C   0  0  0  0  0  0  0  0  0  0  0  0
  142.7050   76.4940  217.8960 C   0  0  1  0  0  0  0  0  0  0  0  0
  142.1170   77.6570  218.6490 C   0  0  0  0  0  0  0  0  0  0  0  0
  142.2980   78.2530  219.6670 N   0  0  0  0  0  0  0  0  0  0  0  0
  141.6480   79.2760  220.1430 C   0  0  0  0  0  0  0  0  0  0  0  0
  141.9380   79.9500  221.4060 C   0  0  0  0  0  0  0  0  0  0  0  0
  142.6600   79.3410  222.4110 C   0  0  0  0  0  0  0  0  0  0  0  0
  142.9260   79.9920  223.6010 C   0  0  0  0  0  0  0  0  0  0  0  0
  142.4740   81.2820  223.8200 C   0  0  0  0  0  0  0  0  0  0  0  0
  141.7530   81.9050  222.8280 C   0  0  0  0  0  0  0  0  0  0  0  0
  141.5010   81.2370  221.6540 C   0  0  0  0  0  0  0  0  0  0  0  0
  140.6000   79.7070  219.3190 C   0  0  0  0  0  0  0  0  0  0  0  0
  140.6440   78.5500  217.8670 S   0  0  0  0  0  0  0  0  0  0  0  0
  139.7460   76.4490  221.9710 C   0  0  0  0  0  0  0  0  0  0  0  0
  138.4970   76.4180  221.3860 C   0  0  0  0  0  0  0  0  0  0  0  0
  137.6150   77.4630  221.6690 C   0  0  0  0  0  0  0  0  0  0  0  0
  137.9830   78.4930  222.5090 C   0  0  0  0  0  0  0  0  0  0  0  0
  137.1350   79.5320  222.8030 C   0  0  0  0  0  0  0  0  0  0  0  0
  137.5790   80.5140  223.6460 C   0  0  0  0  0  0  0  0  0  0  0  0
  136.5400   81.8640  224.0580 Cl  0  0  0  0  0  0  0  0  0  0  0  0
  138.8450   80.5120  224.2180 C   0  0  0  0  0  0  0  0  0  0  0  0
  139.6800   79.4590  223.9070 C   0  0  0  0  0  0  0  0  0  0  0  0
  139.2570   78.4460  223.0540 C   0  0  0  0  0  0  0  0  0  0  0  0
  140.1200   77.4480  222.7930 N   0  0  0  0  0  0  0  0  0  0  0  0
  142.1630   76.6620  220.9410 H   0  0  0  0  0  0  0  0  0  0  0  0
  143.9281   74.9022  221.1784 H   0  0  0  0  0  0  0  0  0  0  0  0
  142.6324   73.6677  221.3373 H   0  0  0  0  0  0  0  0  0  0  0  0
  140.5841   74.0062  218.0972 H   0  0  0  0  0  0  0  0  0  0  0  0
  140.1556   75.6518  218.4500 H   0  0  0  0  0  0  0  0  0  0  0  0
  141.5374   74.4910  215.9592 H   0  0  0  0  0  0  0  0  0  0  0  0
  140.2039   75.6385  215.9868 H   0  0  0  0  0  0  0  0  0  0  0  0
  142.9158   76.2837  215.7645 H   0  0  0  0  0  0  0  0  0  0  0  0
  141.6566   77.4310  216.2469 H   0  0  0  0  0  0  0  0  0  0  0  0
  143.7990   76.6072  217.9130 H   0  0  0  0  0  0  0  0  0  0  0  0
  143.0317   78.3164  222.2625 H   0  0  0  0  0  0  0  0  0  0  0  0
  143.5039   79.4787  224.3836 H   0  0  0  0  0  0  0  0  0  0  0  0
  142.6870   81.7982  224.7677 H   0  0  0  0  0  0  0  0  0  0  0  0
  141.3811   82.9300  222.9734 H   0  0  0  0  0  0  0  0  0  0  0  0
  140.9227   81.7524  220.8730 H   0  0  0  0  0  0  0  0  0  0  0  0
  139.9067   80.5431  219.4931 H   0  0  0  0  0  0  0  0  0  0  0  0
  138.2048   75.5952  220.7170 H   0  0  0  0  0  0  0  0  0  0  0  0
  136.6128   77.4646  221.2156 H   0  0  0  0  0  0  0  0  0  0  0  0
  136.1240   79.5739  222.3716 H   0  0  0  0  0  0  0  0  0  0  0  0
  139.1688   81.3184  224.8924 H   0  0  0  0  0  0  0  0  0  0  0  0
  140.6911   79.4204  224.3384 H   0  0  0  0  0  0  0  0  0  0  0  0
  1  2  2  0
  2  3  1  0
  3  4  1  0
  4  5  1  0
  5  6  2  0
  5  7  1  0
  7  8  1  0
  8  9  1  0
  9 10  1  0
 10 11  1  0
 11 12  1  0
 12 13  2  0
 13 14  1  0
 14 15  1  0
 15 16  2  0
 16 17  1  0
 17 18  2  0
 18 19  1  0
 19 20  2  0
 14 21  2  0
 21 22  1  0
  2 23  1  0
 23 24  2  0
 24 25  1  0
 25 26  2  0
 26 27  1  0
 27 28  2  0
 28 29  1  0
 28 30  1  0
 30 31  2  0
 31 32  1  0
 32 33  2  0
 11  7  1  0
 22 12  1  0
 33 23  1  0
 20 15  1  0
 32 26  1  0
  3 34  1  0
  4 35  1  0
  4 36  1  0
  8 37  1  0
  8 38  1  0
  9 39  1  0
  9 40  1  0
 10 41  1  0
 10 42  1  0
 11 43  1  6
 16 44  1  0
 17 45  1  0
 18 46  1  0
 19 47  1  0
 20 48  1  0
 21 49  1  0
 24 50  1  0
 25 51  1  0
 27 52  1  0
 30 53  1  0
 31 54  1  0
M  END
>  <smiles>  (10) 
O=C(NCC(=O)N1CCC[C@H]1c1nc(-c2ccccc2)cs1)c1ccc2cc(Cl)ccc2n1

>  <score_type>  (10) 
oracle

>  <origin>  (10) 
autodockgpu

>  <m_score__min__energy>  (10) 
-9.7699999999999996

>  <m_primary>  (10) 
energy

>  <rmsd>  (10) 
6.204458966186963

>  <m_score__min__rmsd>  (10) 
6.204458966186963

>  <meeko>  (10) 
{"free_energy": -6.85, "intermolecular_energy": -8.64, "internal_energy": -4.44, "cluster_size": 17, "cluster_id": 6, "rank_in_cluster": 13}

>  <energy>  (10) 
-9.01

>  <cluster_rmsd>  (10) 
1.22

>  <cluster>  (10) 
3

$$$$

     RDKit          3D

 54 58  0  0  0  0  0  0  0  0999 V2000
  138.2890   75.3050  222.6970 O   0  0  0  0  0  0  0  0  0  0  0  0
  139.2930   75.7030  222.0200 C   0  0  0  0  0  0  0  0  0  0  0  0
  139.4570   77.0810  221.7240 N   0  0  0  0  0  0  0  0  0  0  0  0
  138.4930   78.0800  222.1790 C   0  0  0  0  0  0  0  0  0  0  0  0
  139.2010   79.1480  222.9270 C   0  0  0  0  0  0  0  0  0  0  0  0
  138.6440   79.8380  223.8190 O   0  0  0  0  0  0  0  0  0  0  0  0
  140.5650   79.4250  222.6470 N   0  0  0  0  0  0  0  0  0  0  0  0
  141.7250   78.7410  223.2380 C   0  0  0  0  0  0  0  0  0  0  0  0
  142.5990   79.9210  223.5930 C   0  0  0  0  0  0  0  0  0  0  0  0
  142.3840   80.8820  222.4870 C   0  0  0  0  0  0  0  0  0  0  0  0
  141.1580   80.4010  221.7550 C   0  0  1  0  0  0  0  0  0  0  0  0
  141.5840   79.7520  220.4650 C   0  0  0  0  0  0  0  0  0  0  0  0
  141.6650   78.6600  219.9910 N   0  0  0  0  0  0  0  0  0  0  0  0
  142.0720   78.3100  218.8050 C   0  0  0  0  0  0  0  0  0  0  0  0
  142.1390   76.9410  218.3020 C   0  0  0  0  0  0  0  0  0  0  0  0
  143.2970   76.4110  217.7750 C   0  0  0  0  0  0  0  0  0  0  0  0
  143.3450   75.1120  217.3030 C   0  0  0  0  0  0  0  0  0  0  0  0
  142.2240   74.3010  217.3460 C   0  0  0  0  0  0  0  0  0  0  0  0
  141.0600   74.8130  217.8700 C   0  0  0  0  0  0  0  0  0  0  0  0
  141.0370   76.1060  218.3320 C   0  0  0  0  0  0  0  0  0  0  0  0
  142.4600   79.3930  218.0030 C   0  0  0  0  0  0  0  0  0  0  0  0
  142.1930   80.8850  219.0770 S   0  0  0  0  0  0  0  0  0  0  0  0
  140.2910   74.7250  221.5420 C   0  0  0  0  0  0  0  0  0  0  0  0
  139.9200   73.4030  221.4130 C   0  0  0  0  0  0  0  0  0  0  0  0
  140.8770   72.4940  220.9590 C   0  0  0  0  0  0  0  0  0  0  0  0
  142.1560   72.9090  220.6490 C   0  0  0  0  0  0  0  0  0  0  0  0
  143.1170   72.0360  220.2000 C   0  0  0  0  0  0  0  0  0  0  0  0
  144.3600   72.5300  219.9140 C   0  0  0  0  0  0  0  0  0  0  0  0
  145.6250   71.4630  219.3380 Cl  0  0  0  0  0  0  0  0  0  0  0  0
  144.6980   73.8700  220.0550 C   0  0  0  0  0  0  0  0  0  0  0  0
  143.7170   74.7280  220.5080 C   0  0  0  0  0  0  0  0  0  0  0  0
  142.4450   74.2550  220.8060 C   0  0  0  0  0  0  0  0  0  0  0  0
  141.5340   75.1450  221.2420 N   0  0  0  0  0  0  0  0  0  0  0  0
  140.3060   77.3340  221.1630 H   0  0  0  0  0  0  0  0  0  0  0  0
  137.9820   78.5188  221.3093 H   0  0  0  0  0  0  0  0  0  0  0  0
  137.7528   77.6013  222.8370 H   0  0  0  0  0  0  0  0  0  0  0  0
  141.4428   78.1633  224.1305 H   0  0  0  0  0  0  0  0  0  0  0  0
  142.2032   78.0024  222.5778 H   0  0  0  0  0  0  0  0  0  0  0  0
  142.2915   80.3583  224.5544 H   0  0  0  0  0  0  0  0  0  0  0  0
  143.6567   79.6412  223.7067 H   0  0  0  0  0  0  0  0  0  0  0  0
  142.2192   81.8938  222.8858 H   0  0  0  0  0  0  0  0  0  0  0  0
  143.2579   80.9336  221.8210 H   0  0  0  0  0  0  0  0  0  0  0  0
  140.4526   81.2069  221.5041 H   0  0  0  0  0  0  0  0  0  0  0  0
  144.2021   77.0344  217.7288 H   0  0  0  0  0  0  0  0  0  0  0  0
  144.2849   74.7186  216.8886 H   0  0  0  0  0  0  0  0  0  0  0  0
  142.2633   73.2684  216.9689 H   0  0  0  0  0  0  0  0  0  0  0  0
  140.1539   74.1912  217.9187 H   0  0  0  0  0  0  0  0  0  0  0  0
  140.0959   76.4967  218.7463 H   0  0  0  0  0  0  0  0  0  0  0  0
  142.8376   79.3652  216.9702 H   0  0  0  0  0  0  0  0  0  0  0  0
  138.8998   73.0746  221.6606 H   0  0  0  0  0  0  0  0  0  0  0  0
  140.6082   71.4333  220.8469 H   0  0  0  0  0  0  0  0  0  0  0  0
  142.8925   70.9666  220.0736 H   0  0  0  0  0  0  0  0  0  0  0  0
  145.7083   74.2329  219.8149 H   0  0  0  0  0  0  0  0  0  0  0  0
  143.9441   75.7968  220.6344 H   0  0  0  0  0  0  0  0  0  0  0  0
  1  2  2  0
  2  3  1  0
  3  4  1  0
  4  5  1  0
  5  6  2  0
  5  7  1  0
  7  8  1  0
  8  9  1  0
  9 10  1  0
 10 11  1  0
 11 12  1  0
 12 13  2  0
 13 14  1  0
 14 15  1  0
 15 16  2  0
 16 17  1  0
 17 18  2  0
 18 19  1  0
 19 20  2  0
 14 21  2  0
 21 22  1  0
  2 23  1  0
 23 24  2  0
 24 25  1  0
 25 26  2  0
 26 27  1  0
 27 28  2  0
 28 29  1  0
 28 30  1  0
 30 31  2  0
 31 32  1  0
 32 33  2  0
 11  7  1  0
 22 12  1  0
 33 23  1  0
 20 15  1  0
 32 26  1  0
  3 34  1  0
  4 35  1  0
  4 36  1  0
  8 37  1  0
  8 38  1  0
  9 39  1  0
  9 40  1  0
 10 41  1  0
 10 42  1  0
 11 43  1  6
 16 44  1  0
 17 45  1  0
 18 46  1  0
 19 47  1  0
 20 48  1  0
 21 49  1  0
 24 50  1  0
 25 51  1  0
 27 52  1  0
 30 53  1  0
 31 54  1  0
M  END
>  <smiles>  (11) 
O=C(NCC(=O)N1CCC[C@H]1c1nc(-c2ccccc2)cs1)c1ccc2cc(Cl)ccc2n1

>  <score_type>  (11) 
oracle

>  <origin>  (11) 
autodockgpu

>  <m_score__min__energy>  (11) 
-9.7699999999999996

>  <m_primary>  (11) 
energy

>  <rmsd>  (11) 
6.574600107262179

>  <m_score__min__rmsd>  (11) 
6.574600107262179

>  <meeko>  (11) 
{"free_energy": -6.63, "intermolecular_energy": -8.42, "internal_energy": -4.38, "cluster_size": 5, "cluster_id": 7, "rank_in_cluster": 3}

>  <energy>  (11) 
-8.95

>  <cluster_rmsd>  (11) 
0.0

>  <cluster>  (11) 
4

$$$$

     RDKit          3D

 54 58  0  0  0  0  0  0  0  0999 V2000
  140.2510   73.9620  221.8750 O   0  0  0  0  0  0  0  0  0  0  0  0
  140.5730   75.1850  221.7180 C   0  0  0  0  0  0  0  0  0  0  0  0
  141.8510   75.5280  221.2040 N   0  0  0  0  0  0  0  0  0  0  0  0
  142.8290   74.5050  220.8430 C   0  0  0  0  0  0  0  0  0  0  0  0
  142.6400   74.1170  219.4230 C   0  0  0  0  0  0  0  0  0  0  0  0
  142.7840   72.9350  219.0160 O   0  0  0  0  0  0  0  0  0  0  0  0
  142.2800   75.0970  218.4630 N   0  0  0  0  0  0  0  0  0  0  0  0
  141.0990   75.0590  217.5880 C   0  0  0  0  0  0  0  0  0  0  0  0
  141.7150   75.4310  216.2600 C   0  0  0  0  0  0  0  0  0  0  0  0
  142.7470   76.4360  216.6060 C   0  0  0  0  0  0  0  0  0  0  0  0
  142.9380   76.3350  218.0970 C   0  0  1  0  0  0  0  0  0  0  0  0
  142.2650   77.5100  218.7540 C   0  0  0  0  0  0  0  0  0  0  0  0
  142.3640   78.1630  219.7490 N   0  0  0  0  0  0  0  0  0  0  0  0
  141.6510   79.1820  220.1330 C   0  0  0  0  0  0  0  0  0  0  0  0
  141.8420   79.9290  221.3730 C   0  0  0  0  0  0  0  0  0  0  0  0
  142.5610   79.4170  222.4320 C   0  0  0  0  0  0  0  0  0  0  0  0
  142.7330   80.1360  223.6010 C   0  0  0  0  0  0  0  0  0  0  0  0
  142.1850   81.4000  223.7420 C   0  0  0  0  0  0  0  0  0  0  0  0
  141.4650   81.9260  222.6960 C   0  0  0  0  0  0  0  0  0  0  0  0
  141.3080   81.1920  221.5450 C   0  0  0  0  0  0  0  0  0  0  0  0
  140.6380   79.5310  219.2290 C   0  0  0  0  0  0  0  0  0  0  0  0
  140.8090   78.3050  217.8440 S   0  0  0  0  0  0  0  0  0  0  0  0
  139.6140   76.2500  222.0710 C   0  0  0  0  0  0  0  0  0  0  0  0
  138.2960   76.1130  221.6870 C   0  0  0  0  0  0  0  0  0  0  0  0
  137.4040   77.1300  222.0310 C   0  0  0  0  0  0  0  0  0  0  0  0
  137.8300   78.2390  222.7320 C   0  0  0  0  0  0  0  0  0  0  0  0
  136.9730   79.2540  223.0820 C   0  0  0  0  0  0  0  0  0  0  0  0
  137.4780   80.3180  223.7790 C   0  0  0  0  0  0  0  0  0  0  0  0
  136.4310   81.6410  224.2530 Cl  0  0  0  0  0  0  0  0  0  0  0  0
  138.8130   80.4220  224.1500 C   0  0  0  0  0  0  0  0  0  0  0  0
  139.6540   79.3910  223.7870 C   0  0  0  0  0  0  0  0  0  0  0  0
  139.1700   78.2960  223.0780 C   0  0  0  0  0  0  0  0  0  0  0  0
  140.0440   77.3250  222.7570 N   0  0  0  0  0  0  0  0  0  0  0  0
  142.0460   76.5540  221.1020 H   0  0  0  0  0  0  0  0  0  0  0  0
  143.8447   74.9039  220.9818 H   0  0  0  0  0  0  0  0  0  0  0  0
  142.6899   73.6228  221.4851 H   0  0  0  0  0  0  0  0  0  0  0  0
  140.6498   74.0553  217.5584 H   0  0  0  0  0  0  0  0  0  0  0  0
  140.2760   75.7155  217.9069 H   0  0  0  0  0  0  0  0  0  0  0  0
  142.1716   74.5518  215.7820 H   0  0  0  0  0  0  0  0  0  0  0  0
  140.9734   75.8178  215.5455 H   0  0  0  0  0  0  0  0  0  0  0  0
  143.6889   76.2127  216.0836 H   0  0  0  0  0  0  0  0  0  0  0  0
  142.4410   77.4490  216.3057 H   0  0  0  0  0  0  0  0  0  0  0  0
  143.9938   76.3418  218.4057 H   0  0  0  0  0  0  0  0  0  0  0  0
  143.0074   78.4154  222.3455 H   0  0  0  0  0  0  0  0  0  0  0  0
  143.3116   79.6989  224.4281 H   0  0  0  0  0  0  0  0  0  0  0  0
  142.3231   81.9712  224.6719 H   0  0  0  0  0  0  0  0  0  0  0  0
  141.0176   82.9274  222.7797 H   0  0  0  0  0  0  0  0  0  0  0  0
  140.7286   81.6315  220.7197 H   0  0  0  0  0  0  0  0  0  0  0  0
  139.9063   80.3474  219.3195 H   0  0  0  0  0  0  0  0  0  0  0  0
  137.9582   75.2288  221.1265 H   0  0  0  0  0  0  0  0  0  0  0  0
  136.3468   77.0459  221.7391 H   0  0  0  0  0  0  0  0  0  0  0  0
  135.9082   79.2126  222.8090 H   0  0  0  0  0  0  0  0  0  0  0  0
  139.1844   81.2922  224.7110 H   0  0  0  0  0  0  0  0  0  0  0  0
  140.7185   79.4348  224.0608 H   0  0  0  0  0  0  0  0  0  0  0  0
  1  2  2  0
  2  3  1  0
  3  4  1  0
  4  5  1  0
  5  6  2  0
  5  7  1  0
  7  8  1  0
  8  9  1  0
  9 10  1  0
 10 11  1  0
 11 12  1  0
 12 13  2  0
 13 14  1  0
 14 15  1  0
 15 16  2  0
 16 17  1  0
 17 18  2  0
 18 19  1  0
 19 20  2  0
 14 21  2  0
 21 22  1  0
  2 23  1  0
 23 24  2  0
 24 25  1  0
 25 26  2  0
 26 27  1  0
 27 28  2  0
 28 29  1  0
 28 30  1  0
 30 31  2  0
 31 32  1  0
 32 33  2  0
 11  7  1  0
 22 12  1  0
 33 23  1  0
 20 15  1  0
 32 26  1  0
  3 34  1  0
  4 35  1  0
  4 36  1  0
  8 37  1  0
  8 38  1  0
  9 39  1  0
  9 40  1  0
 10 41  1  0
 10 42  1  0
 11 43  1  6
 16 44  1  0
 17 45  1  0
 18 46  1  0
 19 47  1  0
 20 48  1  0
 21 49  1  0
 24 50  1  0
 25 51  1  0
 27 52  1  0
 30 53  1  0
 31 54  1  0
M  END
>  <smiles>  (12) 
O=C(NCC(=O)N1CCC[C@H]1c1nc(-c2ccccc2)cs1)c1ccc2cc(Cl)ccc2n1

>  <score_type>  (12) 
oracle

>  <origin>  (12) 
autodockgpu

>  <m_score__min__energy>  (12) 
-9.7699999999999996

>  <m_primary>  (12) 
energy

>  <rmsd>  (12) 
6.077458049353636

>  <m_score__min__rmsd>  (12) 
6.077458049353636

>  <meeko>  (12) 
{"free_energy": -7.17, "intermolecular_energy": -8.96, "internal_energy": -4.1, "cluster_size": 17, "cluster_id": 6, "rank_in_cluster": 1}

>  <energy>  (12) 
-8.49

>  <cluster_rmsd>  (12) 
0.0

>  <cluster>  (12) 
5

$$$$

     RDKit          3D

 54 58  0  0  0  0  0  0  0  0999 V2000
  142.3160   77.0700  217.3650 O   0  0  0  0  0  0  0  0  0  0  0  0
  142.2520   77.3560  218.6050 C   0  0  0  0  0  0  0  0  0  0  0  0
  142.6600   76.4090  219.5800 N   0  0  0  0  0  0  0  0  0  0  0  0
  143.1610   75.0900  219.2020 C   0  0  0  0  0  0  0  0  0  0  0  0
  142.8140   74.1070  220.2590 C   0  0  0  0  0  0  0  0  0  0  0  0
  143.6380   73.2670  220.7040 O   0  0  0  0  0  0  0  0  0  0  0  0
  141.5070   74.0910  220.8100 N   0  0  0  0  0  0  0  0  0  0  0  0
  141.0650   73.2960  221.9660 C   0  0  0  0  0  0  0  0  0  0  0  0
  139.7660   72.7300  221.4420 C   0  0  0  0  0  0  0  0  0  0  0  0
  139.1930   73.8240  220.6250 C   0  0  0  0  0  0  0  0  0  0  0  0
  140.3130   74.8080  220.4100 C   0  0  1  0  0  0  0  0  0  0  0  0
  140.0880   76.0040  221.2970 C   0  0  0  0  0  0  0  0  0  0  0  0
  140.6850   76.9630  221.6820 N   0  0  0  0  0  0  0  0  0  0  0  0
  140.2820   77.9140  222.4740 C   0  0  0  0  0  0  0  0  0  0  0  0
  141.0830   79.0600  222.8960 C   0  0  0  0  0  0  0  0  0  0  0  0
  142.4490   79.1020  222.7190 C   0  0  0  0  0  0  0  0  0  0  0  0
  143.1940   80.1950  223.1240 C   0  0  0  0  0  0  0  0  0  0  0  0
  142.5850   81.2850  223.7240 C   0  0  0  0  0  0  0  0  0  0  0  0
  141.2230   81.2600  223.9070 C   0  0  0  0  0  0  0  0  0  0  0  0
  140.5040   80.1630  223.4960 C   0  0  0  0  0  0  0  0  0  0  0  0
  138.9610   77.7560  222.9140 C   0  0  0  0  0  0  0  0  0  0  0  0
  138.3900   76.1790  222.1140 S   0  0  0  0  0  0  0  0  0  0  0  0
  141.7520   78.6790  219.0300 C   0  0  0  0  0  0  0  0  0  0  0  0
  142.5680   79.7790  218.8780 C   0  0  0  0  0  0  0  0  0  0  0  0
  142.0770   81.0220  219.2850 C   0  0  0  0  0  0  0  0  0  0  0  0
  140.8130   81.1410  219.8230 C   0  0  0  0  0  0  0  0  0  0  0  0
  140.3060   82.3510  220.2310 C   0  0  0  0  0  0  0  0  0  0  0  0
  139.0410   82.3820  220.7530 C   0  0  0  0  0  0  0  0  0  0  0  0
  138.3430   83.8960  221.2900 Cl  0  0  0  0  0  0  0  0  0  0  0  0
  138.2460   81.2510  220.8900 C   0  0  0  0  0  0  0  0  0  0  0  0
  138.7770   80.0480  220.4740 C   0  0  0  0  0  0  0  0  0  0  0  0
  140.0580   79.9850  219.9390 C   0  0  0  0  0  0  0  0  0  0  0  0
  140.5150   78.7790  219.5520 N   0  0  0  0  0  0  0  0  0  0  0  0
  142.5790   76.7140  220.5810 H   0  0  0  0  0  0  0  0  0  0  0  0
  142.7025   74.7825  218.2506 H   0  0  0  0  0  0  0  0  0  0  0  0
  144.2540   75.1326  219.0856 H   0  0  0  0  0  0  0  0  0  0  0  0
  141.7845   72.5001  222.2086 H   0  0  0  0  0  0  0  0  0  0  0  0
  140.9679   73.8676  222.9008 H   0  0  0  0  0  0  0  0  0  0  0  0
  139.9504   71.8383  220.8248 H   0  0  0  0  0  0  0  0  0  0  0  0
  139.0908   72.4107  222.2495 H   0  0  0  0  0  0  0  0  0  0  0  0
  138.8354   73.4344  219.6605 H   0  0  0  0  0  0  0  0  0  0  0  0
  138.3328   74.2936  221.1246 H   0  0  0  0  0  0  0  0  0  0  0  0
  140.3839   75.1717  219.3743 H   0  0  0  0  0  0  0  0  0  0  0  0
  142.9574   78.2489  222.2460 H   0  0  0  0  0  0  0  0  0  0  0  0
  144.2828   80.1986  222.9677 H   0  0  0  0  0  0  0  0  0  0  0  0
  143.1791   82.1525  224.0473 H   0  0  0  0  0  0  0  0  0  0  0  0
  140.7119   82.1120  224.3791 H   0  0  0  0  0  0  0  0  0  0  0  0
  139.4151   80.1626  223.6520 H   0  0  0  0  0  0  0  0  0  0  0  0
  138.3902   78.4170  223.5828 H   0  0  0  0  0  0  0  0  0  0  0  0
  143.5761   79.6813  218.4489 H   0  0  0  0  0  0  0  0  0  0  0  0
  142.7068   81.9171  219.1749 H   0  0  0  0  0  0  0  0  0  0  0  0
  140.9015   83.2714  220.1405 H   0  0  0  0  0  0  0  0  0  0  0  0
  137.2327   81.3125  221.3137 H   0  0  0  0  0  0  0  0  0  0  0  0
  138.1802   79.1286  220.5667 H   0  0  0  0  0  0  0  0  0  0  0  0
  1  2  2  0
  2  3  1  0
  3  4  1  0
  4  5  1  0
  5  6  2  0
  5  7  1  0
  7  8  1  0
  8  9  1  0
  9 10  1  0
 10 11  1  0
 11 12  1  0
 12 13  2  0
 13 14  1  0
 14 15  1  0
 15 16  2  0
 16 17  1  0
 17 18  2  0
 18 19  1  0
 19 20  2  0
 14 21  2  0
 21 22  1  0
  2 23  1  0
 23 24  2  0
 24 25  1  0
 25 26  2  0
 26 27  1  0
 27 28  2  0
 28 29  1  0
 28 30  1  0
 30 31  2  0
 31 32  1  0
 32 33  2  0
 11  7  1  0
 22 12  1  0
 33 23  1  0
 20 15  1  0
 32 26  1  0
  3 34  1  0
  4 35  1  0
  4 36  1  0
  8 37  1  0
  8 38  1  0
  9 39  1  0
  9 40  1  0
 10 41  1  0
 10 42  1  0
 11 43  1  6
 16 44  1  0
 17 45  1  0
 18 46  1  0
 19 47  1  0
 20 48  1  0
 21 49  1  0
 24 50  1  0
 25 51  1  0
 27 52  1  0
 30 53  1  0
 31 54  1  0
M  END
>  <smiles>  (13) 
O=C(NCC(=O)N1CCC[C@H]1c1nc(-c2ccccc2)cs1)c1ccc2cc(Cl)ccc2n1

>  <score_type>  (13) 
oracle

>  <origin>  (13) 
autodockgpu

>  <m_score__min__energy>  (13) 
-9.7699999999999996

>  <m_primary>  (13) 
energy

>  <rmsd>  (13) 
8.198587991190022

>  <m_score__min__rmsd>  (13) 
8.198587991190022

>  <meeko>  (13) 
{"free_energy": -6.47, "intermolecular_energy": -8.26, "internal_energy": -4.46, "cluster_size": 3, "cluster_id": 5, "rank_in_cluster": 3}

>  <energy>  (13) 
-6.72

>  <cluster_rmsd>  (13) 
1.82

>  <cluster>  (13) 
5

$$$$

     RDKit          3D

 54 58  0  0  0  0  0  0  0  0999 V2000
  138.9180   71.9030  220.8040 O   0  0  0  0  0  0  0  0  0  0  0  0
  139.1900   72.3520  221.9650 C   0  0  0  0  0  0  0  0  0  0  0  0
  139.2560   73.7510  222.1940 N   0  0  0  0  0  0  0  0  0  0  0  0
  139.0170   74.7130  221.1210 C   0  0  0  0  0  0  0  0  0  0  0  0
  138.9760   76.0850  221.6850 C   0  0  0  0  0  0  0  0  0  0  0  0
  137.9440   76.5740  222.2120 O   0  0  0  0  0  0  0  0  0  0  0  0
  140.1350   76.9030  221.6440 N   0  0  0  0  0  0  0  0  0  0  0  0
  141.0730   77.1300  222.7530 C   0  0  0  0  0  0  0  0  0  0  0  0
  141.2360   78.6300  222.6850 C   0  0  0  0  0  0  0  0  0  0  0  0
  141.2120   78.9360  221.2370 C   0  0  0  0  0  0  0  0  0  0  0  0
  140.6820   77.6970  220.5620 C   0  0  1  0  0  0  0  0  0  0  0  0
  141.8260   76.9770  219.8990 C   0  0  0  0  0  0  0  0  0  0  0  0
  142.5680   76.0690  220.1230 N   0  0  0  0  0  0  0  0  0  0  0  0
  143.5210   75.5880  219.3780 C   0  0  0  0  0  0  0  0  0  0  0  0
  144.3860   74.4660  219.7310 C   0  0  0  0  0  0  0  0  0  0  0  0
  144.4310   73.3120  218.9780 C   0  0  0  0  0  0  0  0  0  0  0  0
  145.2560   72.2580  219.3240 C   0  0  0  0  0  0  0  0  0  0  0  0
  146.0660   72.3310  220.4450 C   0  0  0  0  0  0  0  0  0  0  0  0
  146.0350   73.4740  221.2070 C   0  0  0  0  0  0  0  0  0  0  0  0
  145.2070   74.5090  220.8430 C   0  0  0  0  0  0  0  0  0  0  0  0
  143.6660   76.2540  218.1540 C   0  0  0  0  0  0  0  0  0  0  0  0
  142.3580   77.5740  218.1840 S   0  0  0  0  0  0  0  0  0  0  0  0
  139.4380   71.4140  223.0770 C   0  0  0  0  0  0  0  0  0  0  0  0
  139.0750   70.0920  222.9270 C   0  0  0  0  0  0  0  0  0  0  0  0
  139.3180   69.2200  223.9900 C   0  0  0  0  0  0  0  0  0  0  0  0
  139.9050   69.6700  225.1550 C   0  0  0  0  0  0  0  0  0  0  0  0
  140.1540   68.8330  226.2150 C   0  0  0  0  0  0  0  0  0  0  0  0
  140.7400   69.3600  227.3340 C   0  0  0  0  0  0  0  0  0  0  0  0
  141.0830   68.3410  228.7170 Cl  0  0  0  0  0  0  0  0  0  0  0  0
  141.0940   70.6990  227.4490 C   0  0  0  0  0  0  0  0  0  0  0  0
  140.8330   71.5190  226.3720 C   0  0  0  0  0  0  0  0  0  0  0  0
  140.2390   71.0130  225.2220 C   0  0  0  0  0  0  0  0  0  0  0  0
  140.0120   71.8670  224.2070 N   0  0  0  0  0  0  0  0  0  0  0  0
  139.4850   74.0470  223.1740 H   0  0  0  0  0  0  0  0  0  0  0  0
  139.8278   74.6452  220.3808 H   0  0  0  0  0  0  0  0  0  0  0  0
  138.0562   74.4881  220.6350 H   0  0  0  0  0  0  0  0  0  0  0  0
  140.6457   76.8127  223.7157 H   0  0  0  0  0  0  0  0  0  0  0  0
  142.0143   76.5661  222.6754 H   0  0  0  0  0  0  0  0  0  0  0  0
  140.4082   79.1357  223.2038 H   0  0  0  0  0  0  0  0  0  0  0  0
  142.1603   78.9745  223.1718 H   0  0  0  0  0  0  0  0  0  0  0  0
  140.5513   79.7926  221.0378 H   0  0  0  0  0  0  0  0  0  0  0  0
  142.2118   79.2030  220.8639 H   0  0  0  0  0  0  0  0  0  0  0  0
  139.9287   77.9064  219.7882 H   0  0  0  0  0  0  0  0  0  0  0  0
  143.7971   73.2281  218.0830 H   0  0  0  0  0  0  0  0  0  0  0  0
  145.2692   71.3510  218.7018 H   0  0  0  0  0  0  0  0  0  0  0  0
  146.7209   71.4910  220.7198 H   0  0  0  0  0  0  0  0  0  0  0  0
  146.6685   73.5601  222.1022 H   0  0  0  0  0  0  0  0  0  0  0  0
  145.1969   75.4153  221.4663 H   0  0  0  0  0  0  0  0  0  0  0  0
  144.3914   76.0430  217.3545 H   0  0  0  0  0  0  0  0  0  0  0  0
  138.6078   69.7351  221.9973 H   0  0  0  0  0  0  0  0  0  0  0  0
  139.0378   68.1603  223.8976 H   0  0  0  0  0  0  0  0  0  0  0  0
  139.8893   67.7665  226.1659 H   0  0  0  0  0  0  0  0  0  0  0  0
  141.5641   71.0893  228.3637 H   0  0  0  0  0  0  0  0  0  0  0  0
  141.0978   72.5854  226.4234 H   0  0  0  0  0  0  0  0  0  0  0  0
  1  2  2  0
  2  3  1  0
  3  4  1  0
  4  5  1  0
  5  6  2  0
  5  7  1  0
  7  8  1  0
  8  9  1  0
  9 10  1  0
 10 11  1  0
 11 12  1  0
 12 13  2  0
 13 14  1  0
 14 15  1  0
 15 16  2  0
 16 17  1  0
 17 18  2  0
 18 19  1  0
 19 20  2  0
 14 21  2  0
 21 22  1  0
  2 23  1  0
 23 24  2  0
 24 25  1  0
 25 26  2  0
 26 27  1  0
 27 28  2  0
 28 29  1  0
 28 30  1  0
 30 31  2  0
 31 32  1  0
 32 33  2  0
 11  7  1  0
 22 12  1  0
 33 23  1  0
 20 15  1  0
 32 26  1  0
  3 34  1  0
  4 35  1  0
  4 36  1  0
  8 37  1  0
  8 38  1  0
  9 39  1  0
  9 40  1  0
 10 41  1  0
 10 42  1  0
 11 43  1  6
 16 44  1  0
 17 45  1  0
 18 46  1  0
 19 47  1  0
 20 48  1  0
 21 49  1  0
 24 50  1  0
 25 51  1  0
 27 52  1  0
 30 53  1  0
 31 54  1  0
M  END
>  <smiles>  (14) 
O=C(NCC(=O)N1CCC[C@H]1c1nc(-c2ccccc2)cs1)c1ccc2cc(Cl)ccc2n1

>  <score_type>  (14) 
oracle

>  <origin>  (14) 
autodockgpu

>  <m_score__min__energy>  (14) 
-9.7699999999999996

>  <m_primary>  (14) 
energy

>  <rmsd>  (14) 
5.387382371984802

>  <m_score__min__rmsd>  (14) 
5.387382371984802

>  <meeko>  (14) 
{"free_energy": -9.61, "intermolecular_energy": -11.4, "internal_energy": -1.95, "cluster_size": 5, "cluster_id": 1, "rank_in_cluster": 2}

>  <energy>  (14) 
-6.47

>  <cluster_rmsd>  (14) 
1.97

>  <cluster>  (14) 
5

$$$$

     RDKit          3D

 54 58  0  0  0  0  0  0  0  0999 V2000
  139.5880   75.0310  222.3450 O   0  0  0  0  0  0  0  0  0  0  0  0
  139.1210   76.1630  221.9950 C   0  0  0  0  0  0  0  0  0  0  0  0
  137.7980   76.5340  222.3500 N   0  0  0  0  0  0  0  0  0  0  0  0
  136.9350   75.6410  223.1190 C   0  0  0  0  0  0  0  0  0  0  0  0
  135.5240   76.0820  222.9900 C   0  0  0  0  0  0  0  0  0  0  0  0
  134.5920   75.2990  222.6750 O   0  0  0  0  0  0  0  0  0  0  0  0
  135.1820   77.4390  223.2280 N   0  0  0  0  0  0  0  0  0  0  0  0
  134.4090   77.9480  224.3700 C   0  0  0  0  0  0  0  0  0  0  0  0
  133.4410   78.8730  223.6690 C   0  0  0  0  0  0  0  0  0  0  0  0
  134.2370   79.4730  222.5740 C   0  0  0  0  0  0  0  0  0  0  0  0
  135.4780   78.6280  222.4550 C   0  0  1  0  0  0  0  0  0  0  0  0
  136.6370   79.3780  223.0570 C   0  0  0  0  0  0  0  0  0  0  0  0
  137.8270   79.4140  222.9720 N   0  0  0  0  0  0  0  0  0  0  0  0
  138.6710   80.1750  223.6070 C   0  0  0  0  0  0  0  0  0  0  0  0
  140.1210   80.1550  223.4400 C   0  0  0  0  0  0  0  0  0  0  0  0
  140.8180   81.2480  222.9710 C   0  0  0  0  0  0  0  0  0  0  0  0
  142.1920   81.2140  222.8180 C   0  0  0  0  0  0  0  0  0  0  0  0
  142.9120   80.0740  223.1330 C   0  0  0  0  0  0  0  0  0  0  0  0
  142.2330   78.9750  223.6030 C   0  0  0  0  0  0  0  0  0  0  0  0
  140.8670   79.0330  223.7470 C   0  0  0  0  0  0  0  0  0  0  0  0
  138.0600   81.0590  224.5080 C   0  0  0  0  0  0  0  0  0  0  0  0
  136.2440   80.7000  224.3530 S   0  0  0  0  0  0  0  0  0  0  0  0
  139.9600   77.0960  221.2160 C   0  0  0  0  0  0  0  0  0  0  0  0
  141.2400   76.7120  220.8730 C   0  0  0  0  0  0  0  0  0  0  0  0
  142.0180   77.6070  220.1360 C   0  0  0  0  0  0  0  0  0  0  0  0
  141.5190   78.8380  219.7640 C   0  0  0  0  0  0  0  0  0  0  0  0
  142.2630   79.7370  219.0390 C   0  0  0  0  0  0  0  0  0  0  0  0
  141.6920   80.9370  218.7110 C   0  0  0  0  0  0  0  0  0  0  0  0
  142.5930   82.1220  217.7880 Cl  0  0  0  0  0  0  0  0  0  0  0  0
  140.3980   81.2890  219.0740 C   0  0  0  0  0  0  0  0  0  0  0  0
  139.6710   80.3710  219.8010 C   0  0  0  0  0  0  0  0  0  0  0  0
  140.2240   79.1440  220.1500 C   0  0  0  0  0  0  0  0  0  0  0  0
  139.4590   78.2930  220.8590 N   0  0  0  0  0  0  0  0  0  0  0  0
  137.4820   77.4800  222.0270 H   0  0  0  0  0  0  0  0  0  0  0  0
  137.0347   74.6149  222.7353 H   0  0  0  0  0  0  0  0  0  0  0  0
  137.2315   75.6677  224.1780 H   0  0  0  0  0  0  0  0  0  0  0  0
  133.8844   77.1374  224.8970 H   0  0  0  0  0  0  0  0  0  0  0  0
  135.0152   78.4309  225.1506 H   0  0  0  0  0  0  0  0  0  0  0  0
  132.5862   78.3100  223.2662 H   0  0  0  0  0  0  0  0  0  0  0  0
  133.0184   79.6305  224.3455 H   0  0  0  0  0  0  0  0  0  0  0  0
  133.6687   79.4529  221.6324 H   0  0  0  0  0  0  0  0  0  0  0  0
  134.4829   80.5246  222.7828 H   0  0  0  0  0  0  0  0  0  0  0  0
  135.7436   78.3834  221.4160 H   0  0  0  0  0  0  0  0  0  0  0  0
  140.2699   82.1662  222.7131 H   0  0  0  0  0  0  0  0  0  0  0  0
  142.7191   82.1031  222.4416 H   0  0  0  0  0  0  0  0  0  0  0  0
  144.0048   80.0483  223.0097 H   0  0  0  0  0  0  0  0  0  0  0  0
  142.7788   78.0557  223.8620 H   0  0  0  0  0  0  0  0  0  0  0  0
  140.3424   78.1431  224.1249 H   0  0  0  0  0  0  0  0  0  0  0  0
  138.5469   81.7990  225.1602 H   0  0  0  0  0  0  0  0  0  0  0  0
  141.6358   75.7300  221.1713 H   0  0  0  0  0  0  0  0  0  0  0  0
  143.0421   77.3268  219.8483 H   0  0  0  0  0  0  0  0  0  0  0  0
  143.2914   79.4985  218.7300 H   0  0  0  0  0  0  0  0  0  0  0  0
  139.9703   82.2625  218.7922 H   0  0  0  0  0  0  0  0  0  0  0  0
  138.6426   80.6116  220.1083 H   0  0  0  0  0  0  0  0  0  0  0  0
  1  2  2  0
  2  3  1  0
  3  4  1  0
  4  5  1  0
  5  6  2  0
  5  7  1  0
  7  8  1  0
  8  9  1  0
  9 10  1  0
 10 11  1  0
 11 12  1  0
 12 13  2  0
 13 14  1  0
 14 15  1  0
 15 16  2  0
 16 17  1  0
 17 18  2  0
 18 19  1  0
 19 20  2  0
 14 21  2  0
 21 22  1  0
  2 23  1  0
 23 24  2  0
 24 25  1  0
 25 26  2  0
 26 27  1  0
 27 28  2  0
 28 29  1  0
 28 30  1  0
 30 31  2  0
 31 32  1  0
 32 33  2  0
 11  7  1  0
 22 12  1  0
 33 23  1  0
 20 15  1  0
 32 26  1  0
  3 34  1  0
  4 35  1  0
  4 36  1  0
  8 37  1  0
  8 38  1  0
  9 39  1  0
  9 40  1  0
 10 41  1  0
 10 42  1  0
 11 43  1  6
 16 44  1  0
 17 45  1  0
 18 46  1  0
 19 47  1  0
 20 48  1  0
 21 49  1  0
 24 50  1  0
 25 51  1  0
 27 52  1  0
 30 53  1  0
 31 54  1  0
M  END
>  <smiles>  (15) 
O=C(NCC(=O)N1CCC[C@H]1c1nc(-c2ccccc2)cs1)c1ccc2cc(Cl)ccc2n1

>  <score_type>  (15) 
oracle

>  <origin>  (15) 
autodockgpu

>  <m_score__min__energy>  (15) 
-9.7699999999999996

>  <m_primary>  (15) 
energy

>  <rmsd>  (15) 
8.072569523117478

>  <m_score__min__rmsd>  (15) 
8.072569523117478

>  <meeko>  (15) 
{"free_energy": -6.57, "intermolecular_energy": -8.36, "internal_energy": -4.59, "cluster_size": 7, "cluster_id": 10, "rank_in_cluster": 4}

>  <energy>  (15) 
-7.17

>  <cluster_rmsd>  (15) 
0.0

>  <cluster>  (15) 
6

$$$$

     RDKit          3D

 54 58  0  0  0  0  0  0  0  0999 V2000
  140.0370   74.2090  221.9580 O   0  0  0  0  0  0  0  0  0  0  0  0
  140.3460   75.4360  221.8180 C   0  0  0  0  0  0  0  0  0  0  0  0
  141.6020   75.8010  221.2690 N   0  0  0  0  0  0  0  0  0  0  0  0
  142.5750   74.7930  220.8510 C   0  0  0  0  0  0  0  0  0  0  0  0
  142.2750   74.3600  219.4640 C   0  0  0  0  0  0  0  0  0  0  0  0
  142.3860   73.1660  219.0850 O   0  0  0  0  0  0  0  0  0  0  0  0
  141.8420   75.3100  218.5030 N   0  0  0  0  0  0  0  0  0  0  0  0
  140.5350   75.3240  217.8290 C   0  0  0  0  0  0  0  0  0  0  0  0
  140.9560   75.5610  216.3980 C   0  0  0  0  0  0  0  0  0  0  0  0
  142.1050   76.4890  216.5030 C   0  0  0  0  0  0  0  0  0  0  0  0
  142.5270   76.4600  217.9490 C   0  0  1  0  0  0  0  0  0  0  0  0
  142.0630   77.7280  218.6170 C   0  0  0  0  0  0  0  0  0  0  0  0
  142.1990   78.2980  219.6560 N   0  0  0  0  0  0  0  0  0  0  0  0
  141.6910   79.4340  220.0390 C   0  0  0  0  0  0  0  0  0  0  0  0
  141.9100   80.0650  221.3370 C   0  0  0  0  0  0  0  0  0  0  0  0
  141.5100   81.3580  221.5990 C   0  0  0  0  0  0  0  0  0  0  0  0
  141.7250   81.9430  222.8340 C   0  0  0  0  0  0  0  0  0  0  0  0
  142.3530   81.2420  223.8500 C   0  0  0  0  0  0  0  0  0  0  0  0
  142.7580   79.9510  223.6070 C   0  0  0  0  0  0  0  0  0  0  0  0
  142.5330   79.3920  222.3710 C   0  0  0  0  0  0  0  0  0  0  0  0
  140.8780   80.0400  219.0710 C   0  0  0  0  0  0  0  0  0  0  0  0
  140.9190   78.8670  217.6300 S   0  0  0  0  0  0  0  0  0  0  0  0
  139.3920   76.4860  222.2270 C   0  0  0  0  0  0  0  0  0  0  0  0
  138.0420   76.2680  222.0450 C   0  0  0  0  0  0  0  0  0  0  0  0
  137.1560   77.2720  222.4380 C   0  0  0  0  0  0  0  0  0  0  0  0
  137.6190   78.4470  222.9930 C   0  0  0  0  0  0  0  0  0  0  0  0
  136.7690   79.4510  223.3890 C   0  0  0  0  0  0  0  0  0  0  0  0
  137.3110   80.5840  223.9310 C   0  0  0  0  0  0  0  0  0  0  0  0
  136.2750   81.8970  224.4540 Cl  0  0  0  0  0  0  0  0  0  0  0  0
  138.6770   80.7700  224.1010 C   0  0  0  0  0  0  0  0  0  0  0  0
  139.5100   79.7480  223.6960 C   0  0  0  0  0  0  0  0  0  0  0  0
  138.9900   78.5850  223.1410 C   0  0  0  0  0  0  0  0  0  0  0  0
  139.8590   77.6270  222.7680 N   0  0  0  0  0  0  0  0  0  0  0  0
  141.7880   76.8300  221.1840 H   0  0  0  0  0  0  0  0  0  0  0  0
  143.5871   75.2221  220.8902 H   0  0  0  0  0  0  0  0  0  0  0  0
  142.5174   73.9263  221.5259 H   0  0  0  0  0  0  0  0  0  0  0  0
  140.0107   74.3637  217.9428 H   0  0  0  0  0  0  0  0  0  0  0  0
  139.8271   76.0675  218.2242 H   0  0  0  0  0  0  0  0  0  0  0  0
  141.2593   74.6179  215.9199 H   0  0  0  0  0  0  0  0  0  0  0  0
  140.1410   75.9696  215.7825 H   0  0  0  0  0  0  0  0  0  0  0  0
  142.9292   76.1525  215.8569 H   0  0  0  0  0  0  0  0  0  0  0  0
  141.8345   77.5055  216.1811 H   0  0  0  0  0  0  0  0  0  0  0  0
  143.6162   76.3911  218.0865 H   0  0  0  0  0  0  0  0  0  0  0  0
  141.0091   81.9369  220.8091 H   0  0  0  0  0  0  0  0  0  0  0  0
  141.3934   82.9768  223.0111 H   0  0  0  0  0  0  0  0  0  0  0  0
  142.5242   81.7087  224.8313 H   0  0  0  0  0  0  0  0  0  0  0  0
  143.2583   79.3695  224.3954 H   0  0  0  0  0  0  0  0  0  0  0  0
  142.8653   78.3580  222.1966 H   0  0  0  0  0  0  0  0  0  0  0  0
  140.3374   80.9950  219.1472 H   0  0  0  0  0  0  0  0  0  0  0  0
  137.6746   75.3301  221.6030 H   0  0  0  0  0  0  0  0  0  0  0  0
  136.0743   77.1245  222.3035 H   0  0  0  0  0  0  0  0  0  0  0  0
  135.6801   79.3464  223.2732 H   0  0  0  0  0  0  0  0  0  0  0  0
  139.0782   81.6950  224.5408 H   0  0  0  0  0  0  0  0  0  0  0  0
  140.5985   79.8548  223.8137 H   0  0  0  0  0  0  0  0  0  0  0  0
  1  2  2  0
  2  3  1  0
  3  4  1  0
  4  5  1  0
  5  6  2  0
  5  7  1  0
  7  8  1  0
  8  9  1  0
  9 10  1  0
 10 11  1  0
 11 12  1  0
 12 13  2  0
 13 14  1  0
 14 15  1  0
 15 16  2  0
 16 17  1  0
 17 18  2  0
 18 19  1  0
 19 20  2  0
 14 21  2  0
 21 22  1  0
  2 23  1  0
 23 24  2  0
 24 25  1  0
 25 26  2  0
 26 27  1  0
 27 28  2  0
 28 29  1  0
 28 30  1  0
 30 31  2  0
 31 32  1  0
 32 33  2  0
 11  7  1  0
 22 12  1  0
 33 23  1  0
 20 15  1  0
 32 26  1  0
  3 34  1  0
  4 35  1  0
  4 36  1  0
  8 37  1  0
  8 38  1  0
  9 39  1  0
  9 40  1  0
 10 41  1  0
 10 42  1  0
 11 43  1  6
 16 44  1  0
 17 45  1  0
 18 46  1  0
 19 47  1  0
 20 48  1  0
 21 49  1  0
 24 50  1  0
 25 51  1  0
 27 52  1  0
 30 53  1  0
 31 54  1  0
M  END
>  <smiles>  (16) 
O=C(NCC(=O)N1CCC[C@H]1c1nc(-c2ccccc2)cs1)c1ccc2cc(Cl)ccc2n1

>  <score_type>  (16) 
oracle

>  <origin>  (16) 
autodockgpu

>  <m_score__min__energy>  (16) 
-9.7699999999999996

>  <m_primary>  (16) 
energy

>  <rmsd>  (16) 
6.15988127961873

>  <m_score__min__rmsd>  (16) 
6.15988127961873

>  <meeko>  (16) 
{"free_energy": -7.05, "intermolecular_energy": -8.84, "internal_energy": -4.05, "cluster_size": 17, "cluster_id": 6, "rank_in_cluster": 8}

>  <energy>  (16) 
-7.12

>  <cluster_rmsd>  (16) 
0.14

>  <cluster>  (16) 
6

$$$$

     RDKit          3D

 54 58  0  0  0  0  0  0  0  0999 V2000
  140.0360   74.4180  221.9010 O   0  0  0  0  0  0  0  0  0  0  0  0
  140.5200   75.5430  221.5500 C   0  0  0  0  0  0  0  0  0  0  0  0
  141.8300   75.6210  221.0080 N   0  0  0  0  0  0  0  0  0  0  0  0
  142.6590   74.4300  220.8380 C   0  0  0  0  0  0  0  0  0  0  0  0
  142.6410   74.0130  219.4130 C   0  0  0  0  0  0  0  0  0  0  0  0
  142.8450   72.8270  219.0490 O   0  0  0  0  0  0  0  0  0  0  0  0
  142.3830   74.9710  218.3980 N   0  0  0  0  0  0  0  0  0  0  0  0
  141.2570   74.9470  217.4530 C   0  0  0  0  0  0  0  0  0  0  0  0
  141.9700   75.2440  216.1540 C   0  0  0  0  0  0  0  0  0  0  0  0
  143.0210   76.2170  216.5280 C   0  0  0  0  0  0  0  0  0  0  0  0
  143.1160   76.1660  218.0310 C   0  0  1  0  0  0  0  0  0  0  0  0
  142.4550   77.3920  218.6030 C   0  0  0  0  0  0  0  0  0  0  0  0
  142.4580   78.0260  219.6140 N   0  0  0  0  0  0  0  0  0  0  0  0
  141.7870   79.1020  219.9070 C   0  0  0  0  0  0  0  0  0  0  0  0
  141.8510   79.8200  221.1760 C   0  0  0  0  0  0  0  0  0  0  0  0
  142.4670   79.2870  222.2890 C   0  0  0  0  0  0  0  0  0  0  0  0
  142.5200   79.9790  223.4840 C   0  0  0  0  0  0  0  0  0  0  0  0
  141.9530   81.2370  223.6000 C   0  0  0  0  0  0  0  0  0  0  0  0
  141.3360   81.7860  222.5010 C   0  0  0  0  0  0  0  0  0  0  0  0
  141.2950   81.0780  221.3230 C   0  0  0  0  0  0  0  0  0  0  0  0
  140.9560   79.5450  218.8690 C   0  0  0  0  0  0  0  0  0  0  0  0
  141.2280   78.3180  217.5000 S   0  0  0  0  0  0  0  0  0  0  0  0
  139.7160   76.7710  221.7050 C   0  0  0  0  0  0  0  0  0  0  0  0
  138.8220   77.1110  220.7120 C   0  0  0  0  0  0  0  0  0  0  0  0
  138.0700   78.2760  220.8780 C   0  0  0  0  0  0  0  0  0  0  0  0
  138.2190   79.0610  222.0020 C   0  0  0  0  0  0  0  0  0  0  0  0
  137.4920   80.2110  222.1900 C   0  0  0  0  0  0  0  0  0  0  0  0
  137.7000   80.9320  223.3340 C   0  0  0  0  0  0  0  0  0  0  0  0
  136.8010   82.4070  223.6270 Cl  0  0  0  0  0  0  0  0  0  0  0  0
  138.6100   80.5570  224.3150 C   0  0  0  0  0  0  0  0  0  0  0  0
  139.3280   79.3990  224.1040 C   0  0  0  0  0  0  0  0  0  0  0  0
  139.1390   78.6460  222.9510 C   0  0  0  0  0  0  0  0  0  0  0  0
  139.8720   77.5260  222.8090 N   0  0  0  0  0  0  0  0  0  0  0  0
  142.1620   76.5800  220.7420 H   0  0  0  0  0  0  0  0  0  0  0  0
  143.6920   74.6562  221.1407 H   0  0  0  0  0  0  0  0  0  0  0  0
  142.2633   73.6159  221.4630 H   0  0  0  0  0  0  0  0  0  0  0  0
  140.7686   73.9616  217.4304 H   0  0  0  0  0  0  0  0  0  0  0  0
  140.4438   75.6467  217.6961 H   0  0  0  0  0  0  0  0  0  0  0  0
  142.4164   74.3294  215.7365 H   0  0  0  0  0  0  0  0  0  0  0  0
  141.2911   75.6347  215.3817 H   0  0  0  0  0  0  0  0  0  0  0  0
  143.9825   75.9348  216.0742 H   0  0  0  0  0  0  0  0  0  0  0  0
  142.7784   77.2295  216.1731 H   0  0  0  0  0  0  0  0  0  0  0  0
  144.1502   76.1419  218.4049 H   0  0  0  0  0  0  0  0  0  0  0  0
  142.9260   78.2895  222.2240 H   0  0  0  0  0  0  0  0  0  0  0  0
  143.0185   79.5252  224.3532 H   0  0  0  0  0  0  0  0  0  0  0  0
  141.9954   81.7859  224.5523 H   0  0  0  0  0  0  0  0  0  0  0  0
  140.8785   82.7844  222.5636 H   0  0  0  0  0  0  0  0  0  0  0  0
  140.7958   81.5342  220.4554 H   0  0  0  0  0  0  0  0  0  0  0  0
  140.2920   80.4219  218.8654 H   0  0  0  0  0  0  0  0  0  0  0  0
  138.7046   76.4836  219.8161 H   0  0  0  0  0  0  0  0  0  0  0  0
  137.3490   78.5715  220.1016 H   0  0  0  0  0  0  0  0  0  0  0  0
  136.7604   80.5442  221.4392 H   0  0  0  0  0  0  0  0  0  0  0  0
  138.7519   81.1601  225.2239 H   0  0  0  0  0  0  0  0  0  0  0  0
  140.0586   79.0673  224.8565 H   0  0  0  0  0  0  0  0  0  0  0  0
  1  2  2  0
  2  3  1  0
  3  4  1  0
  4  5  1  0
  5  6  2  0
  5  7  1  0
  7  8  1  0
  8  9  1  0
  9 10  1  0
 10 11  1  0
 11 12  1  0
 12 13  2  0
 13 14  1  0
 14 15  1  0
 15 16  2  0
 16 17  1  0
 17 18  2  0
 18 19  1  0
 19 20  2  0
 14 21  2  0
 21 22  1  0
  2 23  1  0
 23 24  2  0
 24 25  1  0
 25 26  2  0
 26 27  1  0
 27 28  2  0
 28 29  1  0
 28 30  1  0
 30 31  2  0
 31 32  1  0
 32 33  2  0
 11  7  1  0
 22 12  1  0
 33 23  1  0
 20 15  1  0
 32 26  1  0
  3 34  1  0
  4 35  1  0
  4 36  1  0
  8 37  1  0
  8 38  1  0
  9 39  1  0
  9 40  1  0
 10 41  1  0
 10 42  1  0
 11 43  1  6
 16 44  1  0
 17 45  1  0
 18 46  1  0
 19 47  1  0
 20 48  1  0
 21 49  1  0
 24 50  1  0
 25 51  1  0
 27 52  1  0
 30 53  1  0
 31 54  1  0
M  END
>  <smiles>  (17) 
O=C(NCC(=O)N1CCC[C@H]1c1nc(-c2ccccc2)cs1)c1ccc2cc(Cl)ccc2n1

>  <score_type>  (17) 
oracle

>  <origin>  (17) 
autodockgpu

>  <m_score__min__energy>  (17) 
-9.7699999999999996

>  <m_primary>  (17) 
energy

>  <rmsd>  (17) 
6.44644960575078

>  <m_score__min__rmsd>  (17) 
6.44644960575078

>  <meeko>  (17) 
{"free_energy": -6.55, "intermolecular_energy": -8.34, "internal_energy": -4.53, "cluster_size": 17, "cluster_id": 6, "rank_in_cluster": 16}

>  <energy>  (17) 
-7.1

>  <cluster_rmsd>  (17) 
0.38

>  <cluster>  (17) 
6

$$$$

     RDKit          3D

 54 58  0  0  0  0  0  0  0  0999 V2000
  140.4420   73.9760  221.9440 O   0  0  0  0  0  0  0  0  0  0  0  0
  140.7440   75.1920  221.7180 C   0  0  0  0  0  0  0  0  0  0  0  0
  142.0050   75.5260  221.1600 N   0  0  0  0  0  0  0  0  0  0  0  0
  142.9900   74.4980  220.8290 C   0  0  0  0  0  0  0  0  0  0  0  0
  143.1910   74.4590  219.3590 C   0  0  0  0  0  0  0  0  0  0  0  0
  144.0280   73.7000  218.8070 O   0  0  0  0  0  0  0  0  0  0  0  0
  142.4190   75.2990  218.5160 N   0  0  0  0  0  0  0  0  0  0  0  0
  141.0730   75.0070  218.0010 C   0  0  0  0  0  0  0  0  0  0  0  0
  141.2360   75.3860  216.5480 C   0  0  0  0  0  0  0  0  0  0  0  0
  142.1270   76.5680  216.5750 C   0  0  0  0  0  0  0  0  0  0  0  0
  142.7250   76.6010  217.9580 C   0  0  1  0  0  0  0  0  0  0  0  0
  142.0550   77.6910  218.7520 C   0  0  0  0  0  0  0  0  0  0  0  0
  142.2510   78.3360  219.7370 N   0  0  0  0  0  0  0  0  0  0  0  0
  141.5130   79.2700  220.2630 C   0  0  0  0  0  0  0  0  0  0  0  0
  141.8290   80.0160  221.4780 C   0  0  0  0  0  0  0  0  0  0  0  0
  141.3540   81.2910  221.6990 C   0  0  0  0  0  0  0  0  0  0  0  0
  141.6620   81.9840  222.8550 C   0  0  0  0  0  0  0  0  0  0  0  0
  142.4630   81.4140  223.8310 C   0  0  0  0  0  0  0  0  0  0  0  0
  142.9450   80.1430  223.6270 C   0  0  0  0  0  0  0  0  0  0  0  0
  142.6250   79.4740  222.4710 C   0  0  0  0  0  0  0  0  0  0  0  0
  140.3340   79.5240  219.5480 C   0  0  0  0  0  0  0  0  0  0  0  0
  140.3960   78.3420  218.1160 S   0  0  0  0  0  0  0  0  0  0  0  0
  139.7770   76.2620  222.0370 C   0  0  0  0  0  0  0  0  0  0  0  0
  138.4850   76.1520  221.5680 C   0  0  0  0  0  0  0  0  0  0  0  0
  137.5850   77.1730  221.8810 C   0  0  0  0  0  0  0  0  0  0  0  0
  137.9800   78.2580  222.6380 C   0  0  0  0  0  0  0  0  0  0  0  0
  137.1150   79.2750  222.9590 C   0  0  0  0  0  0  0  0  0  0  0  0
  137.5870   80.3140  223.7140 C   0  0  0  0  0  0  0  0  0  0  0  0
  136.5300   81.6390  224.1550 Cl  0  0  0  0  0  0  0  0  0  0  0  0
  138.8970   80.3900  224.1710 C   0  0  0  0  0  0  0  0  0  0  0  0
  139.7470   79.3570  223.8350 C   0  0  0  0  0  0  0  0  0  0  0  0
  139.2960   78.2880  223.0690 C   0  0  0  0  0  0  0  0  0  0  0  0
  140.1770   77.3130  222.7770 N   0  0  0  0  0  0  0  0  0  0  0  0
  142.1840   76.5470  221.0010 H   0  0  0  0  0  0  0  0  0  0  0  0
  143.9444   74.7322  221.3233 H   0  0  0  0  0  0  0  0  0  0  0  0
  142.6278   73.5187  221.1752 H   0  0  0  0  0  0  0  0  0  0  0  0
  140.8180   73.9431  218.1155 H   0  0  0  0  0  0  0  0  0  0  0  0
  140.2619   75.5375  218.5213 H   0  0  0  0  0  0  0  0  0  0  0  0
  141.6965   74.5640  215.9804 H   0  0  0  0  0  0  0  0  0  0  0  0
  140.2737   75.5967  216.0585 H   0  0  0  0  0  0  0  0  0  0  0  0
  142.9186   76.4681  215.8178 H   0  0  0  0  0  0  0  0  0  0  0  0
  141.5776   77.4939  216.3497 H   0  0  0  0  0  0  0  0  0  0  0  0
  143.8063   76.8028  217.9634 H   0  0  0  0  0  0  0  0  0  0  0  0
  140.7164   81.7672  220.9396 H   0  0  0  0  0  0  0  0  0  0  0  0
  141.2664   82.9999  223.0015 H   0  0  0  0  0  0  0  0  0  0  0  0
  142.7081   81.9669  224.7498 H   0  0  0  0  0  0  0  0  0  0  0  0
  143.5830   79.6647  224.3848 H   0  0  0  0  0  0  0  0  0  0  0  0
  143.0210   78.4578  222.3278 H   0  0  0  0  0  0  0  0  0  0  0  0
  139.5489   80.2580  219.7822 H   0  0  0  0  0  0  0  0  0  0  0  0
  138.1726   75.2863  220.9655 H   0  0  0  0  0  0  0  0  0  0  0  0
  136.5478   77.1120  221.5197 H   0  0  0  0  0  0  0  0  0  0  0  0
  136.0694   79.2550  222.6179 H   0  0  0  0  0  0  0  0  0  0  0  0
  139.2426   81.2405  224.7769 H   0  0  0  0  0  0  0  0  0  0  0  0
  140.7924   79.3792  224.1766 H   0  0  0  0  0  0  0  0  0  0  0  0
  1  2  2  0
  2  3  1  0
  3  4  1  0
  4  5  1  0
  5  6  2  0
  5  7  1  0
  7  8  1  0
  8  9  1  0
  9 10  1  0
 10 11  1  0
 11 12  1  0
 12 13  2  0
 13 14  1  0
 14 15  1  0
 15 16  2  0
 16 17  1  0
 17 18  2  0
 18 19  1  0
 19 20  2  0
 14 21  2  0
 21 22  1  0
  2 23  1  0
 23 24  2  0
 24 25  1  0
 25 26  2  0
 26 27  1  0
 27 28  2  0
 28 29  1  0
 28 30  1  0
 30 31  2  0
 31 32  1  0
 32 33  2  0
 11  7  1  0
 22 12  1  0
 33 23  1  0
 20 15  1  0
 32 26  1  0
  3 34  1  0
  4 35  1  0
  4 36  1  0
  8 37  1  0
  8 38  1  0
  9 39  1  0
  9 40  1  0
 10 41  1  0
 10 42  1  0
 11 43  1  6
 16 44  1  0
 17 45  1  0
 18 46  1  0
 19 47  1  0
 20 48  1  0
 21 49  1  0
 24 50  1  0
 25 51  1  0
 27 52  1  0
 30 53  1  0
 31 54  1  0
M  END
>  <smiles>  (18) 
O=C(NCC(=O)N1CCC[C@H]1c1nc(-c2ccccc2)cs1)c1ccc2cc(Cl)ccc2n1

>  <score_type>  (18) 
oracle

>  <origin>  (18) 
autodockgpu

>  <m_score__min__energy>  (18) 
-9.7699999999999996

>  <m_primary>  (18) 
energy

>  <rmsd>  (18) 
6.1032730599664715

>  <m_score__min__rmsd>  (18) 
6.1032730599664715

>  <meeko>  (18) 
{"free_energy": -7.1, "intermolecular_energy": -8.89, "internal_energy": -4.37, "cluster_size": 17, "cluster_id": 6, "rank_in_cluster": 3}

>  <energy>  (18) 
-7.07

>  <cluster_rmsd>  (18) 
0.2

>  <cluster>  (18) 
6

$$$$

     RDKit          3D

 54 58  0  0  0  0  0  0  0  0999 V2000
  143.3050   76.3850  217.9480 O   0  0  0  0  0  0  0  0  0  0  0  0
  142.8200   77.0610  218.9130 C   0  0  0  0  0  0  0  0  0  0  0  0
  142.6540   76.4680  220.1910 N   0  0  0  0  0  0  0  0  0  0  0  0
  143.0280   75.0780  220.4430 C   0  0  0  0  0  0  0  0  0  0  0  0
  141.8970   74.1870  220.0830 C   0  0  0  0  0  0  0  0  0  0  0  0
  141.9800   73.3100  219.1850 O   0  0  0  0  0  0  0  0  0  0  0  0
  140.6580   74.3060  220.7640 N   0  0  0  0  0  0  0  0  0  0  0  0
  140.2470   73.5410  221.9510 C   0  0  0  0  0  0  0  0  0  0  0  0
  138.8460   73.1340  221.5570 C   0  0  0  0  0  0  0  0  0  0  0  0
  138.3220   74.3020  220.8130 C   0  0  0  0  0  0  0  0  0  0  0  0
  139.5190   75.1600  220.4940 C   0  0  1  0  0  0  0  0  0  0  0  0
  139.5200   76.3540  221.4110 C   0  0  0  0  0  0  0  0  0  0  0  0
  140.2790   77.1910  221.7960 N   0  0  0  0  0  0  0  0  0  0  0  0
  140.0620   78.1770  222.6180 C   0  0  0  0  0  0  0  0  0  0  0  0
  141.0530   79.1630  223.0390 C   0  0  0  0  0  0  0  0  0  0  0  0
  140.7110   80.2760  223.7760 C   0  0  0  0  0  0  0  0  0  0  0  0
  141.6610   81.2010  224.1670 C   0  0  0  0  0  0  0  0  0  0  0  0
  142.9930   81.0360  223.8270 C   0  0  0  0  0  0  0  0  0  0  0  0
  143.3530   79.9310  223.0920 C   0  0  0  0  0  0  0  0  0  0  0  0
  142.3900   79.0260  222.7150 C   0  0  0  0  0  0  0  0  0  0  0  0
  138.7450   78.2290  223.0960 C   0  0  0  0  0  0  0  0  0  0  0  0
  137.8980   76.7890  222.2820 S   0  0  0  0  0  0  0  0  0  0  0  0
  142.4300   78.4690  218.7010 C   0  0  0  0  0  0  0  0  0  0  0  0
  142.5460   79.0100  217.4380 C   0  0  0  0  0  0  0  0  0  0  0  0
  142.1710   80.3420  217.2570 C   0  0  0  0  0  0  0  0  0  0  0  0
  141.6980   81.0940  218.3130 C   0  0  0  0  0  0  0  0  0  0  0  0
  141.3230   82.4060  218.1630 C   0  0  0  0  0  0  0  0  0  0  0  0
  140.8640   83.0800  219.2610 C   0  0  0  0  0  0  0  0  0  0  0  0
  140.3710   84.7560  219.1290 Cl  0  0  0  0  0  0  0  0  0  0  0  0
  140.7590   82.5020  220.5200 C   0  0  0  0  0  0  0  0  0  0  0  0
  141.1420   81.1830  220.6470 C   0  0  0  0  0  0  0  0  0  0  0  0
  141.6120   80.4730  219.5480 C   0  0  0  0  0  0  0  0  0  0  0  0
  141.9680   79.1890  219.7410 N   0  0  0  0  0  0  0  0  0  0  0  0
  142.2490   77.0850  220.9370 H   0  0  0  0  0  0  0  0  0  0  0  0
  143.9068   74.8188  219.8342 H   0  0  0  0  0  0  0  0  0  0  0  0
  143.2691   74.9512  221.5087 H   0  0  0  0  0  0  0  0  0  0  0  0
  140.8927   72.6650  222.1112 H   0  0  0  0  0  0  0  0  0  0  0  0
  140.3091   74.1002  222.8962 H   0  0  0  0  0  0  0  0  0  0  0  0
  138.8655   72.2403  220.9160 H   0  0  0  0  0  0  0  0  0  0  0  0
  138.2232   72.8750  222.4260 H   0  0  0  0  0  0  0  0  0  0  0  0
  137.8279   73.9749  219.8862 H   0  0  0  0  0  0  0  0  0  0  0  0
  137.5752   74.8541  221.4024 H   0  0  0  0  0  0  0  0  0  0  0  0
  139.5268   75.5354  219.4601 H   0  0  0  0  0  0  0  0  0  0  0  0
  139.6596   80.4318  224.0592 H   0  0  0  0  0  0  0  0  0  0  0  0
  141.3550   82.0786  224.7553 H   0  0  0  0  0  0  0  0  0  0  0  0
  143.7475   81.7735  224.1383 H   0  0  0  0  0  0  0  0  0  0  0  0
  144.4038   79.7727  222.8080 H   0  0  0  0  0  0  0  0  0  0  0  0
  142.6982   78.1493  222.1264 H   0  0  0  0  0  0  0  0  0  0  0  0
  138.3106   78.9583  223.7956 H   0  0  0  0  0  0  0  0  0  0  0  0
  142.9232   78.4091  216.5974 H   0  0  0  0  0  0  0  0  0  0  0  0
  142.2535   80.7984  216.2596 H   0  0  0  0  0  0  0  0  0  0  0  0
  141.3900   82.9029  217.1839 H   0  0  0  0  0  0  0  0  0  0  0  0
  140.3850   83.0740  221.3820 H   0  0  0  0  0  0  0  0  0  0  0  0
  141.0749   80.6882  221.6271 H   0  0  0  0  0  0  0  0  0  0  0  0
  1  2  2  0
  2  3  1  0
  3  4  1  0
  4  5  1  0
  5  6  2  0
  5  7  1  0
  7  8  1  0
  8  9  1  0
  9 10  1  0
 10 11  1  0
 11 12  1  0
 12 13  2  0
 13 14  1  0
 14 15  1  0
 15 16  2  0
 16 17  1  0
 17 18  2  0
 18 19  1  0
 19 20  2  0
 14 21  2  0
 21 22  1  0
  2 23  1  0
 23 24  2  0
 24 25  1  0
 25 26  2  0
 26 27  1  0
 27 28  2  0
 28 29  1  0
 28 30  1  0
 30 31  2  0
 31 32  1  0
 32 33  2  0
 11  7  1  0
 22 12  1  0
 33 23  1  0
 20 15  1  0
 32 26  1  0
  3 34  1  0
  4 35  1  0
  4 36  1  0
  8 37  1  0
  8 38  1  0
  9 39  1  0
  9 40  1  0
 10 41  1  0
 10 42  1  0
 11 43  1  6
 16 44  1  0
 17 45  1  0
 18 46  1  0
 19 47  1  0
 20 48  1  0
 21 49  1  0
 24 50  1  0
 25 51  1  0
 27 52  1  0
 30 53  1  0
 31 54  1  0
M  END
>  <smiles>  (19) 
O=C(NCC(=O)N1CCC[C@H]1c1nc(-c2ccccc2)cs1)c1ccc2cc(Cl)ccc2n1

>  <score_type>  (19) 
oracle

>  <origin>  (19) 
autodockgpu

>  <m_score__min__energy>  (19) 
-9.7699999999999996

>  <m_primary>  (19) 
energy

>  <rmsd>  (19) 
8.394748560189745

>  <m_score__min__rmsd>  (19) 
8.394748560189745

>  <meeko>  (19) 
{"free_energy": -6.9, "intermolecular_energy": -8.69, "internal_energy": -4.09, "cluster_size": 2, "cluster_id": 9, "rank_in_cluster": 1}

>  <energy>  (19) 
-7.06

>  <cluster_rmsd>  (19) 
0.64

>  <cluster>  (19) 
6

$$$$

     RDKit          3D

 54 58  0  0  0  0  0  0  0  0999 V2000
  139.6800   72.1260  220.8220 O   0  0  0  0  0  0  0  0  0  0  0  0
  139.6810   72.5130  222.0360 C   0  0  0  0  0  0  0  0  0  0  0  0
  139.5560   73.8910  222.3490 N   0  0  0  0  0  0  0  0  0  0  0  0
  139.4240   74.9030  221.3030 C   0  0  0  0  0  0  0  0  0  0  0  0
  138.9290   76.1700  221.8990 C   0  0  0  0  0  0  0  0  0  0  0  0
  137.8480   76.2440  222.5370 O   0  0  0  0  0  0  0  0  0  0  0  0
  139.6860   77.3610  221.7600 N   0  0  0  0  0  0  0  0  0  0  0  0
  139.9790   78.0580  220.4980 C   0  0  0  0  0  0  0  0  0  0  0  0
  141.4570   78.3280  220.6580 C   0  0  0  0  0  0  0  0  0  0  0  0
  141.6200   78.6290  222.0990 C   0  0  0  0  0  0  0  0  0  0  0  0
  140.3460   78.1740  222.7620 C   0  0  1  0  0  0  0  0  0  0  0  0
  139.5130   79.3830  223.0980 C   0  0  0  0  0  0  0  0  0  0  0  0
  138.6850   79.7120  223.8920 N   0  0  0  0  0  0  0  0  0  0  0  0
  138.0750   80.8560  224.0120 C   0  0  0  0  0  0  0  0  0  0  0  0
  137.0680   81.1770  225.0190 C   0  0  0  0  0  0  0  0  0  0  0  0
  137.3360   82.0150  226.0810 C   0  0  0  0  0  0  0  0  0  0  0  0
  136.3720   82.3090  227.0270 C   0  0  0  0  0  0  0  0  0  0  0  0
  135.1000   81.7680  226.9350 C   0  0  0  0  0  0  0  0  0  0  0  0
  134.8150   80.9310  225.8830 C   0  0  0  0  0  0  0  0  0  0  0  0
  135.7910   80.6530  224.9550 C   0  0  0  0  0  0  0  0  0  0  0  0
  138.4730   81.8060  223.0620 C   0  0  0  0  0  0  0  0  0  0  0  0
  139.7460   80.9280  222.0320 S   0  0  0  0  0  0  0  0  0  0  0  0
  139.8120   71.5220  223.1230 C   0  0  0  0  0  0  0  0  0  0  0  0
  139.4380   70.2170  222.8830 C   0  0  0  0  0  0  0  0  0  0  0  0
  139.5700   69.2950  223.9230 C   0  0  0  0  0  0  0  0  0  0  0  0
  140.0600   69.6810  225.1530 C   0  0  0  0  0  0  0  0  0  0  0  0
  140.2000   68.7940  226.1930 C   0  0  0  0  0  0  0  0  0  0  0  0
  140.6950   69.2600  227.3800 C   0  0  0  0  0  0  0  0  0  0  0  0
  140.8950   68.1740  228.7410 Cl  0  0  0  0  0  0  0  0  0  0  0  0
  141.0630   70.5830  227.5860 C   0  0  0  0  0  0  0  0  0  0  0  0
  140.9140   71.4550  226.5270 C   0  0  0  0  0  0  0  0  0  0  0  0
  140.4130   71.0120  225.3090 C   0  0  0  0  0  0  0  0  0  0  0  0
  140.2940   71.9140  224.3170 N   0  0  0  0  0  0  0  0  0  0  0  0
  139.5660   74.1350  223.3690 H   0  0  0  0  0  0  0  0  0  0  0  0
  140.4042   75.0764  220.8349 H   0  0  0  0  0  0  0  0  0  0  0  0
  138.7109   74.5528  220.5421 H   0  0  0  0  0  0  0  0  0  0  0  0
  139.7767   77.4184  219.6262 H   0  0  0  0  0  0  0  0  0  0  0  0
  139.3690   78.9564  220.3225 H   0  0  0  0  0  0  0  0  0  0  0  0
  142.0475   77.4440  220.3753 H   0  0  0  0  0  0  0  0  0  0  0  0
  141.8063   79.1493  220.0149 H   0  0  0  0  0  0  0  0  0  0  0  0
  142.4815   78.0817  222.5092 H   0  0  0  0  0  0  0  0  0  0  0  0
  141.8042   79.6999  222.2698 H   0  0  0  0  0  0  0  0  0  0  0  0
  140.5132   77.6156  223.6948 H   0  0  0  0  0  0  0  0  0  0  0  0
  138.3379   82.4587  226.1773 H   0  0  0  0  0  0  0  0  0  0  0  0
  136.6178   82.9805  227.8628 H   0  0  0  0  0  0  0  0  0  0  0  0
  134.3340   82.0035  227.6885 H   0  0  0  0  0  0  0  0  0  0  0  0
  133.8136   80.4867  225.7840 H   0  0  0  0  0  0  0  0  0  0  0  0
  135.5429   79.9804  224.1207 H   0  0  0  0  0  0  0  0  0  0  0  0
  138.1128   82.8394  222.9510 H   0  0  0  0  0  0  0  0  0  0  0  0
  139.0472   69.9113  221.9013 H   0  0  0  0  0  0  0  0  0  0  0  0
  139.2794   68.2468  223.7592 H   0  0  0  0  0  0  0  0  0  0  0  0
  139.9212   67.7366  226.0741 H   0  0  0  0  0  0  0  0  0  0  0  0
  141.4577   70.9225  228.5550 H   0  0  0  0  0  0  0  0  0  0  0  0
  141.1947   72.5116  226.6482 H   0  0  0  0  0  0  0  0  0  0  0  0
  1  2  2  0
  2  3  1  0
  3  4  1  0
  4  5  1  0
  5  6  2  0
  5  7  1  0
  7  8  1  0
  8  9  1  0
  9 10  1  0
 10 11  1  0
 11 12  1  0
 12 13  2  0
 13 14  1  0
 14 15  1  0
 15 16  2  0
 16 17  1  0
 17 18  2  0
 18 19  1  0
 19 20  2  0
 14 21  2  0
 21 22  1  0
  2 23  1  0
 23 24  2  0
 24 25  1  0
 25 26  2  0
 26 27  1  0
 27 28  2  0
 28 29  1  0
 28 30  1  0
 30 31  2  0
 31 32  1  0
 32 33  2  0
 11  7  1  0
 22 12  1  0
 33 23  1  0
 20 15  1  0
 32 26  1  0
  3 34  1  0
  4 35  1  0
  4 36  1  0
  8 37  1  0
  8 38  1  0
  9 39  1  0
  9 40  1  0
 10 41  1  0
 10 42  1  0
 11 43  1  1
 16 44  1  0
 17 45  1  0
 18 46  1  0
 19 47  1  0
 20 48  1  0
 21 49  1  0
 24 50  1  0
 25 51  1  0
 27 52  1  0
 30 53  1  0
 31 54  1  0
M  END
>  <smiles>  (20) 
O=C(NCC(=O)N1CCC[C@H]1c1nc(-c2ccccc2)cs1)c1ccc2cc(Cl)ccc2n1

>  <score_type>  (20) 
oracle

>  <origin>  (20) 
autodockgpu

>  <m_score__min__energy>  (20) 
-9.7699999999999996

>  <m_primary>  (20) 
energy

>  <rmsd>  (20) 
3.8681777032416216

>  <m_score__min__rmsd>  (20) 
3.8681777032416216

>  <meeko>  (20) 
{"free_energy": -9.17, "intermolecular_energy": -10.96, "internal_energy": -1.71, "cluster_size": 2, "cluster_id": 3, "rank_in_cluster": 1}

>  <energy>  (20) 
-7.06

>  <cluster_rmsd>  (20) 
0.59

>  <cluster>  (20) 
6

$$$$

     RDKit          3D

 54 58  0  0  0  0  0  0  0  0999 V2000
  139.6700   75.0400  222.3220 O   0  0  0  0  0  0  0  0  0  0  0  0
  139.2090   76.1720  221.9630 C   0  0  0  0  0  0  0  0  0  0  0  0
  137.8890   76.5530  222.3180 N   0  0  0  0  0  0  0  0  0  0  0  0
  137.0220   75.6710  223.0960 C   0  0  0  0  0  0  0  0  0  0  0  0
  135.6090   76.0950  222.9320 C   0  0  0  0  0  0  0  0  0  0  0  0
  134.7040   75.3120  222.5430 O   0  0  0  0  0  0  0  0  0  0  0  0
  135.2320   77.4320  223.2210 N   0  0  0  0  0  0  0  0  0  0  0  0
  134.4920   77.8860  224.4070 C   0  0  0  0  0  0  0  0  0  0  0  0
  133.4660   78.7940  223.7730 C   0  0  0  0  0  0  0  0  0  0  0  0
  134.1940   79.4490  222.6620 C   0  0  0  0  0  0  0  0  0  0  0  0
  135.4570   78.6500  222.4690 C   0  0  1  0  0  0  0  0  0  0  0  0
  136.6140   79.4240  223.0420 C   0  0  0  0  0  0  0  0  0  0  0  0
  137.8060   79.4350  222.9820 N   0  0  0  0  0  0  0  0  0  0  0  0
  138.6490   80.2270  223.5800 C   0  0  0  0  0  0  0  0  0  0  0  0
  140.1020   80.1720  223.4490 C   0  0  0  0  0  0  0  0  0  0  0  0
  140.8370   81.2510  223.0060 C   0  0  0  0  0  0  0  0  0  0  0  0
  142.2130   81.1850  222.8860 C   0  0  0  0  0  0  0  0  0  0  0  0
  142.8970   80.0250  223.2100 C   0  0  0  0  0  0  0  0  0  0  0  0
  142.1800   78.9390  223.6540 C   0  0  0  0  0  0  0  0  0  0  0  0
  140.8130   79.0300  223.7650 C   0  0  0  0  0  0  0  0  0  0  0  0
  138.0340   81.1830  224.4010 C   0  0  0  0  0  0  0  0  0  0  0  0
  136.2150   80.8420  224.2300 S   0  0  0  0  0  0  0  0  0  0  0  0
  140.0520   77.0940  221.1760 C   0  0  0  0  0  0  0  0  0  0  0  0
  141.3190   76.6880  220.8090 C   0  0  0  0  0  0  0  0  0  0  0  0
  142.1010   77.5730  220.0640 C   0  0  0  0  0  0  0  0  0  0  0  0
  141.6180   78.8160  219.7070 C   0  0  0  0  0  0  0  0  0  0  0  0
  142.3660   79.7050  218.9750 C   0  0  0  0  0  0  0  0  0  0  0  0
  141.8120   80.9160  218.6620 C   0  0  0  0  0  0  0  0  0  0  0  0
  142.7200   82.0900  217.7310 Cl  0  0  0  0  0  0  0  0  0  0  0  0
  140.5310   81.2900  219.0480 C   0  0  0  0  0  0  0  0  0  0  0  0
  139.7990   80.3810  219.7830 C   0  0  0  0  0  0  0  0  0  0  0  0
  140.3350   79.1420  220.1160 C   0  0  0  0  0  0  0  0  0  0  0  0
  139.5670   78.3020  220.8340 N   0  0  0  0  0  0  0  0  0  0  0  0
  137.5780   77.4990  221.9880 H   0  0  0  0  0  0  0  0  0  0  0  0
  137.1379   74.6364  222.7407 H   0  0  0  0  0  0  0  0  0  0  0  0
  137.3006   75.7274  224.1586 H   0  0  0  0  0  0  0  0  0  0  0  0
  134.0173   77.0451  224.9339 H   0  0  0  0  0  0  0  0  0  0  0  0
  135.1150   78.3697  225.1737 H   0  0  0  0  0  0  0  0  0  0  0  0
  132.6139   78.2125  223.3913 H   0  0  0  0  0  0  0  0  0  0  0  0
  133.0480   79.5190  224.4869 H   0  0  0  0  0  0  0  0  0  0  0  0
  133.5871   79.4331  221.7447 H   0  0  0  0  0  0  0  0  0  0  0  0
  134.4131   80.5030  222.8882 H   0  0  0  0  0  0  0  0  0  0  0  0
  135.6878   78.4408  221.4140 H   0  0  0  0  0  0  0  0  0  0  0  0
  140.3178   82.1842  222.7424 H   0  0  0  0  0  0  0  0  0  0  0  0
  142.7706   82.0635  222.5293 H   0  0  0  0  0  0  0  0  0  0  0  0
  143.9916   79.9736  223.1141 H   0  0  0  0  0  0  0  0  0  0  0  0
  142.6965   78.0045  223.9184 H   0  0  0  0  0  0  0  0  0  0  0  0
  140.2577   78.1505  224.1230 H   0  0  0  0  0  0  0  0  0  0  0  0
  138.5192   81.9603  225.0096 H   0  0  0  0  0  0  0  0  0  0  0  0
  141.7013   75.6970  221.0948 H   0  0  0  0  0  0  0  0  0  0  0  0
  143.1149   77.2759  219.7576 H   0  0  0  0  0  0  0  0  0  0  0  0
  143.3850   79.4498  218.6486 H   0  0  0  0  0  0  0  0  0  0  0  0
  140.1167   82.2726  218.7781 H   0  0  0  0  0  0  0  0  0  0  0  0
  138.7806   80.6389  220.1091 H   0  0  0  0  0  0  0  0  0  0  0  0
  1  2  2  0
  2  3  1  0
  3  4  1  0
  4  5  1  0
  5  6  2  0
  5  7  1  0
  7  8  1  0
  8  9  1  0
  9 10  1  0
 10 11  1  0
 11 12  1  0
 12 13  2  0
 13 14  1  0
 14 15  1  0
 15 16  2  0
 16 17  1  0
 17 18  2  0
 18 19  1  0
 19 20  2  0
 14 21  2  0
 21 22  1  0
  2 23  1  0
 23 24  2  0
 24 25  1  0
 25 26  2  0
 26 27  1  0
 27 28  2  0
 28 29  1  0
 28 30  1  0
 30 31  2  0
 31 32  1  0
 32 33  2  0
 11  7  1  0
 22 12  1  0
 33 23  1  0
 20 15  1  0
 32 26  1  0
  3 34  1  0
  4 35  1  0
  4 36  1  0
  8 37  1  0
  8 38  1  0
  9 39  1  0
  9 40  1  0
 10 41  1  0
 10 42  1  0
 11 43  1  6
 16 44  1  0
 17 45  1  0
 18 46  1  0
 19 47  1  0
 20 48  1  0
 21 49  1  0
 24 50  1  0
 25 51  1  0
 27 52  1  0
 30 53  1  0
 31 54  1  0
M  END
>  <smiles>  (21) 
O=C(NCC(=O)N1CCC[C@H]1c1nc(-c2ccccc2)cs1)c1ccc2cc(Cl)ccc2n1

>  <score_type>  (21) 
oracle

>  <origin>  (21) 
autodockgpu

>  <m_score__min__energy>  (21) 
-9.7699999999999996

>  <m_primary>  (21) 
energy

>  <rmsd>  (21) 
8.086718264443483

>  <m_score__min__rmsd>  (21) 
8.086718264443483

>  <meeko>  (21) 
{"free_energy": -6.51, "intermolecular_energy": -8.3, "internal_energy": -4.6, "cluster_size": 7, "cluster_id": 10, "rank_in_cluster": 6}

>  <energy>  (21) 
-7.06

>  <cluster_rmsd>  (21) 
0.39

>  <cluster>  (21) 
6

$$$$

     RDKit          3D

 54 58  0  0  0  0  0  0  0  0999 V2000
  140.0350   74.7200  222.0420 O   0  0  0  0  0  0  0  0  0  0  0  0
  140.5460   75.7990  221.6000 C   0  0  0  0  0  0  0  0  0  0  0  0
  141.8310   75.7890  220.9970 N   0  0  0  0  0  0  0  0  0  0  0  0
  142.6030   74.5560  220.8650 C   0  0  0  0  0  0  0  0  0  0  0  0
  143.0090   74.3750  219.4480 C   0  0  0  0  0  0  0  0  0  0  0  0
  143.7870   73.4600  219.0750 O   0  0  0  0  0  0  0  0  0  0  0  0
  142.5140   75.2550  218.4520 N   0  0  0  0  0  0  0  0  0  0  0  0
  141.2260   75.1330  217.7530 C   0  0  0  0  0  0  0  0  0  0  0  0
  141.6540   75.3670  216.3240 C   0  0  0  0  0  0  0  0  0  0  0  0
  142.7140   76.3960  216.4230 C   0  0  0  0  0  0  0  0  0  0  0  0
  143.1060   76.4460  217.8770 C   0  0  1  0  0  0  0  0  0  0  0  0
  142.5170   77.6850  218.4970 C   0  0  0  0  0  0  0  0  0  0  0  0
  142.5070   78.2460  219.5510 N   0  0  0  0  0  0  0  0  0  0  0  0
  141.9130   79.3560  219.8820 C   0  0  0  0  0  0  0  0  0  0  0  0
  141.9550   79.9770  221.2020 C   0  0  0  0  0  0  0  0  0  0  0  0
  142.5260   79.3490  222.2890 C   0  0  0  0  0  0  0  0  0  0  0  0
  142.5580   79.9500  223.5330 C   0  0  0  0  0  0  0  0  0  0  0  0
  142.0140   81.2090  223.7270 C   0  0  0  0  0  0  0  0  0  0  0  0
  141.4410   81.8510  222.6540 C   0  0  0  0  0  0  0  0  0  0  0  0
  141.4210   81.2330  221.4270 C   0  0  0  0  0  0  0  0  0  0  0  0
  141.1940   79.9430  218.8310 C   0  0  0  0  0  0  0  0  0  0  0  0
  141.4500   78.7920  217.3940 S   0  0  0  0  0  0  0  0  0  0  0  0
  139.8000   77.0680  221.7140 C   0  0  0  0  0  0  0  0  0  0  0  0
  139.0880   77.5230  220.6230 C   0  0  0  0  0  0  0  0  0  0  0  0
  138.3880   78.7240  220.7510 C   0  0  0  0  0  0  0  0  0  0  0  0
  138.4080   79.4330  221.9340 C   0  0  0  0  0  0  0  0  0  0  0  0
  137.7290   80.6160  222.0860 C   0  0  0  0  0  0  0  0  0  0  0  0
  137.8010   81.2560  223.2940 C   0  0  0  0  0  0  0  0  0  0  0  0
  136.9540   82.7690  223.5450 Cl  0  0  0  0  0  0  0  0  0  0  0  0
  138.5280   80.7670  224.3720 C   0  0  0  0  0  0  0  0  0  0  0  0
  139.2020   79.5770  224.1960 C   0  0  0  0  0  0  0  0  0  0  0  0
  139.1480   78.9040  222.9800 C   0  0  0  0  0  0  0  0  0  0  0  0
  139.8280   77.7480  222.8760 N   0  0  0  0  0  0  0  0  0  0  0  0
  142.1880   76.7150  220.6570 H   0  0  0  0  0  0  0  0  0  0  0  0
  143.5002   74.6156  221.4987 H   0  0  0  0  0  0  0  0  0  0  0  0
  141.9864   73.7018  221.1816 H   0  0  0  0  0  0  0  0  0  0  0  0
  140.7872   74.1330  217.8852 H   0  0  0  0  0  0  0  0  0  0  0  0
  140.4466   75.8209  218.1126 H   0  0  0  0  0  0  0  0  0  0  0  0
  142.0494   74.4419  215.8793 H   0  0  0  0  0  0  0  0  0  0  0  0
  140.8191   75.6844  215.6820 H   0  0  0  0  0  0  0  0  0  0  0  0
  143.5784   76.1159  215.8030 H   0  0  0  0  0  0  0  0  0  0  0  0
  142.3615   77.3748  216.0657 H   0  0  0  0  0  0  0  0  0  0  0  0
  144.1937   76.4790  218.0374 H   0  0  0  0  0  0  0  0  0  0  0  0
  142.9653   78.3484  222.1631 H   0  0  0  0  0  0  0  0  0  0  0  0
  143.0212   79.4220  224.3796 H   0  0  0  0  0  0  0  0  0  0  0  0
  142.0397   81.6853  224.7182 H   0  0  0  0  0  0  0  0  0  0  0  0
  141.0019   82.8520  222.7773 H   0  0  0  0  0  0  0  0  0  0  0  0
  140.9575   81.7632  220.5820 H   0  0  0  0  0  0  0  0  0  0  0  0
  140.6099   80.8749  218.8521 H   0  0  0  0  0  0  0  0  0  0  0  0
  139.0725   76.9562  219.6804 H   0  0  0  0  0  0  0  0  0  0  0  0
  137.8126   79.1102  219.8968 H   0  0  0  0  0  0  0  0  0  0  0  0
  137.1416   81.0393  221.2579 H   0  0  0  0  0  0  0  0  0  0  0  0
  138.5646   81.3082  225.3290 H   0  0  0  0  0  0  0  0  0  0  0  0
  139.7884   79.1556  225.0258 H   0  0  0  0  0  0  0  0  0  0  0  0
  1  2  2  0
  2  3  1  0
  3  4  1  0
  4  5  1  0
  5  6  2  0
  5  7  1  0
  7  8  1  0
  8  9  1  0
  9 10  1  0
 10 11  1  0
 11 12  1  0
 12 13  2  0
 13 14  1  0
 14 15  1  0
 15 16  2  0
 16 17  1  0
 17 18  2  0
 18 19  1  0
 19 20  2  0
 14 21  2  0
 21 22  1  0
  2 23  1  0
 23 24  2  0
 24 25  1  0
 25 26  2  0
 26 27  1  0
 27 28  2  0
 28 29  1  0
 28 30  1  0
 30 31  2  0
 31 32  1  0
 32 33  2  0
 11  7  1  0
 22 12  1  0
 33 23  1  0
 20 15  1  0
 32 26  1  0
  3 34  1  0
  4 35  1  0
  4 36  1  0
  8 37  1  0
  8 38  1  0
  9 39  1  0
  9 40  1  0
 10 41  1  0
 10 42  1  0
 11 43  1  6
 16 44  1  0
 17 45  1  0
 18 46  1  0
 19 47  1  0
 20 48  1  0
 21 49  1  0
 24 50  1  0
 25 51  1  0
 27 52  1  0
 30 53  1  0
 31 54  1  0
M  END
>  <smiles>  (22) 
O=C(NCC(=O)N1CCC[C@H]1c1nc(-c2ccccc2)cs1)c1ccc2cc(Cl)ccc2n1

>  <score_type>  (22) 
oracle

>  <origin>  (22) 
autodockgpu

>  <m_score__min__energy>  (22) 
-9.7699999999999996

>  <m_primary>  (22) 
energy

>  <rmsd>  (22) 
6.609804230682901

>  <m_score__min__rmsd>  (22) 
6.609804230682901

>  <meeko>  (22) 
{"free_energy": -6.53, "intermolecular_energy": -8.32, "internal_energy": -4.68, "cluster_size": 17, "cluster_id": 6, "rank_in_cluster": 17}

>  <energy>  (22) 
-7.05

>  <cluster_rmsd>  (22) 
0.42

>  <cluster>  (22) 
6

$$$$

     RDKit          3D

 54 58  0  0  0  0  0  0  0  0999 V2000
  140.2510   73.9420  221.8560 O   0  0  0  0  0  0  0  0  0  0  0  0
  140.5880   75.1600  221.6970 C   0  0  0  0  0  0  0  0  0  0  0  0
  141.8740   75.4870  221.1930 N   0  0  0  0  0  0  0  0  0  0  0  0
  142.8440   74.4520  220.8450 C   0  0  0  0  0  0  0  0  0  0  0  0
  142.7300   74.1320  219.4000 C   0  0  0  0  0  0  0  0  0  0  0  0
  143.0680   73.0190  218.9210 O   0  0  0  0  0  0  0  0  0  0  0  0
  142.2230   75.1020  218.4970 N   0  0  0  0  0  0  0  0  0  0  0  0
  140.9830   74.9900  217.7150 C   0  0  0  0  0  0  0  0  0  0  0  0
  141.4630   75.4390  216.3550 C   0  0  0  0  0  0  0  0  0  0  0  0
  142.4390   76.5130  216.6470 C   0  0  0  0  0  0  0  0  0  0  0  0
  142.7540   76.3950  218.1160 C   0  0  1  0  0  0  0  0  0  0  0  0
  142.0470   77.5000  218.8550 C   0  0  0  0  0  0  0  0  0  0  0  0
  142.2140   78.1920  219.8130 N   0  0  0  0  0  0  0  0  0  0  0  0
  141.4460   79.1280  220.2910 C   0  0  0  0  0  0  0  0  0  0  0  0
  141.7300   79.9330  221.4760 C   0  0  0  0  0  0  0  0  0  0  0  0
  142.5360   79.4750  222.4960 C   0  0  0  0  0  0  0  0  0  0  0  0
  142.7960   80.2480  223.6120 C   0  0  0  0  0  0  0  0  0  0  0  0
  142.2500   81.5150  223.7390 C   0  0  0  0  0  0  0  0  0  0  0  0
  141.4440   81.9890  222.7310 C   0  0  0  0  0  0  0  0  0  0  0  0
  141.2000   81.2010  221.6310 C   0  0  0  0  0  0  0  0  0  0  0  0
  140.2700   79.3200  219.5540 C   0  0  0  0  0  0  0  0  0  0  0  0
  140.3790   78.0790  218.1750 S   0  0  0  0  0  0  0  0  0  0  0  0
  139.6370   76.2370  222.0370 C   0  0  0  0  0  0  0  0  0  0  0  0
  138.3330   76.1360  221.5990 C   0  0  0  0  0  0  0  0  0  0  0  0
  137.4480   77.1640  221.9320 C   0  0  0  0  0  0  0  0  0  0  0  0
  137.8690   78.2470  222.6760 C   0  0  0  0  0  0  0  0  0  0  0  0
  137.0200   79.2720  223.0160 C   0  0  0  0  0  0  0  0  0  0  0  0
  137.5180   80.3080  223.7570 C   0  0  0  0  0  0  0  0  0  0  0  0
  136.4810   81.6420  224.2210 Cl  0  0  0  0  0  0  0  0  0  0  0  0
  138.8390   80.3760  224.1820 C   0  0  0  0  0  0  0  0  0  0  0  0
  139.6730   79.3360  223.8280 C   0  0  0  0  0  0  0  0  0  0  0  0
  139.1960   78.2690  223.0750 C   0  0  0  0  0  0  0  0  0  0  0  0
  140.0620   77.2870  222.7650 N   0  0  0  0  0  0  0  0  0  0  0  0
  142.0810   76.5100  221.0890 H   0  0  0  0  0  0  0  0  0  0  0  0
  143.8599   74.8141  221.0612 H   0  0  0  0  0  0  0  0  0  0  0  0
  142.6431   73.5473  221.4376 H   0  0  0  0  0  0  0  0  0  0  0  0
  140.6116   73.9549  217.6915 H   0  0  0  0  0  0  0  0  0  0  0  0
  140.1391   75.5716  218.1145 H   0  0  0  0  0  0  0  0  0  0  0  0
  141.9461   74.6089  215.8188 H   0  0  0  0  0  0  0  0  0  0  0  0
  140.6398   75.7832  215.7116 H   0  0  0  0  0  0  0  0  0  0  0  0
  143.3510   76.3749  216.0476 H   0  0  0  0  0  0  0  0  0  0  0  0
  142.0346   77.5054  216.3986 H   0  0  0  0  0  0  0  0  0  0  0  0
  143.8272   76.4774  218.3429 H   0  0  0  0  0  0  0  0  0  0  0  0
  142.9821   78.4724  222.4203 H   0  0  0  0  0  0  0  0  0  0  0  0
  143.4438   79.8527  224.4083 H   0  0  0  0  0  0  0  0  0  0  0  0
  142.4571   82.1290  224.6279 H   0  0  0  0  0  0  0  0  0  0  0  0
  140.9975   82.9916  222.8041 H   0  0  0  0  0  0  0  0  0  0  0  0
  140.5520   81.5983  220.8359 H   0  0  0  0  0  0  0  0  0  0  0  0
  139.4637   80.0427  219.7480 H   0  0  0  0  0  0  0  0  0  0  0  0
  138.0000   75.2719  221.0053 H   0  0  0  0  0  0  0  0  0  0  0  0
  136.4018   77.1095  221.5968 H   0  0  0  0  0  0  0  0  0  0  0  0
  135.9664   79.2598  222.7003 H   0  0  0  0  0  0  0  0  0  0  0  0
  139.2052   81.2255  224.7772 H   0  0  0  0  0  0  0  0  0  0  0  0
  140.7263   79.3509  224.1447 H   0  0  0  0  0  0  0  0  0  0  0  0
  1  2  2  0
  2  3  1  0
  3  4  1  0
  4  5  1  0
  5  6  2  0
  5  7  1  0
  7  8  1  0
  8  9  1  0
  9 10  1  0
 10 11  1  0
 11 12  1  0
 12 13  2  0
 13 14  1  0
 14 15  1  0
 15 16  2  0
 16 17  1  0
 17 18  2  0
 18 19  1  0
 19 20  2  0
 14 21  2  0
 21 22  1  0
  2 23  1  0
 23 24  2  0
 24 25  1  0
 25 26  2  0
 26 27  1  0
 27 28  2  0
 28 29  1  0
 28 30  1  0
 30 31  2  0
 31 32  1  0
 32 33  2  0
 11  7  1  0
 22 12  1  0
 33 23  1  0
 20 15  1  0
 32 26  1  0
  3 34  1  0
  4 35  1  0
  4 36  1  0
  8 37  1  0
  8 38  1  0
  9 39  1  0
  9 40  1  0
 10 41  1  0
 10 42  1  0
 11 43  1  6
 16 44  1  0
 17 45  1  0
 18 46  1  0
 19 47  1  0
 20 48  1  0
 21 49  1  0
 24 50  1  0
 25 51  1  0
 27 52  1  0
 30 53  1  0
 31 54  1  0
M  END
>  <smiles>  (23) 
O=C(NCC(=O)N1CCC[C@H]1c1nc(-c2ccccc2)cs1)c1ccc2cc(Cl)ccc2n1

>  <score_type>  (23) 
oracle

>  <origin>  (23) 
autodockgpu

>  <m_score__min__energy>  (23) 
-9.7699999999999996

>  <m_primary>  (23) 
energy

>  <rmsd>  (23) 
6.056560394232238

>  <m_score__min__rmsd>  (23) 
6.056560394232238

>  <meeko>  (23) 
{"free_energy": -7.07, "intermolecular_energy": -8.86, "internal_energy": -4.27, "cluster_size": 17, "cluster_id": 6, "rank_in_cluster": 4}

>  <energy>  (23) 
-7.05

>  <cluster_rmsd>  (23) 
0.21

>  <cluster>  (23) 
6

$$$$

     RDKit          3D

 54 58  0  0  0  0  0  0  0  0999 V2000
  141.6310   74.8070  220.7530 O   0  0  0  0  0  0  0  0  0  0  0  0
  140.9430   75.8800  220.7470 C   0  0  0  0  0  0  0  0  0  0  0  0
  139.7050   75.9410  221.4370 N   0  0  0  0  0  0  0  0  0  0  0  0
  139.1800   74.7900  222.1690 C   0  0  0  0  0  0  0  0  0  0  0  0
  137.7100   74.7080  221.9780 C   0  0  0  0  0  0  0  0  0  0  0  0
  137.1580   73.7740  221.3430 O   0  0  0  0  0  0  0  0  0  0  0  0
  136.8690   75.7110  222.5250 N   0  0  0  0  0  0  0  0  0  0  0  0
  136.2050   75.6630  223.8360 C   0  0  0  0  0  0  0  0  0  0  0  0
  134.8100   76.1080  223.4650 C   0  0  0  0  0  0  0  0  0  0  0  0
  135.0190   77.1350  222.4200 C   0  0  0  0  0  0  0  0  0  0  0  0
  136.4510   76.9850  221.9750 C   0  0  1  0  0  0  0  0  0  0  0  0
  137.2630   78.1090  222.5610 C   0  0  0  0  0  0  0  0  0  0  0  0
  138.4060   78.4400  222.6520 N   0  0  0  0  0  0  0  0  0  0  0  0
  138.9100   79.4980  223.2200 C   0  0  0  0  0  0  0  0  0  0  0  0
  140.3300   79.8300  223.2860 C   0  0  0  0  0  0  0  0  0  0  0  0
  141.3100   78.8630  223.2130 C   0  0  0  0  0  0  0  0  0  0  0  0
  142.6520   79.1920  223.2760 C   0  0  0  0  0  0  0  0  0  0  0  0
  143.0520   80.5100  223.4160 C   0  0  0  0  0  0  0  0  0  0  0  0
  142.0880   81.4870  223.4890 C   0  0  0  0  0  0  0  0  0  0  0  0
  140.7610   81.1360  223.4240 C   0  0  0  0  0  0  0  0  0  0  0  0
  137.9450   80.3400  223.7930 C   0  0  0  0  0  0  0  0  0  0  0  0
  136.3270   79.4950  223.4470 S   0  0  0  0  0  0  0  0  0  0  0  0
  141.4370   77.0660  220.0200 C   0  0  0  0  0  0  0  0  0  0  0  0
  142.4420   76.9060  219.0890 C   0  0  0  0  0  0  0  0  0  0  0  0
  142.8950   78.0390  218.4110 C   0  0  0  0  0  0  0  0  0  0  0  0
  142.3510   79.2810  218.6660 C   0  0  0  0  0  0  0  0  0  0  0  0
  142.7790   80.4110  218.0130 C   0  0  0  0  0  0  0  0  0  0  0  0
  142.1850   81.6040  218.3250 C   0  0  0  0  0  0  0  0  0  0  0  0
  142.6890   83.0790  217.5240 Cl  0  0  0  0  0  0  0  0  0  0  0  0
  141.1730   81.7280  219.2680 C   0  0  0  0  0  0  0  0  0  0  0  0
  140.7610   80.5790  219.9110 C   0  0  0  0  0  0  0  0  0  0  0  0
  141.3450   79.3530  219.6150 C   0  0  0  0  0  0  0  0  0  0  0  0
  140.8950   78.2710  220.2780 N   0  0  0  0  0  0  0  0  0  0  0  0
  139.1940   76.8560  221.3880 H   0  0  0  0  0  0  0  0  0  0  0  0
  139.6503   73.8701  221.7913 H   0  0  0  0  0  0  0  0  0  0  0  0
  139.4039   74.9045  223.2399 H   0  0  0  0  0  0  0  0  0  0  0  0
  136.2074   74.6454  224.2537 H   0  0  0  0  0  0  0  0  0  0  0  0
  136.6865   76.2757  224.6124 H   0  0  0  0  0  0  0  0  0  0  0  0
  134.2240   75.2647  223.0708 H   0  0  0  0  0  0  0  0  0  0  0  0
  134.2491   76.4953  224.3284 H   0  0  0  0  0  0  0  0  0  0  0  0
  134.3358   76.9655  221.5747 H   0  0  0  0  0  0  0  0  0  0  0  0
  134.8183   78.1469  222.8019 H   0  0  0  0  0  0  0  0  0  0  0  0
  136.5766   77.0188  220.8827 H   0  0  0  0  0  0  0  0  0  0  0  0
  141.0186   77.8081  223.1024 H   0  0  0  0  0  0  0  0  0  0  0  0
  143.4101   78.3974  223.2142 H   0  0  0  0  0  0  0  0  0  0  0  0
  144.1196   80.7700  223.4678 H   0  0  0  0  0  0  0  0  0  0  0  0
  142.3768   82.5427  223.5987 H   0  0  0  0  0  0  0  0  0  0  0  0
  140.0052   81.9329  223.4847 H   0  0  0  0  0  0  0  0  0  0  0  0
  138.1095   81.2875  224.3271 H   0  0  0  0  0  0  0  0  0  0  0  0
  142.8738   75.9147  218.8867 H   0  0  0  0  0  0  0  0  0  0  0  0
  143.6961   77.9403  217.6637 H   0  0  0  0  0  0  0  0  0  0  0  0
  143.5782   80.3586  217.2590 H   0  0  0  0  0  0  0  0  0  0  0  0
  140.7179   82.7038  219.4933 H   0  0  0  0  0  0  0  0  0  0  0  0
  139.9624   80.6337  220.6654 H   0  0  0  0  0  0  0  0  0  0  0  0
  1  2  2  0
  2  3  1  0
  3  4  1  0
  4  5  1  0
  5  6  2  0
  5  7  1  0
  7  8  1  0
  8  9  1  0
  9 10  1  0
 10 11  1  0
 11 12  1  0
 12 13  2  0
 13 14  1  0
 14 15  1  0
 15 16  2  0
 16 17  1  0
 17 18  2  0
 18 19  1  0
 19 20  2  0
 14 21  2  0
 21 22  1  0
  2 23  1  0
 23 24  2  0
 24 25  1  0
 25 26  2  0
 26 27  1  0
 27 28  2  0
 28 29  1  0
 28 30  1  0
 30 31  2  0
 31 32  1  0
 32 33  2  0
 11  7  1  0
 22 12  1  0
 33 23  1  0
 20 15  1  0
 32 26  1  0
  3 34  1  0
  4 35  1  0
  4 36  1  0
  8 37  1  0
  8 38  1  0
  9 39  1  0
  9 40  1  0
 10 41  1  0
 10 42  1  0
 11 43  1  6
 16 44  1  0
 17 45  1  0
 18 46  1  0
 19 47  1  0
 20 48  1  0
 21 49  1  0
 24 50  1  0
 25 51  1  0
 27 52  1  0
 30 53  1  0
 31 54  1  0
M  END
>  <smiles>  (24) 
O=C(NCC(=O)N1CCC[C@H]1c1nc(-c2ccccc2)cs1)c1ccc2cc(Cl)ccc2n1

>  <score_type>  (24) 
oracle

>  <origin>  (24) 
autodockgpu

>  <m_score__min__energy>  (24) 
-9.7699999999999996

>  <m_primary>  (24) 
energy

>  <rmsd>  (24) 
8.007095021635253

>  <m_score__min__rmsd>  (24) 
8.007095021635253

>  <meeko>  (24) 
{"free_energy": -6.7, "intermolecular_energy": -8.48, "internal_energy": -4.11, "cluster_size": 7, "cluster_id": 10, "rank_in_cluster": 2}

>  <energy>  (24) 
-7.03

>  <cluster_rmsd>  (24) 
0.28

>  <cluster>  (24) 
6

$$$$

     RDKit          3D

 54 58  0  0  0  0  0  0  0  0999 V2000
  140.0950   74.2290  221.9900 O   0  0  0  0  0  0  0  0  0  0  0  0
  140.3530   75.4670  221.8330 C   0  0  0  0  0  0  0  0  0  0  0  0
  141.5870   75.8750  221.2650 N   0  0  0  0  0  0  0  0  0  0  0  0
  142.5940   74.9020  220.8450 C   0  0  0  0  0  0  0  0  0  0  0  0
  142.4050   74.5820  219.4080 C   0  0  0  0  0  0  0  0  0  0  0  0
  142.7880   73.4980  218.8970 O   0  0  0  0  0  0  0  0  0  0  0  0
  141.7690   75.5170  218.5520 N   0  0  0  0  0  0  0  0  0  0  0  0
  140.3310   75.5730  218.2490 C   0  0  0  0  0  0  0  0  0  0  0  0
  140.3630   75.7370  216.7470 C   0  0  0  0  0  0  0  0  0  0  0  0
  141.5340   76.6080  216.4990 C   0  0  0  0  0  0  0  0  0  0  0  0
  142.3260   76.6110  217.7810 C   0  0  1  0  0  0  0  0  0  0  0  0
  142.1070   77.9230  218.4860 C   0  0  0  0  0  0  0  0  0  0  0  0
  142.1740   78.3750  219.5890 N   0  0  0  0  0  0  0  0  0  0  0  0
  141.9370   79.5890  219.9920 C   0  0  0  0  0  0  0  0  0  0  0  0
  142.0460   80.0600  221.3700 C   0  0  0  0  0  0  0  0  0  0  0  0
  142.4740   79.2390  222.3920 C   0  0  0  0  0  0  0  0  0  0  0  0
  142.5720   79.6990  223.6920 C   0  0  0  0  0  0  0  0  0  0  0  0
  142.2400   81.0060  224.0080 C   0  0  0  0  0  0  0  0  0  0  0  0
  141.8110   81.8390  223.0020 C   0  0  0  0  0  0  0  0  0  0  0  0
  141.7220   81.3590  221.7170 C   0  0  0  0  0  0  0  0  0  0  0  0
  141.5510   80.4580  218.9620 C   0  0  0  0  0  0  0  0  0  0  0  0
  141.5650   79.4000  217.4340 S   0  0  0  0  0  0  0  0  0  0  0  0
  139.3630   76.4820  222.2440 C   0  0  0  0  0  0  0  0  0  0  0  0
  138.0200   76.1880  222.1290 C   0  0  0  0  0  0  0  0  0  0  0  0
  137.0990   77.1610  222.5230 C   0  0  0  0  0  0  0  0  0  0  0  0
  137.5220   78.3790  223.0130 C   0  0  0  0  0  0  0  0  0  0  0  0
  136.6380   79.3530  223.4070 C   0  0  0  0  0  0  0  0  0  0  0  0
  137.1410   80.5340  223.8820 C   0  0  0  0  0  0  0  0  0  0  0  0
  136.0610   81.8120  224.3990 Cl  0  0  0  0  0  0  0  0  0  0  0  0
  138.5020   80.7950  223.9850 C   0  0  0  0  0  0  0  0  0  0  0  0
  139.3710   79.8020  223.5820 C   0  0  0  0  0  0  0  0  0  0  0  0
  138.8890   78.5920  223.0950 C   0  0  0  0  0  0  0  0  0  0  0  0
  139.7910   77.6660  222.7210 N   0  0  0  0  0  0  0  0  0  0  0  0
  141.7300   76.9090  221.1670 H   0  0  0  0  0  0  0  0  0  0  0  0
  143.5980   75.3247  220.9974 H   0  0  0  0  0  0  0  0  0  0  0  0
  142.4877   73.9841  221.4417 H   0  0  0  0  0  0  0  0  0  0  0  0
  139.8189   74.6452  218.5439 H   0  0  0  0  0  0  0  0  0  0  0  0
  139.7843   76.3651  218.7816 H   0  0  0  0  0  0  0  0  0  0  0  0
  140.4897   74.7632  216.2513 H   0  0  0  0  0  0  0  0  0  0  0  0
  139.4300   76.1643  216.3509 H   0  0  0  0  0  0  0  0  0  0  0  0
  142.1418   76.2064  215.6748 H   0  0  0  0  0  0  0  0  0  0  0  0
  141.2273   77.6245  216.2116 H   0  0  0  0  0  0  0  0  0  0  0  0
  143.4089   76.4931  217.6277 H   0  0  0  0  0  0  0  0  0  0  0  0
  142.7431   78.1962  222.1681 H   0  0  0  0  0  0  0  0  0  0  0  0
  142.9177   79.0191  224.4846 H   0  0  0  0  0  0  0  0  0  0  0  0
  142.3180   81.3702  225.0430 H   0  0  0  0  0  0  0  0  0  0  0  0
  141.5409   82.8820  223.2237 H   0  0  0  0  0  0  0  0  0  0  0  0
  141.3763   82.0412  220.9263 H   0  0  0  0  0  0  0  0  0  0  0  0
  141.2971   81.5254  219.0404 H   0  0  0  0  0  0  0  0  0  0  0  0
  137.6846   75.2159  221.7385 H   0  0  0  0  0  0  0  0  0  0  0  0
  136.0219   76.9533  222.4415 H   0  0  0  0  0  0  0  0  0  0  0  0
  135.5523   79.1882  223.3425 H   0  0  0  0  0  0  0  0  0  0  0  0
  138.8720   81.7556  224.3726 H   0  0  0  0  0  0  0  0  0  0  0  0
  140.4563   79.9692  223.6466 H   0  0  0  0  0  0  0  0  0  0  0  0
  1  2  2  0
  2  3  1  0
  3  4  1  0
  4  5  1  0
  5  6  2  0
  5  7  1  0
  7  8  1  0
  8  9  1  0
  9 10  1  0
 10 11  1  0
 11 12  1  0
 12 13  2  0
 13 14  1  0
 14 15  1  0
 15 16  2  0
 16 17  1  0
 17 18  2  0
 18 19  1  0
 19 20  2  0
 14 21  2  0
 21 22  1  0
  2 23  1  0
 23 24  2  0
 24 25  1  0
 25 26  2  0
 26 27  1  0
 27 28  2  0
 28 29  1  0
 28 30  1  0
 30 31  2  0
 31 32  1  0
 32 33  2  0
 11  7  1  0
 22 12  1  0
 33 23  1  0
 20 15  1  0
 32 26  1  0
  3 34  1  0
  4 35  1  0
  4 36  1  0
  8 37  1  0
  8 38  1  0
  9 39  1  0
  9 40  1  0
 10 41  1  0
 10 42  1  0
 11 43  1  6
 16 44  1  0
 17 45  1  0
 18 46  1  0
 19 47  1  0
 20 48  1  0
 21 49  1  0
 24 50  1  0
 25 51  1  0
 27 52  1  0
 30 53  1  0
 31 54  1  0
M  END
>  <smiles>  (25) 
O=C(NCC(=O)N1CCC[C@H]1c1nc(-c2ccccc2)cs1)c1ccc2cc(Cl)ccc2n1

>  <score_type>  (25) 
oracle

>  <origin>  (25) 
autodockgpu

>  <m_score__min__energy>  (25) 
-9.7699999999999996

>  <m_primary>  (25) 
energy

>  <rmsd>  (25) 
6.147407271408518

>  <m_score__min__rmsd>  (25) 
6.147407271408518

>  <meeko>  (25) 
{"free_energy": -7.02, "intermolecular_energy": -8.81, "internal_energy": -3.97, "cluster_size": 17, "cluster_id": 6, "rank_in_cluster": 11}

>  <energy>  (25) 
-7.02

>  <cluster_rmsd>  (25) 
0.66

>  <cluster>  (25) 
6

$$$$

     RDKit          3D

 54 58  0  0  0  0  0  0  0  0999 V2000
  140.3770   74.0180  221.9650 O   0  0  0  0  0  0  0  0  0  0  0  0
  140.6860   75.2270  221.7100 C   0  0  0  0  0  0  0  0  0  0  0  0
  141.9500   75.5400  221.1470 N   0  0  0  0  0  0  0  0  0  0  0  0
  142.9310   74.5000  220.8450 C   0  0  0  0  0  0  0  0  0  0  0  0
  142.9770   74.2720  219.3790 C   0  0  0  0  0  0  0  0  0  0  0  0
  143.5580   73.2830  218.8620 O   0  0  0  0  0  0  0  0  0  0  0  0
  142.3490   75.1910  218.4990 N   0  0  0  0  0  0  0  0  0  0  0  0
  141.0600   74.9950  217.8200 C   0  0  0  0  0  0  0  0  0  0  0  0
  141.4080   75.4340  216.4170 C   0  0  0  0  0  0  0  0  0  0  0  0
  142.3450   76.5640  216.6090 C   0  0  0  0  0  0  0  0  0  0  0  0
  142.7790   76.5010  218.0500 C   0  0  1  0  0  0  0  0  0  0  0  0
  142.0730   77.5850  218.8200 C   0  0  0  0  0  0  0  0  0  0  0  0
  142.2500   78.2640  219.7850 N   0  0  0  0  0  0  0  0  0  0  0  0
  141.4800   79.1840  220.2920 C   0  0  0  0  0  0  0  0  0  0  0  0
  141.7760   79.9740  221.4830 C   0  0  0  0  0  0  0  0  0  0  0  0
  141.2740   81.2460  221.6610 C   0  0  0  0  0  0  0  0  0  0  0  0
  141.5640   81.9820  222.7950 C   0  0  0  0  0  0  0  0  0  0  0  0
  142.3720   81.4600  223.7920 C   0  0  0  0  0  0  0  0  0  0  0  0
  142.8800   80.1930  223.6310 C   0  0  0  0  0  0  0  0  0  0  0  0
  142.5780   79.4810  222.4950 C   0  0  0  0  0  0  0  0  0  0  0  0
  140.2870   79.3720  219.5800 C   0  0  0  0  0  0  0  0  0  0  0  0
  140.3850   78.1540  218.1800 S   0  0  0  0  0  0  0  0  0  0  0  0
  139.7240   76.3090  221.9990 C   0  0  0  0  0  0  0  0  0  0  0  0
  138.4550   76.2340  221.4630 C   0  0  0  0  0  0  0  0  0  0  0  0
  137.5600   77.2660  221.7490 C   0  0  0  0  0  0  0  0  0  0  0  0
  137.9350   78.3290  222.5440 C   0  0  0  0  0  0  0  0  0  0  0  0
  137.0740   79.3570  222.8400 C   0  0  0  0  0  0  0  0  0  0  0  0
  137.5260   80.3730  223.6380 C   0  0  0  0  0  0  0  0  0  0  0  0
  136.4720   81.7110  224.0490 Cl  0  0  0  0  0  0  0  0  0  0  0  0
  138.8120   80.4150  224.1620 C   0  0  0  0  0  0  0  0  0  0  0  0
  139.6590   79.3720  223.8500 C   0  0  0  0  0  0  0  0  0  0  0  0
  139.2280   78.3260  223.0420 C   0  0  0  0  0  0  0  0  0  0  0  0
  140.1040   77.3390  222.7780 N   0  0  0  0  0  0  0  0  0  0  0  0
  142.1350   76.5560  220.9630 H   0  0  0  0  0  0  0  0  0  0  0  0
  143.9231   74.8186  221.1976 H   0  0  0  0  0  0  0  0  0  0  0  0
  142.6432   73.5670  221.3517 H   0  0  0  0  0  0  0  0  0  0  0  0
  140.7441   73.9417  217.8477 H   0  0  0  0  0  0  0  0  0  0  0  0
  140.2196   75.5418  218.2725 H   0  0  0  0  0  0  0  0  0  0  0  0
  141.8916   74.6168  215.8617 H   0  0  0  0  0  0  0  0  0  0  0  0
  140.5201   75.7188  215.8334 H   0  0  0  0  0  0  0  0  0  0  0  0
  143.2139   76.4578  215.9428 H   0  0  0  0  0  0  0  0  0  0  0  0
  141.8695   77.5273  216.3725 H   0  0  0  0  0  0  0  0  0  0  0  0
  143.8605   76.6463  218.1891 H   0  0  0  0  0  0  0  0  0  0  0  0
  140.6295   81.6842  220.8847 H   0  0  0  0  0  0  0  0  0  0  0  0
  141.1482   82.9942  222.9069 H   0  0  0  0  0  0  0  0  0  0  0  0
  142.6021   82.0470  224.6934 H   0  0  0  0  0  0  0  0  0  0  0  0
  143.5239   79.7519  224.4061 H   0  0  0  0  0  0  0  0  0  0  0  0
  142.9951   78.4690  222.3857 H   0  0  0  0  0  0  0  0  0  0  0  0
  139.4755   80.0811  219.8005 H   0  0  0  0  0  0  0  0  0  0  0  0
  138.1574   75.3858  220.8289 H   0  0  0  0  0  0  0  0  0  0  0  0
  136.5416   77.2312  221.3347 H   0  0  0  0  0  0  0  0  0  0  0  0
  136.0471   79.3638  222.4458 H   0  0  0  0  0  0  0  0  0  0  0  0
  139.1419   81.2475  224.8008 H   0  0  0  0  0  0  0  0  0  0  0  0
  140.6858   79.3678  224.2445 H   0  0  0  0  0  0  0  0  0  0  0  0
  1  2  2  0
  2  3  1  0
  3  4  1  0
  4  5  1  0
  5  6  2  0
  5  7  1  0
  7  8  1  0
  8  9  1  0
  9 10  1  0
 10 11  1  0
 11 12  1  0
 12 13  2  0
 13 14  1  0
 14 15  1  0
 15 16  2  0
 16 17  1  0
 17 18  2  0
 18 19  1  0
 19 20  2  0
 14 21  2  0
 21 22  1  0
  2 23  1  0
 23 24  2  0
 24 25  1  0
 25 26  2  0
 26 27  1  0
 27 28  2  0
 28 29  1  0
 28 30  1  0
 30 31  2  0
 31 32  1  0
 32 33  2  0
 11  7  1  0
 22 12  1  0
 33 23  1  0
 20 15  1  0
 32 26  1  0
  3 34  1  0
  4 35  1  0
  4 36  1  0
  8 37  1  0
  8 38  1  0
  9 39  1  0
  9 40  1  0
 10 41  1  0
 10 42  1  0
 11 43  1  6
 16 44  1  0
 17 45  1  0
 18 46  1  0
 19 47  1  0
 20 48  1  0
 21 49  1  0
 24 50  1  0
 25 51  1  0
 27 52  1  0
 30 53  1  0
 31 54  1  0
M  END
>  <smiles>  (26) 
O=C(NCC(=O)N1CCC[C@H]1c1nc(-c2ccccc2)cs1)c1ccc2cc(Cl)ccc2n1

>  <score_type>  (26) 
oracle

>  <origin>  (26) 
autodockgpu

>  <m_score__min__energy>  (26) 
-9.7699999999999996

>  <m_primary>  (26) 
energy

>  <rmsd>  (26) 
6.1304440570621805

>  <m_score__min__rmsd>  (26) 
6.1304440570621805

>  <meeko>  (26) 
{"free_energy": -7.03, "intermolecular_energy": -8.82, "internal_energy": -4.38, "cluster_size": 17, "cluster_id": 6, "rank_in_cluster": 10}

>  <energy>  (26) 
-6.96

>  <cluster_rmsd>  (26) 
0.43

>  <cluster>  (26) 
6

$$$$

     RDKit          3D

 54 58  0  0  0  0  0  0  0  0999 V2000
  140.8480   72.9360  221.2980 O   0  0  0  0  0  0  0  0  0  0  0  0
  139.9720   72.9290  222.2230 C   0  0  0  0  0  0  0  0  0  0  0  0
  138.9630   73.9250  222.2610 N   0  0  0  0  0  0  0  0  0  0  0  0
  138.8930   74.9810  221.2540 C   0  0  0  0  0  0  0  0  0  0  0  0
  138.9480   76.3060  221.9210 C   0  0  0  0  0  0  0  0  0  0  0  0
  138.0110   76.7480  222.6340 O   0  0  0  0  0  0  0  0  0  0  0  0
  140.0920   77.1300  221.7650 N   0  0  0  0  0  0  0  0  0  0  0  0
  141.0930   77.4240  222.8010 C   0  0  0  0  0  0  0  0  0  0  0  0
  141.2340   78.9200  222.6450 C   0  0  0  0  0  0  0  0  0  0  0  0
  141.1190   79.1470  221.1860 C   0  0  0  0  0  0  0  0  0  0  0  0
  140.5640   77.8700  220.6120 C   0  0  1  0  0  0  0  0  0  0  0  0
  141.6740   77.1240  219.9200 C   0  0  0  0  0  0  0  0  0  0  0  0
  142.3870   76.1870  220.1160 N   0  0  0  0  0  0  0  0  0  0  0  0
  143.3140   75.6890  219.3490 C   0  0  0  0  0  0  0  0  0  0  0  0
  144.1450   74.5320  219.6680 C   0  0  0  0  0  0  0  0  0  0  0  0
  144.1510   73.3970  218.8850 C   0  0  0  0  0  0  0  0  0  0  0  0
  144.9430   72.3090  219.1990 C   0  0  0  0  0  0  0  0  0  0  0  0
  145.7600   72.3270  220.3180 C   0  0  0  0  0  0  0  0  0  0  0  0
  145.7680   73.4510  221.1100 C   0  0  0  0  0  0  0  0  0  0  0  0
  144.9710   74.5200  220.7760 C   0  0  0  0  0  0  0  0  0  0  0  0
  143.4660   76.3740  218.1360 C   0  0  0  0  0  0  0  0  0  0  0  0
  142.2040   77.7370  218.2100 S   0  0  0  0  0  0  0  0  0  0  0  0
  140.0070   71.8790  223.2610 C   0  0  0  0  0  0  0  0  0  0  0  0
  139.5400   70.6190  222.9490 C   0  0  0  0  0  0  0  0  0  0  0  0
  139.5820   69.6390  223.9430 C   0  0  0  0  0  0  0  0  0  0  0  0
  140.0750   69.9260  225.1990 C   0  0  0  0  0  0  0  0  0  0  0  0
  140.1270   68.9810  226.1950 C   0  0  0  0  0  0  0  0  0  0  0  0
  140.6320   69.3480  227.4120 C   0  0  0  0  0  0  0  0  0  0  0  0
  140.7230   68.1850  228.7190 Cl  0  0  0  0  0  0  0  0  0  0  0  0
  141.0940   70.6290  227.6900 C   0  0  0  0  0  0  0  0  0  0  0  0
  141.0320   71.5600  226.6750 C   0  0  0  0  0  0  0  0  0  0  0  0
  140.5240   71.2170  225.4270 C   0  0  0  0  0  0  0  0  0  0  0  0
  140.4920   72.1730  224.4810 N   0  0  0  0  0  0  0  0  0  0  0  0
  138.2760   73.8560  223.0520 H   0  0  0  0  0  0  0  0  0  0  0  0
  139.7420   74.8838  220.5613 H   0  0  0  0  0  0  0  0  0  0  0  0
  137.9504   74.8915  220.6941 H   0  0  0  0  0  0  0  0  0  0  0  0
  140.7289   77.1544  223.8034 H   0  0  0  0  0  0  0  0  0  0  0  0
  142.0345   76.8651  222.6951 H   0  0  0  0  0  0  0  0  0  0  0  0
  140.4331   79.4456  223.1857 H   0  0  0  0  0  0  0  0  0  0  0  0
  142.1814   79.2985  223.0563 H   0  0  0  0  0  0  0  0  0  0  0  0
  140.4377   79.9861  220.9819 H   0  0  0  0  0  0  0  0  0  0  0  0
  142.0913   79.4016  220.7390 H   0  0  0  0  0  0  0  0  0  0  0  0
  139.7632   78.0324  219.8756 H   0  0  0  0  0  0  0  0  0  0  0  0
  143.5114   73.3568  217.9909 H   0  0  0  0  0  0  0  0  0  0  0  0
  144.9246   71.4186  218.5534 H   0  0  0  0  0  0  0  0  0  0  0  0
  146.3892   71.4600  220.5676 H   0  0  0  0  0  0  0  0  0  0  0  0
  146.4073   73.4944  222.0041 H   0  0  0  0  0  0  0  0  0  0  0  0
  144.9916   75.4097  221.4225 H   0  0  0  0  0  0  0  0  0  0  0  0
  144.1733   76.1545  217.3226 H   0  0  0  0  0  0  0  0  0  0  0  0
  139.1462   70.3930  221.9471 H   0  0  0  0  0  0  0  0  0  0  0  0
  139.2173   68.6251  223.7215 H   0  0  0  0  0  0  0  0  0  0  0  0
  139.7715   67.9552  226.0181 H   0  0  0  0  0  0  0  0  0  0  0  0
  141.4935   70.8899  228.6811 H   0  0  0  0  0  0  0  0  0  0  0  0
  141.3882   72.5851  226.8544 H   0  0  0  0  0  0  0  0  0  0  0  0
  1  2  2  0
  2  3  1  0
  3  4  1  0
  4  5  1  0
  5  6  2  0
  5  7  1  0
  7  8  1  0
  8  9  1  0
  9 10  1  0
 10 11  1  0
 11 12  1  0
 12 13  2  0
 13 14  1  0
 14 15  1  0
 15 16  2  0
 16 17  1  0
 17 18  2  0
 18 19  1  0
 19 20  2  0
 14 21  2  0
 21 22  1  0
  2 23  1  0
 23 24  2  0
 24 25  1  0
 25 26  2  0
 26 27  1  0
 27 28  2  0
 28 29  1  0
 28 30  1  0
 30 31  2  0
 31 32  1  0
 32 33  2  0
 11  7  1  0
 22 12  1  0
 33 23  1  0
 20 15  1  0
 32 26  1  0
  3 34  1  0
  4 35  1  0
  4 36  1  0
  8 37  1  0
  8 38  1  0
  9 39  1  0
  9 40  1  0
 10 41  1  0
 10 42  1  0
 11 43  1  6
 16 44  1  0
 17 45  1  0
 18 46  1  0
 19 47  1  0
 20 48  1  0
 21 49  1  0
 24 50  1  0
 25 51  1  0
 27 52  1  0
 30 53  1  0
 31 54  1  0
M  END
>  <smiles>  (27) 
O=C(NCC(=O)N1CCC[C@H]1c1nc(-c2ccccc2)cs1)c1ccc2cc(Cl)ccc2n1

>  <score_type>  (27) 
oracle

>  <origin>  (27) 
autodockgpu

>  <m_score__min__energy>  (27) 
-9.7699999999999996

>  <m_primary>  (27) 
energy

>  <rmsd>  (27) 
5.385139218600935

>  <m_score__min__rmsd>  (27) 
5.385139218600935

>  <meeko>  (27) 
{"free_energy": -9.77, "intermolecular_energy": -11.56, "internal_energy": -1.98, "cluster_size": 5, "cluster_id": 1, "rank_in_cluster": 1}

>  <energy>  (27) 
-6.85

>  <cluster_rmsd>  (27) 
0.35

>  <cluster>  (27) 
6

$$$$

     RDKit          3D

 54 58  0  0  0  0  0  0  0  0999 V2000
  138.8960   71.9880  220.8890 O   0  0  0  0  0  0  0  0  0  0  0  0
  139.1990   72.4040  222.0550 C   0  0  0  0  0  0  0  0  0  0  0  0
  139.2990   73.7950  222.3160 N   0  0  0  0  0  0  0  0  0  0  0  0
  139.0630   74.7880  221.2700 C   0  0  0  0  0  0  0  0  0  0  0  0
  139.0140   76.1420  221.8740 C   0  0  0  0  0  0  0  0  0  0  0  0
  138.0190   76.5640  222.5180 O   0  0  0  0  0  0  0  0  0  0  0  0
  140.1200   77.0200  221.7360 N   0  0  0  0  0  0  0  0  0  0  0  0
  141.0730   77.3840  222.7950 C   0  0  0  0  0  0  0  0  0  0  0  0
  141.1430   78.8820  222.6130 C   0  0  0  0  0  0  0  0  0  0  0  0
  141.0610   79.0760  221.1470 C   0  0  0  0  0  0  0  0  0  0  0  0
  140.5890   77.7620  220.5820 C   0  0  1  0  0  0  0  0  0  0  0  0
  141.7550   77.0610  219.9380 C   0  0  0  0  0  0  0  0  0  0  0  0
  142.4610   76.1200  220.1390 N   0  0  0  0  0  0  0  0  0  0  0  0
  143.4480   75.6690  219.4190 C   0  0  0  0  0  0  0  0  0  0  0  0
  144.2650   74.5020  219.7390 C   0  0  0  0  0  0  0  0  0  0  0  0
  145.2310   74.5330  220.7230 C   0  0  0  0  0  0  0  0  0  0  0  0
  145.9970   73.4200  221.0150 C   0  0  0  0  0  0  0  0  0  0  0  0
  145.8150   72.2330  220.3240 C   0  0  0  0  0  0  0  0  0  0  0  0
  144.8560   72.1840  219.3400 C   0  0  0  0  0  0  0  0  0  0  0  0
  144.1070   73.3040  219.0680 C   0  0  0  0  0  0  0  0  0  0  0  0
  143.6840   76.4180  218.2580 C   0  0  0  0  0  0  0  0  0  0  0  0
  142.4060   77.7660  218.3070 S   0  0  0  0  0  0  0  0  0  0  0  0
  139.4450   71.4340  223.1410 C   0  0  0  0  0  0  0  0  0  0  0  0
  139.0920   70.1150  222.9480 C   0  0  0  0  0  0  0  0  0  0  0  0
  139.3340   69.2130  223.9860 C   0  0  0  0  0  0  0  0  0  0  0  0
  139.9070   69.6320  225.1690 C   0  0  0  0  0  0  0  0  0  0  0  0
  140.1550   68.7650  226.2050 C   0  0  0  0  0  0  0  0  0  0  0  0
  140.7280   69.2630  227.3440 C   0  0  0  0  0  0  0  0  0  0  0  0
  141.0680   68.2040  228.6980 Cl  0  0  0  0  0  0  0  0  0  0  0  0
  141.0710   70.6000  227.5030 C   0  0  0  0  0  0  0  0  0  0  0  0
  140.8130   71.4500  226.4480 C   0  0  0  0  0  0  0  0  0  0  0  0
  140.2310   70.9740  225.2790 C   0  0  0  0  0  0  0  0  0  0  0  0
  140.0070   71.8580  224.2890 N   0  0  0  0  0  0  0  0  0  0  0  0
  139.5520   74.0630  223.2980 H   0  0  0  0  0  0  0  0  0  0  0  0
  139.8784   74.7448  220.5330 H   0  0  0  0  0  0  0  0  0  0  0  0
  138.1059   74.5745  220.7716 H   0  0  0  0  0  0  0  0  0  0  0  0
  140.6926   77.1149  223.7914 H   0  0  0  0  0  0  0  0  0  0  0  0
  142.0443   76.8720  222.7282 H   0  0  0  0  0  0  0  0  0  0  0  0
  140.3006   79.3760  223.1193 H   0  0  0  0  0  0  0  0  0  0  0  0
  142.0573   79.3158  223.0442 H   0  0  0  0  0  0  0  0  0  0  0  0
  140.3446   79.8753  220.9064 H   0  0  0  0  0  0  0  0  0  0  0  0
  142.0324   79.3717  220.7240 H   0  0  0  0  0  0  0  0  0  0  0  0
  139.8041   77.8699  219.8190 H   0  0  0  0  0  0  0  0  0  0  0  0
  145.3953   75.4629  221.2872 H   0  0  0  0  0  0  0  0  0  0  0  0
  146.7600   73.4774  221.8053 H   0  0  0  0  0  0  0  0  0  0  0  0
  146.4251   71.3481  220.5578 H   0  0  0  0  0  0  0  0  0  0  0  0
  144.6894   71.2553  218.7745 H   0  0  0  0  0  0  0  0  0  0  0  0
  143.3444   73.2439  218.2775 H   0  0  0  0  0  0  0  0  0  0  0  0
  144.4530   76.2464  217.4904 H   0  0  0  0  0  0  0  0  0  0  0  0
  138.6335   69.7834  222.0047 H   0  0  0  0  0  0  0  0  0  0  0  0
  139.0642   68.1542  223.8588 H   0  0  0  0  0  0  0  0  0  0  0  0
  139.8998   67.6983  226.1216 H   0  0  0  0  0  0  0  0  0  0  0  0
  141.5300   70.9660  228.4333 H   0  0  0  0  0  0  0  0  0  0  0  0
  141.0706   72.5161  226.5326 H   0  0  0  0  0  0  0  0  0  0  0  0
  1  2  2  0
  2  3  1  0
  3  4  1  0
  4  5  1  0
  5  6  2  0
  5  7  1  0
  7  8  1  0
  8  9  1  0
  9 10  1  0
 10 11  1  0
 11 12  1  0
 12 13  2  0
 13 14  1  0
 14 15  1  0
 15 16  2  0
 16 17  1  0
 17 18  2  0
 18 19  1  0
 19 20  2  0
 14 21  2  0
 21 22  1  0
  2 23  1  0
 23 24  2  0
 24 25  1  0
 25 26  2  0
 26 27  1  0
 27 28  2  0
 28 29  1  0
 28 30  1  0
 30 31  2  0
 31 32  1  0
 32 33  2  0
 11  7  1  0
 22 12  1  0
 33 23  1  0
 20 15  1  0
 32 26  1  0
  3 34  1  0
  4 35  1  0
  4 36  1  0
  8 37  1  0
  8 38  1  0
  9 39  1  0
  9 40  1  0
 10 41  1  0
 10 42  1  0
 11 43  1  6
 16 44  1  0
 17 45  1  0
 18 46  1  0
 19 47  1  0
 20 48  1  0
 21 49  1  0
 24 50  1  0
 25 51  1  0
 27 52  1  0
 30 53  1  0
 31 54  1  0
M  END
>  <smiles>  (28) 
O=C(NCC(=O)N1CCC[C@H]1c1nc(-c2ccccc2)cs1)c1ccc2cc(Cl)ccc2n1

>  <score_type>  (28) 
oracle

>  <origin>  (28) 
autodockgpu

>  <m_score__min__energy>  (28) 
-9.7699999999999996

>  <m_primary>  (28) 
energy

>  <rmsd>  (28) 
5.379654952532705

>  <m_score__min__rmsd>  (28) 
5.379654952532705

>  <meeko>  (28) 
{"free_energy": -9.55, "intermolecular_energy": -11.34, "internal_energy": -1.98, "cluster_size": 5, "cluster_id": 1, "rank_in_cluster": 4}

>  <energy>  (28) 
-6.83

>  <cluster_rmsd>  (28) 
0.65

>  <cluster>  (28) 
6

$$$$

     RDKit          3D

 54 58  0  0  0  0  0  0  0  0999 V2000
  134.9640   77.0830  223.2610 O   0  0  0  0  0  0  0  0  0  0  0  0
  135.8920   77.9410  223.1030 C   0  0  0  0  0  0  0  0  0  0  0  0
  135.6680   79.3060  223.4190 N   0  0  0  0  0  0  0  0  0  0  0  0
  134.3800   79.7710  223.9300 C   0  0  0  0  0  0  0  0  0  0  0  0
  134.5690   80.3750  225.2730 C   0  0  0  0  0  0  0  0  0  0  0  0
  133.8340   80.0950  226.2540 O   0  0  0  0  0  0  0  0  0  0  0  0
  135.6140   81.3100  225.4880 N   0  0  0  0  0  0  0  0  0  0  0  0
  136.5950   81.2730  226.5830 C   0  0  0  0  0  0  0  0  0  0  0  0
  136.5700   82.7140  227.0360 C   0  0  0  0  0  0  0  0  0  0  0  0
  136.4060   83.4880  225.7840 C   0  0  0  0  0  0  0  0  0  0  0  0
  135.9830   82.4920  224.7360 C   0  0  1  0  0  0  0  0  0  0  0  0
  137.1550   82.2050  223.8360 C   0  0  0  0  0  0  0  0  0  0  0  0
  138.1520   81.5490  223.8390 N   0  0  0  0  0  0  0  0  0  0  0  0
  139.0630   81.4380  222.9150 C   0  0  0  0  0  0  0  0  0  0  0  0
  140.2590   80.6060  223.0010 C   0  0  0  0  0  0  0  0  0  0  0  0
  140.3080   79.4740  223.7850 C   0  0  0  0  0  0  0  0  0  0  0  0
  141.4490   78.6950  223.8560 C   0  0  0  0  0  0  0  0  0  0  0  0
  142.5830   79.0330  223.1360 C   0  0  0  0  0  0  0  0  0  0  0  0
  142.5520   80.1590  222.3480 C   0  0  0  0  0  0  0  0  0  0  0  0
  141.4060   80.9160  222.2940 C   0  0  0  0  0  0  0  0  0  0  0  0
  138.8020   82.2120  221.7750 C   0  0  0  0  0  0  0  0  0  0  0  0
  137.1960   83.0680  222.1520 S   0  0  0  0  0  0  0  0  0  0  0  0
  137.2090   77.5140  222.5890 C   0  0  0  0  0  0  0  0  0  0  0  0
  137.7570   76.3380  223.0570 C   0  0  0  0  0  0  0  0  0  0  0  0
  139.0020   75.9510  222.5580 C   0  0  0  0  0  0  0  0  0  0  0  0
  139.6620   76.7230  221.6250 C   0  0  0  0  0  0  0  0  0  0  0  0
  140.8880   76.3650  221.1180 C   0  0  0  0  0  0  0  0  0  0  0  0
  141.4740   77.1870  220.1950 C   0  0  0  0  0  0  0  0  0  0  0  0
  143.0360   76.7800  219.5140 Cl  0  0  0  0  0  0  0  0  0  0  0  0
  140.8910   78.3650  219.7450 C   0  0  0  0  0  0  0  0  0  0  0  0
  139.6600   78.7030  220.2680 C   0  0  0  0  0  0  0  0  0  0  0  0
  139.0400   77.8880  221.2080 C   0  0  0  0  0  0  0  0  0  0  0  0
  137.8400   78.2770  221.6770 N   0  0  0  0  0  0  0  0  0  0  0  0
  136.4780   79.9550  223.2630 H   0  0  0  0  0  0  0  0  0  0  0  0
  133.9639   80.5241  223.2446 H   0  0  0  0  0  0  0  0  0  0  0  0
  133.6867   78.9203  224.0049 H   0  0  0  0  0  0  0  0  0  0  0  0
  136.2794   80.5909  227.3861 H   0  0  0  0  0  0  0  0  0  0  0  0
  137.5896   80.9053  226.2905 H   0  0  0  0  0  0  0  0  0  0  0  0
  135.7262   82.8934  227.7185 H   0  0  0  0  0  0  0  0  0  0  0  0
  137.4778   82.9966  227.5891 H   0  0  0  0  0  0  0  0  0  0  0  0
  135.6342   84.2615  225.9105 H   0  0  0  0  0  0  0  0  0  0  0  0
  137.3369   84.0013  225.5013 H   0  0  0  0  0  0  0  0  0  0  0  0
  135.1566   82.8467  224.1025 H   0  0  0  0  0  0  0  0  0  0  0  0
  139.4209   79.1835  224.3669 H   0  0  0  0  0  0  0  0  0  0  0  0
  141.4558   77.7971  224.4914 H   0  0  0  0  0  0  0  0  0  0  0  0
  143.4898   78.4131  223.1936 H   0  0  0  0  0  0  0  0  0  0  0  0
  143.4376   80.4520  221.7651 H   0  0  0  0  0  0  0  0  0  0  0  0
  141.4012   81.8127  221.6569 H   0  0  0  0  0  0  0  0  0  0  0  0
  139.4110   82.2940  220.8626 H   0  0  0  0  0  0  0  0  0  0  0  0
  137.2289   75.7235  223.8010 H   0  0  0  0  0  0  0  0  0  0  0  0
  139.4628   75.0177  222.9138 H   0  0  0  0  0  0  0  0  0  0  0  0
  141.3857   75.4405  221.4462 H   0  0  0  0  0  0  0  0  0  0  0  0
  141.3911   79.0028  219.0013 H   0  0  0  0  0  0  0  0  0  0  0  0
  139.1637   79.6274  219.9376 H   0  0  0  0  0  0  0  0  0  0  0  0
  1  2  2  0
  2  3  1  0
  3  4  1  0
  4  5  1  0
  5  6  2  0
  5  7  1  0
  7  8  1  0
  8  9  1  0
  9 10  1  0
 10 11  1  0
 11 12  1  0
 12 13  2  0
 13 14  1  0
 14 15  1  0
 15 16  2  0
 16 17  1  0
 17 18  2  0
 18 19  1  0
 19 20  2  0
 14 21  2  0
 21 22  1  0
  2 23  1  0
 23 24  2  0
 24 25  1  0
 25 26  2  0
 26 27  1  0
 27 28  2  0
 28 29  1  0
 28 30  1  0
 30 31  2  0
 31 32  1  0
 32 33  2  0
 11  7  1  0
 22 12  1  0
 33 23  1  0
 20 15  1  0
 32 26  1  0
  3 34  1  0
  4 35  1  0
  4 36  1  0
  8 37  1  0
  8 38  1  0
  9 39  1  0
  9 40  1  0
 10 41  1  0
 10 42  1  0
 11 43  1  6
 16 44  1  0
 17 45  1  0
 18 46  1  0
 19 47  1  0
 20 48  1  0
 21 49  1  0
 24 50  1  0
 25 51  1  0
 27 52  1  0
 30 53  1  0
 31 54  1  0
M  END
>  <smiles>  (29) 
O=C(NCC(=O)N1CCC[C@H]1c1nc(-c2ccccc2)cs1)c1ccc2cc(Cl)ccc2n1

>  <score_type>  (29) 
oracle

>  <origin>  (29) 
autodockgpu

>  <m_score__min__energy>  (29) 
-9.7699999999999996

>  <m_primary>  (29) 
energy

>  <rmsd>  (29) 
8.338911485991925

>  <m_score__min__rmsd>  (29) 
8.338911485991925

>  <meeko>  (29) 
{"free_energy": -6.18, "intermolecular_energy": -7.97, "internal_energy": -4.27, "cluster_size": 1, "cluster_id": 13, "rank_in_cluster": 1}

>  <energy>  (29) 
-6.61

>  <cluster_rmsd>  (29) 
0.71

>  <cluster>  (29) 
6

$$$$

     RDKit          3D

 54 58  0  0  0  0  0  0  0  0999 V2000
  139.5960   75.0070  222.3480 O   0  0  0  0  0  0  0  0  0  0  0  0
  139.1430   76.1390  221.9770 C   0  0  0  0  0  0  0  0  0  0  0  0
  137.8250   76.5330  222.3260 N   0  0  0  0  0  0  0  0  0  0  0  0
  136.9510   75.6650  223.1110 C   0  0  0  0  0  0  0  0  0  0  0  0
  135.5390   76.0850  222.9260 C   0  0  0  0  0  0  0  0  0  0  0  0
  134.6410   75.2970  222.5320 O   0  0  0  0  0  0  0  0  0  0  0  0
  135.1580   77.4240  223.1980 N   0  0  0  0  0  0  0  0  0  0  0  0
  134.4140   77.8890  224.3780 C   0  0  0  0  0  0  0  0  0  0  0  0
  133.3850   78.7860  223.7310 C   0  0  0  0  0  0  0  0  0  0  0  0
  134.1130   79.4310  222.6140 C   0  0  0  0  0  0  0  0  0  0  0  0
  135.3790   78.6350  222.4330 C   0  0  1  0  0  0  0  0  0  0  0  0
  136.5330   79.4180  223.0000 C   0  0  0  0  0  0  0  0  0  0  0  0
  137.7240   79.4380  222.9360 N   0  0  0  0  0  0  0  0  0  0  0  0
  138.5630   80.2380  223.5290 C   0  0  0  0  0  0  0  0  0  0  0  0
  140.0160   80.1930  223.3940 C   0  0  0  0  0  0  0  0  0  0  0  0
  140.7400   81.2660  222.9210 C   0  0  0  0  0  0  0  0  0  0  0  0
  142.1170   81.2090  222.7990 C   0  0  0  0  0  0  0  0  0  0  0  0
  142.8120   80.0630  223.1510 C   0  0  0  0  0  0  0  0  0  0  0  0
  142.1050   78.9830  223.6250 C   0  0  0  0  0  0  0  0  0  0  0  0
  140.7380   79.0650  223.7370 C   0  0  0  0  0  0  0  0  0  0  0  0
  137.9440   81.1940  224.3460 C   0  0  0  0  0  0  0  0  0  0  0  0
  136.1270   80.8400  224.1810 S   0  0  0  0  0  0  0  0  0  0  0  0
  139.9940   77.0470  221.1830 C   0  0  0  0  0  0  0  0  0  0  0  0
  141.2670   76.6390  220.8430 C   0  0  0  0  0  0  0  0  0  0  0  0
  142.0570   77.5110  220.0900 C   0  0  0  0  0  0  0  0  0  0  0  0
  141.5750   78.7430  219.7000 C   0  0  0  0  0  0  0  0  0  0  0  0
  142.3300   79.6200  218.9600 C   0  0  0  0  0  0  0  0  0  0  0  0
  141.7760   80.8220  218.6130 C   0  0  0  0  0  0  0  0  0  0  0  0
  142.6930   81.9790  217.6690 Cl  0  0  0  0  0  0  0  0  0  0  0  0
  140.4880   81.1990  218.9730 C   0  0  0  0  0  0  0  0  0  0  0  0
  139.7490   80.3030  219.7160 C   0  0  0  0  0  0  0  0  0  0  0  0
  140.2850   79.0740  220.0830 C   0  0  0  0  0  0  0  0  0  0  0  0
  139.5100   78.2460  220.8080 N   0  0  0  0  0  0  0  0  0  0  0  0
  137.5210   77.4780  221.9860 H   0  0  0  0  0  0  0  0  0  0  0  0
  137.0708   74.6243  222.7755 H   0  0  0  0  0  0  0  0  0  0  0  0
  137.2193   75.7409  224.1751 H   0  0  0  0  0  0  0  0  0  0  0  0
  133.9417   77.0525  224.9139 H   0  0  0  0  0  0  0  0  0  0  0  0
  135.0337   78.3840  225.1402 H   0  0  0  0  0  0  0  0  0  0  0  0
  132.5360   78.1967  223.3542 H   0  0  0  0  0  0  0  0  0  0  0  0
  132.9624   79.5175  224.4355 H   0  0  0  0  0  0  0  0  0  0  0  0
  133.5082   79.4022  221.6957 H   0  0  0  0  0  0  0  0  0  0  0  0
  134.3276   80.4883  222.8285 H   0  0  0  0  0  0  0  0  0  0  0  0
  135.6115   78.4162  221.3804 H   0  0  0  0  0  0  0  0  0  0  0  0
  140.2119   82.1874  222.6344 H   0  0  0  0  0  0  0  0  0  0  0  0
  142.6661   82.0829  222.4184 H   0  0  0  0  0  0  0  0  0  0  0  0
  143.9067   80.0182  223.0533 H   0  0  0  0  0  0  0  0  0  0  0  0
  142.6300   78.0601  223.9124 H   0  0  0  0  0  0  0  0  0  0  0  0
  140.1912   78.1901  224.1184 H   0  0  0  0  0  0  0  0  0  0  0  0
  138.4255   81.9777  224.9493 H   0  0  0  0  0  0  0  0  0  0  0  0
  141.6489   75.6559  221.1556 H   0  0  0  0  0  0  0  0  0  0  0  0
  143.0762   77.2113  219.8046 H   0  0  0  0  0  0  0  0  0  0  0  0
  143.3547   79.3624  218.6539 H   0  0  0  0  0  0  0  0  0  0  0  0
  140.0741   82.1742  218.6768 H   0  0  0  0  0  0  0  0  0  0  0  0
  138.7248   80.5633  220.0215 H   0  0  0  0  0  0  0  0  0  0  0  0
  1  2  2  0
  2  3  1  0
  3  4  1  0
  4  5  1  0
  5  6  2  0
  5  7  1  0
  7  8  1  0
  8  9  1  0
  9 10  1  0
 10 11  1  0
 11 12  1  0
 12 13  2  0
 13 14  1  0
 14 15  1  0
 15 16  2  0
 16 17  1  0
 17 18  2  0
 18 19  1  0
 19 20  2  0
 14 21  2  0
 21 22  1  0
  2 23  1  0
 23 24  2  0
 24 25  1  0
 25 26  2  0
 26 27  1  0
 27 28  2  0
 28 29  1  0
 28 30  1  0
 30 31  2  0
 31 32  1  0
 32 33  2  0
 11  7  1  0
 22 12  1  0
 33 23  1  0
 20 15  1  0
 32 26  1  0
  3 34  1  0
  4 35  1  0
  4 36  1  0
  8 37  1  0
  8 38  1  0
  9 39  1  0
  9 40  1  0
 10 41  1  0
 10 42  1  0
 11 43  1  6
 16 44  1  0
 17 45  1  0
 18 46  1  0
 19 47  1  0
 20 48  1  0
 21 49  1  0
 24 50  1  0
 25 51  1  0
 27 52  1  0
 30 53  1  0
 31 54  1  0
M  END
>  <smiles>  (30) 
O=C(NCC(=O)N1CCC[C@H]1c1nc(-c2ccccc2)cs1)c1ccc2cc(Cl)ccc2n1

>  <score_type>  (30) 
oracle

>  <origin>  (30) 
autodockgpu

>  <m_score__min__energy>  (30) 
-9.7699999999999996

>  <m_primary>  (30) 
energy

>  <rmsd>  (30) 
8.071089701278078

>  <m_score__min__rmsd>  (30) 
8.071089701278078

>  <meeko>  (30) 
{"free_energy": -6.5, "intermolecular_energy": -8.29, "internal_energy": -4.61, "cluster_size": 7, "cluster_id": 10, "rank_in_cluster": 7}

>  <energy>  (30) 
-6.55

>  <cluster_rmsd>  (30) 
0.63

>  <cluster>  (30) 
6

$$$$

     RDKit          3D

 54 58  0  0  0  0  0  0  0  0999 V2000
  143.4030   74.9610  218.2210 O   0  0  0  0  0  0  0  0  0  0  0  0
  143.2110   75.4830  219.3670 C   0  0  0  0  0  0  0  0  0  0  0  0
  143.4630   74.7360  220.5460 N   0  0  0  0  0  0  0  0  0  0  0  0
  143.9450   73.3580  220.4890 C   0  0  0  0  0  0  0  0  0  0  0  0
  142.8090   72.4460  220.2060 C   0  0  0  0  0  0  0  0  0  0  0  0
  142.9620   71.3030  219.7030 O   0  0  0  0  0  0  0  0  0  0  0  0
  141.4830   72.8520  220.5060 N   0  0  0  0  0  0  0  0  0  0  0  0
  140.2930   72.5970  219.6820 C   0  0  0  0  0  0  0  0  0  0  0  0
  139.6430   73.9610  219.6900 C   0  0  0  0  0  0  0  0  0  0  0  0
  139.8980   74.4790  221.0530 C   0  0  0  0  0  0  0  0  0  0  0  0
  140.9640   73.5910  221.6400 C   0  0  1  0  0  0  0  0  0  0  0  0
  140.3280   72.6590  222.6360 C   0  0  0  0  0  0  0  0  0  0  0  0
  140.5850   72.1510  223.6850 N   0  0  0  0  0  0  0  0  0  0  0  0
  139.8580   71.3480  224.4070 C   0  0  0  0  0  0  0  0  0  0  0  0
  140.2520   70.7700  225.6880 C   0  0  0  0  0  0  0  0  0  0  0  0
  140.2340   69.4100  225.9130 C   0  0  0  0  0  0  0  0  0  0  0  0
  140.6100   68.8770  227.1320 C   0  0  0  0  0  0  0  0  0  0  0  0
  141.0200   69.6990  228.1690 C   0  0  0  0  0  0  0  0  0  0  0  0
  141.0460   71.0570  227.9620 C   0  0  0  0  0  0  0  0  0  0  0  0
  140.6670   71.5630  226.7410 C   0  0  0  0  0  0  0  0  0  0  0  0
  138.6080   71.0630  223.8410 C   0  0  0  0  0  0  0  0  0  0  0  0
  138.5900   72.0190  222.2480 S   0  0  0  0  0  0  0  0  0  0  0  0
  142.7240   76.8740  219.4690 C   0  0  0  0  0  0  0  0  0  0  0  0
  142.7710   77.6790  218.3510 C   0  0  0  0  0  0  0  0  0  0  0  0
  142.3050   78.9910  218.4670 C   0  0  0  0  0  0  0  0  0  0  0  0
  141.8140   79.4630  219.6660 C   0  0  0  0  0  0  0  0  0  0  0  0
  141.3500   80.7480  219.8080 C   0  0  0  0  0  0  0  0  0  0  0  0
  140.8780   81.1370  221.0320 C   0  0  0  0  0  0  0  0  0  0  0  0
  140.2740   82.7640  221.2710 Cl  0  0  0  0  0  0  0  0  0  0  0  0
  140.8450   80.2960  222.1380 C   0  0  0  0  0  0  0  0  0  0  0  0
  141.3160   79.0110  221.9710 C   0  0  0  0  0  0  0  0  0  0  0  0
  141.8020   78.5870  220.7390 C   0  0  0  0  0  0  0  0  0  0  0  0
  142.2460   77.3200  220.6450 N   0  0  0  0  0  0  0  0  0  0  0  0
  143.2820   75.2310  221.4530 H   0  0  0  0  0  0  0  0  0  0  0  0
  144.6966   73.2655  219.6912 H   0  0  0  0  0  0  0  0  0  0  0  0
  144.3986   73.0888  221.4543 H   0  0  0  0  0  0  0  0  0  0  0  0
  140.5658   72.2849  218.6631 H   0  0  0  0  0  0  0  0  0  0  0  0
  139.6498   71.7847  220.0514 H   0  0  0  0  0  0  0  0  0  0  0  0
  140.1000   74.6150  218.9327 H   0  0  0  0  0  0  0  0  0  0  0  0
  138.5702   73.9170  219.4507 H   0  0  0  0  0  0  0  0  0  0  0  0
  140.2501   75.5201  221.0069 H   0  0  0  0  0  0  0  0  0  0  0  0
  138.9841   74.4714  221.6652 H   0  0  0  0  0  0  0  0  0  0  0  0
  141.7569   74.1451  222.1638 H   0  0  0  0  0  0  0  0  0  0  0  0
  139.9138   68.7348  225.1058 H   0  0  0  0  0  0  0  0  0  0  0  0
  140.5833   67.7874  227.2802 H   0  0  0  0  0  0  0  0  0  0  0  0
  141.3186   69.2732  229.1383 H   0  0  0  0  0  0  0  0  0  0  0  0
  141.3676   71.7342  228.7669 H   0  0  0  0  0  0  0  0  0  0  0  0
  140.6955   72.6529  226.5951 H   0  0  0  0  0  0  0  0  0  0  0  0
  137.8155   70.4181  224.2484 H   0  0  0  0  0  0  0  0  0  0  0  0
  143.1637   77.2997  217.3960 H   0  0  0  0  0  0  0  0  0  0  0  0
  142.3301   79.6557  217.5909 H   0  0  0  0  0  0  0  0  0  0  0  0
  141.3577   81.4471  218.9587 H   0  0  0  0  0  0  0  0  0  0  0  0
  140.4585   80.6418  223.1080 H   0  0  0  0  0  0  0  0  0  0  0  0
  141.3072   78.3136  222.8216 H   0  0  0  0  0  0  0  0  0  0  0  0
  1  2  2  0
  2  3  1  0
  3  4  1  0
  4  5  1  0
  5  6  2  0
  5  7  1  0
  7  8  1  0
  8  9  1  0
  9 10  1  0
 10 11  1  0
 11 12  1  0
 12 13  2  0
 13 14  1  0
 14 15  1  0
 15 16  2  0
 16 17  1  0
 17 18  2  0
 18 19  1  0
 19 20  2  0
 14 21  2  0
 21 22  1  0
  2 23  1  0
 23 24  2  0
 24 25  1  0
 25 26  2  0
 26 27  1  0
 27 28  2  0
 28 29  1  0
 28 30  1  0
 30 31  2  0
 31 32  1  0
 32 33  2  0
 11  7  1  0
 22 12  1  0
 33 23  1  0
 20 15  1  0
 32 26  1  0
  3 34  1  0
  4 35  1  0
  4 36  1  0
  8 37  1  0
  8 38  1  0
  9 39  1  0
  9 40  1  0
 10 41  1  0
 10 42  1  0
 11 43  1  1
 16 44  1  0
 17 45  1  0
 18 46  1  0
 19 47  1  0
 20 48  1  0
 21 49  1  0
 24 50  1  0
 25 51  1  0
 27 52  1  0
 30 53  1  0
 31 54  1  0
M  END
>  <smiles>  (31) 
O=C(NCC(=O)N1CCC[C@H]1c1nc(-c2ccccc2)cs1)c1ccc2cc(Cl)ccc2n1

>  <score_type>  (31) 
oracle

>  <origin>  (31) 
autodockgpu

>  <m_score__min__energy>  (31) 
-9.7699999999999996

>  <m_primary>  (31) 
energy

>  <rmsd>  (31) 
9.467670989587223

>  <m_score__min__rmsd>  (31) 
9.467670989587223

>  <meeko>  (31) 
{"free_energy": -8.49, "intermolecular_energy": -10.28, "internal_energy": -2.29, "cluster_size": 3, "cluster_id": 5, "rank_in_cluster": 1}

>  <energy>  (31) 
-6.53

>  <cluster_rmsd>  (31) 
0.85

>  <cluster>  (31) 
6

$$$$

     RDKit          3D

 54 58  0  0  0  0  0  0  0  0999 V2000
  140.5270   74.2210  221.9460 O   0  0  0  0  0  0  0  0  0  0  0  0
  140.6830   75.4490  221.6450 C   0  0  0  0  0  0  0  0  0  0  0  0
  141.8360   75.8710  220.9340 N   0  0  0  0  0  0  0  0  0  0  0  0
  142.8730   74.9240  220.5280 C   0  0  0  0  0  0  0  0  0  0  0  0
  142.9050   74.8300  219.0470 C   0  0  0  0  0  0  0  0  0  0  0  0
  143.6250   74.0000  218.4340 O   0  0  0  0  0  0  0  0  0  0  0  0
  142.0990   75.6960  218.2640 N   0  0  0  0  0  0  0  0  0  0  0  0
  140.6570   75.5490  218.0180 C   0  0  0  0  0  0  0  0  0  0  0  0
  140.5980   75.7840  216.5270 C   0  0  0  0  0  0  0  0  0  0  0  0
  141.6150   76.8320  216.2810 C   0  0  0  0  0  0  0  0  0  0  0  0
  142.4530   76.8950  217.5310 C   0  0  1  0  0  0  0  0  0  0  0  0
  142.0730   78.1260  218.3100 C   0  0  0  0  0  0  0  0  0  0  0  0
  142.1960   78.5670  219.4130 N   0  0  0  0  0  0  0  0  0  0  0  0
  141.7780   79.7030  219.8920 C   0  0  0  0  0  0  0  0  0  0  0  0
  141.9730   80.1670  221.2620 C   0  0  0  0  0  0  0  0  0  0  0  0
  141.5920   81.4280  221.6690 C   0  0  0  0  0  0  0  0  0  0  0  0
  141.7830   81.8530  222.9700 C   0  0  0  0  0  0  0  0  0  0  0  0
  142.3660   81.0190  223.9100 C   0  0  0  0  0  0  0  0  0  0  0  0
  142.7520   79.7580  223.5220 C   0  0  0  0  0  0  0  0  0  0  0  0
  142.5510   79.3580  222.2230 C   0  0  0  0  0  0  0  0  0  0  0  0
  141.0940   80.4890  218.9540 C   0  0  0  0  0  0  0  0  0  0  0  0
  141.1140   79.4770  217.3960 S   0  0  0  0  0  0  0  0  0  0  0  0
  139.6590   76.4380  222.0370 C   0  0  0  0  0  0  0  0  0  0  0  0
  138.3420   76.2010  221.7030 C   0  0  0  0  0  0  0  0  0  0  0  0
  137.3890   77.1480  222.0820 C   0  0  0  0  0  0  0  0  0  0  0  0
  137.7560   78.2860  222.7710 C   0  0  0  0  0  0  0  0  0  0  0  0
  136.8390   79.2320  223.1560 C   0  0  0  0  0  0  0  0  0  0  0  0
  137.2870   80.3310  223.8360 C   0  0  0  0  0  0  0  0  0  0  0  0
  136.1620   81.5710  224.3530 Cl  0  0  0  0  0  0  0  0  0  0  0  0
  138.6230   80.5360  224.1570 C   0  0  0  0  0  0  0  0  0  0  0  0
  139.5260   79.5720  223.7600 C   0  0  0  0  0  0  0  0  0  0  0  0
  139.1000   78.4450  223.0670 C   0  0  0  0  0  0  0  0  0  0  0  0
  140.0330   77.5430  222.7100 N   0  0  0  0  0  0  0  0  0  0  0  0
  141.8970   76.8960  220.7220 H   0  0  0  0  0  0  0  0  0  0  0  0
  143.8503   75.2711  220.8945 H   0  0  0  0  0  0  0  0  0  0  0  0
  142.6523   73.9339  220.9535 H   0  0  0  0  0  0  0  0  0  0  0  0
  140.3017   74.5423  218.2834 H   0  0  0  0  0  0  0  0  0  0  0  0
  140.0230   76.2248  218.6107 H   0  0  0  0  0  0  0  0  0  0  0  0
  140.8459   74.8639  215.9774 H   0  0  0  0  0  0  0  0  0  0  0  0
  139.5953   76.0837  216.1882 H   0  0  0  0  0  0  0  0  0  0  0  0
  142.2386   76.5644  215.4153 H   0  0  0  0  0  0  0  0  0  0  0  0
  141.1488   77.8030  216.0578 H   0  0  0  0  0  0  0  0  0  0  0  0
  143.5337   76.9479  217.3326 H   0  0  0  0  0  0  0  0  0  0  0  0
  141.1261   82.1102  220.9427 H   0  0  0  0  0  0  0  0  0  0  0  0
  141.4684   82.8656  223.2627 H   0  0  0  0  0  0  0  0  0  0  0  0
  142.5169   81.3587  224.9453 H   0  0  0  0  0  0  0  0  0  0  0  0
  143.2185   79.0741  224.2463 H   0  0  0  0  0  0  0  0  0  0  0  0
  142.8653   78.3445  221.9333 H   0  0  0  0  0  0  0  0  0  0  0  0
  140.6460   81.4820  219.1063 H   0  0  0  0  0  0  0  0  0  0  0  0
  138.0513   75.2930  221.1544 H   0  0  0  0  0  0  0  0  0  0  0  0
  136.3312   76.9849  221.8280 H   0  0  0  0  0  0  0  0  0  0  0  0
  135.7709   79.1094  222.9236 H   0  0  0  0  0  0  0  0  0  0  0  0
  138.9479   81.4320  224.7062 H   0  0  0  0  0  0  0  0  0  0  0  0
  140.5936   79.6963  223.9941 H   0  0  0  0  0  0  0  0  0  0  0  0
  1  2  2  0
  2  3  1  0
  3  4  1  0
  4  5  1  0
  5  6  2  0
  5  7  1  0
  7  8  1  0
  8  9  1  0
  9 10  1  0
 10 11  1  0
 11 12  1  0
 12 13  2  0
 13 14  1  0
 14 15  1  0
 15 16  2  0
 16 17  1  0
 17 18  2  0
 18 19  1  0
 19 20  2  0
 14 21  2  0
 21 22  1  0
  2 23  1  0
 23 24  2  0
 24 25  1  0
 25 26  2  0
 26 27  1  0
 27 28  2  0
 28 29  1  0
 28 30  1  0
 30 31  2  0
 31 32  1  0
 32 33  2  0
 11  7  1  0
 22 12  1  0
 33 23  1  0
 20 15  1  0
 32 26  1  0
  3 34  1  0
  4 35  1  0
  4 36  1  0
  8 37  1  0
  8 38  1  0
  9 39  1  0
  9 40  1  0
 10 41  1  0
 10 42  1  0
 11 43  1  6
 16 44  1  0
 17 45  1  0
 18 46  1  0
 19 47  1  0
 20 48  1  0
 21 49  1  0
 24 50  1  0
 25 51  1  0
 27 52  1  0
 30 53  1  0
 31 54  1  0
M  END
>  <smiles>  (32) 
O=C(NCC(=O)N1CCC[C@H]1c1nc(-c2ccccc2)cs1)c1ccc2cc(Cl)ccc2n1

>  <score_type>  (32) 
oracle

>  <origin>  (32) 
autodockgpu

>  <m_score__min__energy>  (32) 
-9.7699999999999996

>  <m_primary>  (32) 
energy

>  <rmsd>  (32) 
6.162981004762799

>  <m_score__min__rmsd>  (32) 
6.162981004762799

>  <meeko>  (32) 
{"free_energy": -7.06, "intermolecular_energy": -8.85, "internal_energy": -4.01, "cluster_size": 17, "cluster_id": 6, "rank_in_cluster": 5}

>  <energy>  (32) 
-7.1

>  <cluster_rmsd>  (32) 
0.0

>  <cluster>  (32) 
7

$$$$

     RDKit          3D

 54 58  0  0  0  0  0  0  0  0999 V2000
  140.2880   74.0060  221.8610 O   0  0  0  0  0  0  0  0  0  0  0  0
  140.6210   75.2260  221.7010 C   0  0  0  0  0  0  0  0  0  0  0  0
  141.9050   75.5570  221.1960 N   0  0  0  0  0  0  0  0  0  0  0  0
  142.8790   74.5260  220.8480 C   0  0  0  0  0  0  0  0  0  0  0  0
  142.7790   74.2180  219.4000 C   0  0  0  0  0  0  0  0  0  0  0  0
  143.1610   73.1250  218.9090 O   0  0  0  0  0  0  0  0  0  0  0  0
  142.2330   75.1760  218.5080 N   0  0  0  0  0  0  0  0  0  0  0  0
  140.9620   75.0530  217.7780 C   0  0  0  0  0  0  0  0  0  0  0  0
  141.3860   75.4870  216.3940 C   0  0  0  0  0  0  0  0  0  0  0  0
  142.3710   76.5660  216.6350 C   0  0  0  0  0  0  0  0  0  0  0  0
  142.7450   76.4660  218.0910 C   0  0  1  0  0  0  0  0  0  0  0  0
  142.0650   77.5780  218.8460 C   0  0  0  0  0  0  0  0  0  0  0  0
  142.2500   78.2520  219.8130 N   0  0  0  0  0  0  0  0  0  0  0  0
  141.5060   79.2000  220.3040 C   0  0  0  0  0  0  0  0  0  0  0  0
  141.8090   79.9810  221.5000 C   0  0  0  0  0  0  0  0  0  0  0  0
  141.3260   81.2600  221.6800 C   0  0  0  0  0  0  0  0  0  0  0  0
  141.6220   81.9880  222.8180 C   0  0  0  0  0  0  0  0  0  0  0  0
  142.4170   81.4500  223.8160 C   0  0  0  0  0  0  0  0  0  0  0  0
  142.9070   80.1760  223.6530 C   0  0  0  0  0  0  0  0  0  0  0  0
  142.5990   79.4720  222.5140 C   0  0  0  0  0  0  0  0  0  0  0  0
  140.3340   79.4310  219.5700 C   0  0  0  0  0  0  0  0  0  0  0  0
  140.4120   78.2070  218.1740 S   0  0  0  0  0  0  0  0  0  0  0  0
  139.6660   76.2990  222.0400 C   0  0  0  0  0  0  0  0  0  0  0  0
  138.3620   76.1950  221.6010 C   0  0  0  0  0  0  0  0  0  0  0  0
  137.4740   77.2200  221.9330 C   0  0  0  0  0  0  0  0  0  0  0  0
  137.8900   78.3040  222.6780 C   0  0  0  0  0  0  0  0  0  0  0  0
  137.0370   79.3250  223.0170 C   0  0  0  0  0  0  0  0  0  0  0  0
  137.5310   80.3630  223.7600 C   0  0  0  0  0  0  0  0  0  0  0  0
  136.4890   81.6930  224.2220 Cl  0  0  0  0  0  0  0  0  0  0  0  0
  138.8510   80.4340  224.1860 C   0  0  0  0  0  0  0  0  0  0  0  0
  139.6890   79.3970  223.8320 C   0  0  0  0  0  0  0  0  0  0  0  0
  139.2160   78.3290  223.0790 C   0  0  0  0  0  0  0  0  0  0  0  0
  140.0860   77.3500  222.7690 N   0  0  0  0  0  0  0  0  0  0  0  0
  142.1090   76.5810  221.0910 H   0  0  0  0  0  0  0  0  0  0  0  0
  143.8925   74.8872  221.0767 H   0  0  0  0  0  0  0  0  0  0  0  0
  142.6732   73.6162  221.4309 H   0  0  0  0  0  0  0  0  0  0  0  0
  140.5919   74.0171  217.7816 H   0  0  0  0  0  0  0  0  0  0  0  0
  140.1338   75.6380  218.2045 H   0  0  0  0  0  0  0  0  0  0  0  0
  141.8488   74.6516  215.8483 H   0  0  0  0  0  0  0  0  0  0  0  0
  140.5371   75.8222  215.7800 H   0  0  0  0  0  0  0  0  0  0  0  0
  143.2585   76.4224  216.0012 H   0  0  0  0  0  0  0  0  0  0  0  0
  141.9546   77.5547  216.3920 H   0  0  0  0  0  0  0  0  0  0  0  0
  143.8262   76.5539  218.2732 H   0  0  0  0  0  0  0  0  0  0  0  0
  140.6920   81.7106  220.9022 H   0  0  0  0  0  0  0  0  0  0  0  0
  141.2213   83.0061  222.9317 H   0  0  0  0  0  0  0  0  0  0  0  0
  142.6516   82.0301  224.7206 H   0  0  0  0  0  0  0  0  0  0  0  0
  143.5414   79.7232  224.4292 H   0  0  0  0  0  0  0  0  0  0  0  0
  143.0005   78.4539  222.4035 H   0  0  0  0  0  0  0  0  0  0  0  0
  139.5457   80.1704  219.7745 H   0  0  0  0  0  0  0  0  0  0  0  0
  138.0318   75.3301  221.0070 H   0  0  0  0  0  0  0  0  0  0  0  0
  136.4285   77.1624  221.5960 H   0  0  0  0  0  0  0  0  0  0  0  0
  135.9839   79.3092  222.6997 H   0  0  0  0  0  0  0  0  0  0  0  0
  139.2141   81.2840  224.7824 H   0  0  0  0  0  0  0  0  0  0  0  0
  140.7422   79.4156  224.1489 H   0  0  0  0  0  0  0  0  0  0  0  0
  1  2  2  0
  2  3  1  0
  3  4  1  0
  4  5  1  0
  5  6  2  0
  5  7  1  0
  7  8  1  0
  8  9  1  0
  9 10  1  0
 10 11  1  0
 11 12  1  0
 12 13  2  0
 13 14  1  0
 14 15  1  0
 15 16  2  0
 16 17  1  0
 17 18  2  0
 18 19  1  0
 19 20  2  0
 14 21  2  0
 21 22  1  0
  2 23  1  0
 23 24  2  0
 24 25  1  0
 25 26  2  0
 26 27  1  0
 27 28  2  0
 28 29  1  0
 28 30  1  0
 30 31  2  0
 31 32  1  0
 32 33  2  0
 11  7  1  0
 22 12  1  0
 33 23  1  0
 20 15  1  0
 32 26  1  0
  3 34  1  0
  4 35  1  0
  4 36  1  0
  8 37  1  0
  8 38  1  0
  9 39  1  0
  9 40  1  0
 10 41  1  0
 10 42  1  0
 11 43  1  6
 16 44  1  0
 17 45  1  0
 18 46  1  0
 19 47  1  0
 20 48  1  0
 21 49  1  0
 24 50  1  0
 25 51  1  0
 27 52  1  0
 30 53  1  0
 31 54  1  0
M  END
>  <smiles>  (33) 
O=C(NCC(=O)N1CCC[C@H]1c1nc(-c2ccccc2)cs1)c1ccc2cc(Cl)ccc2n1

>  <score_type>  (33) 
oracle

>  <origin>  (33) 
autodockgpu

>  <m_score__min__energy>  (33) 
-9.7699999999999996

>  <m_primary>  (33) 
energy

>  <rmsd>  (33) 
6.102518706704437

>  <m_score__min__rmsd>  (33) 
6.102518706704437

>  <meeko>  (33) 
{"free_energy": -7.05, "intermolecular_energy": -8.84, "internal_energy": -4.33, "cluster_size": 17, "cluster_id": 6, "rank_in_cluster": 9}

>  <energy>  (33) 
-6.65

>  <cluster_rmsd>  (33) 
1.99

>  <cluster>  (33) 
7

$$$$

     RDKit          3D

 54 58  0  0  0  0  0  0  0  0999 V2000
  140.0860   74.5110  222.0240 O   0  0  0  0  0  0  0  0  0  0  0  0
  140.5560   75.6060  221.5750 C   0  0  0  0  0  0  0  0  0  0  0  0
  141.8390   75.6410  220.9710 N   0  0  0  0  0  0  0  0  0  0  0  0
  142.6580   74.4370  220.8440 C   0  0  0  0  0  0  0  0  0  0  0  0
  142.9440   74.1800  219.4110 C   0  0  0  0  0  0  0  0  0  0  0  0
  143.5430   73.1490  219.0110 O   0  0  0  0  0  0  0  0  0  0  0  0
  142.5360   75.1180  218.4280 N   0  0  0  0  0  0  0  0  0  0  0  0
  141.3330   75.0230  217.5880 C   0  0  0  0  0  0  0  0  0  0  0  0
  141.9060   75.3620  216.2320 C   0  0  0  0  0  0  0  0  0  0  0  0
  142.9220   76.4010  216.5140 C   0  0  0  0  0  0  0  0  0  0  0  0
  143.1550   76.3570  218.0020 C   0  0  1  0  0  0  0  0  0  0  0  0
  142.4730   77.5390  218.6360 C   0  0  0  0  0  0  0  0  0  0  0  0
  142.4950   78.1460  219.6640 N   0  0  0  0  0  0  0  0  0  0  0  0
  141.7950   79.1860  220.0170 C   0  0  0  0  0  0  0  0  0  0  0  0
  141.8870   79.8720  221.3020 C   0  0  0  0  0  0  0  0  0  0  0  0
  142.4920   79.2940  222.3980 C   0  0  0  0  0  0  0  0  0  0  0  0
  142.5720   79.9560  223.6090 C   0  0  0  0  0  0  0  0  0  0  0  0
  142.0440   81.2280  223.7570 C   0  0  0  0  0  0  0  0  0  0  0  0
  141.4380   81.8200  222.6750 C   0  0  0  0  0  0  0  0  0  0  0  0
  141.3700   81.1410  221.4810 C   0  0  0  0  0  0  0  0  0  0  0  0
  140.9020   79.6220  219.0280 C   0  0  0  0  0  0  0  0  0  0  0  0
  141.1620   78.4440  217.6150 S   0  0  0  0  0  0  0  0  0  0  0  0
  139.7610   76.8460  221.6820 C   0  0  0  0  0  0  0  0  0  0  0  0
  138.9480   77.2090  220.6290 C   0  0  0  0  0  0  0  0  0  0  0  0
  138.2030   78.3840  220.7490 C   0  0  0  0  0  0  0  0  0  0  0  0
  138.2810   79.1580  221.8890 C   0  0  0  0  0  0  0  0  0  0  0  0
  137.5610   80.3180  222.0330 C   0  0  0  0  0  0  0  0  0  0  0  0
  137.6950   81.0250  223.1960 C   0  0  0  0  0  0  0  0  0  0  0  0
  136.8000   82.5120  223.4350 Cl  0  0  0  0  0  0  0  0  0  0  0  0
  138.5250   80.6280  224.2380 C   0  0  0  0  0  0  0  0  0  0  0  0
  139.2390   79.4600  224.0700 C   0  0  0  0  0  0  0  0  0  0  0  0
  139.1230   78.7200  222.8990 C   0  0  0  0  0  0  0  0  0  0  0  0
  139.8470   77.5900  222.8010 N   0  0  0  0  0  0  0  0  0  0  0  0
  142.1600   76.5780  220.6240 H   0  0  0  0  0  0  0  0  0  0  0  0
  143.6043   74.5787  221.3867 H   0  0  0  0  0  0  0  0  0  0  0  0
  142.1157   73.5792  221.2684 H   0  0  0  0  0  0  0  0  0  0  0  0
  140.9065   74.0092  217.6051 H   0  0  0  0  0  0  0  0  0  0  0  0
  140.5033   75.6712  217.9064 H   0  0  0  0  0  0  0  0  0  0  0  0
  142.3707   74.4769  215.7729 H   0  0  0  0  0  0  0  0  0  0  0  0
  141.1371   75.7068  215.5249 H   0  0  0  0  0  0  0  0  0  0  0  0
  143.8547   76.1808  215.9739 H   0  0  0  0  0  0  0  0  0  0  0  0
  142.5843   77.3956  216.1871 H   0  0  0  0  0  0  0  0  0  0  0  0
  144.2181   76.3984  218.2816 H   0  0  0  0  0  0  0  0  0  0  0  0
  142.9200   78.2848  222.3068 H   0  0  0  0  0  0  0  0  0  0  0  0
  143.0605   79.4671  224.4647 H   0  0  0  0  0  0  0  0  0  0  0  0
  142.1085   81.7536  224.7211 H   0  0  0  0  0  0  0  0  0  0  0  0
  141.0104   82.8296  222.7633 H   0  0  0  0  0  0  0  0  0  0  0  0
  140.8803   81.6318  220.6270 H   0  0  0  0  0  0  0  0  0  0  0  0
  140.2042   80.4709  219.0775 H   0  0  0  0  0  0  0  0  0  0  0  0
  138.8881   76.5910  219.7210 H   0  0  0  0  0  0  0  0  0  0  0  0
  137.5456   78.6967  219.9244 H   0  0  0  0  0  0  0  0  0  0  0  0
  136.8931   80.6700  221.2330 H   0  0  0  0  0  0  0  0  0  0  0  0
  138.6090   81.2219  225.1601 H   0  0  0  0  0  0  0  0  0  0  0  0
  139.9071   79.1104  224.8709 H   0  0  0  0  0  0  0  0  0  0  0  0
  1  2  2  0
  2  3  1  0
  3  4  1  0
  4  5  1  0
  5  6  2  0
  5  7  1  0
  7  8  1  0
  8  9  1  0
  9 10  1  0
 10 11  1  0
 11 12  1  0
 12 13  2  0
 13 14  1  0
 14 15  1  0
 15 16  2  0
 16 17  1  0
 17 18  2  0
 18 19  1  0
 19 20  2  0
 14 21  2  0
 21 22  1  0
  2 23  1  0
 23 24  2  0
 24 25  1  0
 25 26  2  0
 26 27  1  0
 27 28  2  0
 28 29  1  0
 28 30  1  0
 30 31  2  0
 31 32  1  0
 32 33  2  0
 11  7  1  0
 22 12  1  0
 33 23  1  0
 20 15  1  0
 32 26  1  0
  3 34  1  0
  4 35  1  0
  4 36  1  0
  8 37  1  0
  8 38  1  0
  9 39  1  0
  9 40  1  0
 10 41  1  0
 10 42  1  0
 11 43  1  6
 16 44  1  0
 17 45  1  0
 18 46  1  0
 19 47  1  0
 20 48  1  0
 21 49  1  0
 24 50  1  0
 25 51  1  0
 27 52  1  0
 30 53  1  0
 31 54  1  0
M  END
>  <smiles>  (34) 
O=C(NCC(=O)N1CCC[C@H]1c1nc(-c2ccccc2)cs1)c1ccc2cc(Cl)ccc2n1

>  <score_type>  (34) 
oracle

>  <origin>  (34) 
autodockgpu

>  <m_score__min__energy>  (34) 
-9.7699999999999996

>  <m_primary>  (34) 
energy

>  <rmsd>  (34) 
6.512761771842705

>  <m_score__min__rmsd>  (34) 
6.512761771842705

>  <meeko>  (34) 
{"free_energy": -6.61, "intermolecular_energy": -8.4, "internal_energy": -4.59, "cluster_size": 17, "cluster_id": 6, "rank_in_cluster": 15}

>  <energy>  (34) 
-6.63

>  <cluster_rmsd>  (34) 
1.98

>  <cluster>  (34) 
7

$$$$

     RDKit          3D

 54 58  0  0  0  0  0  0  0  0999 V2000
  135.5920   75.8630  221.8980 O   0  0  0  0  0  0  0  0  0  0  0  0
  136.8000   75.7010  222.2680 C   0  0  0  0  0  0  0  0  0  0  0  0
  137.3420   74.3960  222.3970 N   0  0  0  0  0  0  0  0  0  0  0  0
  136.5430   73.2060  222.1150 C   0  0  0  0  0  0  0  0  0  0  0  0
  136.9870   72.0920  222.9890 C   0  0  0  0  0  0  0  0  0  0  0  0
  136.2450   71.5750  223.8630 O   0  0  0  0  0  0  0  0  0  0  0  0
  138.2980   71.5660  222.8550 N   0  0  0  0  0  0  0  0  0  0  0  0
  138.6780   70.3740  222.0830 C   0  0  0  0  0  0  0  0  0  0  0  0
  139.5780   69.6690  223.0700 C   0  0  0  0  0  0  0  0  0  0  0  0
  140.3020   70.7670  223.7520 C   0  0  0  0  0  0  0  0  0  0  0  0
  139.5540   72.0290  223.4110 C   0  0  1  0  0  0  0  0  0  0  0  0
  140.3400   72.7980  222.3830 C   0  0  0  0  0  0  0  0  0  0  0  0
  140.3450   73.8810  221.8790 N   0  0  0  0  0  0  0  0  0  0  0  0
  141.1510   74.3600  220.9760 C   0  0  0  0  0  0  0  0  0  0  0  0
  141.0860   75.7050  220.4120 C   0  0  0  0  0  0  0  0  0  0  0  0
  139.9040   76.2540  219.9650 C   0  0  0  0  0  0  0  0  0  0  0  0
  139.8580   77.5300  219.4330 C   0  0  0  0  0  0  0  0  0  0  0  0
  141.0070   78.2980  219.3330 C   0  0  0  0  0  0  0  0  0  0  0  0
  142.1950   77.7660  219.7760 C   0  0  0  0  0  0  0  0  0  0  0  0
  142.2150   76.4960  220.3010 C   0  0  0  0  0  0  0  0  0  0  0  0
  142.1340   73.4500  220.5630 C   0  0  0  0  0  0  0  0  0  0  0  0
  141.7950   71.9160  221.5550 S   0  0  0  0  0  0  0  0  0  0  0  0
  137.6430   76.8780  222.5630 C   0  0  0  0  0  0  0  0  0  0  0  0
  137.0390   78.1090  222.7090 C   0  0  0  0  0  0  0  0  0  0  0  0
  137.8520   79.2090  222.9890 C   0  0  0  0  0  0  0  0  0  0  0  0
  139.2180   79.0660  223.1140 C   0  0  0  0  0  0  0  0  0  0  0  0
  140.0400   80.1320  223.3890 C   0  0  0  0  0  0  0  0  0  0  0  0
  141.3850   79.9030  223.4980 C   0  0  0  0  0  0  0  0  0  0  0  0
  142.4810   81.2240  223.8470 Cl  0  0  0  0  0  0  0  0  0  0  0  0
  141.9580   78.6470  223.3450 C   0  0  0  0  0  0  0  0  0  0  0  0
  141.1130   77.5920  223.0700 C   0  0  0  0  0  0  0  0  0  0  0  0
  139.7420   77.7940  222.9530 C   0  0  0  0  0  0  0  0  0  0  0  0
  138.9740   76.7220  222.6840 N   0  0  0  0  0  0  0  0  0  0  0  0
  138.3430   74.3410  222.7060 H   0  0  0  0  0  0  0  0  0  0  0  0
  135.4820   73.4228  222.3082 H   0  0  0  0  0  0  0  0  0  0  0  0
  136.6733   72.9188  221.0612 H   0  0  0  0  0  0  0  0  0  0  0  0
  137.8008   69.7617  221.8267 H   0  0  0  0  0  0  0  0  0  0  0  0
  139.1496   70.5920  221.1134 H   0  0  0  0  0  0  0  0  0  0  0  0
  138.9855   69.0860  223.7905 H   0  0  0  0  0  0  0  0  0  0  0  0
  140.2584   68.9547  222.5834 H   0  0  0  0  0  0  0  0  0  0  0  0
  140.3044   70.6058  224.8401 H   0  0  0  0  0  0  0  0  0  0  0  0
  141.3521   70.8201  223.4289 H   0  0  0  0  0  0  0  0  0  0  0  0
  139.3976   72.6930  224.2739 H   0  0  0  0  0  0  0  0  0  0  0  0
  138.9774   75.6651  220.0326 H   0  0  0  0  0  0  0  0  0  0  0  0
  138.8982   77.9398  219.0853 H   0  0  0  0  0  0  0  0  0  0  0  0
  140.9695   79.3119  218.9081 H   0  0  0  0  0  0  0  0  0  0  0  0
  143.1231   78.3529  219.7107 H   0  0  0  0  0  0  0  0  0  0  0  0
  143.1755   76.0890  220.6498 H   0  0  0  0  0  0  0  0  0  0  0  0
  142.9281   73.6085  219.8185 H   0  0  0  0  0  0  0  0  0  0  0  0
  135.9494   78.2210  222.6079 H   0  0  0  0  0  0  0  0  0  0  0  0
  137.3970   80.2029  223.1115 H   0  0  0  0  0  0  0  0  0  0  0  0
  139.6277   81.1436  223.5183 H   0  0  0  0  0  0  0  0  0  0  0  0
  143.0439   78.4993  223.4395 H   0  0  0  0  0  0  0  0  0  0  0  0
  141.5275   76.5812  222.9420 H   0  0  0  0  0  0  0  0  0  0  0  0
  1  2  2  0
  2  3  1  0
  3  4  1  0
  4  5  1  0
  5  6  2  0
  5  7  1  0
  7  8  1  0
  8  9  1  0
  9 10  1  0
 10 11  1  0
 11 12  1  0
 12 13  2  0
 13 14  1  0
 14 15  1  0
 15 16  2  0
 16 17  1  0
 17 18  2  0
 18 19  1  0
 19 20  2  0
 14 21  2  0
 21 22  1  0
  2 23  1  0
 23 24  2  0
 24 25  1  0
 25 26  2  0
 26 27  1  0
 27 28  2  0
 28 29  1  0
 28 30  1  0
 30 31  2  0
 31 32  1  0
 32 33  2  0
 11  7  1  0
 22 12  1  0
 33 23  1  0
 20 15  1  0
 32 26  1  0
  3 34  1  0
  4 35  1  0
  4 36  1  0
  8 37  1  0
  8 38  1  0
  9 39  1  0
  9 40  1  0
 10 41  1  0
 10 42  1  0
 11 43  1  1
 16 44  1  0
 17 45  1  0
 18 46  1  0
 19 47  1  0
 20 48  1  0
 21 49  1  0
 24 50  1  0
 25 51  1  0
 27 52  1  0
 30 53  1  0
 31 54  1  0
M  END
>  <smiles>  (35) 
O=C(NCC(=O)N1CCC[C@H]1c1nc(-c2ccccc2)cs1)c1ccc2cc(Cl)ccc2n1

>  <score_type>  (35) 
oracle

>  <origin>  (35) 
autodockgpu

>  <m_score__min__energy>  (35) 
-9.7699999999999996

>  <m_primary>  (35) 
energy

>  <rmsd>  (35) 
7.2816468436286375

>  <m_score__min__rmsd>  (35) 
7.2816468436286375

>  <meeko>  (35) 
{"free_energy": -6.74, "intermolecular_energy": -8.53, "internal_energy": -4.2, "cluster_size": 1, "cluster_id": 11, "rank_in_cluster": 1}

>  <energy>  (35) 
-6.62

>  <cluster_rmsd>  (35) 
1.98

>  <cluster>  (35) 
7

$$$$

     RDKit          3D

 54 58  0  0  0  0  0  0  0  0999 V2000
  140.2460   74.3360  221.9330 O   0  0  0  0  0  0  0  0  0  0  0  0
  140.6960   75.4720  221.5720 C   0  0  0  0  0  0  0  0  0  0  0  0
  141.9980   75.5830  221.0180 N   0  0  0  0  0  0  0  0  0  0  0  0
  142.8570   74.4140  220.8450 C   0  0  0  0  0  0  0  0  0  0  0  0
  143.3180   74.3410  219.4360 C   0  0  0  0  0  0  0  0  0  0  0  0
  144.2140   73.5450  219.0540 O   0  0  0  0  0  0  0  0  0  0  0  0
  142.7430   75.1920  218.4580 N   0  0  0  0  0  0  0  0  0  0  0  0
  141.4770   74.9600  217.7460 C   0  0  0  0  0  0  0  0  0  0  0  0
  141.8880   75.2710  216.3260 C   0  0  0  0  0  0  0  0  0  0  0  0
  142.8380   76.3990  216.4590 C   0  0  0  0  0  0  0  0  0  0  0  0
  143.2150   76.4510  217.9170 C   0  0  1  0  0  0  0  0  0  0  0  0
  142.5010   77.6080  218.5640 C   0  0  0  0  0  0  0  0  0  0  0  0
  142.5390   78.2350  219.5780 N   0  0  0  0  0  0  0  0  0  0  0  0
  141.8020   79.2430  219.9460 C   0  0  0  0  0  0  0  0  0  0  0  0
  141.9170   79.9580  221.2140 C   0  0  0  0  0  0  0  0  0  0  0  0
  141.3850   81.2170  221.3950 C   0  0  0  0  0  0  0  0  0  0  0  0
  141.5020   81.8820  222.6010 C   0  0  0  0  0  0  0  0  0  0  0  0
  142.1620   81.2990  223.6710 C   0  0  0  0  0  0  0  0  0  0  0  0
  142.6980   80.0440  223.5080 C   0  0  0  0  0  0  0  0  0  0  0  0
  142.5680   79.4030  222.2990 C   0  0  0  0  0  0  0  0  0  0  0  0
  140.8420   79.6140  218.9940 C   0  0  0  0  0  0  0  0  0  0  0  0
  141.0980   78.4240  217.5900 S   0  0  0  0  0  0  0  0  0  0  0  0
  139.8600   76.6790  221.7290 C   0  0  0  0  0  0  0  0  0  0  0  0
  138.8830   76.9390  220.7900 C   0  0  0  0  0  0  0  0  0  0  0  0
  138.1030   78.0840  220.9560 C   0  0  0  0  0  0  0  0  0  0  0  0
  138.3040   78.9290  222.0280 C   0  0  0  0  0  0  0  0  0  0  0  0
  137.5510   80.0620  222.2150 C   0  0  0  0  0  0  0  0  0  0  0  0
  137.8160   80.8460  223.3050 C   0  0  0  0  0  0  0  0  0  0  0  0
  136.8860   82.3030  223.5940 Cl  0  0  0  0  0  0  0  0  0  0  0  0
  138.8080   80.5510  224.2310 C   0  0  0  0  0  0  0  0  0  0  0  0
  139.5520   79.4090  224.0230 C   0  0  0  0  0  0  0  0  0  0  0  0
  139.3060   78.5930  222.9240 C   0  0  0  0  0  0  0  0  0  0  0  0
  140.0680   77.4930  222.7800 N   0  0  0  0  0  0  0  0  0  0  0  0
  142.3010   76.5490  220.7430 H   0  0  0  0  0  0  0  0  0  0  0  0
  143.7280   74.4975  221.5116 H   0  0  0  0  0  0  0  0  0  0  0  0
  142.2908   73.5039  221.0925 H   0  0  0  0  0  0  0  0  0  0  0  0
  141.1391   73.9184  217.8505 H   0  0  0  0  0  0  0  0  0  0  0  0
  140.6309   75.5578  218.1159 H   0  0  0  0  0  0  0  0  0  0  0  0
  142.3776   74.4017  215.8628 H   0  0  0  0  0  0  0  0  0  0  0  0
  141.0293   75.5180  215.6844 H   0  0  0  0  0  0  0  0  0  0  0  0
  143.7296   76.2235  215.8392 H   0  0  0  0  0  0  0  0  0  0  0  0
  142.3903   77.3461  216.1234 H   0  0  0  0  0  0  0  0  0  0  0  0
  144.2931   76.5893  218.0860 H   0  0  0  0  0  0  0  0  0  0  0  0
  140.8561   81.7027  220.5617 H   0  0  0  0  0  0  0  0  0  0  0  0
  141.0661   82.8858  222.7128 H   0  0  0  0  0  0  0  0  0  0  0  0
  142.2549   81.8293  224.6302 H   0  0  0  0  0  0  0  0  0  0  0  0
  143.2275   79.5558  224.3394 H   0  0  0  0  0  0  0  0  0  0  0  0
  143.0036   78.3988  222.1899 H   0  0  0  0  0  0  0  0  0  0  0  0
  140.1036   80.4264  219.0627 H   0  0  0  0  0  0  0  0  0  0  0  0
  138.7238   76.2639  219.9362 H   0  0  0  0  0  0  0  0  0  0  0  0
  137.3171   78.3161  220.2222 H   0  0  0  0  0  0  0  0  0  0  0  0
  136.7545   80.3327  221.5062 H   0  0  0  0  0  0  0  0  0  0  0  0
  138.9931   81.2034  225.0971 H   0  0  0  0  0  0  0  0  0  0  0  0
  140.3480   79.1407  224.7332 H   0  0  0  0  0  0  0  0  0  0  0  0
  1  2  2  0
  2  3  1  0
  3  4  1  0
  4  5  1  0
  5  6  2  0
  5  7  1  0
  7  8  1  0
  8  9  1  0
  9 10  1  0
 10 11  1  0
 11 12  1  0
 12 13  2  0
 13 14  1  0
 14 15  1  0
 15 16  2  0
 16 17  1  0
 17 18  2  0
 18 19  1  0
 19 20  2  0
 14 21  2  0
 21 22  1  0
  2 23  1  0
 23 24  2  0
 24 25  1  0
 25 26  2  0
 26 27  1  0
 27 28  2  0
 28 29  1  0
 28 30  1  0
 30 31  2  0
 31 32  1  0
 32 33  2  0
 11  7  1  0
 22 12  1  0
 33 23  1  0
 20 15  1  0
 32 26  1  0
  3 34  1  0
  4 35  1  0
  4 36  1  0
  8 37  1  0
  8 38  1  0
  9 39  1  0
  9 40  1  0
 10 41  1  0
 10 42  1  0
 11 43  1  6
 16 44  1  0
 17 45  1  0
 18 46  1  0
 19 47  1  0
 20 48  1  0
 21 49  1  0
 24 50  1  0
 25 51  1  0
 27 52  1  0
 30 53  1  0
 31 54  1  0
M  END
>  <smiles>  (36) 
O=C(NCC(=O)N1CCC[C@H]1c1nc(-c2ccccc2)cs1)c1ccc2cc(Cl)ccc2n1

>  <score_type>  (36) 
oracle

>  <origin>  (36) 
autodockgpu

>  <m_score__min__energy>  (36) 
-9.7699999999999996

>  <m_primary>  (36) 
energy

>  <rmsd>  (36) 
6.4380550682064595

>  <m_score__min__rmsd>  (36) 
6.4380550682064595

>  <meeko>  (36) 
{"free_energy": -6.83, "intermolecular_energy": -8.62, "internal_energy": -4.58, "cluster_size": 17, "cluster_id": 6, "rank_in_cluster": 14}

>  <energy>  (36) 
-6.57

>  <cluster_rmsd>  (36) 
1.99

>  <cluster>  (36) 
7

$$$$

     RDKit          3D

 54 58  0  0  0  0  0  0  0  0999 V2000
  139.5530   75.0460  222.3490 O   0  0  0  0  0  0  0  0  0  0  0  0
  139.0830   76.1780  222.0020 C   0  0  0  0  0  0  0  0  0  0  0  0
  137.7580   76.5420  222.3550 N   0  0  0  0  0  0  0  0  0  0  0  0
  136.8950   75.6430  223.1180 C   0  0  0  0  0  0  0  0  0  0  0  0
  135.4830   76.0830  222.9910 C   0  0  0  0  0  0  0  0  0  0  0  0
  134.5570   75.3050  222.6470 O   0  0  0  0  0  0  0  0  0  0  0  0
  135.1350   77.4310  223.2640 N   0  0  0  0  0  0  0  0  0  0  0  0
  134.3750   77.9090  224.4280 C   0  0  0  0  0  0  0  0  0  0  0  0
  133.3900   78.8410  223.7620 C   0  0  0  0  0  0  0  0  0  0  0  0
  134.1660   79.4720  222.6700 C   0  0  0  0  0  0  0  0  0  0  0  0
  135.4120   78.6400  222.5140 C   0  0  1  0  0  0  0  0  0  0  0  0
  136.5730   79.3850  223.1170 C   0  0  0  0  0  0  0  0  0  0  0  0
  137.7620   79.4250  223.0220 N   0  0  0  0  0  0  0  0  0  0  0  0
  138.6090   80.1800  223.6610 C   0  0  0  0  0  0  0  0  0  0  0  0
  140.0580   80.1660  223.4820 C   0  0  0  0  0  0  0  0  0  0  0  0
  140.7470   81.2620  223.0070 C   0  0  0  0  0  0  0  0  0  0  0  0
  142.1200   81.2340  222.8430 C   0  0  0  0  0  0  0  0  0  0  0  0
  142.8470   80.0960  223.1530 C   0  0  0  0  0  0  0  0  0  0  0  0
  142.1760   78.9950  223.6280 C   0  0  0  0  0  0  0  0  0  0  0  0
  140.8120   79.0470  223.7830 C   0  0  0  0  0  0  0  0  0  0  0  0
  138.0040   81.0510  224.5780 C   0  0  0  0  0  0  0  0  0  0  0  0
  136.1870   80.6890  224.4320 S   0  0  0  0  0  0  0  0  0  0  0  0
  139.9210   77.1170  221.2300 C   0  0  0  0  0  0  0  0  0  0  0  0
  141.2060   76.7420  220.8960 C   0  0  0  0  0  0  0  0  0  0  0  0
  141.9820   77.6440  220.1650 C   0  0  0  0  0  0  0  0  0  0  0  0
  141.4770   78.8710  219.7900 C   0  0  0  0  0  0  0  0  0  0  0  0
  142.2200   79.7760  219.0710 C   0  0  0  0  0  0  0  0  0  0  0  0
  141.6430   80.9710  218.7390 C   0  0  0  0  0  0  0  0  0  0  0  0
  142.5420   82.1630  217.8230 Cl  0  0  0  0  0  0  0  0  0  0  0  0
  140.3440   81.3140  219.0930 C   0  0  0  0  0  0  0  0  0  0  0  0
  139.6180   80.3900  219.8140 C   0  0  0  0  0  0  0  0  0  0  0  0
  140.1770   79.1670  220.1670 C   0  0  0  0  0  0  0  0  0  0  0  0
  139.4140   78.3110  220.8700 N   0  0  0  0  0  0  0  0  0  0  0  0
  137.4390   77.4890  222.0350 H   0  0  0  0  0  0  0  0  0  0  0  0
  136.9962   74.6195  222.7279 H   0  0  0  0  0  0  0  0  0  0  0  0
  137.1907   75.6637  224.1773 H   0  0  0  0  0  0  0  0  0  0  0  0
  133.8645   77.0830  224.9447 H   0  0  0  0  0  0  0  0  0  0  0  0
  134.9891   78.3796  225.2099 H   0  0  0  0  0  0  0  0  0  0  0  0
  132.5342   78.2801  223.3584 H   0  0  0  0  0  0  0  0  0  0  0  0
  132.9706   79.5794  224.4612 H   0  0  0  0  0  0  0  0  0  0  0  0
  133.5845   79.4688  221.7362 H   0  0  0  0  0  0  0  0  0  0  0  0
  134.4069   80.5204  222.8997 H   0  0  0  0  0  0  0  0  0  0  0  0
  135.6655   78.4214  221.4662 H   0  0  0  0  0  0  0  0  0  0  0  0
  140.1930   82.1778  222.7532 H   0  0  0  0  0  0  0  0  0  0  0  0
  142.6406   82.1251  222.4622 H   0  0  0  0  0  0  0  0  0  0  0  0
  143.9389   80.0744  223.0216 H   0  0  0  0  0  0  0  0  0  0  0  0
  142.7275   78.0779  223.8825 H   0  0  0  0  0  0  0  0  0  0  0  0
  140.2945   78.1548  224.1653 H   0  0  0  0  0  0  0  0  0  0  0  0
  138.4944   81.7837  225.2358 H   0  0  0  0  0  0  0  0  0  0  0  0
  141.6069   75.7627  221.1963 H   0  0  0  0  0  0  0  0  0  0  0  0
  143.0102   77.3719  219.8845 H   0  0  0  0  0  0  0  0  0  0  0  0
  143.2526   79.5454  218.7700 H   0  0  0  0  0  0  0  0  0  0  0  0
  139.9117   82.2848  218.8091 H   0  0  0  0  0  0  0  0  0  0  0  0
  138.5854   80.6229  220.1132 H   0  0  0  0  0  0  0  0  0  0  0  0
  1  2  2  0
  2  3  1  0
  3  4  1  0
  4  5  1  0
  5  6  2  0
  5  7  1  0
  7  8  1  0
  8  9  1  0
  9 10  1  0
 10 11  1  0
 11 12  1  0
 12 13  2  0
 13 14  1  0
 14 15  1  0
 15 16  2  0
 16 17  1  0
 17 18  2  0
 18 19  1  0
 19 20  2  0
 14 21  2  0
 21 22  1  0
  2 23  1  0
 23 24  2  0
 24 25  1  0
 25 26  2  0
 26 27  1  0
 27 28  2  0
 28 29  1  0
 28 30  1  0
 30 31  2  0
 31 32  1  0
 32 33  2  0
 11  7  1  0
 22 12  1  0
 33 23  1  0
 20 15  1  0
 32 26  1  0
  3 34  1  0
  4 35  1  0
  4 36  1  0
  8 37  1  0
  8 38  1  0
  9 39  1  0
  9 40  1  0
 10 41  1  0
 10 42  1  0
 11 43  1  6
 16 44  1  0
 17 45  1  0
 18 46  1  0
 19 47  1  0
 20 48  1  0
 21 49  1  0
 24 50  1  0
 25 51  1  0
 27 52  1  0
 30 53  1  0
 31 54  1  0
M  END
>  <smiles>  (37) 
O=C(NCC(=O)N1CCC[C@H]1c1nc(-c2ccccc2)cs1)c1ccc2cc(Cl)ccc2n1

>  <score_type>  (37) 
oracle

>  <origin>  (37) 
autodockgpu

>  <m_score__min__energy>  (37) 
-9.7699999999999996

>  <m_primary>  (37) 
energy

>  <rmsd>  (37) 
8.09864096648008

>  <m_score__min__rmsd>  (37) 
8.09864096648008

>  <meeko>  (37) 
{"free_energy": -6.58, "intermolecular_energy": -8.37, "internal_energy": -4.59, "cluster_size": 7, "cluster_id": 10, "rank_in_cluster": 3}

>  <energy>  (37) 
-6.92

>  <cluster_rmsd>  (37) 
0.0

>  <cluster>  (37) 
8

$$$$

     RDKit          3D

 54 58  0  0  0  0  0  0  0  0999 V2000
  138.8240   71.9340  220.8210 O   0  0  0  0  0  0  0  0  0  0  0  0
  139.1420   72.3780  221.9720 C   0  0  0  0  0  0  0  0  0  0  0  0
  139.2500   73.7740  222.1970 N   0  0  0  0  0  0  0  0  0  0  0  0
  139.0040   74.7420  221.1300 C   0  0  0  0  0  0  0  0  0  0  0  0
  138.9670   76.1110  221.7020 C   0  0  0  0  0  0  0  0  0  0  0  0
  137.9430   76.5920  222.2510 O   0  0  0  0  0  0  0  0  0  0  0  0
  140.1210   76.9350  221.6410 N   0  0  0  0  0  0  0  0  0  0  0  0
  141.0820   77.1590  222.7320 C   0  0  0  0  0  0  0  0  0  0  0  0
  141.2360   78.6600  222.6720 C   0  0  0  0  0  0  0  0  0  0  0  0
  141.1790   78.9760  221.2260 C   0  0  0  0  0  0  0  0  0  0  0  0
  140.6410   77.7400  220.5540 C   0  0  1  0  0  0  0  0  0  0  0  0
  141.7740   77.0300  219.8620 C   0  0  0  0  0  0  0  0  0  0  0  0
  142.5170   76.1170  220.0580 N   0  0  0  0  0  0  0  0  0  0  0  0
  143.4580   75.6480  219.2910 C   0  0  0  0  0  0  0  0  0  0  0  0
  144.3270   74.5180  219.6110 C   0  0  0  0  0  0  0  0  0  0  0  0
  144.4500   73.4310  218.7720 C   0  0  0  0  0  0  0  0  0  0  0  0
  145.2770   72.3680  219.0890 C   0  0  0  0  0  0  0  0  0  0  0  0
  146.0100   72.3660  220.2640 C   0  0  0  0  0  0  0  0  0  0  0  0
  145.8990   73.4430  221.1110 C   0  0  0  0  0  0  0  0  0  0  0  0
  145.0710   74.4870  220.7750 C   0  0  0  0  0  0  0  0  0  0  0  0
  143.5870   76.3360  218.0770 C   0  0  0  0  0  0  0  0  0  0  0  0
  142.2820   77.6570  218.1510 S   0  0  0  0  0  0  0  0  0  0  0  0
  139.4000   71.4340  223.0780 C   0  0  0  0  0  0  0  0  0  0  0  0
  139.0600   70.1070  222.9140 C   0  0  0  0  0  0  0  0  0  0  0  0
  139.3110   69.2300  223.9710 C   0  0  0  0  0  0  0  0  0  0  0  0
  139.8830   69.6800  225.1430 C   0  0  0  0  0  0  0  0  0  0  0  0
  140.1410   68.8380  226.1980 C   0  0  0  0  0  0  0  0  0  0  0  0
  140.7110   69.3660  227.3240 C   0  0  0  0  0  0  0  0  0  0  0  0
  141.0630   68.3400  228.7000 Cl  0  0  0  0  0  0  0  0  0  0  0  0
  141.0410   70.7090  227.4540 C   0  0  0  0  0  0  0  0  0  0  0  0
  140.7730   71.5340  226.3820 C   0  0  0  0  0  0  0  0  0  0  0  0
  140.1940   71.0280  225.2240 C   0  0  0  0  0  0  0  0  0  0  0  0
  139.9590   71.8870  224.2150 N   0  0  0  0  0  0  0  0  0  0  0  0
  139.5160   74.0650  223.1690 H   0  0  0  0  0  0  0  0  0  0  0  0
  139.8099   74.6781  220.3841 H   0  0  0  0  0  0  0  0  0  0  0  0
  138.0401   74.5198  220.6488 H   0  0  0  0  0  0  0  0  0  0  0  0
  140.6771   76.8323  223.7012 H   0  0  0  0  0  0  0  0  0  0  0  0
  142.0243   76.6007  222.6298 H   0  0  0  0  0  0  0  0  0  0  0  0
  140.4172   79.1577  223.2122 H   0  0  0  0  0  0  0  0  0  0  0  0
  142.1687   79.0060  223.1415 H   0  0  0  0  0  0  0  0  0  0  0  0
  140.5099   79.8306  221.0472 H   0  0  0  0  0  0  0  0  0  0  0  0
  142.1692   79.2505  220.8334 H   0  0  0  0  0  0  0  0  0  0  0  0
  139.8705   77.9519  219.7981 H   0  0  0  0  0  0  0  0  0  0  0  0
  143.8793   73.4083  217.8319 H   0  0  0  0  0  0  0  0  0  0  0  0
  145.3532   71.5143  218.3995 H   0  0  0  0  0  0  0  0  0  0  0  0
  146.6673   71.5202  220.5143 H   0  0  0  0  0  0  0  0  0  0  0  0
  146.4691   73.4690  222.0514 H   0  0  0  0  0  0  0  0  0  0  0  0
  144.9969   75.3394  221.4663 H   0  0  0  0  0  0  0  0  0  0  0  0
  144.3003   76.1385  217.2632 H   0  0  0  0  0  0  0  0  0  0  0  0
  138.6047   69.7505  221.9783 H   0  0  0  0  0  0  0  0  0  0  0  0
  139.0493   68.1666  223.8679 H   0  0  0  0  0  0  0  0  0  0  0  0
  139.8956   67.7674  226.1386 H   0  0  0  0  0  0  0  0  0  0  0  0
  141.4980   71.0990  228.3755 H   0  0  0  0  0  0  0  0  0  0  0  0
  141.0201   72.6041  226.4439 H   0  0  0  0  0  0  0  0  0  0  0  0
  1  2  2  0
  2  3  1  0
  3  4  1  0
  4  5  1  0
  5  6  2  0
  5  7  1  0
  7  8  1  0
  8  9  1  0
  9 10  1  0
 10 11  1  0
 11 12  1  0
 12 13  2  0
 13 14  1  0
 14 15  1  0
 15 16  2  0
 16 17  1  0
 17 18  2  0
 18 19  1  0
 19 20  2  0
 14 21  2  0
 21 22  1  0
  2 23  1  0
 23 24  2  0
 24 25  1  0
 25 26  2  0
 26 27  1  0
 27 28  2  0
 28 29  1  0
 28 30  1  0
 30 31  2  0
 31 32  1  0
 32 33  2  0
 11  7  1  0
 22 12  1  0
 33 23  1  0
 20 15  1  0
 32 26  1  0
  3 34  1  0
  4 35  1  0
  4 36  1  0
  8 37  1  0
  8 38  1  0
  9 39  1  0
  9 40  1  0
 10 41  1  0
 10 42  1  0
 11 43  1  6
 16 44  1  0
 17 45  1  0
 18 46  1  0
 19 47  1  0
 20 48  1  0
 21 49  1  0
 24 50  1  0
 25 51  1  0
 27 52  1  0
 30 53  1  0
 31 54  1  0
M  END
>  <smiles>  (38) 
O=C(NCC(=O)N1CCC[C@H]1c1nc(-c2ccccc2)cs1)c1ccc2cc(Cl)ccc2n1

>  <score_type>  (38) 
oracle

>  <origin>  (38) 
autodockgpu

>  <m_score__min__energy>  (38) 
-9.7699999999999996

>  <m_primary>  (38) 
energy

>  <rmsd>  (38) 
5.376091846128369

>  <m_score__min__rmsd>  (38) 
5.376091846128369

>  <meeko>  (38) 
{"free_energy": -9.56, "intermolecular_energy": -11.35, "internal_energy": -1.95, "cluster_size": 5, "cluster_id": 1, "rank_in_cluster": 3}

>  <energy>  (38) 
-6.53

>  <cluster_rmsd>  (38) 
0.46

>  <cluster>  (38) 
8

$$$$

     RDKit          3D

 54 58  0  0  0  0  0  0  0  0999 V2000
  138.0040   75.2870  222.4840 O   0  0  0  0  0  0  0  0  0  0  0  0
  139.1460   75.7190  222.1220 C   0  0  0  0  0  0  0  0  0  0  0  0
  139.4280   77.1090  222.1530 N   0  0  0  0  0  0  0  0  0  0  0  0
  138.4320   78.0820  222.5950 C   0  0  0  0  0  0  0  0  0  0  0  0
  139.1120   79.2160  223.2700 C   0  0  0  0  0  0  0  0  0  0  0  0
  138.5480   79.9260  224.1420 O   0  0  0  0  0  0  0  0  0  0  0  0
  140.4540   79.5360  222.9380 N   0  0  0  0  0  0  0  0  0  0  0  0
  141.6550   78.8510  223.4390 C   0  0  0  0  0  0  0  0  0  0  0  0
  142.5220   80.0310  223.8090 C   0  0  0  0  0  0  0  0  0  0  0  0
  142.2340   81.0390  222.7630 C   0  0  0  0  0  0  0  0  0  0  0  0
  140.9830   80.5670  222.0680 C   0  0  1  0  0  0  0  0  0  0  0  0
  141.3590   79.9910  220.7290 C   0  0  0  0  0  0  0  0  0  0  0  0
  141.4730   78.9220  220.2090 N   0  0  0  0  0  0  0  0  0  0  0  0
  141.8180   78.6390  218.9860 C   0  0  0  0  0  0  0  0  0  0  0  0
  141.9320   77.2950  218.4280 C   0  0  0  0  0  0  0  0  0  0  0  0
  140.8910   76.3920  218.4770 C   0  0  0  0  0  0  0  0  0  0  0  0
  141.0140   75.1220  217.9440 C   0  0  0  0  0  0  0  0  0  0  0  0
  142.1930   74.7170  217.3420 C   0  0  0  0  0  0  0  0  0  0  0  0
  143.2410   75.6050  217.2840 C   0  0  0  0  0  0  0  0  0  0  0  0
  143.0950   76.8620  217.8200 C   0  0  0  0  0  0  0  0  0  0  0  0
  142.0850   79.7710  218.2030 C   0  0  0  0  0  0  0  0  0  0  0  0
  141.8030   81.2060  219.3480 S   0  0  0  0  0  0  0  0  0  0  0  0
  140.1820   74.7700  221.6670 C   0  0  0  0  0  0  0  0  0  0  0  0
  139.8890   73.4220  221.6520 C   0  0  0  0  0  0  0  0  0  0  0  0
  140.8810   72.5400  221.2180 C   0  0  0  0  0  0  0  0  0  0  0  0
  142.1160   73.0060  220.8180 C   0  0  0  0  0  0  0  0  0  0  0  0
  143.1090   72.1600  220.3880 C   0  0  0  0  0  0  0  0  0  0  0  0
  144.3060   72.7050  220.0070 C   0  0  0  0  0  0  0  0  0  0  0  0
  145.6080   71.6740  219.4490 Cl  0  0  0  0  0  0  0  0  0  0  0  0
  144.5650   74.0690  220.0350 C   0  0  0  0  0  0  0  0  0  0  0  0
  143.5530   74.8980  220.4710 C   0  0  0  0  0  0  0  0  0  0  0  0
  142.3260   74.3750  220.8640 C   0  0  0  0  0  0  0  0  0  0  0  0
  141.3820   75.2400  221.2780 N   0  0  0  0  0  0  0  0  0  0  0  0
  140.3890   77.3920  221.8390 H   0  0  0  0  0  0  0  0  0  0  0  0
  137.8731   78.4556  221.7243 H   0  0  0  0  0  0  0  0  0  0  0  0
  137.7369   77.6006  223.2986 H   0  0  0  0  0  0  0  0  0  0  0  0
  141.4282   78.2252  224.3148 H   0  0  0  0  0  0  0  0  0  0  0  0
  142.1150   78.1559  222.7211 H   0  0  0  0  0  0  0  0  0  0  0  0
  142.2537   80.4148  224.8044 H   0  0  0  0  0  0  0  0  0  0  0  0
  143.5893   79.7693  223.8580 H   0  0  0  0  0  0  0  0  0  0  0  0
  142.0693   82.0267  223.2184 H   0  0  0  0  0  0  0  0  0  0  0  0
  143.0730   81.1416  222.0590 H   0  0  0  0  0  0  0  0  0  0  0  0
  140.2499   81.3679  221.8915 H   0  0  0  0  0  0  0  0  0  0  0  0
  139.9430   76.6881  218.9499 H   0  0  0  0  0  0  0  0  0  0  0  0
  140.1647   74.4251  217.9990 H   0  0  0  0  0  0  0  0  0  0  0  0
  142.2893   73.7062  216.9190 H   0  0  0  0  0  0  0  0  0  0  0  0
  144.1900   75.3113  216.8117 H   0  0  0  0  0  0  0  0  0  0  0  0
  143.9454   77.5574  217.7623 H   0  0  0  0  0  0  0  0  0  0  0  0
  142.3925   79.8023  217.1473 H   0  0  0  0  0  0  0  0  0  0  0  0
  138.9035   73.0529  221.9723 H   0  0  0  0  0  0  0  0  0  0  0  0
  140.6748   71.4598  221.1949 H   0  0  0  0  0  0  0  0  0  0  0  0
  142.9468   71.0727  220.3507 H   0  0  0  0  0  0  0  0  0  0  0  0
  145.5392   74.4723  219.7217 H   0  0  0  0  0  0  0  0  0  0  0  0
  143.7182   75.9849  220.5083 H   0  0  0  0  0  0  0  0  0  0  0  0
  1  2  2  0
  2  3  1  0
  3  4  1  0
  4  5  1  0
  5  6  2  0
  5  7  1  0
  7  8  1  0
  8  9  1  0
  9 10  1  0
 10 11  1  0
 11 12  1  0
 12 13  2  0
 13 14  1  0
 14 15  1  0
 15 16  2  0
 16 17  1  0
 17 18  2  0
 18 19  1  0
 19 20  2  0
 14 21  2  0
 21 22  1  0
  2 23  1  0
 23 24  2  0
 24 25  1  0
 25 26  2  0
 26 27  1  0
 27 28  2  0
 28 29  1  0
 28 30  1  0
 30 31  2  0
 31 32  1  0
 32 33  2  0
 11  7  1  0
 22 12  1  0
 33 23  1  0
 20 15  1  0
 32 26  1  0
  3 34  1  0
  4 35  1  0
  4 36  1  0
  8 37  1  0
  8 38  1  0
  9 39  1  0
  9 40  1  0
 10 41  1  0
 10 42  1  0
 11 43  1  6
 16 44  1  0
 17 45  1  0
 18 46  1  0
 19 47  1  0
 20 48  1  0
 21 49  1  0
 24 50  1  0
 25 51  1  0
 27 52  1  0
 30 53  1  0
 31 54  1  0
M  END
>  <smiles>  (39) 
O=C(NCC(=O)N1CCC[C@H]1c1nc(-c2ccccc2)cs1)c1ccc2cc(Cl)ccc2n1

>  <score_type>  (39) 
oracle

>  <origin>  (39) 
autodockgpu

>  <m_score__min__energy>  (39) 
-9.7699999999999996

>  <m_primary>  (39) 
energy

>  <rmsd>  (39) 
6.4549530422546235

>  <m_score__min__rmsd>  (39) 
6.4549530422546235

>  <meeko>  (39) 
{"free_energy": -6.92, "intermolecular_energy": -8.71, "internal_energy": -4.02, "cluster_size": 2, "cluster_id": 8, "rank_in_cluster": 1}

>  <energy>  (39) 
-6.9

>  <cluster_rmsd>  (39) 
0.0

>  <cluster>  (39) 
9

$$$$

     RDKit          3D

 54 58  0  0  0  0  0  0  0  0999 V2000
  138.8460   77.4590  222.9680 O   0  0  0  0  0  0  0  0  0  0  0  0
  139.8950   76.9540  222.4510 C   0  0  0  0  0  0  0  0  0  0  0  0
  141.1470   77.6060  222.5890 N   0  0  0  0  0  0  0  0  0  0  0  0
  141.2770   78.8650  223.3190 C   0  0  0  0  0  0  0  0  0  0  0  0
  141.7890   79.9180  222.4060 C   0  0  0  0  0  0  0  0  0  0  0  0
  142.3930   80.9410  222.8190 O   0  0  0  0  0  0  0  0  0  0  0  0
  141.6070   79.7900  221.0050 N   0  0  0  0  0  0  0  0  0  0  0  0
  142.1760   80.6710  219.9750 C   0  0  0  0  0  0  0  0  0  0  0  0
  140.9670   80.9030  219.0990 C   0  0  0  0  0  0  0  0  0  0  0  0
  140.2550   79.6050  219.1090 C   0  0  0  0  0  0  0  0  0  0  0  0
  140.8520   78.8150  220.2440 C   0  0  1  0  0  0  0  0  0  0  0  0
  141.7650   77.7600  219.6770 C   0  0  0  0  0  0  0  0  0  0  0  0
  142.2750   76.7360  220.0150 N   0  0  0  0  0  0  0  0  0  0  0  0
  143.0570   75.9480  219.3350 C   0  0  0  0  0  0  0  0  0  0  0  0
  143.6410   74.7040  219.8290 C   0  0  0  0  0  0  0  0  0  0  0  0
  143.0070   73.4890  219.6810 C   0  0  0  0  0  0  0  0  0  0  0  0
  143.5720   72.3190  220.1530 C   0  0  0  0  0  0  0  0  0  0  0  0
  144.8010   72.3340  220.7930 C   0  0  0  0  0  0  0  0  0  0  0  0
  145.4480   73.5360  220.9490 C   0  0  0  0  0  0  0  0  0  0  0  0
  144.8650   74.6860  220.4710 C   0  0  0  0  0  0  0  0  0  0  0  0
  143.3130   76.3980  218.0330 C   0  0  0  0  0  0  0  0  0  0  0  0
  142.3610   77.9880  217.8950 S   0  0  0  0  0  0  0  0  0  0  0  0
  139.8070   75.6830  221.7040 C   0  0  0  0  0  0  0  0  0  0  0  0
  139.2330   75.6850  220.4510 C   0  0  0  0  0  0  0  0  0  0  0  0
  139.1600   74.4740  219.7600 C   0  0  0  0  0  0  0  0  0  0  0  0
  139.6490   73.3110  220.3180 C   0  0  0  0  0  0  0  0  0  0  0  0
  139.5900   72.1060  219.6610 C   0  0  0  0  0  0  0  0  0  0  0  0
  140.1000   71.0000  220.2850 C   0  0  0  0  0  0  0  0  0  0  0  0
  140.0520   69.4380  219.4950 Cl  0  0  0  0  0  0  0  0  0  0  0  0
  140.6730   71.0360  221.5500 C   0  0  0  0  0  0  0  0  0  0  0  0
  140.7210   72.2570  222.1910 C   0  0  0  0  0  0  0  0  0  0  0  0
  140.2110   73.3980  221.5820 C   0  0  0  0  0  0  0  0  0  0  0  0
  140.2910   74.5570  222.2610 N   0  0  0  0  0  0  0  0  0  0  0  0
  141.9660   77.1320  222.1360 H   0  0  0  0  0  0  0  0  0  0  0  0
  140.2935   79.1653  223.7095 H   0  0  0  0  0  0  0  0  0  0  0  0
  141.9795   78.7324  224.1550 H   0  0  0  0  0  0  0  0  0  0  0  0
  142.5485   81.6112  220.4077 H   0  0  0  0  0  0  0  0  0  0  0  0
  143.0458   80.2518  219.4480 H   0  0  0  0  0  0  0  0  0  0  0  0
  140.3318   81.6993  219.5141 H   0  0  0  0  0  0  0  0  0  0  0  0
  141.2391   81.2258  218.0833 H   0  0  0  0  0  0  0  0  0  0  0  0
  139.1788   79.7603  219.2754 H   0  0  0  0  0  0  0  0  0  0  0  0
  140.3630   79.0779  218.1496 H   0  0  0  0  0  0  0  0  0  0  0  0
  140.1013   78.3047  220.8653 H   0  0  0  0  0  0  0  0  0  0  0  0
  142.0304   73.4496  219.1764 H   0  0  0  0  0  0  0  0  0  0  0  0
  143.0401   71.3655  220.0191 H   0  0  0  0  0  0  0  0  0  0  0  0
  145.2495   71.4024  221.1685 H   0  0  0  0  0  0  0  0  0  0  0  0
  146.4251   73.5781  221.4525 H   0  0  0  0  0  0  0  0  0  0  0  0
  145.3988   75.6382  220.6061 H   0  0  0  0  0  0  0  0  0  0  0  0
  143.9373   75.9179  217.2650 H   0  0  0  0  0  0  0  0  0  0  0  0
  138.8437   76.6137  220.0083 H   0  0  0  0  0  0  0  0  0  0  0  0
  138.7069   74.4469  218.7580 H   0  0  0  0  0  0  0  0  0  0  0  0
  139.1439   72.0320  218.6582 H   0  0  0  0  0  0  0  0  0  0  0  0
  141.0729   70.1266  222.0223 H   0  0  0  0  0  0  0  0  0  0  0  0
  141.1672   72.3283  223.1939 H   0  0  0  0  0  0  0  0  0  0  0  0
  1  2  2  0
  2  3  1  0
  3  4  1  0
  4  5  1  0
  5  6  2  0
  5  7  1  0
  7  8  1  0
  8  9  1  0
  9 10  1  0
 10 11  1  0
 11 12  1  0
 12 13  2  0
 13 14  1  0
 14 15  1  0
 15 16  2  0
 16 17  1  0
 17 18  2  0
 18 19  1  0
 19 20  2  0
 14 21  2  0
 21 22  1  0
  2 23  1  0
 23 24  2  0
 24 25  1  0
 25 26  2  0
 26 27  1  0
 27 28  2  0
 28 29  1  0
 28 30  1  0
 30 31  2  0
 31 32  1  0
 32 33  2  0
 11  7  1  0
 22 12  1  0
 33 23  1  0
 20 15  1  0
 32 26  1  0
  3 34  1  0
  4 35  1  0
  4 36  1  0
  8 37  1  0
  8 38  1  0
  9 39  1  0
  9 40  1  0
 10 41  1  0
 10 42  1  0
 11 43  1  1
 16 44  1  0
 17 45  1  0
 18 46  1  0
 19 47  1  0
 20 48  1  0
 21 49  1  0
 24 50  1  0
 25 51  1  0
 27 52  1  0
 30 53  1  0
 31 54  1  0
M  END
>  <smiles>  (40) 
O=C(NCC(=O)N1CCC[C@H]1c1nc(-c2ccccc2)cs1)c1ccc2cc(Cl)ccc2n1

>  <score_type>  (40) 
oracle

>  <origin>  (40) 
autodockgpu

>  <m_score__min__energy>  (40) 
-9.7699999999999996

>  <m_primary>  (40) 
energy

>  <rmsd>  (40) 
6.933241751385351

>  <m_score__min__rmsd>  (40) 
6.933241751385351

>  <meeko>  (40) 
{"free_energy": -7.1, "intermolecular_energy": -8.89, "internal_energy": -3.72, "cluster_size": 5, "cluster_id": 7, "rank_in_cluster": 1}

>  <energy>  (40) 
-6.23

>  <cluster_rmsd>  (40) 
1.21

>  <cluster>  (40) 
9

$$$$

     RDKit          3D

 54 58  0  0  0  0  0  0  0  0999 V2000
  140.0170   74.2410  221.9760 O   0  0  0  0  0  0  0  0  0  0  0  0
  140.2910   75.4770  221.8410 C   0  0  0  0  0  0  0  0  0  0  0  0
  141.5320   75.8790  221.2810 N   0  0  0  0  0  0  0  0  0  0  0  0
  142.5270   74.9010  220.8470 C   0  0  0  0  0  0  0  0  0  0  0  0
  142.2300   74.4740  219.4570 C   0  0  0  0  0  0  0  0  0  0  0  0
  142.3980   73.2940  219.0560 O   0  0  0  0  0  0  0  0  0  0  0  0
  141.7330   75.4160  218.5180 N   0  0  0  0  0  0  0  0  0  0  0  0
  140.3580   75.4790  218.0020 C   0  0  0  0  0  0  0  0  0  0  0  0
  140.6170   75.6480  216.5230 C   0  0  0  0  0  0  0  0  0  0  0  0
  141.8150   76.5160  216.4590 C   0  0  0  0  0  0  0  0  0  0  0  0
  142.4040   76.5100  217.8460 C   0  0  1  0  0  0  0  0  0  0  0  0
  142.0860   77.8210  218.5150 C   0  0  0  0  0  0  0  0  0  0  0  0
  142.1690   78.3230  219.5940 N   0  0  0  0  0  0  0  0  0  0  0  0
  141.8260   79.5220  219.9680 C   0  0  0  0  0  0  0  0  0  0  0  0
  141.9640   80.0590  221.3190 C   0  0  0  0  0  0  0  0  0  0  0  0
  142.4620   79.3040  222.3590 C   0  0  0  0  0  0  0  0  0  0  0  0
  142.5880   79.8270  223.6330 C   0  0  0  0  0  0  0  0  0  0  0  0
  142.2140   81.1330  223.9030 C   0  0  0  0  0  0  0  0  0  0  0  0
  141.7150   81.9010  222.8770 C   0  0  0  0  0  0  0  0  0  0  0  0
  141.6000   81.3590  221.6190 C   0  0  0  0  0  0  0  0  0  0  0  0
  141.2880   80.3000  218.9340 C   0  0  0  0  0  0  0  0  0  0  0  0
  141.3260   79.1850  217.4470 S   0  0  0  0  0  0  0  0  0  0  0  0
  139.3140   76.4990  222.2660 C   0  0  0  0  0  0  0  0  0  0  0  0
  137.9680   76.2050  222.1890 C   0  0  0  0  0  0  0  0  0  0  0  0
  137.0590   77.1830  222.5970 C   0  0  0  0  0  0  0  0  0  0  0  0
  137.4960   78.4060  223.0630 C   0  0  0  0  0  0  0  0  0  0  0  0
  136.6240   79.3850  223.4700 C   0  0  0  0  0  0  0  0  0  0  0  0
  137.1410   80.5700  223.9190 C   0  0  0  0  0  0  0  0  0  0  0  0
  136.0760   81.8550  224.4510 Cl  0  0  0  0  0  0  0  0  0  0  0  0
  138.5040   80.8300  223.9840 C   0  0  0  0  0  0  0  0  0  0  0  0
  139.3610   79.8320  223.5700 C   0  0  0  0  0  0  0  0  0  0  0  0
  138.8650   78.6180  223.1080 C   0  0  0  0  0  0  0  0  0  0  0  0
  139.7560   77.6860  222.7200 N   0  0  0  0  0  0  0  0  0  0  0  0
  141.6880   76.9130  221.2010 H   0  0  0  0  0  0  0  0  0  0  0  0
  143.5280   75.3554  220.8847 H   0  0  0  0  0  0  0  0  0  0  0  0
  142.4951   74.0263  221.5132 H   0  0  0  0  0  0  0  0  0  0  0  0
  139.8039   74.5523  218.2125 H   0  0  0  0  0  0  0  0  0  0  0  0
  139.7400   76.2715  218.4492 H   0  0  0  0  0  0  0  0  0  0  0  0
  140.8144   74.6756  216.0482 H   0  0  0  0  0  0  0  0  0  0  0  0
  139.7559   76.0798  215.9919 H   0  0  0  0  0  0  0  0  0  0  0  0
  142.5391   76.1158  215.7341 H   0  0  0  0  0  0  0  0  0  0  0  0
  141.5585   77.5350  216.1336 H   0  0  0  0  0  0  0  0  0  0  0  0
  143.4971   76.3874  217.8586 H   0  0  0  0  0  0  0  0  0  0  0  0
  142.7657   78.2635  222.1717 H   0  0  0  0  0  0  0  0  0  0  0  0
  142.9899   79.1985  224.4413 H   0  0  0  0  0  0  0  0  0  0  0  0
  142.3140   81.5474  224.9170 H   0  0  0  0  0  0  0  0  0  0  0  0
  141.4101   82.9416  223.0618 H   0  0  0  0  0  0  0  0  0  0  0  0
  141.1991   81.9898  220.8119 H   0  0  0  0  0  0  0  0  0  0  0  0
  140.9250   81.3369  218.9897 H   0  0  0  0  0  0  0  0  0  0  0  0
  137.6216   75.2294  221.8173 H   0  0  0  0  0  0  0  0  0  0  0  0
  135.9799   76.9758  222.5463 H   0  0  0  0  0  0  0  0  0  0  0  0
  135.5368   79.2211  223.4361 H   0  0  0  0  0  0  0  0  0  0  0  0
  138.8849   81.7943  224.3513 H   0  0  0  0  0  0  0  0  0  0  0  0
  140.4478   79.9980  223.6057 H   0  0  0  0  0  0  0  0  0  0  0  0
  1  2  2  0
  2  3  1  0
  3  4  1  0
  4  5  1  0
  5  6  2  0
  5  7  1  0
  7  8  1  0
  8  9  1  0
  9 10  1  0
 10 11  1  0
 11 12  1  0
 12 13  2  0
 13 14  1  0
 14 15  1  0
 15 16  2  0
 16 17  1  0
 17 18  2  0
 18 19  1  0
 19 20  2  0
 14 21  2  0
 21 22  1  0
  2 23  1  0
 23 24  2  0
 24 25  1  0
 25 26  2  0
 26 27  1  0
 27 28  2  0
 28 29  1  0
 28 30  1  0
 30 31  2  0
 31 32  1  0
 32 33  2  0
 11  7  1  0
 22 12  1  0
 33 23  1  0
 20 15  1  0
 32 26  1  0
  3 34  1  0
  4 35  1  0
  4 36  1  0
  8 37  1  0
  8 38  1  0
  9 39  1  0
  9 40  1  0
 10 41  1  0
 10 42  1  0
 11 43  1  6
 16 44  1  0
 17 45  1  0
 18 46  1  0
 19 47  1  0
 20 48  1  0
 21 49  1  0
 24 50  1  0
 25 51  1  0
 27 52  1  0
 30 53  1  0
 31 54  1  0
M  END
>  <smiles>  (41) 
O=C(NCC(=O)N1CCC[C@H]1c1nc(-c2ccccc2)cs1)c1ccc2cc(Cl)ccc2n1

>  <score_type>  (41) 
oracle

>  <origin>  (41) 
autodockgpu

>  <m_score__min__energy>  (41) 
-9.7699999999999996

>  <m_primary>  (41) 
energy

>  <rmsd>  (41) 
6.14532912052232

>  <m_score__min__rmsd>  (41) 
6.14532912052232

>  <meeko>  (41) 
{"free_energy": -7.06, "intermolecular_energy": -8.85, "internal_energy": -3.97, "cluster_size": 17, "cluster_id": 6, "rank_in_cluster": 6}

>  <energy>  (41) 
-6.77

>  <cluster_rmsd>  (41) 
0.0

>  <cluster>  (41) 
10

$$$$

     RDKit          3D

 54 58  0  0  0  0  0  0  0  0999 V2000
  138.1090   75.3270  222.6280 O   0  0  0  0  0  0  0  0  0  0  0  0
  139.2070   75.7580  222.1470 C   0  0  0  0  0  0  0  0  0  0  0  0
  139.4610   77.1520  222.0780 N   0  0  0  0  0  0  0  0  0  0  0  0
  138.4850   78.1310  222.5490 C   0  0  0  0  0  0  0  0  0  0  0  0
  139.1910   79.2530  223.2180 C   0  0  0  0  0  0  0  0  0  0  0  0
  138.6600   79.9480  224.1220 O   0  0  0  0  0  0  0  0  0  0  0  0
  140.5210   79.5760  222.8450 N   0  0  0  0  0  0  0  0  0  0  0  0
  141.7440   78.9740  223.3950 C   0  0  0  0  0  0  0  0  0  0  0  0
  142.5810   80.2070  223.6440 C   0  0  0  0  0  0  0  0  0  0  0  0
  142.2570   81.1040  222.5110 C   0  0  0  0  0  0  0  0  0  0  0  0
  141.0140   80.5340  221.8760 C   0  0  1  0  0  0  0  0  0  0  0  0
  141.3960   79.8450  220.5930 C   0  0  0  0  0  0  0  0  0  0  0  0
  141.3670   78.7510  220.1170 N   0  0  0  0  0  0  0  0  0  0  0  0
  141.7590   78.3610  218.9380 C   0  0  0  0  0  0  0  0  0  0  0  0
  141.6870   76.9930  218.4320 C   0  0  0  0  0  0  0  0  0  0  0  0
  142.7520   76.3910  217.7970 C   0  0  0  0  0  0  0  0  0  0  0  0
  142.6690   75.0950  217.3230 C   0  0  0  0  0  0  0  0  0  0  0  0
  141.5050   74.3590  217.4730 C   0  0  0  0  0  0  0  0  0  0  0  0
  140.4330   74.9430  218.1050 C   0  0  0  0  0  0  0  0  0  0  0  0
  140.5400   76.2330  218.5680 C   0  0  0  0  0  0  0  0  0  0  0  0
  142.2810   79.3950  218.1500 C   0  0  0  0  0  0  0  0  0  0  0  0
  142.1560   80.9070  219.2230 S   0  0  0  0  0  0  0  0  0  0  0  0
  140.2210   74.8020  221.6590 C   0  0  0  0  0  0  0  0  0  0  0  0
  139.8960   73.4630  221.5930 C   0  0  0  0  0  0  0  0  0  0  0  0
  140.8680   72.5750  221.1280 C   0  0  0  0  0  0  0  0  0  0  0  0
  142.1160   73.0250  220.7480 C   0  0  0  0  0  0  0  0  0  0  0  0
  143.0890   72.1730  220.2880 C   0  0  0  0  0  0  0  0  0  0  0  0
  144.2990   72.7020  219.9310 C   0  0  0  0  0  0  0  0  0  0  0  0
  145.5790   71.6630  219.3370 Cl  0  0  0  0  0  0  0  0  0  0  0  0
  144.5910   74.0590  220.0110 C   0  0  0  0  0  0  0  0  0  0  0  0
  143.5980   74.8940  220.4750 C   0  0  0  0  0  0  0  0  0  0  0  0
  142.3580   74.3860  220.8460 C   0  0  0  0  0  0  0  0  0  0  0  0
  141.4330   75.2570  221.2910 N   0  0  0  0  0  0  0  0  0  0  0  0
  140.3860   77.4320  221.6700 H   0  0  0  0  0  0  0  0  0  0  0  0
  137.9112   78.5171  221.6936 H   0  0  0  0  0  0  0  0  0  0  0  0
  137.8005   77.6509  223.2638 H   0  0  0  0  0  0  0  0  0  0  0  0
  141.5416   78.4272  224.3278 H   0  0  0  0  0  0  0  0  0  0  0  0
  142.2175   78.2274  222.7405 H   0  0  0  0  0  0  0  0  0  0  0  0
  142.3097   80.6753  224.6017 H   0  0  0  0  0  0  0  0  0  0  0  0
  143.6555   79.9800  223.7064 H   0  0  0  0  0  0  0  0  0  0  0  0
  142.0679   82.1252  222.8733 H   0  0  0  0  0  0  0  0  0  0  0  0
  143.0874   81.1631  221.7920 H   0  0  0  0  0  0  0  0  0  0  0  0
  140.2570   81.2939  221.6321 H   0  0  0  0  0  0  0  0  0  0  0  0
  143.6878   76.9537  217.6646 H   0  0  0  0  0  0  0  0  0  0  0  0
  143.5372   74.6430  216.8210 H   0  0  0  0  0  0  0  0  0  0  0  0
  141.4399   73.3284  217.0942 H   0  0  0  0  0  0  0  0  0  0  0  0
  139.4963   74.3822  218.2393 H   0  0  0  0  0  0  0  0  0  0  0  0
  139.6710   76.6823  219.0710 H   0  0  0  0  0  0  0  0  0  0  0  0
  142.6763   79.3271  217.1257 H   0  0  0  0  0  0  0  0  0  0  0  0
  138.9012   73.1057  221.8975 H   0  0  0  0  0  0  0  0  0  0  0  0
  140.6357   71.5017  221.0637 H   0  0  0  0  0  0  0  0  0  0  0  0
  142.9005   71.0922  220.2084 H   0  0  0  0  0  0  0  0  0  0  0  0
  145.5756   74.4504  219.7156 H   0  0  0  0  0  0  0  0  0  0  0  0
  143.7884   75.9746  220.5528 H   0  0  0  0  0  0  0  0  0  0  0  0
  1  2  2  0
  2  3  1  0
  3  4  1  0
  4  5  1  0
  5  6  2  0
  5  7  1  0
  7  8  1  0
  8  9  1  0
  9 10  1  0
 10 11  1  0
 11 12  1  0
 12 13  2  0
 13 14  1  0
 14 15  1  0
 15 16  2  0
 16 17  1  0
 17 18  2  0
 18 19  1  0
 19 20  2  0
 14 21  2  0
 21 22  1  0
  2 23  1  0
 23 24  2  0
 24 25  1  0
 25 26  2  0
 26 27  1  0
 27 28  2  0
 28 29  1  0
 28 30  1  0
 30 31  2  0
 31 32  1  0
 32 33  2  0
 11  7  1  0
 22 12  1  0
 33 23  1  0
 20 15  1  0
 32 26  1  0
  3 34  1  0
  4 35  1  0
  4 36  1  0
  8 37  1  0
  8 38  1  0
  9 39  1  0
  9 40  1  0
 10 41  1  0
 10 42  1  0
 11 43  1  6
 16 44  1  0
 17 45  1  0
 18 46  1  0
 19 47  1  0
 20 48  1  0
 21 49  1  0
 24 50  1  0
 25 51  1  0
 27 52  1  0
 30 53  1  0
 31 54  1  0
M  END
>  <smiles>  (42) 
O=C(NCC(=O)N1CCC[C@H]1c1nc(-c2ccccc2)cs1)c1ccc2cc(Cl)ccc2n1

>  <score_type>  (42) 
oracle

>  <origin>  (42) 
autodockgpu

>  <m_score__min__energy>  (42) 
-9.7699999999999996

>  <m_primary>  (42) 
energy

>  <rmsd>  (42) 
6.5729655873509705

>  <m_score__min__rmsd>  (42) 
6.5729655873509705

>  <meeko>  (42) 
{"free_energy": -6.57, "intermolecular_energy": -8.36, "internal_energy": -4.44, "cluster_size": 5, "cluster_id": 7, "rank_in_cluster": 5}

>  <energy>  (42) 
-6.7

>  <cluster_rmsd>  (42) 
0.17

>  <cluster>  (42) 
10

$$$$

     RDKit          3D

 54 58  0  0  0  0  0  0  0  0999 V2000
  142.3900   77.4940  217.8260 O   0  0  0  0  0  0  0  0  0  0  0  0
  142.1760   77.7800  219.0490 C   0  0  0  0  0  0  0  0  0  0  0  0
  142.4820   76.8420  220.0680 N   0  0  0  0  0  0  0  0  0  0  0  0
  143.0440   75.5300  219.7560 C   0  0  0  0  0  0  0  0  0  0  0  0
  141.9460   74.5440  219.5960 C   0  0  0  0  0  0  0  0  0  0  0  0
  141.8530   73.7860  218.5970 O   0  0  0  0  0  0  0  0  0  0  0  0
  140.9460   74.4300  220.5960 N   0  0  0  0  0  0  0  0  0  0  0  0
  141.0670   73.6890  221.8600 C   0  0  0  0  0  0  0  0  0  0  0  0
  139.7550   72.9420  221.8800 C   0  0  0  0  0  0  0  0  0  0  0  0
  138.7820   73.8960  221.2980 C   0  0  0  0  0  0  0  0  0  0  0  0
  139.6050   74.9770  220.6450 C   0  0  1  0  0  0  0  0  0  0  0  0
  139.5640   76.2090  221.5090 C   0  0  0  0  0  0  0  0  0  0  0  0
  140.2950   77.0830  221.8650 N   0  0  0  0  0  0  0  0  0  0  0  0
  140.0420   78.0960  222.6420 C   0  0  0  0  0  0  0  0  0  0  0  0
  141.0020   79.1270  223.0280 C   0  0  0  0  0  0  0  0  0  0  0  0
  140.6210   80.2630  223.7100 C   0  0  0  0  0  0  0  0  0  0  0  0
  141.5410   81.2300  224.0690 C   0  0  0  0  0  0  0  0  0  0  0  0
  142.8810   81.0850  223.7520 C   0  0  0  0  0  0  0  0  0  0  0  0
  143.2800   79.9590  223.0720 C   0  0  0  0  0  0  0  0  0  0  0  0
  142.3460   79.0110  222.7260 C   0  0  0  0  0  0  0  0  0  0  0  0
  138.7200   78.1320  223.1040 C   0  0  0  0  0  0  0  0  0  0  0  0
  137.9210   76.6360  222.3460 S   0  0  0  0  0  0  0  0  0  0  0  0
  141.6090   79.0950  219.4080 C   0  0  0  0  0  0  0  0  0  0  0  0
  142.3860   80.2230  219.2450 C   0  0  0  0  0  0  0  0  0  0  0  0
  141.8310   81.4570  219.5900 C   0  0  0  0  0  0  0  0  0  0  0  0
  140.5440   81.5430  220.0780 C   0  0  0  0  0  0  0  0  0  0  0  0
  139.9750   82.7440  220.4240 C   0  0  0  0  0  0  0  0  0  0  0  0
  138.6920   82.7410  220.9000 C   0  0  0  0  0  0  0  0  0  0  0  0
  137.9150   84.2440  221.3570 Cl  0  0  0  0  0  0  0  0  0  0  0  0
  137.9380   81.5840  221.0490 C   0  0  0  0  0  0  0  0  0  0  0  0
  138.5300   80.3900  220.6950 C   0  0  0  0  0  0  0  0  0  0  0  0
  139.8330   80.3610  220.2090 C   0  0  0  0  0  0  0  0  0  0  0  0
  140.3500   79.1630  219.8820 N   0  0  0  0  0  0  0  0  0  0  0  0
  142.2790   77.1460  221.0520 H   0  0  0  0  0  0  0  0  0  0  0  0
  143.6202   75.5914  218.8210 H   0  0  0  0  0  0  0  0  0  0  0  0
  143.7051   75.2112  220.5753 H   0  0  0  0  0  0  0  0  0  0  0  0
  141.9244   73.0000  221.8444 H   0  0  0  0  0  0  0  0  0  0  0  0
  141.2432   74.3216  222.7425 H   0  0  0  0  0  0  0  0  0  0  0  0
  139.8174   72.0284  221.2705 H   0  0  0  0  0  0  0  0  0  0  0  0
  139.4715   72.6173  222.8920 H   0  0  0  0  0  0  0  0  0  0  0  0
  138.1510   73.3916  220.5514 H   0  0  0  0  0  0  0  0  0  0  0  0
  138.1104   74.3074  222.0659 H   0  0  0  0  0  0  0  0  0  0  0  0
  139.2434   75.2606  219.6456 H   0  0  0  0  0  0  0  0  0  0  0  0
  139.5623   80.4027  223.9741 H   0  0  0  0  0  0  0  0  0  0  0  0
  141.2047   82.1251  224.6128 H   0  0  0  0  0  0  0  0  0  0  0  0
  143.6118   81.8556  224.0386 H   0  0  0  0  0  0  0  0  0  0  0  0
  144.3381   79.8174  222.8067 H   0  0  0  0  0  0  0  0  0  0  0  0
  142.6848   78.1167  222.1824 H   0  0  0  0  0  0  0  0  0  0  0  0
  138.2585   78.8787  223.7670 H   0  0  0  0  0  0  0  0  0  0  0  0
  143.4121   80.1525  218.8549 H   0  0  0  0  0  0  0  0  0  0  0  0
  142.4284   82.3729  219.4709 H   0  0  0  0  0  0  0  0  0  0  0  0
  140.5362   83.6845  220.3211 H   0  0  0  0  0  0  0  0  0  0  0  0
  136.9084   81.6189  221.4345 H   0  0  0  0  0  0  0  0  0  0  0  0
  137.9662   79.4511  220.7980 H   0  0  0  0  0  0  0  0  0  0  0  0
  1  2  2  0
  2  3  1  0
  3  4  1  0
  4  5  1  0
  5  6  2  0
  5  7  1  0
  7  8  1  0
  8  9  1  0
  9 10  1  0
 10 11  1  0
 11 12  1  0
 12 13  2  0
 13 14  1  0
 14 15  1  0
 15 16  2  0
 16 17  1  0
 17 18  2  0
 18 19  1  0
 19 20  2  0
 14 21  2  0
 21 22  1  0
  2 23  1  0
 23 24  2  0
 24 25  1  0
 25 26  2  0
 26 27  1  0
 27 28  2  0
 28 29  1  0
 28 30  1  0
 30 31  2  0
 31 32  1  0
 32 33  2  0
 11  7  1  0
 22 12  1  0
 33 23  1  0
 20 15  1  0
 32 26  1  0
  3 34  1  0
  4 35  1  0
  4 36  1  0
  8 37  1  0
  8 38  1  0
  9 39  1  0
  9 40  1  0
 10 41  1  0
 10 42  1  0
 11 43  1  6
 16 44  1  0
 17 45  1  0
 18 46  1  0
 19 47  1  0
 20 48  1  0
 21 49  1  0
 24 50  1  0
 25 51  1  0
 27 52  1  0
 30 53  1  0
 31 54  1  0
M  END
>  <smiles>  (43) 
O=C(NCC(=O)N1CCC[C@H]1c1nc(-c2ccccc2)cs1)c1ccc2cc(Cl)ccc2n1

>  <score_type>  (43) 
oracle

>  <origin>  (43) 
autodockgpu

>  <m_score__min__energy>  (43) 
-9.7699999999999996

>  <m_primary>  (43) 
energy

>  <rmsd>  (43) 
8.284080460167443

>  <m_score__min__rmsd>  (43) 
8.284080460167443

>  <meeko>  (43) 
{"free_energy": -6.23, "intermolecular_energy": -8.02, "internal_energy": -4.56, "cluster_size": 2, "cluster_id": 9, "rank_in_cluster": 2}

>  <energy>  (43) 
-6.58

>  <cluster_rmsd>  (43) 
1.59

>  <cluster>  (43) 
10

$$$$

     RDKit          3D

 54 58  0  0  0  0  0  0  0  0999 V2000
  139.0690   70.6120  221.1440 O   0  0  0  0  0  0  0  0  0  0  0  0
  139.0220   71.4230  222.1260 C   0  0  0  0  0  0  0  0  0  0  0  0
  138.4590   72.7150  221.9620 N   0  0  0  0  0  0  0  0  0  0  0  0
  137.9190   73.1560  220.6780 C   0  0  0  0  0  0  0  0  0  0  0  0
  139.0190   73.2540  219.6860 C   0  0  0  0  0  0  0  0  0  0  0  0
  138.9940   72.6520  218.5810 O   0  0  0  0  0  0  0  0  0  0  0  0
  140.1570   74.0520  219.9660 N   0  0  0  0  0  0  0  0  0  0  0  0
  140.9280   74.8330  218.9880 C   0  0  0  0  0  0  0  0  0  0  0  0
  142.3400   74.4600  219.3750 C   0  0  0  0  0  0  0  0  0  0  0  0
  142.2990   74.3540  220.8510 C   0  0  0  0  0  0  0  0  0  0  0  0
  140.8390   74.3030  221.2200 C   0  0  1  0  0  0  0  0  0  0  0  0
  140.4340   75.6370  221.7880 C   0  0  0  0  0  0  0  0  0  0  0  0
  140.9430   76.6620  222.1280 N   0  0  0  0  0  0  0  0  0  0  0  0
  140.3820   77.7350  222.6060 C   0  0  0  0  0  0  0  0  0  0  0  0
  141.0840   78.9540  222.9980 C   0  0  0  0  0  0  0  0  0  0  0  0
  140.4160   80.0630  223.4710 C   0  0  0  0  0  0  0  0  0  0  0  0
  141.0940   81.2100  223.8390 C   0  0  0  0  0  0  0  0  0  0  0  0
  142.4740   81.2790  223.7440 C   0  0  0  0  0  0  0  0  0  0  0  0
  143.1570   80.1810  223.2760 C   0  0  0  0  0  0  0  0  0  0  0  0
  142.4600   79.0530  222.9160 C   0  0  0  0  0  0  0  0  0  0  0  0
  138.9890   77.6360  222.7220 C   0  0  0  0  0  0  0  0  0  0  0  0
  138.5920   75.9290  222.1060 S   0  0  0  0  0  0  0  0  0  0  0  0
  139.5560   71.0160  223.4410 C   0  0  0  0  0  0  0  0  0  0  0  0
  140.3390   71.9070  224.1460 C   0  0  0  0  0  0  0  0  0  0  0  0
  140.8340   71.5040  225.3880 C   0  0  0  0  0  0  0  0  0  0  0  0
  140.5470   70.2530  225.8930 C   0  0  0  0  0  0  0  0  0  0  0  0
  141.0210   69.8320  227.1110 C   0  0  0  0  0  0  0  0  0  0  0  0
  140.6890   68.5750  227.5380 C   0  0  0  0  0  0  0  0  0  0  0  0
  141.2650   67.9850  229.0840 Cl  0  0  0  0  0  0  0  0  0  0  0  0
  139.8960   67.7050  226.8000 C   0  0  0  0  0  0  0  0  0  0  0  0
  139.4320   68.1490  225.5800 C   0  0  0  0  0  0  0  0  0  0  0  0
  139.7530   69.4210  225.1190 C   0  0  0  0  0  0  0  0  0  0  0  0
  139.2670   69.7920  223.9210 N   0  0  0  0  0  0  0  0  0  0  0  0
  138.4540   73.3270  222.8140 H   0  0  0  0  0  0  0  0  0  0  0  0
  137.1713   72.4301  220.3259 H   0  0  0  0  0  0  0  0  0  0  0  0
  137.4451   74.1413  220.7985 H   0  0  0  0  0  0  0  0  0  0  0  0
  140.6978   74.5294  217.9561 H   0  0  0  0  0  0  0  0  0  0  0  0
  140.7222   75.9134  219.0051 H   0  0  0  0  0  0  0  0  0  0  0  0
  142.6269   73.4990  218.9232 H   0  0  0  0  0  0  0  0  0  0  0  0
  143.0795   75.1962  219.0270 H   0  0  0  0  0  0  0  0  0  0  0  0
  142.8100   73.4384  221.1834 H   0  0  0  0  0  0  0  0  0  0  0  0
  142.8080   75.2025  221.3315 H   0  0  0  0  0  0  0  0  0  0  0  0
  140.6035   73.5361  221.9725 H   0  0  0  0  0  0  0  0  0  0  0  0
  139.3198   80.0347  223.5575 H   0  0  0  0  0  0  0  0  0  0  0  0
  140.5308   82.0783  224.2117 H   0  0  0  0  0  0  0  0  0  0  0  0
  143.0122   82.1926  224.0367 H   0  0  0  0  0  0  0  0  0  0  0  0
  144.2534   80.2056  223.1905 H   0  0  0  0  0  0  0  0  0  0  0  0
  143.0252   78.1857  222.5441 H   0  0  0  0  0  0  0  0  0  0  0  0
  138.2882   78.3978  223.0941 H   0  0  0  0  0  0  0  0  0  0  0  0
  140.5664   72.9045  223.7419 H   0  0  0  0  0  0  0  0  0  0  0  0
  141.4614   72.1937  225.9716 H   0  0  0  0  0  0  0  0  0  0  0  0
  141.6518   70.4887  227.7281 H   0  0  0  0  0  0  0  0  0  0  0  0
  139.6480   66.7009  227.1746 H   0  0  0  0  0  0  0  0  0  0  0  0
  138.8014   67.4902  224.9650 H   0  0  0  0  0  0  0  0  0  0  0  0
  1  2  2  0
  2  3  1  0
  3  4  1  0
  4  5  1  0
  5  6  2  0
  5  7  1  0
  7  8  1  0
  8  9  1  0
  9 10  1  0
 10 11  1  0
 11 12  1  0
 12 13  2  0
 13 14  1  0
 14 15  1  0
 15 16  2  0
 16 17  1  0
 17 18  2  0
 18 19  1  0
 19 20  2  0
 14 21  2  0
 21 22  1  0
  2 23  1  0
 23 24  2  0
 24 25  1  0
 25 26  2  0
 26 27  1  0
 27 28  2  0
 28 29  1  0
 28 30  1  0
 30 31  2  0
 31 32  1  0
 32 33  2  0
 11  7  1  0
 22 12  1  0
 33 23  1  0
 20 15  1  0
 32 26  1  0
  3 34  1  0
  4 35  1  0
  4 36  1  0
  8 37  1  0
  8 38  1  0
  9 39  1  0
  9 40  1  0
 10 41  1  0
 10 42  1  0
 11 43  1  1
 16 44  1  0
 17 45  1  0
 18 46  1  0
 19 47  1  0
 20 48  1  0
 21 49  1  0
 24 50  1  0
 25 51  1  0
 27 52  1  0
 30 53  1  0
 31 54  1  0
M  END
>  <smiles>  (44) 
O=C(NCC(=O)N1CCC[C@H]1c1nc(-c2ccccc2)cs1)c1ccc2cc(Cl)ccc2n1

>  <score_type>  (44) 
oracle

>  <origin>  (44) 
autodockgpu

>  <m_score__min__energy>  (44) 
-9.7699999999999996

>  <m_primary>  (44) 
energy

>  <rmsd>  (44) 
3.281487005406702

>  <m_score__min__rmsd>  (44) 
3.281487005406702

>  <meeko>  (44) 
{"free_energy": -9.42, "intermolecular_energy": -11.21, "internal_energy": -1.92, "cluster_size": 3, "cluster_id": 2, "rank_in_cluster": 1}

>  <energy>  (44) 
-6.57

>  <cluster_rmsd>  (44) 
1.56

>  <cluster>  (44) 
10

$$$$

     RDKit          3D

 54 58  0  0  0  0  0  0  0  0999 V2000
  140.2710   73.9750  221.8690 O   0  0  0  0  0  0  0  0  0  0  0  0
  140.6000   75.1960  221.7150 C   0  0  0  0  0  0  0  0  0  0  0  0
  141.8800   75.5340  221.2050 N   0  0  0  0  0  0  0  0  0  0  0  0
  142.8540   74.5070  220.8440 C   0  0  0  0  0  0  0  0  0  0  0  0
  142.6830   74.1420  219.4150 C   0  0  0  0  0  0  0  0  0  0  0  0
  142.9490   72.9960  218.9690 O   0  0  0  0  0  0  0  0  0  0  0  0
  142.2010   75.1050  218.4910 N   0  0  0  0  0  0  0  0  0  0  0  0
  140.9550   75.0120  217.7170 C   0  0  0  0  0  0  0  0  0  0  0  0
  141.4430   75.4120  216.3440 C   0  0  0  0  0  0  0  0  0  0  0  0
  142.4530   76.4630  216.6060 C   0  0  0  0  0  0  0  0  0  0  0  0
  142.7700   76.3710  218.0760 C   0  0  1  0  0  0  0  0  0  0  0  0
  142.1010   77.5150  218.7910 C   0  0  0  0  0  0  0  0  0  0  0  0
  142.2580   78.1800  219.7700 N   0  0  0  0  0  0  0  0  0  0  0  0
  141.5310   79.1630  220.2170 C   0  0  0  0  0  0  0  0  0  0  0  0
  141.7980   79.9290  221.4310 C   0  0  0  0  0  0  0  0  0  0  0  0
  141.2930   81.1970  221.6220 C   0  0  0  0  0  0  0  0  0  0  0  0
  141.5540   81.9100  222.7780 C   0  0  0  0  0  0  0  0  0  0  0  0
  142.3360   81.3670  223.7840 C   0  0  0  0  0  0  0  0  0  0  0  0
  142.8470   80.1030  223.6110 C   0  0  0  0  0  0  0  0  0  0  0  0
  142.5740   79.4140  222.4530 C   0  0  0  0  0  0  0  0  0  0  0  0
  140.4200   79.4510  219.4120 C   0  0  0  0  0  0  0  0  0  0  0  0
  140.5250   78.2250  218.0200 S   0  0  0  0  0  0  0  0  0  0  0  0
  139.6450   76.2650  222.0680 C   0  0  0  0  0  0  0  0  0  0  0  0
  138.3310   76.1430  221.6670 C   0  0  0  0  0  0  0  0  0  0  0  0
  137.4430   77.1640  222.0110 C   0  0  0  0  0  0  0  0  0  0  0  0
  137.8690   78.2610  222.7310 C   0  0  0  0  0  0  0  0  0  0  0  0
  137.0170   79.2790  223.0820 C   0  0  0  0  0  0  0  0  0  0  0  0
  137.5210   80.3310  223.7970 C   0  0  0  0  0  0  0  0  0  0  0  0
  136.4800   81.6570  224.2730 Cl  0  0  0  0  0  0  0  0  0  0  0  0
  138.8520   80.4190  224.1850 C   0  0  0  0  0  0  0  0  0  0  0  0
  139.6890   79.3850  223.8210 C   0  0  0  0  0  0  0  0  0  0  0  0
  139.2060   78.3040  223.0940 C   0  0  0  0  0  0  0  0  0  0  0  0
  140.0760   77.3290  222.7720 N   0  0  0  0  0  0  0  0  0  0  0  0
  142.0810   76.5590  221.1060 H   0  0  0  0  0  0  0  0  0  0  0  0
  143.8711   74.8940  221.0042 H   0  0  0  0  0  0  0  0  0  0  0  0
  142.6970   73.6168  221.4708 H   0  0  0  0  0  0  0  0  0  0  0  0
  140.5516   73.9886  217.7209 H   0  0  0  0  0  0  0  0  0  0  0  0
  140.1312   75.6292  218.1048 H   0  0  0  0  0  0  0  0  0  0  0  0
  141.8983   74.5543  215.8272 H   0  0  0  0  0  0  0  0  0  0  0  0
  140.6281   75.7650  215.6948 H   0  0  0  0  0  0  0  0  0  0  0  0
  143.3578   76.2824  216.0071 H   0  0  0  0  0  0  0  0  0  0  0  0
  142.0783   77.4610  216.3345 H   0  0  0  0  0  0  0  0  0  0  0  0
  143.8463   76.4256  218.2963 H   0  0  0  0  0  0  0  0  0  0  0  0
  140.6691   81.6516  220.8384 H   0  0  0  0  0  0  0  0  0  0  0  0
  141.1357   82.9200  222.8999 H   0  0  0  0  0  0  0  0  0  0  0  0
  142.5437   81.9357  224.7024 H   0  0  0  0  0  0  0  0  0  0  0  0
  143.4702   79.6457  224.3937 H   0  0  0  0  0  0  0  0  0  0  0  0
  142.9933   78.4040  222.3338 H   0  0  0  0  0  0  0  0  0  0  0  0
  139.6575   80.2281  219.5692 H   0  0  0  0  0  0  0  0  0  0  0  0
  137.9928   75.2675  221.0934 H   0  0  0  0  0  0  0  0  0  0  0  0
  136.3892   77.0928  221.7037 H   0  0  0  0  0  0  0  0  0  0  0  0
  135.9554   79.2495  222.7954 H   0  0  0  0  0  0  0  0  0  0  0  0
  139.2239   81.2798  224.7601 H   0  0  0  0  0  0  0  0  0  0  0  0
  140.7501   79.4165  224.1093 H   0  0  0  0  0  0  0  0  0  0  0  0
  1  2  2  0
  2  3  1  0
  3  4  1  0
  4  5  1  0
  5  6  2  0
  5  7  1  0
  7  8  1  0
  8  9  1  0
  9 10  1  0
 10 11  1  0
 11 12  1  0
 12 13  2  0
 13 14  1  0
 14 15  1  0
 15 16  2  0
 16 17  1  0
 17 18  2  0
 18 19  1  0
 19 20  2  0
 14 21  2  0
 21 22  1  0
  2 23  1  0
 23 24  2  0
 24 25  1  0
 25 26  2  0
 26 27  1  0
 27 28  2  0
 28 29  1  0
 28 30  1  0
 30 31  2  0
 31 32  1  0
 32 33  2  0
 11  7  1  0
 22 12  1  0
 33 23  1  0
 20 15  1  0
 32 26  1  0
  3 34  1  0
  4 35  1  0
  4 36  1  0
  8 37  1  0
  8 38  1  0
  9 39  1  0
  9 40  1  0
 10 41  1  0
 10 42  1  0
 11 43  1  6
 16 44  1  0
 17 45  1  0
 18 46  1  0
 19 47  1  0
 20 48  1  0
 21 49  1  0
 24 50  1  0
 25 51  1  0
 27 52  1  0
 30 53  1  0
 31 54  1  0
M  END
>  <smiles>  (45) 
O=C(NCC(=O)N1CCC[C@H]1c1nc(-c2ccccc2)cs1)c1ccc2cc(Cl)ccc2n1

>  <score_type>  (45) 
oracle

>  <origin>  (45) 
autodockgpu

>  <m_score__min__energy>  (45) 
-9.7699999999999996

>  <m_primary>  (45) 
energy

>  <rmsd>  (45) 
6.082436016734317

>  <m_score__min__rmsd>  (45) 
6.082436016734317

>  <meeko>  (45) 
{"free_energy": -7.12, "intermolecular_energy": -8.9, "internal_energy": -4.24, "cluster_size": 17, "cluster_id": 6, "rank_in_cluster": 2}

>  <energy>  (45) 
-6.56

>  <cluster_rmsd>  (45) 
1.57

>  <cluster>  (45) 
10

$$$$

     RDKit          3D

 54 58  0  0  0  0  0  0  0  0999 V2000
  140.2570   74.2140  221.9170 O   0  0  0  0  0  0  0  0  0  0  0  0
  140.6230   75.3960  221.6160 C   0  0  0  0  0  0  0  0  0  0  0  0
  141.9020   75.6280  221.0480 N   0  0  0  0  0  0  0  0  0  0  0  0
  142.8350   74.5320  220.7920 C   0  0  0  0  0  0  0  0  0  0  0  0
  143.0960   74.4340  219.3340 C   0  0  0  0  0  0  0  0  0  0  0  0
  143.9120   73.6120  218.8430 O   0  0  0  0  0  0  0  0  0  0  0  0
  142.4120   75.2900  218.4330 N   0  0  0  0  0  0  0  0  0  0  0  0
  141.0860   75.0450  217.8460 C   0  0  0  0  0  0  0  0  0  0  0  0
  141.3480   75.3870  216.3980 C   0  0  0  0  0  0  0  0  0  0  0  0
  142.2880   76.5300  216.4570 C   0  0  0  0  0  0  0  0  0  0  0  0
  142.8060   76.5660  217.8710 C   0  0  1  0  0  0  0  0  0  0  0  0
  142.1400   77.6990  218.6050 C   0  0  0  0  0  0  0  0  0  0  0  0
  142.2850   78.3300  219.6080 N   0  0  0  0  0  0  0  0  0  0  0  0
  141.5650   79.3120  220.0690 C   0  0  0  0  0  0  0  0  0  0  0  0
  141.8160   80.0340  221.3130 C   0  0  0  0  0  0  0  0  0  0  0  0
  141.3270   81.3040  221.5320 C   0  0  0  0  0  0  0  0  0  0  0  0
  141.5720   81.9760  222.7160 C   0  0  0  0  0  0  0  0  0  0  0  0
  142.3210   81.3870  223.7220 C   0  0  0  0  0  0  0  0  0  0  0  0
  142.8150   80.1210  223.5210 C   0  0  0  0  0  0  0  0  0  0  0  0
  142.5580   79.4740  222.3350 C   0  0  0  0  0  0  0  0  0  0  0  0
  140.4800   79.6460  219.2470 C   0  0  0  0  0  0  0  0  0  0  0  0
  140.5970   78.4620  217.8190 S   0  0  0  0  0  0  0  0  0  0  0  0
  139.7110   76.5320  221.8590 C   0  0  0  0  0  0  0  0  0  0  0  0
  138.5050   76.5720  221.1910 C   0  0  0  0  0  0  0  0  0  0  0  0
  137.6560   77.6530  221.4340 C   0  0  0  0  0  0  0  0  0  0  0  0
  138.0150   78.6510  222.3160 C   0  0  0  0  0  0  0  0  0  0  0  0
  137.1990   79.7260  222.5730 C   0  0  0  0  0  0  0  0  0  0  0  0
  137.6320   80.6710  223.4630 C   0  0  0  0  0  0  0  0  0  0  0  0
  136.6320   82.0630  223.8290 Cl  0  0  0  0  0  0  0  0  0  0  0  0
  138.8540   80.5970  224.1180 C   0  0  0  0  0  0  0  0  0  0  0  0
  139.6560   79.5100  223.8440 C   0  0  0  0  0  0  0  0  0  0  0  0
  139.2440   78.5330  222.9450 C   0  0  0  0  0  0  0  0  0  0  0  0
  140.0750   77.4970  222.7240 N   0  0  0  0  0  0  0  0  0  0  0  0
  142.1340   76.6270  220.8270 H   0  0  0  0  0  0  0  0  0  0  0  0
  143.7799   74.7238  221.3215 H   0  0  0  0  0  0  0  0  0  0  0  0
  142.3986   73.5880  221.1504 H   0  0  0  0  0  0  0  0  0  0  0  0
  140.7787   73.9955  217.9646 H   0  0  0  0  0  0  0  0  0  0  0  0
  140.2705   75.6201  218.3088 H   0  0  0  0  0  0  0  0  0  0  0  0
  141.8033   74.5347  215.8724 H   0  0  0  0  0  0  0  0  0  0  0  0
  140.4257   75.6289  215.8495 H   0  0  0  0  0  0  0  0  0  0  0  0
  143.1169   76.3806  215.7495 H   0  0  0  0  0  0  0  0  0  0  0  0
  141.7936   77.4739  216.1839 H   0  0  0  0  0  0  0  0  0  0  0  0
  143.8929   76.7220  217.9359 H   0  0  0  0  0  0  0  0  0  0  0  0
  140.7294   81.7934  220.7488 H   0  0  0  0  0  0  0  0  0  0  0  0
  141.1679   82.9888  222.8605 H   0  0  0  0  0  0  0  0  0  0  0  0
  142.5162   81.9225  224.6628 H   0  0  0  0  0  0  0  0  0  0  0  0
  143.4117   79.6285  224.3029 H   0  0  0  0  0  0  0  0  0  0  0  0
  142.9630   78.4612  222.1932 H   0  0  0  0  0  0  0  0  0  0  0  0
  139.7282   80.4322  219.4103 H   0  0  0  0  0  0  0  0  0  0  0  0
  138.2206   75.7756  220.4875 H   0  0  0  0  0  0  0  0  0  0  0  0
  136.6877   77.7098  220.9152 H   0  0  0  0  0  0  0  0  0  0  0  0
  136.2226   79.8246  222.0761 H   0  0  0  0  0  0  0  0  0  0  0  0
  139.1698   81.3756  224.8280 H   0  0  0  0  0  0  0  0  0  0  0  0
  140.6322   79.4146  224.3419 H   0  0  0  0  0  0  0  0  0  0  0  0
  1  2  2  0
  2  3  1  0
  3  4  1  0
  4  5  1  0
  5  6  2  0
  5  7  1  0
  7  8  1  0
  8  9  1  0
  9 10  1  0
 10 11  1  0
 11 12  1  0
 12 13  2  0
 13 14  1  0
 14 15  1  0
 15 16  2  0
 16 17  1  0
 17 18  2  0
 18 19  1  0
 19 20  2  0
 14 21  2  0
 21 22  1  0
  2 23  1  0
 23 24  2  0
 24 25  1  0
 25 26  2  0
 26 27  1  0
 27 28  2  0
 28 29  1  0
 28 30  1  0
 30 31  2  0
 31 32  1  0
 32 33  2  0
 11  7  1  0
 22 12  1  0
 33 23  1  0
 20 15  1  0
 32 26  1  0
  3 34  1  0
  4 35  1  0
  4 36  1  0
  8 37  1  0
  8 38  1  0
  9 39  1  0
  9 40  1  0
 10 41  1  0
 10 42  1  0
 11 43  1  6
 16 44  1  0
 17 45  1  0
 18 46  1  0
 19 47  1  0
 20 48  1  0
 21 49  1  0
 24 50  1  0
 25 51  1  0
 27 52  1  0
 30 53  1  0
 31 54  1  0
M  END
>  <smiles>  (46) 
O=C(NCC(=O)N1CCC[C@H]1c1nc(-c2ccccc2)cs1)c1ccc2cc(Cl)ccc2n1

>  <score_type>  (46) 
oracle

>  <origin>  (46) 
autodockgpu

>  <m_score__min__energy>  (46) 
-9.7699999999999996

>  <m_primary>  (46) 
energy

>  <rmsd>  (46) 
6.286636082585352

>  <m_score__min__rmsd>  (46) 
6.286636082585352

>  <meeko>  (46) 
{"free_energy": -6.96, "intermolecular_energy": -8.75, "internal_energy": -4.43, "cluster_size": 17, "cluster_id": 6, "rank_in_cluster": 12}

>  <energy>  (46) 
-6.51

>  <cluster_rmsd>  (46) 
1.54

>  <cluster>  (46) 
10

$$$$

     RDKit          3D

 54 58  0  0  0  0  0  0  0  0999 V2000
  138.1820   75.3240  222.6950 O   0  0  0  0  0  0  0  0  0  0  0  0
  139.2530   75.7430  222.1480 C   0  0  0  0  0  0  0  0  0  0  0  0
  139.4900   77.1360  222.0090 N   0  0  0  0  0  0  0  0  0  0  0  0
  138.5250   78.1260  222.4820 C   0  0  0  0  0  0  0  0  0  0  0  0
  139.2360   79.1930  223.2290 C   0  0  0  0  0  0  0  0  0  0  0  0
  138.7200   79.8020  224.2010 O   0  0  0  0  0  0  0  0  0  0  0  0
  140.5530   79.5630  222.8540 N   0  0  0  0  0  0  0  0  0  0  0  0
  141.7980   79.0060  223.4040 C   0  0  0  0  0  0  0  0  0  0  0  0
  142.5900   80.2680  223.6510 C   0  0  0  0  0  0  0  0  0  0  0  0
  142.2340   81.1510  222.5170 C   0  0  0  0  0  0  0  0  0  0  0  0
  141.0120   80.5370  221.8840 C   0  0  1  0  0  0  0  0  0  0  0  0
  141.4160   79.8600  220.6010 C   0  0  0  0  0  0  0  0  0  0  0  0
  141.4100   78.7680  220.1190 N   0  0  0  0  0  0  0  0  0  0  0  0
  141.8190   78.3900  218.9430 C   0  0  0  0  0  0  0  0  0  0  0  0
  141.7730   77.0240  218.4290 C   0  0  0  0  0  0  0  0  0  0  0  0
  140.6440   76.2410  218.5350 C   0  0  0  0  0  0  0  0  0  0  0  0
  140.6150   74.9490  218.0430 C   0  0  0  0  0  0  0  0  0  0  0  0
  141.7270   74.4000  217.4270 C   0  0  0  0  0  0  0  0  0  0  0  0
  142.8620   75.1670  217.3120 C   0  0  0  0  0  0  0  0  0  0  0  0
  142.8660   76.4490  217.8090 C   0  0  0  0  0  0  0  0  0  0  0  0
  142.3330   79.4370  218.1640 C   0  0  0  0  0  0  0  0  0  0  0  0
  142.1730   80.9410  219.2440 S   0  0  0  0  0  0  0  0  0  0  0  0
  140.2550   74.7760  221.6560 C   0  0  0  0  0  0  0  0  0  0  0  0
  139.9120   73.4420  221.5820 C   0  0  0  0  0  0  0  0  0  0  0  0
  140.8720   72.5430  221.1130 C   0  0  0  0  0  0  0  0  0  0  0  0
  142.1260   72.9790  220.7360 C   0  0  0  0  0  0  0  0  0  0  0  0
  143.0880   72.1160  220.2730 C   0  0  0  0  0  0  0  0  0  0  0  0
  144.3050   72.6310  219.9190 C   0  0  0  0  0  0  0  0  0  0  0  0
  145.5710   71.5770  219.3210 Cl  0  0  0  0  0  0  0  0  0  0  0  0
  144.6150   73.9820  220.0060 C   0  0  0  0  0  0  0  0  0  0  0  0
  143.6330   74.8290  220.4750 C   0  0  0  0  0  0  0  0  0  0  0  0
  142.3860   74.3360  220.8420 C   0  0  0  0  0  0  0  0  0  0  0  0
  141.4730   75.2170  221.2900 N   0  0  0  0  0  0  0  0  0  0  0  0
  140.3920   77.4060  221.5480 H   0  0  0  0  0  0  0  0  0  0  0  0
  138.0013   78.5677  221.6214 H   0  0  0  0  0  0  0  0  0  0  0  0
  137.7951   77.6386  223.1450 H   0  0  0  0  0  0  0  0  0  0  0  0
  141.6162   78.4533  224.3375 H   0  0  0  0  0  0  0  0  0  0  0  0
  142.2976   78.2763  222.7499 H   0  0  0  0  0  0  0  0  0  0  0  0
  142.3022   80.7276  224.6081 H   0  0  0  0  0  0  0  0  0  0  0  0
  143.6720   80.0798  223.7136 H   0  0  0  0  0  0  0  0  0  0  0  0
  142.0093   82.1656  222.8778 H   0  0  0  0  0  0  0  0  0  0  0  0
  143.0614   81.2380  221.7974 H   0  0  0  0  0  0  0  0  0  0  0  0
  140.2291   81.2703  221.6403 H   0  0  0  0  0  0  0  0  0  0  0  0
  139.7471   76.6523  219.0212 H   0  0  0  0  0  0  0  0  0  0  0  0
  139.6976   74.3502  218.1422 H   0  0  0  0  0  0  0  0  0  0  0  0
  141.7027   73.3715  217.0378 H   0  0  0  0  0  0  0  0  0  0  0  0
  143.7602   74.7582  216.8260 H   0  0  0  0  0  0  0  0  0  0  0  0
  143.7842   77.0462  217.7082 H   0  0  0  0  0  0  0  0  0  0  0  0
  142.7394   79.3806  217.1434 H   0  0  0  0  0  0  0  0  0  0  0  0
  138.9121   73.0967  221.8835 H   0  0  0  0  0  0  0  0  0  0  0  0
  140.6255   71.4732  221.0431 H   0  0  0  0  0  0  0  0  0  0  0  0
  142.8855   71.0381  220.1888 H   0  0  0  0  0  0  0  0  0  0  0  0
  145.6048   74.3615  219.7124 H   0  0  0  0  0  0  0  0  0  0  0  0
  143.8386   75.9063  220.5597 H   0  0  0  0  0  0  0  0  0  0  0  0
  1  2  2  0
  2  3  1  0
  3  4  1  0
  4  5  1  0
  5  6  2  0
  5  7  1  0
  7  8  1  0
  8  9  1  0
  9 10  1  0
 10 11  1  0
 11 12  1  0
 12 13  2  0
 13 14  1  0
 14 15  1  0
 15 16  2  0
 16 17  1  0
 17 18  2  0
 18 19  1  0
 19 20  2  0
 14 21  2  0
 21 22  1  0
  2 23  1  0
 23 24  2  0
 24 25  1  0
 25 26  2  0
 26 27  1  0
 27 28  2  0
 28 29  1  0
 28 30  1  0
 30 31  2  0
 31 32  1  0
 32 33  2  0
 11  7  1  0
 22 12  1  0
 33 23  1  0
 20 15  1  0
 32 26  1  0
  3 34  1  0
  4 35  1  0
  4 36  1  0
  8 37  1  0
  8 38  1  0
  9 39  1  0
  9 40  1  0
 10 41  1  0
 10 42  1  0
 11 43  1  6
 16 44  1  0
 17 45  1  0
 18 46  1  0
 19 47  1  0
 20 48  1  0
 21 49  1  0
 24 50  1  0
 25 51  1  0
 27 52  1  0
 30 53  1  0
 31 54  1  0
M  END
>  <smiles>  (47) 
O=C(NCC(=O)N1CCC[C@H]1c1nc(-c2ccccc2)cs1)c1ccc2cc(Cl)ccc2n1

>  <score_type>  (47) 
oracle

>  <origin>  (47) 
autodockgpu

>  <m_score__min__energy>  (47) 
-9.7699999999999996

>  <m_primary>  (47) 
energy

>  <rmsd>  (47) 
6.495165184521556

>  <m_score__min__rmsd>  (47) 
6.495165184521556

>  <meeko>  (47) 
{"free_energy": -6.62, "intermolecular_energy": -8.41, "internal_energy": -4.44, "cluster_size": 5, "cluster_id": 7, "rank_in_cluster": 4}

>  <energy>  (47) 
-6.5

>  <cluster_rmsd>  (47) 
1.56

>  <cluster>  (47) 
10

$$$$

     RDKit          3D

 54 58  0  0  0  0  0  0  0  0999 V2000
  142.8370   80.7530  218.0320 O   0  0  0  0  0  0  0  0  0  0  0  0
  142.0700   80.0210  218.7380 C   0  0  0  0  0  0  0  0  0  0  0  0
  142.1130   78.6080  218.6140 N   0  0  0  0  0  0  0  0  0  0  0  0
  143.0280   77.9510  217.6820 C   0  0  0  0  0  0  0  0  0  0  0  0
  142.7570   76.4910  217.6690 C   0  0  0  0  0  0  0  0  0  0  0  0
  142.6380   75.8310  216.6050 O   0  0  0  0  0  0  0  0  0  0  0  0
  142.6240   75.7850  218.8920 N   0  0  0  0  0  0  0  0  0  0  0  0
  143.7240   75.3540  219.7670 C   0  0  0  0  0  0  0  0  0  0  0  0
  143.3160   73.9300  220.0590 C   0  0  0  0  0  0  0  0  0  0  0  0
  141.8400   73.9860  220.1610 C   0  0  0  0  0  0  0  0  0  0  0  0
  141.4360   75.3160  219.5780 C   0  0  1  0  0  0  0  0  0  0  0  0
  141.0670   76.2480  220.7010 C   0  0  0  0  0  0  0  0  0  0  0  0
  141.5010   77.2190  221.2430 N   0  0  0  0  0  0  0  0  0  0  0  0
  140.9960   77.8990  222.2320 C   0  0  0  0  0  0  0  0  0  0  0  0
  141.5960   79.0830  222.8380 C   0  0  0  0  0  0  0  0  0  0  0  0
  142.9310   79.3890  222.6810 C   0  0  0  0  0  0  0  0  0  0  0  0
  143.4850   80.5150  223.2620 C   0  0  0  0  0  0  0  0  0  0  0  0
  142.7100   81.3740  224.0230 C   0  0  0  0  0  0  0  0  0  0  0  0
  141.3760   81.0860  224.1890 C   0  0  0  0  0  0  0  0  0  0  0  0
  140.8490   79.9600  223.6030 C   0  0  0  0  0  0  0  0  0  0  0  0
  139.7760   77.3890  222.6970 C   0  0  0  0  0  0  0  0  0  0  0  0
  139.4490   75.9100  221.6210 S   0  0  0  0  0  0  0  0  0  0  0  0
  141.1310   80.6450  219.6920 C   0  0  0  0  0  0  0  0  0  0  0  0
  141.4000   81.9150  220.1570 C   0  0  0  0  0  0  0  0  0  0  0  0
  140.5000   82.4880  221.0580 C   0  0  0  0  0  0  0  0  0  0  0  0
  139.3760   81.8030  221.4680 C   0  0  0  0  0  0  0  0  0  0  0  0
  138.4750   82.3430  222.3530 C   0  0  0  0  0  0  0  0  0  0  0  0
  137.3850   81.5960  222.7080 C   0  0  0  0  0  0  0  0  0  0  0  0
  136.2030   82.2350  223.8320 Cl  0  0  0  0  0  0  0  0  0  0  0  0
  137.1450   80.3180  222.2170 C   0  0  0  0  0  0  0  0  0  0  0  0
  138.0640   79.7970  221.3310 C   0  0  0  0  0  0  0  0  0  0  0  0
  139.1810   80.5320  220.9510 C   0  0  0  0  0  0  0  0  0  0  0  0
  140.0370   79.9640  220.0820 N   0  0  0  0  0  0  0  0  0  0  0  0
  141.4530   78.0710  219.2270 H   0  0  0  0  0  0  0  0  0  0  0  0
  142.8793   78.3606  216.6720 H   0  0  0  0  0  0  0  0  0  0  0  0
  144.0658   78.1286  218.0004 H   0  0  0  0  0  0  0  0  0  0  0  0
  144.6936   75.3987  219.2494 H   0  0  0  0  0  0  0  0  0  0  0  0
  143.8645   75.9788  220.6614 H   0  0  0  0  0  0  0  0  0  0  0  0
  143.6251   73.2609  219.2425 H   0  0  0  0  0  0  0  0  0  0  0  0
  143.7858   73.5372  220.9728 H   0  0  0  0  0  0  0  0  0  0  0  0
  141.3854   73.1636  219.5891 H   0  0  0  0  0  0  0  0  0  0  0  0
  141.5029   73.8825  221.2029 H   0  0  0  0  0  0  0  0  0  0  0  0
  140.5713   75.2541  218.9009 H   0  0  0  0  0  0  0  0  0  0  0  0
  143.5690   78.7235  222.0809 H   0  0  0  0  0  0  0  0  0  0  0  0
  144.5539   80.7309  223.1179 H   0  0  0  0  0  0  0  0  0  0  0  0
  143.1527   82.2686  224.4853 H   0  0  0  0  0  0  0  0  0  0  0  0
  140.7354   81.7516  224.7862 H   0  0  0  0  0  0  0  0  0  0  0  0
  139.7801   79.7458  223.7498 H   0  0  0  0  0  0  0  0  0  0  0  0
  139.1521   77.7773  223.5155 H   0  0  0  0  0  0  0  0  0  0  0  0
  142.2968   82.4605  219.8280 H   0  0  0  0  0  0  0  0  0  0  0  0
  140.6905   83.4996  221.4458 H   0  0  0  0  0  0  0  0  0  0  0  0
  138.6260   83.3512  222.7662 H   0  0  0  0  0  0  0  0  0  0  0  0
  136.2573   79.7451  222.5231 H   0  0  0  0  0  0  0  0  0  0  0  0
  137.9115   78.7881  220.9201 H   0  0  0  0  0  0  0  0  0  0  0  0
  1  2  2  0
  2  3  1  0
  3  4  1  0
  4  5  1  0
  5  6  2  0
  5  7  1  0
  7  8  1  0
  8  9  1  0
  9 10  1  0
 10 11  1  0
 11 12  1  0
 12 13  2  0
 13 14  1  0
 14 15  1  0
 15 16  2  0
 16 17  1  0
 17 18  2  0
 18 19  1  0
 19 20  2  0
 14 21  2  0
 21 22  1  0
  2 23  1  0
 23 24  2  0
 24 25  1  0
 25 26  2  0
 26 27  1  0
 27 28  2  0
 28 29  1  0
 28 30  1  0
 30 31  2  0
 31 32  1  0
 32 33  2  0
 11  7  1  0
 22 12  1  0
 33 23  1  0
 20 15  1  0
 32 26  1  0
  3 34  1  0
  4 35  1  0
  4 36  1  0
  8 37  1  0
  8 38  1  0
  9 39  1  0
  9 40  1  0
 10 41  1  0
 10 42  1  0
 11 43  1  6
 16 44  1  0
 17 45  1  0
 18 46  1  0
 19 47  1  0
 20 48  1  0
 21 49  1  0
 24 50  1  0
 25 51  1  0
 27 52  1  0
 30 53  1  0
 31 54  1  0
M  END
>  <smiles>  (48) 
O=C(NCC(=O)N1CCC[C@H]1c1nc(-c2ccccc2)cs1)c1ccc2cc(Cl)ccc2n1

>  <score_type>  (48) 
oracle

>  <origin>  (48) 
autodockgpu

>  <m_score__min__energy>  (48) 
-9.7699999999999996

>  <m_primary>  (48) 
energy

>  <rmsd>  (48) 
8.495213917929657

>  <m_score__min__rmsd>  (48) 
8.495213917929657

>  <meeko>  (48) 
{"free_energy": -6.29, "intermolecular_energy": -8.08, "internal_energy": -4.66, "cluster_size": 1, "cluster_id": 12, "rank_in_cluster": 1}

>  <energy>  (48) 
-6.74

>  <cluster_rmsd>  (48) 
0.0

>  <cluster>  (48) 
11

$$$$

     RDKit          3D

 54 58  0  0  0  0  0  0  0  0999 V2000
  137.2010   70.8480  221.3000 O   0  0  0  0  0  0  0  0  0  0  0  0
  137.8260   71.4130  222.2560 C   0  0  0  0  0  0  0  0  0  0  0  0
  138.0040   72.8210  222.2610 N   0  0  0  0  0  0  0  0  0  0  0  0
  137.4860   73.6610  221.1840 C   0  0  0  0  0  0  0  0  0  0  0  0
  137.9220   75.0640  221.3960 C   0  0  0  0  0  0  0  0  0  0  0  0
  138.9990   75.5190  220.9310 O   0  0  0  0  0  0  0  0  0  0  0  0
  137.1120   75.9520  222.1500 N   0  0  0  0  0  0  0  0  0  0  0  0
  136.5720   75.7000  223.4940 C   0  0  0  0  0  0  0  0  0  0  0  0
  135.1390   76.1440  223.3120 C   0  0  0  0  0  0  0  0  0  0  0  0
  135.2300   77.3120  222.4070 C   0  0  0  0  0  0  0  0  0  0  0  0
  136.6180   77.2740  221.8230 C   0  0  1  0  0  0  0  0  0  0  0  0
  137.4550   78.3340  222.4880 C   0  0  0  0  0  0  0  0  0  0  0  0
  138.6060   78.6300  222.6040 N   0  0  0  0  0  0  0  0  0  0  0  0
  139.1320   79.6330  223.2450 C   0  0  0  0  0  0  0  0  0  0  0  0
  140.5600   79.9240  223.3360 C   0  0  0  0  0  0  0  0  0  0  0  0
  141.5180   79.0240  222.9220 C   0  0  0  0  0  0  0  0  0  0  0  0
  142.8670   79.3130  223.0140 C   0  0  0  0  0  0  0  0  0  0  0  0
  143.2980   80.5250  223.5280 C   0  0  0  0  0  0  0  0  0  0  0  0
  142.3560   81.4350  223.9460 C   0  0  0  0  0  0  0  0  0  0  0  0
  141.0210   81.1240  223.8440 C   0  0  0  0  0  0  0  0  0  0  0  0
  138.1870   80.4550  223.8740 C   0  0  0  0  0  0  0  0  0  0  0  0
  136.5500   79.6760  223.4670 S   0  0  0  0  0  0  0  0  0  0  0  0
  138.3660   70.6000  223.3640 C   0  0  0  0  0  0  0  0  0  0  0  0
  138.1090   69.2450  223.3820 C   0  0  0  0  0  0  0  0  0  0  0  0
  138.6290   68.4940  224.4380 C   0  0  0  0  0  0  0  0  0  0  0  0
  139.3760   69.0910  225.4320 C   0  0  0  0  0  0  0  0  0  0  0  0
  139.8980   68.3750  226.4810 C   0  0  0  0  0  0  0  0  0  0  0  0
  140.6290   69.0450  227.4240 C   0  0  0  0  0  0  0  0  0  0  0  0
  141.3200   68.1840  228.7850 Cl  0  0  0  0  0  0  0  0  0  0  0  0
  140.8680   70.4130  227.3730 C   0  0  0  0  0  0  0  0  0  0  0  0
  140.3330   71.1110  226.3100 C   0  0  0  0  0  0  0  0  0  0  0  0
  139.5860   70.4570  225.3360 C   0  0  0  0  0  0  0  0  0  0  0  0
  139.0940   71.1980  224.3260 N   0  0  0  0  0  0  0  0  0  0  0  0
  138.5280   73.2160  223.0800 H   0  0  0  0  0  0  0  0  0  0  0  0
  137.8715   73.2992  220.2194 H   0  0  0  0  0  0  0  0  0  0  0  0
  136.3869   73.6156  221.1805 H   0  0  0  0  0  0  0  0  0  0  0  0
  136.6348   74.6351  223.7622 H   0  0  0  0  0  0  0  0  0  0  0  0
  137.1088   76.2153  224.3042 H   0  0  0  0  0  0  0  0  0  0  0  0
  134.5380   75.3435  222.8559 H   0  0  0  0  0  0  0  0  0  0  0  0
  134.6505   76.3891  224.2666 H   0  0  0  0  0  0  0  0  0  0  0  0
  134.4768   77.2373  221.6088 H   0  0  0  0  0  0  0  0  0  0  0  0
  135.0428   78.2541  222.9431 H   0  0  0  0  0  0  0  0  0  0  0  0
  136.6431   77.4622  220.7395 H   0  0  0  0  0  0  0  0  0  0  0  0
  141.2025   78.0544  222.5093 H   0  0  0  0  0  0  0  0  0  0  0  0
  143.6062   78.5722  222.6753 H   0  0  0  0  0  0  0  0  0  0  0  0
  144.3714   80.7545  223.6002 H   0  0  0  0  0  0  0  0  0  0  0  0
  142.6685   82.4053  224.3592 H   0  0  0  0  0  0  0  0  0  0  0  0
  140.2835   81.8663  224.1832 H   0  0  0  0  0  0  0  0  0  0  0  0
  138.3727   81.3582  224.4737 H   0  0  0  0  0  0  0  0  0  0  0  0
  137.5126   68.7706  222.5887 H   0  0  0  0  0  0  0  0  0  0  0  0
  138.4403   67.4110  224.4778 H   0  0  0  0  0  0  0  0  0  0  0  0
  139.7327   67.2905  226.5613 H   0  0  0  0  0  0  0  0  0  0  0  0
  141.4603   70.9193  228.1494 H   0  0  0  0  0  0  0  0  0  0  0  0
  140.4989   72.1956  226.2320 H   0  0  0  0  0  0  0  0  0  0  0  0
  1  2  2  0
  2  3  1  0
  3  4  1  0
  4  5  1  0
  5  6  2  0
  5  7  1  0
  7  8  1  0
  8  9  1  0
  9 10  1  0
 10 11  1  0
 11 12  1  0
 12 13  2  0
 13 14  1  0
 14 15  1  0
 15 16  2  0
 16 17  1  0
 17 18  2  0
 18 19  1  0
 19 20  2  0
 14 21  2  0
 21 22  1  0
  2 23  1  0
 23 24  2  0
 24 25  1  0
 25 26  2  0
 26 27  1  0
 27 28  2  0
 28 29  1  0
 28 30  1  0
 30 31  2  0
 31 32  1  0
 32 33  2  0
 11  7  1  0
 22 12  1  0
 33 23  1  0
 20 15  1  0
 32 26  1  0
  3 34  1  0
  4 35  1  0
  4 36  1  0
  8 37  1  0
  8 38  1  0
  9 39  1  0
  9 40  1  0
 10 41  1  0
 10 42  1  0
 11 43  1  6
 16 44  1  0
 17 45  1  0
 18 46  1  0
 19 47  1  0
 20 48  1  0
 21 49  1  0
 24 50  1  0
 25 51  1  0
 27 52  1  0
 30 53  1  0
 31 54  1  0
M  END
>  <smiles>  (49) 
O=C(NCC(=O)N1CCC[C@H]1c1nc(-c2ccccc2)cs1)c1ccc2cc(Cl)ccc2n1

>  <score_type>  (49) 
oracle

>  <origin>  (49) 
autodockgpu

>  <m_score__min__energy>  (49) 
-9.7699999999999996

>  <m_primary>  (49) 
energy

>  <rmsd>  (49) 
3.905341234487271

>  <m_score__min__rmsd>  (49) 
3.905341234487271

>  <meeko>  (49) 
{"free_energy": -8.95, "intermolecular_energy": -10.74, "internal_energy": -1.87, "cluster_size": 1, "cluster_id": 4, "rank_in_cluster": 1}

>  <energy>  (49) 
-6.29

>  <cluster_rmsd>  (49) 
0.0

>  <cluster>  (49) 
12

$$$$

     RDKit          3D

 54 58  0  0  0  0  0  0  0  0999 V2000
  141.7680   74.8700  220.7270 O   0  0  0  0  0  0  0  0  0  0  0  0
  141.0410   75.9150  220.6790 C   0  0  0  0  0  0  0  0  0  0  0  0
  139.7840   75.9450  221.3360 N   0  0  0  0  0  0  0  0  0  0  0  0
  139.2830   74.7920  222.0810 C   0  0  0  0  0  0  0  0  0  0  0  0
  137.8140   74.6840  221.8980 C   0  0  0  0  0  0  0  0  0  0  0  0
  137.2700   73.7030  221.3290 O   0  0  0  0  0  0  0  0  0  0  0  0
  136.9630   75.7130  222.3760 N   0  0  0  0  0  0  0  0  0  0  0  0
  136.2090   75.6960  223.6380 C   0  0  0  0  0  0  0  0  0  0  0  0
  134.8550   76.1730  223.1670 C   0  0  0  0  0  0  0  0  0  0  0  0
  135.1640   77.1840  222.1300 C   0  0  0  0  0  0  0  0  0  0  0  0
  136.6190   76.9920  221.7870 C   0  0  1  0  0  0  0  0  0  0  0  0
  137.4180   78.1010  222.4190 C   0  0  0  0  0  0  0  0  0  0  0  0
  138.5570   78.4440  222.5200 N   0  0  0  0  0  0  0  0  0  0  0  0
  139.0470   79.4840  223.1310 C   0  0  0  0  0  0  0  0  0  0  0  0
  140.4630   79.8320  223.2050 C   0  0  0  0  0  0  0  0  0  0  0  0
  141.4580   78.8960  223.0160 C   0  0  0  0  0  0  0  0  0  0  0  0
  142.7950   79.2410  223.0890 C   0  0  0  0  0  0  0  0  0  0  0  0
  143.1760   80.5460  223.3550 C   0  0  0  0  0  0  0  0  0  0  0  0
  142.1980   81.4920  223.5460 C   0  0  0  0  0  0  0  0  0  0  0  0
  140.8760   81.1250  223.4690 C   0  0  0  0  0  0  0  0  0  0  0  0
  138.0740   80.2850  223.7440 C   0  0  0  0  0  0  0  0  0  0  0  0
  136.4660   79.4320  223.3690 S   0  0  0  0  0  0  0  0  0  0  0  0
  141.5100   77.1030  219.9370 C   0  0  0  0  0  0  0  0  0  0  0  0
  142.4780   76.9430  218.9680 C   0  0  0  0  0  0  0  0  0  0  0  0
  142.9080   78.0780  218.2770 C   0  0  0  0  0  0  0  0  0  0  0  0
  142.3780   79.3200  218.5570 C   0  0  0  0  0  0  0  0  0  0  0  0
  142.7830   80.4520  217.8930 C   0  0  0  0  0  0  0  0  0  0  0  0
  142.2060   81.6450  218.2320 C   0  0  0  0  0  0  0  0  0  0  0  0
  142.6830   83.1210  217.4180 Cl  0  0  0  0  0  0  0  0  0  0  0  0
  141.2320   81.7680  219.2150 C   0  0  0  0  0  0  0  0  0  0  0  0
  140.8420   80.6180  219.8680 C   0  0  0  0  0  0  0  0  0  0  0  0
  141.4100   79.3910  219.5460 C   0  0  0  0  0  0  0  0  0  0  0  0
  140.9830   78.3090  220.2220 N   0  0  0  0  0  0  0  0  0  0  0  0
  139.2410   76.8390  221.2530 H   0  0  0  0  0  0  0  0  0  0  0  0
  139.7670   73.8769  221.7091 H   0  0  0  0  0  0  0  0  0  0  0  0
  139.5107   74.9193  223.1496 H   0  0  0  0  0  0  0  0  0  0  0  0
  136.1555   74.6831  224.0637 H   0  0  0  0  0  0  0  0  0  0  0  0
  136.6517   76.3042  224.4406 H   0  0  0  0  0  0  0  0  0  0  0  0
  134.2756   75.3412  222.7399 H   0  0  0  0  0  0  0  0  0  0  0  0
  134.2456   76.5832  223.9857 H   0  0  0  0  0  0  0  0  0  0  0  0
  134.5368   77.0240  221.2406 H   0  0  0  0  0  0  0  0  0  0  0  0
  134.9648   78.2046  222.4887 H   0  0  0  0  0  0  0  0  0  0  0  0
  136.8216   77.0110  220.7060 H   0  0  0  0  0  0  0  0  0  0  0  0
  141.1821   77.8527  222.8026 H   0  0  0  0  0  0  0  0  0  0  0  0
  143.5647   78.4706  222.9341 H   0  0  0  0  0  0  0  0  0  0  0  0
  144.2399   80.8194  223.4121 H   0  0  0  0  0  0  0  0  0  0  0  0
  142.4714   82.5359  223.7591 H   0  0  0  0  0  0  0  0  0  0  0  0
  140.1087   81.8976  223.6250 H   0  0  0  0  0  0  0  0  0  0  0  0
  138.2276   81.2106  224.3181 H   0  0  0  0  0  0  0  0  0  0  0  0
  142.8988   75.9512  218.7460 H   0  0  0  0  0  0  0  0  0  0  0  0
  143.6796   77.9800  217.4992 H   0  0  0  0  0  0  0  0  0  0  0  0
  143.5521   80.4006  217.1083 H   0  0  0  0  0  0  0  0  0  0  0  0
  140.7895   82.7442  219.4625 H   0  0  0  0  0  0  0  0  0  0  0  0
  140.0728   80.6722  220.6525 H   0  0  0  0  0  0  0  0  0  0  0  0
  1  2  2  0
  2  3  1  0
  3  4  1  0
  4  5  1  0
  5  6  2  0
  5  7  1  0
  7  8  1  0
  8  9  1  0
  9 10  1  0
 10 11  1  0
 11 12  1  0
 12 13  2  0
 13 14  1  0
 14 15  1  0
 15 16  2  0
 16 17  1  0
 17 18  2  0
 18 19  1  0
 19 20  2  0
 14 21  2  0
 21 22  1  0
  2 23  1  0
 23 24  2  0
 24 25  1  0
 25 26  2  0
 26 27  1  0
 27 28  2  0
 28 29  1  0
 28 30  1  0
 30 31  2  0
 31 32  1  0
 32 33  2  0
 11  7  1  0
 22 12  1  0
 33 23  1  0
 20 15  1  0
 32 26  1  0
  3 34  1  0
  4 35  1  0
  4 36  1  0
  8 37  1  0
  8 38  1  0
  9 39  1  0
  9 40  1  0
 10 41  1  0
 10 42  1  0
 11 43  1  6
 16 44  1  0
 17 45  1  0
 18 46  1  0
 19 47  1  0
 20 48  1  0
 21 49  1  0
 24 50  1  0
 25 51  1  0
 27 52  1  0
 30 53  1  0
 31 54  1  0
M  END
>  <smiles>  (50) 
O=C(NCC(=O)N1CCC[C@H]1c1nc(-c2ccccc2)cs1)c1ccc2cc(Cl)ccc2n1

>  <score_type>  (50) 
oracle

>  <origin>  (50) 
autodockgpu

>  <m_score__min__energy>  (50) 
-9.7699999999999996

>  <m_primary>  (50) 
energy

>  <rmsd>  (50) 
8.004580689301537

>  <m_score__min__rmsd>  (50) 
8.004580689301537

>  <meeko>  (50) 
{"free_energy": -6.77, "intermolecular_energy": -8.56, "internal_energy": -4.06, "cluster_size": 7, "cluster_id": 10, "rank_in_cluster": 1}

>  <energy>  (50) 
-6.18

>  <cluster_rmsd>  (50) 
0.0

>  <cluster>  (50) 
13

$$$$
