
     RDKit          3D

 58 61  0  0  0  0  0  0  0  0999 V2000
  139.5940   73.9510  222.3650 O   0  0  0  0  0  0  0  0  0  0  0  0
  140.2540   72.8650  222.3110 C   0  0  0  0  0  0  0  0  0  0  0  0
  140.9820   72.6520  221.1020 N   0  0  0  0  0  0  0  0  0  0  0  0
  140.8790   73.6950  220.0940 C   0  0  0  0  0  0  0  0  0  0  0  0
  141.7370   74.8230  220.5510 C   0  0  0  0  0  0  0  0  0  0  0  0
  142.8710   74.5050  220.9990 O   0  0  0  0  0  0  0  0  0  0  0  0
  141.2550   76.1500  220.4640 N   0  0  0  0  0  0  0  0  0  0  0  0
  140.8710   76.5560  219.0840 C   0  0  0  0  0  0  0  0  0  0  0  0
  139.4490   77.0980  219.1380 C   0  0  0  0  0  0  0  0  0  0  0  0
  138.6610   76.4360  220.2540 C   0  0  0  0  0  0  0  0  0  0  0  0
  138.7620   77.1360  221.5580 C   0  0  0  0  0  0  0  0  0  0  0  0
  139.9430   76.6900  222.4340 C   0  0  0  0  0  0  0  0  0  0  0  0
  141.1840   77.0040  221.5970 C   0  0  2  0  0  0  0  0  0  0  0  0
  141.5880   78.4040  221.5150 C   0  0  0  0  0  0  0  0  0  0  0  0
  141.8360   78.8670  222.9670 C   0  0  0  0  0  0  0  0  0  0  0  0
  142.6110   80.1660  222.9580 C   0  0  0  0  0  0  0  0  0  0  0  0
  141.7460   81.0960  222.3620 O   0  0  0  0  0  0  0  0  0  0  0  0
  141.5690   80.7750  221.0440 C   0  0  0  0  0  0  0  0  0  0  0  0
  140.8090   79.4400  220.8440 C   0  0  0  0  0  0  0  0  0  0  0  0
  140.2670   71.9030  223.4040 C   0  0  0  0  0  0  0  0  0  0  0  0
  139.7820   70.6380  223.1430 C   0  0  0  0  0  0  0  0  0  0  0  0
  139.7590   69.6580  224.1310 C   0  0  0  0  0  0  0  0  0  0  0  0
  140.2330   69.9740  225.3980 C   0  0  0  0  0  0  0  0  0  0  0  0
  140.2100   69.0080  226.3740 C   0  0  0  0  0  0  0  0  0  0  0  0
  140.6910   69.3460  227.6360 C   0  0  0  0  0  0  0  0  0  0  0  0
  140.6820   68.1470  228.9100 Cl  0  0  0  0  0  0  0  0  0  0  0  0
  141.1610   70.6150  227.8440 C   0  0  0  0  0  0  0  0  0  0  0  0
  141.1900   71.5960  226.8700 C   0  0  0  0  0  0  0  0  0  0  0  0
  140.7150   71.2620  225.6240 C   0  0  0  0  0  0  0  0  0  0  0  0
  140.7220   72.1890  224.6370 N   0  0  0  0  0  0  0  0  0  0  0  0
  141.5540   71.7850  220.9710 H   0  0  0  0  0  0  0  0  0  0  0  0
  141.2335   73.3191  219.1229 H   0  0  0  0  0  0  0  0  0  0  0  0
  139.8356   74.0195  219.9677 H   0  0  0  0  0  0  0  0  0  0  0  0
  141.5554   77.3361  218.7192 H   0  0  0  0  0  0  0  0  0  0  0  0
  140.9293   75.6965  218.4000 H   0  0  0  0  0  0  0  0  0  0  0  0
  139.4833   78.1831  219.3155 H   0  0  0  0  0  0  0  0  0  0  0  0
  138.9530   76.8818  218.1803 H   0  0  0  0  0  0  0  0  0  0  0  0
  137.6018   76.4048  219.9588 H   0  0  0  0  0  0  0  0  0  0  0  0
  139.0895   75.4329  220.3960 H   0  0  0  0  0  0  0  0  0  0  0  0
  138.8680   78.2132  221.3618 H   0  0  0  0  0  0  0  0  0  0  0  0
  137.8479   76.8870  222.1170 H   0  0  0  0  0  0  0  0  0  0  0  0
  139.9596   77.2524  223.3792 H   0  0  0  0  0  0  0  0  0  0  0  0
  139.8818   75.6261  222.7067 H   0  0  0  0  0  0  0  0  0  0  0  0
  142.0823   76.7207  222.1652 H   0  0  0  0  0  0  0  0  0  0  0  0
  142.4346   78.3384  220.8157 H   0  0  0  0  0  0  0  0  0  0  0  0
  140.8712   79.0194  223.4728 H   0  0  0  0  0  0  0  0  0  0  0  0
  142.4142   78.0994  223.5023 H   0  0  0  0  0  0  0  0  0  0  0  0
  142.8634   80.4736  223.9835 H   0  0  0  0  0  0  0  0  0  0  0  0
  143.5632   80.0773  222.4144 H   0  0  0  0  0  0  0  0  0  0  0  0
  140.9964   81.5803  220.5607 H   0  0  0  0  0  0  0  0  0  0  0  0
  142.5670   80.6561  220.5969 H   0  0  0  0  0  0  0  0  0  0  0  0
  139.8050   79.5060  221.2886 H   0  0  0  0  0  0  0  0  0  0  0  0
  140.6888   79.2117  219.7747 H   0  0  0  0  0  0  0  0  0  0  0  0
  139.4070   70.3999  222.1367 H   0  0  0  0  0  0  0  0  0  0  0  0
  139.3725   68.6515  223.9126 H   0  0  0  0  0  0  0  0  0  0  0  0
  139.8239   67.9994  226.1652 H   0  0  0  0  0  0  0  0  0  0  0  0
  141.5380   70.8693  228.8456 H   0  0  0  0  0  0  0  0  0  0  0  0
  141.5775   72.6031  227.0836 H   0  0  0  0  0  0  0  0  0  0  0  0
  1  2  2  0
  2  3  1  0
  3  4  1  0
  4  5  1  0
  5  6  2  0
  5  7  1  0
  7  8  1  0
  8  9  1  0
  9 10  1  0
 10 11  1  0
 11 12  1  0
 12 13  1  0
 13 14  1  0
 14 15  1  0
 15 16  1  0
 16 17  1  0
 17 18  1  0
 18 19  1  0
  2 20  1  0
 20 21  2  0
 21 22  1  0
 22 23  2  0
 23 24  1  0
 24 25  2  0
 25 26  1  0
 25 27  1  0
 27 28  2  0
 28 29  1  0
 29 30  2  0
 13  7  1  0
 19 14  1  0
 30 20  1  0
 29 23  1  0
  3 31  1  0
  4 32  1  0
  4 33  1  0
  8 34  1  0
  8 35  1  0
  9 36  1  0
  9 37  1  0
 10 38  1  0
 10 39  1  0
 11 40  1  0
 11 41  1  0
 12 42  1  0
 12 43  1  0
 13 44  1  1
 14 45  1  0
 15 46  1  0
 15 47  1  0
 16 48  1  0
 16 49  1  0
 18 50  1  0
 18 51  1  0
 19 52  1  0
 19 53  1  0
 21 54  1  0
 22 55  1  0
 24 56  1  0
 27 57  1  0
 28 58  1  0
M  END
>  <smiles>  (1) 
O=C(NCC(=O)N1CCCCCC1C1CCOCC1)c1ccc2cc(Cl)ccc2n1

>  <score_type>  (1) 
oracle

>  <origin>  (1) 
autodockgpu

>  <m_score__min__energy>  (1) 
-6.4400000000000004

>  <m_primary>  (1) 
energy

>  <rmsd>  (1) 
2.547582365616524

>  <m_score__min__rmsd>  (1) 
2.547582365616524

>  <meeko>  (1) 
{"free_energy": -5.97, "intermolecular_energy": -9.25, "internal_energy": -1.68, "cluster_size": 27, "cluster_id": 1, "rank_in_cluster": 8}

>  <energy>  (1) 
-6.44

>  <cluster_rmsd>  (1) 
0.0

>  <cluster>  (1) 
1

$$$$

     RDKit          3D

 58 61  0  0  0  0  0  0  0  0999 V2000
  136.3970   77.6570  223.0550 O   0  0  0  0  0  0  0  0  0  0  0  0
  136.4150   76.4260  223.3730 C   0  0  0  0  0  0  0  0  0  0  0  0
  137.4980   75.6690  222.8310 N   0  0  0  0  0  0  0  0  0  0  0  0
  138.4360   76.3970  221.9920 C   0  0  0  0  0  0  0  0  0  0  0  0
  139.6670   75.5650  221.8980 C   0  0  0  0  0  0  0  0  0  0  0  0
  139.5930   74.4130  222.4070 O   0  0  0  0  0  0  0  0  0  0  0  0
  140.8190   76.0860  221.2660 N   0  0  0  0  0  0  0  0  0  0  0  0
  141.9340   75.1070  221.1540 C   0  0  0  0  0  0  0  0  0  0  0  0
  141.7180   74.3000  219.8810 C   0  0  0  0  0  0  0  0  0  0  0  0
  141.8610   75.1810  218.6530 C   0  0  0  0  0  0  0  0  0  0  0  0
  142.2110   76.5890  218.9610 C   0  0  0  0  0  0  0  0  0  0  0  0
  141.0150   77.4900  219.2940 C   0  0  0  0  0  0  0  0  0  0  0  0
  140.8910   77.4330  220.8180 C   0  0  2  0  0  0  0  0  0  0  0  0
  141.6170   78.4460  221.5780 C   0  0  0  0  0  0  0  0  0  0  0  0
  141.1350   78.3170  223.0390 C   0  0  0  0  0  0  0  0  0  0  0  0
  142.0910   79.0520  223.9530 C   0  0  0  0  0  0  0  0  0  0  0  0
  141.9710   80.4020  223.5880 O   0  0  0  0  0  0  0  0  0  0  0  0
  142.4720   80.5790  222.3270 C   0  0  0  0  0  0  0  0  0  0  0  0
  141.6350   79.8650  221.2380 C   0  0  0  0  0  0  0  0  0  0  0  0
  135.4020   75.8260  224.2300 C   0  0  0  0  0  0  0  0  0  0  0  0
  134.4640   76.6680  224.7910 C   0  0  0  0  0  0  0  0  0  0  0  0
  133.4610   76.1760  225.6230 C   0  0  0  0  0  0  0  0  0  0  0  0
  133.4180   74.8130  225.8830 C   0  0  0  0  0  0  0  0  0  0  0  0
  132.4290   74.3260  226.7040 C   0  0  0  0  0  0  0  0  0  0  0  0
  132.4040   72.9570  226.9510 C   0  0  0  0  0  0  0  0  0  0  0  0
  131.1620   72.2920  227.9900 Cl  0  0  0  0  0  0  0  0  0  0  0  0
  133.3580   72.1650  226.3710 C   0  0  0  0  0  0  0  0  0  0  0  0
  134.3570   72.6420  225.5440 C   0  0  0  0  0  0  0  0  0  0  0  0
  134.3820   73.9930  225.2990 C   0  0  0  0  0  0  0  0  0  0  0  0
  135.3430   74.5080  224.4950 N   0  0  0  0  0  0  0  0  0  0  0  0
  137.5920   74.6490  223.0420 H   0  0  0  0  0  0  0  0  0  0  0  0
  138.0068   76.5522  220.9911 H   0  0  0  0  0  0  0  0  0  0  0  0
  138.6604   77.3859  222.4183 H   0  0  0  0  0  0  0  0  0  0  0  0
  142.8953   75.6390  221.1013 H   0  0  0  0  0  0  0  0  0  0  0  0
  141.9527   74.4436  222.0312 H   0  0  0  0  0  0  0  0  0  0  0  0
  142.4641   73.4930  219.8347 H   0  0  0  0  0  0  0  0  0  0  0  0
  140.7011   73.8810  219.8976 H   0  0  0  0  0  0  0  0  0  0  0  0
  142.6512   74.7594  218.0144 H   0  0  0  0  0  0  0  0  0  0  0  0
  140.8800   75.1973  218.1557 H   0  0  0  0  0  0  0  0  0  0  0  0
  142.8924   76.5914  219.8245 H   0  0  0  0  0  0  0  0  0  0  0  0
  142.6660   77.0021  218.0487 H   0  0  0  0  0  0  0  0  0  0  0  0
  141.2022   78.5210  218.9593 H   0  0  0  0  0  0  0  0  0  0  0  0
  140.0945   77.1587  218.7911 H   0  0  0  0  0  0  0  0  0  0  0  0
  139.9112   77.8349  221.1154 H   0  0  0  0  0  0  0  0  0  0  0  0
  142.6573   78.1917  221.3266 H   0  0  0  0  0  0  0  0  0  0  0  0
  140.1295   78.7531  223.1331 H   0  0  0  0  0  0  0  0  0  0  0  0
  141.1020   77.2544  223.3215 H   0  0  0  0  0  0  0  0  0  0  0  0
  141.8073   78.9088  225.0061 H   0  0  0  0  0  0  0  0  0  0  0  0
  143.1235   78.6858  223.8542 H   0  0  0  0  0  0  0  0  0  0  0  0
  142.4902   81.6562  222.1050 H   0  0  0  0  0  0  0  0  0  0  0  0
  143.4800   80.1389  222.3086 H   0  0  0  0  0  0  0  0  0  0  0  0
  140.6100   80.2641  221.2268 H   0  0  0  0  0  0  0  0  0  0  0  0
  142.0696   80.0248  220.2402 H   0  0  0  0  0  0  0  0  0  0  0  0
  134.5090   77.7462  224.5776 H   0  0  0  0  0  0  0  0  0  0  0  0
  132.7170   76.8547  226.0657 H   0  0  0  0  0  0  0  0  0  0  0  0
  131.6812   74.9972  227.1515 H   0  0  0  0  0  0  0  0  0  0  0  0
  133.3276   71.0846  226.5754 H   0  0  0  0  0  0  0  0  0  0  0  0
  135.1026   71.9664  225.0996 H   0  0  0  0  0  0  0  0  0  0  0  0
  1  2  2  0
  2  3  1  0
  3  4  1  0
  4  5  1  0
  5  6  2  0
  5  7  1  0
  7  8  1  0
  8  9  1  0
  9 10  1  0
 10 11  1  0
 11 12  1  0
 12 13  1  0
 13 14  1  0
 14 15  1  0
 15 16  1  0
 16 17  1  0
 17 18  1  0
 18 19  1  0
  2 20  1  0
 20 21  2  0
 21 22  1  0
 22 23  2  0
 23 24  1  0
 24 25  2  0
 25 26  1  0
 25 27  1  0
 27 28  2  0
 28 29  1  0
 29 30  2  0
 13  7  1  0
 19 14  1  0
 30 20  1  0
 29 23  1  0
  3 31  1  0
  4 32  1  0
  4 33  1  0
  8 34  1  0
  8 35  1  0
  9 36  1  0
  9 37  1  0
 10 38  1  0
 10 39  1  0
 11 40  1  0
 11 41  1  0
 12 42  1  0
 12 43  1  0
 13 44  1  6
 14 45  1  0
 15 46  1  0
 15 47  1  0
 16 48  1  0
 16 49  1  0
 18 50  1  0
 18 51  1  0
 19 52  1  0
 19 53  1  0
 21 54  1  0
 22 55  1  0
 24 56  1  0
 27 57  1  0
 28 58  1  0
M  END
>  <smiles>  (2) 
O=C(NCC(=O)N1CCCCCC1C1CCOCC1)c1ccc2cc(Cl)ccc2n1

>  <score_type>  (2) 
oracle

>  <origin>  (2) 
autodockgpu

>  <m_score__min__energy>  (2) 
-6.4400000000000004

>  <m_primary>  (2) 
energy

>  <rmsd>  (2) 
6.0395453596223465

>  <m_score__min__rmsd>  (2) 
6.0395453596223465

>  <meeko>  (2) 
{"free_energy": -4.76, "intermolecular_energy": -8.04, "internal_energy": -2.21, "cluster_size": 1, "cluster_id": 8, "rank_in_cluster": 1}

>  <energy>  (2) 
-6.32

>  <cluster_rmsd>  (2) 
0.82

>  <cluster>  (2) 
1

$$$$

     RDKit          3D

 58 61  0  0  0  0  0  0  0  0999 V2000
  141.8950   72.6800  220.8650 O   0  0  0  0  0  0  0  0  0  0  0  0
  140.7350   72.2470  221.1560 C   0  0  0  0  0  0  0  0  0  0  0  0
  139.7460   72.4160  220.1400 N   0  0  0  0  0  0  0  0  0  0  0  0
  140.1870   73.0550  218.9110 C   0  0  0  0  0  0  0  0  0  0  0  0
  140.6360   74.4270  219.2740 C   0  0  0  0  0  0  0  0  0  0  0  0
  139.8640   75.0770  220.0290 O   0  0  0  0  0  0  0  0  0  0  0  0
  141.8640   74.9180  218.7720 N   0  0  0  0  0  0  0  0  0  0  0  0
  141.9130   74.9960  217.2860 C   0  0  0  0  0  0  0  0  0  0  0  0
  142.7360   76.2220  216.9130 C   0  0  0  0  0  0  0  0  0  0  0  0
  142.1530   77.4740  217.5420 C   0  0  0  0  0  0  0  0  0  0  0  0
  141.8450   77.3340  218.9860 C   0  0  0  0  0  0  0  0  0  0  0  0
  143.0010   76.7800  219.8380 C   0  0  0  0  0  0  0  0  0  0  0  0
  142.9450   75.2650  219.6270 C   0  0  2  0  0  0  0  0  0  0  0  0
  144.2210   74.5610  219.5580 C   0  0  0  0  0  0  0  0  0  0  0  0
  143.9690   73.2950  218.7100 C   0  0  0  0  0  0  0  0  0  0  0  0
  145.2940   72.7100  218.2710 C   0  0  0  0  0  0  0  0  0  0  0  0
  145.9180   72.3020  219.4610 O   0  0  0  0  0  0  0  0  0  0  0  0
  146.2420   73.4040  220.2050 C   0  0  0  0  0  0  0  0  0  0  0  0
  145.0000   74.1660  220.7280 C   0  0  0  0  0  0  0  0  0  0  0  0
  140.4330   71.6240  222.4370 C   0  0  0  0  0  0  0  0  0  0  0  0
  139.4320   70.6740  222.4600 C   0  0  0  0  0  0  0  0  0  0  0  0
  139.0790   70.0290  223.6430 C   0  0  0  0  0  0  0  0  0  0  0  0
  139.7550   70.3590  224.8110 C   0  0  0  0  0  0  0  0  0  0  0  0
  139.4080   69.7240  225.9790 C   0  0  0  0  0  0  0  0  0  0  0  0
  140.0980   70.0680  227.1370 C   0  0  0  0  0  0  0  0  0  0  0  0
  139.6900   69.2850  228.6480 Cl  0  0  0  0  0  0  0  0  0  0  0  0
  141.0820   71.0160  227.0600 C   0  0  0  0  0  0  0  0  0  0  0  0
  141.4410   71.6630  225.8920 C   0  0  0  0  0  0  0  0  0  0  0  0
  140.7600   71.3230  224.7480 C   0  0  0  0  0  0  0  0  0  0  0  0
  141.0750   71.9280  223.5790 N   0  0  0  0  0  0  0  0  0  0  0  0
  138.7640   72.0880  220.2940 H   0  0  0  0  0  0  0  0  0  0  0  0
  141.0199   72.4892  218.4682 H   0  0  0  0  0  0  0  0  0  0  0  0
  139.3735   73.0897  218.1714 H   0  0  0  0  0  0  0  0  0  0  0  0
  142.3852   74.0898  216.8787 H   0  0  0  0  0  0  0  0  0  0  0  0
  140.8973   75.0732  216.8708 H   0  0  0  0  0  0  0  0  0  0  0  0
  143.7676   76.0860  217.2697 H   0  0  0  0  0  0  0  0  0  0  0  0
  142.7212   76.3372  215.8191 H   0  0  0  0  0  0  0  0  0  0  0  0
  142.8779   78.2924  217.4203 H   0  0  0  0  0  0  0  0  0  0  0  0
  141.2000   77.6741  217.0304 H   0  0  0  0  0  0  0  0  0  0  0  0
  141.5758   78.3263  219.3770 H   0  0  0  0  0  0  0  0  0  0  0  0
  141.0258   76.6036  219.0602 H   0  0  0  0  0  0  0  0  0  0  0  0
  143.9647   77.1844  219.4949 H   0  0  0  0  0  0  0  0  0  0  0  0
  142.9075   77.0571  220.8984 H   0  0  0  0  0  0  0  0  0  0  0  0
  142.6662   74.7779  220.5731 H   0  0  0  0  0  0  0  0  0  0  0  0
  144.8777   75.3525  219.1678 H   0  0  0  0  0  0  0  0  0  0  0  0
  143.4221   72.5538  219.3113 H   0  0  0  0  0  0  0  0  0  0  0  0
  143.3734   73.5597  217.8239 H   0  0  0  0  0  0  0  0  0  0  0  0
  145.1358   71.8511  217.6022 H   0  0  0  0  0  0  0  0  0  0  0  0
  145.9026   73.4349  217.7105 H   0  0  0  0  0  0  0  0  0  0  0  0
  146.8438   73.0806  221.0671 H   0  0  0  0  0  0  0  0  0  0  0  0
  146.7988   74.0911  219.5509 H   0  0  0  0  0  0  0  0  0  0  0  0
  144.4007   73.5116  221.3781 H   0  0  0  0  0  0  0  0  0  0  0  0
  145.2973   75.0453  221.3183 H   0  0  0  0  0  0  0  0  0  0  0  0
  138.9041   70.4220  221.5284 H   0  0  0  0  0  0  0  0  0  0  0  0
  138.2802   69.2728  223.6523 H   0  0  0  0  0  0  0  0  0  0  0  0
  138.6097   68.9674  225.9979 H   0  0  0  0  0  0  0  0  0  0  0  0
  141.6197   71.2791  227.9829 H   0  0  0  0  0  0  0  0  0  0  0  0
  142.2395   72.4194  225.8791 H   0  0  0  0  0  0  0  0  0  0  0  0
  1  2  2  0
  2  3  1  0
  3  4  1  0
  4  5  1  0
  5  6  2  0
  5  7  1  0
  7  8  1  0
  8  9  1  0
  9 10  1  0
 10 11  1  0
 11 12  1  0
 12 13  1  0
 13 14  1  0
 14 15  1  0
 15 16  1  0
 16 17  1  0
 17 18  1  0
 18 19  1  0
  2 20  1  0
 20 21  2  0
 21 22  1  0
 22 23  2  0
 23 24  1  0
 24 25  2  0
 25 26  1  0
 25 27  1  0
 27 28  2  0
 28 29  1  0
 29 30  2  0
 13  7  1  0
 19 14  1  0
 30 20  1  0
 29 23  1  0
  3 31  1  0
  4 32  1  0
  4 33  1  0
  8 34  1  0
  8 35  1  0
  9 36  1  0
  9 37  1  0
 10 38  1  0
 10 39  1  0
 11 40  1  0
 11 41  1  0
 12 42  1  0
 12 43  1  0
 13 44  1  1
 14 45  1  0
 15 46  1  0
 15 47  1  0
 16 48  1  0
 16 49  1  0
 18 50  1  0
 18 51  1  0
 19 52  1  0
 19 53  1  0
 21 54  1  0
 22 55  1  0
 24 56  1  0
 27 57  1  0
 28 58  1  0
M  END
>  <smiles>  (3) 
O=C(NCC(=O)N1CCCCCC1C1CCOCC1)c1ccc2cc(Cl)ccc2n1

>  <score_type>  (3) 
oracle

>  <origin>  (3) 
autodockgpu

>  <m_score__min__energy>  (3) 
-6.4400000000000004

>  <m_primary>  (3) 
energy

>  <rmsd>  (3) 
2.5282392824479927

>  <m_score__min__rmsd>  (3) 
2.5282392824479927

>  <meeko>  (3) 
{"free_energy": -4.71, "intermolecular_energy": -7.99, "internal_energy": -1.61, "cluster_size": 12, "cluster_id": 2, "rank_in_cluster": 11}

>  <energy>  (3) 
-6.28

>  <cluster_rmsd>  (3) 
0.8

>  <cluster>  (3) 
1

$$$$

     RDKit          3D

 58 61  0  0  0  0  0  0  0  0999 V2000
  139.7260   71.7720  220.8670 O   0  0  0  0  0  0  0  0  0  0  0  0
  139.7240   72.2280  222.0540 C   0  0  0  0  0  0  0  0  0  0  0  0
  139.5510   73.6410  222.1670 N   0  0  0  0  0  0  0  0  0  0  0  0
  139.3980   74.3740  220.9210 C   0  0  0  0  0  0  0  0  0  0  0  0
  140.1370   75.6560  221.0800 C   0  0  0  0  0  0  0  0  0  0  0  0
  140.0390   76.2110  222.2070 O   0  0  0  0  0  0  0  0  0  0  0  0
  140.8870   76.1710  219.9970 N   0  0  0  0  0  0  0  0  0  0  0  0
  140.0880   77.0100  219.0630 C   0  0  0  0  0  0  0  0  0  0  0  0
  140.5980   78.4410  219.1710 C   0  0  0  0  0  0  0  0  0  0  0  0
  141.7810   78.6630  218.2460 C   0  0  0  0  0  0  0  0  0  0  0  0
  142.9660   77.8350  218.5760 C   0  0  0  0  0  0  0  0  0  0  0  0
  142.7450   76.3190  218.4410 C   0  0  0  0  0  0  0  0  0  0  0  0
  142.2660   75.8740  219.8240 C   0  0  2  0  0  0  0  0  0  0  0  0
  142.8490   74.6480  220.3620 C   0  0  0  0  0  0  0  0  0  0  0  0
  144.3560   74.7080  220.0330 C   0  0  0  0  0  0  0  0  0  0  0  0
  145.0960   73.6850  220.8670 C   0  0  0  0  0  0  0  0  0  0  0  0
  144.6170   72.4440  220.4210 O   0  0  0  0  0  0  0  0  0  0  0  0
  143.3020   72.3110  220.7740 C   0  0  0  0  0  0  0  0  0  0  0  0
  142.3740   73.3070  220.0370 C   0  0  0  0  0  0  0  0  0  0  0  0
  139.8890   71.3720  223.2210 C   0  0  0  0  0  0  0  0  0  0  0  0
  139.4900   70.0560  223.1040 C   0  0  0  0  0  0  0  0  0  0  0  0
  139.6120   69.1690  224.1710 C   0  0  0  0  0  0  0  0  0  0  0  0
  140.1460   69.6320  225.3670 C   0  0  0  0  0  0  0  0  0  0  0  0
  140.2670   68.7590  226.4210 C   0  0  0  0  0  0  0  0  0  0  0  0
  140.8050   69.2430  227.6090 C   0  0  0  0  0  0  0  0  0  0  0  0
  140.9790   68.1670  228.9770 Cl  0  0  0  0  0  0  0  0  0  0  0  0
  141.1860   70.5570  227.6730 C   0  0  0  0  0  0  0  0  0  0  0  0
  141.0700   71.4450  226.6200 C   0  0  0  0  0  0  0  0  0  0  0  0
  140.5390   70.9680  225.4470 C   0  0  0  0  0  0  0  0  0  0  0  0
  140.4040   71.8000  224.3870 N   0  0  0  0  0  0  0  0  0  0  0  0
  139.5360   74.1020  223.1070 H   0  0  0  0  0  0  0  0  0  0  0  0
  139.8207   73.7946  220.0870 H   0  0  0  0  0  0  0  0  0  0  0  0
  138.3361   74.5565  220.6995 H   0  0  0  0  0  0  0  0  0  0  0  0
  140.2122   76.6452  218.0327 H   0  0  0  0  0  0  0  0  0  0  0  0
  139.0198   76.9621  219.3213 H   0  0  0  0  0  0  0  0  0  0  0  0
  139.7894   79.1338  218.8950 H   0  0  0  0  0  0  0  0  0  0  0  0
  140.9212   78.6229  220.2066 H   0  0  0  0  0  0  0  0  0  0  0  0
  141.4671   78.4245  217.2191 H   0  0  0  0  0  0  0  0  0  0  0  0
  142.0839   79.7141  218.3620 H   0  0  0  0  0  0  0  0  0  0  0  0
  143.7852   78.1238  217.9011 H   0  0  0  0  0  0  0  0  0  0  0  0
  143.1933   78.0239  219.6356 H   0  0  0  0  0  0  0  0  0  0  0  0
  141.9821   76.1042  217.6782 H   0  0  0  0  0  0  0  0  0  0  0  0
  143.6570   75.7910  218.1256 H   0  0  0  0  0  0  0  0  0  0  0  0
  142.7434   76.5027  220.5901 H   0  0  0  0  0  0  0  0  0  0  0  0
  142.5211   74.7008  221.4106 H   0  0  0  0  0  0  0  0  0  0  0  0
  144.5072   74.4894  218.9656 H   0  0  0  0  0  0  0  0  0  0  0  0
  144.7408   75.7132  220.2597 H   0  0  0  0  0  0  0  0  0  0  0  0
  146.1809   73.7631  220.7031 H   0  0  0  0  0  0  0  0  0  0  0  0
  144.9310   73.8305  221.9448 H   0  0  0  0  0  0  0  0  0  0  0  0
  142.9770   71.2874  220.5361 H   0  0  0  0  0  0  0  0  0  0  0  0
  143.2269   72.5261  221.8502 H   0  0  0  0  0  0  0  0  0  0  0  0
  142.4261   73.1400  218.9510 H   0  0  0  0  0  0  0  0  0  0  0  0
  141.3272   73.1738  220.3476 H   0  0  0  0  0  0  0  0  0  0  0  0
  139.0684   69.7015  222.1518 H   0  0  0  0  0  0  0  0  0  0  0  0
  139.2916   68.1217  224.0686 H   0  0  0  0  0  0  0  0  0  0  0  0
  139.9484   67.7102  226.3283 H   0  0  0  0  0  0  0  0  0  0  0  0
  141.6093   70.9276  228.6182 H   0  0  0  0  0  0  0  0  0  0  0  0
  141.3905   72.4927  226.7179 H   0  0  0  0  0  0  0  0  0  0  0  0
  1  2  2  0
  2  3  1  0
  3  4  1  0
  4  5  1  0
  5  6  2  0
  5  7  1  0
  7  8  1  0
  8  9  1  0
  9 10  1  0
 10 11  1  0
 11 12  1  0
 12 13  1  0
 13 14  1  0
 14 15  1  0
 15 16  1  0
 16 17  1  0
 17 18  1  0
 18 19  1  0
  2 20  1  0
 20 21  2  0
 21 22  1  0
 22 23  2  0
 23 24  1  0
 24 25  2  0
 25 26  1  0
 25 27  1  0
 27 28  2  0
 28 29  1  0
 29 30  2  0
 13  7  1  0
 19 14  1  0
 30 20  1  0
 29 23  1  0
  3 31  1  0
  4 32  1  0
  4 33  1  0
  8 34  1  0
  8 35  1  0
  9 36  1  0
  9 37  1  0
 10 38  1  0
 10 39  1  0
 11 40  1  0
 11 41  1  0
 12 42  1  0
 12 43  1  0
 13 44  1  1
 14 45  1  0
 15 46  1  0
 15 47  1  0
 16 48  1  0
 16 49  1  0
 18 50  1  0
 18 51  1  0
 19 52  1  0
 19 53  1  0
 21 54  1  0
 22 55  1  0
 24 56  1  0
 27 57  1  0
 28 58  1  0
M  END
>  <smiles>  (4) 
O=C(NCC(=O)N1CCCCCC1C1CCOCC1)c1ccc2cc(Cl)ccc2n1

>  <score_type>  (4) 
oracle

>  <origin>  (4) 
autodockgpu

>  <m_score__min__energy>  (4) 
-6.4400000000000004

>  <m_primary>  (4) 
energy

>  <rmsd>  (4) 
1.7633872137048354

>  <m_score__min__rmsd>  (4) 
1.7633872137048354

>  <meeko>  (4) 
{"free_energy": -5.87, "intermolecular_energy": -9.15, "internal_energy": -2.29, "cluster_size": 27, "cluster_id": 1, "rank_in_cluster": 13}

>  <energy>  (4) 
-6.19

>  <cluster_rmsd>  (4) 
1.85

>  <cluster>  (4) 
1

$$$$

     RDKit          3D

 58 61  0  0  0  0  0  0  0  0999 V2000
  139.8130   71.8330  220.6440 O   0  0  0  0  0  0  0  0  0  0  0  0
  139.6330   72.2730  221.8230 C   0  0  0  0  0  0  0  0  0  0  0  0
  139.3180   73.6630  221.9170 N   0  0  0  0  0  0  0  0  0  0  0  0
  139.2420   74.3930  220.6610 C   0  0  0  0  0  0  0  0  0  0  0  0
  140.6180   74.4180  220.0920 C   0  0  0  0  0  0  0  0  0  0  0  0
  140.8230   73.6500  219.1140 O   0  0  0  0  0  0  0  0  0  0  0  0
  141.5930   75.2720  220.6570 N   0  0  0  0  0  0  0  0  0  0  0  0
  141.0860   76.0920  221.7900 C   0  0  0  0  0  0  0  0  0  0  0  0
  140.4280   77.3350  221.2060 C   0  0  0  0  0  0  0  0  0  0  0  0
  141.3170   77.9720  220.1530 C   0  0  0  0  0  0  0  0  0  0  0  0
  141.6390   77.0750  219.0170 C   0  0  0  0  0  0  0  0  0  0  0  0
  143.0310   76.4390  219.0860 C   0  0  0  0  0  0  0  0  0  0  0  0
  142.9190   75.3450  220.1490 C   0  0  2  0  0  0  0  0  0  0  0  0
  143.7170   74.1400  219.9430 C   0  0  0  0  0  0  0  0  0  0  0  0
  145.0920   74.4190  220.5880 C   0  0  0  0  0  0  0  0  0  0  0  0
  145.8430   73.1170  220.7590 C   0  0  0  0  0  0  0  0  0  0  0  0
  146.0760   72.6630  219.4510 O   0  0  0  0  0  0  0  0  0  0  0  0
  144.8870   72.3180  218.8700 C   0  0  0  0  0  0  0  0  0  0  0  0
  143.9530   73.5300  218.6380 C   0  0  0  0  0  0  0  0  0  0  0  0
  139.7420   71.4220  223.0000 C   0  0  0  0  0  0  0  0  0  0  0  0
  139.2340   70.1420  222.9080 C   0  0  0  0  0  0  0  0  0  0  0  0
  139.2970   69.2640  223.9860 C   0  0  0  0  0  0  0  0  0  0  0  0
  139.8820   69.6970  225.1680 C   0  0  0  0  0  0  0  0  0  0  0  0
  139.9440   68.8320  226.2340 C   0  0  0  0  0  0  0  0  0  0  0  0
  140.5340   69.2860  227.4090 C   0  0  0  0  0  0  0  0  0  0  0  0
  140.6360   68.2180  228.7910 Cl  0  0  0  0  0  0  0  0  0  0  0  0
  141.0220   70.5650  227.4490 C   0  0  0  0  0  0  0  0  0  0  0  0
  140.9660   71.4460  226.3850 C   0  0  0  0  0  0  0  0  0  0  0  0
  140.3830   70.9970  225.2250 C   0  0  0  0  0  0  0  0  0  0  0  0
  140.3050   71.8230  224.1550 N   0  0  0  0  0  0  0  0  0  0  0  0
  139.1540   74.1100  222.8480 H   0  0  0  0  0  0  0  0  0  0  0  0
  138.5554   73.8841  219.9685 H   0  0  0  0  0  0  0  0  0  0  0  0
  138.8630   75.4133  220.8206 H   0  0  0  0  0  0  0  0  0  0  0  0
  140.3495   75.5156  222.3691 H   0  0  0  0  0  0  0  0  0  0  0  0
  141.9112   76.3729  222.4609 H   0  0  0  0  0  0  0  0  0  0  0  0
  139.4694   77.0531  220.7460 H   0  0  0  0  0  0  0  0  0  0  0  0
  140.2654   78.0612  222.0160 H   0  0  0  0  0  0  0  0  0  0  0  0
  140.8036   78.8610  219.7578 H   0  0  0  0  0  0  0  0  0  0  0  0
  142.2692   78.2187  220.6453 H   0  0  0  0  0  0  0  0  0  0  0  0
  140.8927   76.2672  218.9945 H   0  0  0  0  0  0  0  0  0  0  0  0
  141.6241   77.6989  218.1111 H   0  0  0  0  0  0  0  0  0  0  0  0
  143.3056   76.0051  218.1132 H   0  0  0  0  0  0  0  0  0  0  0  0
  143.8084   77.1764  219.3349 H   0  0  0  0  0  0  0  0  0  0  0  0
  143.4979   75.6439  221.0353 H   0  0  0  0  0  0  0  0  0  0  0  0
  143.0589   73.3742  220.3794 H   0  0  0  0  0  0  0  0  0  0  0  0
  145.6708   75.0936  219.9400 H   0  0  0  0  0  0  0  0  0  0  0  0
  144.9466   74.8900  221.5714 H   0  0  0  0  0  0  0  0  0  0  0  0
  146.7938   73.2844  221.2862 H   0  0  0  0  0  0  0  0  0  0  0  0
  145.2779   72.3872  221.3574 H   0  0  0  0  0  0  0  0  0  0  0  0
  145.0955   71.8453  217.8989 H   0  0  0  0  0  0  0  0  0  0  0  0
  144.3713   71.6322  219.5583 H   0  0  0  0  0  0  0  0  0  0  0  0
  144.4334   74.2540  217.9634 H   0  0  0  0  0  0  0  0  0  0  0  0
  143.0068   73.2145  218.1742 H   0  0  0  0  0  0  0  0  0  0  0  0
  138.7715   69.8102  221.9667 H   0  0  0  0  0  0  0  0  0  0  0  0
  138.8905   68.2452  223.9028 H   0  0  0  0  0  0  0  0  0  0  0  0
  139.5394   67.8118  226.1603 H   0  0  0  0  0  0  0  0  0  0  0  0
  141.4864   70.9122  228.3838 H   0  0  0  0  0  0  0  0  0  0  0  0
  141.3719   72.4653  226.4641 H   0  0  0  0  0  0  0  0  0  0  0  0
  1  2  2  0
  2  3  1  0
  3  4  1  0
  4  5  1  0
  5  6  2  0
  5  7  1  0
  7  8  1  0
  8  9  1  0
  9 10  1  0
 10 11  1  0
 11 12  1  0
 12 13  1  0
 13 14  1  0
 14 15  1  0
 15 16  1  0
 16 17  1  0
 17 18  1  0
 18 19  1  0
  2 20  1  0
 20 21  2  0
 21 22  1  0
 22 23  2  0
 23 24  1  0
 24 25  2  0
 25 26  1  0
 25 27  1  0
 27 28  2  0
 28 29  1  0
 29 30  2  0
 13  7  1  0
 19 14  1  0
 30 20  1  0
 29 23  1  0
  3 31  1  0
  4 32  1  0
  4 33  1  0
  8 34  1  0
  8 35  1  0
  9 36  1  0
  9 37  1  0
 10 38  1  0
 10 39  1  0
 11 40  1  0
 11 41  1  0
 12 42  1  0
 12 43  1  0
 13 44  1  1
 14 45  1  0
 15 46  1  0
 15 47  1  0
 16 48  1  0
 16 49  1  0
 18 50  1  0
 18 51  1  0
 19 52  1  0
 19 53  1  0
 21 54  1  0
 22 55  1  0
 24 56  1  0
 27 57  1  0
 28 58  1  0
M  END
>  <smiles>  (5) 
O=C(NCC(=O)N1CCCCCC1C1CCOCC1)c1ccc2cc(Cl)ccc2n1

>  <score_type>  (5) 
oracle

>  <origin>  (5) 
autodockgpu

>  <m_score__min__energy>  (5) 
-6.4400000000000004

>  <m_primary>  (5) 
energy

>  <rmsd>  (5) 
2.3707313516899635

>  <m_score__min__rmsd>  (5) 
2.3707313516899635

>  <meeko>  (5) 
{"free_energy": -5.7, "intermolecular_energy": -8.98, "internal_energy": -1.47, "cluster_size": 12, "cluster_id": 2, "rank_in_cluster": 2}

>  <energy>  (5) 
-6.17

>  <cluster_rmsd>  (5) 
0.74

>  <cluster>  (5) 
1

$$$$

     RDKit          3D

 58 61  0  0  0  0  0  0  0  0999 V2000
  138.6780   70.7060  220.1940 O   0  0  0  0  0  0  0  0  0  0  0  0
  138.8640   71.3620  221.2670 C   0  0  0  0  0  0  0  0  0  0  0  0
  138.8130   72.7830  221.1330 N   0  0  0  0  0  0  0  0  0  0  0  0
  138.5540   73.2950  219.7970 C   0  0  0  0  0  0  0  0  0  0  0  0
  139.7750   73.0280  218.9880 C   0  0  0  0  0  0  0  0  0  0  0  0
  139.6670   72.1330  218.1070 O   0  0  0  0  0  0  0  0  0  0  0  0
  140.9560   73.7650  219.2380 N   0  0  0  0  0  0  0  0  0  0  0  0
  141.0810   74.9930  218.4070 C   0  0  0  0  0  0  0  0  0  0  0  0
  140.8210   76.1930  219.3080 C   0  0  0  0  0  0  0  0  0  0  0  0
  141.4550   75.9910  220.6720 C   0  0  0  0  0  0  0  0  0  0  0  0
  140.7610   74.9860  221.5140 C   0  0  0  0  0  0  0  0  0  0  0  0
  141.4720   73.6280  221.6070 C   0  0  0  0  0  0  0  0  0  0  0  0
  141.9310   73.3340  220.1780 C   0  0  2  0  0  0  0  0  0  0  0  0
  143.3580   73.4680  219.9030 C   0  0  0  0  0  0  0  0  0  0  0  0
  143.6240   72.6710  218.6080 C   0  0  0  0  0  0  0  0  0  0  0  0
  144.9740   73.0590  218.0450 C   0  0  0  0  0  0  0  0  0  0  0  0
  145.9020   72.6250  219.0040 O   0  0  0  0  0  0  0  0  0  0  0  0
  145.7610   73.3700  220.1430 C   0  0  0  0  0  0  0  0  0  0  0  0
  144.4090   73.1310  220.8580 C   0  0  0  0  0  0  0  0  0  0  0  0
  139.1150   70.7140  222.5470 C   0  0  0  0  0  0  0  0  0  0  0  0
  138.6170   69.4380  222.7210 C   0  0  0  0  0  0  0  0  0  0  0  0
  138.8110   68.7470  223.9140 C   0  0  0  0  0  0  0  0  0  0  0  0
  139.5200   69.3640  224.9370 C   0  0  0  0  0  0  0  0  0  0  0  0
  139.7120   68.6830  226.1150 C   0  0  0  0  0  0  0  0  0  0  0  0
  140.4250   69.3190  227.1260 C   0  0  0  0  0  0  0  0  0  0  0  0
  140.6950   68.4900  228.6430 Cl  0  0  0  0  0  0  0  0  0  0  0  0
  140.8980   70.5850  226.9030 C   0  0  0  0  0  0  0  0  0  0  0  0
  140.7110   71.2810  225.7230 C   0  0  0  0  0  0  0  0  0  0  0  0
  140.0080   70.6530  224.7240 C   0  0  0  0  0  0  0  0  0  0  0  0
  139.7990   71.2930  223.5500 N   0  0  0  0  0  0  0  0  0  0  0  0
  138.9550   73.4020  221.9650 H   0  0  0  0  0  0  0  0  0  0  0  0
  137.6878   72.7802  219.3558 H   0  0  0  0  0  0  0  0  0  0  0  0
  138.3271   74.3710  219.8245 H   0  0  0  0  0  0  0  0  0  0  0  0
  142.0938   75.0562  217.9826 H   0  0  0  0  0  0  0  0  0  0  0  0
  140.3584   74.9712  217.5779 H   0  0  0  0  0  0  0  0  0  0  0  0
  141.2480   77.0931  218.8417 H   0  0  0  0  0  0  0  0  0  0  0  0
  139.7347   76.3073  219.4379 H   0  0  0  0  0  0  0  0  0  0  0  0
  142.4944   75.6620  220.5256 H   0  0  0  0  0  0  0  0  0  0  0  0
  141.3874   76.9529  221.2014 H   0  0  0  0  0  0  0  0  0  0  0  0
  140.6690   75.3953  222.5309 H   0  0  0  0  0  0  0  0  0  0  0  0
  139.7890   74.7964  221.0352 H   0  0  0  0  0  0  0  0  0  0  0  0
  142.3343   73.6869  222.2874 H   0  0  0  0  0  0  0  0  0  0  0  0
  140.8157   72.8399  222.0047 H   0  0  0  0  0  0  0  0  0  0  0  0
  141.9465   72.2453  220.0213 H   0  0  0  0  0  0  0  0  0  0  0  0
  143.4694   74.5623  219.8980 H   0  0  0  0  0  0  0  0  0  0  0  0
  143.6160   71.5941  218.8321 H   0  0  0  0  0  0  0  0  0  0  0  0
  142.8402   72.8980  217.8703 H   0  0  0  0  0  0  0  0  0  0  0  0
  145.1501   72.5585  217.0814 H   0  0  0  0  0  0  0  0  0  0  0  0
  145.0489   74.1399  217.8550 H   0  0  0  0  0  0  0  0  0  0  0  0
  146.5748   73.1091  220.8356 H   0  0  0  0  0  0  0  0  0  0  0  0
  145.7956   74.4296  219.8497 H   0  0  0  0  0  0  0  0  0  0  0  0
  144.3220   72.0767  221.1596 H   0  0  0  0  0  0  0  0  0  0  0  0
  144.3291   73.7483  221.7649 H   0  0  0  0  0  0  0  0  0  0  0  0
  138.0577   68.9595  221.9035 H   0  0  0  0  0  0  0  0  0  0  0  0
  138.4102   67.7309  224.0442 H   0  0  0  0  0  0  0  0  0  0  0  0
  139.3144   67.6669  226.2541 H   0  0  0  0  0  0  0  0  0  0  0  0
  141.4599   71.0771  227.7105 H   0  0  0  0  0  0  0  0  0  0  0  0
  141.1095   72.2976  225.5896 H   0  0  0  0  0  0  0  0  0  0  0  0
  1  2  2  0
  2  3  1  0
  3  4  1  0
  4  5  1  0
  5  6  2  0
  5  7  1  0
  7  8  1  0
  8  9  1  0
  9 10  1  0
 10 11  1  0
 11 12  1  0
 12 13  1  0
 13 14  1  0
 14 15  1  0
 15 16  1  0
 16 17  1  0
 17 18  1  0
 18 19  1  0
  2 20  1  0
 20 21  2  0
 21 22  1  0
 22 23  2  0
 23 24  1  0
 24 25  2  0
 25 26  1  0
 25 27  1  0
 27 28  2  0
 28 29  1  0
 29 30  2  0
 13  7  1  0
 19 14  1  0
 30 20  1  0
 29 23  1  0
  3 31  1  0
  4 32  1  0
  4 33  1  0
  8 34  1  0
  8 35  1  0
  9 36  1  0
  9 37  1  0
 10 38  1  0
 10 39  1  0
 11 40  1  0
 11 41  1  0
 12 42  1  0
 12 43  1  0
 13 44  1  1
 14 45  1  0
 15 46  1  0
 15 47  1  0
 16 48  1  0
 16 49  1  0
 18 50  1  0
 18 51  1  0
 19 52  1  0
 19 53  1  0
 21 54  1  0
 22 55  1  0
 24 56  1  0
 27 57  1  0
 28 58  1  0
M  END
>  <smiles>  (6) 
O=C(NCC(=O)N1CCCCCC1C1CCOCC1)c1ccc2cc(Cl)ccc2n1

>  <score_type>  (6) 
oracle

>  <origin>  (6) 
autodockgpu

>  <m_score__min__energy>  (6) 
-6.4400000000000004

>  <m_primary>  (6) 
energy

>  <rmsd>  (6) 
2.565084553800532

>  <m_score__min__rmsd>  (6) 
2.565084553800532

>  <meeko>  (6) 
{"free_energy": -5.05, "intermolecular_energy": -8.33, "internal_energy": -1.88, "cluster_size": 12, "cluster_id": 2, "rank_in_cluster": 9}

>  <energy>  (6) 
-6.12

>  <cluster_rmsd>  (6) 
1.84

>  <cluster>  (6) 
1

$$$$

     RDKit          3D

 58 61  0  0  0  0  0  0  0  0999 V2000
  140.7580   72.1590  221.0810 O   0  0  0  0  0  0  0  0  0  0  0  0
  140.2010   72.4720  222.1800 C   0  0  0  0  0  0  0  0  0  0  0  0
  139.5910   73.7630  222.2110 N   0  0  0  0  0  0  0  0  0  0  0  0
  139.6820   74.5480  220.9910 C   0  0  0  0  0  0  0  0  0  0  0  0
  139.6880   75.9800  221.3980 C   0  0  0  0  0  0  0  0  0  0  0  0
  139.0160   76.2620  222.4270 O   0  0  0  0  0  0  0  0  0  0  0  0
  140.4200   76.9210  220.6390 N   0  0  0  0  0  0  0  0  0  0  0  0
  141.2410   76.3090  219.5590 C   0  0  0  0  0  0  0  0  0  0  0  0
  140.4910   76.4900  218.2460 C   0  0  0  0  0  0  0  0  0  0  0  0
  140.7660   77.8590  217.6520 C   0  0  0  0  0  0  0  0  0  0  0  0
  141.0400   78.9090  218.6630 C   0  0  0  0  0  0  0  0  0  0  0  0
  139.9170   79.1020  219.6970 C   0  0  0  0  0  0  0  0  0  0  0  0
  140.3840   78.3140  220.9220 C   0  0  2  0  0  0  0  0  0  0  0  0
  141.3960   78.9410  221.7650 C   0  0  0  0  0  0  0  0  0  0  0  0
  140.8210   78.9490  223.1980 C   0  0  0  0  0  0  0  0  0  0  0  0
  141.9320   79.2270  224.1860 C   0  0  0  0  0  0  0  0  0  0  0  0
  142.3530   80.5330  223.8960 O   0  0  0  0  0  0  0  0  0  0  0  0
  142.9540   80.5550  222.6660 C   0  0  0  0  0  0  0  0  0  0  0  0
  141.9700   80.2580  221.5080 C   0  0  0  0  0  0  0  0  0  0  0  0
  140.1860   71.5800  223.3310 C   0  0  0  0  0  0  0  0  0  0  0  0
  139.6610   70.3160  223.1490 C   0  0  0  0  0  0  0  0  0  0  0  0
  139.6090   69.4010  224.1960 C   0  0  0  0  0  0  0  0  0  0  0  0
  140.0960   69.7800  225.4400 C   0  0  0  0  0  0  0  0  0  0  0  0
  140.0440   68.8780  226.4750 C   0  0  0  0  0  0  0  0  0  0  0  0
  140.5380   69.2780  227.7130 C   0  0  0  0  0  0  0  0  0  0  0  0
  140.4930   68.1620  229.0600 Cl  0  0  0  0  0  0  0  0  0  0  0  0
  141.0480   70.5420  227.8420 C   0  0  0  0  0  0  0  0  0  0  0  0
  141.1060   71.4590  226.8090 C   0  0  0  0  0  0  0  0  0  0  0  0
  140.6190   71.0640  225.5870 C   0  0  0  0  0  0  0  0  0  0  0  0
  140.6530   71.9270  224.5440 N   0  0  0  0  0  0  0  0  0  0  0  0
  139.1100   74.1030  223.0760 H   0  0  0  0  0  0  0  0  0  0  0  0
  140.6095   74.3039  220.4524 H   0  0  0  0  0  0  0  0  0  0  0  0
  138.8372   74.3327  220.3202 H   0  0  0  0  0  0  0  0  0  0  0  0
  142.2192   76.8090  219.5034 H   0  0  0  0  0  0  0  0  0  0  0  0
  141.4090   75.2410  219.7619 H   0  0  0  0  0  0  0  0  0  0  0  0
  140.8169   75.7164  217.5351 H   0  0  0  0  0  0  0  0  0  0  0  0
  139.4121   76.4009  218.4413 H   0  0  0  0  0  0  0  0  0  0  0  0
  141.6404   77.7797  216.9894 H   0  0  0  0  0  0  0  0  0  0  0  0
  139.8553   78.1628  217.1151 H   0  0  0  0  0  0  0  0  0  0  0  0
  141.9603   78.6374  219.2008 H   0  0  0  0  0  0  0  0  0  0  0  0
  141.1292   79.8583  218.1145 H   0  0  0  0  0  0  0  0  0  0  0  0
  139.7944   80.1670  219.9435 H   0  0  0  0  0  0  0  0  0  0  0  0
  138.9416   78.7561  219.3243 H   0  0  0  0  0  0  0  0  0  0  0  0
  139.6152   78.3784  221.7061 H   0  0  0  0  0  0  0  0  0  0  0  0
  142.2736   78.3179  221.5380 H   0  0  0  0  0  0  0  0  0  0  0  0
  140.0528   79.7320  223.2804 H   0  0  0  0  0  0  0  0  0  0  0  0
  140.3716   77.9694  223.4180 H   0  0  0  0  0  0  0  0  0  0  0  0
  141.5577   79.1611  225.2183 H   0  0  0  0  0  0  0  0  0  0  0  0
  142.7524   78.4989  224.1030 H   0  0  0  0  0  0  0  0  0  0  0  0
  143.3919   81.5515  222.5073 H   0  0  0  0  0  0  0  0  0  0  0  0
  143.7194   79.7650  222.6589 H   0  0  0  0  0  0  0  0  0  0  0  0
  141.1754   81.0183  221.4827 H   0  0  0  0  0  0  0  0  0  0  0  0
  142.4872   80.2789  220.5374 H   0  0  0  0  0  0  0  0  0  0  0  0
  139.2773   70.0274  222.1593 H   0  0  0  0  0  0  0  0  0  0  0  0
  139.1898   68.3959  224.0411 H   0  0  0  0  0  0  0  0  0  0  0  0
  139.6251   67.8713  226.3297 H   0  0  0  0  0  0  0  0  0  0  0  0
  141.4346   70.8460  228.8259 H   0  0  0  0  0  0  0  0  0  0  0  0
  141.5254   72.4647  226.9597 H   0  0  0  0  0  0  0  0  0  0  0  0
  1  2  2  0
  2  3  1  0
  3  4  1  0
  4  5  1  0
  5  6  2  0
  5  7  1  0
  7  8  1  0
  8  9  1  0
  9 10  1  0
 10 11  1  0
 11 12  1  0
 12 13  1  0
 13 14  1  0
 14 15  1  0
 15 16  1  0
 16 17  1  0
 17 18  1  0
 18 19  1  0
  2 20  1  0
 20 21  2  0
 21 22  1  0
 22 23  2  0
 23 24  1  0
 24 25  2  0
 25 26  1  0
 25 27  1  0
 27 28  2  0
 28 29  1  0
 29 30  2  0
 13  7  1  0
 19 14  1  0
 30 20  1  0
 29 23  1  0
  3 31  1  0
  4 32  1  0
  4 33  1  0
  8 34  1  0
  8 35  1  0
  9 36  1  0
  9 37  1  0
 10 38  1  0
 10 39  1  0
 11 40  1  0
 11 41  1  0
 12 42  1  0
 12 43  1  0
 13 44  1  1
 14 45  1  0
 15 46  1  0
 15 47  1  0
 16 48  1  0
 16 49  1  0
 18 50  1  0
 18 51  1  0
 19 52  1  0
 19 53  1  0
 21 54  1  0
 22 55  1  0
 24 56  1  0
 27 57  1  0
 28 58  1  0
M  END
>  <smiles>  (7) 
O=C(NCC(=O)N1CCCCCC1C1CCOCC1)c1ccc2cc(Cl)ccc2n1

>  <score_type>  (7) 
oracle

>  <origin>  (7) 
autodockgpu

>  <m_score__min__energy>  (7) 
-6.4400000000000004

>  <m_primary>  (7) 
energy

>  <rmsd>  (7) 
1.906445583541663

>  <m_score__min__rmsd>  (7) 
1.906445583541663

>  <meeko>  (7) 
{"free_energy": -5.8, "intermolecular_energy": -9.08, "internal_energy": -1.95, "cluster_size": 27, "cluster_id": 1, "rank_in_cluster": 18}

>  <energy>  (7) 
-6.02

>  <cluster_rmsd>  (7) 
0.65

>  <cluster>  (7) 
1

$$$$

     RDKit          3D

 58 61  0  0  0  0  0  0  0  0999 V2000
  140.7670   72.5690  221.2500 O   0  0  0  0  0  0  0  0  0  0  0  0
  140.0260   72.6860  222.2760 C   0  0  0  0  0  0  0  0  0  0  0  0
  139.1380   73.8040  222.2660 N   0  0  0  0  0  0  0  0  0  0  0  0
  139.1930   74.6600  221.0910 C   0  0  0  0  0  0  0  0  0  0  0  0
  139.9120   75.9000  221.4930 C   0  0  0  0  0  0  0  0  0  0  0  0
  141.0760   75.7370  221.9500 O   0  0  0  0  0  0  0  0  0  0  0  0
  139.2780   77.1550  221.3490 N   0  0  0  0  0  0  0  0  0  0  0  0
  138.8270   77.4400  219.9600 C   0  0  0  0  0  0  0  0  0  0  0  0
  138.8120   78.9520  219.7770 C   0  0  0  0  0  0  0  0  0  0  0  0
  137.5210   79.5480  220.3090 C   0  0  0  0  0  0  0  0  0  0  0  0
  137.5130   79.7510  221.7780 C   0  0  0  0  0  0  0  0  0  0  0  0
  137.6630   78.4640  222.6040 C   0  0  0  0  0  0  0  0  0  0  0  0
  139.1280   78.0560  222.4380 C   0  0  2  0  0  0  0  0  0  0  0  0
  140.1340   79.0750  222.7220 C   0  0  0  0  0  0  0  0  0  0  0  0
  141.4800   78.3300  222.8430 C   0  0  0  0  0  0  0  0  0  0  0  0
  142.6170   79.3250  222.7580 C   0  0  0  0  0  0  0  0  0  0  0  0
  142.4770   80.1290  223.8990 O   0  0  0  0  0  0  0  0  0  0  0  0
  141.3370   80.8770  223.7910 C   0  0  0  0  0  0  0  0  0  0  0  0
  140.0470   80.0220  223.8290 C   0  0  0  0  0  0  0  0  0  0  0  0
  140.0770   71.7470  223.3880 C   0  0  0  0  0  0  0  0  0  0  0  0
  139.6010   70.4710  223.1650 C   0  0  0  0  0  0  0  0  0  0  0  0
  139.6120   69.5120  224.1740 C   0  0  0  0  0  0  0  0  0  0  0  0
  140.1140   69.8600  225.4220 C   0  0  0  0  0  0  0  0  0  0  0  0
  140.1260   68.9150  226.4190 C   0  0  0  0  0  0  0  0  0  0  0  0
  140.6330   69.2850  227.6610 C   0  0  0  0  0  0  0  0  0  0  0  0
  140.6690   68.1130  228.9600 Cl  0  0  0  0  0  0  0  0  0  0  0  0
  141.0930   70.5630  227.8300 C   0  0  0  0  0  0  0  0  0  0  0  0
  141.0870   71.5230  226.8360 C   0  0  0  0  0  0  0  0  0  0  0  0
  140.5860   71.1590  225.6100 C   0  0  0  0  0  0  0  0  0  0  0  0
  140.5590   72.0640  224.6040 N   0  0  0  0  0  0  0  0  0  0  0  0
  138.4910   73.9770  223.0690 H   0  0  0  0  0  0  0  0  0  0  0  0
  139.7362   74.1539  220.2793 H   0  0  0  0  0  0  0  0  0  0  0  0
  138.1819   74.8920  220.7251 H   0  0  0  0  0  0  0  0  0  0  0  0
  139.5213   76.9827  219.2398 H   0  0  0  0  0  0  0  0  0  0  0  0
  137.8242   77.0219  219.7880 H   0  0  0  0  0  0  0  0  0  0  0  0
  139.6620   79.3894  220.3213 H   0  0  0  0  0  0  0  0  0  0  0  0
  138.8874   79.1774  218.7030 H   0  0  0  0  0  0  0  0  0  0  0  0
  137.3638   80.5227  219.8239 H   0  0  0  0  0  0  0  0  0  0  0  0
  136.7201   78.8289  220.0819 H   0  0  0  0  0  0  0  0  0  0  0  0
  138.3451   80.4227  222.0358 H   0  0  0  0  0  0  0  0  0  0  0  0
  136.5267   80.1685  222.0290 H   0  0  0  0  0  0  0  0  0  0  0  0
  137.4323   78.6548  223.6625 H   0  0  0  0  0  0  0  0  0  0  0  0
  136.9737   77.6750  222.2688 H   0  0  0  0  0  0  0  0  0  0  0  0
  139.4308   77.4413  223.2985 H   0  0  0  0  0  0  0  0  0  0  0  0
  139.9729   79.7690  221.8839 H   0  0  0  0  0  0  0  0  0  0  0  0
  141.5232   77.8056  223.8090 H   0  0  0  0  0  0  0  0  0  0  0  0
  141.5698   77.6001  222.0250 H   0  0  0  0  0  0  0  0  0  0  0  0
  143.5870   78.8063  222.7663 H   0  0  0  0  0  0  0  0  0  0  0  0
  142.5845   79.9136  221.8293 H   0  0  0  0  0  0  0  0  0  0  0  0
  141.3074   81.5934  224.6252 H   0  0  0  0  0  0  0  0  0  0  0  0
  141.3672   81.3840  222.8153 H   0  0  0  0  0  0  0  0  0  0  0  0
  139.9792   79.4817  224.7847 H   0  0  0  0  0  0  0  0  0  0  0  0
  139.1520   80.6549  223.7366 H   0  0  0  0  0  0  0  0  0  0  0  0
  139.2061   70.2072  222.1728 H   0  0  0  0  0  0  0  0  0  0  0  0
  139.2303   68.4975  223.9867 H   0  0  0  0  0  0  0  0  0  0  0  0
  139.7468   67.8979  226.2412 H   0  0  0  0  0  0  0  0  0  0  0  0
  141.4914   70.8428  228.8164 H   0  0  0  0  0  0  0  0  0  0  0  0
  141.4683   72.5384  227.0193 H   0  0  0  0  0  0  0  0  0  0  0  0
  1  2  2  0
  2  3  1  0
  3  4  1  0
  4  5  1  0
  5  6  2  0
  5  7  1  0
  7  8  1  0
  8  9  1  0
  9 10  1  0
 10 11  1  0
 11 12  1  0
 12 13  1  0
 13 14  1  0
 14 15  1  0
 15 16  1  0
 16 17  1  0
 17 18  1  0
 18 19  1  0
  2 20  1  0
 20 21  2  0
 21 22  1  0
 22 23  2  0
 23 24  1  0
 24 25  2  0
 25 26  1  0
 25 27  1  0
 27 28  2  0
 28 29  1  0
 29 30  2  0
 13  7  1  0
 19 14  1  0
 30 20  1  0
 29 23  1  0
  3 31  1  0
  4 32  1  0
  4 33  1  0
  8 34  1  0
  8 35  1  0
  9 36  1  0
  9 37  1  0
 10 38  1  0
 10 39  1  0
 11 40  1  0
 11 41  1  0
 12 42  1  0
 12 43  1  0
 13 44  1  1
 14 45  1  0
 15 46  1  0
 15 47  1  0
 16 48  1  0
 16 49  1  0
 18 50  1  0
 18 51  1  0
 19 52  1  0
 19 53  1  0
 21 54  1  0
 22 55  1  0
 24 56  1  0
 27 57  1  0
 28 58  1  0
M  END
>  <smiles>  (8) 
O=C(NCC(=O)N1CCCCCC1C1CCOCC1)c1ccc2cc(Cl)ccc2n1

>  <score_type>  (8) 
oracle

>  <origin>  (8) 
autodockgpu

>  <m_score__min__energy>  (8) 
-6.4400000000000004

>  <m_primary>  (8) 
energy

>  <rmsd>  (8) 
2.8048964553528712

>  <m_score__min__rmsd>  (8) 
2.8048964553528712

>  <meeko>  (8) 
{"free_energy": -5.95, "intermolecular_energy": -9.23, "internal_energy": -1.35, "cluster_size": 27, "cluster_id": 1, "rank_in_cluster": 9}

>  <energy>  (8) 
-5.97

>  <cluster_rmsd>  (8) 
1.83

>  <cluster>  (8) 
1

$$$$

     RDKit          3D

 58 61  0  0  0  0  0  0  0  0999 V2000
  138.7120   72.7330  221.1760 O   0  0  0  0  0  0  0  0  0  0  0  0
  139.6920   72.7550  221.9850 C   0  0  0  0  0  0  0  0  0  0  0  0
  140.6770   73.7560  221.7270 N   0  0  0  0  0  0  0  0  0  0  0  0
  140.4360   74.6180  220.5810 C   0  0  0  0  0  0  0  0  0  0  0  0
  140.5830   76.0200  221.0570 C   0  0  0  0  0  0  0  0  0  0  0  0
  139.8250   76.3630  222.0040 O   0  0  0  0  0  0  0  0  0  0  0  0
  141.5330   76.8710  220.4460 N   0  0  0  0  0  0  0  0  0  0  0  0
  142.6250   76.1420  219.7470 C   0  0  0  0  0  0  0  0  0  0  0  0
  142.3780   76.2590  218.2490 C   0  0  0  0  0  0  0  0  0  0  0  0
  141.0980   77.0280  217.9720 C   0  0  0  0  0  0  0  0  0  0  0  0
  141.2350   78.4960  218.1250 C   0  0  0  0  0  0  0  0  0  0  0  0
  142.0970   78.9450  219.3160 C   0  0  0  0  0  0  0  0  0  0  0  0
  141.4460   78.2870  220.5340 C   0  0  2  0  0  0  0  0  0  0  0  0
  141.5910   78.9760  221.8130 C   0  0  0  0  0  0  0  0  0  0  0  0
  140.1680   79.3960  222.2400 C   0  0  0  0  0  0  0  0  0  0  0  0
  140.1710   79.7710  223.7050 C   0  0  0  0  0  0  0  0  0  0  0  0
  140.9870   80.9110  223.7830 O   0  0  0  0  0  0  0  0  0  0  0  0
  142.2800   80.5650  223.4980 C   0  0  0  0  0  0  0  0  0  0  0  0
  142.4770   80.1160  222.0300 C   0  0  0  0  0  0  0  0  0  0  0  0
  139.8060   71.8240  223.0990 C   0  0  0  0  0  0  0  0  0  0  0  0
  139.3480   70.5370  222.9010 C   0  0  0  0  0  0  0  0  0  0  0  0
  139.4200   69.5840  223.9140 C   0  0  0  0  0  0  0  0  0  0  0  0
  139.9630   69.9490  225.1390 C   0  0  0  0  0  0  0  0  0  0  0  0
  140.0340   69.0100  226.1390 C   0  0  0  0  0  0  0  0  0  0  0  0
  140.5820   69.3970  227.3580 C   0  0  0  0  0  0  0  0  0  0  0  0
  140.6930   68.2340  228.6610 Cl  0  0  0  0  0  0  0  0  0  0  0  0
  141.0210   70.6860  227.5040 C   0  0  0  0  0  0  0  0  0  0  0  0
  140.9560   71.6400  226.5050 C   0  0  0  0  0  0  0  0  0  0  0  0
  140.4150   71.2580  225.3020 C   0  0  0  0  0  0  0  0  0  0  0  0
  140.3290   72.1570  224.2930 N   0  0  0  0  0  0  0  0  0  0  0  0
  141.5180   73.8460  222.3440 H   0  0  0  0  0  0  0  0  0  0  0  0
  141.1700   74.4084  219.7889 H   0  0  0  0  0  0  0  0  0  0  0  0
  139.4329   74.4469  220.1633 H   0  0  0  0  0  0  0  0  0  0  0  0
  143.5969   76.5896  220.0021 H   0  0  0  0  0  0  0  0  0  0  0  0
  142.6389   75.0855  220.0528 H   0  0  0  0  0  0  0  0  0  0  0  0
  143.2237   76.7870  217.7842 H   0  0  0  0  0  0  0  0  0  0  0  0
  142.2799   75.2476  217.8277 H   0  0  0  0  0  0  0  0  0  0  0  0
  140.7824   76.8152  216.9400 H   0  0  0  0  0  0  0  0  0  0  0  0
  140.3588   76.6967  218.7161 H   0  0  0  0  0  0  0  0  0  0  0  0
  141.6885   78.8945  217.2055 H   0  0  0  0  0  0  0  0  0  0  0  0
  140.2225   78.8823  218.3140 H   0  0  0  0  0  0  0  0  0  0  0  0
  143.1345   78.5997  219.1964 H   0  0  0  0  0  0  0  0  0  0  0  0
  142.1425   80.0402  219.4083 H   0  0  0  0  0  0  0  0  0  0  0  0
  140.3604   78.4614  220.5008 H   0  0  0  0  0  0  0  0  0  0  0  0
  142.1308   78.2188  222.4006 H   0  0  0  0  0  0  0  0  0  0  0  0
  139.8456   80.2604  221.6410 H   0  0  0  0  0  0  0  0  0  0  0  0
  139.4742   78.5579  222.0776 H   0  0  0  0  0  0  0  0  0  0  0  0
  139.1514   80.0004  224.0481 H   0  0  0  0  0  0  0  0  0  0  0  0
  140.5393   78.9531  224.3417 H   0  0  0  0  0  0  0  0  0  0  0  0
  142.9256   81.4351  223.6879 H   0  0  0  0  0  0  0  0  0  0  0  0
  142.5412   79.7114  224.1407 H   0  0  0  0  0  0  0  0  0  0  0  0
  142.2137   80.9355  221.3451 H   0  0  0  0  0  0  0  0  0  0  0  0
  143.5251   79.8422  221.8391 H   0  0  0  0  0  0  0  0  0  0  0  0
  138.9190   70.2595  221.9269 H   0  0  0  0  0  0  0  0  0  0  0  0
  139.0533   68.5605  223.7468 H   0  0  0  0  0  0  0  0  0  0  0  0
  139.6691   67.9844  225.9811 H   0  0  0  0  0  0  0  0  0  0  0  0
  141.4506   70.9798  228.4731 H   0  0  0  0  0  0  0  0  0  0  0  0
  141.3230   72.6641  226.6675 H   0  0  0  0  0  0  0  0  0  0  0  0
  1  2  2  0
  2  3  1  0
  3  4  1  0
  4  5  1  0
  5  6  2  0
  5  7  1  0
  7  8  1  0
  8  9  1  0
  9 10  1  0
 10 11  1  0
 11 12  1  0
 12 13  1  0
 13 14  1  0
 14 15  1  0
 15 16  1  0
 16 17  1  0
 17 18  1  0
 18 19  1  0
  2 20  1  0
 20 21  2  0
 21 22  1  0
 22 23  2  0
 23 24  1  0
 24 25  2  0
 25 26  1  0
 25 27  1  0
 27 28  2  0
 28 29  1  0
 29 30  2  0
 13  7  1  0
 19 14  1  0
 30 20  1  0
 29 23  1  0
  3 31  1  0
  4 32  1  0
  4 33  1  0
  8 34  1  0
  8 35  1  0
  9 36  1  0
  9 37  1  0
 10 38  1  0
 10 39  1  0
 11 40  1  0
 11 41  1  0
 12 42  1  0
 12 43  1  0
 13 44  1  6
 14 45  1  0
 15 46  1  0
 15 47  1  0
 16 48  1  0
 16 49  1  0
 18 50  1  0
 18 51  1  0
 19 52  1  0
 19 53  1  0
 21 54  1  0
 22 55  1  0
 24 56  1  0
 27 57  1  0
 28 58  1  0
M  END
>  <smiles>  (9) 
O=C(NCC(=O)N1CCCCCC1C1CCOCC1)c1ccc2cc(Cl)ccc2n1

>  <score_type>  (9) 
oracle

>  <origin>  (9) 
autodockgpu

>  <m_score__min__energy>  (9) 
-6.4400000000000004

>  <m_primary>  (9) 
energy

>  <rmsd>  (9) 
2.2738008467598885

>  <m_score__min__rmsd>  (9) 
2.2738008467598885

>  <meeko>  (9) 
{"free_energy": -5.89, "intermolecular_energy": -9.17, "internal_energy": -1.53, "cluster_size": 27, "cluster_id": 1, "rank_in_cluster": 12}

>  <energy>  (9) 
-5.95

>  <cluster_rmsd>  (9) 
1.78

>  <cluster>  (9) 
1

$$$$

     RDKit          3D

 58 61  0  0  0  0  0  0  0  0999 V2000
  140.2420   72.0650  220.9180 O   0  0  0  0  0  0  0  0  0  0  0  0
  139.8330   72.4100  222.0720 C   0  0  0  0  0  0  0  0  0  0  0  0
  139.2850   73.7260  222.1590 N   0  0  0  0  0  0  0  0  0  0  0  0
  139.2630   74.4980  220.9270 C   0  0  0  0  0  0  0  0  0  0  0  0
  140.1980   75.6400  221.1170 C   0  0  0  0  0  0  0  0  0  0  0  0
  141.4190   75.3410  221.2130 O   0  0  0  0  0  0  0  0  0  0  0  0
  139.6900   76.9590  221.1780 N   0  0  0  0  0  0  0  0  0  0  0  0
  139.0060   77.3930  219.9300 C   0  0  0  0  0  0  0  0  0  0  0  0
  137.5790   77.7830  220.2940 C   0  0  0  0  0  0  0  0  0  0  0  0
  137.0200   76.8530  221.3560 C   0  0  0  0  0  0  0  0  0  0  0  0
  137.5630   77.0980  222.7150 C   0  0  0  0  0  0  0  0  0  0  0  0
  138.5110   78.3060  222.8180 C   0  0  0  0  0  0  0  0  0  0  0  0
  139.8610   77.7820  222.3230 C   0  0  2  0  0  0  0  0  0  0  0  0
  141.0030   78.6820  222.4450 C   0  0  0  0  0  0  0  0  0  0  0  0
  140.8960   79.3270  223.8440 C   0  0  0  0  0  0  0  0  0  0  0  0
  142.2160   79.9730  224.2040 C   0  0  0  0  0  0  0  0  0  0  0  0
  142.3750   81.0110  223.2730 O   0  0  0  0  0  0  0  0  0  0  0  0
  142.5640   80.4790  222.0270 C   0  0  0  0  0  0  0  0  0  0  0  0
  141.3140   79.7400  221.4890 C   0  0  0  0  0  0  0  0  0  0  0  0
  139.9170   71.5270  223.2270 C   0  0  0  0  0  0  0  0  0  0  0  0
  139.4680   70.2320  223.0710 C   0  0  0  0  0  0  0  0  0  0  0  0
  139.5130   69.3230  224.1250 C   0  0  0  0  0  0  0  0  0  0  0  0
  140.0200   69.7420  225.3480 C   0  0  0  0  0  0  0  0  0  0  0  0
  140.0640   68.8460  226.3890 C   0  0  0  0  0  0  0  0  0  0  0  0
  140.5770   69.2860  227.6060 C   0  0  0  0  0  0  0  0  0  0  0  0
  140.6530   68.1800  228.9590 Cl  0  0  0  0  0  0  0  0  0  0  0  0
  141.0090   70.5810  227.7080 C   0  0  0  0  0  0  0  0  0  0  0  0
  140.9700   71.4920  226.6690 C   0  0  0  0  0  0  0  0  0  0  0  0
  140.4650   71.0580  225.4680 C   0  0  0  0  0  0  0  0  0  0  0  0
  140.4050   71.9130  224.4200 N   0  0  0  0  0  0  0  0  0  0  0  0
  138.9230   74.0920  223.0700 H   0  0  0  0  0  0  0  0  0  0  0  0
  139.5939   73.8742  220.0835 H   0  0  0  0  0  0  0  0  0  0  0  0
  138.2466   74.8538  220.7029 H   0  0  0  0  0  0  0  0  0  0  0  0
  139.5311   78.2567  219.4962 H   0  0  0  0  0  0  0  0  0  0  0  0
  139.0055   76.5801  219.1889 H   0  0  0  0  0  0  0  0  0  0  0  0
  137.5737   78.8137  220.6783 H   0  0  0  0  0  0  0  0  0  0  0  0
  136.9521   77.7069  219.3934 H   0  0  0  0  0  0  0  0  0  0  0  0
  135.9283   76.9830  221.3905 H   0  0  0  0  0  0  0  0  0  0  0  0
  137.3146   75.8315  221.0735 H   0  0  0  0  0  0  0  0  0  0  0  0
  136.7168   77.2668  223.3973 H   0  0  0  0  0  0  0  0  0  0  0  0
  138.1585   76.2111  222.9773 H   0  0  0  0  0  0  0  0  0  0  0  0
  138.1583   79.1315  222.1822 H   0  0  0  0  0  0  0  0  0  0  0  0
  138.5686   78.7044  223.8417 H   0  0  0  0  0  0  0  0  0  0  0  0
  140.2687   77.0776  223.0630 H   0  0  0  0  0  0  0  0  0  0  0  0
  141.8355   77.9968  222.2270 H   0  0  0  0  0  0  0  0  0  0  0  0
  140.1042   80.0906  223.8361 H   0  0  0  0  0  0  0  0  0  0  0  0
  140.6519   78.5532  224.5867 H   0  0  0  0  0  0  0  0  0  0  0  0
  142.1847   80.3730  225.2282 H   0  0  0  0  0  0  0  0  0  0  0  0
  143.0502   79.2567  224.1725 H   0  0  0  0  0  0  0  0  0  0  0  0
  142.8155   81.2939  221.3323 H   0  0  0  0  0  0  0  0  0  0  0  0
  143.3754   79.7403  222.1041 H   0  0  0  0  0  0  0  0  0  0  0  0
  140.4675   80.4378  221.4084 H   0  0  0  0  0  0  0  0  0  0  0  0
  141.5029   79.3237  220.4885 H   0  0  0  0  0  0  0  0  0  0  0  0
  139.0677   69.9120  222.0977 H   0  0  0  0  0  0  0  0  0  0  0  0
  139.1535   68.2920  223.9912 H   0  0  0  0  0  0  0  0  0  0  0  0
  139.7052   67.8137  226.2646 H   0  0  0  0  0  0  0  0  0  0  0  0
  141.4114   70.9169  228.6750 H   0  0  0  0  0  0  0  0  0  0  0  0
  141.3292   72.5235  226.7991 H   0  0  0  0  0  0  0  0  0  0  0  0
  1  2  2  0
  2  3  1  0
  3  4  1  0
  4  5  1  0
  5  6  2  0
  5  7  1  0
  7  8  1  0
  8  9  1  0
  9 10  1  0
 10 11  1  0
 11 12  1  0
 12 13  1  0
 13 14  1  0
 14 15  1  0
 15 16  1  0
 16 17  1  0
 17 18  1  0
 18 19  1  0
  2 20  1  0
 20 21  2  0
 21 22  1  0
 22 23  2  0
 23 24  1  0
 24 25  2  0
 25 26  1  0
 25 27  1  0
 27 28  2  0
 28 29  1  0
 29 30  2  0
 13  7  1  0
 19 14  1  0
 30 20  1  0
 29 23  1  0
  3 31  1  0
  4 32  1  0
  4 33  1  0
  8 34  1  0
  8 35  1  0
  9 36  1  0
  9 37  1  0
 10 38  1  0
 10 39  1  0
 11 40  1  0
 11 41  1  0
 12 42  1  0
 12 43  1  0
 13 44  1  1
 14 45  1  0
 15 46  1  0
 15 47  1  0
 16 48  1  0
 16 49  1  0
 18 50  1  0
 18 51  1  0
 19 52  1  0
 19 53  1  0
 21 54  1  0
 22 55  1  0
 24 56  1  0
 27 57  1  0
 28 58  1  0
M  END
>  <smiles>  (10) 
O=C(NCC(=O)N1CCCCCC1C1CCOCC1)c1ccc2cc(Cl)ccc2n1

>  <score_type>  (10) 
oracle

>  <origin>  (10) 
autodockgpu

>  <m_score__min__energy>  (10) 
-6.4400000000000004

>  <m_primary>  (10) 
energy

>  <rmsd>  (10) 
2.664920740092802

>  <m_score__min__rmsd>  (10) 
2.664920740092802

>  <meeko>  (10) 
{"free_energy": -6.19, "intermolecular_energy": -9.47, "internal_energy": -1.54, "cluster_size": 27, "cluster_id": 1, "rank_in_cluster": 4}

>  <energy>  (10) 
-5.91

>  <cluster_rmsd>  (10) 
1.16

>  <cluster>  (10) 
1

$$$$

     RDKit          3D

 58 61  0  0  0  0  0  0  0  0999 V2000
  141.4870   72.8830  221.2910 O   0  0  0  0  0  0  0  0  0  0  0  0
  140.6860   73.7700  221.7270 C   0  0  0  0  0  0  0  0  0  0  0  0
  139.5330   73.2720  222.4050 N   0  0  0  0  0  0  0  0  0  0  0  0
  139.4210   71.8260  222.5130 C   0  0  0  0  0  0  0  0  0  0  0  0
  138.0950   71.5390  223.1250 C   0  0  0  0  0  0  0  0  0  0  0  0
  137.2490   72.4720  223.0670 O   0  0  0  0  0  0  0  0  0  0  0  0
  137.8580   70.2800  223.7230 N   0  0  0  0  0  0  0  0  0  0  0  0
  136.4220   69.8870  223.7370 C   0  0  0  0  0  0  0  0  0  0  0  0
  136.2910   68.5810  222.9650 C   0  0  0  0  0  0  0  0  0  0  0  0
  137.2790   68.5330  221.8130 C   0  0  0  0  0  0  0  0  0  0  0  0
  138.6700   68.2280  222.2270 C   0  0  0  0  0  0  0  0  0  0  0  0
  138.8550   68.0660  223.7430 C   0  0  0  0  0  0  0  0  0  0  0  0
  138.9060   69.4980  224.2800 C   0  0  2  0  0  0  0  0  0  0  0  0
  139.3200   69.6680  225.6690 C   0  0  0  0  0  0  0  0  0  0  0  0
  140.4090   70.7630  225.6630 C   0  0  0  0  0  0  0  0  0  0  0  0
  140.6230   71.2690  227.0720 C   0  0  0  0  0  0  0  0  0  0  0  0
  141.1380   70.1690  227.7750 O   0  0  0  0  0  0  0  0  0  0  0  0
  140.1720   69.2060  227.8830 C   0  0  0  0  0  0  0  0  0  0  0  0
  139.7880   68.5790  226.5200 C   0  0  0  0  0  0  0  0  0  0  0  0
  140.9250   75.1950  221.5460 C   0  0  0  0  0  0  0  0  0  0  0  0
  141.6920   75.5790  220.4650 C   0  0  0  0  0  0  0  0  0  0  0  0
  141.9680   76.9220  220.2200 C   0  0  0  0  0  0  0  0  0  0  0  0
  141.4580   77.8790  221.0870 C   0  0  0  0  0  0  0  0  0  0  0  0
  141.7310   79.2040  220.8470 C   0  0  0  0  0  0  0  0  0  0  0  0
  141.2090   80.1460  221.7280 C   0  0  0  0  0  0  0  0  0  0  0  0
  141.5300   81.8450  221.4600 Cl  0  0  0  0  0  0  0  0  0  0  0  0
  140.4550   79.7130  222.7850 C   0  0  0  0  0  0  0  0  0  0  0  0
  140.1740   78.3830  223.0380 C   0  0  0  0  0  0  0  0  0  0  0  0
  140.6880   77.4530  222.1690 C   0  0  0  0  0  0  0  0  0  0  0  0
  140.4400   76.1380  222.3750 N   0  0  0  0  0  0  0  0  0  0  0  0
  138.8200   73.9310  222.7970 H   0  0  0  0  0  0  0  0  0  0  0  0
  139.4847   71.3662  221.5157 H   0  0  0  0  0  0  0  0  0  0  0  0
  140.2352   71.4130  223.1266 H   0  0  0  0  0  0  0  0  0  0  0  0
  136.0827   69.7449  224.7737 H   0  0  0  0  0  0  0  0  0  0  0  0
  135.8039   70.6709  223.2750 H   0  0  0  0  0  0  0  0  0  0  0  0
  136.4887   67.7391  223.6448 H   0  0  0  0  0  0  0  0  0  0  0  0
  135.2715   68.5135  222.5576 H   0  0  0  0  0  0  0  0  0  0  0  0
  136.9498   67.7569  221.1064 H   0  0  0  0  0  0  0  0  0  0  0  0
  137.2927   69.5362  221.3619 H   0  0  0  0  0  0  0  0  0  0  0  0
  138.9771   67.2907  221.7400 H   0  0  0  0  0  0  0  0  0  0  0  0
  139.2855   69.0877  221.9238 H   0  0  0  0  0  0  0  0  0  0  0  0
  138.0086   67.5167  224.1811 H   0  0  0  0  0  0  0  0  0  0  0  0
  139.7600   67.4934  223.9943 H   0  0  0  0  0  0  0  0  0  0  0  0
  139.8073   69.9961  223.8932 H   0  0  0  0  0  0  0  0  0  0  0  0
  138.3533   69.8683  226.1542 H   0  0  0  0  0  0  0  0  0  0  0  0
  141.3496   70.3426  225.2776 H   0  0  0  0  0  0  0  0  0  0  0  0
  140.0884   71.5954  225.0193 H   0  0  0  0  0  0  0  0  0  0  0  0
  141.3399   72.1033  227.0792 H   0  0  0  0  0  0  0  0  0  0  0  0
  139.6941   71.6502  227.5212 H   0  0  0  0  0  0  0  0  0  0  0  0
  140.5440   68.4087  228.5433 H   0  0  0  0  0  0  0  0  0  0  0  0
  139.2706   69.6881  228.2892 H   0  0  0  0  0  0  0  0  0  0  0  0
  140.6650   68.0944  226.0661 H   0  0  0  0  0  0  0  0  0  0  0  0
  139.0078   67.8137  226.6446 H   0  0  0  0  0  0  0  0  0  0  0  0
  142.0920   74.8118  219.7857 H   0  0  0  0  0  0  0  0  0  0  0  0
  142.5792   77.2192  219.3550 H   0  0  0  0  0  0  0  0  0  0  0  0
  142.3428   79.5104  219.9857 H   0  0  0  0  0  0  0  0  0  0  0  0
  140.0484   80.4679  223.4741 H   0  0  0  0  0  0  0  0  0  0  0  0
  139.5627   78.0821  223.9015 H   0  0  0  0  0  0  0  0  0  0  0  0
  1  2  2  0
  2  3  1  0
  3  4  1  0
  4  5  1  0
  5  6  2  0
  5  7  1  0
  7  8  1  0
  8  9  1  0
  9 10  1  0
 10 11  1  0
 11 12  1  0
 12 13  1  0
 13 14  1  0
 14 15  1  0
 15 16  1  0
 16 17  1  0
 17 18  1  0
 18 19  1  0
  2 20  1  0
 20 21  2  0
 21 22  1  0
 22 23  2  0
 23 24  1  0
 24 25  2  0
 25 26  1  0
 25 27  1  0
 27 28  2  0
 28 29  1  0
 29 30  2  0
 13  7  1  0
 19 14  1  0
 30 20  1  0
 29 23  1  0
  3 31  1  0
  4 32  1  0
  4 33  1  0
  8 34  1  0
  8 35  1  0
  9 36  1  0
  9 37  1  0
 10 38  1  0
 10 39  1  0
 11 40  1  0
 11 41  1  0
 12 42  1  0
 12 43  1  0
 13 44  1  6
 14 45  1  0
 15 46  1  0
 15 47  1  0
 16 48  1  0
 16 49  1  0
 18 50  1  0
 18 51  1  0
 19 52  1  0
 19 53  1  0
 21 54  1  0
 22 55  1  0
 24 56  1  0
 27 57  1  0
 28 58  1  0
M  END
>  <smiles>  (11) 
O=C(NCC(=O)N1CCCCCC1C1CCOCC1)c1ccc2cc(Cl)ccc2n1

>  <score_type>  (11) 
oracle

>  <origin>  (11) 
autodockgpu

>  <m_score__min__energy>  (11) 
-6.4400000000000004

>  <m_primary>  (11) 
energy

>  <rmsd>  (11) 
8.424593522949806

>  <m_score__min__rmsd>  (11) 
8.424593522949806

>  <meeko>  (11) 
{"free_energy": -5.51, "intermolecular_energy": -8.79, "internal_energy": -2.19, "cluster_size": 4, "cluster_id": 3, "rank_in_cluster": 3}

>  <energy>  (11) 
-5.91

>  <cluster_rmsd>  (11) 
1.43

>  <cluster>  (11) 
1

$$$$

     RDKit          3D

 58 61  0  0  0  0  0  0  0  0999 V2000
  139.6110   74.1450  222.0970 O   0  0  0  0  0  0  0  0  0  0  0  0
  140.7790   74.4320  221.6820 C   0  0  0  0  0  0  0  0  0  0  0  0
  141.1790   75.7890  221.8690 N   0  0  0  0  0  0  0  0  0  0  0  0
  140.2090   76.6660  222.5060 C   0  0  0  0  0  0  0  0  0  0  0  0
  140.0750   77.8670  221.6370 C   0  0  0  0  0  0  0  0  0  0  0  0
  138.9130   78.1170  221.2180 O   0  0  0  0  0  0  0  0  0  0  0  0
  141.2180   78.6420  221.3330 N   0  0  0  0  0  0  0  0  0  0  0  0
  141.7860   79.3550  222.5100 C   0  0  0  0  0  0  0  0  0  0  0  0
  140.9330   80.5920  222.7590 C   0  0  0  0  0  0  0  0  0  0  0  0
  140.7850   81.4110  221.4900 C   0  0  0  0  0  0  0  0  0  0  0  0
  141.8180   81.1220  220.4650 C   0  0  0  0  0  0  0  0  0  0  0  0
  141.3960   80.0990  219.3990 C   0  0  0  0  0  0  0  0  0  0  0  0
  141.7360   78.7400  220.0130 C   0  0  2  0  0  0  0  0  0  0  0  0
  141.7360   77.5910  219.1130 C   0  0  0  0  0  0  0  0  0  0  0  0
  143.1450   76.9660  219.2130 C   0  0  0  0  0  0  0  0  0  0  0  0
  143.1230   75.5740  218.6200 C   0  0  0  0  0  0  0  0  0  0  0  0
  142.8440   75.7680  217.2580 O   0  0  0  0  0  0  0  0  0  0  0  0
  141.5660   76.2380  217.1180 C   0  0  0  0  0  0  0  0  0  0  0  0
  141.3780   77.6600  217.7000 C   0  0  0  0  0  0  0  0  0  0  0  0
  141.6500   73.4460  221.0580 C   0  0  0  0  0  0  0  0  0  0  0  0
  141.0700   72.2730  220.6180 C   0  0  0  0  0  0  0  0  0  0  0  0
  141.8310   71.2780  220.0100 C   0  0  0  0  0  0  0  0  0  0  0  0
  143.1960   71.4830  219.8520 C   0  0  0  0  0  0  0  0  0  0  0  0
  143.9480   70.5010  219.2530 C   0  0  0  0  0  0  0  0  0  0  0  0
  145.3130   70.7270  219.1040 C   0  0  0  0  0  0  0  0  0  0  0  0
  146.3100   69.5050  218.3460 Cl  0  0  0  0  0  0  0  0  0  0  0  0
  145.8390   71.9070  219.5580 C   0  0  0  0  0  0  0  0  0  0  0  0
  145.0940   72.9020  220.1620 C   0  0  0  0  0  0  0  0  0  0  0  0
  143.7460   72.6790  220.3090 C   0  0  0  0  0  0  0  0  0  0  0  0
  142.9740   73.6240  220.8950 N   0  0  0  0  0  0  0  0  0  0  0  0
  142.1240   76.1130  221.5580 H   0  0  0  0  0  0  0  0  0  0  0  0
  139.2393   76.1548  222.5967 H   0  0  0  0  0  0  0  0  0  0  0  0
  140.5372   76.9469  223.5176 H   0  0  0  0  0  0  0  0  0  0  0  0
  141.7614   78.6992  223.3928 H   0  0  0  0  0  0  0  0  0  0  0  0
  142.8312   79.6401  222.3198 H   0  0  0  0  0  0  0  0  0  0  0  0
  139.9365   80.2790  223.1041 H   0  0  0  0  0  0  0  0  0  0  0  0
  141.4263   81.2118  223.5222 H   0  0  0  0  0  0  0  0  0  0  0  0
  139.7968   81.2005  221.0550 H   0  0  0  0  0  0  0  0  0  0  0  0
  140.9042   82.4667  221.7752 H   0  0  0  0  0  0  0  0  0  0  0  0
  142.0683   82.0643  219.9556 H   0  0  0  0  0  0  0  0  0  0  0  0
  142.6712   80.6794  220.9999 H   0  0  0  0  0  0  0  0  0  0  0  0
  140.3178   80.1738  219.1942 H   0  0  0  0  0  0  0  0  0  0  0  0
  141.9066   80.2625  218.4385 H   0  0  0  0  0  0  0  0  0  0  0  0
  142.8218   78.6802  220.1784 H   0  0  0  0  0  0  0  0  0  0  0  0
  140.8666   77.0305  219.4871 H   0  0  0  0  0  0  0  0  0  0  0  0
  143.8626   77.5891  218.6591 H   0  0  0  0  0  0  0  0  0  0  0  0
  143.4468   76.9097  220.2693 H   0  0  0  0  0  0  0  0  0  0  0  0
  144.0985   75.0824  218.7494 H   0  0  0  0  0  0  0  0  0  0  0  0
  142.3791   74.9269  219.1078 H   0  0  0  0  0  0  0  0  0  0  0  0
  141.3165   76.2617  216.0469 H   0  0  0  0  0  0  0  0  0  0  0  0
  140.9034   75.5624  217.6788 H   0  0  0  0  0  0  0  0  0  0  0  0
  142.0341   78.3721  217.1780 H   0  0  0  0  0  0  0  0  0  0  0  0
  140.3406   78.0031  217.5732 H   0  0  0  0  0  0  0  0  0  0  0  0
  139.9885   72.1219  220.7500 H   0  0  0  0  0  0  0  0  0  0  0  0
  141.3602   70.3470  219.6613 H   0  0  0  0  0  0  0  0  0  0  0  0
  143.4858   69.5664  218.9026 H   0  0  0  0  0  0  0  0  0  0  0  0
  146.9194   72.0729  219.4345 H   0  0  0  0  0  0  0  0  0  0  0  0
  145.5611   73.8347  220.5110 H   0  0  0  0  0  0  0  0  0  0  0  0
  1  2  2  0
  2  3  1  0
  3  4  1  0
  4  5  1  0
  5  6  2  0
  5  7  1  0
  7  8  1  0
  8  9  1  0
  9 10  1  0
 10 11  1  0
 11 12  1  0
 12 13  1  0
 13 14  1  0
 14 15  1  0
 15 16  1  0
 16 17  1  0
 17 18  1  0
 18 19  1  0
  2 20  1  0
 20 21  2  0
 21 22  1  0
 22 23  2  0
 23 24  1  0
 24 25  2  0
 25 26  1  0
 25 27  1  0
 27 28  2  0
 28 29  1  0
 29 30  2  0
 13  7  1  0
 19 14  1  0
 30 20  1  0
 29 23  1  0
  3 31  1  0
  4 32  1  0
  4 33  1  0
  8 34  1  0
  8 35  1  0
  9 36  1  0
  9 37  1  0
 10 38  1  0
 10 39  1  0
 11 40  1  0
 11 41  1  0
 12 42  1  0
 12 43  1  0
 13 44  1  1
 14 45  1  0
 15 46  1  0
 15 47  1  0
 16 48  1  0
 16 49  1  0
 18 50  1  0
 18 51  1  0
 19 52  1  0
 19 53  1  0
 21 54  1  0
 22 55  1  0
 24 56  1  0
 27 57  1  0
 28 58  1  0
M  END
>  <smiles>  (12) 
O=C(NCC(=O)N1CCCCCC1C1CCOCC1)c1ccc2cc(Cl)ccc2n1

>  <score_type>  (12) 
oracle

>  <origin>  (12) 
autodockgpu

>  <m_score__min__energy>  (12) 
-6.4400000000000004

>  <m_primary>  (12) 
energy

>  <rmsd>  (12) 
6.039759604588533

>  <m_score__min__rmsd>  (12) 
6.039759604588533

>  <meeko>  (12) 
{"free_energy": -4.44, "intermolecular_energy": -7.72, "internal_energy": -2.43, "cluster_size": 3, "cluster_id": 7, "rank_in_cluster": 2}

>  <energy>  (12) 
-5.89

>  <cluster_rmsd>  (12) 
0.94

>  <cluster>  (12) 
1

$$$$

     RDKit          3D

 58 61  0  0  0  0  0  0  0  0999 V2000
  138.2840   71.2510  220.8990 O   0  0  0  0  0  0  0  0  0  0  0  0
  138.6520   71.8010  221.9850 C   0  0  0  0  0  0  0  0  0  0  0  0
  138.6770   73.2290  221.9700 N   0  0  0  0  0  0  0  0  0  0  0  0
  138.2810   73.8680  220.7260 C   0  0  0  0  0  0  0  0  0  0  0  0
  139.4350   73.7520  219.7940 C   0  0  0  0  0  0  0  0  0  0  0  0
  139.1960   73.1970  218.6870 O   0  0  0  0  0  0  0  0  0  0  0  0
  140.7000   74.2510  220.1800 N   0  0  0  0  0  0  0  0  0  0  0  0
  141.5040   73.2870  220.9800 C   0  0  0  0  0  0  0  0  0  0  0  0
  142.7390   72.9250  220.1650 C   0  0  0  0  0  0  0  0  0  0  0  0
  143.8710   73.8990  220.4390 C   0  0  0  0  0  0  0  0  0  0  0  0
  143.5160   75.3170  220.1900 C   0  0  0  0  0  0  0  0  0  0  0  0
  142.4580   75.5310  219.0980 C   0  0  0  0  0  0  0  0  0  0  0  0
  141.1260   75.5670  219.8510 C   0  0  2  0  0  0  0  0  0  0  0  0
  140.9170   76.6820  220.7690 C   0  0  0  0  0  0  0  0  0  0  0  0
  141.8530   77.8140  220.2920 C   0  0  0  0  0  0  0  0  0  0  0  0
  141.4370   79.1180  220.9360 C   0  0  0  0  0  0  0  0  0  0  0  0
  141.6680   78.9310  222.3080 O   0  0  0  0  0  0  0  0  0  0  0  0
  140.7940   77.9960  222.7930 C   0  0  0  0  0  0  0  0  0  0  0  0
  141.0440   76.5800  222.2190 C   0  0  0  0  0  0  0  0  0  0  0  0
  139.0240   71.0310  223.1640 C   0  0  0  0  0  0  0  0  0  0  0  0
  138.6690   69.6980  223.1900 C   0  0  0  0  0  0  0  0  0  0  0  0
  138.9860   68.8900  224.2790 C   0  0  0  0  0  0  0  0  0  0  0  0
  139.6700   69.4500  225.3500 C   0  0  0  0  0  0  0  0  0  0  0  0
  139.9830   68.6550  226.4260 C   0  0  0  0  0  0  0  0  0  0  0  0
  140.6690   69.2360  227.4880 C   0  0  0  0  0  0  0  0  0  0  0  0
  141.0890   68.2610  228.8780 Cl  0  0  0  0  0  0  0  0  0  0  0  0
  140.9980   70.5630  227.4130 C   0  0  0  0  0  0  0  0  0  0  0  0
  140.6890   71.3740  226.3370 C   0  0  0  0  0  0  0  0  0  0  0  0
  140.0120   70.8010  225.2880 C   0  0  0  0  0  0  0  0  0  0  0  0
  139.6860   71.5550  224.2120 N   0  0  0  0  0  0  0  0  0  0  0  0
  138.9670   73.7650  222.8210 H   0  0  0  0  0  0  0  0  0  0  0  0
  137.4011   73.3607  220.3035 H   0  0  0  0  0  0  0  0  0  0  0  0
  138.0138   74.9220  220.8925 H   0  0  0  0  0  0  0  0  0  0  0  0
  141.8054   73.7496  221.9314 H   0  0  0  0  0  0  0  0  0  0  0  0
  140.9135   72.3866  221.2050 H   0  0  0  0  0  0  0  0  0  0  0  0
  143.0640   71.9093  220.4348 H   0  0  0  0  0  0  0  0  0  0  0  0
  142.4828   72.9741  219.0964 H   0  0  0  0  0  0  0  0  0  0  0  0
  144.1690   73.7963  221.4929 H   0  0  0  0  0  0  0  0  0  0  0  0
  144.6852   73.6465  219.7438 H   0  0  0  0  0  0  0  0  0  0  0  0
  143.1315   75.7438  221.1281 H   0  0  0  0  0  0  0  0  0  0  0  0
  144.4333   75.8093  219.8347 H   0  0  0  0  0  0  0  0  0  0  0  0
  142.6313   76.4805  218.5704 H   0  0  0  0  0  0  0  0  0  0  0  0
  142.4830   74.7409  218.3331 H   0  0  0  0  0  0  0  0  0  0  0  0
  140.3343   75.9097  219.1685 H   0  0  0  0  0  0  0  0  0  0  0  0
  139.8273   76.8135  220.6963 H   0  0  0  0  0  0  0  0  0  0  0  0
  142.8887   77.5781  220.5777 H   0  0  0  0  0  0  0  0  0  0  0  0
  141.7864   77.9080  219.1981 H   0  0  0  0  0  0  0  0  0  0  0  0
  142.0436   79.9510  220.5511 H   0  0  0  0  0  0  0  0  0  0  0  0
  140.3877   79.3700  220.7225 H   0  0  0  0  0  0  0  0  0  0  0  0
  140.8971   77.9540  223.8874 H   0  0  0  0  0  0  0  0  0  0  0  0
  139.7823   78.3012  222.4876 H   0  0  0  0  0  0  0  0  0  0  0  0
  142.0539   76.2361  222.4870 H   0  0  0  0  0  0  0  0  0  0  0  0
  140.3230   75.8566  222.6275 H   0  0  0  0  0  0  0  0  0  0  0  0
  138.1264   69.2662  222.3361 H   0  0  0  0  0  0  0  0  0  0  0  0
  138.6999   67.8279  224.2907 H   0  0  0  0  0  0  0  0  0  0  0  0
  139.7001   67.5922  226.4472 H   0  0  0  0  0  0  0  0  0  0  0  0
  141.5403   71.0102  228.2591 H   0  0  0  0  0  0  0  0  0  0  0  0
  140.9740   72.4363  226.3214 H   0  0  0  0  0  0  0  0  0  0  0  0
  1  2  2  0
  2  3  1  0
  3  4  1  0
  4  5  1  0
  5  6  2  0
  5  7  1  0
  7  8  1  0
  8  9  1  0
  9 10  1  0
 10 11  1  0
 11 12  1  0
 12 13  1  0
 13 14  1  0
 14 15  1  0
 15 16  1  0
 16 17  1  0
 17 18  1  0
 18 19  1  0
  2 20  1  0
 20 21  2  0
 21 22  1  0
 22 23  2  0
 23 24  1  0
 24 25  2  0
 25 26  1  0
 25 27  1  0
 27 28  2  0
 28 29  1  0
 29 30  2  0
 13  7  1  0
 19 14  1  0
 30 20  1  0
 29 23  1  0
  3 31  1  0
  4 32  1  0
  4 33  1  0
  8 34  1  0
  8 35  1  0
  9 36  1  0
  9 37  1  0
 10 38  1  0
 10 39  1  0
 11 40  1  0
 11 41  1  0
 12 42  1  0
 12 43  1  0
 13 44  1  6
 14 45  1  0
 15 46  1  0
 15 47  1  0
 16 48  1  0
 16 49  1  0
 18 50  1  0
 18 51  1  0
 19 52  1  0
 19 53  1  0
 21 54  1  0
 22 55  1  0
 24 56  1  0
 27 57  1  0
 28 58  1  0
M  END
>  <smiles>  (13) 
O=C(NCC(=O)N1CCCCCC1C1CCOCC1)c1ccc2cc(Cl)ccc2n1

>  <score_type>  (13) 
oracle

>  <origin>  (13) 
autodockgpu

>  <m_score__min__energy>  (13) 
-6.4400000000000004

>  <m_primary>  (13) 
energy

>  <rmsd>  (13) 
2.2574472553808875

>  <m_score__min__rmsd>  (13) 
2.2574472553808875

>  <meeko>  (13) 
{"free_energy": -5.69, "intermolecular_energy": -8.97, "internal_energy": -1.79, "cluster_size": 12, "cluster_id": 2, "rank_in_cluster": 3}

>  <energy>  (13) 
-5.87

>  <cluster_rmsd>  (13) 
1.96

>  <cluster>  (13) 
1

$$$$

     RDKit          3D

 58 61  0  0  0  0  0  0  0  0999 V2000
  140.1390   72.4530  220.8640 O   0  0  0  0  0  0  0  0  0  0  0  0
  139.8470   72.7810  222.0580 C   0  0  0  0  0  0  0  0  0  0  0  0
  139.4570   74.1420  222.2410 N   0  0  0  0  0  0  0  0  0  0  0  0
  139.4400   74.9740  221.0480 C   0  0  0  0  0  0  0  0  0  0  0  0
  139.5610   76.3860  221.5050 C   0  0  0  0  0  0  0  0  0  0  0  0
  139.3980   76.5800  222.7400 O   0  0  0  0  0  0  0  0  0  0  0  0
  139.8410   77.4050  220.5650 N   0  0  0  0  0  0  0  0  0  0  0  0
  138.9010   77.4280  219.4110 C   0  0  0  0  0  0  0  0  0  0  0  0
  139.5390   78.2640  218.3100 C   0  0  0  0  0  0  0  0  0  0  0  0
  140.8060   77.6050  217.7970 C   0  0  0  0  0  0  0  0  0  0  0  0
  141.5720   76.8810  218.8400 C   0  0  0  0  0  0  0  0  0  0  0  0
  142.1600   77.7730  219.9460 C   0  0  0  0  0  0  0  0  0  0  0  0
  140.9430   78.2890  220.7160 C   0  0  2  0  0  0  0  0  0  0  0  0
  141.2020   78.9660  221.9830 C   0  0  0  0  0  0  0  0  0  0  0  0
  140.2050   80.1420  222.0550 C   0  0  0  0  0  0  0  0  0  0  0  0
  140.1390   80.6620  223.4740 C   0  0  0  0  0  0  0  0  0  0  0  0
  141.4190   81.1800  223.7270 O   0  0  0  0  0  0  0  0  0  0  0  0
  142.3250   80.1560  223.7620 C   0  0  0  0  0  0  0  0  0  0  0  0
  142.5120   79.4670  222.3880 C   0  0  0  0  0  0  0  0  0  0  0  0
  139.9080   71.8360  223.1650 C   0  0  0  0  0  0  0  0  0  0  0  0
  139.4520   70.5550  222.9320 C   0  0  0  0  0  0  0  0  0  0  0  0
  139.4740   69.5900  223.9360 C   0  0  0  0  0  0  0  0  0  0  0  0
  139.9650   69.9380  225.1870 C   0  0  0  0  0  0  0  0  0  0  0  0
  139.9870   68.9870  226.1790 C   0  0  0  0  0  0  0  0  0  0  0  0
  140.4840   69.3570  227.4250 C   0  0  0  0  0  0  0  0  0  0  0  0
  140.5310   68.1790  228.7170 Cl  0  0  0  0  0  0  0  0  0  0  0  0
  140.9230   70.6410  227.6040 C   0  0  0  0  0  0  0  0  0  0  0  0
  140.9060   71.6070  226.6150 C   0  0  0  0  0  0  0  0  0  0  0  0
  140.4170   71.2420  225.3850 C   0  0  0  0  0  0  0  0  0  0  0  0
  140.3790   72.1530  224.3840 N   0  0  0  0  0  0  0  0  0  0  0  0
  139.1990   74.4990  223.1900 H   0  0  0  0  0  0  0  0  0  0  0  0
  140.2850   74.7143  220.3934 H   0  0  0  0  0  0  0  0  0  0  0  0
  138.5130   74.8231  220.4753 H   0  0  0  0  0  0  0  0  0  0  0  0
  138.7262   76.4038  219.0499 H   0  0  0  0  0  0  0  0  0  0  0  0
  137.9343   77.8590  219.7104 H   0  0  0  0  0  0  0  0  0  0  0  0
  138.8261   78.3701  217.4790 H   0  0  0  0  0  0  0  0  0  0  0  0
  139.7973   79.2507  218.7220 H   0  0  0  0  0  0  0  0  0  0  0  0
  140.5291   76.8878  217.0103 H   0  0  0  0  0  0  0  0  0  0  0  0
  141.4563   78.4104  217.4249 H   0  0  0  0  0  0  0  0  0  0  0  0
  140.8997   76.1494  219.3120 H   0  0  0  0  0  0  0  0  0  0  0  0
  142.4286   76.4176  218.3286 H   0  0  0  0  0  0  0  0  0  0  0  0
  142.8181   77.1892  220.6064 H   0  0  0  0  0  0  0  0  0  0  0  0
  142.7730   78.5909  219.5394 H   0  0  0  0  0  0  0  0  0  0  0  0
  140.5768   79.2088  220.2366 H   0  0  0  0  0  0  0  0  0  0  0  0
  141.1056   78.1303  222.6918 H   0  0  0  0  0  0  0  0  0  0  0  0
  140.5393   80.9475  221.3846 H   0  0  0  0  0  0  0  0  0  0  0  0
  139.2079   79.7964  221.7447 H   0  0  0  0  0  0  0  0  0  0  0  0
  139.3775   81.4509  223.5624 H   0  0  0  0  0  0  0  0  0  0  0  0
  139.8604   79.8760  224.1913 H   0  0  0  0  0  0  0  0  0  0  0  0
  143.2958   80.5578  224.0878 H   0  0  0  0  0  0  0  0  0  0  0  0
  141.9391   79.3987  224.4602 H   0  0  0  0  0  0  0  0  0  0  0  0
  142.8848   80.1916  221.6491 H   0  0  0  0  0  0  0  0  0  0  0  0
  143.2434   78.6481  222.4545 H   0  0  0  0  0  0  0  0  0  0  0  0
  139.0646   70.2914  221.9368 H   0  0  0  0  0  0  0  0  0  0  0  0
  139.1090   68.5707  223.7413 H   0  0  0  0  0  0  0  0  0  0  0  0
  139.6232   67.9655  225.9938 H   0  0  0  0  0  0  0  0  0  0  0  0
  141.3126   70.9211  228.5938 H   0  0  0  0  0  0  0  0  0  0  0  0
  141.2698   72.6274  226.8060 H   0  0  0  0  0  0  0  0  0  0  0  0
  1  2  2  0
  2  3  1  0
  3  4  1  0
  4  5  1  0
  5  6  2  0
  5  7  1  0
  7  8  1  0
  8  9  1  0
  9 10  1  0
 10 11  1  0
 11 12  1  0
 12 13  1  0
 13 14  1  0
 14 15  1  0
 15 16  1  0
 16 17  1  0
 17 18  1  0
 18 19  1  0
  2 20  1  0
 20 21  2  0
 21 22  1  0
 22 23  2  0
 23 24  1  0
 24 25  2  0
 25 26  1  0
 25 27  1  0
 27 28  2  0
 28 29  1  0
 29 30  2  0
 13  7  1  0
 19 14  1  0
 30 20  1  0
 29 23  1  0
  3 31  1  0
  4 32  1  0
  4 33  1  0
  8 34  1  0
  8 35  1  0
  9 36  1  0
  9 37  1  0
 10 38  1  0
 10 39  1  0
 11 40  1  0
 11 41  1  0
 12 42  1  0
 12 43  1  0
 13 44  1  6
 14 45  1  0
 15 46  1  0
 15 47  1  0
 16 48  1  0
 16 49  1  0
 18 50  1  0
 18 51  1  0
 19 52  1  0
 19 53  1  0
 21 54  1  0
 22 55  1  0
 24 56  1  0
 27 57  1  0
 28 58  1  0
M  END
>  <smiles>  (14) 
O=C(NCC(=O)N1CCCCCC1C1CCOCC1)c1ccc2cc(Cl)ccc2n1

>  <score_type>  (14) 
oracle

>  <origin>  (14) 
autodockgpu

>  <m_score__min__energy>  (14) 
-6.4400000000000004

>  <m_primary>  (14) 
energy

>  <rmsd>  (14) 
1.9067931454766

>  <m_score__min__rmsd>  (14) 
1.9067931454766

>  <meeko>  (14) 
{"free_energy": -5.85, "intermolecular_energy": -9.14, "internal_energy": -2.16, "cluster_size": 27, "cluster_id": 1, "rank_in_cluster": 14}

>  <energy>  (14) 
-5.85

>  <cluster_rmsd>  (14) 
1.27

>  <cluster>  (14) 
1

$$$$

     RDKit          3D

 58 61  0  0  0  0  0  0  0  0999 V2000
  139.9390   72.3560  220.6130 O   0  0  0  0  0  0  0  0  0  0  0  0
  139.9380   72.7680  221.8160 C   0  0  0  0  0  0  0  0  0  0  0  0
  139.8760   74.1860  221.9770 N   0  0  0  0  0  0  0  0  0  0  0  0
  139.8210   74.9720  220.7550 C   0  0  0  0  0  0  0  0  0  0  0  0
  140.1840   76.3680  221.1220 C   0  0  0  0  0  0  0  0  0  0  0  0
  139.6190   76.8310  222.1500 O   0  0  0  0  0  0  0  0  0  0  0  0
  141.1110   77.0830  220.3300 N   0  0  0  0  0  0  0  0  0  0  0  0
  142.0040   76.2090  219.5210 C   0  0  0  0  0  0  0  0  0  0  0  0
  141.4420   76.1520  218.1070 C   0  0  0  0  0  0  0  0  0  0  0  0
  141.8440   77.3840  217.3170 C   0  0  0  0  0  0  0  0  0  0  0  0
  141.4110   78.6610  217.9340 C   0  0  0  0  0  0  0  0  0  0  0  0
  142.1270   79.0080  219.2530 C   0  0  0  0  0  0  0  0  0  0  0  0
  141.1840   78.5020  220.3470 C   0  0  2  0  0  0  0  0  0  0  0  0
  141.1720   79.2450  221.6030 C   0  0  0  0  0  0  0  0  0  0  0  0
  141.4300   80.7210  221.2330 C   0  0  0  0  0  0  0  0  0  0  0  0
  141.0630   81.6070  222.4030 C   0  0  0  0  0  0  0  0  0  0  0  0
  141.9730   81.2620  223.4140 O   0  0  0  0  0  0  0  0  0  0  0  0
  141.7200   79.9850  223.8370 C   0  0  0  0  0  0  0  0  0  0  0  0
  142.0110   78.9200  222.7520 C   0  0  0  0  0  0  0  0  0  0  0  0
  139.9980   71.8610  222.9530 C   0  0  0  0  0  0  0  0  0  0  0  0
  139.5340   70.5740  222.7650 C   0  0  0  0  0  0  0  0  0  0  0  0
  139.5550   69.6430  223.8000 C   0  0  0  0  0  0  0  0  0  0  0  0
  140.0520   70.0300  225.0370 C   0  0  0  0  0  0  0  0  0  0  0  0
  140.0730   69.1130  226.0600 C   0  0  0  0  0  0  0  0  0  0  0  0
  140.5760   69.5210  227.2910 C   0  0  0  0  0  0  0  0  0  0  0  0
  140.6220   68.3860  228.6220 Cl  0  0  0  0  0  0  0  0  0  0  0  0
  141.0230   70.8080  227.4260 C   0  0  0  0  0  0  0  0  0  0  0  0
  141.0070   71.7410  226.4060 C   0  0  0  0  0  0  0  0  0  0  0  0
  140.5110   71.3380  225.1900 C   0  0  0  0  0  0  0  0  0  0  0  0
  140.4750   72.2160  224.1600 N   0  0  0  0  0  0  0  0  0  0  0  0
  139.8700   74.6130  222.9320 H   0  0  0  0  0  0  0  0  0  0  0  0
  140.5358   74.5765  220.0184 H   0  0  0  0  0  0  0  0  0  0  0  0
  138.8178   74.9313  220.3056 H   0  0  0  0  0  0  0  0  0  0  0  0
  143.0211   76.6275  219.5029 H   0  0  0  0  0  0  0  0  0  0  0  0
  142.0521   75.2001  219.9566 H   0  0  0  0  0  0  0  0  0  0  0  0
  141.8304   75.2562  217.6004 H   0  0  0  0  0  0  0  0  0  0  0  0
  140.3442   76.1133  218.1653 H   0  0  0  0  0  0  0  0  0  0  0  0
  142.9404   77.3963  217.2286 H   0  0  0  0  0  0  0  0  0  0  0  0
  141.3424   77.3149  216.3405 H   0  0  0  0  0  0  0  0  0  0  0  0
  141.6021   79.4719  217.2157 H   0  0  0  0  0  0  0  0  0  0  0  0
  140.3447   78.5450  218.1779 H   0  0  0  0  0  0  0  0  0  0  0  0
  143.1001   78.4986  219.3126 H   0  0  0  0  0  0  0  0  0  0  0  0
  142.3344   80.0843  219.3452 H   0  0  0  0  0  0  0  0  0  0  0  0
  140.1534   78.7961  220.0992 H   0  0  0  0  0  0  0  0  0  0  0  0
  140.1934   78.9522  222.0113 H   0  0  0  0  0  0  0  0  0  0  0  0
  142.4941   80.8572  220.9898 H   0  0  0  0  0  0  0  0  0  0  0  0
  140.8164   80.9926  220.3614 H   0  0  0  0  0  0  0  0  0  0  0  0
  141.1678   82.6682  222.1331 H   0  0  0  0  0  0  0  0  0  0  0  0
  140.0188   81.4660  222.7188 H   0  0  0  0  0  0  0  0  0  0  0  0
  142.3509   79.7744  224.7131 H   0  0  0  0  0  0  0  0  0  0  0  0
  140.6486   79.9245  224.0787 H   0  0  0  0  0  0  0  0  0  0  0  0
  143.0727   78.9516  222.4661 H   0  0  0  0  0  0  0  0  0  0  0  0
  141.7931   77.9083  223.1249 H   0  0  0  0  0  0  0  0  0  0  0  0
  139.1411   70.2794  221.7807 H   0  0  0  0  0  0  0  0  0  0  0  0
  139.1846   68.6196  223.6404 H   0  0  0  0  0  0  0  0  0  0  0  0
  139.7034   68.0878  225.9101 H   0  0  0  0  0  0  0  0  0  0  0  0
  141.4185   71.1182  228.4045 H   0  0  0  0  0  0  0  0  0  0  0  0
  141.3767   72.7652  226.5619 H   0  0  0  0  0  0  0  0  0  0  0  0
  1  2  2  0
  2  3  1  0
  3  4  1  0
  4  5  1  0
  5  6  2  0
  5  7  1  0
  7  8  1  0
  8  9  1  0
  9 10  1  0
 10 11  1  0
 11 12  1  0
 12 13  1  0
 13 14  1  0
 14 15  1  0
 15 16  1  0
 16 17  1  0
 17 18  1  0
 18 19  1  0
  2 20  1  0
 20 21  2  0
 21 22  1  0
 22 23  2  0
 23 24  1  0
 24 25  2  0
 25 26  1  0
 25 27  1  0
 27 28  2  0
 28 29  1  0
 29 30  2  0
 13  7  1  0
 19 14  1  0
 30 20  1  0
 29 23  1  0
  3 31  1  0
  4 32  1  0
  4 33  1  0
  8 34  1  0
  8 35  1  0
  9 36  1  0
  9 37  1  0
 10 38  1  0
 10 39  1  0
 11 40  1  0
 11 41  1  0
 12 42  1  0
 12 43  1  0
 13 44  1  6
 14 45  1  0
 15 46  1  0
 15 47  1  0
 16 48  1  0
 16 49  1  0
 18 50  1  0
 18 51  1  0
 19 52  1  0
 19 53  1  0
 21 54  1  0
 22 55  1  0
 24 56  1  0
 27 57  1  0
 28 58  1  0
M  END
>  <smiles>  (15) 
O=C(NCC(=O)N1CCCCCC1C1CCOCC1)c1ccc2cc(Cl)ccc2n1

>  <score_type>  (15) 
oracle

>  <origin>  (15) 
autodockgpu

>  <m_score__min__energy>  (15) 
-6.4400000000000004

>  <m_primary>  (15) 
energy

>  <rmsd>  (15) 
2.0833302908790574

>  <m_score__min__rmsd>  (15) 
2.0833302908790574

>  <meeko>  (15) 
{"free_energy": -5.63, "intermolecular_energy": -8.91, "internal_energy": -1.88, "cluster_size": 27, "cluster_id": 1, "rank_in_cluster": 23}

>  <energy>  (15) 
-5.85

>  <cluster_rmsd>  (15) 
1.15

>  <cluster>  (15) 
1

$$$$

     RDKit          3D

 58 61  0  0  0  0  0  0  0  0999 V2000
  141.2700   73.1290  220.3330 O   0  0  0  0  0  0  0  0  0  0  0  0
  140.8420   73.8550  221.2850 C   0  0  0  0  0  0  0  0  0  0  0  0
  140.1310   73.1620  222.3110 N   0  0  0  0  0  0  0  0  0  0  0  0
  139.9900   71.7250  222.1400 C   0  0  0  0  0  0  0  0  0  0  0  0
  139.8430   71.1400  223.5010 C   0  0  0  0  0  0  0  0  0  0  0  0
  140.1610   71.8930  224.4610 O   0  0  0  0  0  0  0  0  0  0  0  0
  139.3700   69.8160  223.6470 N   0  0  0  0  0  0  0  0  0  0  0  0
  139.1280   69.1220  222.3530 C   0  0  0  0  0  0  0  0  0  0  0  0
  137.7690   68.4390  222.4400 C   0  0  0  0  0  0  0  0  0  0  0  0
  136.6980   69.4210  222.8760 C   0  0  0  0  0  0  0  0  0  0  0  0
  137.0070   70.1220  224.1460 C   0  0  0  0  0  0  0  0  0  0  0  0
  137.6310   69.2370  225.2390 C   0  0  0  0  0  0  0  0  0  0  0  0
  139.1270   69.2360  224.9220 C   0  0  2  0  0  0  0  0  0  0  0  0
  140.0390   69.4570  226.0400 C   0  0  0  0  0  0  0  0  0  0  0  0
  139.9890   68.1740  226.8970 C   0  0  0  0  0  0  0  0  0  0  0  0
  141.1640   68.1570  227.8500 C   0  0  0  0  0  0  0  0  0  0  0  0
  140.9470   69.2460  228.7080 O   0  0  0  0  0  0  0  0  0  0  0  0
  141.0730   70.4130  228.0040 C   0  0  0  0  0  0  0  0  0  0  0  0
  139.9610   70.6010  226.9430 C   0  0  0  0  0  0  0  0  0  0  0  0
  141.0580   75.2950  221.3280 C   0  0  0  0  0  0  0  0  0  0  0  0
  141.9280   75.8350  220.4030 C   0  0  0  0  0  0  0  0  0  0  0  0
  142.1920   77.2020  220.3750 C   0  0  0  0  0  0  0  0  0  0  0  0
  141.5620   78.0230  221.3010 C   0  0  0  0  0  0  0  0  0  0  0  0
  141.8210   79.3720  221.2750 C   0  0  0  0  0  0  0  0  0  0  0  0
  141.1780   80.1770  222.2100 C   0  0  0  0  0  0  0  0  0  0  0  0
  141.4780   81.9010  222.2140 Cl  0  0  0  0  0  0  0  0  0  0  0  0
  140.3240   79.5920  223.1070 C   0  0  0  0  0  0  0  0  0  0  0  0
  140.0550   78.2360  223.1440 C   0  0  0  0  0  0  0  0  0  0  0  0
  140.6890   77.4420  222.2200 C   0  0  0  0  0  0  0  0  0  0  0  0
  140.4580   76.1080  222.2160 N   0  0  0  0  0  0  0  0  0  0  0  0
  139.7440   73.6810  223.1330 H   0  0  0  0  0  0  0  0  0  0  0  0
  139.0995   71.5017  221.5341 H   0  0  0  0  0  0  0  0  0  0  0  0
  140.8636   71.3025  221.6221 H   0  0  0  0  0  0  0  0  0  0  0  0
  139.1281   69.8524  221.5305 H   0  0  0  0  0  0  0  0  0  0  0  0
  139.9188   68.3825  222.1590 H   0  0  0  0  0  0  0  0  0  0  0  0
  137.5055   68.0336  221.4520 H   0  0  0  0  0  0  0  0  0  0  0  0
  137.8285   67.6301  223.1831 H   0  0  0  0  0  0  0  0  0  0  0  0
  136.5767   70.1753  222.0846 H   0  0  0  0  0  0  0  0  0  0  0  0
  135.7810   68.8382  223.0477 H   0  0  0  0  0  0  0  0  0  0  0  0
  137.7107   70.9377  223.9236 H   0  0  0  0  0  0  0  0  0  0  0  0
  136.0448   70.4742  224.5461 H   0  0  0  0  0  0  0  0  0  0  0  0
  137.4451   69.6617  226.2365 H   0  0  0  0  0  0  0  0  0  0  0  0
  137.2049   68.2230  225.2504 H   0  0  0  0  0  0  0  0  0  0  0  0
  139.4650   68.1988  224.7805 H   0  0  0  0  0  0  0  0  0  0  0  0
  140.9661   69.7162  225.5078 H   0  0  0  0  0  0  0  0  0  0  0  0
  139.0510   68.1531  227.4712 H   0  0  0  0  0  0  0  0  0  0  0  0
  140.0371   67.2928  226.2404 H   0  0  0  0  0  0  0  0  0  0  0  0
  141.1884   67.2153  228.4180 H   0  0  0  0  0  0  0  0  0  0  0  0
  142.1267   68.2298  227.3228 H   0  0  0  0  0  0  0  0  0  0  0  0
  141.0299   71.2552  228.7103 H   0  0  0  0  0  0  0  0  0  0  0  0
  142.0343   70.3741  227.4707 H   0  0  0  0  0  0  0  0  0  0  0  0
  138.9751   70.6322  227.4298 H   0  0  0  0  0  0  0  0  0  0  0  0
  140.0953   71.5452  226.3949 H   0  0  0  0  0  0  0  0  0  0  0  0
  142.4215   75.1742  219.6751 H   0  0  0  0  0  0  0  0  0  0  0  0
  142.8865   77.6235  219.6334 H   0  0  0  0  0  0  0  0  0  0  0  0
  142.5151   79.8022  220.5380 H   0  0  0  0  0  0  0  0  0  0  0  0
  139.8224   80.2392  223.8415 H   0  0  0  0  0  0  0  0  0  0  0  0
  139.3611   77.8104  223.8838 H   0  0  0  0  0  0  0  0  0  0  0  0
  1  2  2  0
  2  3  1  0
  3  4  1  0
  4  5  1  0
  5  6  2  0
  5  7  1  0
  7  8  1  0
  8  9  1  0
  9 10  1  0
 10 11  1  0
 11 12  1  0
 12 13  1  0
 13 14  1  0
 14 15  1  0
 15 16  1  0
 16 17  1  0
 17 18  1  0
 18 19  1  0
  2 20  1  0
 20 21  2  0
 21 22  1  0
 22 23  2  0
 23 24  1  0
 24 25  2  0
 25 26  1  0
 25 27  1  0
 27 28  2  0
 28 29  1  0
 29 30  2  0
 13  7  1  0
 19 14  1  0
 30 20  1  0
 29 23  1  0
  3 31  1  0
  4 32  1  0
  4 33  1  0
  8 34  1  0
  8 35  1  0
  9 36  1  0
  9 37  1  0
 10 38  1  0
 10 39  1  0
 11 40  1  0
 11 41  1  0
 12 42  1  0
 12 43  1  0
 13 44  1  6
 14 45  1  0
 15 46  1  0
 15 47  1  0
 16 48  1  0
 16 49  1  0
 18 50  1  0
 18 51  1  0
 19 52  1  0
 19 53  1  0
 21 54  1  0
 22 55  1  0
 24 56  1  0
 27 57  1  0
 28 58  1  0
M  END
>  <smiles>  (16) 
O=C(NCC(=O)N1CCCCCC1C1CCOCC1)c1ccc2cc(Cl)ccc2n1

>  <score_type>  (16) 
oracle

>  <origin>  (16) 
autodockgpu

>  <m_score__min__energy>  (16) 
-6.4400000000000004

>  <m_primary>  (16) 
energy

>  <rmsd>  (16) 
8.405944601090722

>  <m_score__min__rmsd>  (16) 
8.405944601090722

>  <meeko>  (16) 
{"free_energy": -5.87, "intermolecular_energy": -9.15, "internal_energy": -1.94, "cluster_size": 4, "cluster_id": 3, "rank_in_cluster": 2}

>  <energy>  (16) 
-5.83

>  <cluster_rmsd>  (16) 
1.02

>  <cluster>  (16) 
1

$$$$

     RDKit          3D

 58 61  0  0  0  0  0  0  0  0999 V2000
  140.7740   72.7620  221.0270 O   0  0  0  0  0  0  0  0  0  0  0  0
  140.0460   72.9050  222.0590 C   0  0  0  0  0  0  0  0  0  0  0  0
  139.1990   74.0550  222.0570 N   0  0  0  0  0  0  0  0  0  0  0  0
  139.2760   74.9100  220.8830 C   0  0  0  0  0  0  0  0  0  0  0  0
  140.3030   75.9480  221.1700 C   0  0  0  0  0  0  0  0  0  0  0  0
  141.4630   75.7080  220.7400 O   0  0  0  0  0  0  0  0  0  0  0  0
  139.9400   77.1120  221.8860 N   0  0  0  0  0  0  0  0  0  0  0  0
  141.0070   77.6100  222.7960 C   0  0  0  0  0  0  0  0  0  0  0  0
  141.8090   78.6620  222.0410 C   0  0  0  0  0  0  0  0  0  0  0  0
  141.0560   79.9800  221.9900 C   0  0  0  0  0  0  0  0  0  0  0  0
  139.6980   79.8740  221.4060 C   0  0  0  0  0  0  0  0  0  0  0  0
  138.6740   79.1450  222.2910 C   0  0  0  0  0  0  0  0  0  0  0  0
  138.6580   77.7120  221.7550 C   0  0  2  0  0  0  0  0  0  0  0  0
  137.4370   76.9410  221.9670 C   0  0  0  0  0  0  0  0  0  0  0  0
  136.2650   77.9240  221.7560 C   0  0  0  0  0  0  0  0  0  0  0  0
  134.9800   77.1460  221.5820 C   0  0  0  0  0  0  0  0  0  0  0  0
  134.7760   76.5080  222.8150 O   0  0  0  0  0  0  0  0  0  0  0  0
  135.7460   75.5600  223.0020 C   0  0  0  0  0  0  0  0  0  0  0  0
  137.1590   76.1680  223.1730 C   0  0  0  0  0  0  0  0  0  0  0  0
  140.0720   71.9640  223.1700 C   0  0  0  0  0  0  0  0  0  0  0  0
  139.5740   70.6970  222.9420 C   0  0  0  0  0  0  0  0  0  0  0  0
  139.5600   69.7370  223.9500 C   0  0  0  0  0  0  0  0  0  0  0  0
  140.0600   70.0740  225.2010 C   0  0  0  0  0  0  0  0  0  0  0  0
  140.0470   69.1270  226.1970 C   0  0  0  0  0  0  0  0  0  0  0  0
  140.5530   69.4850  227.4430 C   0  0  0  0  0  0  0  0  0  0  0  0
  140.5570   68.3120  228.7400 Cl  0  0  0  0  0  0  0  0  0  0  0  0
  141.0350   70.7550  227.6180 C   0  0  0  0  0  0  0  0  0  0  0  0
  141.0530   71.7170  226.6250 C   0  0  0  0  0  0  0  0  0  0  0  0
  140.5550   71.3630  225.3940 C   0  0  0  0  0  0  0  0  0  0  0  0
  140.5510   72.2700  224.3900 N   0  0  0  0  0  0  0  0  0  0  0  0
  138.5660   74.2510  222.8660 H   0  0  0  0  0  0  0  0  0  0  0  0
  139.5712   74.3190  220.0035 H   0  0  0  0  0  0  0  0  0  0  0  0
  138.3007   75.3706  220.6670 H   0  0  0  0  0  0  0  0  0  0  0  0
  140.5548   78.0571  223.6936 H   0  0  0  0  0  0  0  0  0  0  0  0
  141.6596   76.7828  223.1120 H   0  0  0  0  0  0  0  0  0  0  0  0
  142.7716   78.8161  222.5506 H   0  0  0  0  0  0  0  0  0  0  0  0
  141.9727   78.3093  221.0120 H   0  0  0  0  0  0  0  0  0  0  0  0
  140.9626   80.3653  223.0161 H   0  0  0  0  0  0  0  0  0  0  0  0
  141.6326   80.6519  221.3372 H   0  0  0  0  0  0  0  0  0  0  0  0
  139.3254   80.8917  221.2178 H   0  0  0  0  0  0  0  0  0  0  0  0
  139.7996   79.2744  220.4894 H   0  0  0  0  0  0  0  0  0  0  0  0
  138.9883   79.1627  223.3450 H   0  0  0  0  0  0  0  0  0  0  0  0
  137.6805   79.6160  222.2570 H   0  0  0  0  0  0  0  0  0  0  0  0
  138.5175   77.7375  220.6643 H   0  0  0  0  0  0  0  0  0  0  0  0
  137.5841   76.1135  221.2574 H   0  0  0  0  0  0  0  0  0  0  0  0
  136.1782   78.5844  222.6314 H   0  0  0  0  0  0  0  0  0  0  0  0
  136.4516   78.5297  220.8569 H   0  0  0  0  0  0  0  0  0  0  0  0
  134.1445   77.8242  221.3540 H   0  0  0  0  0  0  0  0  0  0  0  0
  135.0384   76.4298  220.7492 H   0  0  0  0  0  0  0  0  0  0  0  0
  135.5015   74.9813  223.9050 H   0  0  0  0  0  0  0  0  0  0  0  0
  135.7661   74.9272  222.1025 H   0  0  0  0  0  0  0  0  0  0  0  0
  137.1845   76.8230  224.0563 H   0  0  0  0  0  0  0  0  0  0  0  0
  137.9120   75.3793  223.3172 H   0  0  0  0  0  0  0  0  0  0  0  0
  139.1815   70.4415  221.9467 H   0  0  0  0  0  0  0  0  0  0  0  0
  139.1603   68.7301  223.7591 H   0  0  0  0  0  0  0  0  0  0  0  0
  139.6491   68.1178  226.0150 H   0  0  0  0  0  0  0  0  0  0  0  0
  141.4315   71.0258  228.6077 H   0  0  0  0  0  0  0  0  0  0  0  0
  141.4501   72.7255  226.8128 H   0  0  0  0  0  0  0  0  0  0  0  0
  1  2  2  0
  2  3  1  0
  3  4  1  0
  4  5  1  0
  5  6  2  0
  5  7  1  0
  7  8  1  0
  8  9  1  0
  9 10  1  0
 10 11  1  0
 11 12  1  0
 12 13  1  0
 13 14  1  0
 14 15  1  0
 15 16  1  0
 16 17  1  0
 17 18  1  0
 18 19  1  0
  2 20  1  0
 20 21  2  0
 21 22  1  0
 22 23  2  0
 23 24  1  0
 24 25  2  0
 25 26  1  0
 25 27  1  0
 27 28  2  0
 28 29  1  0
 29 30  2  0
 13  7  1  0
 19 14  1  0
 30 20  1  0
 29 23  1  0
  3 31  1  0
  4 32  1  0
  4 33  1  0
  8 34  1  0
  8 35  1  0
  9 36  1  0
  9 37  1  0
 10 38  1  0
 10 39  1  0
 11 40  1  0
 11 41  1  0
 12 42  1  0
 12 43  1  0
 13 44  1  6
 14 45  1  0
 15 46  1  0
 15 47  1  0
 16 48  1  0
 16 49  1  0
 18 50  1  0
 18 51  1  0
 19 52  1  0
 19 53  1  0
 21 54  1  0
 22 55  1  0
 24 56  1  0
 27 57  1  0
 28 58  1  0
M  END
>  <smiles>  (17) 
O=C(NCC(=O)N1CCCCCC1C1CCOCC1)c1ccc2cc(Cl)ccc2n1

>  <score_type>  (17) 
oracle

>  <origin>  (17) 
autodockgpu

>  <m_score__min__energy>  (17) 
-6.4400000000000004

>  <m_primary>  (17) 
energy

>  <rmsd>  (17) 
3.353138478876922

>  <m_score__min__rmsd>  (17) 
3.353138478876922

>  <meeko>  (17) 
{"free_energy": -5.5, "intermolecular_energy": -8.78, "internal_energy": -1.43, "cluster_size": 1, "cluster_id": 5, "rank_in_cluster": 1}

>  <energy>  (17) 
-5.82

>  <cluster_rmsd>  (17) 
1.1

>  <cluster>  (17) 
1

$$$$

     RDKit          3D

 58 61  0  0  0  0  0  0  0  0999 V2000
  140.5140   72.5400  220.9400 O   0  0  0  0  0  0  0  0  0  0  0  0
  139.9120   72.7260  222.0440 C   0  0  0  0  0  0  0  0  0  0  0  0
  139.1300   73.9180  222.1230 N   0  0  0  0  0  0  0  0  0  0  0  0
  139.1200   74.7620  220.9380 C   0  0  0  0  0  0  0  0  0  0  0  0
  140.4080   75.5080  220.9290 C   0  0  0  0  0  0  0  0  0  0  0  0
  140.9880   75.6200  222.0420 O   0  0  0  0  0  0  0  0  0  0  0  0
  140.9020   76.0370  219.7140 N   0  0  0  0  0  0  0  0  0  0  0  0
  140.4710   75.2730  218.5110 C   0  0  0  0  0  0  0  0  0  0  0  0
  141.4720   75.5560  217.3980 C   0  0  0  0  0  0  0  0  0  0  0  0
  142.8570   75.0670  217.7810 C   0  0  0  0  0  0  0  0  0  0  0  0
  143.1950   75.2780  219.2090 C   0  0  0  0  0  0  0  0  0  0  0  0
  143.2240   76.7450  219.6590 C   0  0  0  0  0  0  0  0  0  0  0  0
  141.7560   77.1730  219.6760 C   0  0  2  0  0  0  0  0  0  0  0  0
  141.4310   78.3890  220.4150 C   0  0  0  0  0  0  0  0  0  0  0  0
  141.8890   79.5670  219.5290 C   0  0  0  0  0  0  0  0  0  0  0  0
  141.2610   80.8490  220.0290 C   0  0  0  0  0  0  0  0  0  0  0  0
  141.8100   81.0440  221.3060 O   0  0  0  0  0  0  0  0  0  0  0  0
  141.3550   80.0680  222.1510 C   0  0  0  0  0  0  0  0  0  0  0  0
  141.8730   78.6570  221.7790 C   0  0  0  0  0  0  0  0  0  0  0  0
  140.0120   71.7900  223.1560 C   0  0  0  0  0  0  0  0  0  0  0  0
  139.5580   70.5040  222.9460 C   0  0  0  0  0  0  0  0  0  0  0  0
  139.6170   69.5470  223.9560 C   0  0  0  0  0  0  0  0  0  0  0  0
  140.1420   69.9080  225.1900 C   0  0  0  0  0  0  0  0  0  0  0  0
  140.2000   68.9640  226.1870 C   0  0  0  0  0  0  0  0  0  0  0  0
  140.7320   69.3470  227.4150 C   0  0  0  0  0  0  0  0  0  0  0  0
  140.8260   68.1790  228.7140 Cl  0  0  0  0  0  0  0  0  0  0  0  0
  141.1680   70.6350  227.5720 C   0  0  0  0  0  0  0  0  0  0  0  0
  141.1150   71.5940  226.5770 C   0  0  0  0  0  0  0  0  0  0  0  0
  140.5910   71.2160  225.3640 C   0  0  0  0  0  0  0  0  0  0  0  0
  140.5180   72.1190  224.3580 N   0  0  0  0  0  0  0  0  0  0  0  0
  138.6010   74.1510  222.9950 H   0  0  0  0  0  0  0  0  0  0  0  0
  139.0350   74.1426  220.0329 H   0  0  0  0  0  0  0  0  0  0  0  0
  138.2643   75.4530  220.9534 H   0  0  0  0  0  0  0  0  0  0  0  0
  140.4563   74.1965  218.7365 H   0  0  0  0  0  0  0  0  0  0  0  0
  139.4590   75.5764  218.2047 H   0  0  0  0  0  0  0  0  0  0  0  0
  141.1481   75.0403  216.4820 H   0  0  0  0  0  0  0  0  0  0  0  0
  141.5155   76.6424  217.2310 H   0  0  0  0  0  0  0  0  0  0  0  0
  142.9154   73.9896  217.5668 H   0  0  0  0  0  0  0  0  0  0  0  0
  143.5771   75.6543  217.1923 H   0  0  0  0  0  0  0  0  0  0  0  0
  142.4475   74.7489  219.8183 H   0  0  0  0  0  0  0  0  0  0  0  0
  144.2176   74.8953  219.3425 H   0  0  0  0  0  0  0  0  0  0  0  0
  143.6662   76.8347  220.6622 H   0  0  0  0  0  0  0  0  0  0  0  0
  143.8338   77.3734  218.9932 H   0  0  0  0  0  0  0  0  0  0  0  0
  141.5025   77.6291  218.7076 H   0  0  0  0  0  0  0  0  0  0  0  0
  140.3577   78.2405  220.6045 H   0  0  0  0  0  0  0  0  0  0  0  0
  142.9847   79.6542  219.5728 H   0  0  0  0  0  0  0  0  0  0  0  0
  141.5764   79.3870  218.4899 H   0  0  0  0  0  0  0  0  0  0  0  0
  141.5150   81.6891  219.3658 H   0  0  0  0  0  0  0  0  0  0  0  0
  140.1628   80.7907  220.0541 H   0  0  0  0  0  0  0  0  0  0  0  0
  141.6873   80.3056  223.1723 H   0  0  0  0  0  0  0  0  0  0  0  0
  140.2581   80.0479  222.0707 H   0  0  0  0  0  0  0  0  0  0  0  0
  142.9714   78.6311  221.8326 H   0  0  0  0  0  0  0  0  0  0  0  0
  141.4842   77.8989  222.4748 H   0  0  0  0  0  0  0  0  0  0  0  0
  139.1427   70.2303  221.9649 H   0  0  0  0  0  0  0  0  0  0  0  0
  139.2543   68.5236  223.7795 H   0  0  0  0  0  0  0  0  0  0  0  0
  139.8377   67.9389  226.0200 H   0  0  0  0  0  0  0  0  0  0  0  0
  141.5854   70.9245  228.5477 H   0  0  0  0  0  0  0  0  0  0  0  0
  141.4776   72.6181  226.7495 H   0  0  0  0  0  0  0  0  0  0  0  0
  1  2  2  0
  2  3  1  0
  3  4  1  0
  4  5  1  0
  5  6  2  0
  5  7  1  0
  7  8  1  0
  8  9  1  0
  9 10  1  0
 10 11  1  0
 11 12  1  0
 12 13  1  0
 13 14  1  0
 14 15  1  0
 15 16  1  0
 16 17  1  0
 17 18  1  0
 18 19  1  0
  2 20  1  0
 20 21  2  0
 21 22  1  0
 22 23  2  0
 23 24  1  0
 24 25  2  0
 25 26  1  0
 25 27  1  0
 27 28  2  0
 28 29  1  0
 29 30  2  0
 13  7  1  0
 19 14  1  0
 30 20  1  0
 29 23  1  0
  3 31  1  0
  4 32  1  0
  4 33  1  0
  8 34  1  0
  8 35  1  0
  9 36  1  0
  9 37  1  0
 10 38  1  0
 10 39  1  0
 11 40  1  0
 11 41  1  0
 12 42  1  0
 12 43  1  0
 13 44  1  6
 14 45  1  0
 15 46  1  0
 15 47  1  0
 16 48  1  0
 16 49  1  0
 18 50  1  0
 18 51  1  0
 19 52  1  0
 19 53  1  0
 21 54  1  0
 22 55  1  0
 24 56  1  0
 27 57  1  0
 28 58  1  0
M  END
>  <smiles>  (18) 
O=C(NCC(=O)N1CCCCCC1C1CCOCC1)c1ccc2cc(Cl)ccc2n1

>  <score_type>  (18) 
oracle

>  <origin>  (18) 
autodockgpu

>  <m_score__min__energy>  (18) 
-6.4400000000000004

>  <m_primary>  (18) 
energy

>  <rmsd>  (18) 
1.5267226072510955

>  <m_score__min__rmsd>  (18) 
1.5267226072510955

>  <meeko>  (18) 
{"free_energy": -5.65, "intermolecular_energy": -8.93, "internal_energy": -1.71, "cluster_size": 27, "cluster_id": 1, "rank_in_cluster": 22}

>  <energy>  (18) 
-5.8

>  <cluster_rmsd>  (18) 
0.7

>  <cluster>  (18) 
1

$$$$

     RDKit          3D

 58 61  0  0  0  0  0  0  0  0999 V2000
  140.6350   72.1470  220.9270 O   0  0  0  0  0  0  0  0  0  0  0  0
  140.2480   72.5450  222.0710 C   0  0  0  0  0  0  0  0  0  0  0  0
  139.8750   73.9210  222.1480 N   0  0  0  0  0  0  0  0  0  0  0  0
  139.9820   74.6870  220.9160 C   0  0  0  0  0  0  0  0  0  0  0  0
  140.9280   75.8040  221.1830 C   0  0  0  0  0  0  0  0  0  0  0  0
  140.8980   76.2840  222.3490 O   0  0  0  0  0  0  0  0  0  0  0  0
  141.7850   76.2570  220.1540 N   0  0  0  0  0  0  0  0  0  0  0  0
  141.7250   77.7280  219.9310 C   0  0  0  0  0  0  0  0  0  0  0  0
  141.5580   77.9630  218.4350 C   0  0  0  0  0  0  0  0  0  0  0  0
  142.8230   77.5870  217.6850 C   0  0  0  0  0  0  0  0  0  0  0  0
  142.8090   76.2100  217.1360 C   0  0  0  0  0  0  0  0  0  0  0  0
  142.0320   75.1940  217.9850 C   0  0  0  0  0  0  0  0  0  0  0  0
  142.5940   75.3670  219.3970 C   0  0  2  0  0  0  0  0  0  0  0  0
  143.2070   74.1940  220.0120 C   0  0  0  0  0  0  0  0  0  0  0  0
  144.7130   74.5100  220.1380 C   0  0  0  0  0  0  0  0  0  0  0  0
  145.3570   73.5290  221.0920 C   0  0  0  0  0  0  0  0  0  0  0  0
  145.2410   72.2820  220.4590 O   0  0  0  0  0  0  0  0  0  0  0  0
  143.9230   71.9190  220.4070 C   0  0  0  0  0  0  0  0  0  0  0  0
  143.0790   72.8370  219.4890 C   0  0  0  0  0  0  0  0  0  0  0  0
  140.1910   71.6600  223.2270 C   0  0  0  0  0  0  0  0  0  0  0  0
  139.6250   70.4150  223.0470 C   0  0  0  0  0  0  0  0  0  0  0  0
  139.5300   69.5080  224.0990 C   0  0  0  0  0  0  0  0  0  0  0  0
  140.0160   69.8780  225.3460 C   0  0  0  0  0  0  0  0  0  0  0  0
  139.9230   68.9850  226.3860 C   0  0  0  0  0  0  0  0  0  0  0  0
  140.4180   69.3760  227.6270 C   0  0  0  0  0  0  0  0  0  0  0  0
  140.3200   68.2710  228.9790 Cl  0  0  0  0  0  0  0  0  0  0  0  0
  140.9690   70.6230  227.7530 C   0  0  0  0  0  0  0  0  0  0  0  0
  141.0690   71.5310  226.7150 C   0  0  0  0  0  0  0  0  0  0  0  0
  140.5820   71.1450  225.4900 C   0  0  0  0  0  0  0  0  0  0  0  0
  140.6560   71.9990  224.4430 N   0  0  0  0  0  0  0  0  0  0  0  0
  139.5440   74.3330  223.0510 H   0  0  0  0  0  0  0  0  0  0  0  0
  140.3677   74.0498  220.1066 H   0  0  0  0  0  0  0  0  0  0  0  0
  138.9992   75.0694  220.6032 H   0  0  0  0  0  0  0  0  0  0  0  0
  140.8696   78.1549  220.4751 H   0  0  0  0  0  0  0  0  0  0  0  0
  142.6431   78.2110  220.2968 H   0  0  0  0  0  0  0  0  0  0  0  0
  140.7235   77.3494  218.0647 H   0  0  0  0  0  0  0  0  0  0  0  0
  141.3529   79.0306  218.2669 H   0  0  0  0  0  0  0  0  0  0  0  0
  142.9530   78.2914  216.8502 H   0  0  0  0  0  0  0  0  0  0  0  0
  143.6495   77.6335  218.4094 H   0  0  0  0  0  0  0  0  0  0  0  0
  142.3516   76.2434  216.1361 H   0  0  0  0  0  0  0  0  0  0  0  0
  143.8547   75.8692  217.1195 H   0  0  0  0  0  0  0  0  0  0  0  0
  140.9544   75.4141  217.9656 H   0  0  0  0  0  0  0  0  0  0  0  0
  142.1439   74.1649  217.6130 H   0  0  0  0  0  0  0  0  0  0  0  0
  143.5515   75.9055  219.3397 H   0  0  0  0  0  0  0  0  0  0  0  0
  142.5974   74.0911  220.9218 H   0  0  0  0  0  0  0  0  0  0  0  0
  145.1889   74.4264  219.1498 H   0  0  0  0  0  0  0  0  0  0  0  0
  144.8417   75.5327  220.5222 H   0  0  0  0  0  0  0  0  0  0  0  0
  146.4147   73.7840  221.2540 H   0  0  0  0  0  0  0  0  0  0  0  0
  144.8772   73.5376  222.0818 H   0  0  0  0  0  0  0  0  0  0  0  0
  143.8578   70.8885  220.0278 H   0  0  0  0  0  0  0  0  0  0  0  0
  143.5165   72.0081  221.4252 H   0  0  0  0  0  0  0  0  0  0  0  0
  143.4582   72.7920  218.4574 H   0  0  0  0  0  0  0  0  0  0  0  0
  142.0262   72.5185  219.4747 H   0  0  0  0  0  0  0  0  0  0  0  0
  139.2420   70.1339  222.0549 H   0  0  0  0  0  0  0  0  0  0  0  0
  139.0784   68.5168  223.9452 H   0  0  0  0  0  0  0  0  0  0  0  0
  139.4716   67.9922  226.2426 H   0  0  0  0  0  0  0  0  0  0  0  0
  141.3553   70.9204  228.7391 H   0  0  0  0  0  0  0  0  0  0  0  0
  141.5205   72.5229  226.8643 H   0  0  0  0  0  0  0  0  0  0  0  0
  1  2  2  0
  2  3  1  0
  3  4  1  0
  4  5  1  0
  5  6  2  0
  5  7  1  0
  7  8  1  0
  8  9  1  0
  9 10  1  0
 10 11  1  0
 11 12  1  0
 12 13  1  0
 13 14  1  0
 14 15  1  0
 15 16  1  0
 16 17  1  0
 17 18  1  0
 18 19  1  0
  2 20  1  0
 20 21  2  0
 21 22  1  0
 22 23  2  0
 23 24  1  0
 24 25  2  0
 25 26  1  0
 25 27  1  0
 27 28  2  0
 28 29  1  0
 29 30  2  0
 13  7  1  0
 19 14  1  0
 30 20  1  0
 29 23  1  0
  3 31  1  0
  4 32  1  0
  4 33  1  0
  8 34  1  0
  8 35  1  0
  9 36  1  0
  9 37  1  0
 10 38  1  0
 10 39  1  0
 11 40  1  0
 11 41  1  0
 12 42  1  0
 12 43  1  0
 13 44  1  6
 14 45  1  0
 15 46  1  0
 15 47  1  0
 16 48  1  0
 16 49  1  0
 18 50  1  0
 18 51  1  0
 19 52  1  0
 19 53  1  0
 21 54  1  0
 22 55  1  0
 24 56  1  0
 27 57  1  0
 28 58  1  0
M  END
>  <smiles>  (19) 
O=C(NCC(=O)N1CCCCCC1C1CCOCC1)c1ccc2cc(Cl)ccc2n1

>  <score_type>  (19) 
oracle

>  <origin>  (19) 
autodockgpu

>  <m_score__min__energy>  (19) 
-6.4400000000000004

>  <m_primary>  (19) 
energy

>  <rmsd>  (19) 
2.254759417529094

>  <m_score__min__rmsd>  (19) 
2.254759417529094

>  <meeko>  (19) 
{"free_energy": -5.66, "intermolecular_energy": -8.94, "internal_energy": -2.21, "cluster_size": 12, "cluster_id": 2, "rank_in_cluster": 4}

>  <energy>  (19) 
-5.78

>  <cluster_rmsd>  (19) 
0.7

>  <cluster>  (19) 
1

$$$$

     RDKit          3D

 58 61  0  0  0  0  0  0  0  0999 V2000
  139.8440   72.1110  220.6950 O   0  0  0  0  0  0  0  0  0  0  0  0
  139.6550   72.4900  221.8940 C   0  0  0  0  0  0  0  0  0  0  0  0
  139.2710   73.8560  222.0510 N   0  0  0  0  0  0  0  0  0  0  0  0
  139.1440   74.6350  220.8300 C   0  0  0  0  0  0  0  0  0  0  0  0
  140.2840   75.5930  220.8080 C   0  0  0  0  0  0  0  0  0  0  0  0
  140.5160   76.1960  221.8910 O   0  0  0  0  0  0  0  0  0  0  0  0
  141.0240   75.7740  219.6170 N   0  0  0  0  0  0  0  0  0  0  0  0
  141.2690   74.5110  218.8690 C   0  0  0  0  0  0  0  0  0  0  0  0
  142.4600   73.8130  219.5110 C   0  0  0  0  0  0  0  0  0  0  0  0
  143.7370   74.6020  219.2790 C   0  0  0  0  0  0  0  0  0  0  0  0
  143.6500   76.0220  219.6960 C   0  0  0  0  0  0  0  0  0  0  0  0
  142.9400   76.9440  218.6920 C   0  0  0  0  0  0  0  0  0  0  0  0
  141.5060   77.0480  219.2130 C   0  0  2  0  0  0  0  0  0  0  0  0
  141.1590   78.2580  219.9530 C   0  0  0  0  0  0  0  0  0  0  0  0
  139.6490   78.4840  219.7250 C   0  0  0  0  0  0  0  0  0  0  0  0
  139.1280   79.4770  220.7410 C   0  0  0  0  0  0  0  0  0  0  0  0
  139.7850   80.6800  220.4380 O   0  0  0  0  0  0  0  0  0  0  0  0
  141.1190   80.5510  220.7130 C   0  0  0  0  0  0  0  0  0  0  0  0
  141.8340   79.5400  219.7830 C   0  0  0  0  0  0  0  0  0  0  0  0
  139.8190   71.5950  223.0310 C   0  0  0  0  0  0  0  0  0  0  0  0
  139.4050   70.2880  222.8760 C   0  0  0  0  0  0  0  0  0  0  0  0
  139.5250   69.3670  223.9140 C   0  0  0  0  0  0  0  0  0  0  0  0
  140.0730   69.7860  225.1190 C   0  0  0  0  0  0  0  0  0  0  0  0
  140.1930   68.8780  226.1440 C   0  0  0  0  0  0  0  0  0  0  0  0
  140.7450   69.3190  227.3430 C   0  0  0  0  0  0  0  0  0  0  0  0
  140.9170   68.1980  228.6750 Cl  0  0  0  0  0  0  0  0  0  0  0  0
  141.1400   70.6260  227.4450 C   0  0  0  0  0  0  0  0  0  0  0  0
  141.0250   71.5490  226.4220 C   0  0  0  0  0  0  0  0  0  0  0  0
  140.4810   71.1140  225.2390 C   0  0  0  0  0  0  0  0  0  0  0  0
  140.3470   71.9800  224.2070 N   0  0  0  0  0  0  0  0  0  0  0  0
  139.0940   74.2530  223.0030 H   0  0  0  0  0  0  0  0  0  0  0  0
  139.1890   73.9731  219.9525 H   0  0  0  0  0  0  0  0  0  0  0  0
  138.1817   75.1671  220.8006 H   0  0  0  0  0  0  0  0  0  0  0  0
  140.3810   73.8642  218.9259 H   0  0  0  0  0  0  0  0  0  0  0  0
  141.4747   74.7256  217.8099 H   0  0  0  0  0  0  0  0  0  0  0  0
  142.2841   73.7215  220.5930 H   0  0  0  0  0  0  0  0  0  0  0  0
  142.5728   72.8179  219.0559 H   0  0  0  0  0  0  0  0  0  0  0  0
  144.5480   74.1232  219.8474 H   0  0  0  0  0  0  0  0  0  0  0  0
  143.9219   74.5984  218.1947 H   0  0  0  0  0  0  0  0  0  0  0  0
  143.1020   76.0663  220.6487 H   0  0  0  0  0  0  0  0  0  0  0  0
  144.6848   76.3866  219.7745 H   0  0  0  0  0  0  0  0  0  0  0  0
  143.4178   77.9345  218.6690 H   0  0  0  0  0  0  0  0  0  0  0  0
  142.9837   76.5546  217.6642 H   0  0  0  0  0  0  0  0  0  0  0  0
  140.8366   77.3003  218.3774 H   0  0  0  0  0  0  0  0  0  0  0  0
  141.5216   78.0015  220.9594 H   0  0  0  0  0  0  0  0  0  0  0  0
  139.4863   78.8777  218.7108 H   0  0  0  0  0  0  0  0  0  0  0  0
  139.1144   77.5293  219.8382 H   0  0  0  0  0  0  0  0  0  0  0  0
  138.0388   79.5954  220.6435 H   0  0  0  0  0  0  0  0  0  0  0  0
  139.3164   79.1505  221.7744 H   0  0  0  0  0  0  0  0  0  0  0  0
  141.5977   81.5344  220.5956 H   0  0  0  0  0  0  0  0  0  0  0  0
  141.2075   80.1712  221.7415 H   0  0  0  0  0  0  0  0  0  0  0  0
  141.7600   79.8707  218.7365 H   0  0  0  0  0  0  0  0  0  0  0  0
  142.9017   79.4596  220.0352 H   0  0  0  0  0  0  0  0  0  0  0  0
  138.9728   69.9679  221.9164 H   0  0  0  0  0  0  0  0  0  0  0  0
  139.1918   68.3271  223.7816 H   0  0  0  0  0  0  0  0  0  0  0  0
  139.8632   67.8359  226.0205 H   0  0  0  0  0  0  0  0  0  0  0  0
  141.5749   70.9618  228.3979 H   0  0  0  0  0  0  0  0  0  0  0  0
  141.3561   72.5901  226.5508 H   0  0  0  0  0  0  0  0  0  0  0  0
  1  2  2  0
  2  3  1  0
  3  4  1  0
  4  5  1  0
  5  6  2  0
  5  7  1  0
  7  8  1  0
  8  9  1  0
  9 10  1  0
 10 11  1  0
 11 12  1  0
 12 13  1  0
 13 14  1  0
 14 15  1  0
 15 16  1  0
 16 17  1  0
 17 18  1  0
 18 19  1  0
  2 20  1  0
 20 21  2  0
 21 22  1  0
 22 23  2  0
 23 24  1  0
 24 25  2  0
 25 26  1  0
 25 27  1  0
 27 28  2  0
 28 29  1  0
 29 30  2  0
 13  7  1  0
 19 14  1  0
 30 20  1  0
 29 23  1  0
  3 31  1  0
  4 32  1  0
  4 33  1  0
  8 34  1  0
  8 35  1  0
  9 36  1  0
  9 37  1  0
 10 38  1  0
 10 39  1  0
 11 40  1  0
 11 41  1  0
 12 42  1  0
 12 43  1  0
 13 44  1  6
 14 45  1  0
 15 46  1  0
 15 47  1  0
 16 48  1  0
 16 49  1  0
 18 50  1  0
 18 51  1  0
 19 52  1  0
 19 53  1  0
 21 54  1  0
 22 55  1  0
 24 56  1  0
 27 57  1  0
 28 58  1  0
M  END
>  <smiles>  (20) 
O=C(NCC(=O)N1CCCCCC1C1CCOCC1)c1ccc2cc(Cl)ccc2n1

>  <score_type>  (20) 
oracle

>  <origin>  (20) 
autodockgpu

>  <m_score__min__energy>  (20) 
-6.4400000000000004

>  <m_primary>  (20) 
energy

>  <rmsd>  (20) 
1.8020015577814037

>  <m_score__min__rmsd>  (20) 
1.8020015577814037

>  <meeko>  (20) 
{"free_energy": -5.52, "intermolecular_energy": -8.8, "internal_energy": -1.88, "cluster_size": 27, "cluster_id": 1, "rank_in_cluster": 25}

>  <energy>  (20) 
-5.75

>  <cluster_rmsd>  (20) 
1.12

>  <cluster>  (20) 
1

$$$$

     RDKit          3D

 58 61  0  0  0  0  0  0  0  0999 V2000
  139.6960   75.5270  220.2990 O   0  0  0  0  0  0  0  0  0  0  0  0
  140.8330   75.5120  220.8690 C   0  0  0  0  0  0  0  0  0  0  0  0
  140.9940   76.4440  221.9380 N   0  0  0  0  0  0  0  0  0  0  0  0
  139.8460   77.2850  222.2390 C   0  0  0  0  0  0  0  0  0  0  0  0
  140.3790   78.5790  222.7460 C   0  0  0  0  0  0  0  0  0  0  0  0
  139.7910   79.0600  223.7520 O   0  0  0  0  0  0  0  0  0  0  0  0
  141.4790   79.1850  222.0970 N   0  0  0  0  0  0  0  0  0  0  0  0
  142.6670   79.3640  222.9770 C   0  0  0  0  0  0  0  0  0  0  0  0
  142.7380   80.8350  223.3680 C   0  0  0  0  0  0  0  0  0  0  0  0
  141.4810   81.5690  222.9360 C   0  0  0  0  0  0  0  0  0  0  0  0
  141.4500   81.9100  221.4940 C   0  0  0  0  0  0  0  0  0  0  0  0
  140.6620   80.9290  220.6180 C   0  0  0  0  0  0  0  0  0  0  0  0
  141.4200   79.6050  220.7410 C   0  0  2  0  0  0  0  0  0  0  0  0
  141.2460   78.6420  219.6580 C   0  0  0  0  0  0  0  0  0  0  0  0
  142.3220   78.9810  218.6040 C   0  0  0  0  0  0  0  0  0  0  0  0
  142.4670   77.8230  217.6400 C   0  0  0  0  0  0  0  0  0  0  0  0
  141.2330   77.7530  216.9750 O   0  0  0  0  0  0  0  0  0  0  0  0
  140.2610   77.3660  217.8570 C   0  0  0  0  0  0  0  0  0  0  0  0
  139.9860   78.4230  218.9550 C   0  0  0  0  0  0  0  0  0  0  0  0
  141.9000   74.6090  220.4600 C   0  0  0  0  0  0  0  0  0  0  0  0
  143.1180   75.1710  220.1350 C   0  0  0  0  0  0  0  0  0  0  0  0
  144.1910   74.3800  219.7340 C   0  0  0  0  0  0  0  0  0  0  0  0
  144.0180   73.0040  219.6640 C   0  0  0  0  0  0  0  0  0  0  0  0
  145.0760   72.2210  219.2680 C   0  0  0  0  0  0  0  0  0  0  0  0
  144.8810   70.8450  219.2060 C   0  0  0  0  0  0  0  0  0  0  0  0
  146.2000   69.8100  218.7070 Cl  0  0  0  0  0  0  0  0  0  0  0  0
  143.6530   70.3380  219.5380 C   0  0  0  0  0  0  0  0  0  0  0  0
  142.5810   71.1140  219.9380 C   0  0  0  0  0  0  0  0  0  0  0  0
  142.7730   72.4720  220.0000 C   0  0  0  0  0  0  0  0  0  0  0  0
  141.7530   73.2740  220.3860 N   0  0  0  0  0  0  0  0  0  0  0  0
  141.8970   76.5000  222.4640 H   0  0  0  0  0  0  0  0  0  0  0  0
  139.2503   77.4516  221.3294 H   0  0  0  0  0  0  0  0  0  0  0  0
  139.1937   76.8083  222.9855 H   0  0  0  0  0  0  0  0  0  0  0  0
  142.5627   78.7417  223.8780 H   0  0  0  0  0  0  0  0  0  0  0  0
  143.5845   79.0609  222.4512 H   0  0  0  0  0  0  0  0  0  0  0  0
  142.8439   80.9132  224.4601 H   0  0  0  0  0  0  0  0  0  0  0  0
  143.6034   81.2920  222.8657 H   0  0  0  0  0  0  0  0  0  0  0  0
  140.6133   80.9310  223.1597 H   0  0  0  0  0  0  0  0  0  0  0  0
  141.4603   82.5195  223.4893 H   0  0  0  0  0  0  0  0  0  0  0  0
  140.9946   82.9056  221.3876 H   0  0  0  0  0  0  0  0  0  0  0  0
  142.4920   81.8696  221.1438 H   0  0  0  0  0  0  0  0  0  0  0  0
  139.6311   80.8217  220.9863 H   0  0  0  0  0  0  0  0  0  0  0  0
  140.5859   81.2702  219.5750 H   0  0  0  0  0  0  0  0  0  0  0  0
  142.4794   79.7721  220.4968 H   0  0  0  0  0  0  0  0  0  0  0  0
  141.3076   77.6917  220.2085 H   0  0  0  0  0  0  0  0  0  0  0  0
  142.0219   79.8832  218.0508 H   0  0  0  0  0  0  0  0  0  0  0  0
  143.2835   79.1619  219.1068 H   0  0  0  0  0  0  0  0  0  0  0  0
  143.2817   78.0131  216.9258 H   0  0  0  0  0  0  0  0  0  0  0  0
  142.7150   76.8830  218.1547 H   0  0  0  0  0  0  0  0  0  0  0  0
  139.3300   77.1905  217.2981 H   0  0  0  0  0  0  0  0  0  0  0  0
  140.6160   76.4540  218.3592 H   0  0  0  0  0  0  0  0  0  0  0  0
  139.6397   79.3618  218.4980 H   0  0  0  0  0  0  0  0  0  0  0  0
  139.2040   78.0773  219.6471 H   0  0  0  0  0  0  0  0  0  0  0  0
  143.2429   76.2623  220.1938 H   0  0  0  0  0  0  0  0  0  0  0  0
  145.1582   74.8366  219.4773 H   0  0  0  0  0  0  0  0  0  0  0  0
  146.0467   72.6685  219.0082 H   0  0  0  0  0  0  0  0  0  0  0  0
  143.5111   69.2486  219.4832 H   0  0  0  0  0  0  0  0  0  0  0  0
  141.6124   70.6612  220.1964 H   0  0  0  0  0  0  0  0  0  0  0  0
  1  2  2  0
  2  3  1  0
  3  4  1  0
  4  5  1  0
  5  6  2  0
  5  7  1  0
  7  8  1  0
  8  9  1  0
  9 10  1  0
 10 11  1  0
 11 12  1  0
 12 13  1  0
 13 14  1  0
 14 15  1  0
 15 16  1  0
 16 17  1  0
 17 18  1  0
 18 19  1  0
  2 20  1  0
 20 21  2  0
 21 22  1  0
 22 23  2  0
 23 24  1  0
 24 25  2  0
 25 26  1  0
 25 27  1  0
 27 28  2  0
 28 29  1  0
 29 30  2  0
 13  7  1  0
 19 14  1  0
 30 20  1  0
 29 23  1  0
  3 31  1  0
  4 32  1  0
  4 33  1  0
  8 34  1  0
  8 35  1  0
  9 36  1  0
  9 37  1  0
 10 38  1  0
 10 39  1  0
 11 40  1  0
 11 41  1  0
 12 42  1  0
 12 43  1  0
 13 44  1  6
 14 45  1  0
 15 46  1  0
 15 47  1  0
 16 48  1  0
 16 49  1  0
 18 50  1  0
 18 51  1  0
 19 52  1  0
 19 53  1  0
 21 54  1  0
 22 55  1  0
 24 56  1  0
 27 57  1  0
 28 58  1  0
M  END
>  <smiles>  (21) 
O=C(NCC(=O)N1CCCCCC1C1CCOCC1)c1ccc2cc(Cl)ccc2n1

>  <score_type>  (21) 
oracle

>  <origin>  (21) 
autodockgpu

>  <m_score__min__energy>  (21) 
-6.4400000000000004

>  <m_primary>  (21) 
energy

>  <rmsd>  (21) 
6.9000251311488965

>  <m_score__min__rmsd>  (21) 
6.9000251311488965

>  <meeko>  (21) 
{"free_energy": -4.39, "intermolecular_energy": -7.67, "internal_energy": -2.22, "cluster_size": 3, "cluster_id": 7, "rank_in_cluster": 3}

>  <energy>  (21) 
-5.73

>  <cluster_rmsd>  (21) 
1.4

>  <cluster>  (21) 
1

$$$$

     RDKit          3D

 58 61  0  0  0  0  0  0  0  0999 V2000
  140.4100   72.4800  220.8790 O   0  0  0  0  0  0  0  0  0  0  0  0
  140.0310   72.7970  222.0510 C   0  0  0  0  0  0  0  0  0  0  0  0
  139.5840   74.1440  222.2060 N   0  0  0  0  0  0  0  0  0  0  0  0
  139.6170   74.9760  221.0140 C   0  0  0  0  0  0  0  0  0  0  0  0
  139.2830   76.3610  221.4450 C   0  0  0  0  0  0  0  0  0  0  0  0
  138.7830   76.4740  222.5970 O   0  0  0  0  0  0  0  0  0  0  0  0
  139.5330   77.4450  220.5720 N   0  0  0  0  0  0  0  0  0  0  0  0
  138.4770   77.6380  219.5410 C   0  0  0  0  0  0  0  0  0  0  0  0
  139.1530   78.1340  218.2700 C   0  0  0  0  0  0  0  0  0  0  0  0
  140.3690   77.2860  217.9410 C   0  0  0  0  0  0  0  0  0  0  0  0
  141.6430   77.8320  218.4690 C   0  0  0  0  0  0  0  0  0  0  0  0
  141.8810   77.5600  219.9640 C   0  0  0  0  0  0  0  0  0  0  0  0
  140.7070   78.2400  220.6710 C   0  0  2  0  0  0  0  0  0  0  0  0
  141.0130   78.9900  221.8850 C   0  0  0  0  0  0  0  0  0  0  0  0
  142.0490   80.0610  221.4800 C   0  0  0  0  0  0  0  0  0  0  0  0
  142.1390   81.1110  222.5650 C   0  0  0  0  0  0  0  0  0  0  0  0
  142.6500   80.4320  223.6820 O   0  0  0  0  0  0  0  0  0  0  0  0
  141.7230   79.5320  224.1310 C   0  0  0  0  0  0  0  0  0  0  0  0
  141.4660   78.3780  223.1300 C   0  0  0  0  0  0  0  0  0  0  0  0
  140.0520   71.8540  223.1610 C   0  0  0  0  0  0  0  0  0  0  0  0
  139.5650   70.5840  222.9260 C   0  0  0  0  0  0  0  0  0  0  0  0
  139.5480   69.6220  223.9320 C   0  0  0  0  0  0  0  0  0  0  0  0
  140.0320   69.9610  225.1890 C   0  0  0  0  0  0  0  0  0  0  0  0
  140.0160   69.0120  226.1830 C   0  0  0  0  0  0  0  0  0  0  0  0
  140.5060   69.3720  227.4340 C   0  0  0  0  0  0  0  0  0  0  0  0
  140.5060   68.1970  228.7300 Cl  0  0  0  0  0  0  0  0  0  0  0  0
  140.9780   70.6450  227.6160 C   0  0  0  0  0  0  0  0  0  0  0  0
  141.0000   71.6080  226.6250 C   0  0  0  0  0  0  0  0  0  0  0  0
  140.5160   71.2530  225.3890 C   0  0  0  0  0  0  0  0  0  0  0  0
  140.5170   72.1620  224.3860 N   0  0  0  0  0  0  0  0  0  0  0  0
  139.2530   74.4910  223.1370 H   0  0  0  0  0  0  0  0  0  0  0  0
  140.6200   74.9515  220.5631 H   0  0  0  0  0  0  0  0  0  0  0  0
  138.9014   74.6143  220.2610 H   0  0  0  0  0  0  0  0  0  0  0  0
  137.9662   76.6837  219.3452 H   0  0  0  0  0  0  0  0  0  0  0  0
  137.7295   78.3665  219.8882 H   0  0  0  0  0  0  0  0  0  0  0  0
  138.4381   78.0786  217.4359 H   0  0  0  0  0  0  0  0  0  0  0  0
  139.4789   79.1730  218.4259 H   0  0  0  0  0  0  0  0  0  0  0  0
  140.2182   76.2837  218.3683 H   0  0  0  0  0  0  0  0  0  0  0  0
  140.4590   77.2685  216.8448 H   0  0  0  0  0  0  0  0  0  0  0  0
  142.4712   77.3823  217.9016 H   0  0  0  0  0  0  0  0  0  0  0  0
  141.5873   78.9246  218.3542 H   0  0  0  0  0  0  0  0  0  0  0  0
  141.8829   76.4788  220.1666 H   0  0  0  0  0  0  0  0  0  0  0  0
  142.8534   77.9420  220.3081 H   0  0  0  0  0  0  0  0  0  0  0  0
  140.4273   79.1472  220.1154 H   0  0  0  0  0  0  0  0  0  0  0  0
  140.0063   79.3027  222.1994 H   0  0  0  0  0  0  0  0  0  0  0  0
  143.0327   79.5873  221.3456 H   0  0  0  0  0  0  0  0  0  0  0  0
  141.7379   80.5340  220.5369 H   0  0  0  0  0  0  0  0  0  0  0  0
  142.8163   81.9233  222.2625 H   0  0  0  0  0  0  0  0  0  0  0  0
  141.1643   81.5765  222.7731 H   0  0  0  0  0  0  0  0  0  0  0  0
  142.0820   79.1016  225.0775 H   0  0  0  0  0  0  0  0  0  0  0  0
  140.7742   80.0733  224.2600 H   0  0  0  0  0  0  0  0  0  0  0  0
  142.3938   77.8127  222.9580 H   0  0  0  0  0  0  0  0  0  0  0  0
  140.7134   77.6776  223.5212 H   0  0  0  0  0  0  0  0  0  0  0  0
  139.1838   70.3277  221.9265 H   0  0  0  0  0  0  0  0  0  0  0  0
  139.1586   68.6123  223.7352 H   0  0  0  0  0  0  0  0  0  0  0  0
  139.6281   68.0000  225.9952 H   0  0  0  0  0  0  0  0  0  0  0  0
  141.3624   70.9169  228.6101 H   0  0  0  0  0  0  0  0  0  0  0  0
  141.3895   72.6185  226.8180 H   0  0  0  0  0  0  0  0  0  0  0  0
  1  2  2  0
  2  3  1  0
  3  4  1  0
  4  5  1  0
  5  6  2  0
  5  7  1  0
  7  8  1  0
  8  9  1  0
  9 10  1  0
 10 11  1  0
 11 12  1  0
 12 13  1  0
 13 14  1  0
 14 15  1  0
 15 16  1  0
 16 17  1  0
 17 18  1  0
 18 19  1  0
  2 20  1  0
 20 21  2  0
 21 22  1  0
 22 23  2  0
 23 24  1  0
 24 25  2  0
 25 26  1  0
 25 27  1  0
 27 28  2  0
 28 29  1  0
 29 30  2  0
 13  7  1  0
 19 14  1  0
 30 20  1  0
 29 23  1  0
  3 31  1  0
  4 32  1  0
  4 33  1  0
  8 34  1  0
  8 35  1  0
  9 36  1  0
  9 37  1  0
 10 38  1  0
 10 39  1  0
 11 40  1  0
 11 41  1  0
 12 42  1  0
 12 43  1  0
 13 44  1  6
 14 45  1  0
 15 46  1  0
 15 47  1  0
 16 48  1  0
 16 49  1  0
 18 50  1  0
 18 51  1  0
 19 52  1  0
 19 53  1  0
 21 54  1  0
 22 55  1  0
 24 56  1  0
 27 57  1  0
 28 58  1  0
M  END
>  <smiles>  (22) 
O=C(NCC(=O)N1CCCCCC1C1CCOCC1)c1ccc2cc(Cl)ccc2n1

>  <score_type>  (22) 
oracle

>  <origin>  (22) 
autodockgpu

>  <m_score__min__energy>  (22) 
-6.4400000000000004

>  <m_primary>  (22) 
energy

>  <rmsd>  (22) 
1.990318165647122

>  <m_score__min__rmsd>  (22) 
1.990318165647122

>  <meeko>  (22) 
{"free_energy": -5.75, "intermolecular_energy": -9.03, "internal_energy": -2.15, "cluster_size": 27, "cluster_id": 1, "rank_in_cluster": 20}

>  <energy>  (22) 
-5.65

>  <cluster_rmsd>  (22) 
1.6

>  <cluster>  (22) 
1

$$$$

     RDKit          3D

 58 61  0  0  0  0  0  0  0  0999 V2000
  141.4950   72.9310  220.2930 O   0  0  0  0  0  0  0  0  0  0  0  0
  141.0270   73.6690  221.2170 C   0  0  0  0  0  0  0  0  0  0  0  0
  140.3680   72.9780  222.2780 N   0  0  0  0  0  0  0  0  0  0  0  0
  140.3170   71.5290  222.1690 C   0  0  0  0  0  0  0  0  0  0  0  0
  140.0020   71.0050  223.5270 C   0  0  0  0  0  0  0  0  0  0  0  0
  140.3290   71.7460  224.4920 O   0  0  0  0  0  0  0  0  0  0  0  0
  139.3740   69.7450  223.6630 N   0  0  0  0  0  0  0  0  0  0  0  0
  138.9360   69.1530  222.3700 C   0  0  0  0  0  0  0  0  0  0  0  0
  137.4460   68.8560  222.4760 C   0  0  0  0  0  0  0  0  0  0  0  0
  136.7070   70.0240  223.1040 C   0  0  0  0  0  0  0  0  0  0  0  0
  137.0490   70.2550  224.5280 C   0  0  0  0  0  0  0  0  0  0  0  0
  137.6680   69.0470  225.2440 C   0  0  0  0  0  0  0  0  0  0  0  0
  139.1630   69.1390  224.9310 C   0  0  2  0  0  0  0  0  0  0  0  0
  140.0570   69.4040  226.0540 C   0  0  0  0  0  0  0  0  0  0  0  0
  140.0100   68.1450  226.9480 C   0  0  0  0  0  0  0  0  0  0  0  0
  141.1730   68.1700  227.9150 C   0  0  0  0  0  0  0  0  0  0  0  0
  140.9310   69.2800  228.7390 O   0  0  0  0  0  0  0  0  0  0  0  0
  141.0530   70.4280  228.0040 C   0  0  0  0  0  0  0  0  0  0  0  0
  139.9530   70.5720  226.9230 C   0  0  0  0  0  0  0  0  0  0  0  0
  141.1510   75.1200  221.1960 C   0  0  0  0  0  0  0  0  0  0  0  0
  141.8240   75.6860  220.1320 C   0  0  0  0  0  0  0  0  0  0  0  0
  141.9890   77.0650  220.0360 C   0  0  0  0  0  0  0  0  0  0  0  0
  141.4620   77.8720  221.0350 C   0  0  0  0  0  0  0  0  0  0  0  0
  141.6240   79.2340  220.9410 C   0  0  0  0  0  0  0  0  0  0  0  0
  141.0870   80.0240  221.9530 C   0  0  0  0  0  0  0  0  0  0  0  0
  141.2690   81.7630  221.8750 Cl  0  0  0  0  0  0  0  0  0  0  0  0
  140.4290   79.4140  222.9870 C   0  0  0  0  0  0  0  0  0  0  0  0
  140.2590   78.0460  223.0930 C   0  0  0  0  0  0  0  0  0  0  0  0
  140.7880   77.2660  222.0940 C   0  0  0  0  0  0  0  0  0  0  0  0
  140.6480   75.9200  222.1540 N   0  0  0  0  0  0  0  0  0  0  0  0
  139.9530   73.5060  223.0800 H   0  0  0  0  0  0  0  0  0  0  0  0
  139.5335   71.2304  221.4570 H   0  0  0  0  0  0  0  0  0  0  0  0
  141.2736   71.1273  221.8036 H   0  0  0  0  0  0  0  0  0  0  0  0
  139.1185   69.8648  221.5514 H   0  0  0  0  0  0  0  0  0  0  0  0
  139.4979   68.2311  222.1591 H   0  0  0  0  0  0  0  0  0  0  0  0
  137.0422   68.6730  221.4693 H   0  0  0  0  0  0  0  0  0  0  0  0
  137.3076   67.9686  223.1111 H   0  0  0  0  0  0  0  0  0  0  0  0
  136.9519   70.9342  222.5369 H   0  0  0  0  0  0  0  0  0  0  0  0
  135.6350   69.7801  223.0684 H   0  0  0  0  0  0  0  0  0  0  0  0
  137.7669   71.0870  224.5772 H   0  0  0  0  0  0  0  0  0  0  0  0
  136.1014   70.4692  225.0438 H   0  0  0  0  0  0  0  0  0  0  0  0
  137.4937   69.1068  226.3285 H   0  0  0  0  0  0  0  0  0  0  0  0
  137.2295   68.0946  224.9115 H   0  0  0  0  0  0  0  0  0  0  0  0
  139.5627   68.1254  224.7799 H   0  0  0  0  0  0  0  0  0  0  0  0
  140.9878   69.6598  225.5265 H   0  0  0  0  0  0  0  0  0  0  0  0
  139.0651   68.1301  227.5111 H   0  0  0  0  0  0  0  0  0  0  0  0
  140.0757   67.2454  226.3184 H   0  0  0  0  0  0  0  0  0  0  0  0
  141.2023   67.2451  228.5097 H   0  0  0  0  0  0  0  0  0  0  0  0
  142.1413   68.2403  227.3978 H   0  0  0  0  0  0  0  0  0  0  0  0
  140.9902   71.2892  228.6854 H   0  0  0  0  0  0  0  0  0  0  0  0
  142.0220   70.3860  227.4851 H   0  0  0  0  0  0  0  0  0  0  0  0
  138.9602   70.6047  227.3956 H   0  0  0  0  0  0  0  0  0  0  0  0
  140.0834   71.5019  226.3500 H   0  0  0  0  0  0  0  0  0  0  0  0
  142.2371   75.0362  219.3464 H   0  0  0  0  0  0  0  0  0  0  0  0
  142.5270   77.5069  219.1843 H   0  0  0  0  0  0  0  0  0  0  0  0
  142.1607   79.6847  220.0932 H   0  0  0  0  0  0  0  0  0  0  0  0
  140.0106   80.0502  223.7808 H   0  0  0  0  0  0  0  0  0  0  0  0
  139.7218   77.6003  223.9431 H   0  0  0  0  0  0  0  0  0  0  0  0
  1  2  2  0
  2  3  1  0
  3  4  1  0
  4  5  1  0
  5  6  2  0
  5  7  1  0
  7  8  1  0
  8  9  1  0
  9 10  1  0
 10 11  1  0
 11 12  1  0
 12 13  1  0
 13 14  1  0
 14 15  1  0
 15 16  1  0
 16 17  1  0
 17 18  1  0
 18 19  1  0
  2 20  1  0
 20 21  2  0
 21 22  1  0
 22 23  2  0
 23 24  1  0
 24 25  2  0
 25 26  1  0
 25 27  1  0
 27 28  2  0
 28 29  1  0
 29 30  2  0
 13  7  1  0
 19 14  1  0
 30 20  1  0
 29 23  1  0
  3 31  1  0
  4 32  1  0
  4 33  1  0
  8 34  1  0
  8 35  1  0
  9 36  1  0
  9 37  1  0
 10 38  1  0
 10 39  1  0
 11 40  1  0
 11 41  1  0
 12 42  1  0
 12 43  1  0
 13 44  1  6
 14 45  1  0
 15 46  1  0
 15 47  1  0
 16 48  1  0
 16 49  1  0
 18 50  1  0
 18 51  1  0
 19 52  1  0
 19 53  1  0
 21 54  1  0
 22 55  1  0
 24 56  1  0
 27 57  1  0
 28 58  1  0
M  END
>  <smiles>  (23) 
O=C(NCC(=O)N1CCCCCC1C1CCOCC1)c1ccc2cc(Cl)ccc2n1

>  <score_type>  (23) 
oracle

>  <origin>  (23) 
autodockgpu

>  <m_score__min__energy>  (23) 
-6.4400000000000004

>  <m_primary>  (23) 
energy

>  <rmsd>  (23) 
8.394442894294608

>  <m_score__min__rmsd>  (23) 
8.394442894294608

>  <meeko>  (23) 
{"free_energy": -5.94, "intermolecular_energy": -9.23, "internal_energy": -1.91, "cluster_size": 4, "cluster_id": 3, "rank_in_cluster": 1}

>  <energy>  (23) 
-5.63

>  <cluster_rmsd>  (23) 
0.79

>  <cluster>  (23) 
1

$$$$

     RDKit          3D

 58 61  0  0  0  0  0  0  0  0999 V2000
  139.0160   73.4300  221.9520 O   0  0  0  0  0  0  0  0  0  0  0  0
  140.0960   72.8730  222.3280 C   0  0  0  0  0  0  0  0  0  0  0  0
  141.2640   73.2470  221.5970 N   0  0  0  0  0  0  0  0  0  0  0  0
  141.0720   74.2120  220.5250 C   0  0  0  0  0  0  0  0  0  0  0  0
  142.3310   74.9990  220.4230 C   0  0  0  0  0  0  0  0  0  0  0  0
  143.3830   74.4070  220.7880 O   0  0  0  0  0  0  0  0  0  0  0  0
  142.2890   76.3270  219.9390 N   0  0  0  0  0  0  0  0  0  0  0  0
  143.3070   76.6130  218.8910 C   0  0  0  0  0  0  0  0  0  0  0  0
  142.5930   77.2700  217.7170 C   0  0  0  0  0  0  0  0  0  0  0  0
  141.3370   76.4990  217.3490 C   0  0  0  0  0  0  0  0  0  0  0  0
  140.3110   76.4780  218.4190 C   0  0  0  0  0  0  0  0  0  0  0  0
  140.3570   77.6850  219.3730 C   0  0  0  0  0  0  0  0  0  0  0  0
  141.3730   77.2880  220.4460 C   0  0  2  0  0  0  0  0  0  0  0  0
  141.8070   78.3360  221.3640 C   0  0  0  0  0  0  0  0  0  0  0  0
  141.0930   78.0580  222.7040 C   0  0  0  0  0  0  0  0  0  0  0  0
  141.7600   78.8510  223.8060 C   0  0  0  0  0  0  0  0  0  0  0  0
  141.5250   80.1950  223.4750 O   0  0  0  0  0  0  0  0  0  0  0  0
  142.2160   80.5100  222.3370 C   0  0  0  0  0  0  0  0  0  0  0  0
  141.6920   79.7640  221.0850 C   0  0  0  0  0  0  0  0  0  0  0  0
  140.1420   71.9180  223.4260 C   0  0  0  0  0  0  0  0  0  0  0  0
  139.6930   70.6370  223.1730 C   0  0  0  0  0  0  0  0  0  0  0  0
  139.7020   69.6620  224.1680 C   0  0  0  0  0  0  0  0  0  0  0  0
  140.1730   69.9990  225.4300 C   0  0  0  0  0  0  0  0  0  0  0  0
  140.1820   69.0390  226.4120 C   0  0  0  0  0  0  0  0  0  0  0  0
  140.6580   69.3970  227.6700 C   0  0  0  0  0  0  0  0  0  0  0  0
  140.6890   68.2060  228.9510 Cl  0  0  0  0  0  0  0  0  0  0  0  0
  141.0910   70.6810  227.8690 C   0  0  0  0  0  0  0  0  0  0  0  0
  141.0870   71.6570  226.8890 C   0  0  0  0  0  0  0  0  0  0  0  0
  140.6180   71.3030  225.6480 C   0  0  0  0  0  0  0  0  0  0  0  0
  140.5940   72.2240  224.6560 N   0  0  0  0  0  0  0  0  0  0  0  0
  142.1960   72.8380  221.8380 H   0  0  0  0  0  0  0  0  0  0  0  0
  140.8739   73.6903  219.5771 H   0  0  0  0  0  0  0  0  0  0  0  0
  140.2133   74.8671  220.7333 H   0  0  0  0  0  0  0  0  0  0  0  0
  144.0746   77.2924  219.2901 H   0  0  0  0  0  0  0  0  0  0  0  0
  143.8003   75.6837  218.5700 H   0  0  0  0  0  0  0  0  0  0  0  0
  142.3169   78.2985  217.9927 H   0  0  0  0  0  0  0  0  0  0  0  0
  143.2704   77.2744  216.8503 H   0  0  0  0  0  0  0  0  0  0  0  0
  140.8954   76.9626  216.4545 H   0  0  0  0  0  0  0  0  0  0  0  0
  141.6410   75.4559  217.1770 H   0  0  0  0  0  0  0  0  0  0  0  0
  139.3194   76.4539  217.9434 H   0  0  0  0  0  0  0  0  0  0  0  0
  140.5168   75.5878  219.0316 H   0  0  0  0  0  0  0  0  0  0  0  0
  140.6874   78.5890  218.8404 H   0  0  0  0  0  0  0  0  0  0  0  0
  139.3700   77.9193  219.7984 H   0  0  0  0  0  0  0  0  0  0  0  0
  140.8577   76.7292  221.2411 H   0  0  0  0  0  0  0  0  0  0  0  0
  142.9003   78.2316  221.3016 H   0  0  0  0  0  0  0  0  0  0  0  0
  140.0371   78.3563  222.6254 H   0  0  0  0  0  0  0  0  0  0  0  0
  141.1550   76.9846  222.9362 H   0  0  0  0  0  0  0  0  0  0  0  0
  141.3139   78.6088  224.7819 H   0  0  0  0  0  0  0  0  0  0  0  0
  142.8336   78.6256  223.8877 H   0  0  0  0  0  0  0  0  0  0  0  0
  142.1287   81.5925  222.1622 H   0  0  0  0  0  0  0  0  0  0  0  0
  143.2608   80.2019  222.4904 H   0  0  0  0  0  0  0  0  0  0  0  0
  140.6410   80.0297  220.8986 H   0  0  0  0  0  0  0  0  0  0  0  0
  142.2716   80.0388  220.1914 H   0  0  0  0  0  0  0  0  0  0  0  0
  139.3221   70.3822  222.1693 H   0  0  0  0  0  0  0  0  0  0  0  0
  139.3426   68.6439  223.9578 H   0  0  0  0  0  0  0  0  0  0  0  0
  139.8241   68.0186  226.2106 H   0  0  0  0  0  0  0  0  0  0  0  0
  141.4641   70.9522  228.8676 H   0  0  0  0  0  0  0  0  0  0  0  0
  141.4453   72.6763  227.0956 H   0  0  0  0  0  0  0  0  0  0  0  0
  1  2  2  0
  2  3  1  0
  3  4  1  0
  4  5  1  0
  5  6  2  0
  5  7  1  0
  7  8  1  0
  8  9  1  0
  9 10  1  0
 10 11  1  0
 11 12  1  0
 12 13  1  0
 13 14  1  0
 14 15  1  0
 15 16  1  0
 16 17  1  0
 17 18  1  0
 18 19  1  0
  2 20  1  0
 20 21  2  0
 21 22  1  0
 22 23  2  0
 23 24  1  0
 24 25  2  0
 25 26  1  0
 25 27  1  0
 27 28  2  0
 28 29  1  0
 29 30  2  0
 13  7  1  0
 19 14  1  0
 30 20  1  0
 29 23  1  0
  3 31  1  0
  4 32  1  0
  4 33  1  0
  8 34  1  0
  8 35  1  0
  9 36  1  0
  9 37  1  0
 10 38  1  0
 10 39  1  0
 11 40  1  0
 11 41  1  0
 12 42  1  0
 12 43  1  0
 13 44  1  1
 14 45  1  0
 15 46  1  0
 15 47  1  0
 16 48  1  0
 16 49  1  0
 18 50  1  0
 18 51  1  0
 19 52  1  0
 19 53  1  0
 21 54  1  0
 22 55  1  0
 24 56  1  0
 27 57  1  0
 28 58  1  0
M  END
>  <smiles>  (24) 
O=C(NCC(=O)N1CCCCCC1C1CCOCC1)c1ccc2cc(Cl)ccc2n1

>  <score_type>  (24) 
oracle

>  <origin>  (24) 
autodockgpu

>  <m_score__min__energy>  (24) 
-6.4400000000000004

>  <m_primary>  (24) 
energy

>  <rmsd>  (24) 
2.4462709486868564

>  <m_score__min__rmsd>  (24) 
2.4462709486868564

>  <meeko>  (24) 
{"free_energy": -5.73, "intermolecular_energy": -9.01, "internal_energy": -1.98, "cluster_size": 27, "cluster_id": 1, "rank_in_cluster": 21}

>  <energy>  (24) 
-5.62

>  <cluster_rmsd>  (24) 
1.0

>  <cluster>  (24) 
1

$$$$

     RDKit          3D

 58 61  0  0  0  0  0  0  0  0999 V2000
  139.4390   75.2780  222.7120 O   0  0  0  0  0  0  0  0  0  0  0  0
  140.0850   75.3810  221.6220 C   0  0  0  0  0  0  0  0  0  0  0  0
  139.8010   76.5490  220.8510 N   0  0  0  0  0  0  0  0  0  0  0  0
  138.8200   77.4660  221.4070 C   0  0  0  0  0  0  0  0  0  0  0  0
  139.5330   78.7430  221.6880 C   0  0  0  0  0  0  0  0  0  0  0  0
  138.8050   79.7660  221.7980 O   0  0  0  0  0  0  0  0  0  0  0  0
  140.9410   78.7460  221.8140 N   0  0  0  0  0  0  0  0  0  0  0  0
  141.4280   78.1650  223.0950 C   0  0  0  0  0  0  0  0  0  0  0  0
  141.5950   79.3070  224.0880 C   0  0  0  0  0  0  0  0  0  0  0  0
  142.2240   80.5160  223.4200 C   0  0  0  0  0  0  0  0  0  0  0  0
  141.3850   81.1190  222.3560 C   0  0  0  0  0  0  0  0  0  0  0  0
  141.8520   80.8130  220.9240 C   0  0  0  0  0  0  0  0  0  0  0  0
  141.7880   79.2890  220.8100 C   0  0  2  0  0  0  0  0  0  0  0  0
  141.8240   78.7260  219.4640 C   0  0  0  0  0  0  0  0  0  0  0  0
  142.5730   77.3810  219.5800 C   0  0  0  0  0  0  0  0  0  0  0  0
  142.3310   76.5590  218.3330 C   0  0  0  0  0  0  0  0  0  0  0  0
  142.9370   77.2900  217.2990 O   0  0  0  0  0  0  0  0  0  0  0  0
  142.2470   78.4540  217.1000 C   0  0  0  0  0  0  0  0  0  0  0  0
  142.3490   79.4300  218.2980 C   0  0  0  0  0  0  0  0  0  0  0  0
  141.0460   74.3780  221.1840 C   0  0  0  0  0  0  0  0  0  0  0  0
  140.6090   73.0710  221.1060 C   0  0  0  0  0  0  0  0  0  0  0  0
  141.4630   72.0500  220.6970 C   0  0  0  0  0  0  0  0  0  0  0  0
  142.7740   72.3680  220.3670 C   0  0  0  0  0  0  0  0  0  0  0  0
  143.6190   71.3610  219.9640 C   0  0  0  0  0  0  0  0  0  0  0  0
  144.9280   71.7010  219.6380 C   0  0  0  0  0  0  0  0  0  0  0  0
  146.0380   70.4530  219.1190 Cl  0  0  0  0  0  0  0  0  0  0  0  0
  145.3110   73.0120  219.7330 C   0  0  0  0  0  0  0  0  0  0  0  0
  144.4720   74.0340  220.1360 C   0  0  0  0  0  0  0  0  0  0  0  0
  143.1790   73.6990  220.4590 C   0  0  0  0  0  0  0  0  0  0  0  0
  142.3200   74.6640  220.8600 N   0  0  0  0  0  0  0  0  0  0  0  0
  140.2870   76.7150  219.9390 H   0  0  0  0  0  0  0  0  0  0  0  0
  138.0090   77.6367  220.6837 H   0  0  0  0  0  0  0  0  0  0  0  0
  138.3717   77.0551  222.3236 H   0  0  0  0  0  0  0  0  0  0  0  0
  140.6964   77.4388  223.4790 H   0  0  0  0  0  0  0  0  0  0  0  0
  142.3849   77.6443  222.9425 H   0  0  0  0  0  0  0  0  0  0  0  0
  140.6079   79.5871  224.4844 H   0  0  0  0  0  0  0  0  0  0  0  0
  142.2543   78.9719  224.9023 H   0  0  0  0  0  0  0  0  0  0  0  0
  142.4091   81.2798  224.1897 H   0  0  0  0  0  0  0  0  0  0  0  0
  143.1500   80.1689  222.9382 H   0  0  0  0  0  0  0  0  0  0  0  0
  140.3591   80.7391  222.4711 H   0  0  0  0  0  0  0  0  0  0  0  0
  141.4573   82.2094  222.4817 H   0  0  0  0  0  0  0  0  0  0  0  0
  141.1834   81.2851  220.1891 H   0  0  0  0  0  0  0  0  0  0  0  0
  142.8611   81.2025  220.7239 H   0  0  0  0  0  0  0  0  0  0  0  0
  142.7688   78.8655  221.0719 H   0  0  0  0  0  0  0  0  0  0  0  0
  140.7549   78.7301  219.2051 H   0  0  0  0  0  0  0  0  0  0  0  0
  143.6509   77.5701  219.6909 H   0  0  0  0  0  0  0  0  0  0  0  0
  142.2046   76.8311  220.4585 H   0  0  0  0  0  0  0  0  0  0  0  0
  142.7935   75.5655  218.4279 H   0  0  0  0  0  0  0  0  0  0  0  0
  141.2599   76.3888  218.1490 H   0  0  0  0  0  0  0  0  0  0  0  0
  142.6507   78.9525  216.2064 H   0  0  0  0  0  0  0  0  0  0  0  0
  141.1858   78.1910  216.9792 H   0  0  0  0  0  0  0  0  0  0  0  0
  143.3985   79.7125  218.4675 H   0  0  0  0  0  0  0  0  0  0  0  0
  141.7799   80.3513  218.1050 H   0  0  0  0  0  0  0  0  0  0  0  0
  139.5686   72.8319  221.3714 H   0  0  0  0  0  0  0  0  0  0  0  0
  141.1060   71.0113  220.6364 H   0  0  0  0  0  0  0  0  0  0  0  0
  143.2710   70.3194  219.9013 H   0  0  0  0  0  0  0  0  0  0  0  0
  146.3489   73.2674  219.4730 H   0  0  0  0  0  0  0  0  0  0  0  0
  144.8253   75.0740  220.1958 H   0  0  0  0  0  0  0  0  0  0  0  0
  1  2  2  0
  2  3  1  0
  3  4  1  0
  4  5  1  0
  5  6  2  0
  5  7  1  0
  7  8  1  0
  8  9  1  0
  9 10  1  0
 10 11  1  0
 11 12  1  0
 12 13  1  0
 13 14  1  0
 14 15  1  0
 15 16  1  0
 16 17  1  0
 17 18  1  0
 18 19  1  0
  2 20  1  0
 20 21  2  0
 21 22  1  0
 22 23  2  0
 23 24  1  0
 24 25  2  0
 25 26  1  0
 25 27  1  0
 27 28  2  0
 28 29  1  0
 29 30  2  0
 13  7  1  0
 19 14  1  0
 30 20  1  0
 29 23  1  0
  3 31  1  0
  4 32  1  0
  4 33  1  0
  8 34  1  0
  8 35  1  0
  9 36  1  0
  9 37  1  0
 10 38  1  0
 10 39  1  0
 11 40  1  0
 11 41  1  0
 12 42  1  0
 12 43  1  0
 13 44  1  1
 14 45  1  0
 15 46  1  0
 15 47  1  0
 16 48  1  0
 16 49  1  0
 18 50  1  0
 18 51  1  0
 19 52  1  0
 19 53  1  0
 21 54  1  0
 22 55  1  0
 24 56  1  0
 27 57  1  0
 28 58  1  0
M  END
>  <smiles>  (25) 
O=C(NCC(=O)N1CCCCCC1C1CCOCC1)c1ccc2cc(Cl)ccc2n1

>  <score_type>  (25) 
oracle

>  <origin>  (25) 
autodockgpu

>  <m_score__min__energy>  (25) 
-6.4400000000000004

>  <m_primary>  (25) 
energy

>  <rmsd>  (25) 
6.129983161990957

>  <m_score__min__rmsd>  (25) 
6.129983161990957

>  <meeko>  (25) 
{"free_energy": -4.76, "intermolecular_energy": -8.04, "internal_energy": -2.33, "cluster_size": 3, "cluster_id": 7, "rank_in_cluster": 1}

>  <energy>  (25) 
-5.52

>  <cluster_rmsd>  (25) 
1.7

>  <cluster>  (25) 
1

$$$$

     RDKit          3D

 58 61  0  0  0  0  0  0  0  0999 V2000
  139.7300   71.7430  220.8790 O   0  0  0  0  0  0  0  0  0  0  0  0
  139.6260   72.1860  222.0660 C   0  0  0  0  0  0  0  0  0  0  0  0
  139.3490   73.5820  222.1760 N   0  0  0  0  0  0  0  0  0  0  0  0
  139.2200   74.3140  220.9270 C   0  0  0  0  0  0  0  0  0  0  0  0
  140.2090   75.4260  220.9730 C   0  0  0  0  0  0  0  0  0  0  0  0
  140.2610   76.0720  222.0540 O   0  0  0  0  0  0  0  0  0  0  0  0
  141.0140   75.6950  219.8420 N   0  0  0  0  0  0  0  0  0  0  0  0
  140.2380   76.1030  218.6390 C   0  0  0  0  0  0  0  0  0  0  0  0
  140.4180   77.6040  218.4580 C   0  0  0  0  0  0  0  0  0  0  0  0
  141.5690   78.1160  219.3040 C   0  0  0  0  0  0  0  0  0  0  0  0
  142.9050   77.6860  218.8240 C   0  0  0  0  0  0  0  0  0  0  0  0
  143.0580   76.1670  218.6190 C   0  0  0  0  0  0  0  0  0  0  0  0
  142.4270   75.5490  219.8690 C   0  0  2  0  0  0  0  0  0  0  0  0
  143.0540   74.3400  220.3950 C   0  0  0  0  0  0  0  0  0  0  0  0
  144.5670   74.4860  220.1240 C   0  0  0  0  0  0  0  0  0  0  0  0
  145.3280   73.4790  220.9570 C   0  0  0  0  0  0  0  0  0  0  0  0
  144.9300   72.2270  220.4620 O   0  0  0  0  0  0  0  0  0  0  0  0
  143.6120   72.0180  220.7620 C   0  0  0  0  0  0  0  0  0  0  0  0
  142.6610   72.9860  220.0170 C   0  0  0  0  0  0  0  0  0  0  0  0
  139.7810   71.3320  223.2350 C   0  0  0  0  0  0  0  0  0  0  0  0
  139.3660   70.0200  223.1240 C   0  0  0  0  0  0  0  0  0  0  0  0
  139.4770   69.1370  224.1940 C   0  0  0  0  0  0  0  0  0  0  0  0
  140.0170   69.5970  225.3880 C   0  0  0  0  0  0  0  0  0  0  0  0
  140.1280   68.7270  226.4450 C   0  0  0  0  0  0  0  0  0  0  0  0
  140.6720   69.2090  227.6310 C   0  0  0  0  0  0  0  0  0  0  0  0
  140.8330   68.1350  229.0040 Cl  0  0  0  0  0  0  0  0  0  0  0  0
  141.0690   70.5180  227.6900 C   0  0  0  0  0  0  0  0  0  0  0  0
  140.9630   71.4040  226.6350 C   0  0  0  0  0  0  0  0  0  0  0  0
  140.4260   70.9280  225.4630 C   0  0  0  0  0  0  0  0  0  0  0  0
  140.3010   71.7580  224.4010 N   0  0  0  0  0  0  0  0  0  0  0  0
  139.2470   74.0320  223.1150 H   0  0  0  0  0  0  0  0  0  0  0  0
  139.4356   73.6511  220.0761 H   0  0  0  0  0  0  0  0  0  0  0  0
  138.1980   74.7011  220.8013 H   0  0  0  0  0  0  0  0  0  0  0  0
  140.6141   75.5712  217.7526 H   0  0  0  0  0  0  0  0  0  0  0  0
  139.1737   75.8555  218.7654 H   0  0  0  0  0  0  0  0  0  0  0  0
  140.6265   77.8168  217.3991 H   0  0  0  0  0  0  0  0  0  0  0  0
  139.4947   78.1102  218.7764 H   0  0  0  0  0  0  0  0  0  0  0  0
  141.5377   79.2156  219.3024 H   0  0  0  0  0  0  0  0  0  0  0  0
  141.4393   77.6914  220.3104 H   0  0  0  0  0  0  0  0  0  0  0  0
  143.0995   78.1827  217.8620 H   0  0  0  0  0  0  0  0  0  0  0  0
  143.6221   77.9669  219.6094 H   0  0  0  0  0  0  0  0  0  0  0  0
  142.5264   75.8410  217.7128 H   0  0  0  0  0  0  0  0  0  0  0  0
  144.1074   75.8653  218.4861 H   0  0  0  0  0  0  0  0  0  0  0  0
  142.7100   76.1446  220.7495 H   0  0  0  0  0  0  0  0  0  0  0  0
  142.6871   74.3464  221.4320 H   0  0  0  0  0  0  0  0  0  0  0  0
  144.7675   74.3059  219.0575 H   0  0  0  0  0  0  0  0  0  0  0  0
  144.8909   75.5026  220.3915 H   0  0  0  0  0  0  0  0  0  0  0  0
  146.4126   73.6165  220.8352 H   0  0  0  0  0  0  0  0  0  0  0  0
  145.1170   73.5859  222.0313 H   0  0  0  0  0  0  0  0  0  0  0  0
  143.3490   70.9863  220.4855 H   0  0  0  0  0  0  0  0  0  0  0  0
  143.4873   72.1989  221.8398 H   0  0  0  0  0  0  0  0  0  0  0  0
  142.7610   72.8526  218.9297 H   0  0  0  0  0  0  0  0  0  0  0  0
  141.6119   72.7911  220.2842 H   0  0  0  0  0  0  0  0  0  0  0  0
  138.9402   69.6664  222.1734 H   0  0  0  0  0  0  0  0  0  0  0  0
  139.1431   68.0935  224.0958 H   0  0  0  0  0  0  0  0  0  0  0  0
  139.7971   67.6817  226.3564 H   0  0  0  0  0  0  0  0  0  0  0  0
  141.4979   70.8863  228.6336 H   0  0  0  0  0  0  0  0  0  0  0  0
  141.2951   72.4484  226.7294 H   0  0  0  0  0  0  0  0  0  0  0  0
  1  2  2  0
  2  3  1  0
  3  4  1  0
  4  5  1  0
  5  6  2  0
  5  7  1  0
  7  8  1  0
  8  9  1  0
  9 10  1  0
 10 11  1  0
 11 12  1  0
 12 13  1  0
 13 14  1  0
 14 15  1  0
 15 16  1  0
 16 17  1  0
 17 18  1  0
 18 19  1  0
  2 20  1  0
 20 21  2  0
 21 22  1  0
 22 23  2  0
 23 24  1  0
 24 25  2  0
 25 26  1  0
 25 27  1  0
 27 28  2  0
 28 29  1  0
 29 30  2  0
 13  7  1  0
 19 14  1  0
 30 20  1  0
 29 23  1  0
  3 31  1  0
  4 32  1  0
  4 33  1  0
  8 34  1  0
  8 35  1  0
  9 36  1  0
  9 37  1  0
 10 38  1  0
 10 39  1  0
 11 40  1  0
 11 41  1  0
 12 42  1  0
 12 43  1  0
 13 44  1  1
 14 45  1  0
 15 46  1  0
 15 47  1  0
 16 48  1  0
 16 49  1  0
 18 50  1  0
 18 51  1  0
 19 52  1  0
 19 53  1  0
 21 54  1  0
 22 55  1  0
 24 56  1  0
 27 57  1  0
 28 58  1  0
M  END
>  <smiles>  (26) 
O=C(NCC(=O)N1CCCCCC1C1CCOCC1)c1ccc2cc(Cl)ccc2n1

>  <score_type>  (26) 
oracle

>  <origin>  (26) 
autodockgpu

>  <m_score__min__energy>  (26) 
-6.4400000000000004

>  <m_primary>  (26) 
energy

>  <rmsd>  (26) 
1.6048953279697218

>  <m_score__min__rmsd>  (26) 
1.6048953279697218

>  <meeko>  (26) 
{"free_energy": -5.4, "intermolecular_energy": -8.68, "internal_energy": -2.19, "cluster_size": 12, "cluster_id": 2, "rank_in_cluster": 8}

>  <energy>  (26) 
-5.33

>  <cluster_rmsd>  (26) 
1.51

>  <cluster>  (26) 
1

$$$$

     RDKit          3D

 58 61  0  0  0  0  0  0  0  0999 V2000
  139.1960   71.5810  220.9650 O   0  0  0  0  0  0  0  0  0  0  0  0
  139.4690   72.0620  222.1100 C   0  0  0  0  0  0  0  0  0  0  0  0
  139.5560   73.4850  222.1720 N   0  0  0  0  0  0  0  0  0  0  0  0
  139.3230   74.2000  220.9280 C   0  0  0  0  0  0  0  0  0  0  0  0
  140.5860   74.1260  220.1440 C   0  0  0  0  0  0  0  0  0  0  0  0
  140.8850   72.9890  219.6890 O   0  0  0  0  0  0  0  0  0  0  0  0
  141.3620   75.2930  219.9530 N   0  0  0  0  0  0  0  0  0  0  0  0
  140.5650   76.4790  219.5360 C   0  0  0  0  0  0  0  0  0  0  0  0
  140.7850   76.6850  218.0440 C   0  0  0  0  0  0  0  0  0  0  0  0
  142.0480   75.9800  217.5820 C   0  0  0  0  0  0  0  0  0  0  0  0
  143.2970   76.5710  218.1230 C   0  0  0  0  0  0  0  0  0  0  0  0
  143.3680   76.6290  219.6570 C   0  0  0  0  0  0  0  0  0  0  0  0
  142.7730   75.2970  220.1190 C   0  0  2  0  0  0  0  0  0  0  0  0
  143.5680   74.0980  219.8710 C   0  0  0  0  0  0  0  0  0  0  0  0
  144.9620   74.3730  220.4740 C   0  0  0  0  0  0  0  0  0  0  0  0
  145.7220   73.0710  220.6020 C   0  0  0  0  0  0  0  0  0  0  0  0
  145.9140   72.6350  219.2820 O   0  0  0  0  0  0  0  0  0  0  0  0
  144.7060   72.2930  218.7370 C   0  0  0  0  0  0  0  0  0  0  0  0
  143.7620   73.5060  218.5510 C   0  0  0  0  0  0  0  0  0  0  0  0
  139.6790   71.2200  223.2810 C   0  0  0  0  0  0  0  0  0  0  0  0
  139.3080   69.8950  223.1850 C   0  0  0  0  0  0  0  0  0  0  0  0
  139.4750   69.0220  224.2570 C   0  0  0  0  0  0  0  0  0  0  0  0
  140.0250   69.5080  225.4360 C   0  0  0  0  0  0  0  0  0  0  0  0
  140.1900   68.6490  226.4950 C   0  0  0  0  0  0  0  0  0  0  0  0
  140.7430   69.1570  227.6670 C   0  0  0  0  0  0  0  0  0  0  0  0
  140.9720   68.0980  229.0410 Cl  0  0  0  0  0  0  0  0  0  0  0  0
  141.0940   70.4790  227.7100 C   0  0  0  0  0  0  0  0  0  0  0  0
  140.9340   71.3550  226.6520 C   0  0  0  0  0  0  0  0  0  0  0  0
  140.3880   70.8530  225.4950 C   0  0  0  0  0  0  0  0  0  0  0  0
  140.2100   71.6720  224.4320 N   0  0  0  0  0  0  0  0  0  0  0  0
  139.7760   73.9660  223.0750 H   0  0  0  0  0  0  0  0  0  0  0  0
  138.5021   73.7279  220.3683 H   0  0  0  0  0  0  0  0  0  0  0  0
  139.0403   75.2453  221.1215 H   0  0  0  0  0  0  0  0  0  0  0  0
  139.4979   76.3022  219.7362 H   0  0  0  0  0  0  0  0  0  0  0  0
  140.8797   77.3708  220.0979 H   0  0  0  0  0  0  0  0  0  0  0  0
  139.9236   76.2792  217.4932 H   0  0  0  0  0  0  0  0  0  0  0  0
  140.8916   77.7623  217.8491 H   0  0  0  0  0  0  0  0  0  0  0  0
  141.9950   74.9289  217.9019 H   0  0  0  0  0  0  0  0  0  0  0  0
  142.0916   76.0860  216.4880 H   0  0  0  0  0  0  0  0  0  0  0  0
  144.1446   75.9692  217.7633 H   0  0  0  0  0  0  0  0  0  0  0  0
  143.3256   77.6128  217.7711 H   0  0  0  0  0  0  0  0  0  0  0  0
  144.4103   76.7271  219.9945 H   0  0  0  0  0  0  0  0  0  0  0  0
  142.8268   77.4938  220.0683 H   0  0  0  0  0  0  0  0  0  0  0  0
  142.8837   75.2112  221.2100 H   0  0  0  0  0  0  0  0  0  0  0  0
  142.9275   73.3240  220.3190 H   0  0  0  0  0  0  0  0  0  0  0  0
  145.5171   75.0585  219.8167 H   0  0  0  0  0  0  0  0  0  0  0  0
  144.8478   74.8301  221.4680 H   0  0  0  0  0  0  0  0  0  0  0  0
  146.6889   73.2344  221.1003 H   0  0  0  0  0  0  0  0  0  0  0  0
  145.1782   72.3314  221.2080 H   0  0  0  0  0  0  0  0  0  0  0  0
  144.8827   71.8321  217.7539 H   0  0  0  0  0  0  0  0  0  0  0  0
  144.2153   71.5976  219.4338 H   0  0  0  0  0  0  0  0  0  0  0  0
  144.2185   74.2399  217.8706 H   0  0  0  0  0  0  0  0  0  0  0  0
  142.8018   73.1945  218.1140 H   0  0  0  0  0  0  0  0  0  0  0  0
  138.8730   69.5217  222.2461 H   0  0  0  0  0  0  0  0  0  0  0  0
  139.1767   67.9667  224.1715 H   0  0  0  0  0  0  0  0  0  0  0  0
  139.8943   67.5922  226.4192 H   0  0  0  0  0  0  0  0  0  0  0  0
  141.5295   70.8682  228.6421 H   0  0  0  0  0  0  0  0  0  0  0  0
  141.2317   72.4108  226.7332 H   0  0  0  0  0  0  0  0  0  0  0  0
  1  2  2  0
  2  3  1  0
  3  4  1  0
  4  5  1  0
  5  6  2  0
  5  7  1  0
  7  8  1  0
  8  9  1  0
  9 10  1  0
 10 11  1  0
 11 12  1  0
 12 13  1  0
 13 14  1  0
 14 15  1  0
 15 16  1  0
 16 17  1  0
 17 18  1  0
 18 19  1  0
  2 20  1  0
 20 21  2  0
 21 22  1  0
 22 23  2  0
 23 24  1  0
 24 25  2  0
 25 26  1  0
 25 27  1  0
 27 28  2  0
 28 29  1  0
 29 30  2  0
 13  7  1  0
 19 14  1  0
 30 20  1  0
 29 23  1  0
  3 31  1  0
  4 32  1  0
  4 33  1  0
  8 34  1  0
  8 35  1  0
  9 36  1  0
  9 37  1  0
 10 38  1  0
 10 39  1  0
 11 40  1  0
 11 41  1  0
 12 42  1  0
 12 43  1  0
 13 44  1  1
 14 45  1  0
 15 46  1  0
 15 47  1  0
 16 48  1  0
 16 49  1  0
 18 50  1  0
 18 51  1  0
 19 52  1  0
 19 53  1  0
 21 54  1  0
 22 55  1  0
 24 56  1  0
 27 57  1  0
 28 58  1  0
M  END
>  <smiles>  (27) 
O=C(NCC(=O)N1CCCCCC1C1CCOCC1)c1ccc2cc(Cl)ccc2n1

>  <score_type>  (27) 
oracle

>  <origin>  (27) 
autodockgpu

>  <m_score__min__energy>  (27) 
-6.4400000000000004

>  <m_primary>  (27) 
energy

>  <rmsd>  (27) 
1.8446671426053516

>  <m_score__min__rmsd>  (27) 
1.8446671426053516

>  <meeko>  (27) 
{"free_energy": -5.97, "intermolecular_energy": -9.25, "internal_energy": -1.55, "cluster_size": 12, "cluster_id": 2, "rank_in_cluster": 1}

>  <energy>  (27) 
-4.81

>  <cluster_rmsd>  (27) 
1.59

>  <cluster>  (27) 
1

$$$$

     RDKit          3D

 58 61  0  0  0  0  0  0  0  0999 V2000
  140.7630   78.0610  218.2170 O   0  0  0  0  0  0  0  0  0  0  0  0
  141.7300   77.7490  218.9800 C   0  0  0  0  0  0  0  0  0  0  0  0
  142.1210   78.7550  219.9150 N   0  0  0  0  0  0  0  0  0  0  0  0
  141.3680   79.9980  219.8770 C   0  0  0  0  0  0  0  0  0  0  0  0
  140.0960   79.7550  220.6110 C   0  0  0  0  0  0  0  0  0  0  0  0
  139.0620   79.6430  219.8990 O   0  0  0  0  0  0  0  0  0  0  0  0
  140.1080   79.6640  222.0220 N   0  0  0  0  0  0  0  0  0  0  0  0
  139.8370   80.9570  222.7070 C   0  0  0  0  0  0  0  0  0  0  0  0
  141.0120   81.2490  223.6300 C   0  0  0  0  0  0  0  0  0  0  0  0
  142.3300   80.9530  222.9370 C   0  0  0  0  0  0  0  0  0  0  0  0
  142.5710   79.5090  222.6970 C   0  0  0  0  0  0  0  0  0  0  0  0
  141.6740   78.5650  223.5170 C   0  0  0  0  0  0  0  0  0  0  0  0
  140.3880   78.4460  222.6990 C   0  0  2  0  0  0  0  0  0  0  0  0
  140.1210   77.1540  222.0730 C   0  0  0  0  0  0  0  0  0  0  0  0
  138.8220   76.6230  222.7170 C   0  0  0  0  0  0  0  0  0  0  0  0
  138.2680   75.4920  221.8780 C   0  0  0  0  0  0  0  0  0  0  0  0
  139.2300   74.4740  221.9690 O   0  0  0  0  0  0  0  0  0  0  0  0
  140.3730   74.8690  221.3290 C   0  0  0  0  0  0  0  0  0  0  0  0
  141.0800   76.0540  222.0310 C   0  0  0  0  0  0  0  0  0  0  0  0
  142.3980   76.4570  218.9070 C   0  0  0  0  0  0  0  0  0  0  0  0
  142.0280   75.6070  217.8850 C   0  0  0  0  0  0  0  0  0  0  0  0
  142.6160   74.3530  217.7430 C   0  0  0  0  0  0  0  0  0  0  0  0
  143.5900   73.9640  218.6540 C   0  0  0  0  0  0  0  0  0  0  0  0
  144.1710   72.7270  218.5160 C   0  0  0  0  0  0  0  0  0  0  0  0
  145.1440   72.3580  219.4390 C   0  0  0  0  0  0  0  0  0  0  0  0
  145.9120   70.7920  219.3010 Cl  0  0  0  0  0  0  0  0  0  0  0  0
  145.4750   73.2370  220.4350 C   0  0  0  0  0  0  0  0  0  0  0  0
  144.8990   74.4850  220.5850 C   0  0  0  0  0  0  0  0  0  0  0  0
  143.9380   74.8500  219.6740 C   0  0  0  0  0  0  0  0  0  0  0  0
  143.3430   76.0610  219.7790 N   0  0  0  0  0  0  0  0  0  0  0  0
  142.9090   78.5840  220.5830 H   0  0  0  0  0  0  0  0  0  0  0  0
  141.9391   80.8014  220.3653 H   0  0  0  0  0  0  0  0  0  0  0  0
  141.1714   80.3080  218.8400 H   0  0  0  0  0  0  0  0  0  0  0  0
  139.7367   81.7610  221.9630 H   0  0  0  0  0  0  0  0  0  0  0  0
  138.9013   80.8987  223.2824 H   0  0  0  0  0  0  0  0  0  0  0  0
  140.9875   82.3098  223.9200 H   0  0  0  0  0  0  0  0  0  0  0  0
  140.9295   80.6064  224.5190 H   0  0  0  0  0  0  0  0  0  0  0  0
  142.3353   81.4711  221.9667 H   0  0  0  0  0  0  0  0  0  0  0  0
  143.1291   81.3035  223.6068 H   0  0  0  0  0  0  0  0  0  0  0  0
  142.3987   79.3051  221.6299 H   0  0  0  0  0  0  0  0  0  0  0  0
  143.6055   79.3088  223.0130 H   0  0  0  0  0  0  0  0  0  0  0  0
  142.1514   77.5811  223.6349 H   0  0  0  0  0  0  0  0  0  0  0  0
  141.4882   78.9444  224.5326 H   0  0  0  0  0  0  0  0  0  0  0  0
  139.5328   78.3533  223.3846 H   0  0  0  0  0  0  0  0  0  0  0  0
  140.1231   77.4310  221.0084 H   0  0  0  0  0  0  0  0  0  0  0  0
  139.0392   76.2551  223.7306 H   0  0  0  0  0  0  0  0  0  0  0  0
  138.0819   77.4349  222.7720 H   0  0  0  0  0  0  0  0  0  0  0  0
  137.3023   75.1496  222.2783 H   0  0  0  0  0  0  0  0  0  0  0  0
  138.0843   75.7981  220.8375 H   0  0  0  0  0  0  0  0  0  0  0  0
  141.0678   74.0169  221.2943 H   0  0  0  0  0  0  0  0  0  0  0  0
  140.0867   75.2062  220.3219 H   0  0  0  0  0  0  0  0  0  0  0  0
  141.3734   75.7685  223.0520 H   0  0  0  0  0  0  0  0  0  0  0  0
  141.9915   76.3462  221.4890 H   0  0  0  0  0  0  0  0  0  0  0  0
  141.2551   75.9256  217.1701 H   0  0  0  0  0  0  0  0  0  0  0  0
  142.3149   73.6826  216.9245 H   0  0  0  0  0  0  0  0  0  0  0  0
  143.8761   72.0495  217.7012 H   0  0  0  0  0  0  0  0  0  0  0  0
  146.2450   72.9323  221.1590 H   0  0  0  0  0  0  0  0  0  0  0  0
  145.1984   75.1587  221.4014 H   0  0  0  0  0  0  0  0  0  0  0  0
  1  2  2  0
  2  3  1  0
  3  4  1  0
  4  5  1  0
  5  6  2  0
  5  7  1  0
  7  8  1  0
  8  9  1  0
  9 10  1  0
 10 11  1  0
 11 12  1  0
 12 13  1  0
 13 14  1  0
 14 15  1  0
 15 16  1  0
 16 17  1  0
 17 18  1  0
 18 19  1  0
  2 20  1  0
 20 21  2  0
 21 22  1  0
 22 23  2  0
 23 24  1  0
 24 25  2  0
 25 26  1  0
 25 27  1  0
 27 28  2  0
 28 29  1  0
 29 30  2  0
 13  7  1  0
 19 14  1  0
 30 20  1  0
 29 23  1  0
  3 31  1  0
  4 32  1  0
  4 33  1  0
  8 34  1  0
  8 35  1  0
  9 36  1  0
  9 37  1  0
 10 38  1  0
 10 39  1  0
 11 40  1  0
 11 41  1  0
 12 42  1  0
 12 43  1  0
 13 44  1  1
 14 45  1  0
 15 46  1  0
 15 47  1  0
 16 48  1  0
 16 49  1  0
 18 50  1  0
 18 51  1  0
 19 52  1  0
 19 53  1  0
 21 54  1  0
 22 55  1  0
 24 56  1  0
 27 57  1  0
 28 58  1  0
M  END
>  <smiles>  (28) 
O=C(NCC(=O)N1CCCCCC1C1CCOCC1)c1ccc2cc(Cl)ccc2n1

>  <score_type>  (28) 
oracle

>  <origin>  (28) 
autodockgpu

>  <m_score__min__energy>  (28) 
-6.4400000000000004

>  <m_primary>  (28) 
energy

>  <rmsd>  (28) 
7.837498925026005

>  <m_score__min__rmsd>  (28) 
7.837498925026005

>  <meeko>  (28) 
{"free_energy": -5.09, "intermolecular_energy": -8.37, "internal_energy": -2.57, "cluster_size": 1, "cluster_id": 6, "rank_in_cluster": 1}

>  <energy>  (28) 
-5.97

>  <cluster_rmsd>  (28) 
0.0

>  <cluster>  (28) 
2

$$$$

     RDKit          3D

 58 61  0  0  0  0  0  0  0  0999 V2000
  140.6390   72.5960  220.7140 O   0  0  0  0  0  0  0  0  0  0  0  0
  140.2710   72.9320  221.8850 C   0  0  0  0  0  0  0  0  0  0  0  0
  139.9020   74.3020  222.0410 N   0  0  0  0  0  0  0  0  0  0  0  0
  139.9910   75.1340  220.8510 C   0  0  0  0  0  0  0  0  0  0  0  0
  140.4810   76.4690  221.2920 C   0  0  0  0  0  0  0  0  0  0  0  0
  140.1870   76.8000  222.4730 O   0  0  0  0  0  0  0  0  0  0  0  0
  141.2240   77.2720  220.3980 N   0  0  0  0  0  0  0  0  0  0  0  0
  142.0860   76.4920  219.4690 C   0  0  0  0  0  0  0  0  0  0  0  0
  141.3280   76.3300  218.1580 C   0  0  0  0  0  0  0  0  0  0  0  0
  141.4200   77.5930  217.3210 C   0  0  0  0  0  0  0  0  0  0  0  0
  140.9280   78.8090  218.0130 C   0  0  0  0  0  0  0  0  0  0  0  0
  141.8130   79.2870  219.1770 C   0  0  0  0  0  0  0  0  0  0  0  0
  141.1620   78.6920  220.4270 C   0  0  2  0  0  0  0  0  0  0  0  0
  141.3280   79.4320  221.6740 C   0  0  0  0  0  0  0  0  0  0  0  0
  141.5830   80.9000  221.2730 C   0  0  0  0  0  0  0  0  0  0  0  0
  141.3910   81.7930  222.4790 C   0  0  0  0  0  0  0  0  0  0  0  0
  142.4090   81.4170  223.3700 O   0  0  0  0  0  0  0  0  0  0  0  0
  142.1720   80.1480  223.8220 C   0  0  0  0  0  0  0  0  0  0  0  0
  142.2930   79.0780  222.7100 C   0  0  0  0  0  0  0  0  0  0  0  0
  140.2300   71.9870  222.9920 C   0  0  0  0  0  0  0  0  0  0  0  0
  139.6750   70.7470  222.7490 C   0  0  0  0  0  0  0  0  0  0  0  0
  139.5960   69.7850  223.7530 C   0  0  0  0  0  0  0  0  0  0  0  0
  140.0880   70.0930  225.0140 C   0  0  0  0  0  0  0  0  0  0  0  0
  140.0110   69.1450  226.0060 C   0  0  0  0  0  0  0  0  0  0  0  0
  140.5100   69.4740  227.2620 C   0  0  0  0  0  0  0  0  0  0  0  0
  140.4330   68.2980  228.5550 Cl  0  0  0  0  0  0  0  0  0  0  0  0
  141.0500   70.7180  227.4510 C   0  0  0  0  0  0  0  0  0  0  0  0
  141.1340   71.6810  226.4630 C   0  0  0  0  0  0  0  0  0  0  0  0
  140.6420   71.3560  225.2220 C   0  0  0  0  0  0  0  0  0  0  0  0
  140.7010   72.2660  224.2210 N   0  0  0  0  0  0  0  0  0  0  0  0
  139.5870   74.6660  222.9700 H   0  0  0  0  0  0  0  0  0  0  0  0
  140.6956   74.6912  220.1317 H   0  0  0  0  0  0  0  0  0  0  0  0
  139.0126   75.2179  220.3553 H   0  0  0  0  0  0  0  0  0  0  0  0
  143.0289   77.0302  219.2923 H   0  0  0  0  0  0  0  0  0  0  0  0
  142.3243   75.5083  219.8997 H   0  0  0  0  0  0  0  0  0  0  0  0
  141.7603   75.4910  217.5931 H   0  0  0  0  0  0  0  0  0  0  0  0
  140.2696   76.1346  218.3852 H   0  0  0  0  0  0  0  0  0  0  0  0
  142.4738   77.7520  217.0484 H   0  0  0  0  0  0  0  0  0  0  0  0
  140.7750   77.4421  216.4428 H   0  0  0  0  0  0  0  0  0  0  0  0
  140.8643   79.6217  217.2745 H   0  0  0  0  0  0  0  0  0  0  0  0
  139.9538   78.5455  218.4505 H   0  0  0  0  0  0  0  0  0  0  0  0
  142.8417   78.9152  219.0606 H   0  0  0  0  0  0  0  0  0  0  0  0
  141.8824   80.3838  219.2249 H   0  0  0  0  0  0  0  0  0  0  0  0
  140.0792   78.8831  220.3956 H   0  0  0  0  0  0  0  0  0  0  0  0
  140.3990   79.1690  222.2011 H   0  0  0  0  0  0  0  0  0  0  0  0
  142.6124   81.0046  220.8995 H   0  0  0  0  0  0  0  0  0  0  0  0
  140.8750   81.1927  220.4837 H   0  0  0  0  0  0  0  0  0  0  0  0
  141.4938   82.8514  222.1976 H   0  0  0  0  0  0  0  0  0  0  0  0
  140.3902   81.6827  222.9219 H   0  0  0  0  0  0  0  0  0  0  0  0
  142.9004   79.9157  224.6129 H   0  0  0  0  0  0  0  0  0  0  0  0
  141.1377   80.1193  224.1955 H   0  0  0  0  0  0  0  0  0  0  0  0
  143.3114   79.0781  222.2942 H   0  0  0  0  0  0  0  0  0  0  0  0
  142.0922   78.0723  223.1079 H   0  0  0  0  0  0  0  0  0  0  0  0
  139.2886   70.5146  221.7456 H   0  0  0  0  0  0  0  0  0  0  0  0
  139.1519   68.7992  223.5505 H   0  0  0  0  0  0  0  0  0  0  0  0
  139.5685   68.1567  225.8127 H   0  0  0  0  0  0  0  0  0  0  0  0
  141.4404   70.9659  228.4491 H   0  0  0  0  0  0  0  0  0  0  0  0
  141.5770   72.6679  226.6623 H   0  0  0  0  0  0  0  0  0  0  0  0
  1  2  2  0
  2  3  1  0
  3  4  1  0
  4  5  1  0
  5  6  2  0
  5  7  1  0
  7  8  1  0
  8  9  1  0
  9 10  1  0
 10 11  1  0
 11 12  1  0
 12 13  1  0
 13 14  1  0
 14 15  1  0
 15 16  1  0
 16 17  1  0
 17 18  1  0
 18 19  1  0
  2 20  1  0
 20 21  2  0
 21 22  1  0
 22 23  2  0
 23 24  1  0
 24 25  2  0
 25 26  1  0
 25 27  1  0
 27 28  2  0
 28 29  1  0
 29 30  2  0
 13  7  1  0
 19 14  1  0
 30 20  1  0
 29 23  1  0
  3 31  1  0
  4 32  1  0
  4 33  1  0
  8 34  1  0
  8 35  1  0
  9 36  1  0
  9 37  1  0
 10 38  1  0
 10 39  1  0
 11 40  1  0
 11 41  1  0
 12 42  1  0
 12 43  1  0
 13 44  1  6
 14 45  1  0
 15 46  1  0
 15 47  1  0
 16 48  1  0
 16 49  1  0
 18 50  1  0
 18 51  1  0
 19 52  1  0
 19 53  1  0
 21 54  1  0
 22 55  1  0
 24 56  1  0
 27 57  1  0
 28 58  1  0
M  END
>  <smiles>  (29) 
O=C(NCC(=O)N1CCCCCC1C1CCOCC1)c1ccc2cc(Cl)ccc2n1

>  <score_type>  (29) 
oracle

>  <origin>  (29) 
autodockgpu

>  <m_score__min__energy>  (29) 
-6.4400000000000004

>  <m_primary>  (29) 
energy

>  <rmsd>  (29) 
2.213911209029234

>  <m_score__min__rmsd>  (29) 
2.213911209029234

>  <meeko>  (29) 
{"free_energy": -6.28, "intermolecular_energy": -9.56, "internal_energy": -1.95, "cluster_size": 27, "cluster_id": 1, "rank_in_cluster": 3}

>  <energy>  (29) 
-5.7

>  <cluster_rmsd>  (29) 
0.87

>  <cluster>  (29) 
2

$$$$

     RDKit          3D

 58 61  0  0  0  0  0  0  0  0999 V2000
  139.9590   72.2350  220.8590 O   0  0  0  0  0  0  0  0  0  0  0  0
  139.8410   72.6140  222.0670 C   0  0  0  0  0  0  0  0  0  0  0  0
  139.6010   74.0090  222.2500 N   0  0  0  0  0  0  0  0  0  0  0  0
  139.5210   74.8140  221.0410 C   0  0  0  0  0  0  0  0  0  0  0  0
  140.5400   75.8910  221.1700 C   0  0  0  0  0  0  0  0  0  0  0  0
  141.2440   75.8600  222.2160 O   0  0  0  0  0  0  0  0  0  0  0  0
  140.6660   76.8620  220.1500 N   0  0  0  0  0  0  0  0  0  0  0  0
  141.0050   76.2900  218.8190 C   0  0  0  0  0  0  0  0  0  0  0  0
  142.3830   76.8080  218.4280 C   0  0  0  0  0  0  0  0  0  0  0  0
  142.5460   78.2640  218.8260 C   0  0  0  0  0  0  0  0  0  0  0  0
  141.4490   79.1420  218.3530 C   0  0  0  0  0  0  0  0  0  0  0  0
  140.1270   78.9980  219.1280 C   0  0  0  0  0  0  0  0  0  0  0  0
  140.5110   78.2520  220.4070 C   0  0  2  0  0  0  0  0  0  0  0  0
  141.3880   78.9510  221.3410 C   0  0  0  0  0  0  0  0  0  0  0  0
  140.8230   78.6750  222.7510 C   0  0  0  0  0  0  0  0  0  0  0  0
  141.8620   79.0340  223.7900 C   0  0  0  0  0  0  0  0  0  0  0  0
  142.0280   80.4220  223.6680 O   0  0  0  0  0  0  0  0  0  0  0  0
  142.6120   80.7070  222.4640 C   0  0  0  0  0  0  0  0  0  0  0  0
  141.7010   80.3740  221.2570 C   0  0  0  0  0  0  0  0  0  0  0  0
  139.9450   71.6920  223.1890 C   0  0  0  0  0  0  0  0  0  0  0  0
  139.4980   70.4000  222.9940 C   0  0  0  0  0  0  0  0  0  0  0  0
  139.5610   69.4550  224.0150 C   0  0  0  0  0  0  0  0  0  0  0  0
  140.0840   69.8330  225.2440 C   0  0  0  0  0  0  0  0  0  0  0  0
  140.1460   68.9020  226.2530 C   0  0  0  0  0  0  0  0  0  0  0  0
  140.6740   69.3010  227.4770 C   0  0  0  0  0  0  0  0  0  0  0  0
  140.7730   68.1490  228.7890 Cl  0  0  0  0  0  0  0  0  0  0  0  0
  141.1030   70.5940  227.6190 C   0  0  0  0  0  0  0  0  0  0  0  0
  141.0460   71.5400  226.6130 C   0  0  0  0  0  0  0  0  0  0  0  0
  140.5250   71.1460  225.4040 C   0  0  0  0  0  0  0  0  0  0  0  0
  140.4480   72.0370  224.3880 N   0  0  0  0  0  0  0  0  0  0  0  0
  139.4910   74.4090  223.2100 H   0  0  0  0  0  0  0  0  0  0  0  0
  139.7362   74.1935  220.1586 H   0  0  0  0  0  0  0  0  0  0  0  0
  138.5137   75.2381  220.9165 H   0  0  0  0  0  0  0  0  0  0  0  0
  141.0204   75.1916  218.8765 H   0  0  0  0  0  0  0  0  0  0  0  0
  140.2557   76.5872  218.0705 H   0  0  0  0  0  0  0  0  0  0  0  0
  143.1515   76.2072  218.9364 H   0  0  0  0  0  0  0  0  0  0  0  0
  142.4928   76.7270  217.3365 H   0  0  0  0  0  0  0  0  0  0  0  0
  142.5862   78.3206  219.9238 H   0  0  0  0  0  0  0  0  0  0  0  0
  143.4706   78.6236  218.3507 H   0  0  0  0  0  0  0  0  0  0  0  0
  141.7846   80.1859  218.4399 H   0  0  0  0  0  0  0  0  0  0  0  0
  141.2352   78.8396  217.3172 H   0  0  0  0  0  0  0  0  0  0  0  0
  139.7063   79.9862  219.3659 H   0  0  0  0  0  0  0  0  0  0  0  0
  139.3586   78.4655  218.5483 H   0  0  0  0  0  0  0  0  0  0  0  0
  139.6611   78.2721  221.1051 H   0  0  0  0  0  0  0  0  0  0  0  0
  142.3679   78.5377  221.0600 H   0  0  0  0  0  0  0  0  0  0  0  0
  139.9203   79.2833  222.9098 H   0  0  0  0  0  0  0  0  0  0  0  0
  140.5675   77.6089  222.8413 H   0  0  0  0  0  0  0  0  0  0  0  0
  141.5076   78.7735  224.7982 H   0  0  0  0  0  0  0  0  0  0  0  0
  142.8053   78.4887  223.6389 H   0  0  0  0  0  0  0  0  0  0  0  0
  142.8527   81.7800  222.4362 H   0  0  0  0  0  0  0  0  0  0  0  0
  143.5133   80.0822  222.3788 H   0  0  0  0  0  0  0  0  0  0  0  0
  140.7765   80.9680  221.3058 H   0  0  0  0  0  0  0  0  0  0  0  0
  142.2036   80.6109  220.3076 H   0  0  0  0  0  0  0  0  0  0  0  0
  139.0852   70.1125  222.0158 H   0  0  0  0  0  0  0  0  0  0  0  0
  139.2029   68.4280  223.8506 H   0  0  0  0  0  0  0  0  0  0  0  0
  139.7892   67.8731  226.0978 H   0  0  0  0  0  0  0  0  0  0  0  0
  141.5176   70.8976  228.5916 H   0  0  0  0  0  0  0  0  0  0  0  0
  141.4036   72.5678  226.7738 H   0  0  0  0  0  0  0  0  0  0  0  0
  1  2  2  0
  2  3  1  0
  3  4  1  0
  4  5  1  0
  5  6  2  0
  5  7  1  0
  7  8  1  0
  8  9  1  0
  9 10  1  0
 10 11  1  0
 11 12  1  0
 12 13  1  0
 13 14  1  0
 14 15  1  0
 15 16  1  0
 16 17  1  0
 17 18  1  0
 18 19  1  0
  2 20  1  0
 20 21  2  0
 21 22  1  0
 22 23  2  0
 23 24  1  0
 24 25  2  0
 25 26  1  0
 25 27  1  0
 27 28  2  0
 28 29  1  0
 29 30  2  0
 13  7  1  0
 19 14  1  0
 30 20  1  0
 29 23  1  0
  3 31  1  0
  4 32  1  0
  4 33  1  0
  8 34  1  0
  8 35  1  0
  9 36  1  0
  9 37  1  0
 10 38  1  0
 10 39  1  0
 11 40  1  0
 11 41  1  0
 12 42  1  0
 12 43  1  0
 13 44  1  1
 14 45  1  0
 15 46  1  0
 15 47  1  0
 16 48  1  0
 16 49  1  0
 18 50  1  0
 18 51  1  0
 19 52  1  0
 19 53  1  0
 21 54  1  0
 22 55  1  0
 24 56  1  0
 27 57  1  0
 28 58  1  0
M  END
>  <smiles>  (30) 
O=C(NCC(=O)N1CCCCCC1C1CCOCC1)c1ccc2cc(Cl)ccc2n1

>  <score_type>  (30) 
oracle

>  <origin>  (30) 
autodockgpu

>  <m_score__min__energy>  (30) 
-6.4400000000000004

>  <m_primary>  (30) 
energy

>  <rmsd>  (30) 
1.828114842345609

>  <m_score__min__rmsd>  (30) 
1.828114842345609

>  <meeko>  (30) 
{"free_energy": -6.44, "intermolecular_energy": -9.72, "internal_energy": -1.47, "cluster_size": 27, "cluster_id": 1, "rank_in_cluster": 1}

>  <energy>  (30) 
-5.69

>  <cluster_rmsd>  (30) 
1.8

>  <cluster>  (30) 
2

$$$$

     RDKit          3D

 58 61  0  0  0  0  0  0  0  0999 V2000
  140.3500   72.4880  220.8320 O   0  0  0  0  0  0  0  0  0  0  0  0
  140.0780   72.8230  222.0280 C   0  0  0  0  0  0  0  0  0  0  0  0
  139.7460   74.1980  222.2180 N   0  0  0  0  0  0  0  0  0  0  0  0
  139.7600   75.0350  221.0290 C   0  0  0  0  0  0  0  0  0  0  0  0
  140.3990   76.3230  221.4150 C   0  0  0  0  0  0  0  0  0  0  0  0
  140.2600   76.6670  222.6200 O   0  0  0  0  0  0  0  0  0  0  0  0
  141.1050   77.0720  220.4460 N   0  0  0  0  0  0  0  0  0  0  0  0
  141.7610   76.2350  219.4060 C   0  0  0  0  0  0  0  0  0  0  0  0
  140.9680   76.3930  218.1150 C   0  0  0  0  0  0  0  0  0  0  0  0
  141.4090   77.6330  217.3580 C   0  0  0  0  0  0  0  0  0  0  0  0
  141.2180   78.8950  218.1120 C   0  0  0  0  0  0  0  0  0  0  0  0
  142.0800   79.0220  219.3770 C   0  0  0  0  0  0  0  0  0  0  0  0
  141.1930   78.4900  220.5040 C   0  0  2  0  0  0  0  0  0  0  0  0
  141.2540   79.1940  221.7810 C   0  0  0  0  0  0  0  0  0  0  0  0
  140.6530   80.5930  221.5310 C   0  0  0  0  0  0  0  0  0  0  0  0
  140.3290   81.2470  222.8560 C   0  0  0  0  0  0  0  0  0  0  0  0
  141.5720   81.4290  223.4810 O   0  0  0  0  0  0  0  0  0  0  0  0
  142.1020   80.2090  223.8030 C   0  0  0  0  0  0  0  0  0  0  0  0
  142.4760   79.3650  222.5600 C   0  0  0  0  0  0  0  0  0  0  0  0
  140.1030   71.8720  223.1310 C   0  0  0  0  0  0  0  0  0  0  0  0
  139.5890   70.6120  222.8960 C   0  0  0  0  0  0  0  0  0  0  0  0
  139.5740   69.6430  223.8960 C   0  0  0  0  0  0  0  0  0  0  0  0
  140.0870   69.9640  225.1450 C   0  0  0  0  0  0  0  0  0  0  0  0
  140.0730   69.0090  226.1330 C   0  0  0  0  0  0  0  0  0  0  0  0
  140.5930   69.3510  227.3780 C   0  0  0  0  0  0  0  0  0  0  0  0
  140.5960   68.1670  228.6650 Cl  0  0  0  0  0  0  0  0  0  0  0  0
  141.0900   70.6140  227.5590 C   0  0  0  0  0  0  0  0  0  0  0  0
  141.1110   71.5840  226.5740 C   0  0  0  0  0  0  0  0  0  0  0  0
  140.5980   71.2460  225.3460 C   0  0  0  0  0  0  0  0  0  0  0  0
  140.5950   72.1620  224.3490 N   0  0  0  0  0  0  0  0  0  0  0  0
  139.5070   74.5610  223.1700 H   0  0  0  0  0  0  0  0  0  0  0  0
  140.3403   74.5489  220.2309 H   0  0  0  0  0  0  0  0  0  0  0  0
  138.7402   75.1990  220.6507 H   0  0  0  0  0  0  0  0  0  0  0  0
  142.7969   76.5718  219.2528 H   0  0  0  0  0  0  0  0  0  0  0  0
  141.7825   75.1804  219.7179 H   0  0  0  0  0  0  0  0  0  0  0  0
  141.1297   75.5079  217.4822 H   0  0  0  0  0  0  0  0  0  0  0  0
  139.9021   76.4949  218.3669 H   0  0  0  0  0  0  0  0  0  0  0  0
  142.4777   77.5309  217.1181 H   0  0  0  0  0  0  0  0  0  0  0  0
  140.7795   77.6994  216.4584 H   0  0  0  0  0  0  0  0  0  0  0  0
  141.4634   79.7339  217.4442 H   0  0  0  0  0  0  0  0  0  0  0  0
  140.1703   78.9018  218.4472 H   0  0  0  0  0  0  0  0  0  0  0  0
  142.9951   78.4185  219.2854 H   0  0  0  0  0  0  0  0  0  0  0  0
  142.4067   80.0569  219.5567 H   0  0  0  0  0  0  0  0  0  0  0  0
  140.1533   78.8004  220.3230 H   0  0  0  0  0  0  0  0  0  0  0  0
  140.7243   78.4878  222.4372 H   0  0  0  0  0  0  0  0  0  0  0  0
  141.3799   81.2120  220.9847 H   0  0  0  0  0  0  0  0  0  0  0  0
  139.7332   80.4958  220.9356 H   0  0  0  0  0  0  0  0  0  0  0  0
  139.8295   82.2143  222.6985 H   0  0  0  0  0  0  0  0  0  0  0  0
  139.6450   80.6362  223.4635 H   0  0  0  0  0  0  0  0  0  0  0  0
  143.0092   80.3685  224.4043 H   0  0  0  0  0  0  0  0  0  0  0  0
  141.3333   79.6527  224.3594 H   0  0  0  0  0  0  0  0  0  0  0  0
  143.2359   79.8889  221.9616 H   0  0  0  0  0  0  0  0  0  0  0  0
  142.8939   78.3915  222.8561 H   0  0  0  0  0  0  0  0  0  0  0  0
  139.1846   70.3697  221.9021 H   0  0  0  0  0  0  0  0  0  0  0  0
  139.1632   68.6417  223.6996 H   0  0  0  0  0  0  0  0  0  0  0  0
  139.6635   68.0054  225.9458 H   0  0  0  0  0  0  0  0  0  0  0  0
  141.4971   70.8725  228.5477 H   0  0  0  0  0  0  0  0  0  0  0  0
  141.5220   72.5860  226.7663 H   0  0  0  0  0  0  0  0  0  0  0  0
  1  2  2  0
  2  3  1  0
  3  4  1  0
  4  5  1  0
  5  6  2  0
  5  7  1  0
  7  8  1  0
  8  9  1  0
  9 10  1  0
 10 11  1  0
 11 12  1  0
 12 13  1  0
 13 14  1  0
 14 15  1  0
 15 16  1  0
 16 17  1  0
 17 18  1  0
 18 19  1  0
  2 20  1  0
 20 21  2  0
 21 22  1  0
 22 23  2  0
 23 24  1  0
 24 25  2  0
 25 26  1  0
 25 27  1  0
 27 28  2  0
 28 29  1  0
 29 30  2  0
 13  7  1  0
 19 14  1  0
 30 20  1  0
 29 23  1  0
  3 31  1  0
  4 32  1  0
  4 33  1  0
  8 34  1  0
  8 35  1  0
  9 36  1  0
  9 37  1  0
 10 38  1  0
 10 39  1  0
 11 40  1  0
 11 41  1  0
 12 42  1  0
 12 43  1  0
 13 44  1  6
 14 45  1  0
 15 46  1  0
 15 47  1  0
 16 48  1  0
 16 49  1  0
 18 50  1  0
 18 51  1  0
 19 52  1  0
 19 53  1  0
 21 54  1  0
 22 55  1  0
 24 56  1  0
 27 57  1  0
 28 58  1  0
M  END
>  <smiles>  (31) 
O=C(NCC(=O)N1CCCCCC1C1CCOCC1)c1ccc2cc(Cl)ccc2n1

>  <score_type>  (31) 
oracle

>  <origin>  (31) 
autodockgpu

>  <m_score__min__energy>  (31) 
-6.4400000000000004

>  <m_primary>  (31) 
energy

>  <rmsd>  (31) 
2.0161192381205737

>  <m_score__min__rmsd>  (31) 
2.0161192381205737

>  <meeko>  (31) 
{"free_energy": -6.32, "intermolecular_energy": -9.6, "internal_energy": -1.93, "cluster_size": 27, "cluster_id": 1, "rank_in_cluster": 2}

>  <energy>  (31) 
-5.66

>  <cluster_rmsd>  (31) 
1.31

>  <cluster>  (31) 
2

$$$$

     RDKit          3D

 58 61  0  0  0  0  0  0  0  0999 V2000
  139.2250   71.9220  220.8750 O   0  0  0  0  0  0  0  0  0  0  0  0
  139.3850   72.3710  222.0540 C   0  0  0  0  0  0  0  0  0  0  0  0
  139.3390   73.7930  222.1790 N   0  0  0  0  0  0  0  0  0  0  0  0
  139.1150   74.5410  220.9530 C   0  0  0  0  0  0  0  0  0  0  0  0
  140.2110   75.5430  220.8510 C   0  0  0  0  0  0  0  0  0  0  0  0
  140.1970   76.4630  221.7120 O   0  0  0  0  0  0  0  0  0  0  0  0
  141.1810   75.4190  219.8290 N   0  0  0  0  0  0  0  0  0  0  0  0
  140.6160   75.5080  218.4550 C   0  0  0  0  0  0  0  0  0  0  0  0
  141.6340   74.9100  217.4940 C   0  0  0  0  0  0  0  0  0  0  0  0
  142.8560   75.8030  217.3780 C   0  0  0  0  0  0  0  0  0  0  0  0
  142.9080   76.8850  218.3900 C   0  0  0  0  0  0  0  0  0  0  0  0
  143.3840   76.4390  219.7830 C   0  0  0  0  0  0  0  0  0  0  0  0
  142.5550   75.1960  220.1150 C   0  0  2  0  0  0  0  0  0  0  0  0
  143.1800   73.9010  219.8670 C   0  0  0  0  0  0  0  0  0  0  0  0
  142.4980   72.9020  220.8260 C   0  0  0  0  0  0  0  0  0  0  0  0
  142.8030   71.4880  220.3840 C   0  0  0  0  0  0  0  0  0  0  0  0
  144.1900   71.3510  220.5510 O   0  0  0  0  0  0  0  0  0  0  0  0
  144.8380   72.1560  219.6530 C   0  0  0  0  0  0  0  0  0  0  0  0
  144.6190   73.6640  219.9250 C   0  0  0  0  0  0  0  0  0  0  0  0
  139.6030   71.4990  223.2000 C   0  0  0  0  0  0  0  0  0  0  0  0
  139.2490   70.1720  223.0650 C   0  0  0  0  0  0  0  0  0  0  0  0
  139.4230   69.2710  224.1120 C   0  0  0  0  0  0  0  0  0  0  0  0
  139.9630   69.7300  225.3060 C   0  0  0  0  0  0  0  0  0  0  0  0
  140.1350   68.8420  226.3400 C   0  0  0  0  0  0  0  0  0  0  0  0
  140.6790   69.3220  227.5280 C   0  0  0  0  0  0  0  0  0  0  0  0
  140.9170   68.2270  228.8710 Cl  0  0  0  0  0  0  0  0  0  0  0  0
  141.0130   70.6470  227.6110 C   0  0  0  0  0  0  0  0  0  0  0  0
  140.8450   71.5510  226.5780 C   0  0  0  0  0  0  0  0  0  0  0  0
  140.3090   71.0770  225.4060 C   0  0  0  0  0  0  0  0  0  0  0  0
  140.1250   71.9240  224.3660 N   0  0  0  0  0  0  0  0  0  0  0  0
  139.4610   74.2490  223.1130 H   0  0  0  0  0  0  0  0  0  0  0  0
  139.1401   73.8636  220.0867 H   0  0  0  0  0  0  0  0  0  0  0  0
  138.1315   75.0335  220.9666 H   0  0  0  0  0  0  0  0  0  0  0  0
  139.6734   74.9435  218.4006 H   0  0  0  0  0  0  0  0  0  0  0  0
  140.4083   76.5557  218.1919 H   0  0  0  0  0  0  0  0  0  0  0  0
  141.9435   73.9220  217.8655 H   0  0  0  0  0  0  0  0  0  0  0  0
  141.1695   74.8178  216.5012 H   0  0  0  0  0  0  0  0  0  0  0  0
  143.7538   75.1779  217.4930 H   0  0  0  0  0  0  0  0  0  0  0  0
  142.8033   76.2897  216.3929 H   0  0  0  0  0  0  0  0  0  0  0  0
  143.5955   77.6625  218.0255 H   0  0  0  0  0  0  0  0  0  0  0  0
  141.8758   77.2443  218.5144 H   0  0  0  0  0  0  0  0  0  0  0  0
  144.4560   76.1931  219.7633 H   0  0  0  0  0  0  0  0  0  0  0  0
  143.2528   77.2318  220.5342 H   0  0  0  0  0  0  0  0  0  0  0  0
  142.5493   75.0449  221.2046 H   0  0  0  0  0  0  0  0  0  0  0  0
  143.0288   73.7993  218.7822 H   0  0  0  0  0  0  0  0  0  0  0  0
  142.8775   73.0567  221.8468 H   0  0  0  0  0  0  0  0  0  0  0  0
  141.4101   73.0638  220.8100 H   0  0  0  0  0  0  0  0  0  0  0  0
  142.2638   70.7616  221.0098 H   0  0  0  0  0  0  0  0  0  0  0  0
  142.4894   71.3007  219.3464 H   0  0  0  0  0  0  0  0  0  0  0  0
  145.9159   71.9432  219.7056 H   0  0  0  0  0  0  0  0  0  0  0  0
  144.4246   71.9377  218.6573 H   0  0  0  0  0  0  0  0  0  0  0  0
  145.0062   73.9290  220.9199 H   0  0  0  0  0  0  0  0  0  0  0  0
  145.1494   74.2789  219.1830 H   0  0  0  0  0  0  0  0  0  0  0  0
  138.8222   69.8202  222.1142 H   0  0  0  0  0  0  0  0  0  0  0  0
  139.1380   68.2150  223.9955 H   0  0  0  0  0  0  0  0  0  0  0  0
  139.8516   67.7846  226.2325 H   0  0  0  0  0  0  0  0  0  0  0  0
  141.4405   71.0145  228.5556 H   0  0  0  0  0  0  0  0  0  0  0  0
  141.1294   72.6076  226.6907 H   0  0  0  0  0  0  0  0  0  0  0  0
  1  2  2  0
  2  3  1  0
  3  4  1  0
  4  5  1  0
  5  6  2  0
  5  7  1  0
  7  8  1  0
  8  9  1  0
  9 10  1  0
 10 11  1  0
 11 12  1  0
 12 13  1  0
 13 14  1  0
 14 15  1  0
 15 16  1  0
 16 17  1  0
 17 18  1  0
 18 19  1  0
  2 20  1  0
 20 21  2  0
 21 22  1  0
 22 23  2  0
 23 24  1  0
 24 25  2  0
 25 26  1  0
 25 27  1  0
 27 28  2  0
 28 29  1  0
 29 30  2  0
 13  7  1  0
 19 14  1  0
 30 20  1  0
 29 23  1  0
  3 31  1  0
  4 32  1  0
  4 33  1  0
  8 34  1  0
  8 35  1  0
  9 36  1  0
  9 37  1  0
 10 38  1  0
 10 39  1  0
 11 40  1  0
 11 41  1  0
 12 42  1  0
 12 43  1  0
 13 44  1  1
 14 45  1  0
 15 46  1  0
 15 47  1  0
 16 48  1  0
 16 49  1  0
 18 50  1  0
 18 51  1  0
 19 52  1  0
 19 53  1  0
 21 54  1  0
 22 55  1  0
 24 56  1  0
 27 57  1  0
 28 58  1  0
M  END
>  <smiles>  (32) 
O=C(NCC(=O)N1CCCCCC1C1CCOCC1)c1ccc2cc(Cl)ccc2n1

>  <score_type>  (32) 
oracle

>  <origin>  (32) 
autodockgpu

>  <m_score__min__energy>  (32) 
-6.4400000000000004

>  <m_primary>  (32) 
energy

>  <rmsd>  (32) 
1.801938898431508

>  <m_score__min__rmsd>  (32) 
1.801938898431508

>  <meeko>  (32) 
{"free_energy": -4.19, "intermolecular_energy": -7.47, "internal_energy": -2.08, "cluster_size": 12, "cluster_id": 2, "rank_in_cluster": 12}

>  <energy>  (32) 
-5.56

>  <cluster_rmsd>  (32) 
1.37

>  <cluster>  (32) 
2

$$$$

     RDKit          3D

 58 61  0  0  0  0  0  0  0  0999 V2000
  140.3360   72.4160  220.8180 O   0  0  0  0  0  0  0  0  0  0  0  0
  140.0470   72.7800  222.0020 C   0  0  0  0  0  0  0  0  0  0  0  0
  139.7330   74.1640  222.1580 N   0  0  0  0  0  0  0  0  0  0  0  0
  139.7810   74.9760  220.9520 C   0  0  0  0  0  0  0  0  0  0  0  0
  140.2320   76.3340  221.3630 C   0  0  0  0  0  0  0  0  0  0  0  0
  139.6570   76.8220  222.3730 O   0  0  0  0  0  0  0  0  0  0  0  0
  141.2460   76.9880  220.6270 N   0  0  0  0  0  0  0  0  0  0  0  0
  141.5700   78.3490  221.1340 C   0  0  0  0  0  0  0  0  0  0  0  0
  141.4200   79.3250  219.9750 C   0  0  0  0  0  0  0  0  0  0  0  0
  142.1470   78.8150  218.7430 C   0  0  0  0  0  0  0  0  0  0  0  0
  141.2840   78.0490  217.8110 C   0  0  0  0  0  0  0  0  0  0  0  0
  141.0010   76.5960  218.2430 C   0  0  0  0  0  0  0  0  0  0  0  0
  141.8600   76.3910  219.4920 C   0  0  2  0  0  0  0  0  0  0  0  0
  142.5800   75.1260  219.5980 C   0  0  0  0  0  0  0  0  0  0  0  0
  141.8350   74.1290  218.6840 C   0  0  0  0  0  0  0  0  0  0  0  0
  142.7110   72.9210  218.4360 C   0  0  0  0  0  0  0  0  0  0  0  0
  142.8510   72.3140  219.6940 O   0  0  0  0  0  0  0  0  0  0  0  0
  143.5870   73.1280  220.5120 C   0  0  0  0  0  0  0  0  0  0  0  0
  142.8600   74.4500  220.8610 C   0  0  0  0  0  0  0  0  0  0  0  0
  140.0380   71.8520  223.1240 C   0  0  0  0  0  0  0  0  0  0  0  0
  139.5210   70.5920  222.9030 C   0  0  0  0  0  0  0  0  0  0  0  0
  139.4740   69.6440  223.9220 C   0  0  0  0  0  0  0  0  0  0  0  0
  139.9600   69.9870  225.1770 C   0  0  0  0  0  0  0  0  0  0  0  0
  139.9140   69.0530  226.1830 C   0  0  0  0  0  0  0  0  0  0  0  0
  140.4070   69.4170  227.4330 C   0  0  0  0  0  0  0  0  0  0  0  0
  140.3690   68.2600  228.7440 Cl  0  0  0  0  0  0  0  0  0  0  0  0
  140.9090   70.6800  227.6000 C   0  0  0  0  0  0  0  0  0  0  0  0
  140.9610   71.6290  226.5960 C   0  0  0  0  0  0  0  0  0  0  0  0
  140.4750   71.2690  225.3630 C   0  0  0  0  0  0  0  0  0  0  0  0
  140.5040   72.1640  224.3470 N   0  0  0  0  0  0  0  0  0  0  0  0
  139.4830   74.5500  223.0970 H   0  0  0  0  0  0  0  0  0  0  0  0
  140.4915   74.5431  220.2325 H   0  0  0  0  0  0  0  0  0  0  0  0
  138.7949   75.0187  220.4664 H   0  0  0  0  0  0  0  0  0  0  0  0
  140.8778   78.6211  221.9444 H   0  0  0  0  0  0  0  0  0  0  0  0
  142.5958   78.3775  221.5302 H   0  0  0  0  0  0  0  0  0  0  0  0
  140.3521   79.4444  219.7400 H   0  0  0  0  0  0  0  0  0  0  0  0
  141.8577   80.2906  220.2683 H   0  0  0  0  0  0  0  0  0  0  0  0
  142.5600   79.6791  218.2019 H   0  0  0  0  0  0  0  0  0  0  0  0
  142.9281   78.1253  219.0954 H   0  0  0  0  0  0  0  0  0  0  0  0
  140.3215   78.5746  217.7247 H   0  0  0  0  0  0  0  0  0  0  0  0
  141.8310   77.9894  216.8585 H   0  0  0  0  0  0  0  0  0  0  0  0
  139.9350   76.4614  218.4784 H   0  0  0  0  0  0  0  0  0  0  0  0
  141.2378   75.8713  217.4501 H   0  0  0  0  0  0  0  0  0  0  0  0
  142.7885   76.9720  219.3910 H   0  0  0  0  0  0  0  0  0  0  0  0
  143.6010   75.4411  219.3366 H   0  0  0  0  0  0  0  0  0  0  0  0
  140.9017   73.8112  219.1719 H   0  0  0  0  0  0  0  0  0  0  0  0
  141.6006   74.6150  217.7254 H   0  0  0  0  0  0  0  0  0  0  0  0
  142.2298   72.2329  217.7254 H   0  0  0  0  0  0  0  0  0  0  0  0
  143.6818   73.1956  217.9976 H   0  0  0  0  0  0  0  0  0  0  0  0
  143.7992   72.5872  221.4461 H   0  0  0  0  0  0  0  0  0  0  0  0
  144.5086   73.3913  219.9722 H   0  0  0  0  0  0  0  0  0  0  0  0
  141.9207   74.2364  221.3921 H   0  0  0  0  0  0  0  0  0  0  0  0
  143.4805   75.0797  221.5155 H   0  0  0  0  0  0  0  0  0  0  0  0
  139.1394   70.3318  221.9047 H   0  0  0  0  0  0  0  0  0  0  0  0
  139.0596   68.6421  223.7364 H   0  0  0  0  0  0  0  0  0  0  0  0
  139.5006   68.0490  226.0065 H   0  0  0  0  0  0  0  0  0  0  0  0
  141.2940   70.9561  228.5927 H   0  0  0  0  0  0  0  0  0  0  0  0
  141.3749   72.6319  226.7774 H   0  0  0  0  0  0  0  0  0  0  0  0
  1  2  2  0
  2  3  1  0
  3  4  1  0
  4  5  1  0
  5  6  2  0
  5  7  1  0
  7  8  1  0
  8  9  1  0
  9 10  1  0
 10 11  1  0
 11 12  1  0
 12 13  1  0
 13 14  1  0
 14 15  1  0
 15 16  1  0
 16 17  1  0
 17 18  1  0
 18 19  1  0
  2 20  1  0
 20 21  2  0
 21 22  1  0
 22 23  2  0
 23 24  1  0
 24 25  2  0
 25 26  1  0
 25 27  1  0
 27 28  2  0
 28 29  1  0
 29 30  2  0
 13  7  1  0
 19 14  1  0
 30 20  1  0
 29 23  1  0
  3 31  1  0
  4 32  1  0
  4 33  1  0
  8 34  1  0
  8 35  1  0
  9 36  1  0
  9 37  1  0
 10 38  1  0
 10 39  1  0
 11 40  1  0
 11 41  1  0
 12 42  1  0
 12 43  1  0
 13 44  1  6
 14 45  1  0
 15 46  1  0
 15 47  1  0
 16 48  1  0
 16 49  1  0
 18 50  1  0
 18 51  1  0
 19 52  1  0
 19 53  1  0
 21 54  1  0
 22 55  1  0
 24 56  1  0
 27 57  1  0
 28 58  1  0
M  END
>  <smiles>  (33) 
O=C(NCC(=O)N1CCCCCC1C1CCOCC1)c1ccc2cc(Cl)ccc2n1

>  <score_type>  (33) 
oracle

>  <origin>  (33) 
autodockgpu

>  <m_score__min__energy>  (33) 
-6.4400000000000004

>  <m_primary>  (33) 
energy

>  <rmsd>  (33) 
2.488500544457752

>  <m_score__min__rmsd>  (33) 
2.488500544457752

>  <meeko>  (33) 
{"free_energy": -4.81, "intermolecular_energy": -8.09, "internal_energy": -2.22, "cluster_size": 27, "cluster_id": 1, "rank_in_cluster": 27}

>  <energy>  (33) 
-5.52

>  <cluster_rmsd>  (33) 
1.49

>  <cluster>  (33) 
2

$$$$

     RDKit          3D

 58 61  0  0  0  0  0  0  0  0999 V2000
  138.7290   72.4180  220.8860 O   0  0  0  0  0  0  0  0  0  0  0  0
  139.1000   72.7960  222.0420 C   0  0  0  0  0  0  0  0  0  0  0  0
  139.2320   74.2070  222.2130 N   0  0  0  0  0  0  0  0  0  0  0  0
  138.9270   75.0280  221.0520 C   0  0  0  0  0  0  0  0  0  0  0  0
  140.0190   74.8040  220.0650 C   0  0  0  0  0  0  0  0  0  0  0  0
  139.7560   74.0080  219.1240 O   0  0  0  0  0  0  0  0  0  0  0  0
  141.2550   75.4710  220.2250 N   0  0  0  0  0  0  0  0  0  0  0  0
  142.3680   74.5750  220.6390 C   0  0  0  0  0  0  0  0  0  0  0  0
  142.9460   73.9400  219.3810 C   0  0  0  0  0  0  0  0  0  0  0  0
  143.6510   74.9790  218.5280 C   0  0  0  0  0  0  0  0  0  0  0  0
  142.8140   76.1590  218.2040 C   0  0  0  0  0  0  0  0  0  0  0  0
  142.7070   77.2020  219.3330 C   0  0  0  0  0  0  0  0  0  0  0  0
  141.3870   76.8740  220.0350 C   0  0  2  0  0  0  0  0  0  0  0  0
  140.9220   77.8220  221.0420 C   0  0  0  0  0  0  0  0  0  0  0  0
  141.8270   79.0660  220.9140 C   0  0  0  0  0  0  0  0  0  0  0  0
  141.1920   80.2300  221.6420 C   0  0  0  0  0  0  0  0  0  0  0  0
  141.1890   79.8490  222.9930 O   0  0  0  0  0  0  0  0  0  0  0  0
  140.3270   78.8020  223.1690 C   0  0  0  0  0  0  0  0  0  0  0  0
  140.7960   77.5070  222.4620 C   0  0  0  0  0  0  0  0  0  0  0  0
  139.3730   71.8560  223.1210 C   0  0  0  0  0  0  0  0  0  0  0  0
  138.9400   70.5560  222.9560 C   0  0  0  0  0  0  0  0  0  0  0  0
  139.1600   69.5940  223.9390 C   0  0  0  0  0  0  0  0  0  0  0  0
  139.8280   69.9650  225.0990 C   0  0  0  0  0  0  0  0  0  0  0  0
  140.0450   69.0170  226.0700 C   0  0  0  0  0  0  0  0  0  0  0  0
  140.7170   69.4090  227.2240 C   0  0  0  0  0  0  0  0  0  0  0  0
  141.0170   68.2360  228.4870 Cl  0  0  0  0  0  0  0  0  0  0  0  0
  141.1250   70.7110  227.3380 C   0  0  0  0  0  0  0  0  0  0  0  0
  140.9130   71.6740  226.3700 C   0  0  0  0  0  0  0  0  0  0  0  0
  140.2500   71.2870  225.2300 C   0  0  0  0  0  0  0  0  0  0  0  0
  140.0180   72.1940  224.2530 N   0  0  0  0  0  0  0  0  0  0  0  0
  139.5320   74.6070  223.1320 H   0  0  0  0  0  0  0  0  0  0  0  0
  137.9602   74.7291  220.6208 H   0  0  0  0  0  0  0  0  0  0  0  0
  138.8578   76.0905  221.3283 H   0  0  0  0  0  0  0  0  0  0  0  0
  143.1452   75.1575  221.1553 H   0  0  0  0  0  0  0  0  0  0  0  0
  142.0015   73.7995  221.3277 H   0  0  0  0  0  0  0  0  0  0  0  0
  143.6667   73.1605  219.6689 H   0  0  0  0  0  0  0  0  0  0  0  0
  142.1229   73.5033  218.7963 H   0  0  0  0  0  0  0  0  0  0  0  0
  144.5427   75.3255  219.0709 H   0  0  0  0  0  0  0  0  0  0  0  0
  143.9001   74.4925  217.5734 H   0  0  0  0  0  0  0  0  0  0  0  0
  143.2454   76.6530  217.3209 H   0  0  0  0  0  0  0  0  0  0  0  0
  141.7955   75.7801  218.0336 H   0  0  0  0  0  0  0  0  0  0  0  0
  143.5522   77.1077  220.0307 H   0  0  0  0  0  0  0  0  0  0  0  0
  142.7330   78.2338  218.9526 H   0  0  0  0  0  0  0  0  0  0  0  0
  140.5506   77.1015  219.3577 H   0  0  0  0  0  0  0  0  0  0  0  0
  139.8560   77.8996  220.7822 H   0  0  0  0  0  0  0  0  0  0  0  0
  142.8110   78.8503  221.3558 H   0  0  0  0  0  0  0  0  0  0  0  0
  141.9497   79.3218  219.8512 H   0  0  0  0  0  0  0  0  0  0  0  0
  141.7840   81.1460  221.4990 H   0  0  0  0  0  0  0  0  0  0  0  0
  140.1804   80.4503  221.2703 H   0  0  0  0  0  0  0  0  0  0  0  0
  140.2363   78.6000  224.2465 H   0  0  0  0  0  0  0  0  0  0  0  0
  139.3638   79.0902  222.7228 H   0  0  0  0  0  0  0  0  0  0  0  0
  141.7674   77.1858  222.8660 H   0  0  0  0  0  0  0  0  0  0  0  0
  140.0786   76.6886  222.6220 H   0  0  0  0  0  0  0  0  0  0  0  0
  138.4123   70.2749  222.0327 H   0  0  0  0  0  0  0  0  0  0  0  0
  138.8114   68.5601  223.7993 H   0  0  0  0  0  0  0  0  0  0  0  0
  139.6985   67.9812  225.9393 H   0  0  0  0  0  0  0  0  0  0  0  0
  141.6535   71.0084  228.2557 H   0  0  0  0  0  0  0  0  0  0  0  0
  141.2608   72.7086  226.5063 H   0  0  0  0  0  0  0  0  0  0  0  0
  1  2  2  0
  2  3  1  0
  3  4  1  0
  4  5  1  0
  5  6  2  0
  5  7  1  0
  7  8  1  0
  8  9  1  0
  9 10  1  0
 10 11  1  0
 11 12  1  0
 12 13  1  0
 13 14  1  0
 14 15  1  0
 15 16  1  0
 16 17  1  0
 17 18  1  0
 18 19  1  0
  2 20  1  0
 20 21  2  0
 21 22  1  0
 22 23  2  0
 23 24  1  0
 24 25  2  0
 25 26  1  0
 25 27  1  0
 27 28  2  0
 28 29  1  0
 29 30  2  0
 13  7  1  0
 19 14  1  0
 30 20  1  0
 29 23  1  0
  3 31  1  0
  4 32  1  0
  4 33  1  0
  8 34  1  0
  8 35  1  0
  9 36  1  0
  9 37  1  0
 10 38  1  0
 10 39  1  0
 11 40  1  0
 11 41  1  0
 12 42  1  0
 12 43  1  0
 13 44  1  6
 14 45  1  0
 15 46  1  0
 15 47  1  0
 16 48  1  0
 16 49  1  0
 18 50  1  0
 18 51  1  0
 19 52  1  0
 19 53  1  0
 21 54  1  0
 22 55  1  0
 24 56  1  0
 27 57  1  0
 28 58  1  0
M  END
>  <smiles>  (34) 
O=C(NCC(=O)N1CCCCCC1C1CCOCC1)c1ccc2cc(Cl)ccc2n1

>  <score_type>  (34) 
oracle

>  <origin>  (34) 
autodockgpu

>  <m_score__min__energy>  (34) 
-6.4400000000000004

>  <m_primary>  (34) 
energy

>  <rmsd>  (34) 
2.249739636860957

>  <m_score__min__rmsd>  (34) 
2.249739636860957

>  <meeko>  (34) 
{"free_energy": -5.33, "intermolecular_energy": -8.62, "internal_energy": -1.72, "cluster_size": 27, "cluster_id": 1, "rank_in_cluster": 26}

>  <energy>  (34) 
-5.42

>  <cluster_rmsd>  (34) 
1.44

>  <cluster>  (34) 
2

$$$$

     RDKit          3D

 58 61  0  0  0  0  0  0  0  0999 V2000
  139.7380   72.7240  220.3790 O   0  0  0  0  0  0  0  0  0  0  0  0
  140.2020   72.9690  221.5370 C   0  0  0  0  0  0  0  0  0  0  0  0
  140.7930   74.2590  221.6990 N   0  0  0  0  0  0  0  0  0  0  0  0
  140.7870   75.1220  220.5290 C   0  0  0  0  0  0  0  0  0  0  0  0
  141.2110   76.4740  220.9870 C   0  0  0  0  0  0  0  0  0  0  0  0
  141.0360   76.7190  222.2120 O   0  0  0  0  0  0  0  0  0  0  0  0
  141.7680   77.3850  220.0610 N   0  0  0  0  0  0  0  0  0  0  0  0
  142.6450   76.7420  219.0450 C   0  0  0  0  0  0  0  0  0  0  0  0
  141.8570   76.6430  217.7460 C   0  0  0  0  0  0  0  0  0  0  0  0
  141.9090   77.9540  216.9820 C   0  0  0  0  0  0  0  0  0  0  0  0
  141.3710   79.1110  217.7380 C   0  0  0  0  0  0  0  0  0  0  0  0
  142.1970   79.5120  218.9710 C   0  0  0  0  0  0  0  0  0  0  0  0
  141.5240   78.7830  220.1350 C   0  0  2  0  0  0  0  0  0  0  0  0
  141.4910   79.4780  221.4180 C   0  0  0  0  0  0  0  0  0  0  0  0
  141.3660   80.9810  221.0910 C   0  0  0  0  0  0  0  0  0  0  0  0
  140.9480   81.7360  222.3340 C   0  0  0  0  0  0  0  0  0  0  0  0
  142.0230   81.5870  223.2240 O   0  0  0  0  0  0  0  0  0  0  0  0
  142.1140   80.2780  223.6120 C   0  0  0  0  0  0  0  0  0  0  0  0
  142.5090   79.3290  222.4540 C   0  0  0  0  0  0  0  0  0  0  0  0
  140.1390   72.0030  222.6250 C   0  0  0  0  0  0  0  0  0  0  0  0
  139.5010   70.8050  222.3750 C   0  0  0  0  0  0  0  0  0  0  0  0
  139.3960   69.8260  223.3600 C   0  0  0  0  0  0  0  0  0  0  0  0
  139.9470   70.0750  224.6110 C   0  0  0  0  0  0  0  0  0  0  0  0
  139.8440   69.1100  225.5840 C   0  0  0  0  0  0  0  0  0  0  0  0
  140.4030   69.3790  226.8290 C   0  0  0  0  0  0  0  0  0  0  0  0
  140.2960   68.1800  228.0980 Cl  0  0  0  0  0  0  0  0  0  0  0  0
  141.0260   70.5830  227.0260 C   0  0  0  0  0  0  0  0  0  0  0  0
  141.1360   71.5610  226.0550 C   0  0  0  0  0  0  0  0  0  0  0  0
  140.5840   71.2960  224.8260 C   0  0  0  0  0  0  0  0  0  0  0  0
  140.6670   72.2230  223.8430 N   0  0  0  0  0  0  0  0  0  0  0  0
  141.2000   74.5460  222.6190 H   0  0  0  0  0  0  0  0  0  0  0  0
  141.4901   74.7406  219.7739 H   0  0  0  0  0  0  0  0  0  0  0  0
  139.7878   75.1569  220.0704 H   0  0  0  0  0  0  0  0  0  0  0  0
  143.5473   77.3517  218.8898 H   0  0  0  0  0  0  0  0  0  0  0  0
  142.9559   75.7425  219.3830 H   0  0  0  0  0  0  0  0  0  0  0  0
  142.2877   75.8453  217.1230 H   0  0  0  0  0  0  0  0  0  0  0  0
  140.8078   76.4169  217.9867 H   0  0  0  0  0  0  0  0  0  0  0  0
  142.9579   78.1647  216.7263 H   0  0  0  0  0  0  0  0  0  0  0  0
  141.2744   77.8307  216.0920 H   0  0  0  0  0  0  0  0  0  0  0  0
  141.3284   79.9748  217.0582 H   0  0  0  0  0  0  0  0  0  0  0  0
  140.3825   78.8058  218.1118 H   0  0  0  0  0  0  0  0  0  0  0  0
  143.2424   79.1877  218.8612 H   0  0  0  0  0  0  0  0  0  0  0  0
  142.2255   80.6015  219.1196 H   0  0  0  0  0  0  0  0  0  0  0  0
  140.4323   78.8404  220.0128 H   0  0  0  0  0  0  0  0  0  0  0  0
  140.6571   78.9615  221.9158 H   0  0  0  0  0  0  0  0  0  0  0  0
  142.3366   81.3616  220.7401 H   0  0  0  0  0  0  0  0  0  0  0  0
  140.6098   81.1229  220.3048 H   0  0  0  0  0  0  0  0  0  0  0  0
  140.7803   82.7985  222.1037 H   0  0  0  0  0  0  0  0  0  0  0  0
  140.0059   81.3540  222.7540 H   0  0  0  0  0  0  0  0  0  0  0  0
  142.8733   80.1993  224.4040 H   0  0  0  0  0  0  0  0  0  0  0  0
  141.1187   79.9697  223.9647 H   0  0  0  0  0  0  0  0  0  0  0  0
  143.4964   79.6072  222.0569 H   0  0  0  0  0  0  0  0  0  0  0  0
  142.5679   78.2870  222.8014 H   0  0  0  0  0  0  0  0  0  0  0  0
  139.0681   70.6202  221.3808 H   0  0  0  0  0  0  0  0  0  0  0  0
  138.8865   68.8737  223.1515 H   0  0  0  0  0  0  0  0  0  0  0  0
  139.3356   68.1551  225.3846 H   0  0  0  0  0  0  0  0  0  0  0  0
  141.4645   70.7834  228.0147 H   0  0  0  0  0  0  0  0  0  0  0  0
  141.6458   72.5141  226.2590 H   0  0  0  0  0  0  0  0  0  0  0  0
  1  2  2  0
  2  3  1  0
  3  4  1  0
  4  5  1  0
  5  6  2  0
  5  7  1  0
  7  8  1  0
  8  9  1  0
  9 10  1  0
 10 11  1  0
 11 12  1  0
 12 13  1  0
 13 14  1  0
 14 15  1  0
 15 16  1  0
 16 17  1  0
 17 18  1  0
 18 19  1  0
  2 20  1  0
 20 21  2  0
 21 22  1  0
 22 23  2  0
 23 24  1  0
 24 25  2  0
 25 26  1  0
 25 27  1  0
 27 28  2  0
 28 29  1  0
 29 30  2  0
 13  7  1  0
 19 14  1  0
 30 20  1  0
 29 23  1  0
  3 31  1  0
  4 32  1  0
  4 33  1  0
  8 34  1  0
  8 35  1  0
  9 36  1  0
  9 37  1  0
 10 38  1  0
 10 39  1  0
 11 40  1  0
 11 41  1  0
 12 42  1  0
 12 43  1  0
 13 44  1  6
 14 45  1  0
 15 46  1  0
 15 47  1  0
 16 48  1  0
 16 49  1  0
 18 50  1  0
 18 51  1  0
 19 52  1  0
 19 53  1  0
 21 54  1  0
 22 55  1  0
 24 56  1  0
 27 57  1  0
 28 58  1  0
M  END
>  <smiles>  (35) 
O=C(NCC(=O)N1CCCCCC1C1CCOCC1)c1ccc2cc(Cl)ccc2n1

>  <score_type>  (35) 
oracle

>  <origin>  (35) 
autodockgpu

>  <m_score__min__energy>  (35) 
-6.4400000000000004

>  <m_primary>  (35) 
energy

>  <rmsd>  (35) 
2.5181046658209314

>  <m_score__min__rmsd>  (35) 
2.5181046658209314

>  <meeko>  (35) 
{"free_energy": -5.83, "intermolecular_energy": -9.11, "internal_energy": -2.04, "cluster_size": 27, "cluster_id": 1, "rank_in_cluster": 16}

>  <energy>  (35) 
-5.4

>  <cluster_rmsd>  (35) 
1.11

>  <cluster>  (35) 
2

$$$$

     RDKit          3D

 58 61  0  0  0  0  0  0  0  0999 V2000
  134.7660   68.5150  225.0060 O   0  0  0  0  0  0  0  0  0  0  0  0
  135.1840   69.7140  224.9440 C   0  0  0  0  0  0  0  0  0  0  0  0
  136.3950   69.9030  224.2130 N   0  0  0  0  0  0  0  0  0  0  0  0
  136.9920   68.7100  223.6340 C   0  0  0  0  0  0  0  0  0  0  0  0
  138.4300   68.7170  224.0170 C   0  0  0  0  0  0  0  0  0  0  0  0
  138.8110   67.7580  224.7430 O   0  0  0  0  0  0  0  0  0  0  0  0
  139.2710   69.7600  223.5660 N   0  0  0  0  0  0  0  0  0  0  0  0
  139.6730   69.6280  222.1390 C   0  0  0  0  0  0  0  0  0  0  0  0
  138.9270   70.6920  221.3450 C   0  0  0  0  0  0  0  0  0  0  0  0
  139.6650   72.0180  221.3940 C   0  0  0  0  0  0  0  0  0  0  0  0
  139.8130   72.5730  222.7600 C   0  0  0  0  0  0  0  0  0  0  0  0
  140.6890   71.7270  223.7000 C   0  0  0  0  0  0  0  0  0  0  0  0
  139.7020   70.8080  224.4240 C   0  0  2  0  0  0  0  0  0  0  0  0
  139.9400   70.5730  225.8450 C   0  0  0  0  0  0  0  0  0  0  0  0
  140.8080   71.7500  226.3370 C   0  0  0  0  0  0  0  0  0  0  0  0
  140.7870   71.7950  227.8490 C   0  0  0  0  0  0  0  0  0  0  0  0
  141.4190   70.6090  228.2530 O   0  0  0  0  0  0  0  0  0  0  0  0
  140.6360   69.5390  227.9150 C   0  0  0  0  0  0  0  0  0  0  0  0
  140.5090   69.3420  226.3840 C   0  0  0  0  0  0  0  0  0  0  0  0
  134.4790   70.8210  225.5760 C   0  0  0  0  0  0  0  0  0  0  0  0
  133.5150   70.5090  226.5130 C   0  0  0  0  0  0  0  0  0  0  0  0
  132.7950   71.5060  227.1650 C   0  0  0  0  0  0  0  0  0  0  0  0
  133.0610   72.8340  226.8550 C   0  0  0  0  0  0  0  0  0  0  0  0
  132.3510   73.8190  227.4970 C   0  0  0  0  0  0  0  0  0  0  0  0
  132.6340   75.1430  227.1720 C   0  0  0  0  0  0  0  0  0  0  0  0
  131.7540   76.4310  227.9640 Cl  0  0  0  0  0  0  0  0  0  0  0  0
  133.5990   75.3990  226.2360 C   0  0  0  0  0  0  0  0  0  0  0  0
  134.3210   74.4170  225.5830 C   0  0  0  0  0  0  0  0  0  0  0  0
  134.0420   73.1110  225.9030 C   0  0  0  0  0  0  0  0  0  0  0  0
  134.7220   72.1130  225.2910 N   0  0  0  0  0  0  0  0  0  0  0  0
  136.8120   70.8580  224.1100 H   0  0  0  0  0  0  0  0  0  0  0  0
  136.4993   67.8099  224.0304 H   0  0  0  0  0  0  0  0  0  0  0  0
  136.8758   68.7027  222.5402 H   0  0  0  0  0  0  0  0  0  0  0  0
  140.7580   69.7795  222.0403 H   0  0  0  0  0  0  0  0  0  0  0  0
  139.4273   68.6243  221.7618 H   0  0  0  0  0  0  0  0  0  0  0  0
  138.8404   70.3660  220.2980 H   0  0  0  0  0  0  0  0  0  0  0  0
  137.9292   70.8274  221.7878 H   0  0  0  0  0  0  0  0  0  0  0  0
  140.6690   71.8714  220.9691 H   0  0  0  0  0  0  0  0  0  0  0  0
  139.0644   72.7389  220.8199 H   0  0  0  0  0  0  0  0  0  0  0  0
  140.2635   73.5731  222.6777 H   0  0  0  0  0  0  0  0  0  0  0  0
  138.8058   72.5905  223.2018 H   0  0  0  0  0  0  0  0  0  0  0  0
  141.4186   71.1376  223.1253 H   0  0  0  0  0  0  0  0  0  0  0  0
  141.2712   72.3466  224.3979 H   0  0  0  0  0  0  0  0  0  0  0  0
  138.7691   71.3587  224.6149 H   0  0  0  0  0  0  0  0  0  0  0  0
  138.9101   70.4683  226.2171 H   0  0  0  0  0  0  0  0  0  0  0  0
  141.8424   71.6134  225.9886 H   0  0  0  0  0  0  0  0  0  0  0  0
  140.4076   72.6931  225.9367 H   0  0  0  0  0  0  0  0  0  0  0  0
  141.3381   72.6726  228.2180 H   0  0  0  0  0  0  0  0  0  0  0  0
  139.7649   71.8766  228.2473 H   0  0  0  0  0  0  0  0  0  0  0  0
  141.0775   68.6302  228.3500 H   0  0  0  0  0  0  0  0  0  0  0  0
  139.6266   69.7330  228.3067 H   0  0  0  0  0  0  0  0  0  0  0  0
  141.4996   69.1580  225.9426 H   0  0  0  0  0  0  0  0  0  0  0  0
  139.8710   68.4771  226.1495 H   0  0  0  0  0  0  0  0  0  0  0  0
  133.3121   69.4539  226.7487 H   0  0  0  0  0  0  0  0  0  0  0  0
  132.0298   71.2474  227.9117 H   0  0  0  0  0  0  0  0  0  0  0  0
  131.5832   73.5698  228.2442 H   0  0  0  0  0  0  0  0  0  0  0  0
  133.8132   76.4491  225.9882 H   0  0  0  0  0  0  0  0  0  0  0  0
  135.0882   74.6717  224.8370 H   0  0  0  0  0  0  0  0  0  0  0  0
  1  2  2  0
  2  3  1  0
  3  4  1  0
  4  5  1  0
  5  6  2  0
  5  7  1  0
  7  8  1  0
  8  9  1  0
  9 10  1  0
 10 11  1  0
 11 12  1  0
 12 13  1  0
 13 14  1  0
 14 15  1  0
 15 16  1  0
 16 17  1  0
 17 18  1  0
 18 19  1  0
  2 20  1  0
 20 21  2  0
 21 22  1  0
 22 23  2  0
 23 24  1  0
 24 25  2  0
 25 26  1  0
 25 27  1  0
 27 28  2  0
 28 29  1  0
 29 30  2  0
 13  7  1  0
 19 14  1  0
 30 20  1  0
 29 23  1  0
  3 31  1  0
  4 32  1  0
  4 33  1  0
  8 34  1  0
  8 35  1  0
  9 36  1  0
  9 37  1  0
 10 38  1  0
 10 39  1  0
 11 40  1  0
 11 41  1  0
 12 42  1  0
 12 43  1  0
 13 44  1  1
 14 45  1  0
 15 46  1  0
 15 47  1  0
 16 48  1  0
 16 49  1  0
 18 50  1  0
 18 51  1  0
 19 52  1  0
 19 53  1  0
 21 54  1  0
 22 55  1  0
 24 56  1  0
 27 57  1  0
 28 58  1  0
M  END
>  <smiles>  (36) 
O=C(NCC(=O)N1CCCCCC1C1CCOCC1)c1ccc2cc(Cl)ccc2n1

>  <score_type>  (36) 
oracle

>  <origin>  (36) 
autodockgpu

>  <m_score__min__energy>  (36) 
-6.4400000000000004

>  <m_primary>  (36) 
energy

>  <rmsd>  (36) 
7.190802011731232

>  <m_score__min__rmsd>  (36) 
7.190802011731232

>  <meeko>  (36) 
{"free_energy": -5.91, "intermolecular_energy": -9.19, "internal_energy": -1.76, "cluster_size": 1, "cluster_id": 4, "rank_in_cluster": 1}

>  <energy>  (36) 
-5.05

>  <cluster_rmsd>  (36) 
1.73

>  <cluster>  (36) 
2

$$$$

     RDKit          3D

 58 61  0  0  0  0  0  0  0  0999 V2000
  140.6380   72.5640  221.2390 O   0  0  0  0  0  0  0  0  0  0  0  0
  139.8630   72.6360  222.2450 C   0  0  0  0  0  0  0  0  0  0  0  0
  138.8910   73.6810  222.1950 N   0  0  0  0  0  0  0  0  0  0  0  0
  138.9080   74.5210  221.0080 C   0  0  0  0  0  0  0  0  0  0  0  0
  139.4410   75.8470  221.4260 C   0  0  0  0  0  0  0  0  0  0  0  0
  138.7050   76.5160  222.2020 O   0  0  0  0  0  0  0  0  0  0  0  0
  140.7000   76.2780  220.9500 N   0  0  0  0  0  0  0  0  0  0  0  0
  141.7550   75.2300  221.0170 C   0  0  0  0  0  0  0  0  0  0  0  0
  142.0930   74.8200  219.5900 C   0  0  0  0  0  0  0  0  0  0  0  0
  143.1800   75.7110  219.0160 C   0  0  0  0  0  0  0  0  0  0  0  0
  142.9290   77.1600  219.2040 C   0  0  0  0  0  0  0  0  0  0  0  0
  141.4640   77.5940  219.0570 C   0  0  0  0  0  0  0  0  0  0  0  0
  140.9200   77.6040  220.4870 C   0  0  2  0  0  0  0  0  0  0  0  0
  141.4280   78.6420  221.3790 C   0  0  0  0  0  0  0  0  0  0  0  0
  141.0100   78.2270  222.8060 C   0  0  0  0  0  0  0  0  0  0  0  0
  141.8040   79.0260  223.8160 C   0  0  0  0  0  0  0  0  0  0  0  0
  141.3920   80.3540  223.6280 O   0  0  0  0  0  0  0  0  0  0  0  0
  141.8210   80.7940  222.4050 C   0  0  0  0  0  0  0  0  0  0  0  0
  141.1360   80.0640  221.2250 C   0  0  0  0  0  0  0  0  0  0  0  0
  139.9590   71.7200  223.3730 C   0  0  0  0  0  0  0  0  0  0  0  0
  139.5030   70.4310  223.1850 C   0  0  0  0  0  0  0  0  0  0  0  0
  139.5580   69.4920  224.2110 C   0  0  0  0  0  0  0  0  0  0  0  0
  140.0820   69.8730  225.4400 C   0  0  0  0  0  0  0  0  0  0  0  0
  140.1360   68.9480  226.4540 C   0  0  0  0  0  0  0  0  0  0  0  0
  140.6660   69.3510  227.6760 C   0  0  0  0  0  0  0  0  0  0  0  0
  140.7550   68.2060  228.9950 Cl  0  0  0  0  0  0  0  0  0  0  0  0
  141.1040   70.6410  227.8100 C   0  0  0  0  0  0  0  0  0  0  0  0
  141.0550   71.5820  226.7990 C   0  0  0  0  0  0  0  0  0  0  0  0
  140.5330   71.1840  225.5920 C   0  0  0  0  0  0  0  0  0  0  0  0
  140.4630   72.0700  224.5700 N   0  0  0  0  0  0  0  0  0  0  0  0
  138.2120   73.8140  222.9790 H   0  0  0  0  0  0  0  0  0  0  0  0
  139.5577   74.0771  220.2394 H   0  0  0  0  0  0  0  0  0  0  0  0
  137.8996   74.6186  220.5794 H   0  0  0  0  0  0  0  0  0  0  0  0
  142.6507   75.6316  221.5134 H   0  0  0  0  0  0  0  0  0  0  0  0
  141.3998   74.3626  221.5927 H   0  0  0  0  0  0  0  0  0  0  0  0
  142.4430   73.7772  219.5877 H   0  0  0  0  0  0  0  0  0  0  0  0
  141.1898   74.9222  218.9705 H   0  0  0  0  0  0  0  0  0  0  0  0
  144.1311   75.4575  219.5070 H   0  0  0  0  0  0  0  0  0  0  0  0
  143.2035   75.5286  217.9315 H   0  0  0  0  0  0  0  0  0  0  0  0
  143.2658   77.4354  220.2143 H   0  0  0  0  0  0  0  0  0  0  0  0
  143.4810   77.6720  218.4020 H   0  0  0  0  0  0  0  0  0  0  0  0
  141.3989   78.5968  218.6096 H   0  0  0  0  0  0  0  0  0  0  0  0
  140.8938   76.9227  218.3981 H   0  0  0  0  0  0  0  0  0  0  0  0
  139.9043   78.0264  220.4832 H   0  0  0  0  0  0  0  0  0  0  0  0
  142.4942   78.6495  221.1084 H   0  0  0  0  0  0  0  0  0  0  0  0
  139.9366   78.4230  222.9454 H   0  0  0  0  0  0  0  0  0  0  0  0
  141.2082   77.1545  222.9491 H   0  0  0  0  0  0  0  0  0  0  0  0
  141.5774   78.6913  224.8390 H   0  0  0  0  0  0  0  0  0  0  0  0
  142.8888   78.9052  223.6799 H   0  0  0  0  0  0  0  0  0  0  0  0
  141.6055   81.8697  222.3242 H   0  0  0  0  0  0  0  0  0  0  0  0
  142.8990   80.5849  222.3398 H   0  0  0  0  0  0  0  0  0  0  0  0
  140.0494   80.2325  221.2555 H   0  0  0  0  0  0  0  0  0  0  0  0
  141.5076   80.4400  220.2604 H   0  0  0  0  0  0  0  0  0  0  0  0
  139.0892   70.1409  222.2080 H   0  0  0  0  0  0  0  0  0  0  0  0
  139.1931   68.4666  224.0516 H   0  0  0  0  0  0  0  0  0  0  0  0
  139.7717   67.9209  226.3048 H   0  0  0  0  0  0  0  0  0  0  0  0
  141.5202   70.9471  228.7811 H   0  0  0  0  0  0  0  0  0  0  0  0
  141.4192   72.6083  226.9544 H   0  0  0  0  0  0  0  0  0  0  0  0
  1  2  2  0
  2  3  1  0
  3  4  1  0
  4  5  1  0
  5  6  2  0
  5  7  1  0
  7  8  1  0
  8  9  1  0
  9 10  1  0
 10 11  1  0
 11 12  1  0
 12 13  1  0
 13 14  1  0
 14 15  1  0
 15 16  1  0
 16 17  1  0
 17 18  1  0
 18 19  1  0
  2 20  1  0
 20 21  2  0
 21 22  1  0
 22 23  2  0
 23 24  1  0
 24 25  2  0
 25 26  1  0
 25 27  1  0
 27 28  2  0
 28 29  1  0
 29 30  2  0
 13  7  1  0
 19 14  1  0
 30 20  1  0
 29 23  1  0
  3 31  1  0
  4 32  1  0
  4 33  1  0
  8 34  1  0
  8 35  1  0
  9 36  1  0
  9 37  1  0
 10 38  1  0
 10 39  1  0
 11 40  1  0
 11 41  1  0
 12 42  1  0
 12 43  1  0
 13 44  1  6
 14 45  1  0
 15 46  1  0
 15 47  1  0
 16 48  1  0
 16 49  1  0
 18 50  1  0
 18 51  1  0
 19 52  1  0
 19 53  1  0
 21 54  1  0
 22 55  1  0
 24 56  1  0
 27 57  1  0
 28 58  1  0
M  END
>  <smiles>  (37) 
O=C(NCC(=O)N1CCCCCC1C1CCOCC1)c1ccc2cc(Cl)ccc2n1

>  <score_type>  (37) 
oracle

>  <origin>  (37) 
autodockgpu

>  <m_score__min__energy>  (37) 
-6.4400000000000004

>  <m_primary>  (37) 
energy

>  <rmsd>  (37) 
1.9536933737354605

>  <m_score__min__rmsd>  (37) 
1.9536933737354605

>  <meeko>  (37) 
{"free_energy": -5.85, "intermolecular_energy": -9.13, "internal_energy": -1.65, "cluster_size": 27, "cluster_id": 1, "rank_in_cluster": 15}

>  <energy>  (37) 
-4.87

>  <cluster_rmsd>  (37) 
1.3

>  <cluster>  (37) 
2

$$$$

     RDKit          3D

 58 61  0  0  0  0  0  0  0  0999 V2000
  141.8280   72.9120  221.2180 O   0  0  0  0  0  0  0  0  0  0  0  0
  141.0080   73.7740  221.6670 C   0  0  0  0  0  0  0  0  0  0  0  0
  139.9000   73.2440  222.3950 N   0  0  0  0  0  0  0  0  0  0  0  0
  139.8500   71.7970  222.5310 C   0  0  0  0  0  0  0  0  0  0  0  0
  138.7330   71.4880  223.4650 C   0  0  0  0  0  0  0  0  0  0  0  0
  137.5900   71.8790  223.1040 O   0  0  0  0  0  0  0  0  0  0  0  0
  138.9980   70.7960  224.6690 N   0  0  0  0  0  0  0  0  0  0  0  0
  140.0600   71.4280  225.4990 C   0  0  0  0  0  0  0  0  0  0  0  0
  141.3720   70.7180  225.1930 C   0  0  0  0  0  0  0  0  0  0  0  0
  141.4730   69.4130  225.9620 C   0  0  0  0  0  0  0  0  0  0  0  0
  140.3620   68.4690  225.6920 C   0  0  0  0  0  0  0  0  0  0  0  0
  138.9910   68.9260  226.2170 C   0  0  0  0  0  0  0  0  0  0  0  0
  138.3230   69.5950  225.0150 C   0  0  2  0  0  0  0  0  0  0  0  0
  137.7740   68.7130  223.9890 C   0  0  0  0  0  0  0  0  0  0  0  0
  138.9200   68.4520  222.9880 C   0  0  0  0  0  0  0  0  0  0  0  0
  138.5670   67.2670  222.1160 C   0  0  0  0  0  0  0  0  0  0  0  0
  137.4500   67.6850  221.3760 O   0  0  0  0  0  0  0  0  0  0  0  0
  136.3810   67.8420  222.2170 C   0  0  0  0  0  0  0  0  0  0  0  0
  136.5680   69.0060  223.2210 C   0  0  0  0  0  0  0  0  0  0  0  0
  141.1830   75.2040  221.4540 C   0  0  0  0  0  0  0  0  0  0  0  0
  141.8490   75.5990  220.3120 C   0  0  0  0  0  0  0  0  0  0  0  0
  142.0590   76.9470  220.0320 C   0  0  0  0  0  0  0  0  0  0  0  0
  141.5860   77.8980  220.9270 C   0  0  0  0  0  0  0  0  0  0  0  0
  141.7930   79.2280  220.6530 C   0  0  0  0  0  0  0  0  0  0  0  0
  141.3090   80.1630  221.5620 C   0  0  0  0  0  0  0  0  0  0  0  0
  141.5500   81.8690  221.2530 Cl  0  0  0  0  0  0  0  0  0  0  0  0
  140.6550   79.7190  222.6800 C   0  0  0  0  0  0  0  0  0  0  0  0
  140.4400   78.3840  222.9680 C   0  0  0  0  0  0  0  0  0  0  0  0
  140.9170   77.4600  222.0700 C   0  0  0  0  0  0  0  0  0  0  0  0
  140.7320   76.1400  222.3080 N   0  0  0  0  0  0  0  0  0  0  0  0
  139.1760   73.8810  222.8010 H   0  0  0  0  0  0  0  0  0  0  0  0
  139.6640   71.3314  221.5519 H   0  0  0  0  0  0  0  0  0  0  0  0
  140.8034   71.4048  222.9146 H   0  0  0  0  0  0  0  0  0  0  0  0
  140.1449   72.4958  225.2489 H   0  0  0  0  0  0  0  0  0  0  0  0
  139.8157   71.3413  226.5680 H   0  0  0  0  0  0  0  0  0  0  0  0
  141.4239   70.5058  224.1149 H   0  0  0  0  0  0  0  0  0  0  0  0
  142.2041   71.3704  225.4963 H   0  0  0  0  0  0  0  0  0  0  0  0
  142.4187   68.9222  225.6886 H   0  0  0  0  0  0  0  0  0  0  0  0
  141.4230   69.6676  227.0310 H   0  0  0  0  0  0  0  0  0  0  0  0
  140.2844   68.3331  224.6032 H   0  0  0  0  0  0  0  0  0  0  0  0
  140.6062   67.5394  226.2269 H   0  0  0  0  0  0  0  0  0  0  0  0
  138.3996   68.0645  226.5606 H   0  0  0  0  0  0  0  0  0  0  0  0
  139.0785   69.6051  227.0779 H   0  0  0  0  0  0  0  0  0  0  0  0
  137.3284   69.9588  225.3123 H   0  0  0  0  0  0  0  0  0  0  0  0
  137.3934   67.8843  224.6041 H   0  0  0  0  0  0  0  0  0  0  0  0
  139.0655   69.3412  222.3571 H   0  0  0  0  0  0  0  0  0  0  0  0
  139.8474   68.2384  223.5396 H   0  0  0  0  0  0  0  0  0  0  0  0
  139.4031   67.0160  221.4467 H   0  0  0  0  0  0  0  0  0  0  0  0
  138.3578   66.3640  222.7083 H   0  0  0  0  0  0  0  0  0  0  0  0
  135.4847   68.0418  221.6114 H   0  0  0  0  0  0  0  0  0  0  0  0
  136.2828   66.9154  222.8015 H   0  0  0  0  0  0  0  0  0  0  0  0
  136.6853   69.9568  222.6804 H   0  0  0  0  0  0  0  0  0  0  0  0
  135.6936   69.1008  223.8816 H   0  0  0  0  0  0  0  0  0  0  0  0
  142.2202   74.8367  219.6112 H   0  0  0  0  0  0  0  0  0  0  0  0
  142.5899   77.2530  219.1185 H   0  0  0  0  0  0  0  0  0  0  0  0
  142.3248   79.5437  219.7433 H   0  0  0  0  0  0  0  0  0  0  0  0
  140.2783   80.4689  223.3911 H   0  0  0  0  0  0  0  0  0  0  0  0
  139.9083   78.0740  223.8797 H   0  0  0  0  0  0  0  0  0  0  0  0
  1  2  2  0
  2  3  1  0
  3  4  1  0
  4  5  1  0
  5  6  2  0
  5  7  1  0
  7  8  1  0
  8  9  1  0
  9 10  1  0
 10 11  1  0
 11 12  1  0
 12 13  1  0
 13 14  1  0
 14 15  1  0
 15 16  1  0
 16 17  1  0
 17 18  1  0
 18 19  1  0
  2 20  1  0
 20 21  2  0
 21 22  1  0
 22 23  2  0
 23 24  1  0
 24 25  2  0
 25 26  1  0
 25 27  1  0
 27 28  2  0
 28 29  1  0
 29 30  2  0
 13  7  1  0
 19 14  1  0
 30 20  1  0
 29 23  1  0
  3 31  1  0
  4 32  1  0
  4 33  1  0
  8 34  1  0
  8 35  1  0
  9 36  1  0
  9 37  1  0
 10 38  1  0
 10 39  1  0
 11 40  1  0
 11 41  1  0
 12 42  1  0
 12 43  1  0
 13 44  1  1
 14 45  1  0
 15 46  1  0
 15 47  1  0
 16 48  1  0
 16 49  1  0
 18 50  1  0
 18 51  1  0
 19 52  1  0
 19 53  1  0
 21 54  1  0
 22 55  1  0
 24 56  1  0
 27 57  1  0
 28 58  1  0
M  END
>  <smiles>  (38) 
O=C(NCC(=O)N1CCCCCC1C1CCOCC1)c1ccc2cc(Cl)ccc2n1

>  <score_type>  (38) 
oracle

>  <origin>  (38) 
autodockgpu

>  <m_score__min__energy>  (38) 
-6.4400000000000004

>  <m_primary>  (38) 
energy

>  <rmsd>  (38) 
8.614514009668598

>  <m_score__min__rmsd>  (38) 
8.614514009668598

>  <meeko>  (38) 
{"free_energy": -5.25, "intermolecular_energy": -8.53, "internal_energy": -1.71, "cluster_size": 4, "cluster_id": 3, "rank_in_cluster": 4}

>  <energy>  (38) 
-4.71

>  <cluster_rmsd>  (38) 
1.35

>  <cluster>  (38) 
2

$$$$

     RDKit          3D

 58 61  0  0  0  0  0  0  0  0999 V2000
  139.5110   71.8670  220.9160 O   0  0  0  0  0  0  0  0  0  0  0  0
  139.5740   72.3080  222.1060 C   0  0  0  0  0  0  0  0  0  0  0  0
  139.4640   73.7260  222.2410 N   0  0  0  0  0  0  0  0  0  0  0  0
  139.2930   74.4780  221.0080 C   0  0  0  0  0  0  0  0  0  0  0  0
  139.7700   75.8630  221.2780 C   0  0  0  0  0  0  0  0  0  0  0  0
  139.6500   76.2640  222.4680 O   0  0  0  0  0  0  0  0  0  0  0  0
  140.3140   76.6340  220.2260 N   0  0  0  0  0  0  0  0  0  0  0  0
  140.6760   75.8340  219.0240 C   0  0  0  0  0  0  0  0  0  0  0  0
  142.1950   75.8150  218.9190 C   0  0  0  0  0  0  0  0  0  0  0  0
  142.7880   77.1110  219.4410 C   0  0  0  0  0  0  0  0  0  0  0  0
  142.3060   78.3210  218.7300 C   0  0  0  0  0  0  0  0  0  0  0  0
  140.8260   78.6520  218.9770 C   0  0  0  0  0  0  0  0  0  0  0  0
  140.5160   78.0360  220.3420 C   0  0  2  0  0  0  0  0  0  0  0  0
  141.2030   78.6080  221.4960 C   0  0  0  0  0  0  0  0  0  0  0  0
  140.1000   79.0090  222.4990 C   0  0  0  0  0  0  0  0  0  0  0  0
  140.7170   79.2550  223.8580 C   0  0  0  0  0  0  0  0  0  0  0  0
  141.5490   80.3710  223.6780 O   0  0  0  0  0  0  0  0  0  0  0  0
  142.5950   80.0330  222.8640 C   0  0  0  0  0  0  0  0  0  0  0  0
  142.1550   79.7110  221.4150 C   0  0  0  0  0  0  0  0  0  0  0  0
  139.7490   71.4320  223.2570 C   0  0  0  0  0  0  0  0  0  0  0  0
  139.3710   70.1130  223.1130 C   0  0  0  0  0  0  0  0  0  0  0  0
  139.5040   69.2080  224.1640 C   0  0  0  0  0  0  0  0  0  0  0  0
  140.0270   69.6560  225.3700 C   0  0  0  0  0  0  0  0  0  0  0  0
  140.1590   68.7640  226.4070 C   0  0  0  0  0  0  0  0  0  0  0  0
  140.6860   69.2340  227.6060 C   0  0  0  0  0  0  0  0  0  0  0  0
  140.8720   68.1340  228.9540 Cl  0  0  0  0  0  0  0  0  0  0  0  0
  141.0450   70.5520  227.6960 C   0  0  0  0  0  0  0  0  0  0  0  0
  140.9180   71.4590  226.6610 C   0  0  0  0  0  0  0  0  0  0  0  0
  140.3980   70.9950  225.4770 C   0  0  0  0  0  0  0  0  0  0  0  0
  140.2540   71.8460  224.4330 N   0  0  0  0  0  0  0  0  0  0  0  0
  139.5050   74.1750  223.1850 H   0  0  0  0  0  0  0  0  0  0  0  0
  139.8874   74.0233  220.2018 H   0  0  0  0  0  0  0  0  0  0  0  0
  138.2402   74.4786  220.6892 H   0  0  0  0  0  0  0  0  0  0  0  0
  140.2951   74.8074  219.1289 H   0  0  0  0  0  0  0  0  0  0  0  0
  140.2334   76.2769  218.1196 H   0  0  0  0  0  0  0  0  0  0  0  0
  142.5869   74.9749  219.5112 H   0  0  0  0  0  0  0  0  0  0  0  0
  142.4737   75.7009  217.8610 H   0  0  0  0  0  0  0  0  0  0  0  0
  142.5272   77.2075  220.5053 H   0  0  0  0  0  0  0  0  0  0  0  0
  143.8741   77.0548  219.2763 H   0  0  0  0  0  0  0  0  0  0  0  0
  142.9106   79.1785  219.0604 H   0  0  0  0  0  0  0  0  0  0  0  0
  142.4075   78.1156  217.6541 H   0  0  0  0  0  0  0  0  0  0  0  0
  140.6697   79.7406  218.9976 H   0  0  0  0  0  0  0  0  0  0  0  0
  140.1726   78.2595  218.1839 H   0  0  0  0  0  0  0  0  0  0  0  0
  139.5321   78.3913  220.6821 H   0  0  0  0  0  0  0  0  0  0  0  0
  141.8977   77.7945  221.7521 H   0  0  0  0  0  0  0  0  0  0  0  0
  139.6039   79.9268  222.1504 H   0  0  0  0  0  0  0  0  0  0  0  0
  139.3611   78.1976  222.5741 H   0  0  0  0  0  0  0  0  0  0  0  0
  139.9377   79.4691  224.6042 H   0  0  0  0  0  0  0  0  0  0  0  0
  141.2713   78.3793  224.2267 H   0  0  0  0  0  0  0  0  0  0  0  0
  143.3035   80.8740  222.8364 H   0  0  0  0  0  0  0  0  0  0  0  0
  143.0534   79.1230  223.2784 H   0  0  0  0  0  0  0  0  0  0  0  0
  141.6764   80.5911  220.9606 H   0  0  0  0  0  0  0  0  0  0  0  0
  143.0200   79.4394  220.7921 H   0  0  0  0  0  0  0  0  0  0  0  0
  138.9579   69.7703  222.1529 H   0  0  0  0  0  0  0  0  0  0  0  0
  139.2003   68.1580  224.0408 H   0  0  0  0  0  0  0  0  0  0  0  0
  139.8577   67.7122  226.2929 H   0  0  0  0  0  0  0  0  0  0  0  0
  141.4595   70.9108  228.6496 H   0  0  0  0  0  0  0  0  0  0  0  0
  141.2209   72.5097  226.7803 H   0  0  0  0  0  0  0  0  0  0  0  0
  1  2  2  0
  2  3  1  0
  3  4  1  0
  4  5  1  0
  5  6  2  0
  5  7  1  0
  7  8  1  0
  8  9  1  0
  9 10  1  0
 10 11  1  0
 11 12  1  0
 12 13  1  0
 13 14  1  0
 14 15  1  0
 15 16  1  0
 16 17  1  0
 17 18  1  0
 18 19  1  0
  2 20  1  0
 20 21  2  0
 21 22  1  0
 22 23  2  0
 23 24  1  0
 24 25  2  0
 25 26  1  0
 25 27  1  0
 27 28  2  0
 28 29  1  0
 29 30  2  0
 13  7  1  0
 19 14  1  0
 30 20  1  0
 29 23  1  0
  3 31  1  0
  4 32  1  0
  4 33  1  0
  8 34  1  0
  8 35  1  0
  9 36  1  0
  9 37  1  0
 10 38  1  0
 10 39  1  0
 11 40  1  0
 11 41  1  0
 12 42  1  0
 12 43  1  0
 13 44  1  1
 14 45  1  0
 15 46  1  0
 15 47  1  0
 16 48  1  0
 16 49  1  0
 18 50  1  0
 18 51  1  0
 19 52  1  0
 19 53  1  0
 21 54  1  0
 22 55  1  0
 24 56  1  0
 27 57  1  0
 28 58  1  0
M  END
>  <smiles>  (39) 
O=C(NCC(=O)N1CCCCCC1C1CCOCC1)c1ccc2cc(Cl)ccc2n1

>  <score_type>  (39) 
oracle

>  <origin>  (39) 
autodockgpu

>  <m_score__min__energy>  (39) 
-6.4400000000000004

>  <m_primary>  (39) 
energy

>  <rmsd>  (39) 
1.5964802858325327

>  <m_score__min__rmsd>  (39) 
1.5964802858325327

>  <meeko>  (39) 
{"free_energy": -5.78, "intermolecular_energy": -9.06, "internal_energy": -1.85, "cluster_size": 27, "cluster_id": 1, "rank_in_cluster": 19}

>  <energy>  (39) 
-4.19

>  <cluster_rmsd>  (39) 
1.15

>  <cluster>  (39) 
2

$$$$

     RDKit          3D

 58 61  0  0  0  0  0  0  0  0999 V2000
  139.5440   73.9860  221.9040 O   0  0  0  0  0  0  0  0  0  0  0  0
  139.6060   72.7220  221.7830 C   0  0  0  0  0  0  0  0  0  0  0  0
  139.4860   72.2280  220.4490 N   0  0  0  0  0  0  0  0  0  0  0  0
  139.3110   73.2250  219.4060 C   0  0  0  0  0  0  0  0  0  0  0  0
  140.5560   73.2210  218.5910 C   0  0  0  0  0  0  0  0  0  0  0  0
  140.7110   72.2300  217.8280 O   0  0  0  0  0  0  0  0  0  0  0  0
  141.4740   74.2910  218.7080 N   0  0  0  0  0  0  0  0  0  0  0  0
  141.4730   75.2090  217.5370 C   0  0  0  0  0  0  0  0  0  0  0  0
  142.6810   76.1270  217.6660 C   0  0  0  0  0  0  0  0  0  0  0  0
  142.4310   77.2040  218.7070 C   0  0  0  0  0  0  0  0  0  0  0  0
  142.7870   76.7980  220.0880 C   0  0  0  0  0  0  0  0  0  0  0  0
  141.9320   75.6580  220.6610 C   0  0  0  0  0  0  0  0  0  0  0  0
  142.3280   74.4340  219.8340 C   0  0  2  0  0  0  0  0  0  0  0  0
  143.7530   74.1290  219.7470 C   0  0  0  0  0  0  0  0  0  0  0  0
  143.9140   73.1590  218.5570 C   0  0  0  0  0  0  0  0  0  0  0  0
  145.3710   73.0880  218.1570 C   0  0  0  0  0  0  0  0  0  0  0  0
  146.0200   72.5120  219.2610 O   0  0  0  0  0  0  0  0  0  0  0  0
  145.9790   73.3810  220.3170 C   0  0  0  0  0  0  0  0  0  0  0  0
  144.5460   73.6100  220.8570 C   0  0  0  0  0  0  0  0  0  0  0  0
  139.7850   71.8360  222.9250 C   0  0  0  0  0  0  0  0  0  0  0  0
  139.3750   70.5260  222.7830 C   0  0  0  0  0  0  0  0  0  0  0  0
  139.5100   69.6130  223.8260 C   0  0  0  0  0  0  0  0  0  0  0  0
  140.0670   70.0420  225.0230 C   0  0  0  0  0  0  0  0  0  0  0  0
  140.2010   69.1430  226.0530 C   0  0  0  0  0  0  0  0  0  0  0  0
  140.7620   69.5940  227.2430 C   0  0  0  0  0  0  0  0  0  0  0  0
  140.9520   68.4830  228.5810 Cl  0  0  0  0  0  0  0  0  0  0  0  0
  141.1520   70.9030  227.3330 C   0  0  0  0  0  0  0  0  0  0  0  0
  141.0240   71.8180  226.3050 C   0  0  0  0  0  0  0  0  0  0  0  0
  140.4700   71.3730  225.1290 C   0  0  0  0  0  0  0  0  0  0  0  0
  140.3230   72.2320  224.0930 N   0  0  0  0  0  0  0  0  0  0  0  0
  139.5260   71.2000  220.2570 H   0  0  0  0  0  0  0  0  0  0  0  0
  138.4463   72.9667  218.7770 H   0  0  0  0  0  0  0  0  0  0  0  0
  139.1269   74.2194  219.8388 H   0  0  0  0  0  0  0  0  0  0  0  0
  141.5421   74.6279  216.6056 H   0  0  0  0  0  0  0  0  0  0  0  0
  140.5439   75.7972  217.5099 H   0  0  0  0  0  0  0  0  0  0  0  0
  143.5560   75.5317  217.9659 H   0  0  0  0  0  0  0  0  0  0  0  0
  142.8617   76.6106  216.6947 H   0  0  0  0  0  0  0  0  0  0  0  0
  143.0285   78.0884  218.4409 H   0  0  0  0  0  0  0  0  0  0  0  0
  141.3501   77.4081  218.7025 H   0  0  0  0  0  0  0  0  0  0  0  0
  143.8378   76.4727  220.0896 H   0  0  0  0  0  0  0  0  0  0  0  0
  142.6051   77.6748  220.7268 H   0  0  0  0  0  0  0  0  0  0  0  0
  142.1586   75.4986  221.7255 H   0  0  0  0  0  0  0  0  0  0  0  0
  140.8546   75.8722  220.6041 H   0  0  0  0  0  0  0  0  0  0  0  0
  142.1128   73.5233  220.4122 H   0  0  0  0  0  0  0  0  0  0  0  0
  144.1815   75.1401  219.6828 H   0  0  0  0  0  0  0  0  0  0  0  0
  143.5653   72.1579  218.8504 H   0  0  0  0  0  0  0  0  0  0  0  0
  143.3177   73.5206  217.7063 H   0  0  0  0  0  0  0  0  0  0  0  0
  145.4969   72.4599  217.2628 H   0  0  0  0  0  0  0  0  0  0  0  0
  145.7805   74.0774  217.9052 H   0  0  0  0  0  0  0  0  0  0  0  0
  146.5990   72.9746  221.1297 H   0  0  0  0  0  0  0  0  0  0  0  0
  146.3548   74.3511  219.9595 H   0  0  0  0  0  0  0  0  0  0  0  0
  144.1204   72.6609  221.2148 H   0  0  0  0  0  0  0  0  0  0  0  0
  144.5512   74.3154  221.7011 H   0  0  0  0  0  0  0  0  0  0  0  0
  138.9342   70.1975  221.8302 H   0  0  0  0  0  0  0  0  0  0  0  0
  139.1811   68.5705  223.7035 H   0  0  0  0  0  0  0  0  0  0  0  0
  139.8747   68.0986  225.9400 H   0  0  0  0  0  0  0  0  0  0  0  0
  141.5936   71.2472  228.2798 H   0  0  0  0  0  0  0  0  0  0  0  0
  141.3526   72.8610  226.4236 H   0  0  0  0  0  0  0  0  0  0  0  0
  1  2  2  0
  2  3  1  0
  3  4  1  0
  4  5  1  0
  5  6  2  0
  5  7  1  0
  7  8  1  0
  8  9  1  0
  9 10  1  0
 10 11  1  0
 11 12  1  0
 12 13  1  0
 13 14  1  0
 14 15  1  0
 15 16  1  0
 16 17  1  0
 17 18  1  0
 18 19  1  0
  2 20  1  0
 20 21  2  0
 21 22  1  0
 22 23  2  0
 23 24  1  0
 24 25  2  0
 25 26  1  0
 25 27  1  0
 27 28  2  0
 28 29  1  0
 29 30  2  0
 13  7  1  0
 19 14  1  0
 30 20  1  0
 29 23  1  0
  3 31  1  0
  4 32  1  0
  4 33  1  0
  8 34  1  0
  8 35  1  0
  9 36  1  0
  9 37  1  0
 10 38  1  0
 10 39  1  0
 11 40  1  0
 11 41  1  0
 12 42  1  0
 12 43  1  0
 13 44  1  1
 14 45  1  0
 15 46  1  0
 15 47  1  0
 16 48  1  0
 16 49  1  0
 18 50  1  0
 18 51  1  0
 19 52  1  0
 19 53  1  0
 21 54  1  0
 22 55  1  0
 24 56  1  0
 27 57  1  0
 28 58  1  0
M  END
>  <smiles>  (40) 
O=C(NCC(=O)N1CCCCCC1C1CCOCC1)c1ccc2cc(Cl)ccc2n1

>  <score_type>  (40) 
oracle

>  <origin>  (40) 
autodockgpu

>  <m_score__min__energy>  (40) 
-6.4400000000000004

>  <m_primary>  (40) 
energy

>  <rmsd>  (40) 
2.4599711975648018

>  <m_score__min__rmsd>  (40) 
2.4599711975648018

>  <meeko>  (40) 
{"free_energy": -5.56, "intermolecular_energy": -8.84, "internal_energy": -1.82, "cluster_size": 12, "cluster_id": 2, "rank_in_cluster": 5}

>  <energy>  (40) 
-5.94

>  <cluster_rmsd>  (40) 
0.0

>  <cluster>  (40) 
3

$$$$

     RDKit          3D

 58 61  0  0  0  0  0  0  0  0999 V2000
  140.7680   72.3780  220.9460 O   0  0  0  0  0  0  0  0  0  0  0  0
  140.1330   72.6400  222.0160 C   0  0  0  0  0  0  0  0  0  0  0  0
  139.4370   73.8870  222.0250 N   0  0  0  0  0  0  0  0  0  0  0  0
  139.5390   74.6910  220.8180 C   0  0  0  0  0  0  0  0  0  0  0  0
  140.7300   75.5690  220.9840 C   0  0  0  0  0  0  0  0  0  0  0  0
  141.1010   75.7750  222.1710 O   0  0  0  0  0  0  0  0  0  0  0  0
  141.3640   76.1120  219.8430 N   0  0  0  0  0  0  0  0  0  0  0  0
  140.9270   77.4970  219.5180 C   0  0  0  0  0  0  0  0  0  0  0  0
  142.1500   78.2720  219.0470 C   0  0  0  0  0  0  0  0  0  0  0  0
  142.7860   77.5970  217.8440 C   0  0  0  0  0  0  0  0  0  0  0  0
  141.8680   76.6950  217.1070 C   0  0  0  0  0  0  0  0  0  0  0  0
  141.8430   75.2530  217.6230 C   0  0  0  0  0  0  0  0  0  0  0  0
  142.3040   75.3710  219.0770 C   0  0  2  0  0  0  0  0  0  0  0  0
  143.0030   74.2210  219.6420 C   0  0  0  0  0  0  0  0  0  0  0  0
  144.3900   74.7340  220.0840 C   0  0  0  0  0  0  0  0  0  0  0  0
  145.0300   73.7240  221.0100 C   0  0  0  0  0  0  0  0  0  0  0  0
  145.2360   72.5860  220.2150 O   0  0  0  0  0  0  0  0  0  0  0  0
  144.0270   72.0440  219.8740 C   0  0  0  0  0  0  0  0  0  0  0  0
  143.1970   72.9570  218.9380 C   0  0  0  0  0  0  0  0  0  0  0  0
  140.1170   71.7350  223.1570 C   0  0  0  0  0  0  0  0  0  0  0  0
  139.5810   70.4780  222.9630 C   0  0  0  0  0  0  0  0  0  0  0  0
  139.5260   69.5510  224.0010 C   0  0  0  0  0  0  0  0  0  0  0  0
  140.0240   69.9120  225.2460 C   0  0  0  0  0  0  0  0  0  0  0  0
  139.9700   68.9990  226.2710 C   0  0  0  0  0  0  0  0  0  0  0  0
  140.4750   69.3800  227.5100 C   0  0  0  0  0  0  0  0  0  0  0  0
  140.4290   68.2500  228.8450 Cl  0  0  0  0  0  0  0  0  0  0  0  0
  140.9970   70.6390  227.6500 C   0  0  0  0  0  0  0  0  0  0  0  0
  141.0570   71.5670  226.6270 C   0  0  0  0  0  0  0  0  0  0  0  0
  140.5590   71.1900  225.4040 C   0  0  0  0  0  0  0  0  0  0  0  0
  140.5950   72.0640  224.3710 N   0  0  0  0  0  0  0  0  0  0  0  0
  138.8880   74.1830  222.8650 H   0  0  0  0  0  0  0  0  0  0  0  0
  139.6674   74.0410  219.9400 H   0  0  0  0  0  0  0  0  0  0  0  0
  138.6279   75.2876  220.6635 H   0  0  0  0  0  0  0  0  0  0  0  0
  140.1693   77.4731  218.7210 H   0  0  0  0  0  0  0  0  0  0  0  0
  140.4844   77.9780  220.4027 H   0  0  0  0  0  0  0  0  0  0  0  0
  141.8457   79.2919  218.7692 H   0  0  0  0  0  0  0  0  0  0  0  0
  142.8853   78.3011  219.8646 H   0  0  0  0  0  0  0  0  0  0  0  0
  143.1338   78.3782  217.1520 H   0  0  0  0  0  0  0  0  0  0  0  0
  143.6087   76.9741  218.2249 H   0  0  0  0  0  0  0  0  0  0  0  0
  140.8499   77.1046  217.1828 H   0  0  0  0  0  0  0  0  0  0  0  0
  142.2381   76.6502  216.0721 H   0  0  0  0  0  0  0  0  0  0  0  0
  140.8267   74.8357  217.5679 H   0  0  0  0  0  0  0  0  0  0  0  0
  142.4807   74.5806  217.0304 H   0  0  0  0  0  0  0  0  0  0  0  0
  143.2001   76.0073  219.1219 H   0  0  0  0  0  0  0  0  0  0  0  0
  142.2816   73.8889  220.4031 H   0  0  0  0  0  0  0  0  0  0  0  0
  145.0277   74.8755  219.1989 H   0  0  0  0  0  0  0  0  0  0  0  0
  144.2753   75.6929  220.6107 H   0  0  0  0  0  0  0  0  0  0  0  0
  145.9870   74.1048  221.3962 H   0  0  0  0  0  0  0  0  0  0  0  0
  144.4013   73.5088  221.8866 H   0  0  0  0  0  0  0  0  0  0  0  0
  144.2039   71.0862  219.3628 H   0  0  0  0  0  0  0  0  0  0  0  0
  143.4512   71.9139  220.8022 H   0  0  0  0  0  0  0  0  0  0  0  0
  143.7402   73.1276  217.9968 H   0  0  0  0  0  0  0  0  0  0  0  0
  142.2314   72.4924  218.6893 H   0  0  0  0  0  0  0  0  0  0  0  0
  139.1907   70.2037  221.9718 H   0  0  0  0  0  0  0  0  0  0  0  0
  139.0962   68.5517  223.8377 H   0  0  0  0  0  0  0  0  0  0  0  0
  139.5409   67.9980  226.1169 H   0  0  0  0  0  0  0  0  0  0  0  0
  141.3918   70.9287  228.6350 H   0  0  0  0  0  0  0  0  0  0  0  0
  141.4864   72.5671  226.7863 H   0  0  0  0  0  0  0  0  0  0  0  0
  1  2  2  0
  2  3  1  0
  3  4  1  0
  4  5  1  0
  5  6  2  0
  5  7  1  0
  7  8  1  0
  8  9  1  0
  9 10  1  0
 10 11  1  0
 11 12  1  0
 12 13  1  0
 13 14  1  0
 14 15  1  0
 15 16  1  0
 16 17  1  0
 17 18  1  0
 18 19  1  0
  2 20  1  0
 20 21  2  0
 21 22  1  0
 22 23  2  0
 23 24  1  0
 24 25  2  0
 25 26  1  0
 25 27  1  0
 27 28  2  0
 28 29  1  0
 29 30  2  0
 13  7  1  0
 19 14  1  0
 30 20  1  0
 29 23  1  0
  3 31  1  0
  4 32  1  0
  4 33  1  0
  8 34  1  0
  8 35  1  0
  9 36  1  0
  9 37  1  0
 10 38  1  0
 10 39  1  0
 11 40  1  0
 11 41  1  0
 12 42  1  0
 12 43  1  0
 13 44  1  6
 14 45  1  0
 15 46  1  0
 15 47  1  0
 16 48  1  0
 16 49  1  0
 18 50  1  0
 18 51  1  0
 19 52  1  0
 19 53  1  0
 21 54  1  0
 22 55  1  0
 24 56  1  0
 27 57  1  0
 28 58  1  0
M  END
>  <smiles>  (41) 
O=C(NCC(=O)N1CCCCCC1C1CCOCC1)c1ccc2cc(Cl)ccc2n1

>  <score_type>  (41) 
oracle

>  <origin>  (41) 
autodockgpu

>  <m_score__min__energy>  (41) 
-6.4400000000000004

>  <m_primary>  (41) 
energy

>  <rmsd>  (41) 
2.137280691127817

>  <m_score__min__rmsd>  (41) 
2.137280691127817

>  <meeko>  (41) 
{"free_energy": -4.87, "intermolecular_energy": -8.15, "internal_energy": -2.09, "cluster_size": 12, "cluster_id": 2, "rank_in_cluster": 10}

>  <energy>  (41) 
-5.87

>  <cluster_rmsd>  (41) 
0.3

>  <cluster>  (41) 
3

$$$$

     RDKit          3D

 58 61  0  0  0  0  0  0  0  0999 V2000
  140.3470   72.0590  220.9510 O   0  0  0  0  0  0  0  0  0  0  0  0
  140.0560   72.4610  222.1210 C   0  0  0  0  0  0  0  0  0  0  0  0
  139.7370   73.8480  222.2310 N   0  0  0  0  0  0  0  0  0  0  0  0
  139.7830   74.6190  220.9990 C   0  0  0  0  0  0  0  0  0  0  0  0
  140.3820   75.9390  221.3370 C   0  0  0  0  0  0  0  0  0  0  0  0
  139.8730   76.5390  222.3220 O   0  0  0  0  0  0  0  0  0  0  0  0
  141.4560   76.4390  220.5650 N   0  0  0  0  0  0  0  0  0  0  0  0
  141.6850   77.9000  220.7370 C   0  0  0  0  0  0  0  0  0  0  0  0
  141.6610   78.5390  219.3550 C   0  0  0  0  0  0  0  0  0  0  0  0
  142.5940   77.8080  218.4060 C   0  0  0  0  0  0  0  0  0  0  0  0
  141.9200   76.7810  217.5750 C   0  0  0  0  0  0  0  0  0  0  0  0
  141.5210   75.4990  218.3270 C   0  0  0  0  0  0  0  0  0  0  0  0
  142.2080   75.6100  219.6900 C   0  0  2  0  0  0  0  0  0  0  0  0
  142.8970   74.4200  220.1800 C   0  0  0  0  0  0  0  0  0  0  0  0
  144.4060   74.7360  220.1080 C   0  0  0  0  0  0  0  0  0  0  0  0
  145.1730   73.7290  220.9370 C   0  0  0  0  0  0  0  0  0  0  0  0
  144.9680   72.5010  220.2890 O   0  0  0  0  0  0  0  0  0  0  0  0
  143.6550   72.1370  220.4070 C   0  0  0  0  0  0  0  0  0  0  0  0
  142.6950   73.0800  219.6400 C   0  0  0  0  0  0  0  0  0  0  0  0
  140.0500   71.5710  223.2740 C   0  0  0  0  0  0  0  0  0  0  0  0
  139.5100   70.3130  223.1030 C   0  0  0  0  0  0  0  0  0  0  0  0
  139.4640   69.4000  224.1540 C   0  0  0  0  0  0  0  0  0  0  0  0
  139.9740   69.7770  225.3890 C   0  0  0  0  0  0  0  0  0  0  0  0
  139.9290   68.8770  226.4270 C   0  0  0  0  0  0  0  0  0  0  0  0
  140.4470   69.2750  227.6560 C   0  0  0  0  0  0  0  0  0  0  0  0
  140.4110   68.1620  229.0060 Cl  0  0  0  0  0  0  0  0  0  0  0  0
  140.9720   70.5340  227.7740 C   0  0  0  0  0  0  0  0  0  0  0  0
  141.0230   71.4480  226.7380 C   0  0  0  0  0  0  0  0  0  0  0  0
  140.5120   71.0560  225.5240 C   0  0  0  0  0  0  0  0  0  0  0  0
  140.5390   71.9160  224.4790 N   0  0  0  0  0  0  0  0  0  0  0  0
  139.4850   74.2650  223.1570 H   0  0  0  0  0  0  0  0  0  0  0  0
  140.4036   74.1021  220.2522 H   0  0  0  0  0  0  0  0  0  0  0  0
  138.7762   74.7410  220.5731 H   0  0  0  0  0  0  0  0  0  0  0  0
  140.8908   78.3324  221.3634 H   0  0  0  0  0  0  0  0  0  0  0  0
  142.6517   78.0828  221.2289 H   0  0  0  0  0  0  0  0  0  0  0  0
  140.6366   78.4977  218.9565 H   0  0  0  0  0  0  0  0  0  0  0  0
  141.9959   79.5830  219.4437 H   0  0  0  0  0  0  0  0  0  0  0  0
  143.0559   78.5478  217.7357 H   0  0  0  0  0  0  0  0  0  0  0  0
  143.3339   77.2818  219.0270 H   0  0  0  0  0  0  0  0  0  0  0  0
  141.0076   77.2277  217.1531 H   0  0  0  0  0  0  0  0  0  0  0  0
  142.6492   76.4758  216.8100 H   0  0  0  0  0  0  0  0  0  0  0  0
  140.4289   75.4454  218.4476 H   0  0  0  0  0  0  0  0  0  0  0  0
  141.8227   74.5907  217.7847 H   0  0  0  0  0  0  0  0  0  0  0  0
  143.1459   76.1736  219.5771 H   0  0  0  0  0  0  0  0  0  0  0  0
  142.4181   74.2878  221.1614 H   0  0  0  0  0  0  0  0  0  0  0  0
  144.7423   74.6819  219.0621 H   0  0  0  0  0  0  0  0  0  0  0  0
  144.5876   75.7476  220.5001 H   0  0  0  0  0  0  0  0  0  0  0  0
  146.2435   73.9810  220.9601 H   0  0  0  0  0  0  0  0  0  0  0  0
  144.8341   73.7081  221.9833 H   0  0  0  0  0  0  0  0  0  0  0  0
  143.5366   71.1179  220.0103 H   0  0  0  0  0  0  0  0  0  0  0  0
  143.3916   72.1953  221.4734 H   0  0  0  0  0  0  0  0  0  0  0  0
  142.9293   73.0659  218.5653 H   0  0  0  0  0  0  0  0  0  0  0  0
  141.6494   72.7603  219.7602 H   0  0  0  0  0  0  0  0  0  0  0  0
  139.1089   70.0260  222.1198 H   0  0  0  0  0  0  0  0  0  0  0  0
  139.0317   68.3991  224.0082 H   0  0  0  0  0  0  0  0  0  0  0  0
  139.4975   67.8744  226.2907 H   0  0  0  0  0  0  0  0  0  0  0  0
  141.3772   70.8361  228.7510 H   0  0  0  0  0  0  0  0  0  0  0  0
  141.4555   72.4494  226.8798 H   0  0  0  0  0  0  0  0  0  0  0  0
  1  2  2  0
  2  3  1  0
  3  4  1  0
  4  5  1  0
  5  6  2  0
  5  7  1  0
  7  8  1  0
  8  9  1  0
  9 10  1  0
 10 11  1  0
 11 12  1  0
 12 13  1  0
 13 14  1  0
 14 15  1  0
 15 16  1  0
 16 17  1  0
 17 18  1  0
 18 19  1  0
  2 20  1  0
 20 21  2  0
 21 22  1  0
 22 23  2  0
 23 24  1  0
 24 25  2  0
 25 26  1  0
 25 27  1  0
 27 28  2  0
 28 29  1  0
 29 30  2  0
 13  7  1  0
 19 14  1  0
 30 20  1  0
 29 23  1  0
  3 31  1  0
  4 32  1  0
  4 33  1  0
  8 34  1  0
  8 35  1  0
  9 36  1  0
  9 37  1  0
 10 38  1  0
 10 39  1  0
 11 40  1  0
 11 41  1  0
 12 42  1  0
 12 43  1  0
 13 44  1  6
 14 45  1  0
 15 46  1  0
 15 47  1  0
 16 48  1  0
 16 49  1  0
 18 50  1  0
 18 51  1  0
 19 52  1  0
 19 53  1  0
 21 54  1  0
 22 55  1  0
 24 56  1  0
 27 57  1  0
 28 58  1  0
M  END
>  <smiles>  (42) 
O=C(NCC(=O)N1CCCCCC1C1CCOCC1)c1ccc2cc(Cl)ccc2n1

>  <score_type>  (42) 
oracle

>  <origin>  (42) 
autodockgpu

>  <m_score__min__energy>  (42) 
-6.4400000000000004

>  <m_primary>  (42) 
energy

>  <rmsd>  (42) 
2.297736771641543

>  <m_score__min__rmsd>  (42) 
2.297736771641543

>  <meeko>  (42) 
{"free_energy": -5.42, "intermolecular_energy": -8.7, "internal_energy": -2.18, "cluster_size": 12, "cluster_id": 2, "rank_in_cluster": 7}

>  <energy>  (42) 
-5.51

>  <cluster_rmsd>  (42) 
1.42

>  <cluster>  (42) 
3

$$$$

     RDKit          3D

 58 61  0  0  0  0  0  0  0  0999 V2000
  139.5080   71.9680  220.8980 O   0  0  0  0  0  0  0  0  0  0  0  0
  139.5830   72.3950  222.0930 C   0  0  0  0  0  0  0  0  0  0  0  0
  139.4740   73.8110  222.2450 N   0  0  0  0  0  0  0  0  0  0  0  0
  139.2910   74.5780  221.0230 C   0  0  0  0  0  0  0  0  0  0  0  0
  140.4370   75.5240  220.9300 C   0  0  0  0  0  0  0  0  0  0  0  0
  140.7500   76.1140  221.9990 O   0  0  0  0  0  0  0  0  0  0  0  0
  141.0950   75.7080  219.6930 N   0  0  0  0  0  0  0  0  0  0  0  0
  140.9240   74.5690  218.7500 C   0  0  0  0  0  0  0  0  0  0  0  0
  141.8840   73.4660  219.1750 C   0  0  0  0  0  0  0  0  0  0  0  0
  143.3080   73.9890  219.2470 C   0  0  0  0  0  0  0  0  0  0  0  0
  143.4660   75.1820  220.1140 C   0  0  0  0  0  0  0  0  0  0  0  0
  143.3590   76.5270  219.3790 C   0  0  0  0  0  0  0  0  0  0  0  0
  141.8680   76.8670  219.4130 C   0  0  2  0  0  0  0  0  0  0  0  0
  141.5020   78.1710  219.9570 C   0  0  0  0  0  0  0  0  0  0  0  0
  142.0610   79.2210  218.9740 C   0  0  0  0  0  0  0  0  0  0  0  0
  141.4150   80.5620  219.2460 C   0  0  0  0  0  0  0  0  0  0  0  0
  141.8500   80.9160  220.5320 O   0  0  0  0  0  0  0  0  0  0  0  0
  141.3030   80.0610  221.4500 C   0  0  0  0  0  0  0  0  0  0  0  0
  141.8250   78.6110  221.3110 C   0  0  0  0  0  0  0  0  0  0  0  0
  139.7690   71.5060  223.2310 C   0  0  0  0  0  0  0  0  0  0  0  0
  139.3870   70.1890  223.0780 C   0  0  0  0  0  0  0  0  0  0  0  0
  139.5300   69.2720  224.1160 C   0  0  0  0  0  0  0  0  0  0  0  0
  140.0670   69.7060  225.3210 C   0  0  0  0  0  0  0  0  0  0  0  0
  140.2090   68.8030  226.3470 C   0  0  0  0  0  0  0  0  0  0  0  0
  140.7500   69.2580  227.5450 C   0  0  0  0  0  0  0  0  0  0  0  0
  140.9500   68.1430  228.8790 Cl  0  0  0  0  0  0  0  0  0  0  0  0
  141.1130   70.5740  227.6470 C   0  0  0  0  0  0  0  0  0  0  0  0
  140.9760   71.4930  226.6230 C   0  0  0  0  0  0  0  0  0  0  0  0
  140.4420   71.0440  225.4390 C   0  0  0  0  0  0  0  0  0  0  0  0
  140.2880   71.9060  224.4070 N   0  0  0  0  0  0  0  0  0  0  0  0
  139.5250   74.2500  223.1930 H   0  0  0  0  0  0  0  0  0  0  0  0
  139.2837   73.9060  220.1522 H   0  0  0  0  0  0  0  0  0  0  0  0
  138.3337   75.1197  221.0379 H   0  0  0  0  0  0  0  0  0  0  0  0
  139.8884   74.2006  218.7918 H   0  0  0  0  0  0  0  0  0  0  0  0
  141.1368   74.8880  217.7190 H   0  0  0  0  0  0  0  0  0  0  0  0
  141.5869   73.0912  220.1656 H   0  0  0  0  0  0  0  0  0  0  0  0
  141.8427   72.6566  218.4313 H   0  0  0  0  0  0  0  0  0  0  0  0
  143.9519   73.1880  219.6390 H   0  0  0  0  0  0  0  0  0  0  0  0
  143.5881   74.2948  218.2282 H   0  0  0  0  0  0  0  0  0  0  0  0
  142.6837   75.1503  220.8867 H   0  0  0  0  0  0  0  0  0  0  0  0
  144.4841   75.1335  220.5276 H   0  0  0  0  0  0  0  0  0  0  0  0
  143.9456   77.3003  219.8966 H   0  0  0  0  0  0  0  0  0  0  0  0
  143.7518   76.4743  218.3529 H   0  0  0  0  0  0  0  0  0  0  0  0
  141.5348   77.1345  218.3994 H   0  0  0  0  0  0  0  0  0  0  0  0
  140.4133   78.0556  220.0643 H   0  0  0  0  0  0  0  0  0  0  0  0
  143.1497   79.3048  219.1073 H   0  0  0  0  0  0  0  0  0  0  0  0
  141.8404   78.9107  217.9420 H   0  0  0  0  0  0  0  0  0  0  0  0
  141.7439   81.3074  218.5070 H   0  0  0  0  0  0  0  0  0  0  0  0
  140.3181   80.5157  219.1772 H   0  0  0  0  0  0  0  0  0  0  0  0
  141.5470   80.4264  222.4584 H   0  0  0  0  0  0  0  0  0  0  0  0
  140.2175   80.0386  221.2732 H   0  0  0  0  0  0  0  0  0  0  0  0
  142.9135   78.5843  221.4677 H   0  0  0  0  0  0  0  0  0  0  0  0
  141.3608   77.9524  222.0599 H   0  0  0  0  0  0  0  0  0  0  0  0
  138.9620   69.8576  222.1191 H   0  0  0  0  0  0  0  0  0  0  0  0
  139.2235   68.2238  223.9841 H   0  0  0  0  0  0  0  0  0  0  0  0
  139.9044   67.7531  226.2248 H   0  0  0  0  0  0  0  0  0  0  0  0
  141.5389   70.9209  228.6000 H   0  0  0  0  0  0  0  0  0  0  0  0
  141.2822   72.5417  226.7510 H   0  0  0  0  0  0  0  0  0  0  0  0
  1  2  2  0
  2  3  1  0
  3  4  1  0
  4  5  1  0
  5  6  2  0
  5  7  1  0
  7  8  1  0
  8  9  1  0
  9 10  1  0
 10 11  1  0
 11 12  1  0
 12 13  1  0
 13 14  1  0
 14 15  1  0
 15 16  1  0
 16 17  1  0
 17 18  1  0
 18 19  1  0
  2 20  1  0
 20 21  2  0
 21 22  1  0
 22 23  2  0
 23 24  1  0
 24 25  2  0
 25 26  1  0
 25 27  1  0
 27 28  2  0
 28 29  1  0
 29 30  2  0
 13  7  1  0
 19 14  1  0
 30 20  1  0
 29 23  1  0
  3 31  1  0
  4 32  1  0
  4 33  1  0
  8 34  1  0
  8 35  1  0
  9 36  1  0
  9 37  1  0
 10 38  1  0
 10 39  1  0
 11 40  1  0
 11 41  1  0
 12 42  1  0
 12 43  1  0
 13 44  1  6
 14 45  1  0
 15 46  1  0
 15 47  1  0
 16 48  1  0
 16 49  1  0
 18 50  1  0
 18 51  1  0
 19 52  1  0
 19 53  1  0
 21 54  1  0
 22 55  1  0
 24 56  1  0
 27 57  1  0
 28 58  1  0
M  END
>  <smiles>  (43) 
O=C(NCC(=O)N1CCCCCC1C1CCOCC1)c1ccc2cc(Cl)ccc2n1

>  <score_type>  (43) 
oracle

>  <origin>  (43) 
autodockgpu

>  <m_score__min__energy>  (43) 
-6.4400000000000004

>  <m_primary>  (43) 
energy

>  <rmsd>  (43) 
1.7959341833259492

>  <m_score__min__rmsd>  (43) 
1.7959341833259492

>  <meeko>  (43) 
{"free_energy": -6.12, "intermolecular_energy": -9.4, "internal_energy": -1.9, "cluster_size": 27, "cluster_id": 1, "rank_in_cluster": 6}

>  <energy>  (43) 
-5.25

>  <cluster_rmsd>  (43) 
1.68

>  <cluster>  (43) 
3

$$$$

     RDKit          3D

 58 61  0  0  0  0  0  0  0  0999 V2000
  139.6710   72.1160  220.7610 O   0  0  0  0  0  0  0  0  0  0  0  0
  139.5960   72.5100  221.9680 C   0  0  0  0  0  0  0  0  0  0  0  0
  139.3470   73.9050  222.1420 N   0  0  0  0  0  0  0  0  0  0  0  0
  139.2100   74.6920  220.9270 C   0  0  0  0  0  0  0  0  0  0  0  0
  139.8960   75.9900  221.1730 C   0  0  0  0  0  0  0  0  0  0  0  0
  140.1110   76.2780  222.3810 O   0  0  0  0  0  0  0  0  0  0  0  0
  140.2610   76.8080  220.0790 N   0  0  0  0  0  0  0  0  0  0  0  0
  139.6310   76.4010  218.7930 C   0  0  0  0  0  0  0  0  0  0  0  0
  140.1490   77.3340  217.7070 C   0  0  0  0  0  0  0  0  0  0  0  0
  141.6090   77.0510  217.4040 C   0  0  0  0  0  0  0  0  0  0  0  0
  142.5570   77.8430  218.2260 C   0  0  0  0  0  0  0  0  0  0  0  0
  142.5640   77.4900  219.7240 C   0  0  0  0  0  0  0  0  0  0  0  0
  141.1720   77.8900  220.2150 C   0  0  2  0  0  0  0  0  0  0  0  0
  141.1110   78.7910  221.3620 C   0  0  0  0  0  0  0  0  0  0  0  0
  141.3680   80.2090  220.8100 C   0  0  0  0  0  0  0  0  0  0  0  0
  140.9540   81.2350  221.8420 C   0  0  0  0  0  0  0  0  0  0  0  0
  141.8320   81.0370  222.9180 O   0  0  0  0  0  0  0  0  0  0  0  0
  141.5770   79.8240  223.4960 C   0  0  0  0  0  0  0  0  0  0  0  0
  141.9140   78.6300  222.5700 C   0  0  0  0  0  0  0  0  0  0  0  0
  139.7550   71.6040  223.0970 C   0  0  0  0  0  0  0  0  0  0  0  0
  139.3070   70.3080  222.9400 C   0  0  0  0  0  0  0  0  0  0  0  0
  139.4200   69.3780  223.9700 C   0  0  0  0  0  0  0  0  0  0  0  0
  139.9960   69.7750  225.1700 C   0  0  0  0  0  0  0  0  0  0  0  0
  140.1080   68.8580  226.1870 C   0  0  0  0  0  0  0  0  0  0  0  0
  140.6890   69.2770  227.3800 C   0  0  0  0  0  0  0  0  0  0  0  0
  140.8530   68.1440  228.7020 Cl  0  0  0  0  0  0  0  0  0  0  0  0
  141.1180   70.5730  227.4840 C   0  0  0  0  0  0  0  0  0  0  0  0
  141.0110   71.5060  226.4690 C   0  0  0  0  0  0  0  0  0  0  0  0
  140.4380   71.0920  225.2910 C   0  0  0  0  0  0  0  0  0  0  0  0
  140.3110   71.9680  224.2670 N   0  0  0  0  0  0  0  0  0  0  0  0
  139.2700   74.3160  223.1010 H   0  0  0  0  0  0  0  0  0  0  0  0
  139.6819   74.1689  220.0822 H   0  0  0  0  0  0  0  0  0  0  0  0
  138.1504   74.8480  220.6763 H   0  0  0  0  0  0  0  0  0  0  0  0
  139.9029   75.3620  218.5551 H   0  0  0  0  0  0  0  0  0  0  0  0
  138.5351   76.4643  218.8643 H   0  0  0  0  0  0  0  0  0  0  0  0
  139.5559   77.1870  216.7923 H   0  0  0  0  0  0  0  0  0  0  0  0
  140.0572   78.3716  218.0606 H   0  0  0  0  0  0  0  0  0  0  0  0
  141.8002   75.9833  217.5867 H   0  0  0  0  0  0  0  0  0  0  0  0
  141.7791   77.3365  216.3554 H   0  0  0  0  0  0  0  0  0  0  0  0
  143.5708   77.6800  217.8314 H   0  0  0  0  0  0  0  0  0  0  0  0
  142.2270   78.8900  218.1564 H   0  0  0  0  0  0  0  0  0  0  0  0
  142.7335   76.4129  219.8694 H   0  0  0  0  0  0  0  0  0  0  0  0
  143.3664   78.0050  220.2726 H   0  0  0  0  0  0  0  0  0  0  0  0
  140.7508   78.6419  219.5314 H   0  0  0  0  0  0  0  0  0  0  0  0
  140.1219   78.5415  221.7736 H   0  0  0  0  0  0  0  0  0  0  0  0
  142.4383   80.3265  220.5851 H   0  0  0  0  0  0  0  0  0  0  0  0
  140.7818   80.3564  219.8910 H   0  0  0  0  0  0  0  0  0  0  0  0
  141.0584   82.2533  221.4393 H   0  0  0  0  0  0  0  0  0  0  0  0
  139.9011   81.1223  222.1397 H   0  0  0  0  0  0  0  0  0  0  0  0
  142.1801   79.7384  224.4119 H   0  0  0  0  0  0  0  0  0  0  0  0
  140.4987   79.7811  223.7090 H   0  0  0  0  0  0  0  0  0  0  0  0
  142.9844   78.6381  222.3166 H   0  0  0  0  0  0  0  0  0  0  0  0
  141.6931   77.6729  223.0652 H   0  0  0  0  0  0  0  0  0  0  0  0
  138.8530   70.0047  221.9850 H   0  0  0  0  0  0  0  0  0  0  0  0
  139.0596   68.3474  223.8359 H   0  0  0  0  0  0  0  0  0  0  0  0
  139.7498   67.8255  226.0621 H   0  0  0  0  0  0  0  0  0  0  0  0
  141.5755   70.8913  228.4323 H   0  0  0  0  0  0  0  0  0  0  0  0
  141.3700   72.5375  226.5995 H   0  0  0  0  0  0  0  0  0  0  0  0
  1  2  2  0
  2  3  1  0
  3  4  1  0
  4  5  1  0
  5  6  2  0
  5  7  1  0
  7  8  1  0
  8  9  1  0
  9 10  1  0
 10 11  1  0
 11 12  1  0
 12 13  1  0
 13 14  1  0
 14 15  1  0
 15 16  1  0
 16 17  1  0
 17 18  1  0
 18 19  1  0
  2 20  1  0
 20 21  2  0
 21 22  1  0
 22 23  2  0
 23 24  1  0
 24 25  2  0
 25 26  1  0
 25 27  1  0
 27 28  2  0
 28 29  1  0
 29 30  2  0
 13  7  1  0
 19 14  1  0
 30 20  1  0
 29 23  1  0
  3 31  1  0
  4 32  1  0
  4 33  1  0
  8 34  1  0
  8 35  1  0
  9 36  1  0
  9 37  1  0
 10 38  1  0
 10 39  1  0
 11 40  1  0
 11 41  1  0
 12 42  1  0
 12 43  1  0
 13 44  1  6
 14 45  1  0
 15 46  1  0
 15 47  1  0
 16 48  1  0
 16 49  1  0
 18 50  1  0
 18 51  1  0
 19 52  1  0
 19 53  1  0
 21 54  1  0
 22 55  1  0
 24 56  1  0
 27 57  1  0
 28 58  1  0
M  END
>  <smiles>  (44) 
O=C(NCC(=O)N1CCCCCC1C1CCOCC1)c1ccc2cc(Cl)ccc2n1

>  <score_type>  (44) 
oracle

>  <origin>  (44) 
autodockgpu

>  <m_score__min__energy>  (44) 
-6.4400000000000004

>  <m_primary>  (44) 
energy

>  <rmsd>  (44) 
1.471818056673553

>  <m_score__min__rmsd>  (44) 
1.471818056673553

>  <meeko>  (44) 
{"free_energy": -5.62, "intermolecular_energy": -8.9, "internal_energy": -2.04, "cluster_size": 27, "cluster_id": 1, "rank_in_cluster": 24}

>  <energy>  (44) 
-5.91

>  <cluster_rmsd>  (44) 
0.0

>  <cluster>  (44) 
4

$$$$

     RDKit          3D

 58 61  0  0  0  0  0  0  0  0999 V2000
  139.0940   73.3500  221.7930 O   0  0  0  0  0  0  0  0  0  0  0  0
  140.1650   72.8110  222.2160 C   0  0  0  0  0  0  0  0  0  0  0  0
  141.3580   73.2030  221.5350 N   0  0  0  0  0  0  0  0  0  0  0  0
  141.1970   74.1630  220.4550 C   0  0  0  0  0  0  0  0  0  0  0  0
  142.4120   75.0230  220.4570 C   0  0  0  0  0  0  0  0  0  0  0  0
  143.4920   74.4490  220.7630 O   0  0  0  0  0  0  0  0  0  0  0  0
  142.3010   76.3930  220.1280 N   0  0  0  0  0  0  0  0  0  0  0  0
  143.2800   76.8430  219.1010 C   0  0  0  0  0  0  0  0  0  0  0  0
  142.6780   76.5600  217.7310 C   0  0  0  0  0  0  0  0  0  0  0  0
  141.2480   77.0630  217.6560 C   0  0  0  0  0  0  0  0  0  0  0  0
  140.3520   76.4820  218.6850 C   0  0  0  0  0  0  0  0  0  0  0  0
  140.0980   77.3890  219.8990 C   0  0  0  0  0  0  0  0  0  0  0  0
  141.3560   77.2470  220.7590 C   0  0  2  0  0  0  0  0  0  0  0  0
  141.7810   78.4270  221.5040 C   0  0  0  0  0  0  0  0  0  0  0  0
  141.1640   78.2930  222.9130 C   0  0  0  0  0  0  0  0  0  0  0  0
  141.8480   79.2560  223.8580 C   0  0  0  0  0  0  0  0  0  0  0  0
  141.5170   80.5310  223.3740 O   0  0  0  0  0  0  0  0  0  0  0  0
  142.1200   80.7280  222.1620 C   0  0  0  0  0  0  0  0  0  0  0  0
  141.5680   79.7990  221.0530 C   0  0  0  0  0  0  0  0  0  0  0  0
  140.1790   71.8570  223.3170 C   0  0  0  0  0  0  0  0  0  0  0  0
  139.6570   70.6020  223.0770 C   0  0  0  0  0  0  0  0  0  0  0  0
  139.6310   69.6310  224.0750 C   0  0  0  0  0  0  0  0  0  0  0  0
  140.1420   69.9460  225.3270 C   0  0  0  0  0  0  0  0  0  0  0  0
  140.1170   68.9890  226.3130 C   0  0  0  0  0  0  0  0  0  0  0  0
  140.6340   69.3250  227.5600 C   0  0  0  0  0  0  0  0  0  0  0  0
  140.6230   68.1370  228.8450 Cl  0  0  0  0  0  0  0  0  0  0  0  0
  141.1400   70.5830  227.7460 C   0  0  0  0  0  0  0  0  0  0  0  0
  141.1720   71.5550  226.7640 C   0  0  0  0  0  0  0  0  0  0  0  0
  140.6610   71.2240  225.5320 C   0  0  0  0  0  0  0  0  0  0  0  0
  140.6690   72.1420  224.5370 N   0  0  0  0  0  0  0  0  0  0  0  0
  142.2850   72.8090  221.8170 H   0  0  0  0  0  0  0  0  0  0  0  0
  141.1065   73.6381  219.4925 H   0  0  0  0  0  0  0  0  0  0  0  0
  140.2876   74.7656  220.5958 H   0  0  0  0  0  0  0  0  0  0  0  0
  143.4697   77.9209  219.2113 H   0  0  0  0  0  0  0  0  0  0  0  0
  144.2348   76.3098  219.2195 H   0  0  0  0  0  0  0  0  0  0  0  0
  143.2792   77.0663  216.9614 H   0  0  0  0  0  0  0  0  0  0  0  0
  142.6784   75.4728  217.5636 H   0  0  0  0  0  0  0  0  0  0  0  0
  141.2581   78.1557  217.7826 H   0  0  0  0  0  0  0  0  0  0  0  0
  140.8521   76.7549  216.6771 H   0  0  0  0  0  0  0  0  0  0  0  0
  139.3834   76.2628  218.2120 H   0  0  0  0  0  0  0  0  0  0  0  0
  140.8588   75.5839  219.0679 H   0  0  0  0  0  0  0  0  0  0  0  0
  139.9609   78.4332  219.5813 H   0  0  0  0  0  0  0  0  0  0  0  0
  139.1859   77.1075  220.4456 H   0  0  0  0  0  0  0  0  0  0  0  0
  141.1078   76.6905  221.6748 H   0  0  0  0  0  0  0  0  0  0  0  0
  142.8728   78.3694  221.3828 H   0  0  0  0  0  0  0  0  0  0  0  0
  140.0900   78.5260  222.8664 H   0  0  0  0  0  0  0  0  0  0  0  0
  141.3011   77.2639  223.2764 H   0  0  0  0  0  0  0  0  0  0  0  0
  141.4749   79.1224  224.8841 H   0  0  0  0  0  0  0  0  0  0  0  0
  142.9357   79.0967  223.8969 H   0  0  0  0  0  0  0  0  0  0  0  0
  141.9594   81.7724  221.8563 H   0  0  0  0  0  0  0  0  0  0  0  0
  143.1881   80.4953  222.2844 H   0  0  0  0  0  0  0  0  0  0  0  0
  140.4943   79.9855  220.9031 H   0  0  0  0  0  0  0  0  0  0  0  0
  142.0781   79.9824  220.0958 H   0  0  0  0  0  0  0  0  0  0  0  0
  139.2549   70.3648  222.0810 H   0  0  0  0  0  0  0  0  0  0  0  0
  139.2134   68.6332  223.8751 H   0  0  0  0  0  0  0  0  0  0  0  0
  139.7012   67.9887  226.1221 H   0  0  0  0  0  0  0  0  0  0  0  0
  141.5456   70.8357  228.7368 H   0  0  0  0  0  0  0  0  0  0  0  0
  141.5897   72.5534  226.9607 H   0  0  0  0  0  0  0  0  0  0  0  0
  1  2  2  0
  2  3  1  0
  3  4  1  0
  4  5  1  0
  5  6  2  0
  5  7  1  0
  7  8  1  0
  8  9  1  0
  9 10  1  0
 10 11  1  0
 11 12  1  0
 12 13  1  0
 13 14  1  0
 14 15  1  0
 15 16  1  0
 16 17  1  0
 17 18  1  0
 18 19  1  0
  2 20  1  0
 20 21  2  0
 21 22  1  0
 22 23  2  0
 23 24  1  0
 24 25  2  0
 25 26  1  0
 25 27  1  0
 27 28  2  0
 28 29  1  0
 29 30  2  0
 13  7  1  0
 19 14  1  0
 30 20  1  0
 29 23  1  0
  3 31  1  0
  4 32  1  0
  4 33  1  0
  8 34  1  0
  8 35  1  0
  9 36  1  0
  9 37  1  0
 10 38  1  0
 10 39  1  0
 11 40  1  0
 11 41  1  0
 12 42  1  0
 12 43  1  0
 13 44  1  1
 14 45  1  0
 15 46  1  0
 15 47  1  0
 16 48  1  0
 16 49  1  0
 18 50  1  0
 18 51  1  0
 19 52  1  0
 19 53  1  0
 21 54  1  0
 22 55  1  0
 24 56  1  0
 27 57  1  0
 28 58  1  0
M  END
>  <smiles>  (45) 
O=C(NCC(=O)N1CCCCCC1C1CCOCC1)c1ccc2cc(Cl)ccc2n1

>  <score_type>  (45) 
oracle

>  <origin>  (45) 
autodockgpu

>  <m_score__min__energy>  (45) 
-6.4400000000000004

>  <m_primary>  (45) 
energy

>  <rmsd>  (45) 
2.5461569698924404

>  <m_score__min__rmsd>  (45) 
2.5461569698924404

>  <meeko>  (45) 
{"free_energy": -5.91, "intermolecular_energy": -9.19, "internal_energy": -1.81, "cluster_size": 27, "cluster_id": 1, "rank_in_cluster": 11}

>  <energy>  (45) 
-5.5

>  <cluster_rmsd>  (45) 
0.0

>  <cluster>  (45) 
5

$$$$

     RDKit          3D

 58 61  0  0  0  0  0  0  0  0999 V2000
  139.9800   71.9310  220.8600 O   0  0  0  0  0  0  0  0  0  0  0  0
  139.9230   72.3640  222.0540 C   0  0  0  0  0  0  0  0  0  0  0  0
  139.7580   73.7760  222.1870 N   0  0  0  0  0  0  0  0  0  0  0  0
  139.6760   74.5340  220.9490 C   0  0  0  0  0  0  0  0  0  0  0  0
  140.4900   75.7660  221.1420 C   0  0  0  0  0  0  0  0  0  0  0  0
  140.2940   76.3910  222.2190 O   0  0  0  0  0  0  0  0  0  0  0  0
  141.4100   76.1610  220.1430 N   0  0  0  0  0  0  0  0  0  0  0  0
  141.4190   77.6270  219.8870 C   0  0  0  0  0  0  0  0  0  0  0  0
  141.6110   77.8360  218.3910 C   0  0  0  0  0  0  0  0  0  0  0  0
  140.5300   77.1180  217.6030 C   0  0  0  0  0  0  0  0  0  0  0  0
  140.3030   75.7170  218.0330 C   0  0  0  0  0  0  0  0  0  0  0  0
  141.5730   74.8550  218.1030 C   0  0  0  0  0  0  0  0  0  0  0  0
  142.2140   75.2220  219.4420 C   0  0  2  0  0  0  0  0  0  0  0  0
  142.9260   74.1600  220.1470 C   0  0  0  0  0  0  0  0  0  0  0  0
  144.4270   74.5070  220.0480 C   0  0  0  0  0  0  0  0  0  0  0  0
  145.2020   73.6870  221.0540 C   0  0  0  0  0  0  0  0  0  0  0  0
  145.0490   72.3580  220.6290 O   0  0  0  0  0  0  0  0  0  0  0  0
  143.7440   71.9780  220.7850 C   0  0  0  0  0  0  0  0  0  0  0  0
  142.7760   72.7400  219.8470 C   0  0  0  0  0  0  0  0  0  0  0  0
  140.0200   71.4830  223.2100 C   0  0  0  0  0  0  0  0  0  0  0  0
  139.5800   70.1840  223.0580 C   0  0  0  0  0  0  0  0  0  0  0  0
  139.6360   69.2760  224.1120 C   0  0  0  0  0  0  0  0  0  0  0  0
  140.1460   69.7010  225.3320 C   0  0  0  0  0  0  0  0  0  0  0  0
  140.2020   68.8070  226.3740 C   0  0  0  0  0  0  0  0  0  0  0  0
  140.7170   69.2520  227.5880 C   0  0  0  0  0  0  0  0  0  0  0  0
  140.8080   68.1480  228.9420 Cl  0  0  0  0  0  0  0  0  0  0  0  0
  141.1400   70.5510  227.6870 C   0  0  0  0  0  0  0  0  0  0  0  0
  141.0890   71.4600  226.6470 C   0  0  0  0  0  0  0  0  0  0  0  0
  140.5810   71.0200  225.4490 C   0  0  0  0  0  0  0  0  0  0  0  0
  140.5100   71.8740  224.4000 N   0  0  0  0  0  0  0  0  0  0  0  0
  139.7010   74.2180  223.1330 H   0  0  0  0  0  0  0  0  0  0  0  0
  140.0791   73.9410  220.1148 H   0  0  0  0  0  0  0  0  0  0  0  0
  138.6322   74.7850  220.7092 H   0  0  0  0  0  0  0  0  0  0  0  0
  140.4639   78.0688  220.2072 H   0  0  0  0  0  0  0  0  0  0  0  0
  142.2305   78.1109  220.4503 H   0  0  0  0  0  0  0  0  0  0  0  0
  141.5648   78.9123  218.1684 H   0  0  0  0  0  0  0  0  0  0  0  0
  142.5897   77.4265  218.1006 H   0  0  0  0  0  0  0  0  0  0  0  0
  139.5881   77.6736  217.7216 H   0  0  0  0  0  0  0  0  0  0  0  0
  140.8692   77.0800  216.5573 H   0  0  0  0  0  0  0  0  0  0  0  0
  139.8452   75.7351  219.0330 H   0  0  0  0  0  0  0  0  0  0  0  0
  139.6566   75.2580  217.2704 H   0  0  0  0  0  0  0  0  0  0  0  0
  141.3185   73.7852  218.0744 H   0  0  0  0  0  0  0  0  0  0  0  0
  142.2479   75.0362  217.2535 H   0  0  0  0  0  0  0  0  0  0  0  0
  143.1368   75.7909  219.2555 H   0  0  0  0  0  0  0  0  0  0  0  0
  142.4284   74.1875  221.1277 H   0  0  0  0  0  0  0  0  0  0  0  0
  144.7893   74.2813  219.0342 H   0  0  0  0  0  0  0  0  0  0  0  0
  144.5703   75.5770  220.2593 H   0  0  0  0  0  0  0  0  0  0  0  0
  146.2638   73.9744  221.0522 H   0  0  0  0  0  0  0  0  0  0  0  0
  144.8382   73.8385  222.0810 H   0  0  0  0  0  0  0  0  0  0  0  0
  143.6643   70.9018  220.5717 H   0  0  0  0  0  0  0  0  0  0  0  0
  143.4539   72.2140  221.8195 H   0  0  0  0  0  0  0  0  0  0  0  0
  143.0363   72.5458  218.7960 H   0  0  0  0  0  0  0  0  0  0  0  0
  141.7375   72.4121  220.0021 H   0  0  0  0  0  0  0  0  0  0  0  0
  139.1778   69.8601  222.0868 H   0  0  0  0  0  0  0  0  0  0  0  0
  139.2833   68.2423  223.9811 H   0  0  0  0  0  0  0  0  0  0  0  0
  139.8507   67.7717  226.2524 H   0  0  0  0  0  0  0  0  0  0  0  0
  141.5444   70.8911  228.6518 H   0  0  0  0  0  0  0  0  0  0  0  0
  141.4411   72.4944  226.7736 H   0  0  0  0  0  0  0  0  0  0  0  0
  1  2  2  0
  2  3  1  0
  3  4  1  0
  4  5  1  0
  5  6  2  0
  5  7  1  0
  7  8  1  0
  8  9  1  0
  9 10  1  0
 10 11  1  0
 11 12  1  0
 12 13  1  0
 13 14  1  0
 14 15  1  0
 15 16  1  0
 16 17  1  0
 17 18  1  0
 18 19  1  0
  2 20  1  0
 20 21  2  0
 21 22  1  0
 22 23  2  0
 23 24  1  0
 24 25  2  0
 25 26  1  0
 25 27  1  0
 27 28  2  0
 28 29  1  0
 29 30  2  0
 13  7  1  0
 19 14  1  0
 30 20  1  0
 29 23  1  0
  3 31  1  0
  4 32  1  0
  4 33  1  0
  8 34  1  0
  8 35  1  0
  9 36  1  0
  9 37  1  0
 10 38  1  0
 10 39  1  0
 11 40  1  0
 11 41  1  0
 12 42  1  0
 12 43  1  0
 13 44  1  6
 14 45  1  0
 15 46  1  0
 15 47  1  0
 16 48  1  0
 16 49  1  0
 18 50  1  0
 18 51  1  0
 19 52  1  0
 19 53  1  0
 21 54  1  0
 22 55  1  0
 24 56  1  0
 27 57  1  0
 28 58  1  0
M  END
>  <smiles>  (46) 
O=C(NCC(=O)N1CCCCCC1C1CCOCC1)c1ccc2cc(Cl)ccc2n1

>  <score_type>  (46) 
oracle

>  <origin>  (46) 
autodockgpu

>  <m_score__min__energy>  (46) 
-6.4400000000000004

>  <m_primary>  (46) 
energy

>  <rmsd>  (46) 
2.1758277846585345

>  <m_score__min__rmsd>  (46) 
2.1758277846585345

>  <meeko>  (46) 
{"free_energy": -5.52, "intermolecular_energy": -8.8, "internal_energy": -2.24, "cluster_size": 12, "cluster_id": 2, "rank_in_cluster": 6}

>  <energy>  (46) 
-5.09

>  <cluster_rmsd>  (46) 
0.0

>  <cluster>  (46) 
6

$$$$

     RDKit          3D

 58 61  0  0  0  0  0  0  0  0999 V2000
  139.9120   72.8560  220.5760 O   0  0  0  0  0  0  0  0  0  0  0  0
  139.3480   72.9830  221.7090 C   0  0  0  0  0  0  0  0  0  0  0  0
  138.5450   74.1530  221.8660 N   0  0  0  0  0  0  0  0  0  0  0  0
  138.4740   75.0440  220.7180 C   0  0  0  0  0  0  0  0  0  0  0  0
  139.0570   76.3450  221.1450 C   0  0  0  0  0  0  0  0  0  0  0  0
  138.3340   77.0520  221.8980 O   0  0  0  0  0  0  0  0  0  0  0  0
  140.3480   76.7130  220.7010 N   0  0  0  0  0  0  0  0  0  0  0  0
  141.2660   75.5570  220.5090 C   0  0  0  0  0  0  0  0  0  0  0  0
  141.5580   75.4400  219.0190 C   0  0  0  0  0  0  0  0  0  0  0  0
  142.7560   76.2910  218.6350 C   0  0  0  0  0  0  0  0  0  0  0  0
  142.6600   77.7000  219.0870 C   0  0  0  0  0  0  0  0  0  0  0  0
  141.2360   78.2810  219.0730 C   0  0  0  0  0  0  0  0  0  0  0  0
  140.7190   78.0700  220.4970 C   0  0  2  0  0  0  0  0  0  0  0  0
  141.3600   78.8460  221.5540 C   0  0  0  0  0  0  0  0  0  0  0  0
  140.2430   79.2210  222.5510 C   0  0  0  0  0  0  0  0  0  0  0  0
  140.8630   79.6900  223.8500 C   0  0  0  0  0  0  0  0  0  0  0  0
  141.5440   80.8710  223.5170 O   0  0  0  0  0  0  0  0  0  0  0  0
  142.6020   80.5720  222.7030 C   0  0  0  0  0  0  0  0  0  0  0  0
  142.1650   80.0400  221.3160 C   0  0  0  0  0  0  0  0  0  0  0  0
  139.5080   72.0040  222.7760 C   0  0  0  0  0  0  0  0  0  0  0  0
  138.9430   70.7600  222.5870 C   0  0  0  0  0  0  0  0  0  0  0  0
  139.0490   69.7660  223.5570 C   0  0  0  0  0  0  0  0  0  0  0  0
  139.7380   70.0480  224.7300 C   0  0  0  0  0  0  0  0  0  0  0  0
  139.8440   69.0700  225.6880 C   0  0  0  0  0  0  0  0  0  0  0  0
  140.5380   69.3730  226.8550 C   0  0  0  0  0  0  0  0  0  0  0  0
  140.6980   68.1570  228.1030 Cl  0  0  0  0  0  0  0  0  0  0  0  0
  141.0800   70.6230  226.9940 C   0  0  0  0  0  0  0  0  0  0  0  0
  140.9810   71.6160  226.0370 C   0  0  0  0  0  0  0  0  0  0  0  0
  140.2960   71.3170  224.8850 C   0  0  0  0  0  0  0  0  0  0  0  0
  140.1720   72.2570  223.9190 N   0  0  0  0  0  0  0  0  0  0  0  0
  138.0440   74.3380  222.7650 H   0  0  0  0  0  0  0  0  0  0  0  0
  139.0514   74.6276  219.8795 H   0  0  0  0  0  0  0  0  0  0  0  0
  137.4347   75.1697  220.3804 H   0  0  0  0  0  0  0  0  0  0  0  0
  142.2018   75.7259  221.0620 H   0  0  0  0  0  0  0  0  0  0  0  0
  140.8044   74.6320  220.8849 H   0  0  0  0  0  0  0  0  0  0  0  0
  141.7695   74.3886  218.7746 H   0  0  0  0  0  0  0  0  0  0  0  0
  140.6801   75.7945  218.4591 H   0  0  0  0  0  0  0  0  0  0  0  0
  143.6562   75.8441  219.0821 H   0  0  0  0  0  0  0  0  0  0  0  0
  142.7960   76.3096  217.5359 H   0  0  0  0  0  0  0  0  0  0  0  0
  143.0438   77.7571  220.1163 H   0  0  0  0  0  0  0  0  0  0  0  0
  143.2474   78.2970  218.3739 H   0  0  0  0  0  0  0  0  0  0  0  0
  141.2559   79.3517  218.8218 H   0  0  0  0  0  0  0  0  0  0  0  0
  140.5955   77.7973  218.3208 H   0  0  0  0  0  0  0  0  0  0  0  0
  139.7615   78.5986  220.6144 H   0  0  0  0  0  0  0  0  0  0  0  0
  142.1569   78.1560  221.8686 H   0  0  0  0  0  0  0  0  0  0  0  0
  139.6278   80.0278  222.1260 H   0  0  0  0  0  0  0  0  0  0  0  0
  139.6117   78.3408  222.7426 H   0  0  0  0  0  0  0  0  0  0  0  0
  140.0844   79.8903  224.6008 H   0  0  0  0  0  0  0  0  0  0  0  0
  141.5322   78.9343  224.2871 H   0  0  0  0  0  0  0  0  0  0  0  0
  143.2004   81.4833  222.5566 H   0  0  0  0  0  0  0  0  0  0  0  0
  143.1810   79.7759  223.1940 H   0  0  0  0  0  0  0  0  0  0  0  0
  141.5682   80.7999  220.7903 H   0  0  0  0  0  0  0  0  0  0  0  0
  143.0393   79.8070  220.6904 H   0  0  0  0  0  0  0  0  0  0  0  0
  138.3994   70.5493  221.6542 H   0  0  0  0  0  0  0  0  0  0  0  0
  138.5958   68.7765  223.3973 H   0  0  0  0  0  0  0  0  0  0  0  0
  139.3940   68.0776  225.5374 H   0  0  0  0  0  0  0  0  0  0  0  0
  141.6261   70.8503  227.9214 H   0  0  0  0  0  0  0  0  0  0  0  0
  141.4332   72.6066  226.1923 H   0  0  0  0  0  0  0  0  0  0  0  0
  1  2  2  0
  2  3  1  0
  3  4  1  0
  4  5  1  0
  5  6  2  0
  5  7  1  0
  7  8  1  0
  8  9  1  0
  9 10  1  0
 10 11  1  0
 11 12  1  0
 12 13  1  0
 13 14  1  0
 14 15  1  0
 15 16  1  0
 16 17  1  0
 17 18  1  0
 18 19  1  0
  2 20  1  0
 20 21  2  0
 21 22  1  0
 22 23  2  0
 23 24  1  0
 24 25  2  0
 25 26  1  0
 25 27  1  0
 27 28  2  0
 28 29  1  0
 29 30  2  0
 13  7  1  0
 19 14  1  0
 30 20  1  0
 29 23  1  0
  3 31  1  0
  4 32  1  0
  4 33  1  0
  8 34  1  0
  8 35  1  0
  9 36  1  0
  9 37  1  0
 10 38  1  0
 10 39  1  0
 11 40  1  0
 11 41  1  0
 12 42  1  0
 12 43  1  0
 13 44  1  6
 14 45  1  0
 15 46  1  0
 15 47  1  0
 16 48  1  0
 16 49  1  0
 18 50  1  0
 18 51  1  0
 19 52  1  0
 19 53  1  0
 21 54  1  0
 22 55  1  0
 24 56  1  0
 27 57  1  0
 28 58  1  0
M  END
>  <smiles>  (47) 
O=C(NCC(=O)N1CCCCCC1C1CCOCC1)c1ccc2cc(Cl)ccc2n1

>  <score_type>  (47) 
oracle

>  <origin>  (47) 
autodockgpu

>  <m_score__min__energy>  (47) 
-6.4400000000000004

>  <m_primary>  (47) 
energy

>  <rmsd>  (47) 
1.9274097718882168

>  <m_score__min__rmsd>  (47) 
1.9274097718882168

>  <meeko>  (47) 
{"free_energy": -5.82, "intermolecular_energy": -9.1, "internal_energy": -1.64, "cluster_size": 27, "cluster_id": 1, "rank_in_cluster": 17}

>  <energy>  (47) 
-4.76

>  <cluster_rmsd>  (47) 
0.0

>  <cluster>  (47) 
7

$$$$

     RDKit          3D

 58 61  0  0  0  0  0  0  0  0999 V2000
  140.3950   72.4280  220.8790 O   0  0  0  0  0  0  0  0  0  0  0  0
  139.9010   72.7010  222.0180 C   0  0  0  0  0  0  0  0  0  0  0  0
  139.2780   73.9820  222.1240 N   0  0  0  0  0  0  0  0  0  0  0  0
  139.2860   74.8040  220.9250 C   0  0  0  0  0  0  0  0  0  0  0  0
  139.8240   76.1350  221.3170 C   0  0  0  0  0  0  0  0  0  0  0  0
  139.3390   76.6370  222.3670 O   0  0  0  0  0  0  0  0  0  0  0  0
  140.8170   76.7520  220.5210 N   0  0  0  0  0  0  0  0  0  0  0  0
  141.6090   75.7930  219.7050 C   0  0  0  0  0  0  0  0  0  0  0  0
  141.0680   75.8360  218.2820 C   0  0  0  0  0  0  0  0  0  0  0  0
  141.6500   77.0130  217.5200 C   0  0  0  0  0  0  0  0  0  0  0  0
  141.3720   78.3300  218.1440 C   0  0  0  0  0  0  0  0  0  0  0  0
  142.0760   78.5550  219.4920 C   0  0  0  0  0  0  0  0  0  0  0  0
  141.0380   78.1560  220.5430 C   0  0  2  0  0  0  0  0  0  0  0  0
  141.0490   78.9010  221.7980 C   0  0  0  0  0  0  0  0  0  0  0  0
  141.8510   80.1920  221.5260 C   0  0  0  0  0  0  0  0  0  0  0  0
  141.5970   81.1870  222.6360 C   0  0  0  0  0  0  0  0  0  0  0  0
  142.1390   80.5900  223.7850 O   0  0  0  0  0  0  0  0  0  0  0  0
  141.3990   79.4870  224.1160 C   0  0  0  0  0  0  0  0  0  0  0  0
  141.5070   78.3510  223.0700 C   0  0  0  0  0  0  0  0  0  0  0  0
  139.9660   71.7760  223.1410 C   0  0  0  0  0  0  0  0  0  0  0  0
  139.4830   70.4990  222.9400 C   0  0  0  0  0  0  0  0  0  0  0  0
  139.5070   69.5510  223.9600 C   0  0  0  0  0  0  0  0  0  0  0  0
  140.0280   69.9130  225.1960 C   0  0  0  0  0  0  0  0  0  0  0  0
  140.0520   68.9800  226.2040 C   0  0  0  0  0  0  0  0  0  0  0  0
  140.5790   69.3620  227.4330 C   0  0  0  0  0  0  0  0  0  0  0  0
  140.6310   68.2060  228.7460 Cl  0  0  0  0  0  0  0  0  0  0  0  0
  141.0460   70.6410  227.5810 C   0  0  0  0  0  0  0  0  0  0  0  0
  141.0270   71.5900  226.5750 C   0  0  0  0  0  0  0  0  0  0  0  0
  140.5070   71.2120  225.3610 C   0  0  0  0  0  0  0  0  0  0  0  0
  140.4670   72.1050  224.3450 N   0  0  0  0  0  0  0  0  0  0  0  0
  138.8450   74.2900  223.0250 H   0  0  0  0  0  0  0  0  0  0  0  0
  139.9284   74.3474  220.1576 H   0  0  0  0  0  0  0  0  0  0  0  0
  138.2738   74.8968  220.5045 H   0  0  0  0  0  0  0  0  0  0  0  0
  142.6699   76.0834  219.7110 H   0  0  0  0  0  0  0  0  0  0  0  0
  141.5256   74.7767  220.1175 H   0  0  0  0  0  0  0  0  0  0  0  0
  141.3373   74.9030  217.7653 H   0  0  0  0  0  0  0  0  0  0  0  0
  139.9745   75.9484  218.3235 H   0  0  0  0  0  0  0  0  0  0  0  0
  142.7405   76.8815  217.4599 H   0  0  0  0  0  0  0  0  0  0  0  0
  141.1703   77.0211  216.5301 H   0  0  0  0  0  0  0  0  0  0  0  0
  141.7007   79.1164  217.4487 H   0  0  0  0  0  0  0  0  0  0  0  0
  140.2910   78.3602  218.3453 H   0  0  0  0  0  0  0  0  0  0  0  0
  142.9722   77.9223  219.5721 H   0  0  0  0  0  0  0  0  0  0  0  0
  142.4160   79.5938  219.6159 H   0  0  0  0  0  0  0  0  0  0  0  0
  140.0560   78.5568  220.2514 H   0  0  0  0  0  0  0  0  0  0  0  0
  139.9722   78.9677  222.0126 H   0  0  0  0  0  0  0  0  0  0  0  0
  142.9244   79.9549  221.4847 H   0  0  0  0  0  0  0  0  0  0  0  0
  141.5337   80.6251  220.5659 H   0  0  0  0  0  0  0  0  0  0  0  0
  142.0990   82.1422  222.4223 H   0  0  0  0  0  0  0  0  0  0  0  0
  140.5271   81.4146  222.7522 H   0  0  0  0  0  0  0  0  0  0  0  0
  141.7522   79.1058  225.0855 H   0  0  0  0  0  0  0  0  0  0  0  0
  140.3446   79.7979  224.1569 H   0  0  0  0  0  0  0  0  0  0  0  0
  142.5508   78.0150  222.9829 H   0  0  0  0  0  0  0  0  0  0  0  0
  140.8983   77.4840  223.3661 H   0  0  0  0  0  0  0  0  0  0  0  0
  139.0719   70.2251  221.9571 H   0  0  0  0  0  0  0  0  0  0  0  0
  139.1208   68.5351  223.7903 H   0  0  0  0  0  0  0  0  0  0  0  0
  139.6663   67.9623  226.0440 H   0  0  0  0  0  0  0  0  0  0  0  0
  141.4608   70.9306  228.5578 H   0  0  0  0  0  0  0  0  0  0  0  0
  141.4128   72.6067  226.7404 H   0  0  0  0  0  0  0  0  0  0  0  0
  1  2  2  0
  2  3  1  0
  3  4  1  0
  4  5  1  0
  5  6  2  0
  5  7  1  0
  7  8  1  0
  8  9  1  0
  9 10  1  0
 10 11  1  0
 11 12  1  0
 12 13  1  0
 13 14  1  0
 14 15  1  0
 15 16  1  0
 16 17  1  0
 17 18  1  0
 18 19  1  0
  2 20  1  0
 20 21  2  0
 21 22  1  0
 22 23  2  0
 23 24  1  0
 24 25  2  0
 25 26  1  0
 25 27  1  0
 27 28  2  0
 28 29  1  0
 29 30  2  0
 13  7  1  0
 19 14  1  0
 30 20  1  0
 29 23  1  0
  3 31  1  0
  4 32  1  0
  4 33  1  0
  8 34  1  0
  8 35  1  0
  9 36  1  0
  9 37  1  0
 10 38  1  0
 10 39  1  0
 11 40  1  0
 11 41  1  0
 12 42  1  0
 12 43  1  0
 13 44  1  6
 14 45  1  0
 15 46  1  0
 15 47  1  0
 16 48  1  0
 16 49  1  0
 18 50  1  0
 18 51  1  0
 19 52  1  0
 19 53  1  0
 21 54  1  0
 22 55  1  0
 24 56  1  0
 27 57  1  0
 28 58  1  0
M  END
>  <smiles>  (48) 
O=C(NCC(=O)N1CCCCCC1C1CCOCC1)c1ccc2cc(Cl)ccc2n1

>  <score_type>  (48) 
oracle

>  <origin>  (48) 
autodockgpu

>  <m_score__min__energy>  (48) 
-6.4400000000000004

>  <m_primary>  (48) 
energy

>  <rmsd>  (48) 
1.8424771541034861

>  <m_score__min__rmsd>  (48) 
1.8424771541034861

>  <meeko>  (48) 
{"free_energy": -6.17, "intermolecular_energy": -9.46, "internal_energy": -1.68, "cluster_size": 27, "cluster_id": 1, "rank_in_cluster": 5}

>  <energy>  (48) 
-4.44

>  <cluster_rmsd>  (48) 
1.32

>  <cluster>  (48) 
7

$$$$

     RDKit          3D

 58 61  0  0  0  0  0  0  0  0999 V2000
  140.7810   72.2300  221.1450 O   0  0  0  0  0  0  0  0  0  0  0  0
  140.1680   72.5050  222.2240 C   0  0  0  0  0  0  0  0  0  0  0  0
  139.5010   73.7670  222.2460 N   0  0  0  0  0  0  0  0  0  0  0  0
  139.6040   74.5710  221.0390 C   0  0  0  0  0  0  0  0  0  0  0  0
  139.7870   75.9830  221.4760 C   0  0  0  0  0  0  0  0  0  0  0  0
  139.1710   76.3190  222.5240 O   0  0  0  0  0  0  0  0  0  0  0  0
  140.6110   76.8490  220.7210 N   0  0  0  0  0  0  0  0  0  0  0  0
  141.5210   76.1380  219.7810 C   0  0  0  0  0  0  0  0  0  0  0  0
  140.9780   76.3340  218.3720 C   0  0  0  0  0  0  0  0  0  0  0  0
  141.4980   77.6260  217.7680 C   0  0  0  0  0  0  0  0  0  0  0  0
  141.5560   78.7560  218.7270 C   0  0  0  0  0  0  0  0  0  0  0  0
  140.2820   78.9540  219.5560 C   0  0  0  0  0  0  0  0  0  0  0  0
  140.5780   78.2600  220.8870 C   0  0  2  0  0  0  0  0  0  0  0  0
  141.4990   78.9370  221.7940 C   0  0  0  0  0  0  0  0  0  0  0  0
  140.8560   78.8630  223.1960 C   0  0  0  0  0  0  0  0  0  0  0  0
  141.8940   79.1940  224.2450 C   0  0  0  0  0  0  0  0  0  0  0  0
  142.2300   80.5360  224.0070 O   0  0  0  0  0  0  0  0  0  0  0  0
  142.8860   80.6350  222.8100 C   0  0  0  0  0  0  0  0  0  0  0  0
  141.9840   80.2990  221.5970 C   0  0  0  0  0  0  0  0  0  0  0  0
  140.1470   71.5970  223.3630 C   0  0  0  0  0  0  0  0  0  0  0  0
  139.6430   70.3290  223.1570 C   0  0  0  0  0  0  0  0  0  0  0  0
  139.5860   69.4000  224.1920 C   0  0  0  0  0  0  0  0  0  0  0  0
  140.0490   69.7700  225.4490 C   0  0  0  0  0  0  0  0  0  0  0  0
  139.9930   68.8540  226.4710 C   0  0  0  0  0  0  0  0  0  0  0  0
  140.4620   69.2450  227.7220 C   0  0  0  0  0  0  0  0  0  0  0  0
  140.4120   68.1110  229.0530 Cl  0  0  0  0  0  0  0  0  0  0  0  0
  140.9530   70.5140  227.8740 C   0  0  0  0  0  0  0  0  0  0  0  0
  141.0140   71.4450  226.8540 C   0  0  0  0  0  0  0  0  0  0  0  0
  140.5510   71.0590  225.6190 C   0  0  0  0  0  0  0  0  0  0  0  0
  140.5900   71.9350  224.5880 N   0  0  0  0  0  0  0  0  0  0  0  0
  138.9710   74.0740  223.0940 H   0  0  0  0  0  0  0  0  0  0  0  0
  140.4670   74.2453  220.4397 H   0  0  0  0  0  0  0  0  0  0  0  0
  138.7036   74.4645  220.4161 H   0  0  0  0  0  0  0  0  0  0  0  0
  142.5355   76.5571  219.8530 H   0  0  0  0  0  0  0  0  0  0  0  0
  141.5703   75.0674  220.0289 H   0  0  0  0  0  0  0  0  0  0  0  0
  141.2945   75.4890  217.7429 H   0  0  0  0  0  0  0  0  0  0  0  0
  139.8803   76.3850  218.4214 H   0  0  0  0  0  0  0  0  0  0  0  0
  142.5127   77.4451  217.3838 H   0  0  0  0  0  0  0  0  0  0  0  0
  140.7922   77.9152  216.9754 H   0  0  0  0  0  0  0  0  0  0  0  0
  142.3916   78.5761  219.4194 H   0  0  0  0  0  0  0  0  0  0  0  0
  141.6828   79.6689  218.1266 H   0  0  0  0  0  0  0  0  0  0  0  0
  140.0822   80.0244  219.7118 H   0  0  0  0  0  0  0  0  0  0  0  0
  139.3916   78.5417  219.0587 H   0  0  0  0  0  0  0  0  0  0  0  0
  139.7228   78.3998  221.5646 H   0  0  0  0  0  0  0  0  0  0  0  0
  142.4313   78.3875  221.5968 H   0  0  0  0  0  0  0  0  0  0  0  0
  140.0285   79.5850  223.2584 H   0  0  0  0  0  0  0  0  0  0  0  0
  140.4705   77.8475  223.3694 H   0  0  0  0  0  0  0  0  0  0  0  0
  141.4762   79.0726  225.2553 H   0  0  0  0  0  0  0  0  0  0  0  0
  142.7694   78.5304  224.1864 H   0  0  0  0  0  0  0  0  0  0  0  0
  143.2562   81.6647  222.6971 H   0  0  0  0  0  0  0  0  0  0  0  0
  143.7069   79.9030  222.8228 H   0  0  0  0  0  0  0  0  0  0  0  0
  141.1369   80.9991  221.5501 H   0  0  0  0  0  0  0  0  0  0  0  0
  142.5439   80.3851  220.6541 H   0  0  0  0  0  0  0  0  0  0  0  0
  139.2800   70.0475  222.1575 H   0  0  0  0  0  0  0  0  0  0  0  0
  139.1820   68.3917  224.0182 H   0  0  0  0  0  0  0  0  0  0  0  0
  139.5904   67.8437  226.3062 H   0  0  0  0  0  0  0  0  0  0  0  0
  141.3210   70.8105  228.8673 H   0  0  0  0  0  0  0  0  0  0  0  0
  141.4170   72.4543  227.0240 H   0  0  0  0  0  0  0  0  0  0  0  0
  1  2  2  0
  2  3  1  0
  3  4  1  0
  4  5  1  0
  5  6  2  0
  5  7  1  0
  7  8  1  0
  8  9  1  0
  9 10  1  0
 10 11  1  0
 11 12  1  0
 12 13  1  0
 13 14  1  0
 14 15  1  0
 15 16  1  0
 16 17  1  0
 17 18  1  0
 18 19  1  0
  2 20  1  0
 20 21  2  0
 21 22  1  0
 22 23  2  0
 23 24  1  0
 24 25  2  0
 25 26  1  0
 25 27  1  0
 27 28  2  0
 28 29  1  0
 29 30  2  0
 13  7  1  0
 19 14  1  0
 30 20  1  0
 29 23  1  0
  3 31  1  0
  4 32  1  0
  4 33  1  0
  8 34  1  0
  8 35  1  0
  9 36  1  0
  9 37  1  0
 10 38  1  0
 10 39  1  0
 11 40  1  0
 11 41  1  0
 12 42  1  0
 12 43  1  0
 13 44  1  1
 14 45  1  0
 15 46  1  0
 15 47  1  0
 16 48  1  0
 16 49  1  0
 18 50  1  0
 18 51  1  0
 19 52  1  0
 19 53  1  0
 21 54  1  0
 22 55  1  0
 24 56  1  0
 27 57  1  0
 28 58  1  0
M  END
>  <smiles>  (49) 
O=C(NCC(=O)N1CCCCCC1C1CCOCC1)c1ccc2cc(Cl)ccc2n1

>  <score_type>  (49) 
oracle

>  <origin>  (49) 
autodockgpu

>  <m_score__min__energy>  (49) 
-6.4400000000000004

>  <m_primary>  (49) 
energy

>  <rmsd>  (49) 
1.8791484960582558

>  <m_score__min__rmsd>  (49) 
1.8791484960582558

>  <meeko>  (49) 
{"free_energy": -6.02, "intermolecular_energy": -9.3, "internal_energy": -1.9, "cluster_size": 27, "cluster_id": 1, "rank_in_cluster": 7}

>  <energy>  (49) 
-4.39

>  <cluster_rmsd>  (49) 
1.39

>  <cluster>  (49) 
7

$$$$

     RDKit          3D

 58 61  0  0  0  0  0  0  0  0999 V2000
  139.8220   71.9620  220.8480 O   0  0  0  0  0  0  0  0  0  0  0  0
  139.7720   72.3900  222.0440 C   0  0  0  0  0  0  0  0  0  0  0  0
  139.5830   73.7990  222.1830 N   0  0  0  0  0  0  0  0  0  0  0  0
  139.4720   74.5590  220.9480 C   0  0  0  0  0  0  0  0  0  0  0  0
  139.5900   75.9970  221.3140 C   0  0  0  0  0  0  0  0  0  0  0  0
  139.2220   76.3000  222.4820 O   0  0  0  0  0  0  0  0  0  0  0  0
  140.0910   76.9220  220.3690 N   0  0  0  0  0  0  0  0  0  0  0  0
  139.4030   76.8610  219.0510 C   0  0  0  0  0  0  0  0  0  0  0  0
  140.0220   77.9240  218.1540 C   0  0  0  0  0  0  0  0  0  0  0  0
  141.4150   77.5130  217.7120 C   0  0  0  0  0  0  0  0  0  0  0  0
  142.4920   77.9530  218.6320 C   0  0  0  0  0  0  0  0  0  0  0  0
  142.4650   77.2910  220.0180 C   0  0  0  0  0  0  0  0  0  0  0  0
  141.1740   77.7930  220.6660 C   0  0  2  0  0  0  0  0  0  0  0  0
  141.2960   78.4310  221.9730 C   0  0  0  0  0  0  0  0  0  0  0  0
  140.0060   79.2540  222.1740 C   0  0  0  0  0  0  0  0  0  0  0  0
  139.8720   79.6360  223.6310 C   0  0  0  0  0  0  0  0  0  0  0  0
  140.9580   80.4890  223.8800 O   0  0  0  0  0  0  0  0  0  0  0  0
  142.1240   79.7770  223.8020 C   0  0  0  0  0  0  0  0  0  0  0  0
  142.4250   79.2660  222.3710 C   0  0  0  0  0  0  0  0  0  0  0  0
  139.8990   71.5080  223.1960 C   0  0  0  0  0  0  0  0  0  0  0  0
  139.4680   70.2050  223.0490 C   0  0  0  0  0  0  0  0  0  0  0  0
  139.5540   69.2960  224.1010 C   0  0  0  0  0  0  0  0  0  0  0  0
  140.0830   69.7230  225.3120 C   0  0  0  0  0  0  0  0  0  0  0  0
  140.1670   68.8270  226.3500 C   0  0  0  0  0  0  0  0  0  0  0  0
  140.7010   69.2750  227.5550 C   0  0  0  0  0  0  0  0  0  0  0  0
  140.8290   68.1690  228.9040 Cl  0  0  0  0  0  0  0  0  0  0  0  0
  141.1140   70.5770  227.6480 C   0  0  0  0  0  0  0  0  0  0  0  0
  141.0350   71.4880  226.6120 C   0  0  0  0  0  0  0  0  0  0  0  0
  140.5080   71.0460  225.4220 C   0  0  0  0  0  0  0  0  0  0  0  0
  140.4090   71.9010  224.3770 N   0  0  0  0  0  0  0  0  0  0  0  0
  139.5290   74.2370  223.1310 H   0  0  0  0  0  0  0  0  0  0  0  0
  140.2795   74.2771  220.2563 H   0  0  0  0  0  0  0  0  0  0  0  0
  138.5142   74.3575  220.4460 H   0  0  0  0  0  0  0  0  0  0  0  0
  139.5409   75.8661  218.6025 H   0  0  0  0  0  0  0  0  0  0  0  0
  138.3244   77.0402  219.1716 H   0  0  0  0  0  0  0  0  0  0  0  0
  139.3875   78.0603  217.2658 H   0  0  0  0  0  0  0  0  0  0  0  0
  140.0952   78.8640  218.7206 H   0  0  0  0  0  0  0  0  0  0  0  0
  141.4464   76.4157  217.6418 H   0  0  0  0  0  0  0  0  0  0  0  0
  141.6008   78.0037  216.7452 H   0  0  0  0  0  0  0  0  0  0  0  0
  143.4593   77.7229  218.1615 H   0  0  0  0  0  0  0  0  0  0  0  0
  142.3362   79.0290  218.7994 H   0  0  0  0  0  0  0  0  0  0  0  0
  142.4505   76.1951  219.9237 H   0  0  0  0  0  0  0  0  0  0  0  0
  143.3540   77.5419  220.6152 H   0  0  0  0  0  0  0  0  0  0  0  0
  140.8660   78.7294  220.1778 H   0  0  0  0  0  0  0  0  0  0  0  0
  141.4864   77.5589  222.6158 H   0  0  0  0  0  0  0  0  0  0  0  0
  140.0530   80.1649  221.5592 H   0  0  0  0  0  0  0  0  0  0  0  0
  139.1366   78.6515  221.8721 H   0  0  0  0  0  0  0  0  0  0  0  0
  138.9204   80.1585  223.8085 H   0  0  0  0  0  0  0  0  0  0  0  0
  139.8747   78.7570  224.2923 H   0  0  0  0  0  0  0  0  0  0  0  0
  142.9526   80.4244  224.1248 H   0  0  0  0  0  0  0  0  0  0  0  0
  142.0159   78.8954  224.4509 H   0  0  0  0  0  0  0  0  0  0  0  0
  142.5293   80.1155  221.6801 H   0  0  0  0  0  0  0  0  0  0  0  0
  143.3650   78.6952  222.3462 H   0  0  0  0  0  0  0  0  0  0  0  0
  139.0497   69.8790  222.0853 H   0  0  0  0  0  0  0  0  0  0  0  0
  139.2093   68.2591  223.9749 H   0  0  0  0  0  0  0  0  0  0  0  0
  139.8233   67.7887  226.2327 H   0  0  0  0  0  0  0  0  0  0  0  0
  141.5342   70.9186  228.6055 H   0  0  0  0  0  0  0  0  0  0  0  0
  141.3800   72.5253  226.7347 H   0  0  0  0  0  0  0  0  0  0  0  0
  1  2  2  0
  2  3  1  0
  3  4  1  0
  4  5  1  0
  5  6  2  0
  5  7  1  0
  7  8  1  0
  8  9  1  0
  9 10  1  0
 10 11  1  0
 11 12  1  0
 12 13  1  0
 13 14  1  0
 14 15  1  0
 15 16  1  0
 16 17  1  0
 17 18  1  0
 18 19  1  0
  2 20  1  0
 20 21  2  0
 21 22  1  0
 22 23  2  0
 23 24  1  0
 24 25  2  0
 25 26  1  0
 25 27  1  0
 27 28  2  0
 28 29  1  0
 29 30  2  0
 13  7  1  0
 19 14  1  0
 30 20  1  0
 29 23  1  0
  3 31  1  0
  4 32  1  0
  4 33  1  0
  8 34  1  0
  8 35  1  0
  9 36  1  0
  9 37  1  0
 10 38  1  0
 10 39  1  0
 11 40  1  0
 11 41  1  0
 12 42  1  0
 12 43  1  0
 13 44  1  6
 14 45  1  0
 15 46  1  0
 15 47  1  0
 16 48  1  0
 16 49  1  0
 18 50  1  0
 18 51  1  0
 19 52  1  0
 19 53  1  0
 21 54  1  0
 22 55  1  0
 24 56  1  0
 27 57  1  0
 28 58  1  0
M  END
>  <smiles>  (50) 
O=C(NCC(=O)N1CCCCCC1C1CCOCC1)c1ccc2cc(Cl)ccc2n1

>  <score_type>  (50) 
oracle

>  <origin>  (50) 
autodockgpu

>  <m_score__min__energy>  (50) 
-6.4400000000000004

>  <m_primary>  (50) 
energy

>  <rmsd>  (50) 
1.6320233961528705

>  <m_score__min__rmsd>  (50) 
1.6320233961528705

>  <meeko>  (50) 
{"free_energy": -5.91, "intermolecular_energy": -9.19, "internal_energy": -2.14, "cluster_size": 27, "cluster_id": 1, "rank_in_cluster": 10}

>  <energy>  (50) 
-4.76

>  <cluster_rmsd>  (50) 
0.0

>  <cluster>  (50) 
8

$$$$

     RDKit          3D

 58 61  0  0  0  0  0  0  0  0999 V2000
  136.6760   73.5700  220.4470 O   0  0  0  0  0  0  0  0  0  0  0  0
  137.1870   73.8700  221.5430 C   0  0  0  0  0  0  0  0  0  0  0  0
  138.5980   73.8610  221.7500 N   0  0  0  0  0  0  0  0  0  0  0  0
  139.4920   73.4940  220.6700 C   0  0  0  0  0  0  0  0  0  0  0  0
  140.8130   74.1970  220.8130 C   0  0  0  0  0  0  0  0  0  0  0  0
  141.3940   74.0320  221.9170 O   0  0  0  0  0  0  0  0  0  0  0  0
  141.3090   74.9730  219.7490 N   0  0  0  0  0  0  0  0  0  0  0  0
  140.3270   75.8370  219.0940 C   0  0  0  0  0  0  0  0  0  0  0  0
  140.3910   77.1650  219.8230 C   0  0  0  0  0  0  0  0  0  0  0  0
  141.5550   78.0050  219.3340 C   0  0  0  0  0  0  0  0  0  0  0  0
  142.6660   77.2130  218.7270 C   0  0  0  0  0  0  0  0  0  0  0  0
  143.3140   76.2300  219.6980 C   0  0  0  0  0  0  0  0  0  0  0  0
  142.6970   74.8800  219.3850 C   0  0  1  0  0  0  0  0  0  0  0  0
  143.4180   73.7240  219.9930 C   0  0  0  0  0  0  0  0  0  0  0  0
  144.8140   74.0920  220.4500 C   0  0  0  0  0  0  0  0  0  0  0  0
  145.6710   72.8460  220.3350 C   0  0  0  0  0  0  0  0  0  0  0  0
  145.9650   72.6350  218.9870 O   0  0  0  0  0  0  0  0  0  0  0  0
  144.9070   73.0150  218.1650 C   0  0  0  0  0  0  0  0  0  0  0  0
  143.6120   72.6950  218.8830 C   0  0  0  0  0  0  0  0  0  0  0  0
  136.3220   74.2470  222.6600 C   0  0  0  0  0  0  0  0  0  0  0  0
  136.2470   75.5610  223.0780 C   0  0  0  0  0  0  0  0  0  0  0  0
  135.4390   75.9570  224.1300 C   0  0  0  0  0  0  0  0  0  0  0  0
  134.6860   75.0100  224.7840 C   0  0  0  0  0  0  0  0  0  0  0  0
  133.8650   75.3500  225.8380 C   0  0  0  0  0  0  0  0  0  0  0  0
  133.1380   74.3560  226.4470 C   0  0  0  0  0  0  0  0  0  0  0  0
  132.0800   74.7070  227.7830 Cl  0  0  0  0  0  0  0  0  0  0  0  0
  133.2220   73.0380  226.0170 C   0  0  0  0  0  0  0  0  0  0  0  0
  134.0420   72.6780  224.9580 C   0  0  0  0  0  0  0  0  0  0  0  0
  134.7680   73.6920  224.3550 C   0  0  0  0  0  0  0  0  0  0  0  0
  135.5670   73.3520  223.3260 N   0  0  0  0  0  0  0  0  0  0  0  0
  138.9700   74.1220  222.6950 H   0  0  0  0  0  0  0  0  0  0  0  0
  139.6572   72.4067  220.6914 H   0  0  0  0  0  0  0  0  0  0  0  0
  139.0343   73.7912  219.7149 H   0  0  0  0  0  0  0  0  0  0  0  0
  140.5824   75.9705  218.0324 H   0  0  0  0  0  0  0  0  0  0  0  0
  139.3170   75.4029  219.1330 H   0  0  0  0  0  0  0  0  0  0  0  0
  139.4542   77.7148  219.6495 H   0  0  0  0  0  0  0  0  0  0  0  0
  140.5320   76.9664  220.8957 H   0  0  0  0  0  0  0  0  0  0  0  0
  141.1790   78.7090  218.5770 H   0  0  0  0  0  0  0  0  0  0  0  0
  141.9725   78.5126  220.2161 H   0  0  0  0  0  0  0  0  0  0  0  0
  142.2640   76.6462  217.8742 H   0  0  0  0  0  0  0  0  0  0  0  0
  143.4445   77.9281  218.4229 H   0  0  0  0  0  0  0  0  0  0  0  0
  144.4027   76.1995  219.5439 H   0  0  0  0  0  0  0  0  0  0  0  0
  143.1452   76.5215  220.7452 H   0  0  0  0  0  0  0  0  0  0  0  0
  142.7902   74.6575  218.3118 H   0  0  0  0  0  0  0  0  0  0  0  0
  142.8331   73.3689  220.8543 H   0  0  0  0  0  0  0  0  0  0  0  0
  145.2213   74.8890  219.8105 H   0  0  0  0  0  0  0  0  0  0  0  0
  144.7995   74.4596  221.4867 H   0  0  0  0  0  0  0  0  0  0  0  0
  146.6039   72.9835  220.9014 H   0  0  0  0  0  0  0  0  0  0  0  0
  145.1325   71.9785  220.7442 H   0  0  0  0  0  0  0  0  0  0  0  0
  144.9629   74.0945  217.9610 H   0  0  0  0  0  0  0  0  0  0  0  0
  144.9552   72.4738  217.2086 H   0  0  0  0  0  0  0  0  0  0  0  0
  142.7711   72.7466  218.1758 H   0  0  0  0  0  0  0  0  0  0  0  0
  143.6520   71.6807  219.3067 H   0  0  0  0  0  0  0  0  0  0  0  0
  136.8501   76.3192  222.5571 H   0  0  0  0  0  0  0  0  0  0  0  0
  135.3998   77.0123  224.4380 H   0  0  0  0  0  0  0  0  0  0  0  0
  133.7937   76.3920  226.1831 H   0  0  0  0  0  0  0  0  0  0  0  0
  132.6271   72.2653  226.5259 H   0  0  0  0  0  0  0  0  0  0  0  0
  134.1126   71.6359  224.6130 H   0  0  0  0  0  0  0  0  0  0  0  0
  1  2  2  0
  2  3  1  0
  3  4  1  0
  4  5  1  0
  5  6  2  0
  5  7  1  0
  7  8  1  0
  8  9  1  0
  9 10  1  0
 10 11  1  0
 11 12  1  0
 12 13  1  0
 13 14  1  0
 14 15  1  0
 15 16  1  0
 16 17  1  0
 17 18  1  0
 18 19  1  0
  2 20  1  0
 20 21  2  0
 21 22  1  0
 22 23  2  0
 23 24  1  0
 24 25  2  0
 25 26  1  0
 25 27  1  0
 27 28  2  0
 28 29  1  0
 29 30  2  0
 13  7  1  0
 19 14  1  0
 30 20  1  0
 29 23  1  0
  3 31  1  0
  4 32  1  0
  4 33  1  0
  8 34  1  0
  8 35  1  0
  9 36  1  0
  9 37  1  0
 10 38  1  0
 10 39  1  0
 11 40  1  0
 11 41  1  0
 12 42  1  0
 12 43  1  0
 13 44  1  6
 14 45  1  0
 15 46  1  0
 15 47  1  0
 16 48  1  0
 16 49  1  0
 18 50  1  0
 18 51  1  0
 19 52  1  0
 19 53  1  0
 21 54  1  0
 22 55  1  0
 24 56  1  0
 27 57  1  0
 28 58  1  0
M  END
>  <smiles>  (51) 
O=C(NCC(=O)N1CCCCCC1C1CCOCC1)c1ccc2cc(Cl)ccc2n1

>  <score_type>  (51) 
oracle

>  <origin>  (51) 
autodockgpu

>  <m_score__min__energy>  (51) 
-7.0800000000000001

>  <m_primary>  (51) 
energy

>  <rmsd>  (51) 
5.487809208981046

>  <m_score__min__rmsd>  (51) 
5.487809208981046

>  <meeko>  (51) 
{"free_energy": -4.99, "intermolecular_energy": -8.27, "internal_energy": -1.66, "cluster_size": 1, "cluster_id": 5, "rank_in_cluster": 1}

>  <energy>  (51) 
-7.08

>  <cluster_rmsd>  (51) 
0.0

>  <cluster>  (51) 
1

$$$$

     RDKit          3D

 58 61  0  0  0  0  0  0  0  0999 V2000
  140.0770   72.4180  220.6720 O   0  0  0  0  0  0  0  0  0  0  0  0
  139.8440   72.8040  221.8340 C   0  0  0  0  0  0  0  0  0  0  0  0
  139.5170   74.1600  222.1310 N   0  0  0  0  0  0  0  0  0  0  0  0
  139.4480   75.1450  221.0700 C   0  0  0  0  0  0  0  0  0  0  0  0
  140.0440   76.4500  221.5170 C   0  0  0  0  0  0  0  0  0  0  0  0
  139.3130   77.1440  222.2720 O   0  0  0  0  0  0  0  0  0  0  0  0
  141.3330   76.8130  221.0870 N   0  0  0  0  0  0  0  0  0  0  0  0
  142.1320   75.7260  220.5220 C   0  0  0  0  0  0  0  0  0  0  0  0
  142.5060   76.1700  219.1210 C   0  0  0  0  0  0  0  0  0  0  0  0
  141.3100   76.7460  218.3890 C   0  0  0  0  0  0  0  0  0  0  0  0
  140.6960   77.9300  219.0610 C   0  0  0  0  0  0  0  0  0  0  0  0
  141.6990   78.7830  219.8290 C   0  0  0  0  0  0  0  0  0  0  0  0
  141.7710   78.1770  221.2160 C   0  0  1  0  0  0  0  0  0  0  0  0
  141.0500   78.9590  222.2630 C   0  0  0  0  0  0  0  0  0  0  0  0
  140.8680   80.4110  221.8720 C   0  0  0  0  0  0  0  0  0  0  0  0
  140.8500   81.2250  223.1520 C   0  0  0  0  0  0  0  0  0  0  0  0
  142.1570   81.3230  223.6310 O   0  0  0  0  0  0  0  0  0  0  0  0
  142.8870   80.1660  223.3730 C   0  0  0  0  0  0  0  0  0  0  0  0
  141.9510   78.9800  223.4940 C   0  0  0  0  0  0  0  0  0  0  0  0
  139.9020   71.8440  222.9350 C   0  0  0  0  0  0  0  0  0  0  0  0
  139.4500   70.5510  222.7640 C   0  0  0  0  0  0  0  0  0  0  0  0
  139.4890   69.6130  223.7810 C   0  0  0  0  0  0  0  0  0  0  0  0
  139.9960   69.9810  225.0050 C   0  0  0  0  0  0  0  0  0  0  0  0
  140.0590   69.0870  226.0530 C   0  0  0  0  0  0  0  0  0  0  0  0
  140.5770   69.5170  227.2500 C   0  0  0  0  0  0  0  0  0  0  0  0
  140.6880   68.4480  228.6180 Cl  0  0  0  0  0  0  0  0  0  0  0  0
  141.0290   70.8210  227.4090 C   0  0  0  0  0  0  0  0  0  0  0  0
  140.9750   71.7340  226.3670 C   0  0  0  0  0  0  0  0  0  0  0  0
  140.4490   71.2820  225.1670 C   0  0  0  0  0  0  0  0  0  0  0  0
  140.3920   72.1630  224.1490 N   0  0  0  0  0  0  0  0  0  0  0  0
  139.3310   74.4260  223.1280 H   0  0  0  0  0  0  0  0  0  0  0  0
  140.0044   74.7743  220.1965 H   0  0  0  0  0  0  0  0  0  0  0  0
  138.3923   75.3096  220.8084 H   0  0  0  0  0  0  0  0  0  0  0  0
  143.0368   75.5623  221.1258 H   0  0  0  0  0  0  0  0  0  0  0  0
  141.5736   74.7784  220.5098 H   0  0  0  0  0  0  0  0  0  0  0  0
  143.2906   76.9382  219.1859 H   0  0  0  0  0  0  0  0  0  0  0  0
  142.8658   75.2930  218.5629 H   0  0  0  0  0  0  0  0  0  0  0  0
  141.6343   77.0496  217.3827 H   0  0  0  0  0  0  0  0  0  0  0  0
  140.5416   75.9591  218.3684 H   0  0  0  0  0  0  0  0  0  0  0  0
  140.2209   78.5583  218.2932 H   0  0  0  0  0  0  0  0  0  0  0  0
  139.9712   77.5456  219.7937 H   0  0  0  0  0  0  0  0  0  0  0  0
  142.6851   78.7476  219.3428 H   0  0  0  0  0  0  0  0  0  0  0  0
  141.3944   79.8395  219.8615 H   0  0  0  0  0  0  0  0  0  0  0  0
  142.8044   78.2072  221.5916 H   0  0  0  0  0  0  0  0  0  0  0  0
  140.0649   78.4957  222.4208 H   0  0  0  0  0  0  0  0  0  0  0  0
  141.7013   80.7355  221.2314 H   0  0  0  0  0  0  0  0  0  0  0  0
  139.9322   80.5483  221.3104 H   0  0  0  0  0  0  0  0  0  0  0  0
  140.4532   82.2303  222.9472 H   0  0  0  0  0  0  0  0  0  0  0  0
  140.2090   80.7369  223.9009 H   0  0  0  0  0  0  0  0  0  0  0  0
  143.3053   80.2083  222.3565 H   0  0  0  0  0  0  0  0  0  0  0  0
  143.7158   80.0713  224.0900 H   0  0  0  0  0  0  0  0  0  0  0  0
  142.5341   78.0487  223.5451 H   0  0  0  0  0  0  0  0  0  0  0  0
  141.3450   79.0648  224.4081 H   0  0  0  0  0  0  0  0  0  0  0  0
  139.0445   70.2557  221.7850 H   0  0  0  0  0  0  0  0  0  0  0  0
  139.1206   68.5903  223.6129 H   0  0  0  0  0  0  0  0  0  0  0  0
  139.7026   68.0533  225.9330 H   0  0  0  0  0  0  0  0  0  0  0  0
  141.4378   71.1353  228.3807 H   0  0  0  0  0  0  0  0  0  0  0  0
  141.3324   72.7674  226.4869 H   0  0  0  0  0  0  0  0  0  0  0  0
  1  2  2  0
  2  3  1  0
  3  4  1  0
  4  5  1  0
  5  6  2  0
  5  7  1  0
  7  8  1  0
  8  9  1  0
  9 10  1  0
 10 11  1  0
 11 12  1  0
 12 13  1  0
 13 14  1  0
 14 15  1  0
 15 16  1  0
 16 17  1  0
 17 18  1  0
 18 19  1  0
  2 20  1  0
 20 21  2  0
 21 22  1  0
 22 23  2  0
 23 24  1  0
 24 25  2  0
 25 26  1  0
 25 27  1  0
 27 28  2  0
 28 29  1  0
 29 30  2  0
 13  7  1  0
 19 14  1  0
 30 20  1  0
 29 23  1  0
  3 31  1  0
  4 32  1  0
  4 33  1  0
  8 34  1  0
  8 35  1  0
  9 36  1  0
  9 37  1  0
 10 38  1  0
 10 39  1  0
 11 40  1  0
 11 41  1  0
 12 42  1  0
 12 43  1  0
 13 44  1  1
 14 45  1  0
 15 46  1  0
 15 47  1  0
 16 48  1  0
 16 49  1  0
 18 50  1  0
 18 51  1  0
 19 52  1  0
 19 53  1  0
 21 54  1  0
 22 55  1  0
 24 56  1  0
 27 57  1  0
 28 58  1  0
M  END
>  <smiles>  (52) 
O=C(NCC(=O)N1CCCCCC1C1CCOCC1)c1ccc2cc(Cl)ccc2n1

>  <score_type>  (52) 
oracle

>  <origin>  (52) 
autodockgpu

>  <m_score__min__energy>  (52) 
-7.0800000000000001

>  <m_primary>  (52) 
energy

>  <rmsd>  (52) 
2.1784063891965784

>  <m_score__min__rmsd>  (52) 
2.1784063891965784

>  <meeko>  (52) 
{"free_energy": -6.63, "intermolecular_energy": -9.91, "internal_energy": -1.2, "cluster_size": 26, "cluster_id": 1, "rank_in_cluster": 7}

>  <energy>  (52) 
-6.96

>  <cluster_rmsd>  (52) 
0.55

>  <cluster>  (52) 
1

$$$$

     RDKit          3D

 58 61  0  0  0  0  0  0  0  0999 V2000
  140.7340   72.1110  220.9900 O   0  0  0  0  0  0  0  0  0  0  0  0
  140.1260   72.4210  222.0340 C   0  0  0  0  0  0  0  0  0  0  0  0
  139.4420   73.6640  222.1720 N   0  0  0  0  0  0  0  0  0  0  0  0
  139.4350   74.6200  221.0810 C   0  0  0  0  0  0  0  0  0  0  0  0
  140.8180   75.1540  220.8350 C   0  0  0  0  0  0  0  0  0  0  0  0
  141.4710   75.4500  221.8690 O   0  0  0  0  0  0  0  0  0  0  0  0
  141.2900   75.2900  219.5170 N   0  0  0  0  0  0  0  0  0  0  0  0
  140.2660   75.5830  218.5140 C   0  0  0  0  0  0  0  0  0  0  0  0
  141.0140   76.0450  217.2790 C   0  0  0  0  0  0  0  0  0  0  0  0
  141.7510   77.3450  217.5360 C   0  0  0  0  0  0  0  0  0  0  0  0
  143.1640   77.1660  217.9840 C   0  0  0  0  0  0  0  0  0  0  0  0
  143.2990   76.5310  219.3650 C   0  0  0  0  0  0  0  0  0  0  0  0
  142.6940   75.1460  219.2430 C   0  0  1  0  0  0  0  0  0  0  0  0
  143.3790   74.1060  220.0650 C   0  0  0  0  0  0  0  0  0  0  0  0
  144.7720   74.5280  220.4820 C   0  0  0  0  0  0  0  0  0  0  0  0
  145.6070   73.2690  220.6130 C   0  0  0  0  0  0  0  0  0  0  0  0
  145.9250   72.8160  219.3320 O   0  0  0  0  0  0  0  0  0  0  0  0
  144.8930   73.0590  218.4290 C   0  0  0  0  0  0  0  0  0  0  0  0
  143.5770   72.8920  219.1620 C   0  0  0  0  0  0  0  0  0  0  0  0
  140.1070   71.4870  223.1590 C   0  0  0  0  0  0  0  0  0  0  0  0
  139.5830   70.2190  223.0090 C   0  0  0  0  0  0  0  0  0  0  0  0
  139.5480   69.3060  224.0500 C   0  0  0  0  0  0  0  0  0  0  0  0
  140.0510   69.6750  225.2750 C   0  0  0  0  0  0  0  0  0  0  0  0
  140.0410   68.8050  226.3450 C   0  0  0  0  0  0  0  0  0  0  0  0
  140.5610   69.2350  227.5420 C   0  0  0  0  0  0  0  0  0  0  0  0
  140.5830   68.1960  228.9370 Cl  0  0  0  0  0  0  0  0  0  0  0  0
  141.0850   70.5140  227.6790 C   0  0  0  0  0  0  0  0  0  0  0  0
  141.1040   71.4020  226.6140 C   0  0  0  0  0  0  0  0  0  0  0  0
  140.5770   70.9520  225.4150 C   0  0  0  0  0  0  0  0  0  0  0  0
  140.5910   71.8080  224.3750 N   0  0  0  0  0  0  0  0  0  0  0  0
  138.9480   73.8710  223.0730 H   0  0  0  0  0  0  0  0  0  0  0  0
  139.0715   74.1244  220.1687 H   0  0  0  0  0  0  0  0  0  0  0  0
  138.7744   75.4578  221.3486 H   0  0  0  0  0  0  0  0  0  0  0  0
  139.6797   74.6795  218.2906 H   0  0  0  0  0  0  0  0  0  0  0  0
  139.5606   76.3488  218.8689 H   0  0  0  0  0  0  0  0  0  0  0  0
  141.7412   75.2718  216.9902 H   0  0  0  0  0  0  0  0  0  0  0  0
  140.2842   76.2128  216.4733 H   0  0  0  0  0  0  0  0  0  0  0  0
  141.7554   77.9297  216.6043 H   0  0  0  0  0  0  0  0  0  0  0  0
  141.2207   77.8540  218.3543 H   0  0  0  0  0  0  0  0  0  0  0  0
  143.6796   76.5232  217.2553 H   0  0  0  0  0  0  0  0  0  0  0  0
  143.6079   78.1703  218.0496 H   0  0  0  0  0  0  0  0  0  0  0  0
  144.3583   76.4624  219.6533 H   0  0  0  0  0  0  0  0  0  0  0  0
  142.7915   77.1282  220.1369 H   0  0  0  0  0  0  0  0  0  0  0  0
  142.8406   74.7542  218.2257 H   0  0  0  0  0  0  0  0  0  0  0  0
  142.7687   73.9199  220.9610 H   0  0  0  0  0  0  0  0  0  0  0  0
  145.2080   75.1907  219.7200 H   0  0  0  0  0  0  0  0  0  0  0  0
  144.7428   75.0757  221.4355 H   0  0  0  0  0  0  0  0  0  0  0  0
  146.5302   73.4916  221.1681 H   0  0  0  0  0  0  0  0  0  0  0  0
  145.0438   72.4970  221.1579 H   0  0  0  0  0  0  0  0  0  0  0  0
  144.9741   74.0836  218.0370 H   0  0  0  0  0  0  0  0  0  0  0  0
  144.9513   72.3556  217.5853 H   0  0  0  0  0  0  0  0  0  0  0  0
  142.7521   72.8282  218.4371 H   0  0  0  0  0  0  0  0  0  0  0  0
  143.5893   71.9697  219.7613 H   0  0  0  0  0  0  0  0  0  0  0  0
  139.1794   69.9234  222.0293 H   0  0  0  0  0  0  0  0  0  0  0  0
  139.1246   68.3020  223.8990 H   0  0  0  0  0  0  0  0  0  0  0  0
  139.6267   67.7912  226.2427 H   0  0  0  0  0  0  0  0  0  0  0  0
  141.4928   70.8286  228.6510 H   0  0  0  0  0  0  0  0  0  0  0  0
  141.5181   72.4159  226.7167 H   0  0  0  0  0  0  0  0  0  0  0  0
  1  2  2  0
  2  3  1  0
  3  4  1  0
  4  5  1  0
  5  6  2  0
  5  7  1  0
  7  8  1  0
  8  9  1  0
  9 10  1  0
 10 11  1  0
 11 12  1  0
 12 13  1  0
 13 14  1  0
 14 15  1  0
 15 16  1  0
 16 17  1  0
 17 18  1  0
 18 19  1  0
  2 20  1  0
 20 21  2  0
 21 22  1  0
 22 23  2  0
 23 24  1  0
 24 25  2  0
 25 26  1  0
 25 27  1  0
 27 28  2  0
 28 29  1  0
 29 30  2  0
 13  7  1  0
 19 14  1  0
 30 20  1  0
 29 23  1  0
  3 31  1  0
  4 32  1  0
  4 33  1  0
  8 34  1  0
  8 35  1  0
  9 36  1  0
  9 37  1  0
 10 38  1  0
 10 39  1  0
 11 40  1  0
 11 41  1  0
 12 42  1  0
 12 43  1  0
 13 44  1  6
 14 45  1  0
 15 46  1  0
 15 47  1  0
 16 48  1  0
 16 49  1  0
 18 50  1  0
 18 51  1  0
 19 52  1  0
 19 53  1  0
 21 54  1  0
 22 55  1  0
 24 56  1  0
 27 57  1  0
 28 58  1  0
M  END
>  <smiles>  (53) 
O=C(NCC(=O)N1CCCCCC1C1CCOCC1)c1ccc2cc(Cl)ccc2n1

>  <score_type>  (53) 
oracle

>  <origin>  (53) 
autodockgpu

>  <m_score__min__energy>  (53) 
-7.0800000000000001

>  <m_primary>  (53) 
energy

>  <rmsd>  (53) 
1.7788597715505425

>  <m_score__min__rmsd>  (53) 
1.7788597715505425

>  <meeko>  (53) 
{"free_energy": -6.18, "intermolecular_energy": -9.46, "internal_energy": -1.94, "cluster_size": 13, "cluster_id": 2, "rank_in_cluster": 5}

>  <energy>  (53) 
-6.91

>  <cluster_rmsd>  (53) 
0.47

>  <cluster>  (53) 
1

$$$$

     RDKit          3D

 58 61  0  0  0  0  0  0  0  0999 V2000
  133.8270   70.3040  226.2120 O   0  0  0  0  0  0  0  0  0  0  0  0
  134.2100   71.4500  225.9060 C   0  0  0  0  0  0  0  0  0  0  0  0
  135.3350   71.6720  225.0590 N   0  0  0  0  0  0  0  0  0  0  0  0
  136.0790   70.5490  224.5220 C   0  0  0  0  0  0  0  0  0  0  0  0
  137.2370   71.0280  223.6930 C   0  0  0  0  0  0  0  0  0  0  0  0
  137.1730   72.2290  223.3210 O   0  0  0  0  0  0  0  0  0  0  0  0
  138.2890   70.1450  223.3870 N   0  0  0  0  0  0  0  0  0  0  0  0
  139.1970   70.5960  222.3330 C   0  0  0  0  0  0  0  0  0  0  0  0
  138.5880   70.1200  221.0280 C   0  0  0  0  0  0  0  0  0  0  0  0
  138.8170   68.6350  220.8230 C   0  0  0  0  0  0  0  0  0  0  0  0
  139.2350   67.9070  222.0570 C   0  0  0  0  0  0  0  0  0  0  0  0
  138.1310   67.8010  223.1040 C   0  0  0  0  0  0  0  0  0  0  0  0
  138.4110   68.9050  224.1050 C   0  0  1  0  0  0  0  0  0  0  0  0
  139.6960   68.7460  224.8470 C   0  0  0  0  0  0  0  0  0  0  0  0
  139.6750   67.5570  225.7850 C   0  0  0  0  0  0  0  0  0  0  0  0
  140.5910   67.8830  226.9490 C   0  0  0  0  0  0  0  0  0  0  0  0
  139.9380   68.7910  227.7840 O   0  0  0  0  0  0  0  0  0  0  0  0
  139.1410   69.6740  227.0590 C   0  0  0  0  0  0  0  0  0  0  0  0
  139.8380   69.9700  225.7470 C   0  0  0  0  0  0  0  0  0  0  0  0
  133.4890   72.6110  226.4240 C   0  0  0  0  0  0  0  0  0  0  0  0
  132.2950   72.4520  227.0990 C   0  0  0  0  0  0  0  0  0  0  0  0
  131.5830   73.5260  227.6060 C   0  0  0  0  0  0  0  0  0  0  0  0
  132.0810   74.7960  227.4310 C   0  0  0  0  0  0  0  0  0  0  0  0
  131.4130   75.9010  227.9150 C   0  0  0  0  0  0  0  0  0  0  0  0
  131.9650   77.1420  227.7070 C   0  0  0  0  0  0  0  0  0  0  0  0
  131.1810   78.5820  228.2880 Cl  0  0  0  0  0  0  0  0  0  0  0  0
  133.1670   77.2880  227.0270 C   0  0  0  0  0  0  0  0  0  0  0  0
  133.8530   76.1890  226.5340 C   0  0  0  0  0  0  0  0  0  0  0  0
  133.2820   74.9450  226.7520 C   0  0  0  0  0  0  0  0  0  0  0  0
  133.9420   73.8720  226.2760 N   0  0  0  0  0  0  0  0  0  0  0  0
  135.6110   72.6590  224.8360 H   0  0  0  0  0  0  0  0  0  0  0  0
  136.4586   69.9365  225.3531 H   0  0  0  0  0  0  0  0  0  0  0  0
  135.4095   69.9532  223.8842 H   0  0  0  0  0  0  0  0  0  0  0  0
  139.2768   71.6931  222.3403 H   0  0  0  0  0  0  0  0  0  0  0  0
  140.2115   70.1953  222.4751 H   0  0  0  0  0  0  0  0  0  0  0  0
  137.5059   70.3168  221.0446 H   0  0  0  0  0  0  0  0  0  0  0  0
  139.0694   70.6631  220.2014 H   0  0  0  0  0  0  0  0  0  0  0  0
  137.8802   68.1880  220.4588 H   0  0  0  0  0  0  0  0  0  0  0  0
  139.6424   68.5378  220.1023 H   0  0  0  0  0  0  0  0  0  0  0  0
  139.5448   66.8903  221.7734 H   0  0  0  0  0  0  0  0  0  0  0  0
  140.0561   68.4822  222.5096 H   0  0  0  0  0  0  0  0  0  0  0  0
  137.1450   67.9459  222.6384 H   0  0  0  0  0  0  0  0  0  0  0  0
  138.1181   66.8109  223.5831 H   0  0  0  0  0  0  0  0  0  0  0  0
  137.6785   68.8708  224.9249 H   0  0  0  0  0  0  0  0  0  0  0  0
  140.5038   68.6182  224.1114 H   0  0  0  0  0  0  0  0  0  0  0  0
  138.6516   67.3829  226.1489 H   0  0  0  0  0  0  0  0  0  0  0  0
  140.0128   66.6472  225.2672 H   0  0  0  0  0  0  0  0  0  0  0  0
  140.8222   66.9644  227.5081 H   0  0  0  0  0  0  0  0  0  0  0  0
  141.5308   68.3188  226.5792 H   0  0  0  0  0  0  0  0  0  0  0  0
  138.1596   69.2166  226.8648 H   0  0  0  0  0  0  0  0  0  0  0  0
  138.9886   70.6035  227.6272 H   0  0  0  0  0  0  0  0  0  0  0  0
  139.3718   70.8425  225.2659 H   0  0  0  0  0  0  0  0  0  0  0  0
  140.9009   70.1924  225.9223 H   0  0  0  0  0  0  0  0  0  0  0  0
  131.8954   71.4367  227.2389 H   0  0  0  0  0  0  0  0  0  0  0  0
  130.6347   73.3660  228.1399 H   0  0  0  0  0  0  0  0  0  0  0  0
  130.4608   75.7916  228.4548 H   0  0  0  0  0  0  0  0  0  0  0  0
  133.5828   78.2952  226.8767 H   0  0  0  0  0  0  0  0  0  0  0  0
  134.8057   76.2990  225.9951 H   0  0  0  0  0  0  0  0  0  0  0  0
  1  2  2  0
  2  3  1  0
  3  4  1  0
  4  5  1  0
  5  6  2  0
  5  7  1  0
  7  8  1  0
  8  9  1  0
  9 10  1  0
 10 11  1  0
 11 12  1  0
 12 13  1  0
 13 14  1  0
 14 15  1  0
 15 16  1  0
 16 17  1  0
 17 18  1  0
 18 19  1  0
  2 20  1  0
 20 21  2  0
 21 22  1  0
 22 23  2  0
 23 24  1  0
 24 25  2  0
 25 26  1  0
 25 27  1  0
 27 28  2  0
 28 29  1  0
 29 30  2  0
 13  7  1  0
 19 14  1  0
 30 20  1  0
 29 23  1  0
  3 31  1  0
  4 32  1  0
  4 33  1  0
  8 34  1  0
  8 35  1  0
  9 36  1  0
  9 37  1  0
 10 38  1  0
 10 39  1  0
 11 40  1  0
 11 41  1  0
 12 42  1  0
 12 43  1  0
 13 44  1  1
 14 45  1  0
 15 46  1  0
 15 47  1  0
 16 48  1  0
 16 49  1  0
 18 50  1  0
 18 51  1  0
 19 52  1  0
 19 53  1  0
 21 54  1  0
 22 55  1  0
 24 56  1  0
 27 57  1  0
 28 58  1  0
M  END
>  <smiles>  (54) 
O=C(NCC(=O)N1CCCCCC1C1CCOCC1)c1ccc2cc(Cl)ccc2n1

>  <score_type>  (54) 
oracle

>  <origin>  (54) 
autodockgpu

>  <m_score__min__energy>  (54) 
-7.0800000000000001

>  <m_primary>  (54) 
energy

>  <rmsd>  (54) 
8.41384246541232

>  <m_score__min__rmsd>  (54) 
8.41384246541232

>  <meeko>  (54) 
{"free_energy": -4.6, "intermolecular_energy": -7.88, "internal_energy": -2.34, "cluster_size": 3, "cluster_id": 6, "rank_in_cluster": 3}

>  <energy>  (54) 
-6.82

>  <cluster_rmsd>  (54) 
0.87

>  <cluster>  (54) 
1

$$$$

     RDKit          3D

 58 61  0  0  0  0  0  0  0  0999 V2000
  140.5870   72.5860  220.8810 O   0  0  0  0  0  0  0  0  0  0  0  0
  139.9860   72.8180  221.9480 C   0  0  0  0  0  0  0  0  0  0  0  0
  139.2460   74.0200  222.1560 N   0  0  0  0  0  0  0  0  0  0  0  0
  139.1730   75.0230  221.1110 C   0  0  0  0  0  0  0  0  0  0  0  0
  139.7470   76.3270  221.5880 C   0  0  0  0  0  0  0  0  0  0  0  0
  138.9480   77.0700  222.2140 O   0  0  0  0  0  0  0  0  0  0  0  0
  141.0930   76.6370  221.3190 N   0  0  0  0  0  0  0  0  0  0  0  0
  141.8960   75.5320  220.7950 C   0  0  0  0  0  0  0  0  0  0  0  0
  142.5500   76.0560  219.5310 C   0  0  0  0  0  0  0  0  0  0  0  0
  141.5370   76.7280  218.6240 C   0  0  0  0  0  0  0  0  0  0  0  0
  140.7300   77.7910  219.2940 C   0  0  0  0  0  0  0  0  0  0  0  0
  141.5490   78.6840  220.2220 C   0  0  0  0  0  0  0  0  0  0  0  0
  141.5810   77.9690  221.5580 C   0  0  1  0  0  0  0  0  0  0  0  0
  140.8770   78.6940  222.6560 C   0  0  0  0  0  0  0  0  0  0  0  0
  140.4780   80.0990  222.2540 C   0  0  0  0  0  0  0  0  0  0  0  0
  140.4870   80.9490  223.5090 C   0  0  0  0  0  0  0  0  0  0  0  0
  141.8140   81.2220  223.8470 O   0  0  0  0  0  0  0  0  0  0  0  0
  142.6520   80.1530  223.5400 C   0  0  0  0  0  0  0  0  0  0  0  0
  141.8880   78.8680  223.7860 C   0  0  0  0  0  0  0  0  0  0  0  0
  140.0330   71.8340  223.0280 C   0  0  0  0  0  0  0  0  0  0  0  0
  139.5620   70.5520  222.8300 C   0  0  0  0  0  0  0  0  0  0  0  0
  139.5900   69.5910  223.8260 C   0  0  0  0  0  0  0  0  0  0  0  0
  140.1040   69.9250  225.0570 C   0  0  0  0  0  0  0  0  0  0  0  0
  140.1560   69.0080  226.0850 C   0  0  0  0  0  0  0  0  0  0  0  0
  140.6820   69.4050  227.2900 C   0  0  0  0  0  0  0  0  0  0  0  0
  140.7810   68.3040  228.6340 Cl  0  0  0  0  0  0  0  0  0  0  0  0
  141.1530   70.6980  227.4770 C   0  0  0  0  0  0  0  0  0  0  0  0
  141.1100   71.6340  226.4550 C   0  0  0  0  0  0  0  0  0  0  0  0
  140.5760   71.2160  225.2460 C   0  0  0  0  0  0  0  0  0  0  0  0
  140.5290   72.1190  224.2470 N   0  0  0  0  0  0  0  0  0  0  0  0
  138.7610   74.1600  223.0750 H   0  0  0  0  0  0  0  0  0  0  0  0
  139.7426   74.6758  220.2363 H   0  0  0  0  0  0  0  0  0  0  0  0
  138.1179   75.1777  220.8413 H   0  0  0  0  0  0  0  0  0  0  0  0
  142.6615   75.2347  221.5269 H   0  0  0  0  0  0  0  0  0  0  0  0
  141.2782   74.6448  220.5920 H   0  0  0  0  0  0  0  0  0  0  0  0
  143.3255   76.7864  219.8052 H   0  0  0  0  0  0  0  0  0  0  0  0
  142.9902   75.2055  218.9897 H   0  0  0  0  0  0  0  0  0  0  0  0
  142.0769   77.1838  217.7809 H   0  0  0  0  0  0  0  0  0  0  0  0
  140.8308   75.9477  218.3039 H   0  0  0  0  0  0  0  0  0  0  0  0
  140.2728   78.4222  218.5177 H   0  0  0  0  0  0  0  0  0  0  0  0
  139.9779   77.2826  219.9153 H   0  0  0  0  0  0  0  0  0  0  0  0
  142.5691   78.8106  219.8304 H   0  0  0  0  0  0  0  0  0  0  0  0
  141.1097   79.6886  220.3101 H   0  0  0  0  0  0  0  0  0  0  0  0
  142.6104   77.9298  221.9438 H   0  0  0  0  0  0  0  0  0  0  0  0
  139.9779   78.1203  222.9253 H   0  0  0  0  0  0  0  0  0  0  0  0
  141.1963   80.4994  221.5235 H   0  0  0  0  0  0  0  0  0  0  0  0
  139.4807   80.1019  221.7899 H   0  0  0  0  0  0  0  0  0  0  0  0
  139.9496   81.8907  223.3237 H   0  0  0  0  0  0  0  0  0  0  0  0
  139.9900   80.4138  224.3315 H   0  0  0  0  0  0  0  0  0  0  0  0
  142.9562   80.2093  222.4844 H   0  0  0  0  0  0  0  0  0  0  0  0
  143.5547   80.1849  224.1677 H   0  0  0  0  0  0  0  0  0  0  0  0
  142.5844   78.0166  223.7977 H   0  0  0  0  0  0  0  0  0  0  0  0
  141.3715   78.9114  224.7562 H   0  0  0  0  0  0  0  0  0  0  0  0
  139.1497   70.2843  221.8459 H   0  0  0  0  0  0  0  0  0  0  0  0
  139.2075   68.5773  223.6360 H   0  0  0  0  0  0  0  0  0  0  0  0
  139.7849   67.9822  225.9435 H   0  0  0  0  0  0  0  0  0  0  0  0
  141.5680   70.9850  228.4544 H   0  0  0  0  0  0  0  0  0  0  0  0
  141.4819   72.6595  226.5968 H   0  0  0  0  0  0  0  0  0  0  0  0
  1  2  2  0
  2  3  1  0
  3  4  1  0
  4  5  1  0
  5  6  2  0
  5  7  1  0
  7  8  1  0
  8  9  1  0
  9 10  1  0
 10 11  1  0
 11 12  1  0
 12 13  1  0
 13 14  1  0
 14 15  1  0
 15 16  1  0
 16 17  1  0
 17 18  1  0
 18 19  1  0
  2 20  1  0
 20 21  2  0
 21 22  1  0
 22 23  2  0
 23 24  1  0
 24 25  2  0
 25 26  1  0
 25 27  1  0
 27 28  2  0
 28 29  1  0
 29 30  2  0
 13  7  1  0
 19 14  1  0
 30 20  1  0
 29 23  1  0
  3 31  1  0
  4 32  1  0
  4 33  1  0
  8 34  1  0
  8 35  1  0
  9 36  1  0
  9 37  1  0
 10 38  1  0
 10 39  1  0
 11 40  1  0
 11 41  1  0
 12 42  1  0
 12 43  1  0
 13 44  1  1
 14 45  1  0
 15 46  1  0
 15 47  1  0
 16 48  1  0
 16 49  1  0
 18 50  1  0
 18 51  1  0
 19 52  1  0
 19 53  1  0
 21 54  1  0
 22 55  1  0
 24 56  1  0
 27 57  1  0
 28 58  1  0
M  END
>  <smiles>  (55) 
O=C(NCC(=O)N1CCCCCC1C1CCOCC1)c1ccc2cc(Cl)ccc2n1

>  <score_type>  (55) 
oracle

>  <origin>  (55) 
autodockgpu

>  <m_score__min__energy>  (55) 
-7.0800000000000001

>  <m_primary>  (55) 
energy

>  <rmsd>  (55) 
2.1962027057092257

>  <m_score__min__rmsd>  (55) 
2.1962027057092257

>  <meeko>  (55) 
{"free_energy": -7.08, "intermolecular_energy": -10.36, "internal_energy": -1.19, "cluster_size": 26, "cluster_id": 1, "rank_in_cluster": 1}

>  <energy>  (55) 
-6.74

>  <cluster_rmsd>  (55) 
0.48

>  <cluster>  (55) 
1

$$$$

     RDKit          3D

 58 61  0  0  0  0  0  0  0  0999 V2000
  139.0800   72.1570  220.8200 O   0  0  0  0  0  0  0  0  0  0  0  0
  139.7480   72.4430  221.8330 C   0  0  0  0  0  0  0  0  0  0  0  0
  140.4950   73.6530  221.9310 N   0  0  0  0  0  0  0  0  0  0  0  0
  140.5000   74.6010  220.8330 C   0  0  0  0  0  0  0  0  0  0  0  0
  141.0910   75.9130  221.2670 C   0  0  0  0  0  0  0  0  0  0  0  0
  141.0740   76.1260  222.5080 O   0  0  0  0  0  0  0  0  0  0  0  0
  141.6100   76.7970  220.3040 N   0  0  0  0  0  0  0  0  0  0  0  0
  142.1110   76.1670  219.0830 C   0  0  0  0  0  0  0  0  0  0  0  0
  141.3710   76.8310  217.9380 C   0  0  0  0  0  0  0  0  0  0  0  0
  141.9180   78.2180  217.6610 C   0  0  0  0  0  0  0  0  0  0  0  0
  141.2430   79.3050  218.4320 C   0  0  0  0  0  0  0  0  0  0  0  0
  140.5290   78.8090  219.6840 C   0  0  0  0  0  0  0  0  0  0  0  0
  141.6110   78.2120  220.5620 C   0  0  1  0  0  0  0  0  0  0  0  0
  141.4970   78.5750  222.0050 C   0  0  0  0  0  0  0  0  0  0  0  0
  140.1080   79.0600  222.3680 C   0  0  0  0  0  0  0  0  0  0  0  0
  140.2580   80.0470  223.5090 C   0  0  0  0  0  0  0  0  0  0  0  0
  140.7450   81.2490  222.9930 O   0  0  0  0  0  0  0  0  0  0  0  0
  141.6280   81.0330  221.9370 C   0  0  0  0  0  0  0  0  0  0  0  0
  142.4160   79.7730  222.2300 C   0  0  0  0  0  0  0  0  0  0  0  0
  139.7710   71.5160  222.9630 C   0  0  0  0  0  0  0  0  0  0  0  0
  139.1180   70.3020  222.8900 C   0  0  0  0  0  0  0  0  0  0  0  0
  139.1180   69.3980  223.9380 C   0  0  0  0  0  0  0  0  0  0  0  0
  139.7900   69.7190  225.0940 C   0  0  0  0  0  0  0  0  0  0  0  0
  139.8220   68.8560  226.1680 C   0  0  0  0  0  0  0  0  0  0  0  0
  140.5120   69.2370  227.2930 C   0  0  0  0  0  0  0  0  0  0  0  0
  140.5970   68.2010  228.6890 Cl  0  0  0  0  0  0  0  0  0  0  0  0
  141.1640   70.4610  227.3550 C   0  0  0  0  0  0  0  0  0  0  0  0
  141.1440   71.3420  226.2840 C   0  0  0  0  0  0  0  0  0  0  0  0
  140.4440   70.9420  225.1580 C   0  0  0  0  0  0  0  0  0  0  0  0
  140.4180   71.7920  224.1130 N   0  0  0  0  0  0  0  0  0  0  0  0
  141.0380   73.8400  222.8080 H   0  0  0  0  0  0  0  0  0  0  0  0
  141.0978   74.1918  220.0053 H   0  0  0  0  0  0  0  0  0  0  0  0
  139.4631   74.7705  220.5072 H   0  0  0  0  0  0  0  0  0  0  0  0
  143.1942   76.3311  218.9847 H   0  0  0  0  0  0  0  0  0  0  0  0
  141.9462   75.0795  219.0932 H   0  0  0  0  0  0  0  0  0  0  0  0
  141.4821   76.2145  217.0338 H   0  0  0  0  0  0  0  0  0  0  0  0
  140.3110   76.9244  218.2166 H   0  0  0  0  0  0  0  0  0  0  0  0
  142.9876   78.2252  217.9179 H   0  0  0  0  0  0  0  0  0  0  0  0
  141.7355   78.4241  216.5960 H   0  0  0  0  0  0  0  0  0  0  0  0
  142.0025   80.0416  218.7330 H   0  0  0  0  0  0  0  0  0  0  0  0
  140.4769   79.7409  217.7738 H   0  0  0  0  0  0  0  0  0  0  0  0
  140.0338   79.6448  220.2000 H   0  0  0  0  0  0  0  0  0  0  0  0
  139.7489   78.0721  219.4422 H   0  0  0  0  0  0  0  0  0  0  0  0
  142.5903   78.6413  220.3039 H   0  0  0  0  0  0  0  0  0  0  0  0
  141.7429   77.6856  222.6038 H   0  0  0  0  0  0  0  0  0  0  0  0
  139.6436   79.5540  221.5018 H   0  0  0  0  0  0  0  0  0  0  0  0
  139.4667   78.2169  222.6646 H   0  0  0  0  0  0  0  0  0  0  0  0
  139.2805   80.2161  223.9844 H   0  0  0  0  0  0  0  0  0  0  0  0
  140.9548   79.6500  224.2619 H   0  0  0  0  0  0  0  0  0  0  0  0
  141.0651   80.9108  220.9998 H   0  0  0  0  0  0  0  0  0  0  0  0
  142.3085   81.8905  221.8289 H   0  0  0  0  0  0  0  0  0  0  0  0
  143.2825   79.7099  221.5553 H   0  0  0  0  0  0  0  0  0  0  0  0
  142.7799   79.7842  223.2680 H   0  0  0  0  0  0  0  0  0  0  0  0
  138.5788   70.0441  221.9666 H   0  0  0  0  0  0  0  0  0  0  0  0
  138.5888   68.4379  223.8476 H   0  0  0  0  0  0  0  0  0  0  0  0
  139.3071   67.8849  226.1253 H   0  0  0  0  0  0  0  0  0  0  0  0
  141.7068   70.7374  228.2709 H   0  0  0  0  0  0  0  0  0  0  0  0
  141.6598   72.3126  226.3269 H   0  0  0  0  0  0  0  0  0  0  0  0
  1  2  2  0
  2  3  1  0
  3  4  1  0
  4  5  1  0
  5  6  2  0
  5  7  1  0
  7  8  1  0
  8  9  1  0
  9 10  1  0
 10 11  1  0
 11 12  1  0
 12 13  1  0
 13 14  1  0
 14 15  1  0
 15 16  1  0
 16 17  1  0
 17 18  1  0
 18 19  1  0
  2 20  1  0
 20 21  2  0
 21 22  1  0
 22 23  2  0
 23 24  1  0
 24 25  2  0
 25 26  1  0
 25 27  1  0
 27 28  2  0
 28 29  1  0
 29 30  2  0
 13  7  1  0
 19 14  1  0
 30 20  1  0
 29 23  1  0
  3 31  1  0
  4 32  1  0
  4 33  1  0
  8 34  1  0
  8 35  1  0
  9 36  1  0
  9 37  1  0
 10 38  1  0
 10 39  1  0
 11 40  1  0
 11 41  1  0
 12 42  1  0
 12 43  1  0
 13 44  1  6
 14 45  1  0
 15 46  1  0
 15 47  1  0
 16 48  1  0
 16 49  1  0
 18 50  1  0
 18 51  1  0
 19 52  1  0
 19 53  1  0
 21 54  1  0
 22 55  1  0
 24 56  1  0
 27 57  1  0
 28 58  1  0
M  END
>  <smiles>  (56) 
O=C(NCC(=O)N1CCCCCC1C1CCOCC1)c1ccc2cc(Cl)ccc2n1

>  <score_type>  (56) 
oracle

>  <origin>  (56) 
autodockgpu

>  <m_score__min__energy>  (56) 
-7.0800000000000001

>  <m_primary>  (56) 
energy

>  <rmsd>  (56) 
1.9788452153011606

>  <m_score__min__rmsd>  (56) 
1.9788452153011606

>  <meeko>  (56) 
{"free_energy": -5.78, "intermolecular_energy": -9.07, "internal_energy": -1.84, "cluster_size": 26, "cluster_id": 1, "rank_in_cluster": 20}

>  <energy>  (56) 
-6.7

>  <cluster_rmsd>  (56) 
0.48

>  <cluster>  (56) 
1

$$$$

     RDKit          3D

 58 61  0  0  0  0  0  0  0  0999 V2000
  139.4380   71.3810  220.8250 O   0  0  0  0  0  0  0  0  0  0  0  0
  139.6270   71.8960  221.9450 C   0  0  0  0  0  0  0  0  0  0  0  0
  139.7390   73.3070  222.1210 N   0  0  0  0  0  0  0  0  0  0  0  0
  139.6340   74.1960  220.9810 C   0  0  0  0  0  0  0  0  0  0  0  0
  140.8620   75.0560  220.8640 C   0  0  0  0  0  0  0  0  0  0  0  0
  141.3790   75.4060  221.9570 O   0  0  0  0  0  0  0  0  0  0  0  0
  141.3480   75.4100  219.5920 N   0  0  0  0  0  0  0  0  0  0  0  0
  140.3460   75.9350  218.6650 C   0  0  0  0  0  0  0  0  0  0  0  0
  140.0720   77.3580  219.1090 C   0  0  0  0  0  0  0  0  0  0  0  0
  141.3420   78.0430  219.5750 C   0  0  0  0  0  0  0  0  0  0  0  0
  142.5690   77.6220  218.8340 C   0  0  0  0  0  0  0  0  0  0  0  0
  143.4010   76.5860  219.5770 C   0  0  0  0  0  0  0  0  0  0  0  0
  142.7450   75.2500  219.2920 C   0  0  1  0  0  0  0  0  0  0  0  0
  143.3930   74.0920  219.9760 C   0  0  0  0  0  0  0  0  0  0  0  0
  144.7740   74.4330  220.4980 C   0  0  0  0  0  0  0  0  0  0  0  0
  145.5940   73.1580  220.4720 C   0  0  0  0  0  0  0  0  0  0  0  0
  145.9550   72.8930  219.1500 O   0  0  0  0  0  0  0  0  0  0  0  0
  144.9570   73.2780  218.2580 C   0  0  0  0  0  0  0  0  0  0  0  0
  143.6150   73.0220  218.9120 C   0  0  0  0  0  0  0  0  0  0  0  0
  139.7390   71.0360  223.1220 C   0  0  0  0  0  0  0  0  0  0  0  0
  139.2350   69.7510  223.1020 C   0  0  0  0  0  0  0  0  0  0  0  0
  139.3220   68.9060  224.1960 C   0  0  0  0  0  0  0  0  0  0  0  0
  139.9300   69.3620  225.3420 C   0  0  0  0  0  0  0  0  0  0  0  0
  140.0440   68.5630  226.4590 C   0  0  0  0  0  0  0  0  0  0  0  0
  140.6630   69.0790  227.5720 C   0  0  0  0  0  0  0  0  0  0  0  0
  140.8440   68.1310  229.0200 Cl  0  0  0  0  0  0  0  0  0  0  0  0
  141.1660   70.3730  227.5780 C   0  0  0  0  0  0  0  0  0  0  0  0
  141.0620   71.1920  226.4640 C   0  0  0  0  0  0  0  0  0  0  0  0
  140.4340   70.6550  225.3510 C   0  0  0  0  0  0  0  0  0  0  0  0
  140.3280   71.4430  224.2630 N   0  0  0  0  0  0  0  0  0  0  0  0
  139.8990   73.6830  223.0860 H   0  0  0  0  0  0  0  0  0  0  0  0
  139.5237   73.5972  220.0649 H   0  0  0  0  0  0  0  0  0  0  0  0
  138.7579   74.8467  221.1189 H   0  0  0  0  0  0  0  0  0  0  0  0
  140.7341   75.9236  217.6358 H   0  0  0  0  0  0  0  0  0  0  0  0
  139.4298   75.3262  218.6744 H   0  0  0  0  0  0  0  0  0  0  0  0
  139.6497   77.9221  218.2643 H   0  0  0  0  0  0  0  0  0  0  0  0
  139.3638   77.3294  219.9502 H   0  0  0  0  0  0  0  0  0  0  0  0
  141.2162   79.1282  219.4467 H   0  0  0  0  0  0  0  0  0  0  0  0
  141.4911   77.7540  220.6258 H   0  0  0  0  0  0  0  0  0  0  0  0
  142.2629   77.1949  217.8676 H   0  0  0  0  0  0  0  0  0  0  0  0
  143.1977   78.5166  218.7140 H   0  0  0  0  0  0  0  0  0  0  0  0
  144.4373   76.5906  219.2082 H   0  0  0  0  0  0  0  0  0  0  0  0
  143.4408   76.7961  220.6560 H   0  0  0  0  0  0  0  0  0  0  0  0
  142.8746   74.9810  218.2333 H   0  0  0  0  0  0  0  0  0  0  0  0
  142.7500   73.7832  220.8134 H   0  0  0  0  0  0  0  0  0  0  0  0
  145.2415   75.1943  219.8562 H   0  0  0  0  0  0  0  0  0  0  0  0
  144.7152   74.8371  221.5194 H   0  0  0  0  0  0  0  0  0  0  0  0
  146.4981   73.2852  221.0856 H   0  0  0  0  0  0  0  0  0  0  0  0
  145.0055   72.3219  220.8778 H   0  0  0  0  0  0  0  0  0  0  0  0
  145.0592   74.3479  218.0236 H   0  0  0  0  0  0  0  0  0  0  0  0
  145.0403   72.7044  217.3231 H   0  0  0  0  0  0  0  0  0  0  0  0
  142.8165   73.0756  218.1574 H   0  0  0  0  0  0  0  0  0  0  0  0
  143.5992   72.0217  219.3693 H   0  0  0  0  0  0  0  0  0  0  0  0
  138.7477   69.3857  222.1860 H   0  0  0  0  0  0  0  0  0  0  0  0
  138.9114   67.8866  224.1489 H   0  0  0  0  0  0  0  0  0  0  0  0
  139.6488   67.5364  226.4596 H   0  0  0  0  0  0  0  0  0  0  0  0
  141.6569   70.7562  228.4847 H   0  0  0  0  0  0  0  0  0  0  0  0
  141.4586   72.2180  226.4635 H   0  0  0  0  0  0  0  0  0  0  0  0
  1  2  2  0
  2  3  1  0
  3  4  1  0
  4  5  1  0
  5  6  2  0
  5  7  1  0
  7  8  1  0
  8  9  1  0
  9 10  1  0
 10 11  1  0
 11 12  1  0
 12 13  1  0
 13 14  1  0
 14 15  1  0
 15 16  1  0
 16 17  1  0
 17 18  1  0
 18 19  1  0
  2 20  1  0
 20 21  2  0
 21 22  1  0
 22 23  2  0
 23 24  1  0
 24 25  2  0
 25 26  1  0
 25 27  1  0
 27 28  2  0
 28 29  1  0
 29 30  2  0
 13  7  1  0
 19 14  1  0
 30 20  1  0
 29 23  1  0
  3 31  1  0
  4 32  1  0
  4 33  1  0
  8 34  1  0
  8 35  1  0
  9 36  1  0
  9 37  1  0
 10 38  1  0
 10 39  1  0
 11 40  1  0
 11 41  1  0
 12 42  1  0
 12 43  1  0
 13 44  1  6
 14 45  1  0
 15 46  1  0
 15 47  1  0
 16 48  1  0
 16 49  1  0
 18 50  1  0
 18 51  1  0
 19 52  1  0
 19 53  1  0
 21 54  1  0
 22 55  1  0
 24 56  1  0
 27 57  1  0
 28 58  1  0
M  END
>  <smiles>  (57) 
O=C(NCC(=O)N1CCCCCC1C1CCOCC1)c1ccc2cc(Cl)ccc2n1

>  <score_type>  (57) 
oracle

>  <origin>  (57) 
autodockgpu

>  <m_score__min__energy>  (57) 
-7.0800000000000001

>  <m_primary>  (57) 
energy

>  <rmsd>  (57) 
1.8562477039671785

>  <m_score__min__rmsd>  (57) 
1.8562477039671785

>  <meeko>  (57) 
{"free_energy": -6.25, "intermolecular_energy": -9.53, "internal_energy": -2.06, "cluster_size": 13, "cluster_id": 2, "rank_in_cluster": 4}

>  <energy>  (57) 
-6.63

>  <cluster_rmsd>  (57) 
0.35

>  <cluster>  (57) 
1

$$$$

     RDKit          3D

 58 61  0  0  0  0  0  0  0  0999 V2000
  140.1310   72.3020  220.6940 O   0  0  0  0  0  0  0  0  0  0  0  0
  139.7200   72.6380  221.8220 C   0  0  0  0  0  0  0  0  0  0  0  0
  139.1430   73.9190  222.0680 N   0  0  0  0  0  0  0  0  0  0  0  0
  139.0160   74.8820  220.9920 C   0  0  0  0  0  0  0  0  0  0  0  0
  139.5710   76.2160  221.4070 C   0  0  0  0  0  0  0  0  0  0  0  0
  138.7130   77.0800  221.7250 O   0  0  0  0  0  0  0  0  0  0  0  0
  140.9630   76.4210  221.4160 N   0  0  0  0  0  0  0  0  0  0  0  0
  141.7730   75.2140  221.2530 C   0  0  0  0  0  0  0  0  0  0  0  0
  142.4210   75.3290  219.8880 C   0  0  0  0  0  0  0  0  0  0  0  0
  141.6810   76.3180  219.0090 C   0  0  0  0  0  0  0  0  0  0  0  0
  142.0850   77.7410  219.2190 C   0  0  0  0  0  0  0  0  0  0  0  0
  141.2390   78.4670  220.2600 C   0  0  0  0  0  0  0  0  0  0  0  0
  141.4880   77.7510  221.5720 C   0  0  1  0  0  0  0  0  0  0  0  0
  140.9770   78.4770  222.7720 C   0  0  0  0  0  0  0  0  0  0  0  0
  140.2290   79.7410  222.4020 C   0  0  0  0  0  0  0  0  0  0  0  0
  140.4110   80.7250  223.5420 C   0  0  0  0  0  0  0  0  0  0  0  0
  141.7030   81.2470  223.4720 O   0  0  0  0  0  0  0  0  0  0  0  0
  142.6160   80.2990  223.0160 C   0  0  0  0  0  0  0  0  0  0  0  0
  142.2000   78.9450  223.5550 C   0  0  0  0  0  0  0  0  0  0  0  0
  139.8280   71.6970  222.9350 C   0  0  0  0  0  0  0  0  0  0  0  0
  139.3920   70.3950  222.7990 C   0  0  0  0  0  0  0  0  0  0  0  0
  139.4780   69.4740  223.8290 C   0  0  0  0  0  0  0  0  0  0  0  0
  140.0160   69.8690  225.0310 C   0  0  0  0  0  0  0  0  0  0  0  0
  140.1250   68.9940  226.0900 C   0  0  0  0  0  0  0  0  0  0  0  0
  140.6730   69.4520  227.2640 C   0  0  0  0  0  0  0  0  0  0  0  0
  140.8430   68.4060  228.6440 Cl  0  0  0  0  0  0  0  0  0  0  0  0
  141.1080   70.7640  227.3880 C   0  0  0  0  0  0  0  0  0  0  0  0
  141.0070   71.6600  226.3340 C   0  0  0  0  0  0  0  0  0  0  0  0
  140.4520   71.1810  225.1580 C   0  0  0  0  0  0  0  0  0  0  0  0
  140.3490   72.0430  224.1290 N   0  0  0  0  0  0  0  0  0  0  0  0
  138.8150   74.1450  223.0380 H   0  0  0  0  0  0  0  0  0  0  0  0
  139.5692   74.5178  220.1138 H   0  0  0  0  0  0  0  0  0  0  0  0
  137.9502   75.0020  220.7477 H   0  0  0  0  0  0  0  0  0  0  0  0
  142.5417   75.1603  222.0380 H   0  0  0  0  0  0  0  0  0  0  0  0
  141.1612   74.3034  221.3339 H   0  0  0  0  0  0  0  0  0  0  0  0
  143.4603   75.6674  220.0120 H   0  0  0  0  0  0  0  0  0  0  0  0
  142.3886   74.3418  219.4038 H   0  0  0  0  0  0  0  0  0  0  0  0
  141.8717   76.0561  217.9578 H   0  0  0  0  0  0  0  0  0  0  0  0
  140.6167   76.2472  219.2777 H   0  0  0  0  0  0  0  0  0  0  0  0
  143.1343   77.7599  219.5486 H   0  0  0  0  0  0  0  0  0  0  0  0
  141.9385   78.2632  218.2620 H   0  0  0  0  0  0  0  0  0  0  0  0
  141.5461   79.5206  220.3351 H   0  0  0  0  0  0  0  0  0  0  0  0
  140.1724   78.4571  219.9911 H   0  0  0  0  0  0  0  0  0  0  0  0
  142.5668   77.7086  221.7829 H   0  0  0  0  0  0  0  0  0  0  0  0
  140.3066   77.8016  223.3237 H   0  0  0  0  0  0  0  0  0  0  0  0
  140.6392   80.1623  221.4724 H   0  0  0  0  0  0  0  0  0  0  0  0
  139.1622   79.5278  222.2391 H   0  0  0  0  0  0  0  0  0  0  0  0
  139.6763   81.5386  223.4512 H   0  0  0  0  0  0  0  0  0  0  0  0
  140.2603   80.2178  224.5064 H   0  0  0  0  0  0  0  0  0  0  0  0
  142.6141   80.2788  221.9162 H   0  0  0  0  0  0  0  0  0  0  0  0
  143.6298   80.5506  223.3608 H   0  0  0  0  0  0  0  0  0  0  0  0
  143.0218   78.2249  223.4279 H   0  0  0  0  0  0  0  0  0  0  0  0
  141.9607   79.0190  224.6261 H   0  0  0  0  0  0  0  0  0  0  0  0
  138.9608   70.0776  221.8381 H   0  0  0  0  0  0  0  0  0  0  0  0
  139.1217   68.4429  223.6880 H   0  0  0  0  0  0  0  0  0  0  0  0
  139.7813   67.9531  225.9977 H   0  0  0  0  0  0  0  0  0  0  0  0
  141.5416   71.1001  228.3414 H   0  0  0  0  0  0  0  0  0  0  0  0
  141.3509   72.7007  226.4271 H   0  0  0  0  0  0  0  0  0  0  0  0
  1  2  2  0
  2  3  1  0
  3  4  1  0
  4  5  1  0
  5  6  2  0
  5  7  1  0
  7  8  1  0
  8  9  1  0
  9 10  1  0
 10 11  1  0
 11 12  1  0
 12 13  1  0
 13 14  1  0
 14 15  1  0
 15 16  1  0
 16 17  1  0
 17 18  1  0
 18 19  1  0
  2 20  1  0
 20 21  2  0
 21 22  1  0
 22 23  2  0
 23 24  1  0
 24 25  2  0
 25 26  1  0
 25 27  1  0
 27 28  2  0
 28 29  1  0
 29 30  2  0
 13  7  1  0
 19 14  1  0
 30 20  1  0
 29 23  1  0
  3 31  1  0
  4 32  1  0
  4 33  1  0
  8 34  1  0
  8 35  1  0
  9 36  1  0
  9 37  1  0
 10 38  1  0
 10 39  1  0
 11 40  1  0
 11 41  1  0
 12 42  1  0
 12 43  1  0
 13 44  1  1
 14 45  1  0
 15 46  1  0
 15 47  1  0
 16 48  1  0
 16 49  1  0
 18 50  1  0
 18 51  1  0
 19 52  1  0
 19 53  1  0
 21 54  1  0
 22 55  1  0
 24 56  1  0
 27 57  1  0
 28 58  1  0
M  END
>  <smiles>  (58) 
O=C(NCC(=O)N1CCCCCC1C1CCOCC1)c1ccc2cc(Cl)ccc2n1

>  <score_type>  (58) 
oracle

>  <origin>  (58) 
autodockgpu

>  <m_score__min__energy>  (58) 
-7.0800000000000001

>  <m_primary>  (58) 
energy

>  <rmsd>  (58) 
2.1678074923759287

>  <m_score__min__rmsd>  (58) 
2.1678074923759287

>  <meeko>  (58) 
{"free_energy": -6.39, "intermolecular_energy": -9.67, "internal_energy": -1.72, "cluster_size": 26, "cluster_id": 1, "rank_in_cluster": 10}

>  <energy>  (58) 
-6.57

>  <cluster_rmsd>  (58) 
1.06

>  <cluster>  (58) 
1

$$$$

     RDKit          3D

 58 61  0  0  0  0  0  0  0  0999 V2000
  140.7140   72.5120  220.7350 O   0  0  0  0  0  0  0  0  0  0  0  0
  140.3130   72.9030  221.8490 C   0  0  0  0  0  0  0  0  0  0  0  0
  139.9400   74.2590  222.0870 N   0  0  0  0  0  0  0  0  0  0  0  0
  140.0210   75.2370  221.0200 C   0  0  0  0  0  0  0  0  0  0  0  0
  140.5550   76.5430  221.5380 C   0  0  0  0  0  0  0  0  0  0  0  0
  140.3280   76.7740  222.7540 O   0  0  0  0  0  0  0  0  0  0  0  0
  141.2530   77.4050  220.6710 N   0  0  0  0  0  0  0  0  0  0  0  0
  141.8360   78.5880  221.3020 C   0  0  0  0  0  0  0  0  0  0  0  0
  141.0040   79.7640  220.8290 C   0  0  0  0  0  0  0  0  0  0  0  0
  141.5440   80.3340  219.5320 C   0  0  0  0  0  0  0  0  0  0  0  0
  141.6650   79.3330  218.4300 C   0  0  0  0  0  0  0  0  0  0  0  0
  140.6520   78.1970  218.5230 C   0  0  0  0  0  0  0  0  0  0  0  0
  141.3540   77.0820  219.2730 C   0  0  1  0  0  0  0  0  0  0  0  0
  142.7430   76.8090  218.8030 C   0  0  0  0  0  0  0  0  0  0  0  0
  142.7680   76.1100  217.4590 C   0  0  0  0  0  0  0  0  0  0  0  0
  144.0170   75.2510  217.4200 C   0  0  0  0  0  0  0  0  0  0  0  0
  143.8020   74.1220  218.2130 O   0  0  0  0  0  0  0  0  0  0  0  0
  143.0100   74.4160  219.3190 C   0  0  0  0  0  0  0  0  0  0  0  0
  143.3530   75.8160  219.7880 C   0  0  0  0  0  0  0  0  0  0  0  0
  140.2160   71.9500  222.9530 C   0  0  0  0  0  0  0  0  0  0  0  0
  139.6310   70.7140  222.7640 C   0  0  0  0  0  0  0  0  0  0  0  0
  139.5210   69.7840  223.7830 C   0  0  0  0  0  0  0  0  0  0  0  0
  140.0100   70.1020  225.0290 C   0  0  0  0  0  0  0  0  0  0  0  0
  139.9270   69.2130  226.0800 C   0  0  0  0  0  0  0  0  0  0  0  0
  140.4350   69.5920  227.2990 C   0  0  0  0  0  0  0  0  0  0  0  0
  140.3660   68.5250  228.6720 Cl  0  0  0  0  0  0  0  0  0  0  0  0
  141.0210   70.8380  227.4760 C   0  0  0  0  0  0  0  0  0  0  0  0
  141.1140   71.7450  226.4310 C   0  0  0  0  0  0  0  0  0  0  0  0
  140.5970   71.3460  225.2090 C   0  0  0  0  0  0  0  0  0  0  0  0
  140.6820   72.2210  224.1880 N   0  0  0  0  0  0  0  0  0  0  0  0
  139.6100   74.5300  223.0450 H   0  0  0  0  0  0  0  0  0  0  0  0
  140.6908   74.8591  220.2335 H   0  0  0  0  0  0  0  0  0  0  0  0
  139.0122   75.4027  220.6139 H   0  0  0  0  0  0  0  0  0  0  0  0
  141.7870   78.5007  222.3974 H   0  0  0  0  0  0  0  0  0  0  0  0
  142.8956   78.7086  221.0325 H   0  0  0  0  0  0  0  0  0  0  0  0
  139.9683   79.4293  220.6697 H   0  0  0  0  0  0  0  0  0  0  0  0
  141.0449   80.5499  221.5975 H   0  0  0  0  0  0  0  0  0  0  0  0
  140.8678   81.1349  219.1985 H   0  0  0  0  0  0  0  0  0  0  0  0
  142.5605   80.6972  219.7438 H   0  0  0  0  0  0  0  0  0  0  0  0
  141.5185   79.8519  217.4712 H   0  0  0  0  0  0  0  0  0  0  0  0
  142.6646   78.8813  218.5129 H   0  0  0  0  0  0  0  0  0  0  0  0
  139.7573   78.5249  219.0726 H   0  0  0  0  0  0  0  0  0  0  0  0
  140.3172   77.8690  217.5279 H   0  0  0  0  0  0  0  0  0  0  0  0
  140.8609   76.1194  219.0721 H   0  0  0  0  0  0  0  0  0  0  0  0
  143.2750   77.7688  218.7270 H   0  0  0  0  0  0  0  0  0  0  0  0
  141.8738   75.4793  217.3461 H   0  0  0  0  0  0  0  0  0  0  0  0
  142.7742   76.8432  216.6390 H   0  0  0  0  0  0  0  0  0  0  0  0
  144.2238   74.9433  216.3843 H   0  0  0  0  0  0  0  0  0  0  0  0
  144.8784   75.8202  217.7995 H   0  0  0  0  0  0  0  0  0  0  0  0
  141.9472   74.3667  219.0397 H   0  0  0  0  0  0  0  0  0  0  0  0
  143.1959   73.6894  220.1236 H   0  0  0  0  0  0  0  0  0  0  0  0
  142.9380   75.9848  220.7926 H   0  0  0  0  0  0  0  0  0  0  0  0
  144.4444   75.9459  219.8333 H   0  0  0  0  0  0  0  0  0  0  0  0
  139.2385   70.4593  221.7685 H   0  0  0  0  0  0  0  0  0  0  0  0
  139.0504   68.8068  223.5997 H   0  0  0  0  0  0  0  0  0  0  0  0
  139.4650   68.2238  225.9455 H   0  0  0  0  0  0  0  0  0  0  0  0
  141.4193   71.1112  228.4643 H   0  0  0  0  0  0  0  0  0  0  0  0
  141.5762   72.7340  226.5659 H   0  0  0  0  0  0  0  0  0  0  0  0
  1  2  2  0
  2  3  1  0
  3  4  1  0
  4  5  1  0
  5  6  2  0
  5  7  1  0
  7  8  1  0
  8  9  1  0
  9 10  1  0
 10 11  1  0
 11 12  1  0
 12 13  1  0
 13 14  1  0
 14 15  1  0
 15 16  1  0
 16 17  1  0
 17 18  1  0
 18 19  1  0
  2 20  1  0
 20 21  2  0
 21 22  1  0
 22 23  2  0
 23 24  1  0
 24 25  2  0
 25 26  1  0
 25 27  1  0
 27 28  2  0
 28 29  1  0
 29 30  2  0
 13  7  1  0
 19 14  1  0
 30 20  1  0
 29 23  1  0
  3 31  1  0
  4 32  1  0
  4 33  1  0
  8 34  1  0
  8 35  1  0
  9 36  1  0
  9 37  1  0
 10 38  1  0
 10 39  1  0
 11 40  1  0
 11 41  1  0
 12 42  1  0
 12 43  1  0
 13 44  1  1
 14 45  1  0
 15 46  1  0
 15 47  1  0
 16 48  1  0
 16 49  1  0
 18 50  1  0
 18 51  1  0
 19 52  1  0
 19 53  1  0
 21 54  1  0
 22 55  1  0
 24 56  1  0
 27 57  1  0
 28 58  1  0
M  END
>  <smiles>  (59) 
O=C(NCC(=O)N1CCCCCC1C1CCOCC1)c1ccc2cc(Cl)ccc2n1

>  <score_type>  (59) 
oracle

>  <origin>  (59) 
autodockgpu

>  <m_score__min__energy>  (59) 
-7.0800000000000001

>  <m_primary>  (59) 
energy

>  <rmsd>  (59) 
2.7706120589744465

>  <m_score__min__rmsd>  (59) 
2.7706120589744465

>  <meeko>  (59) 
{"free_energy": -5.68, "intermolecular_energy": -8.96, "internal_energy": -2.17, "cluster_size": 26, "cluster_id": 1, "rank_in_cluster": 24}

>  <energy>  (59) 
-6.45

>  <cluster_rmsd>  (59) 
0.88

>  <cluster>  (59) 
1

$$$$

     RDKit          3D

 58 61  0  0  0  0  0  0  0  0999 V2000
  139.9220   74.1920  221.9590 O   0  0  0  0  0  0  0  0  0  0  0  0
  140.9600   74.8040  221.6380 C   0  0  0  0  0  0  0  0  0  0  0  0
  141.1240   76.1990  221.8820 N   0  0  0  0  0  0  0  0  0  0  0  0
  140.0680   76.9580  222.5220 C   0  0  0  0  0  0  0  0  0  0  0  0
  140.0090   78.3550  221.9700 C   0  0  0  0  0  0  0  0  0  0  0  0
  138.8550   78.8520  221.8860 O   0  0  0  0  0  0  0  0  0  0  0  0
  141.1970   79.0060  221.5900 N   0  0  0  0  0  0  0  0  0  0  0  0
  142.2350   79.0600  222.6190 C   0  0  0  0  0  0  0  0  0  0  0  0
  142.2980   80.5060  223.0710 C   0  0  0  0  0  0  0  0  0  0  0  0
  140.9780   81.2140  222.8380 C   0  0  0  0  0  0  0  0  0  0  0  0
  140.7380   81.6050  221.4170 C   0  0  0  0  0  0  0  0  0  0  0  0
  141.7390   81.0000  220.4360 C   0  0  0  0  0  0  0  0  0  0  0  0
  141.3190   79.5530  220.2660 C   0  0  1  0  0  0  0  0  0  0  0  0
  142.1970   78.7650  219.3530 C   0  0  0  0  0  0  0  0  0  0  0  0
  142.3220   79.4020  217.9840 C   0  0  0  0  0  0  0  0  0  0  0  0
  142.5420   78.2830  216.9840 C   0  0  0  0  0  0  0  0  0  0  0  0
  141.3260   77.6310  216.7760 O   0  0  0  0  0  0  0  0  0  0  0  0
  140.5600   77.5900  217.9380 C   0  0  0  0  0  0  0  0  0  0  0  0
  141.4990   77.4290  219.1170 C   0  0  0  0  0  0  0  0  0  0  0  0
  142.0500   74.0770  220.9900 C   0  0  0  0  0  0  0  0  0  0  0  0
  143.1580   74.7500  220.5150 C   0  0  0  0  0  0  0  0  0  0  0  0
  144.2110   74.0980  219.8970 C   0  0  0  0  0  0  0  0  0  0  0  0
  144.1520   72.7320  219.7480 C   0  0  0  0  0  0  0  0  0  0  0  0
  145.1730   72.0330  219.1400 C   0  0  0  0  0  0  0  0  0  0  0  0
  145.0530   70.6690  219.0250 C   0  0  0  0  0  0  0  0  0  0  0  0
  146.2990   69.7180  218.2690 Cl  0  0  0  0  0  0  0  0  0  0  0  0
  143.9330   70.0040  219.5060 C   0  0  0  0  0  0  0  0  0  0  0  0
  142.8970   70.6900  220.1210 C   0  0  0  0  0  0  0  0  0  0  0  0
  143.0350   72.0640  220.2300 C   0  0  0  0  0  0  0  0  0  0  0  0
  142.0330   72.7400  220.8250 N   0  0  0  0  0  0  0  0  0  0  0  0
  142.0190   76.6600  221.5890 H   0  0  0  0  0  0  0  0  0  0  0  0
  139.1046   76.4580  222.3433 H   0  0  0  0  0  0  0  0  0  0  0  0
  140.2752   77.0123  223.6010 H   0  0  0  0  0  0  0  0  0  0  0  0
  141.9709   78.4064  223.4634 H   0  0  0  0  0  0  0  0  0  0  0  0
  143.2053   78.7154  222.2320 H   0  0  0  0  0  0  0  0  0  0  0  0
  142.5360   80.5358  224.1445 H   0  0  0  0  0  0  0  0  0  0  0  0
  143.0752   81.0191  222.4857 H   0  0  0  0  0  0  0  0  0  0  0  0
  140.1656   80.5427  223.1534 H   0  0  0  0  0  0  0  0  0  0  0  0
  141.0105   82.1456  223.4220 H   0  0  0  0  0  0  0  0  0  0  0  0
  139.7286   81.2738  221.1315 H   0  0  0  0  0  0  0  0  0  0  0  0
  140.8532   82.6975  221.3606 H   0  0  0  0  0  0  0  0  0  0  0  0
  141.6984   81.5275  219.4716 H   0  0  0  0  0  0  0  0  0  0  0  0
  142.7719   81.0835  220.8048 H   0  0  0  0  0  0  0  0  0  0  0  0
  140.3521   79.4965  219.7446 H   0  0  0  0  0  0  0  0  0  0  0  0
  143.1928   78.6896  219.8142 H   0  0  0  0  0  0  0  0  0  0  0  0
  141.4006   79.9504  217.7385 H   0  0  0  0  0  0  0  0  0  0  0  0
  143.1595   80.1148  217.9612 H   0  0  0  0  0  0  0  0  0  0  0  0
  142.9066   78.7005  216.0339 H   0  0  0  0  0  0  0  0  0  0  0  0
  143.2893   77.5738  217.3696 H   0  0  0  0  0  0  0  0  0  0  0  0
  139.9891   78.5246  218.0412 H   0  0  0  0  0  0  0  0  0  0  0  0
  139.8520   76.7491  217.8977 H   0  0  0  0  0  0  0  0  0  0  0  0
  140.9275   77.1436  220.0125 H   0  0  0  0  0  0  0  0  0  0  0  0
  142.2402   76.6432  218.9093 H   0  0  0  0  0  0  0  0  0  0  0  0
  143.2056   75.8427  220.6318 H   0  0  0  0  0  0  0  0  0  0  0  0
  145.0809   74.6631  219.5310 H   0  0  0  0  0  0  0  0  0  0  0  0
  146.0622   72.5546  218.7562 H   0  0  0  0  0  0  0  0  0  0  0  0
  143.8664   68.9114  219.3970 H   0  0  0  0  0  0  0  0  0  0  0  0
  142.0078   70.1680  220.5042 H   0  0  0  0  0  0  0  0  0  0  0  0
  1  2  2  0
  2  3  1  0
  3  4  1  0
  4  5  1  0
  5  6  2  0
  5  7  1  0
  7  8  1  0
  8  9  1  0
  9 10  1  0
 10 11  1  0
 11 12  1  0
 12 13  1  0
 13 14  1  0
 14 15  1  0
 15 16  1  0
 16 17  1  0
 17 18  1  0
 18 19  1  0
  2 20  1  0
 20 21  2  0
 21 22  1  0
 22 23  2  0
 23 24  1  0
 24 25  2  0
 25 26  1  0
 25 27  1  0
 27 28  2  0
 28 29  1  0
 29 30  2  0
 13  7  1  0
 19 14  1  0
 30 20  1  0
 29 23  1  0
  3 31  1  0
  4 32  1  0
  4 33  1  0
  8 34  1  0
  8 35  1  0
  9 36  1  0
  9 37  1  0
 10 38  1  0
 10 39  1  0
 11 40  1  0
 11 41  1  0
 12 42  1  0
 12 43  1  0
 13 44  1  6
 14 45  1  0
 15 46  1  0
 15 47  1  0
 16 48  1  0
 16 49  1  0
 18 50  1  0
 18 51  1  0
 19 52  1  0
 19 53  1  0
 21 54  1  0
 22 55  1  0
 24 56  1  0
 27 57  1  0
 28 58  1  0
M  END
>  <smiles>  (60) 
O=C(NCC(=O)N1CCCCCC1C1CCOCC1)c1ccc2cc(Cl)ccc2n1

>  <score_type>  (60) 
oracle

>  <origin>  (60) 
autodockgpu

>  <m_score__min__energy>  (60) 
-7.0800000000000001

>  <m_primary>  (60) 
energy

>  <rmsd>  (60) 
6.728940742568029

>  <m_score__min__rmsd>  (60) 
6.728940742568029

>  <meeko>  (60) 
{"free_energy": -4.75, "intermolecular_energy": -8.03, "internal_energy": -1.92, "cluster_size": 1, "cluster_id": 7, "rank_in_cluster": 1}

>  <energy>  (60) 
-6.39

>  <cluster_rmsd>  (60) 
0.48

>  <cluster>  (60) 
1

$$$$

     RDKit          3D

 58 61  0  0  0  0  0  0  0  0999 V2000
  140.9200   72.7600  221.4930 O   0  0  0  0  0  0  0  0  0  0  0  0
  140.0030   72.7060  222.3350 C   0  0  0  0  0  0  0  0  0  0  0  0
  138.8840   73.5890  222.2950 N   0  0  0  0  0  0  0  0  0  0  0  0
  138.7820   74.5930  221.2530 C   0  0  0  0  0  0  0  0  0  0  0  0
  139.7110   75.7420  221.5310 C   0  0  0  0  0  0  0  0  0  0  0  0
  139.4630   76.3910  222.5800 O   0  0  0  0  0  0  0  0  0  0  0  0
  140.7630   76.0200  220.6400 N   0  0  0  0  0  0  0  0  0  0  0  0
  141.0130   74.9930  219.6290 C   0  0  0  0  0  0  0  0  0  0  0  0
  142.4950   74.6830  219.7080 C   0  0  0  0  0  0  0  0  0  0  0  0
  143.2950   75.5760  218.7780 C   0  0  0  0  0  0  0  0  0  0  0  0
  143.3290   77.0100  219.1920 C   0  0  0  0  0  0  0  0  0  0  0  0
  141.9430   77.6280  219.3670 C   0  0  0  0  0  0  0  0  0  0  0  0
  141.4990   77.2490  220.7660 C   0  0  1  0  0  0  0  0  0  0  0  0
  140.7700   78.3320  221.4900 C   0  0  0  0  0  0  0  0  0  0  0  0
  140.9470   79.6840  220.8310 C   0  0  0  0  0  0  0  0  0  0  0  0
  140.8610   80.7330  221.9220 C   0  0  0  0  0  0  0  0  0  0  0  0
  142.0560   80.7200  222.6430 O   0  0  0  0  0  0  0  0  0  0  0  0
  142.5810   79.4330  222.7430 C   0  0  0  0  0  0  0  0  0  0  0  0
  141.4250   78.4600  222.8620 C   0  0  0  0  0  0  0  0  0  0  0  0
  140.0650   71.7090  223.4030 C   0  0  0  0  0  0  0  0  0  0  0  0
  139.6050   70.4250  223.1910 C   0  0  0  0  0  0  0  0  0  0  0  0
  139.6480   69.4530  224.1760 C   0  0  0  0  0  0  0  0  0  0  0  0
  140.1640   69.7770  225.4080 C   0  0  0  0  0  0  0  0  0  0  0  0
  140.2300   68.8480  226.4250 C   0  0  0  0  0  0  0  0  0  0  0  0
  140.7580   69.2360  227.6320 C   0  0  0  0  0  0  0  0  0  0  0  0
  140.8740   68.1200  228.9620 Cl  0  0  0  0  0  0  0  0  0  0  0  0
  141.2170   70.5310  227.8320 C   0  0  0  0  0  0  0  0  0  0  0  0
  141.1590   71.4790  226.8220 C   0  0  0  0  0  0  0  0  0  0  0  0
  140.6240   71.0700  225.6110 C   0  0  0  0  0  0  0  0  0  0  0  0
  140.5640   71.9850  224.6230 N   0  0  0  0  0  0  0  0  0  0  0  0
  138.1430   73.4970  223.0300 H   0  0  0  0  0  0  0  0  0  0  0  0
  139.0476   74.1392  220.2868 H   0  0  0  0  0  0  0  0  0  0  0  0
  137.7494   74.9711  221.2254 H   0  0  0  0  0  0  0  0  0  0  0  0
  140.4215   74.0912  219.8455 H   0  0  0  0  0  0  0  0  0  0  0  0
  140.7257   75.3372  218.6245 H   0  0  0  0  0  0  0  0  0  0  0  0
  142.8396   74.8408  220.7406 H   0  0  0  0  0  0  0  0  0  0  0  0
  142.6479   73.6374  219.4023 H   0  0  0  0  0  0  0  0  0  0  0  0
  144.3287   75.2015  218.7436 H   0  0  0  0  0  0  0  0  0  0  0  0
  142.7980   75.5400  217.7973 H   0  0  0  0  0  0  0  0  0  0  0  0
  143.8660   77.0832  220.1492 H   0  0  0  0  0  0  0  0  0  0  0  0
  143.8316   77.5667  218.3873 H   0  0  0  0  0  0  0  0  0  0  0  0
  141.9950   78.7219  219.2642 H   0  0  0  0  0  0  0  0  0  0  0  0
  141.2375   77.2656  218.6048 H   0  0  0  0  0  0  0  0  0  0  0  0
  142.3737   77.0995  221.4160 H   0  0  0  0  0  0  0  0  0  0  0  0
  139.7013   78.0725  221.5116 H   0  0  0  0  0  0  0  0  0  0  0  0
  141.9279   79.7357  220.3358 H   0  0  0  0  0  0  0  0  0  0  0  0
  140.1709   79.8502  220.0694 H   0  0  0  0  0  0  0  0  0  0  0  0
  140.7098   81.7252  221.4718 H   0  0  0  0  0  0  0  0  0  0  0  0
  140.0150   80.5140  222.5900 H   0  0  0  0  0  0  0  0  0  0  0  0
  143.1725   79.2010  221.8451 H   0  0  0  0  0  0  0  0  0  0  0  0
  143.2356   79.3562  223.6237 H   0  0  0  0  0  0  0  0  0  0  0  0
  141.7964   77.4782  223.1909 H   0  0  0  0  0  0  0  0  0  0  0  0
  140.6952   78.8238  223.6003 H   0  0  0  0  0  0  0  0  0  0  0  0
  139.1901   70.1652  222.2059 H   0  0  0  0  0  0  0  0  0  0  0  0
  139.2751   68.4377  223.9758 H   0  0  0  0  0  0  0  0  0  0  0  0
  139.8682   67.8204  226.2731 H   0  0  0  0  0  0  0  0  0  0  0  0
  141.6347   70.8102  228.8106 H   0  0  0  0  0  0  0  0  0  0  0  0
  141.5204   72.5067  226.9747 H   0  0  0  0  0  0  0  0  0  0  0  0
  1  2  2  0
  2  3  1  0
  3  4  1  0
  4  5  1  0
  5  6  2  0
  5  7  1  0
  7  8  1  0
  8  9  1  0
  9 10  1  0
 10 11  1  0
 11 12  1  0
 12 13  1  0
 13 14  1  0
 14 15  1  0
 15 16  1  0
 16 17  1  0
 17 18  1  0
 18 19  1  0
  2 20  1  0
 20 21  2  0
 21 22  1  0
 22 23  2  0
 23 24  1  0
 24 25  2  0
 25 26  1  0
 25 27  1  0
 27 28  2  0
 28 29  1  0
 29 30  2  0
 13  7  1  0
 19 14  1  0
 30 20  1  0
 29 23  1  0
  3 31  1  0
  4 32  1  0
  4 33  1  0
  8 34  1  0
  8 35  1  0
  9 36  1  0
  9 37  1  0
 10 38  1  0
 10 39  1  0
 11 40  1  0
 11 41  1  0
 12 42  1  0
 12 43  1  0
 13 44  1  1
 14 45  1  0
 15 46  1  0
 15 47  1  0
 16 48  1  0
 16 49  1  0
 18 50  1  0
 18 51  1  0
 19 52  1  0
 19 53  1  0
 21 54  1  0
 22 55  1  0
 24 56  1  0
 27 57  1  0
 28 58  1  0
M  END
>  <smiles>  (61) 
O=C(NCC(=O)N1CCCCCC1C1CCOCC1)c1ccc2cc(Cl)ccc2n1

>  <score_type>  (61) 
oracle

>  <origin>  (61) 
autodockgpu

>  <m_score__min__energy>  (61) 
-7.0800000000000001

>  <m_primary>  (61) 
energy

>  <rmsd>  (61) 
1.6906220625484851

>  <m_score__min__rmsd>  (61) 
1.6906220625484851

>  <meeko>  (61) 
{"free_energy": -6.57, "intermolecular_energy": -9.86, "internal_energy": -1.36, "cluster_size": 26, "cluster_id": 1, "rank_in_cluster": 8}

>  <energy>  (61) 
-6.34

>  <cluster_rmsd>  (61) 
0.86

>  <cluster>  (61) 
1

$$$$

     RDKit          3D

 58 61  0  0  0  0  0  0  0  0999 V2000
  140.2340   72.4500  220.7580 O   0  0  0  0  0  0  0  0  0  0  0  0
  139.5340   72.7070  221.7570 C   0  0  0  0  0  0  0  0  0  0  0  0
  138.7270   73.8790  221.8370 N   0  0  0  0  0  0  0  0  0  0  0  0
  138.6980   74.8230  220.7360 C   0  0  0  0  0  0  0  0  0  0  0  0
  139.2770   76.1450  221.1560 C   0  0  0  0  0  0  0  0  0  0  0  0
  138.4340   77.0330  221.4470 O   0  0  0  0  0  0  0  0  0  0  0  0
  140.6730   76.3130  221.1990 N   0  0  0  0  0  0  0  0  0  0  0  0
  141.4560   75.0970  220.9810 C   0  0  0  0  0  0  0  0  0  0  0  0
  142.2810   75.3510  219.7350 C   0  0  0  0  0  0  0  0  0  0  0  0
  142.9390   76.7160  219.7790 C   0  0  0  0  0  0  0  0  0  0  0  0
  142.1160   77.8090  219.1810 C   0  0  0  0  0  0  0  0  0  0  0  0
  141.0750   78.3920  220.1430 C   0  0  0  0  0  0  0  0  0  0  0  0
  141.2280   77.6190  221.4370 C   0  0  1  0  0  0  0  0  0  0  0  0
  140.6720   78.3140  222.6340 C   0  0  0  0  0  0  0  0  0  0  0  0
  140.0650   79.6580  222.2880 C   0  0  0  0  0  0  0  0  0  0  0  0
  140.2220   80.5520  223.5020 C   0  0  0  0  0  0  0  0  0  0  0  0
  141.5540   80.9640  223.5780 O   0  0  0  0  0  0  0  0  0  0  0  0
  142.4240   79.9690  223.1390 C   0  0  0  0  0  0  0  0  0  0  0  0
  141.8520   78.6270  223.5490 C   0  0  0  0  0  0  0  0  0  0  0  0
  139.5330   71.7820  222.8900 C   0  0  0  0  0  0  0  0  0  0  0  0
  138.7270   70.6620  222.8810 C   0  0  0  0  0  0  0  0  0  0  0  0
  138.6980   69.7630  223.9330 C   0  0  0  0  0  0  0  0  0  0  0  0
  139.4990   69.9930  225.0270 C   0  0  0  0  0  0  0  0  0  0  0  0
  139.5090   69.1300  226.1020 C   0  0  0  0  0  0  0  0  0  0  0  0
  140.3330   69.4170  227.1630 C   0  0  0  0  0  0  0  0  0  0  0  0
  140.4010   68.3760  228.5550 Cl  0  0  0  0  0  0  0  0  0  0  0  0
  141.1400   70.5480  227.1600 C   0  0  0  0  0  0  0  0  0  0  0  0
  141.1430   71.4270  226.0880 C   0  0  0  0  0  0  0  0  0  0  0  0
  140.3060   71.1210  225.0260 C   0  0  0  0  0  0  0  0  0  0  0  0
  140.3030   71.9700  223.9800 N   0  0  0  0  0  0  0  0  0  0  0  0
  138.1590   74.0420  222.7030 H   0  0  0  0  0  0  0  0  0  0  0  0
  139.2871   74.4201  219.8990 H   0  0  0  0  0  0  0  0  0  0  0  0
  137.6532   74.9758  220.4278 H   0  0  0  0  0  0  0  0  0  0  0  0
  142.1129   74.9055  221.8423 H   0  0  0  0  0  0  0  0  0  0  0  0
  140.8084   74.2157  220.8635 H   0  0  0  0  0  0  0  0  0  0  0  0
  143.0612   74.5794  219.6584 H   0  0  0  0  0  0  0  0  0  0  0  0
  141.6121   75.3159  218.8625 H   0  0  0  0  0  0  0  0  0  0  0  0
  143.1384   76.9696  220.8306 H   0  0  0  0  0  0  0  0  0  0  0  0
  143.8573   76.6450  219.1776 H   0  0  0  0  0  0  0  0  0  0  0  0
  142.7903   78.6191  218.8662 H   0  0  0  0  0  0  0  0  0  0  0  0
  141.5640   77.3709  218.3364 H   0  0  0  0  0  0  0  0  0  0  0  0
  141.2663   79.4621  220.3114 H   0  0  0  0  0  0  0  0  0  0  0  0
  140.0561   78.3042  219.7377 H   0  0  0  0  0  0  0  0  0  0  0  0
  142.2914   77.5343  221.7055 H   0  0  0  0  0  0  0  0  0  0  0  0
  139.9020   77.6669  223.0794 H   0  0  0  0  0  0  0  0  0  0  0  0
  140.5901   80.0973  221.4270 H   0  0  0  0  0  0  0  0  0  0  0  0
  139.0035   79.5478  222.0213 H   0  0  0  0  0  0  0  0  0  0  0  0
  139.5668   81.4301  223.4037 H   0  0  0  0  0  0  0  0  0  0  0  0
  139.9442   80.0028  224.4137 H   0  0  0  0  0  0  0  0  0  0  0  0
  142.5199   80.0144  222.0441 H   0  0  0  0  0  0  0  0  0  0  0  0
  143.4197   80.1104  223.5847 H   0  0  0  0  0  0  0  0  0  0  0  0
  142.6208   77.8470  223.4458 H   0  0  0  0  0  0  0  0  0  0  0  0
  141.5225   78.6581  224.5980 H   0  0  0  0  0  0  0  0  0  0  0  0
  138.0850   70.4772  222.0071 H   0  0  0  0  0  0  0  0  0  0  0  0
  138.0448   68.8788  223.8946 H   0  0  0  0  0  0  0  0  0  0  0  0
  138.8724   68.2330  226.1100 H   0  0  0  0  0  0  0  0  0  0  0  0
  141.7890   70.7498  228.0249 H   0  0  0  0  0  0  0  0  0  0  0  0
  141.7791   72.3244  226.0804 H   0  0  0  0  0  0  0  0  0  0  0  0
  1  2  2  0
  2  3  1  0
  3  4  1  0
  4  5  1  0
  5  6  2  0
  5  7  1  0
  7  8  1  0
  8  9  1  0
  9 10  1  0
 10 11  1  0
 11 12  1  0
 12 13  1  0
 13 14  1  0
 14 15  1  0
 15 16  1  0
 16 17  1  0
 17 18  1  0
 18 19  1  0
  2 20  1  0
 20 21  2  0
 21 22  1  0
 22 23  2  0
 23 24  1  0
 24 25  2  0
 25 26  1  0
 25 27  1  0
 27 28  2  0
 28 29  1  0
 29 30  2  0
 13  7  1  0
 19 14  1  0
 30 20  1  0
 29 23  1  0
  3 31  1  0
  4 32  1  0
  4 33  1  0
  8 34  1  0
  8 35  1  0
  9 36  1  0
  9 37  1  0
 10 38  1  0
 10 39  1  0
 11 40  1  0
 11 41  1  0
 12 42  1  0
 12 43  1  0
 13 44  1  1
 14 45  1  0
 15 46  1  0
 15 47  1  0
 16 48  1  0
 16 49  1  0
 18 50  1  0
 18 51  1  0
 19 52  1  0
 19 53  1  0
 21 54  1  0
 22 55  1  0
 24 56  1  0
 27 57  1  0
 28 58  1  0
M  END
>  <smiles>  (62) 
O=C(NCC(=O)N1CCCCCC1C1CCOCC1)c1ccc2cc(Cl)ccc2n1

>  <score_type>  (62) 
oracle

>  <origin>  (62) 
autodockgpu

>  <m_score__min__energy>  (62) 
-7.0800000000000001

>  <m_primary>  (62) 
energy

>  <rmsd>  (62) 
2.1085835272829

>  <m_score__min__rmsd>  (62) 
2.1085835272829

>  <meeko>  (62) 
{"free_energy": -6.13, "intermolecular_energy": -9.41, "internal_energy": -1.63, "cluster_size": 26, "cluster_id": 1, "rank_in_cluster": 13}

>  <energy>  (62) 
-6.25

>  <cluster_rmsd>  (62) 
1.26

>  <cluster>  (62) 
1

$$$$

     RDKit          3D

 58 61  0  0  0  0  0  0  0  0999 V2000
  140.2440   72.2270  220.6800 O   0  0  0  0  0  0  0  0  0  0  0  0
  140.0080   72.6400  221.8320 C   0  0  0  0  0  0  0  0  0  0  0  0
  139.7490   74.0160  222.1060 N   0  0  0  0  0  0  0  0  0  0  0  0
  139.7550   74.9880  221.0310 C   0  0  0  0  0  0  0  0  0  0  0  0
  140.1060   76.3540  221.5530 C   0  0  0  0  0  0  0  0  0  0  0  0
  140.3020   76.4200  222.7940 O   0  0  0  0  0  0  0  0  0  0  0  0
  140.1920   77.4400  220.6640 N   0  0  0  0  0  0  0  0  0  0  0  0
  139.0700   77.5780  219.7350 C   0  0  0  0  0  0  0  0  0  0  0  0
  138.8970   79.0670  219.5090 C   0  0  0  0  0  0  0  0  0  0  0  0
  139.7760   79.5570  218.3750 C   0  0  0  0  0  0  0  0  0  0  0  0
  141.2140   79.7180  218.7440 C   0  0  0  0  0  0  0  0  0  0  0  0
  141.8450   78.4450  219.3010 C   0  0  0  0  0  0  0  0  0  0  0  0
  141.3280   78.3200  220.7200 C   0  0  1  0  0  0  0  0  0  0  0  0
  141.0620   79.6260  221.3910 C   0  0  0  0  0  0  0  0  0  0  0  0
  142.3390   80.3670  221.7330 C   0  0  0  0  0  0  0  0  0  0  0  0
  142.0620   81.1970  222.9710 C   0  0  0  0  0  0  0  0  0  0  0  0
  142.0400   80.3460  224.0770 O   0  0  0  0  0  0  0  0  0  0  0  0
  141.5070   79.1000  223.7550 C   0  0  0  0  0  0  0  0  0  0  0  0
  140.4080   79.3060  222.7320 C   0  0  0  0  0  0  0  0  0  0  0  0
  139.9910   71.6930  222.9460 C   0  0  0  0  0  0  0  0  0  0  0  0
  139.4630   70.4280  222.7840 C   0  0  0  0  0  0  0  0  0  0  0  0
  139.4310   69.5030  223.8140 C   0  0  0  0  0  0  0  0  0  0  0  0
  139.9400   69.8560  225.0410 C   0  0  0  0  0  0  0  0  0  0  0  0
  139.9330   68.9740  226.1010 C   0  0  0  0  0  0  0  0  0  0  0  0
  140.4580   69.3890  227.3010 C   0  0  0  0  0  0  0  0  0  0  0  0
  140.4840   68.3330  228.6830 Cl  0  0  0  0  0  0  0  0  0  0  0  0
  140.9870   70.6640  227.4510 C   0  0  0  0  0  0  0  0  0  0  0  0
  141.0030   71.5650  226.3960 C   0  0  0  0  0  0  0  0  0  0  0  0
  140.4700   71.1300  225.1940 C   0  0  0  0  0  0  0  0  0  0  0  0
  140.4810   71.9980  224.1640 N   0  0  0  0  0  0  0  0  0  0  0  0
  139.5560   74.3050  223.0950 H   0  0  0  0  0  0  0  0  0  0  0  0
  140.4972   74.6878  220.2766 H   0  0  0  0  0  0  0  0  0  0  0  0
  138.7510   75.0272  220.5833 H   0  0  0  0  0  0  0  0  0  0  0  0
  139.2952   77.0707  218.7853 H   0  0  0  0  0  0  0  0  0  0  0  0
  138.1538   77.1221  220.1384 H   0  0  0  0  0  0  0  0  0  0  0  0
  137.8450   79.2722  219.2615 H   0  0  0  0  0  0  0  0  0  0  0  0
  139.1900   79.5945  220.4287 H   0  0  0  0  0  0  0  0  0  0  0  0
  139.7102   78.8331  217.5494 H   0  0  0  0  0  0  0  0  0  0  0  0
  139.4066   80.5548  218.0957 H   0  0  0  0  0  0  0  0  0  0  0  0
  141.7725   80.0193  217.8455 H   0  0  0  0  0  0  0  0  0  0  0  0
  141.2615   80.4774  219.5384 H   0  0  0  0  0  0  0  0  0  0  0  0
  141.5411   77.5728  218.7035 H   0  0  0  0  0  0  0  0  0  0  0  0
  142.9437   78.4889  219.2709 H   0  0  0  0  0  0  0  0  0  0  0  0
  142.1045   77.8918  221.3709 H   0  0  0  0  0  0  0  0  0  0  0  0
  140.4504   80.2414  220.7148 H   0  0  0  0  0  0  0  0  0  0  0  0
  143.1480   79.6494  221.9344 H   0  0  0  0  0  0  0  0  0  0  0  0
  142.6523   81.0088  220.8964 H   0  0  0  0  0  0  0  0  0  0  0  0
  142.8535   81.9503  223.0978 H   0  0  0  0  0  0  0  0  0  0  0  0
  141.0952   81.7122  222.8717 H   0  0  0  0  0  0  0  0  0  0  0  0
  142.2929   78.4564  223.3329 H   0  0  0  0  0  0  0  0  0  0  0  0
  141.1022   78.6153  224.6557 H   0  0  0  0  0  0  0  0  0  0  0  0
  139.8047   78.3905  222.6435 H   0  0  0  0  0  0  0  0  0  0  0  0
  139.7495   80.1311  223.0412 H   0  0  0  0  0  0  0  0  0  0  0  0
  139.0536   70.1450  221.8030 H   0  0  0  0  0  0  0  0  0  0  0  0
  139.0050   68.5017  223.6528 H   0  0  0  0  0  0  0  0  0  0  0  0
  139.5169   67.9620  225.9885 H   0  0  0  0  0  0  0  0  0  0  0  0
  141.4011   70.9654  228.4245 H   0  0  0  0  0  0  0  0  0  0  0  0
  141.4193   72.5769  226.5089 H   0  0  0  0  0  0  0  0  0  0  0  0
  1  2  2  0
  2  3  1  0
  3  4  1  0
  4  5  1  0
  5  6  2  0
  5  7  1  0
  7  8  1  0
  8  9  1  0
  9 10  1  0
 10 11  1  0
 11 12  1  0
 12 13  1  0
 13 14  1  0
 14 15  1  0
 15 16  1  0
 16 17  1  0
 17 18  1  0
 18 19  1  0
  2 20  1  0
 20 21  2  0
 21 22  1  0
 22 23  2  0
 23 24  1  0
 24 25  2  0
 25 26  1  0
 25 27  1  0
 27 28  2  0
 28 29  1  0
 29 30  2  0
 13  7  1  0
 19 14  1  0
 30 20  1  0
 29 23  1  0
  3 31  1  0
  4 32  1  0
  4 33  1  0
  8 34  1  0
  8 35  1  0
  9 36  1  0
  9 37  1  0
 10 38  1  0
 10 39  1  0
 11 40  1  0
 11 41  1  0
 12 42  1  0
 12 43  1  0
 13 44  1  1
 14 45  1  0
 15 46  1  0
 15 47  1  0
 16 48  1  0
 16 49  1  0
 18 50  1  0
 18 51  1  0
 19 52  1  0
 19 53  1  0
 21 54  1  0
 22 55  1  0
 24 56  1  0
 27 57  1  0
 28 58  1  0
M  END
>  <smiles>  (63) 
O=C(NCC(=O)N1CCCCCC1C1CCOCC1)c1ccc2cc(Cl)ccc2n1

>  <score_type>  (63) 
oracle

>  <origin>  (63) 
autodockgpu

>  <m_score__min__energy>  (63) 
-7.0800000000000001

>  <m_primary>  (63) 
energy

>  <rmsd>  (63) 
2.0765481677706847

>  <m_score__min__rmsd>  (63) 
2.0765481677706847

>  <meeko>  (63) 
{"free_energy": -6.25, "intermolecular_energy": -9.53, "internal_energy": -1.81, "cluster_size": 26, "cluster_id": 1, "rank_in_cluster": 12}

>  <energy>  (63) 
-6.13

>  <cluster_rmsd>  (63) 
0.66

>  <cluster>  (63) 
1

$$$$

     RDKit          3D

 58 61  0  0  0  0  0  0  0  0999 V2000
  140.5560   72.4160  220.7810 O   0  0  0  0  0  0  0  0  0  0  0  0
  140.0450   72.7480  221.8680 C   0  0  0  0  0  0  0  0  0  0  0  0
  139.4460   74.0280  222.0640 N   0  0  0  0  0  0  0  0  0  0  0  0
  139.4150   74.9940  220.9840 C   0  0  0  0  0  0  0  0  0  0  0  0
  139.9260   76.3280  221.4510 C   0  0  0  0  0  0  0  0  0  0  0  0
  139.2830   76.8470  222.4000 O   0  0  0  0  0  0  0  0  0  0  0  0
  141.0480   76.9030  220.8280 N   0  0  0  0  0  0  0  0  0  0  0  0
  141.5990   76.1410  219.7080 C   0  0  0  0  0  0  0  0  0  0  0  0
  140.9280   76.6880  218.4630 C   0  0  0  0  0  0  0  0  0  0  0  0
  141.6080   77.9560  217.9830 C   0  0  0  0  0  0  0  0  0  0  0  0
  142.2890   78.7290  219.0640 C   0  0  0  0  0  0  0  0  0  0  0  0
  141.3530   79.1610  220.1870 C   0  0  0  0  0  0  0  0  0  0  0  0
  141.5640   78.1580  221.3050 C   0  0  1  0  0  0  0  0  0  0  0  0
  141.0160   78.5890  222.6240 C   0  0  0  0  0  0  0  0  0  0  0  0
  140.1050   79.7930  222.5020 C   0  0  0  0  0  0  0  0  0  0  0  0
  140.2100   80.5720  223.7990 C   0  0  0  0  0  0  0  0  0  0  0  0
  141.4260   81.2580  223.8050 O   0  0  0  0  0  0  0  0  0  0  0  0
  142.4290   80.5300  223.1690 C   0  0  0  0  0  0  0  0  0  0  0  0
  142.2020   79.0600  223.4600 C   0  0  0  0  0  0  0  0  0  0  0  0
  140.0530   71.8050  222.9840 C   0  0  0  0  0  0  0  0  0  0  0  0
  139.5500   70.5290  222.8280 C   0  0  0  0  0  0  0  0  0  0  0  0
  139.5410   69.6060  223.8610 C   0  0  0  0  0  0  0  0  0  0  0  0
  140.0500   69.9730  225.0850 C   0  0  0  0  0  0  0  0  0  0  0  0
  140.0650   69.0940  226.1460 C   0  0  0  0  0  0  0  0  0  0  0  0
  140.5880   69.5220  227.3430 C   0  0  0  0  0  0  0  0  0  0  0  0
  140.6420   68.4710  228.7280 Cl  0  0  0  0  0  0  0  0  0  0  0  0
  141.0910   70.8080  227.4860 C   0  0  0  0  0  0  0  0  0  0  0  0
  141.0850   71.7060  226.4300 C   0  0  0  0  0  0  0  0  0  0  0  0
  140.5540   71.2570  225.2310 C   0  0  0  0  0  0  0  0  0  0  0  0
  140.5430   72.1230  224.1990 N   0  0  0  0  0  0  0  0  0  0  0  0
  139.0320   74.2510  223.0010 H   0  0  0  0  0  0  0  0  0  0  0  0
  140.0469   74.6338  220.1588 H   0  0  0  0  0  0  0  0  0  0  0  0
  138.3754   75.1122  220.6444 H   0  0  0  0  0  0  0  0  0  0  0  0
  142.6884   76.2816  219.6487 H   0  0  0  0  0  0  0  0  0  0  0  0
  141.4163   75.0626  219.8245 H   0  0  0  0  0  0  0  0  0  0  0  0
  140.9783   75.9308  217.6667 H   0  0  0  0  0  0  0  0  0  0  0  0
  139.8823   76.9259  218.7079 H   0  0  0  0  0  0  0  0  0  0  0  0
  142.3600   77.6805  217.2290 H   0  0  0  0  0  0  0  0  0  0  0  0
  140.8183   78.6056  217.5776 H   0  0  0  0  0  0  0  0  0  0  0  0
  143.0820   78.1000  219.4947 H   0  0  0  0  0  0  0  0  0  0  0  0
  142.6862   79.6459  218.6041 H   0  0  0  0  0  0  0  0  0  0  0  0
  141.6064   80.1754  220.5288 H   0  0  0  0  0  0  0  0  0  0  0  0
  140.3045   79.1850  219.8553 H   0  0  0  0  0  0  0  0  0  0  0  0
  142.6356   78.0618  221.5337 H   0  0  0  0  0  0  0  0  0  0  0  0
  140.4544   77.7469  223.0546 H   0  0  0  0  0  0  0  0  0  0  0  0
  140.4240   80.4224  221.6581 H   0  0  0  0  0  0  0  0  0  0  0  0
  139.0668   79.4786  222.3198 H   0  0  0  0  0  0  0  0  0  0  0  0
  139.3788   81.2890  223.8698 H   0  0  0  0  0  0  0  0  0  0  0  0
  140.1597   79.8853  224.6569 H   0  0  0  0  0  0  0  0  0  0  0  0
  142.3864   80.7060  222.0840 H   0  0  0  0  0  0  0  0  0  0  0  0
  143.4176   80.8426  223.5365 H   0  0  0  0  0  0  0  0  0  0  0  0
  143.0997   78.4838  223.1915 H   0  0  0  0  0  0  0  0  0  0  0  0
  141.9970   78.9106  224.5304 H   0  0  0  0  0  0  0  0  0  0  0  0
  139.1422   70.2349  221.8496 H   0  0  0  0  0  0  0  0  0  0  0  0
  139.1335   68.5962  223.7049 H   0  0  0  0  0  0  0  0  0  0  0  0
  139.6679   68.0739  226.0377 H   0  0  0  0  0  0  0  0  0  0  0  0
  141.5027   71.1207  228.4569 H   0  0  0  0  0  0  0  0  0  0  0  0
  141.4826   72.7259  226.5384 H   0  0  0  0  0  0  0  0  0  0  0  0
  1  2  2  0
  2  3  1  0
  3  4  1  0
  4  5  1  0
  5  6  2  0
  5  7  1  0
  7  8  1  0
  8  9  1  0
  9 10  1  0
 10 11  1  0
 11 12  1  0
 12 13  1  0
 13 14  1  0
 14 15  1  0
 15 16  1  0
 16 17  1  0
 17 18  1  0
 18 19  1  0
  2 20  1  0
 20 21  2  0
 21 22  1  0
 22 23  2  0
 23 24  1  0
 24 25  2  0
 25 26  1  0
 25 27  1  0
 27 28  2  0
 28 29  1  0
 29 30  2  0
 13  7  1  0
 19 14  1  0
 30 20  1  0
 29 23  1  0
  3 31  1  0
  4 32  1  0
  4 33  1  0
  8 34  1  0
  8 35  1  0
  9 36  1  0
  9 37  1  0
 10 38  1  0
 10 39  1  0
 11 40  1  0
 11 41  1  0
 12 42  1  0
 12 43  1  0
 13 44  1  1
 14 45  1  0
 15 46  1  0
 15 47  1  0
 16 48  1  0
 16 49  1  0
 18 50  1  0
 18 51  1  0
 19 52  1  0
 19 53  1  0
 21 54  1  0
 22 55  1  0
 24 56  1  0
 27 57  1  0
 28 58  1  0
M  END
>  <smiles>  (64) 
O=C(NCC(=O)N1CCCCCC1C1CCOCC1)c1ccc2cc(Cl)ccc2n1

>  <score_type>  (64) 
oracle

>  <origin>  (64) 
autodockgpu

>  <m_score__min__energy>  (64) 
-7.0800000000000001

>  <m_primary>  (64) 
energy

>  <rmsd>  (64) 
1.9789925276074902

>  <m_score__min__rmsd>  (64) 
1.9789925276074902

>  <meeko>  (64) 
{"free_energy": -6.96, "intermolecular_energy": -10.24, "internal_energy": -1.2, "cluster_size": 26, "cluster_id": 1, "rank_in_cluster": 2}

>  <energy>  (64) 
-6.12

>  <cluster_rmsd>  (64) 
1.21

>  <cluster>  (64) 
1

$$$$

     RDKit          3D

 58 61  0  0  0  0  0  0  0  0999 V2000
  140.2260   72.7010  220.7180 O   0  0  0  0  0  0  0  0  0  0  0  0
  139.6780   72.9170  221.8170 C   0  0  0  0  0  0  0  0  0  0  0  0
  138.9590   74.1200  222.0820 N   0  0  0  0  0  0  0  0  0  0  0  0
  138.8470   75.1440  221.0610 C   0  0  0  0  0  0  0  0  0  0  0  0
  139.0980   76.5060  221.6460 C   0  0  0  0  0  0  0  0  0  0  0  0
  138.1440   76.9900  222.3090 O   0  0  0  0  0  0  0  0  0  0  0  0
  140.3350   77.1400  221.4310 N   0  0  0  0  0  0  0  0  0  0  0  0
  141.0920   77.4590  222.6410 C   0  0  0  0  0  0  0  0  0  0  0  0
  140.4240   78.6810  223.2400 C   0  0  0  0  0  0  0  0  0  0  0  0
  140.2000   79.7550  222.1940 C   0  0  0  0  0  0  0  0  0  0  0  0
  141.0960   79.6430  221.0040 C   0  0  0  0  0  0  0  0  0  0  0  0
  140.4690   78.8870  219.8400 C   0  0  0  0  0  0  0  0  0  0  0  0
  140.7690   77.4220  220.0890 C   0  0  1  0  0  0  0  0  0  0  0  0
  142.1800   77.0290  219.8030 C   0  0  0  0  0  0  0  0  0  0  0  0
  142.5110   77.1110  218.3270 C   0  0  0  0  0  0  0  0  0  0  0  0
  143.5710   76.0650  218.0430 C   0  0  0  0  0  0  0  0  0  0  0  0
  142.9610   74.8100  218.0270 O   0  0  0  0  0  0  0  0  0  0  0  0
  141.9210   74.7340  218.9500 C   0  0  0  0  0  0  0  0  0  0  0  0
  142.3070   75.5520  220.1650 C   0  0  0  0  0  0  0  0  0  0  0  0
  139.7660   71.9110  222.8740 C   0  0  0  0  0  0  0  0  0  0  0  0
  139.3210   70.6230  222.6560 C   0  0  0  0  0  0  0  0  0  0  0  0
  139.3880   69.6420  223.6310 C   0  0  0  0  0  0  0  0  0  0  0  0
  139.9150   69.9620  224.8600 C   0  0  0  0  0  0  0  0  0  0  0  0
  140.0050   69.0240  225.8670 C   0  0  0  0  0  0  0  0  0  0  0  0
  140.5430   69.4080  227.0720 C   0  0  0  0  0  0  0  0  0  0  0  0
  140.6900   68.2810  228.3900 Cl  0  0  0  0  0  0  0  0  0  0  0  0
  140.9870   70.7070  227.2780 C   0  0  0  0  0  0  0  0  0  0  0  0
  140.9040   71.6640  226.2780 C   0  0  0  0  0  0  0  0  0  0  0  0
  140.3600   71.2590  225.0690 C   0  0  0  0  0  0  0  0  0  0  0  0
  140.2760   72.1820  224.0910 N   0  0  0  0  0  0  0  0  0  0  0  0
  138.5190   74.2460  223.0250 H   0  0  0  0  0  0  0  0  0  0  0  0
  139.5865   74.9484  220.2705 H   0  0  0  0  0  0  0  0  0  0  0  0
  137.8290   75.1194  220.6451 H   0  0  0  0  0  0  0  0  0  0  0  0
  141.0548   76.6174  223.3484 H   0  0  0  0  0  0  0  0  0  0  0  0
  142.1519   77.6482  222.4157 H   0  0  0  0  0  0  0  0  0  0  0  0
  139.4530   78.3865  223.6647 H   0  0  0  0  0  0  0  0  0  0  0  0
  141.0828   79.0890  224.0207 H   0  0  0  0  0  0  0  0  0  0  0  0
  139.1576   79.6893  221.8490 H   0  0  0  0  0  0  0  0  0  0  0  0
  140.4285   80.7181  222.6739 H   0  0  0  0  0  0  0  0  0  0  0  0
  141.3508   80.6574  220.6634 H   0  0  0  0  0  0  0  0  0  0  0  0
  141.9827   79.0736  221.3193 H   0  0  0  0  0  0  0  0  0  0  0  0
  139.3824   79.0564  219.8141 H   0  0  0  0  0  0  0  0  0  0  0  0
  140.8727   79.2243  218.8739 H   0  0  0  0  0  0  0  0  0  0  0  0
  140.2168   76.7941  219.3743 H   0  0  0  0  0  0  0  0  0  0  0  0
  142.8447   77.7006  220.3662 H   0  0  0  0  0  0  0  0  0  0  0  0
  141.6113   76.9073  217.7277 H   0  0  0  0  0  0  0  0  0  0  0  0
  142.8754   78.1153  218.0652 H   0  0  0  0  0  0  0  0  0  0  0  0
  144.0364   76.2639  217.0664 H   0  0  0  0  0  0  0  0  0  0  0  0
  144.3492   76.0961  218.8198 H   0  0  0  0  0  0  0  0  0  0  0  0
  140.9990   75.1380  218.5065 H   0  0  0  0  0  0  0  0  0  0  0  0
  141.7431   73.6872  219.2372 H   0  0  0  0  0  0  0  0  0  0  0  0
  141.6351   75.3145  221.0030 H   0  0  0  0  0  0  0  0  0  0  0  0
  143.3393   75.3214  220.4670 H   0  0  0  0  0  0  0  0  0  0  0  0
  138.8983   70.3667  221.6734 H   0  0  0  0  0  0  0  0  0  0  0  0
  139.0257   68.6238  223.4258 H   0  0  0  0  0  0  0  0  0  0  0  0
  139.6546   67.9933  225.7095 H   0  0  0  0  0  0  0  0  0  0  0  0
  141.4131   70.9827  228.2539 H   0  0  0  0  0  0  0  0  0  0  0  0
  141.2531   72.6950  226.4365 H   0  0  0  0  0  0  0  0  0  0  0  0
  1  2  2  0
  2  3  1  0
  3  4  1  0
  4  5  1  0
  5  6  2  0
  5  7  1  0
  7  8  1  0
  8  9  1  0
  9 10  1  0
 10 11  1  0
 11 12  1  0
 12 13  1  0
 13 14  1  0
 14 15  1  0
 15 16  1  0
 16 17  1  0
 17 18  1  0
 18 19  1  0
  2 20  1  0
 20 21  2  0
 21 22  1  0
 22 23  2  0
 23 24  1  0
 24 25  2  0
 25 26  1  0
 25 27  1  0
 27 28  2  0
 28 29  1  0
 29 30  2  0
 13  7  1  0
 19 14  1  0
 30 20  1  0
 29 23  1  0
  3 31  1  0
  4 32  1  0
  4 33  1  0
  8 34  1  0
  8 35  1  0
  9 36  1  0
  9 37  1  0
 10 38  1  0
 10 39  1  0
 11 40  1  0
 11 41  1  0
 12 42  1  0
 12 43  1  0
 13 44  1  6
 14 45  1  0
 15 46  1  0
 15 47  1  0
 16 48  1  0
 16 49  1  0
 18 50  1  0
 18 51  1  0
 19 52  1  0
 19 53  1  0
 21 54  1  0
 22 55  1  0
 24 56  1  0
 27 57  1  0
 28 58  1  0
M  END
>  <smiles>  (65) 
O=C(NCC(=O)N1CCCCCC1C1CCOCC1)c1ccc2cc(Cl)ccc2n1

>  <score_type>  (65) 
oracle

>  <origin>  (65) 
autodockgpu

>  <m_score__min__energy>  (65) 
-7.0800000000000001

>  <m_primary>  (65) 
energy

>  <rmsd>  (65) 
2.9336482896748746

>  <m_score__min__rmsd>  (65) 
2.9336482896748746

>  <meeko>  (65) 
{"free_energy": -5.69, "intermolecular_energy": -8.97, "internal_energy": -1.88, "cluster_size": 26, "cluster_id": 1, "rank_in_cluster": 22}

>  <energy>  (65) 
-6.11

>  <cluster_rmsd>  (65) 
1.86

>  <cluster>  (65) 
1

$$$$

     RDKit          3D

 58 61  0  0  0  0  0  0  0  0999 V2000
  139.2310   72.8530  220.4510 O   0  0  0  0  0  0  0  0  0  0  0  0
  139.8720   73.0630  221.5000 C   0  0  0  0  0  0  0  0  0  0  0  0
  140.6110   74.2650  221.7080 N   0  0  0  0  0  0  0  0  0  0  0  0
  140.6380   75.2930  220.6860 C   0  0  0  0  0  0  0  0  0  0  0  0
  141.1970   76.5740  221.2370 C   0  0  0  0  0  0  0  0  0  0  0  0
  141.0010   76.7610  222.4660 O   0  0  0  0  0  0  0  0  0  0  0  0
  141.8810   77.4610  220.3850 N   0  0  0  0  0  0  0  0  0  0  0  0
  142.6010   76.8330  219.2780 C   0  0  0  0  0  0  0  0  0  0  0  0
  141.8150   77.1690  218.0260 C   0  0  0  0  0  0  0  0  0  0  0  0
  142.2730   78.4830  217.4240 C   0  0  0  0  0  0  0  0  0  0  0  0
  142.2190   79.6380  218.3690 C   0  0  0  0  0  0  0  0  0  0  0  0
  141.1400   79.5000  219.4400 C   0  0  0  0  0  0  0  0  0  0  0  0
  141.8290   78.8760  220.6380 C   0  0  1  0  0  0  0  0  0  0  0  0
  141.2250   79.2450  221.9510 C   0  0  0  0  0  0  0  0  0  0  0  0
  140.7450   80.6820  221.9800 C   0  0  0  0  0  0  0  0  0  0  0  0
  140.8630   81.1700  223.4100 C   0  0  0  0  0  0  0  0  0  0  0  0
  142.2090   81.4180  223.6830 O   0  0  0  0  0  0  0  0  0  0  0  0
  143.0410   80.5170  223.0230 C   0  0  0  0  0  0  0  0  0  0  0  0
  142.3440   79.1720  222.9860 C   0  0  0  0  0  0  0  0  0  0  0  0
  139.8720   72.0530  222.5570 C   0  0  0  0  0  0  0  0  0  0  0  0
  139.2510   70.8350  222.3640 C   0  0  0  0  0  0  0  0  0  0  0  0
  139.2300   69.8540  223.3400 C   0  0  0  0  0  0  0  0  0  0  0  0
  139.8480   70.0990  224.5430 C   0  0  0  0  0  0  0  0  0  0  0  0
  139.8580   69.1560  225.5500 C   0  0  0  0  0  0  0  0  0  0  0  0
  140.4930   69.4640  226.7280 C   0  0  0  0  0  0  0  0  0  0  0  0
  140.5470   68.3260  228.0430 Cl  0  0  0  0  0  0  0  0  0  0  0  0
  141.1140   70.6930  226.9090 C   0  0  0  0  0  0  0  0  0  0  0  0
  141.1160   71.6530  225.9090 C   0  0  0  0  0  0  0  0  0  0  0  0
  140.4700   71.3260  224.7270 C   0  0  0  0  0  0  0  0  0  0  0  0
  140.4660   72.2530  223.7490 N   0  0  0  0  0  0  0  0  0  0  0  0
  141.1320   74.3860  222.6100 H   0  0  0  0  0  0  0  0  0  0  0  0
  141.2673   74.9545  219.8497 H   0  0  0  0  0  0  0  0  0  0  0  0
  139.6098   75.4753  220.3401 H   0  0  0  0  0  0  0  0  0  0  0  0
  143.6221   77.2361  219.2082 H   0  0  0  0  0  0  0  0  0  0  0  0
  142.6893   75.7457  219.4193 H   0  0  0  0  0  0  0  0  0  0  0  0
  141.9583   76.3670  217.2869 H   0  0  0  0  0  0  0  0  0  0  0  0
  140.7532   77.2629  218.2974 H   0  0  0  0  0  0  0  0  0  0  0  0
  143.3121   78.3635  217.0835 H   0  0  0  0  0  0  0  0  0  0  0  0
  141.5803   78.7136  216.6012 H   0  0  0  0  0  0  0  0  0  0  0  0
  143.1954   79.7253  218.8680 H   0  0  0  0  0  0  0  0  0  0  0  0
  141.9722   80.5303  217.7749 H   0  0  0  0  0  0  0  0  0  0  0  0
  140.7322   80.4872  219.7032 H   0  0  0  0  0  0  0  0  0  0  0  0
  140.2972   78.8856  219.0906 H   0  0  0  0  0  0  0  0  0  0  0  0
  142.8474   79.2779  220.7440 H   0  0  0  0  0  0  0  0  0  0  0  0
  140.3768   78.5706  222.1399 H   0  0  0  0  0  0  0  0  0  0  0  0
  141.3696   81.3006  221.3188 H   0  0  0  0  0  0  0  0  0  0  0  0
  139.7043   80.7512  221.6304 H   0  0  0  0  0  0  0  0  0  0  0  0
  140.2822   82.0957  223.5354 H   0  0  0  0  0  0  0  0  0  0  0  0
  140.4718   80.4093  224.1016 H   0  0  0  0  0  0  0  0  0  0  0  0
  143.2305   80.8670  221.9975 H   0  0  0  0  0  0  0  0  0  0  0  0
  144.0039   80.4327  223.5482 H   0  0  0  0  0  0  0  0  0  0  0  0
  143.0620   78.3878  222.7039 H   0  0  0  0  0  0  0  0  0  0  0  0
  141.9312   78.9298  223.9764 H   0  0  0  0  0  0  0  0  0  0  0  0
  138.7561   70.6376  221.4017 H   0  0  0  0  0  0  0  0  0  0  0  0
  138.7267   68.8934  223.1559 H   0  0  0  0  0  0  0  0  0  0  0  0
  139.3688   68.1804  225.4125 H   0  0  0  0  0  0  0  0  0  0  0  0
  141.6141   70.9089  227.8647 H   0  0  0  0  0  0  0  0  0  0  0  0
  141.6068   72.6277  226.0469 H   0  0  0  0  0  0  0  0  0  0  0  0
  1  2  2  0
  2  3  1  0
  3  4  1  0
  4  5  1  0
  5  6  2  0
  5  7  1  0
  7  8  1  0
  8  9  1  0
  9 10  1  0
 10 11  1  0
 11 12  1  0
 12 13  1  0
 13 14  1  0
 14 15  1  0
 15 16  1  0
 16 17  1  0
 17 18  1  0
 18 19  1  0
  2 20  1  0
 20 21  2  0
 21 22  1  0
 22 23  2  0
 23 24  1  0
 24 25  2  0
 25 26  1  0
 25 27  1  0
 27 28  2  0
 28 29  1  0
 29 30  2  0
 13  7  1  0
 19 14  1  0
 30 20  1  0
 29 23  1  0
  3 31  1  0
  4 32  1  0
  4 33  1  0
  8 34  1  0
  8 35  1  0
  9 36  1  0
  9 37  1  0
 10 38  1  0
 10 39  1  0
 11 40  1  0
 11 41  1  0
 12 42  1  0
 12 43  1  0
 13 44  1  1
 14 45  1  0
 15 46  1  0
 15 47  1  0
 16 48  1  0
 16 49  1  0
 18 50  1  0
 18 51  1  0
 19 52  1  0
 19 53  1  0
 21 54  1  0
 22 55  1  0
 24 56  1  0
 27 57  1  0
 28 58  1  0
M  END
>  <smiles>  (66) 
O=C(NCC(=O)N1CCCCCC1C1CCOCC1)c1ccc2cc(Cl)ccc2n1

>  <score_type>  (66) 
oracle

>  <origin>  (66) 
autodockgpu

>  <m_score__min__energy>  (66) 
-7.0800000000000001

>  <m_primary>  (66) 
energy

>  <rmsd>  (66) 
2.4808460290006655

>  <m_score__min__rmsd>  (66) 
2.4808460290006655

>  <meeko>  (66) 
{"free_energy": -6.12, "intermolecular_energy": -9.4, "internal_energy": -1.66, "cluster_size": 26, "cluster_id": 1, "rank_in_cluster": 14}

>  <energy>  (66) 
-6.08

>  <cluster_rmsd>  (66) 
1.05

>  <cluster>  (66) 
1

$$$$

     RDKit          3D

 58 61  0  0  0  0  0  0  0  0999 V2000
  139.2710   71.4280  220.8340 O   0  0  0  0  0  0  0  0  0  0  0  0
  139.4870   71.9340  221.9520 C   0  0  0  0  0  0  0  0  0  0  0  0
  139.6250   73.3410  222.1340 N   0  0  0  0  0  0  0  0  0  0  0  0
  139.5170   74.2380  221.0000 C   0  0  0  0  0  0  0  0  0  0  0  0
  140.7840   75.0270  220.8240 C   0  0  0  0  0  0  0  0  0  0  0  0
  141.2930   75.4710  221.8860 O   0  0  0  0  0  0  0  0  0  0  0  0
  141.3140   75.2190  219.5350 N   0  0  0  0  0  0  0  0  0  0  0  0
  140.3330   75.5410  218.4990 C   0  0  0  0  0  0  0  0  0  0  0  0
  140.0070   77.0110  218.6770 C   0  0  0  0  0  0  0  0  0  0  0  0
  141.1640   77.7590  219.3100 C   0  0  0  0  0  0  0  0  0  0  0  0
  142.4960   77.4340  218.7180 C   0  0  0  0  0  0  0  0  0  0  0  0
  143.3190   76.4750  219.5680 C   0  0  0  0  0  0  0  0  0  0  0  0
  142.7310   75.1000  219.3210 C   0  0  1  0  0  0  0  0  0  0  0  0
  143.3820   74.0070  220.1010 C   0  0  0  0  0  0  0  0  0  0  0  0
  144.8040   74.3510  220.4960 C   0  0  0  0  0  0  0  0  0  0  0  0
  145.5780   73.0500  220.5750 C   0  0  0  0  0  0  0  0  0  0  0  0
  145.8460   72.6150  219.2760 O   0  0  0  0  0  0  0  0  0  0  0  0
  144.8070   72.9310  218.4050 C   0  0  0  0  0  0  0  0  0  0  0  0
  143.5010   72.8090  219.1640 C   0  0  0  0  0  0  0  0  0  0  0  0
  139.6030   71.0660  223.1230 C   0  0  0  0  0  0  0  0  0  0  0  0
  139.1310   69.7690  223.0850 C   0  0  0  0  0  0  0  0  0  0  0  0
  139.2230   68.9160  224.1720 C   0  0  0  0  0  0  0  0  0  0  0  0
  139.8040   69.3760  225.3300 C   0  0  0  0  0  0  0  0  0  0  0  0
  139.9210   68.5700  226.4420 C   0  0  0  0  0  0  0  0  0  0  0  0
  140.5120   69.0900  227.5680 C   0  0  0  0  0  0  0  0  0  0  0  0
  140.6950   68.1330  229.0100 Cl  0  0  0  0  0  0  0  0  0  0  0  0
  140.9830   70.3960  227.5940 C   0  0  0  0  0  0  0  0  0  0  0  0
  140.8740   71.2220  226.4850 C   0  0  0  0  0  0  0  0  0  0  0  0
  140.2760   70.6810  225.3580 C   0  0  0  0  0  0  0  0  0  0  0  0
  140.1650   71.4760  224.2760 N   0  0  0  0  0  0  0  0  0  0  0  0
  139.8060   73.7090  223.0990 H   0  0  0  0  0  0  0  0  0  0  0  0
  139.3292   73.6489  220.0902 H   0  0  0  0  0  0  0  0  0  0  0  0
  138.6872   74.9372  221.1801 H   0  0  0  0  0  0  0  0  0  0  0  0
  140.7583   75.3617  217.5005 H   0  0  0  0  0  0  0  0  0  0  0  0
  139.4331   74.9145  218.5866 H   0  0  0  0  0  0  0  0  0  0  0  0
  139.7909   77.4519  217.6927 H   0  0  0  0  0  0  0  0  0  0  0  0
  139.1342   77.0952  219.3411 H   0  0  0  0  0  0  0  0  0  0  0  0
  140.9858   78.8377  219.1888 H   0  0  0  0  0  0  0  0  0  0  0  0
  141.2019   77.4511  220.3653 H   0  0  0  0  0  0  0  0  0  0  0  0
  142.3362   76.9755  217.7310 H   0  0  0  0  0  0  0  0  0  0  0  0
  143.0605   78.3759  218.6530 H   0  0  0  0  0  0  0  0  0  0  0  0
  144.3752   76.5011  219.2619 H   0  0  0  0  0  0  0  0  0  0  0  0
  143.2850   76.7456  220.6336 H   0  0  0  0  0  0  0  0  0  0  0  0
  142.9307   74.7811  218.2874 H   0  0  0  0  0  0  0  0  0  0  0  0
  142.7829   73.8272  221.0059 H   0  0  0  0  0  0  0  0  0  0  0  0
  145.2549   75.0118  219.7410 H   0  0  0  0  0  0  0  0  0  0  0  0
  144.8233   74.8746  221.4632 H   0  0  0  0  0  0  0  0  0  0  0  0
  146.5228   73.2124  221.1143 H   0  0  0  0  0  0  0  0  0  0  0  0
  144.9885   72.2925  221.1122 H   0  0  0  0  0  0  0  0  0  0  0  0
  144.9293   73.9604  218.0370 H   0  0  0  0  0  0  0  0  0  0  0  0
  144.8116   72.2473  217.5433 H   0  0  0  0  0  0  0  0  0  0  0  0
  142.6583   72.8038  218.4570 H   0  0  0  0  0  0  0  0  0  0  0  0
  143.4818   71.8721  219.7400 H   0  0  0  0  0  0  0  0  0  0  0  0
  138.6656   69.4004  222.1590 H   0  0  0  0  0  0  0  0  0  0  0  0
  138.8377   67.8876  224.1100 H   0  0  0  0  0  0  0  0  0  0  0  0
  139.5499   67.5346  226.4282 H   0  0  0  0  0  0  0  0  0  0  0  0
  141.4513   70.7827  228.5111 H   0  0  0  0  0  0  0  0  0  0  0  0
  141.2447   72.2576  226.4994 H   0  0  0  0  0  0  0  0  0  0  0  0
  1  2  2  0
  2  3  1  0
  3  4  1  0
  4  5  1  0
  5  6  2  0
  5  7  1  0
  7  8  1  0
  8  9  1  0
  9 10  1  0
 10 11  1  0
 11 12  1  0
 12 13  1  0
 13 14  1  0
 14 15  1  0
 15 16  1  0
 16 17  1  0
 17 18  1  0
 18 19  1  0
  2 20  1  0
 20 21  2  0
 21 22  1  0
 22 23  2  0
 23 24  1  0
 24 25  2  0
 25 26  1  0
 25 27  1  0
 27 28  2  0
 28 29  1  0
 29 30  2  0
 13  7  1  0
 19 14  1  0
 30 20  1  0
 29 23  1  0
  3 31  1  0
  4 32  1  0
  4 33  1  0
  8 34  1  0
  8 35  1  0
  9 36  1  0
  9 37  1  0
 10 38  1  0
 10 39  1  0
 11 40  1  0
 11 41  1  0
 12 42  1  0
 12 43  1  0
 13 44  1  6
 14 45  1  0
 15 46  1  0
 15 47  1  0
 16 48  1  0
 16 49  1  0
 18 50  1  0
 18 51  1  0
 19 52  1  0
 19 53  1  0
 21 54  1  0
 22 55  1  0
 24 56  1  0
 27 57  1  0
 28 58  1  0
M  END
>  <smiles>  (67) 
O=C(NCC(=O)N1CCCCCC1C1CCOCC1)c1ccc2cc(Cl)ccc2n1

>  <score_type>  (67) 
oracle

>  <origin>  (67) 
autodockgpu

>  <m_score__min__energy>  (67) 
-7.0800000000000001

>  <m_primary>  (67) 
energy

>  <rmsd>  (67) 
1.7639756041746455

>  <m_score__min__rmsd>  (67) 
1.7639756041746455

>  <meeko>  (67) 
{"free_energy": -6.35, "intermolecular_energy": -9.63, "internal_energy": -2.02, "cluster_size": 13, "cluster_id": 2, "rank_in_cluster": 3}

>  <energy>  (67) 
-6.08

>  <cluster_rmsd>  (67) 
1.1

>  <cluster>  (67) 
1

$$$$

     RDKit          3D

 58 61  0  0  0  0  0  0  0  0999 V2000
  141.2580   72.9290  221.0400 O   0  0  0  0  0  0  0  0  0  0  0  0
  140.4280   73.1220  221.9500 C   0  0  0  0  0  0  0  0  0  0  0  0
  139.6550   74.3180  222.0300 N   0  0  0  0  0  0  0  0  0  0  0  0
  139.8190   75.3620  221.0370 C   0  0  0  0  0  0  0  0  0  0  0  0
  140.7240   76.4460  221.5510 C   0  0  0  0  0  0  0  0  0  0  0  0
  140.6850   76.6340  222.7950 O   0  0  0  0  0  0  0  0  0  0  0  0
  141.5320   77.1650  220.6520 N   0  0  0  0  0  0  0  0  0  0  0  0
  142.1800   76.3620  219.6160 C   0  0  0  0  0  0  0  0  0  0  0  0
  141.5110   76.7490  218.3110 C   0  0  0  0  0  0  0  0  0  0  0  0
  142.2040   77.9340  217.6670 C   0  0  0  0  0  0  0  0  0  0  0  0
  142.1950   79.1730  218.5020 C   0  0  0  0  0  0  0  0  0  0  0  0
  141.0790   79.2030  219.5370 C   0  0  0  0  0  0  0  0  0  0  0  0
  141.6650   78.5910  220.7940 C   0  0  1  0  0  0  0  0  0  0  0  0
  141.0990   79.1380  222.0620 C   0  0  0  0  0  0  0  0  0  0  0  0
  140.7650   80.6120  221.9530 C   0  0  0  0  0  0  0  0  0  0  0  0
  140.9300   81.2160  223.3330 C   0  0  0  0  0  0  0  0  0  0  0  0
  142.2940   81.3540  223.5950 O   0  0  0  0  0  0  0  0  0  0  0  0
  143.0320   80.3170  223.0300 C   0  0  0  0  0  0  0  0  0  0  0  0
  142.2050   79.0500  223.1100 C   0  0  0  0  0  0  0  0  0  0  0  0
  140.2310   72.0960  222.9720 C   0  0  0  0  0  0  0  0  0  0  0  0
  139.5490   70.9330  222.6760 C   0  0  0  0  0  0  0  0  0  0  0  0
  139.3430   69.9370  223.6160 C   0  0  0  0  0  0  0  0  0  0  0  0
  139.8330   70.1130  224.8890 C   0  0  0  0  0  0  0  0  0  0  0  0
  139.6560   69.1540  225.8640 C   0  0  0  0  0  0  0  0  0  0  0  0
  140.1710   69.3900  227.1150 C   0  0  0  0  0  0  0  0  0  0  0  0
  139.9880   68.2270  228.3970 Cl  0  0  0  0  0  0  0  0  0  0  0  0
  140.8550   70.5640  227.3990 C   0  0  0  0  0  0  0  0  0  0  0  0
  141.0440   71.5400  226.4320 C   0  0  0  0  0  0  0  0  0  0  0  0
  140.5180   71.2850  225.1760 C   0  0  0  0  0  0  0  0  0  0  0  0
  140.6950   72.2270  224.2300 N   0  0  0  0  0  0  0  0  0  0  0  0
  138.9730   74.4250  222.8190 H   0  0  0  0  0  0  0  0  0  0  0  0
  140.2565   74.9282  220.1257 H   0  0  0  0  0  0  0  0  0  0  0  0
  138.8337   75.7986  220.8166 H   0  0  0  0  0  0  0  0  0  0  0  0
  143.2562   76.5860  219.5754 H   0  0  0  0  0  0  0  0  0  0  0  0
  142.0795   75.2853  219.8176 H   0  0  0  0  0  0  0  0  0  0  0  0
  141.5493   75.8931  217.6211 H   0  0  0  0  0  0  0  0  0  0  0  0
  140.4692   77.0301  218.5248 H   0  0  0  0  0  0  0  0  0  0  0  0
  143.2503   77.6574  217.4704 H   0  0  0  0  0  0  0  0  0  0  0  0
  141.6464   78.1667  216.7478 H   0  0  0  0  0  0  0  0  0  0  0  0
  143.1586   79.2450  219.0276 H   0  0  0  0  0  0  0  0  0  0  0  0
  142.0255   80.0197  217.8206 H   0  0  0  0  0  0  0  0  0  0  0  0
  140.7610   80.2387  219.7275 H   0  0  0  0  0  0  0  0  0  0  0  0
  140.1926   78.6501  219.1928 H   0  0  0  0  0  0  0  0  0  0  0  0
  142.7262   78.8638  220.8908 H   0  0  0  0  0  0  0  0  0  0  0  0
  140.1874   78.5720  222.3043 H   0  0  0  0  0  0  0  0  0  0  0  0
  141.4490   81.1013  221.2440 H   0  0  0  0  0  0  0  0  0  0  0  0
  139.7369   80.7518  221.5877 H   0  0  0  0  0  0  0  0  0  0  0  0
  140.4438   82.2021  223.3671 H   0  0  0  0  0  0  0  0  0  0  0  0
  140.4648   80.5650  224.0878 H   0  0  0  0  0  0  0  0  0  0  0  0
  143.2565   80.5495  221.9786 H   0  0  0  0  0  0  0  0  0  0  0  0
  143.9807   80.1866  223.5713 H   0  0  0  0  0  0  0  0  0  0  0  0
  142.8415   78.1760  222.9077 H   0  0  0  0  0  0  0  0  0  0  0  0
  141.7700   78.9419  224.1146 H   0  0  0  0  0  0  0  0  0  0  0  0
  139.1556   70.7924  221.6584 H   0  0  0  0  0  0  0  0  0  0  0  0
  138.7966   69.0204  223.3489 H   0  0  0  0  0  0  0  0  0  0  0  0
  139.1149   68.2217  225.6448 H   0  0  0  0  0  0  0  0  0  0  0  0
  141.2551   70.7234  228.4112 H   0  0  0  0  0  0  0  0  0  0  0  0
  141.5856   72.4719  226.6518 H   0  0  0  0  0  0  0  0  0  0  0  0
  1  2  2  0
  2  3  1  0
  3  4  1  0
  4  5  1  0
  5  6  2  0
  5  7  1  0
  7  8  1  0
  8  9  1  0
  9 10  1  0
 10 11  1  0
 11 12  1  0
 12 13  1  0
 13 14  1  0
 14 15  1  0
 15 16  1  0
 16 17  1  0
 17 18  1  0
 18 19  1  0
  2 20  1  0
 20 21  2  0
 21 22  1  0
 22 23  2  0
 23 24  1  0
 24 25  2  0
 25 26  1  0
 25 27  1  0
 27 28  2  0
 28 29  1  0
 29 30  2  0
 13  7  1  0
 19 14  1  0
 30 20  1  0
 29 23  1  0
  3 31  1  0
  4 32  1  0
  4 33  1  0
  8 34  1  0
  8 35  1  0
  9 36  1  0
  9 37  1  0
 10 38  1  0
 10 39  1  0
 11 40  1  0
 11 41  1  0
 12 42  1  0
 12 43  1  0
 13 44  1  1
 14 45  1  0
 15 46  1  0
 15 47  1  0
 16 48  1  0
 16 49  1  0
 18 50  1  0
 18 51  1  0
 19 52  1  0
 19 53  1  0
 21 54  1  0
 22 55  1  0
 24 56  1  0
 27 57  1  0
 28 58  1  0
M  END
>  <smiles>  (68) 
O=C(NCC(=O)N1CCCCCC1C1CCOCC1)c1ccc2cc(Cl)ccc2n1

>  <score_type>  (68) 
oracle

>  <origin>  (68) 
autodockgpu

>  <m_score__min__energy>  (68) 
-7.0800000000000001

>  <m_primary>  (68) 
energy

>  <rmsd>  (68) 
2.208957751585393

>  <m_score__min__rmsd>  (68) 
2.208957751585393

>  <meeko>  (68) 
{"free_energy": -6.45, "intermolecular_energy": -9.73, "internal_energy": -1.4, "cluster_size": 26, "cluster_id": 1, "rank_in_cluster": 9}

>  <energy>  (68) 
-6.02

>  <cluster_rmsd>  (68) 
1.3

>  <cluster>  (68) 
1

$$$$

     RDKit          3D

 58 61  0  0  0  0  0  0  0  0999 V2000
  141.9720   72.9850  220.4400 O   0  0  0  0  0  0  0  0  0  0  0  0
  141.2620   73.6900  221.1830 C   0  0  0  0  0  0  0  0  0  0  0  0
  140.3050   73.1260  222.0780 N   0  0  0  0  0  0  0  0  0  0  0  0
  140.1300   71.6880  222.1470 C   0  0  0  0  0  0  0  0  0  0  0  0
  138.9150   71.3410  222.9620 C   0  0  0  0  0  0  0  0  0  0  0  0
  138.0560   72.2550  223.0630 O   0  0  0  0  0  0  0  0  0  0  0  0
  138.8080   70.0650  223.5460 N   0  0  0  0  0  0  0  0  0  0  0  0
  138.7910   68.9470  222.6030 C   0  0  0  0  0  0  0  0  0  0  0  0
  137.3920   68.9160  222.0180 C   0  0  0  0  0  0  0  0  0  0  0  0
  136.3580   68.5960  223.0800 C   0  0  0  0  0  0  0  0  0  0  0  0
  136.4520   69.4530  224.3000 C   0  0  0  0  0  0  0  0  0  0  0  0
  137.5570   69.0220  225.2630 C   0  0  0  0  0  0  0  0  0  0  0  0
  138.7300   69.9390  224.9760 C   0  0  1  0  0  0  0  0  0  0  0  0
  140.0060   69.5220  225.6280 C   0  0  0  0  0  0  0  0  0  0  0  0
  139.7820   68.9360  227.0070 C   0  0  0  0  0  0  0  0  0  0  0  0
  141.0170   69.2380  227.8330 C   0  0  0  0  0  0  0  0  0  0  0  0
  140.9860   70.5850  228.1960 O   0  0  0  0  0  0  0  0  0  0  0  0
  140.4210   71.3740  227.1980 C   0  0  0  0  0  0  0  0  0  0  0  0
  140.8180   70.7940  225.8560 C   0  0  0  0  0  0  0  0  0  0  0  0
  141.4060   75.1450  221.1450 C   0  0  0  0  0  0  0  0  0  0  0  0
  142.1420   75.7510  220.1480 C   0  0  0  0  0  0  0  0  0  0  0  0
  142.3020   77.1240  220.0770 C   0  0  0  0  0  0  0  0  0  0  0  0
  141.7070   77.9130  221.0340 C   0  0  0  0  0  0  0  0  0  0  0  0
  141.8330   79.2860  221.0110 C   0  0  0  0  0  0  0  0  0  0  0  0
  141.2140   80.0160  221.9960 C   0  0  0  0  0  0  0  0  0  0  0  0
  141.3280   81.7520  222.0340 Cl  0  0  0  0  0  0  0  0  0  0  0  0
  140.4760   79.3940  222.9940 C   0  0  0  0  0  0  0  0  0  0  0  0
  140.3370   78.0140  223.0330 C   0  0  0  0  0  0  0  0  0  0  0  0
  140.9680   77.2940  222.0320 C   0  0  0  0  0  0  0  0  0  0  0  0
  140.8400   75.9530  222.0620 N   0  0  0  0  0  0  0  0  0  0  0  0
  139.7360   73.7690  222.6780 H   0  0  0  0  0  0  0  0  0  0  0  0
  140.0083   71.2894  221.1290 H   0  0  0  0  0  0  0  0  0  0  0  0
  141.0161   71.2456  222.6256 H   0  0  0  0  0  0  0  0  0  0  0  0
  139.5344   69.1060  221.8080 H   0  0  0  0  0  0  0  0  0  0  0  0
  139.0420   67.9976  223.0985 H   0  0  0  0  0  0  0  0  0  0  0  0
  137.1644   69.8995  221.5811 H   0  0  0  0  0  0  0  0  0  0  0  0
  137.3545   68.1305  221.2489 H   0  0  0  0  0  0  0  0  0  0  0  0
  135.3585   68.7292  222.6404 H   0  0  0  0  0  0  0  0  0  0  0  0
  136.5451   67.5615  223.4036 H   0  0  0  0  0  0  0  0  0  0  0  0
  136.6493   70.4881  223.9842 H   0  0  0  0  0  0  0  0  0  0  0  0
  135.4975   69.3562  224.8381 H   0  0  0  0  0  0  0  0  0  0  0  0
  137.2248   69.1385  226.3052 H   0  0  0  0  0  0  0  0  0  0  0  0
  137.8252   67.9639  225.1268 H   0  0  0  0  0  0  0  0  0  0  0  0
  138.5619   70.9256  225.4324 H   0  0  0  0  0  0  0  0  0  0  0  0
  140.4918   68.7729  224.9855 H   0  0  0  0  0  0  0  0  0  0  0  0
  138.8971   69.3953  227.4717 H   0  0  0  0  0  0  0  0  0  0  0  0
  139.6112   67.8511  226.9454 H   0  0  0  0  0  0  0  0  0  0  0  0
  141.0226   68.6100  228.7361 H   0  0  0  0  0  0  0  0  0  0  0  0
  141.9240   69.0251  227.2481 H   0  0  0  0  0  0  0  0  0  0  0  0
  139.3254   71.3706  227.2959 H   0  0  0  0  0  0  0  0  0  0  0  0
  140.7780   72.4108  227.2849 H   0  0  0  0  0  0  0  0  0  0  0  0
  140.6040   71.5205  225.0582 H   0  0  0  0  0  0  0  0  0  0  0  0
  141.8939   70.5656  225.8438 H   0  0  0  0  0  0  0  0  0  0  0  0
  142.6185   75.1209  219.3825 H   0  0  0  0  0  0  0  0  0  0  0  0
  142.8951   77.5767  219.2687 H   0  0  0  0  0  0  0  0  0  0  0  0
  142.4155   79.7848  220.2224 H   0  0  0  0  0  0  0  0  0  0  0  0
  139.9922   80.0070  223.7687 H   0  0  0  0  0  0  0  0  0  0  0  0
  139.7536   77.5156  223.8212 H   0  0  0  0  0  0  0  0  0  0  0  0
  1  2  2  0
  2  3  1  0
  3  4  1  0
  4  5  1  0
  5  6  2  0
  5  7  1  0
  7  8  1  0
  8  9  1  0
  9 10  1  0
 10 11  1  0
 11 12  1  0
 12 13  1  0
 13 14  1  0
 14 15  1  0
 15 16  1  0
 16 17  1  0
 17 18  1  0
 18 19  1  0
  2 20  1  0
 20 21  2  0
 21 22  1  0
 22 23  2  0
 23 24  1  0
 24 25  2  0
 25 26  1  0
 25 27  1  0
 27 28  2  0
 28 29  1  0
 29 30  2  0
 13  7  1  0
 19 14  1  0
 30 20  1  0
 29 23  1  0
  3 31  1  0
  4 32  1  0
  4 33  1  0
  8 34  1  0
  8 35  1  0
  9 36  1  0
  9 37  1  0
 10 38  1  0
 10 39  1  0
 11 40  1  0
 11 41  1  0
 12 42  1  0
 12 43  1  0
 13 44  1  1
 14 45  1  0
 15 46  1  0
 15 47  1  0
 16 48  1  0
 16 49  1  0
 18 50  1  0
 18 51  1  0
 19 52  1  0
 19 53  1  0
 21 54  1  0
 22 55  1  0
 24 56  1  0
 27 57  1  0
 28 58  1  0
M  END
>  <smiles>  (69) 
O=C(NCC(=O)N1CCCCCC1C1CCOCC1)c1ccc2cc(Cl)ccc2n1

>  <score_type>  (69) 
oracle

>  <origin>  (69) 
autodockgpu

>  <m_score__min__energy>  (69) 
-7.0800000000000001

>  <m_primary>  (69) 
energy

>  <rmsd>  (69) 
8.382729963250224

>  <m_score__min__rmsd>  (69) 
8.382729963250224

>  <meeko>  (69) 
{"free_energy": -5.49, "intermolecular_energy": -8.77, "internal_energy": -2.21, "cluster_size": 1, "cluster_id": 4, "rank_in_cluster": 1}

>  <energy>  (69) 
-5.8

>  <cluster_rmsd>  (69) 
0.98

>  <cluster>  (69) 
1

$$$$

     RDKit          3D

 58 61  0  0  0  0  0  0  0  0999 V2000
  139.1560   72.0290  220.6980 O   0  0  0  0  0  0  0  0  0  0  0  0
  139.4000   72.4550  221.8440 C   0  0  0  0  0  0  0  0  0  0  0  0
  139.5340   73.8470  222.1220 N   0  0  0  0  0  0  0  0  0  0  0  0
  139.3860   74.8230  221.0600 C   0  0  0  0  0  0  0  0  0  0  0  0
  140.1000   76.0990  221.4080 C   0  0  0  0  0  0  0  0  0  0  0  0
  140.1030   76.3970  222.6310 O   0  0  0  0  0  0  0  0  0  0  0  0
  140.7030   76.8620  220.3910 N   0  0  0  0  0  0  0  0  0  0  0  0
  140.6240   76.2860  219.0490 C   0  0  0  0  0  0  0  0  0  0  0  0
  142.0540   76.1950  218.5510 C   0  0  0  0  0  0  0  0  0  0  0  0
  142.4640   77.4590  217.8210 C   0  0  0  0  0  0  0  0  0  0  0  0
  142.5510   78.6670  218.6960 C   0  0  0  0  0  0  0  0  0  0  0  0
  141.2650   78.9640  219.4600 C   0  0  0  0  0  0  0  0  0  0  0  0
  141.3290   78.1150  220.7150 C   0  0  1  0  0  0  0  0  0  0  0  0
  140.7800   78.7810  221.9320 C   0  0  0  0  0  0  0  0  0  0  0  0
  140.5640   80.2660  221.7270 C   0  0  0  0  0  0  0  0  0  0  0  0
  140.7450   80.9400  223.0730 C   0  0  0  0  0  0  0  0  0  0  0  0
  142.1090   80.9900  223.3620 O   0  0  0  0  0  0  0  0  0  0  0  0
  142.7770   79.8670  222.8800 C   0  0  0  0  0  0  0  0  0  0  0  0
  141.8520   78.6740  223.0130 C   0  0  0  0  0  0  0  0  0  0  0  0
  139.5570   71.5070  222.9450 C   0  0  0  0  0  0  0  0  0  0  0  0
  139.1530   70.1940  222.8030 C   0  0  0  0  0  0  0  0  0  0  0  0
  139.2850   69.2660  223.8220 C   0  0  0  0  0  0  0  0  0  0  0  0
  139.8360   69.6640  225.0170 C   0  0  0  0  0  0  0  0  0  0  0  0
  139.9900   68.7810  226.0640 C   0  0  0  0  0  0  0  0  0  0  0  0
  140.5480   69.2420  227.2320 C   0  0  0  0  0  0  0  0  0  0  0  0
  140.7750   68.1880  228.5970 Cl  0  0  0  0  0  0  0  0  0  0  0  0
  140.9500   70.5650  227.3620 C   0  0  0  0  0  0  0  0  0  0  0  0
  140.8030   71.4680  226.3200 C   0  0  0  0  0  0  0  0  0  0  0  0
  140.2390   70.9850  225.1490 C   0  0  0  0  0  0  0  0  0  0  0  0
  140.0920   71.8550  224.1310 N   0  0  0  0  0  0  0  0  0  0  0  0
  139.7400   74.1470  223.1050 H   0  0  0  0  0  0  0  0  0  0  0  0
  139.8103   74.4134  220.1314 H   0  0  0  0  0  0  0  0  0  0  0  0
  138.3161   75.0413  220.9268 H   0  0  0  0  0  0  0  0  0  0  0  0
  140.1680   75.2857  219.0881 H   0  0  0  0  0  0  0  0  0  0  0  0
  140.0022   76.9007  218.3816 H   0  0  0  0  0  0  0  0  0  0  0  0
  142.7239   76.0441  219.4103 H   0  0  0  0  0  0  0  0  0  0  0  0
  142.1246   75.3504  217.8498 H   0  0  0  0  0  0  0  0  0  0  0  0
  143.4510   77.2904  217.3656 H   0  0  0  0  0  0  0  0  0  0  0  0
  141.6816   77.6629  217.0751 H   0  0  0  0  0  0  0  0  0  0  0  0
  143.3598   78.5104  219.4249 H   0  0  0  0  0  0  0  0  0  0  0  0
  142.7402   79.5279  218.0379 H   0  0  0  0  0  0  0  0  0  0  0  0
  141.2115   80.0312  219.7211 H   0  0  0  0  0  0  0  0  0  0  0  0
  140.3729   78.7341  218.8589 H   0  0  0  0  0  0  0  0  0  0  0  0
  142.3759   77.9483  221.0087 H   0  0  0  0  0  0  0  0  0  0  0  0
  139.8221   78.3019  222.1826 H   0  0  0  0  0  0  0  0  0  0  0  0
  141.2993   80.6573  221.0085 H   0  0  0  0  0  0  0  0  0  0  0  0
  139.5580   80.4608  221.3270 H   0  0  0  0  0  0  0  0  0  0  0  0
  140.3358   81.9604  223.0353 H   0  0  0  0  0  0  0  0  0  0  0  0
  140.2145   80.3740  223.8529 H   0  0  0  0  0  0  0  0  0  0  0  0
  143.0426   80.0165  221.8231 H   0  0  0  0  0  0  0  0  0  0  0  0
  143.7004   79.6983  223.4535 H   0  0  0  0  0  0  0  0  0  0  0  0
  142.4230   77.7432  222.8807 H   0  0  0  0  0  0  0  0  0  0  0  0
  141.3874   78.6619  224.0100 H   0  0  0  0  0  0  0  0  0  0  0  0
  138.7112   69.8746  221.8476 H   0  0  0  0  0  0  0  0  0  0  0  0
  138.9543   68.2269  223.6777 H   0  0  0  0  0  0  0  0  0  0  0  0
  139.6737   67.7319  225.9669 H   0  0  0  0  0  0  0  0  0  0  0  0
  141.3937   70.9031  228.3101 H   0  0  0  0  0  0  0  0  0  0  0  0
  141.1187   72.5172  226.4177 H   0  0  0  0  0  0  0  0  0  0  0  0
  1  2  2  0
  2  3  1  0
  3  4  1  0
  4  5  1  0
  5  6  2  0
  5  7  1  0
  7  8  1  0
  8  9  1  0
  9 10  1  0
 10 11  1  0
 11 12  1  0
 12 13  1  0
 13 14  1  0
 14 15  1  0
 15 16  1  0
 16 17  1  0
 17 18  1  0
 18 19  1  0
  2 20  1  0
 20 21  2  0
 21 22  1  0
 22 23  2  0
 23 24  1  0
 24 25  2  0
 25 26  1  0
 25 27  1  0
 27 28  2  0
 28 29  1  0
 29 30  2  0
 13  7  1  0
 19 14  1  0
 30 20  1  0
 29 23  1  0
  3 31  1  0
  4 32  1  0
  4 33  1  0
  8 34  1  0
  8 35  1  0
  9 36  1  0
  9 37  1  0
 10 38  1  0
 10 39  1  0
 11 40  1  0
 11 41  1  0
 12 42  1  0
 12 43  1  0
 13 44  1  1
 14 45  1  0
 15 46  1  0
 15 47  1  0
 16 48  1  0
 16 49  1  0
 18 50  1  0
 18 51  1  0
 19 52  1  0
 19 53  1  0
 21 54  1  0
 22 55  1  0
 24 56  1  0
 27 57  1  0
 28 58  1  0
M  END
>  <smiles>  (70) 
O=C(NCC(=O)N1CCCCCC1C1CCOCC1)c1ccc2cc(Cl)ccc2n1

>  <score_type>  (70) 
oracle

>  <origin>  (70) 
autodockgpu

>  <m_score__min__energy>  (70) 
-7.0800000000000001

>  <m_primary>  (70) 
energy

>  <rmsd>  (70) 
1.6410692089003738

>  <m_score__min__rmsd>  (70) 
1.6410692089003738

>  <meeko>  (70) 
{"free_energy": -6.34, "intermolecular_energy": -9.62, "internal_energy": -1.82, "cluster_size": 26, "cluster_id": 1, "rank_in_cluster": 11}

>  <energy>  (70) 
-5.78

>  <cluster_rmsd>  (70) 
1.15

>  <cluster>  (70) 
1

$$$$

     RDKit          3D

 58 61  0  0  0  0  0  0  0  0999 V2000
  139.9290   74.0390  222.2640 O   0  0  0  0  0  0  0  0  0  0  0  0
  139.7920   72.8280  221.9980 C   0  0  0  0  0  0  0  0  0  0  0  0
  139.5480   72.3660  220.6710 N   0  0  0  0  0  0  0  0  0  0  0  0
  139.4510   73.3100  219.5750 C   0  0  0  0  0  0  0  0  0  0  0  0
  140.8090   73.5850  218.9900 C   0  0  0  0  0  0  0  0  0  0  0  0
  141.2410   72.7070  218.1990 O   0  0  0  0  0  0  0  0  0  0  0  0
  141.4960   74.7600  219.3450 N   0  0  0  0  0  0  0  0  0  0  0  0
  140.6540   75.8590  219.8160 C   0  0  0  0  0  0  0  0  0  0  0  0
  140.5480   76.8290  218.6560 C   0  0  0  0  0  0  0  0  0  0  0  0
  141.8050   76.8120  217.8070 C   0  0  0  0  0  0  0  0  0  0  0  0
  143.0520   77.1450  218.5580 C   0  0  0  0  0  0  0  0  0  0  0  0
  143.3490   76.1870  219.7050 C   0  0  0  0  0  0  0  0  0  0  0  0
  142.9300   74.8090  219.2340 C   0  0  1  0  0  0  0  0  0  0  0  0
  143.6390   73.6870  219.9170 C   0  0  0  0  0  0  0  0  0  0  0  0
  144.9700   74.1180  220.4970 C   0  0  0  0  0  0  0  0  0  0  0  0
  145.8850   72.9090  220.4740 C   0  0  0  0  0  0  0  0  0  0  0  0
  146.3130   72.7050  219.1610 O   0  0  0  0  0  0  0  0  0  0  0  0
  145.3210   73.0350  218.2410 C   0  0  0  0  0  0  0  0  0  0  0  0
  143.9790   72.6620  218.8390 C   0  0  0  0  0  0  0  0  0  0  0  0
  139.8820   71.8420  223.0730 C   0  0  0  0  0  0  0  0  0  0  0  0
  139.4480   70.5470  222.8760 C   0  0  0  0  0  0  0  0  0  0  0  0
  139.5180   69.5840  223.8690 C   0  0  0  0  0  0  0  0  0  0  0  0
  140.0360   69.9290  225.0950 C   0  0  0  0  0  0  0  0  0  0  0  0
  140.1290   69.0100  226.1180 C   0  0  0  0  0  0  0  0  0  0  0  0
  140.6580   69.4190  227.3180 C   0  0  0  0  0  0  0  0  0  0  0  0
  140.8070   68.3180  228.6570 Cl  0  0  0  0  0  0  0  0  0  0  0  0
  141.0910   70.7260  227.5040 C   0  0  0  0  0  0  0  0  0  0  0  0
  141.0070   71.6640  226.4860 C   0  0  0  0  0  0  0  0  0  0  0  0
  140.4710   71.2340  225.2830 C   0  0  0  0  0  0  0  0  0  0  0  0
  140.3840   72.1380  224.2880 N   0  0  0  0  0  0  0  0  0  0  0  0
  139.4410   71.3360  220.5080 H   0  0  0  0  0  0  0  0  0  0  0  0
  138.7993   72.8912  218.7941 H   0  0  0  0  0  0  0  0  0  0  0  0
  139.0319   74.2530  219.9559 H   0  0  0  0  0  0  0  0  0  0  0  0
  139.6576   75.4852  220.0943 H   0  0  0  0  0  0  0  0  0  0  0  0
  141.0814   76.3413  220.7075 H   0  0  0  0  0  0  0  0  0  0  0  0
  139.6888   76.5464  218.0299 H   0  0  0  0  0  0  0  0  0  0  0  0
  140.4168   77.8429  219.0620 H   0  0  0  0  0  0  0  0  0  0  0  0
  141.9185   75.8056  217.3778 H   0  0  0  0  0  0  0  0  0  0  0  0
  141.6798   77.5895  217.0390 H   0  0  0  0  0  0  0  0  0  0  0  0
  143.8981   77.1190  217.8556 H   0  0  0  0  0  0  0  0  0  0  0  0
  142.9051   78.1413  219.0004 H   0  0  0  0  0  0  0  0  0  0  0  0
  144.4234   76.1977  219.9406 H   0  0  0  0  0  0  0  0  0  0  0  0
  142.8066   76.4778  220.6168 H   0  0  0  0  0  0  0  0  0  0  0  0
  143.2331   74.6560  218.1877 H   0  0  0  0  0  0  0  0  0  0  0  0
  142.9922   73.3107  220.7233 H   0  0  0  0  0  0  0  0  0  0  0  0
  145.4008   74.9276  219.8896 H   0  0  0  0  0  0  0  0  0  0  0  0
  144.8445   74.4917  221.5239 H   0  0  0  0  0  0  0  0  0  0  0  0
  146.7539   73.0883  221.1243 H   0  0  0  0  0  0  0  0  0  0  0  0
  145.3473   72.0212  220.8384 H   0  0  0  0  0  0  0  0  0  0  0  0
  145.3493   74.1150  218.0338 H   0  0  0  0  0  0  0  0  0  0  0  0
  145.4812   72.4923  217.2977 H   0  0  0  0  0  0  0  0  0  0  0  0
  143.2060   72.6735  218.0565 H   0  0  0  0  0  0  0  0  0  0  0  0
  144.0228   71.6524  219.2734 H   0  0  0  0  0  0  0  0  0  0  0  0
  139.0319   70.2699  221.8962 H   0  0  0  0  0  0  0  0  0  0  0  0
  139.1648   68.5596  223.6798 H   0  0  0  0  0  0  0  0  0  0  0  0
  139.7878   67.9738  225.9769 H   0  0  0  0  0  0  0  0  0  0  0  0
  141.5085   71.0225  228.4775 H   0  0  0  0  0  0  0  0  0  0  0  0
  141.3495   72.6998  226.6269 H   0  0  0  0  0  0  0  0  0  0  0  0
  1  2  2  0
  2  3  1  0
  3  4  1  0
  4  5  1  0
  5  6  2  0
  5  7  1  0
  7  8  1  0
  8  9  1  0
  9 10  1  0
 10 11  1  0
 11 12  1  0
 12 13  1  0
 13 14  1  0
 14 15  1  0
 15 16  1  0
 16 17  1  0
 17 18  1  0
 18 19  1  0
  2 20  1  0
 20 21  2  0
 21 22  1  0
 22 23  2  0
 23 24  1  0
 24 25  2  0
 25 26  1  0
 25 27  1  0
 27 28  2  0
 28 29  1  0
 29 30  2  0
 13  7  1  0
 19 14  1  0
 30 20  1  0
 29 23  1  0
  3 31  1  0
  4 32  1  0
  4 33  1  0
  8 34  1  0
  8 35  1  0
  9 36  1  0
  9 37  1  0
 10 38  1  0
 10 39  1  0
 11 40  1  0
 11 41  1  0
 12 42  1  0
 12 43  1  0
 13 44  1  6
 14 45  1  0
 15 46  1  0
 15 47  1  0
 16 48  1  0
 16 49  1  0
 18 50  1  0
 18 51  1  0
 19 52  1  0
 19 53  1  0
 21 54  1  0
 22 55  1  0
 24 56  1  0
 27 57  1  0
 28 58  1  0
M  END
>  <smiles>  (71) 
O=C(NCC(=O)N1CCCCCC1C1CCOCC1)c1ccc2cc(Cl)ccc2n1

>  <score_type>  (71) 
oracle

>  <origin>  (71) 
autodockgpu

>  <m_score__min__energy>  (71) 
-7.0800000000000001

>  <m_primary>  (71) 
energy

>  <rmsd>  (71) 
2.3213167258786322

>  <m_score__min__rmsd>  (71) 
2.3213167258786322

>  <meeko>  (71) 
{"free_energy": -5.55, "intermolecular_energy": -8.83, "internal_energy": -1.73, "cluster_size": 13, "cluster_id": 2, "rank_in_cluster": 11}

>  <energy>  (71) 
-5.74

>  <cluster_rmsd>  (71) 
0.99

>  <cluster>  (71) 
1

$$$$

     RDKit          3D

 58 61  0  0  0  0  0  0  0  0999 V2000
  136.4330   77.1560  222.4250 O   0  0  0  0  0  0  0  0  0  0  0  0
  136.7290   75.9840  222.7300 C   0  0  0  0  0  0  0  0  0  0  0  0
  137.9510   75.3780  222.3130 N   0  0  0  0  0  0  0  0  0  0  0  0
  138.8980   76.1230  221.5070 C   0  0  0  0  0  0  0  0  0  0  0  0
  140.2900   75.5880  221.6950 C   0  0  0  0  0  0  0  0  0  0  0  0
  140.3630   74.4640  222.2580 O   0  0  0  0  0  0  0  0  0  0  0  0
  141.3930   76.3390  221.2500 N   0  0  0  0  0  0  0  0  0  0  0  0
  142.3670   75.6030  220.4450 C   0  0  0  0  0  0  0  0  0  0  0  0
  141.7490   75.4670  219.0670 C   0  0  0  0  0  0  0  0  0  0  0  0
  141.3550   76.8190  218.5040 C   0  0  0  0  0  0  0  0  0  0  0  0
  141.9560   77.9790  219.2280 C   0  0  0  0  0  0  0  0  0  0  0  0
  141.0820   78.5090  220.3590 C   0  0  0  0  0  0  0  0  0  0  0  0
  141.4930   77.7320  221.5940 C   0  0  1  0  0  0  0  0  0  0  0  0
  140.7520   78.1160  222.8320 C   0  0  0  0  0  0  0  0  0  0  0  0
  139.6370   79.1020  222.5520 C   0  0  0  0  0  0  0  0  0  0  0  0
  139.4680   79.9580  223.7920 C   0  0  0  0  0  0  0  0  0  0  0  0
  140.5200   80.8740  223.8430 O   0  0  0  0  0  0  0  0  0  0  0  0
  141.7000   80.3300  223.3430 C   0  0  0  0  0  0  0  0  0  0  0  0
  141.7410   78.8630  223.7210 C   0  0  0  0  0  0  0  0  0  0  0  0
  135.8020   75.1970  223.5410 C   0  0  0  0  0  0  0  0  0  0  0  0
  135.6340   73.8480  223.3040 C   0  0  0  0  0  0  0  0  0  0  0  0
  134.7670   73.0680  224.0510 C   0  0  0  0  0  0  0  0  0  0  0  0
  134.0470   73.6570  225.0630 C   0  0  0  0  0  0  0  0  0  0  0  0
  133.1700   72.9280  225.8370 C   0  0  0  0  0  0  0  0  0  0  0  0
  132.4820   73.5770  226.8340 C   0  0  0  0  0  0  0  0  0  0  0  0
  131.3580   72.7240  227.8520 Cl  0  0  0  0  0  0  0  0  0  0  0  0
  132.6600   74.9350  227.0620 C   0  0  0  0  0  0  0  0  0  0  0  0
  133.5380   75.6850  226.2940 C   0  0  0  0  0  0  0  0  0  0  0  0
  134.2240   75.0140  225.2940 C   0  0  0  0  0  0  0  0  0  0  0  0
  135.0790   75.7350  224.5430 N   0  0  0  0  0  0  0  0  0  0  0  0
  138.1460   74.3890  222.6000 H   0  0  0  0  0  0  0  0  0  0  0  0
  138.6175   76.0359  220.4469 H   0  0  0  0  0  0  0  0  0  0  0  0
  138.8782   77.1771  221.8209 H   0  0  0  0  0  0  0  0  0  0  0  0
  143.3139   76.1598  220.3865 H   0  0  0  0  0  0  0  0  0  0  0  0
  142.5943   74.6206  220.8845 H   0  0  0  0  0  0  0  0  0  0  0  0
  142.4789   74.9966  218.3918 H   0  0  0  0  0  0  0  0  0  0  0  0
  140.8430   74.8490  219.1522 H   0  0  0  0  0  0  0  0  0  0  0  0
  141.6772   76.8630  217.4532 H   0  0  0  0  0  0  0  0  0  0  0  0
  140.2642   76.9045  218.6175 H   0  0  0  0  0  0  0  0  0  0  0  0
  142.9204   77.6629  219.6522 H   0  0  0  0  0  0  0  0  0  0  0  0
  142.0685   78.7934  218.4972 H   0  0  0  0  0  0  0  0  0  0  0  0
  141.2570   79.5849  220.5069 H   0  0  0  0  0  0  0  0  0  0  0  0
  140.0118   78.3834  220.1379 H   0  0  0  0  0  0  0  0  0  0  0  0
  142.5285   77.9779  221.8720 H   0  0  0  0  0  0  0  0  0  0  0  0
  140.3299   77.2031  223.2775 H   0  0  0  0  0  0  0  0  0  0  0  0
  139.9013   79.7343  221.6916 H   0  0  0  0  0  0  0  0  0  0  0  0
  138.7019   78.5740  222.3136 H   0  0  0  0  0  0  0  0  0  0  0  0
  138.5095   80.4956  223.7443 H   0  0  0  0  0  0  0  0  0  0  0  0
  139.4748   79.3249  224.6915 H   0  0  0  0  0  0  0  0  0  0  0  0
  141.7234   80.4335  222.2481 H   0  0  0  0  0  0  0  0  0  0  0  0
  142.5697   80.8558  223.7639 H   0  0  0  0  0  0  0  0  0  0  0  0
  142.7551   78.4663  223.5656 H   0  0  0  0  0  0  0  0  0  0  0  0
  141.4729   78.7350  224.7801 H   0  0  0  0  0  0  0  0  0  0  0  0
  136.2087   73.3758  222.4936 H   0  0  0  0  0  0  0  0  0  0  0  0
  134.6563   71.9945  223.8379 H   0  0  0  0  0  0  0  0  0  0  0  0
  133.0242   71.8520  225.6608 H   0  0  0  0  0  0  0  0  0  0  0  0
  132.0936   75.4255  227.8674 H   0  0  0  0  0  0  0  0  0  0  0  0
  133.6830   76.7611  226.4701 H   0  0  0  0  0  0  0  0  0  0  0  0
  1  2  2  0
  2  3  1  0
  3  4  1  0
  4  5  1  0
  5  6  2  0
  5  7  1  0
  7  8  1  0
  8  9  1  0
  9 10  1  0
 10 11  1  0
 11 12  1  0
 12 13  1  0
 13 14  1  0
 14 15  1  0
 15 16  1  0
 16 17  1  0
 17 18  1  0
 18 19  1  0
  2 20  1  0
 20 21  2  0
 21 22  1  0
 22 23  2  0
 23 24  1  0
 24 25  2  0
 25 26  1  0
 25 27  1  0
 27 28  2  0
 28 29  1  0
 29 30  2  0
 13  7  1  0
 19 14  1  0
 30 20  1  0
 29 23  1  0
  3 31  1  0
  4 32  1  0
  4 33  1  0
  8 34  1  0
  8 35  1  0
  9 36  1  0
  9 37  1  0
 10 38  1  0
 10 39  1  0
 11 40  1  0
 11 41  1  0
 12 42  1  0
 12 43  1  0
 13 44  1  1
 14 45  1  0
 15 46  1  0
 15 47  1  0
 16 48  1  0
 16 49  1  0
 18 50  1  0
 18 51  1  0
 19 52  1  0
 19 53  1  0
 21 54  1  0
 22 55  1  0
 24 56  1  0
 27 57  1  0
 28 58  1  0
M  END
>  <smiles>  (72) 
O=C(NCC(=O)N1CCCCCC1C1CCOCC1)c1ccc2cc(Cl)ccc2n1

>  <score_type>  (72) 
oracle

>  <origin>  (72) 
autodockgpu

>  <m_score__min__energy>  (72) 
-7.0800000000000001

>  <m_primary>  (72) 
energy

>  <rmsd>  (72) 
5.4776899205007

>  <m_score__min__rmsd>  (72) 
5.4776899205007

>  <meeko>  (72) 
{"free_energy": -5.44, "intermolecular_energy": -8.72, "internal_energy": -2.06, "cluster_size": 3, "cluster_id": 3, "rank_in_cluster": 2}

>  <energy>  (72) 
-5.69

>  <cluster_rmsd>  (72) 
1.13

>  <cluster>  (72) 
1

$$$$

     RDKit          3D

 58 61  0  0  0  0  0  0  0  0999 V2000
  139.5220   71.9720  220.5780 O   0  0  0  0  0  0  0  0  0  0  0  0
  139.3090   72.4200  221.7220 C   0  0  0  0  0  0  0  0  0  0  0  0
  138.9070   73.7700  221.9440 N   0  0  0  0  0  0  0  0  0  0  0  0
  138.7330   74.6750  220.8250 C   0  0  0  0  0  0  0  0  0  0  0  0
  139.1780   76.0630  221.1910 C   0  0  0  0  0  0  0  0  0  0  0  0
  138.2570   76.9150  221.2890 O   0  0  0  0  0  0  0  0  0  0  0  0
  140.5450   76.3270  221.3950 N   0  0  0  0  0  0  0  0  0  0  0  0
  140.8750   76.9530  222.6750 C   0  0  0  0  0  0  0  0  0  0  0  0
  141.4200   78.3270  222.3380 C   0  0  0  0  0  0  0  0  0  0  0  0
  140.6940   78.9310  221.1510 C   0  0  0  0  0  0  0  0  0  0  0  0
  141.0290   78.2930  219.8430 C   0  0  0  0  0  0  0  0  0  0  0  0
  142.1570   77.2680  219.9410 C   0  0  0  0  0  0  0  0  0  0  0  0
  141.4990   75.9740  220.3790 C   0  0  1  0  0  0  0  0  0  0  0  0
  142.4610   74.9060  220.7810 C   0  0  0  0  0  0  0  0  0  0  0  0
  143.8250   75.0930  220.1490 C   0  0  0  0  0  0  0  0  0  0  0  0
  144.4350   73.7160  219.9760 C   0  0  0  0  0  0  0  0  0  0  0  0
  143.8130   73.0900  218.8940 O   0  0  0  0  0  0  0  0  0  0  0  0
  142.4680   73.4390  218.8040 C   0  0  0  0  0  0  0  0  0  0  0  0
  141.9250   73.5970  220.2090 C   0  0  0  0  0  0  0  0  0  0  0  0
  139.4720   71.5420  222.8790 C   0  0  0  0  0  0  0  0  0  0  0  0
  138.9840   70.2510  222.8550 C   0  0  0  0  0  0  0  0  0  0  0  0
  139.1190   69.3890  223.9300 C   0  0  0  0  0  0  0  0  0  0  0  0
  139.7610   69.8330  225.0620 C   0  0  0  0  0  0  0  0  0  0  0  0
  139.9230   69.0170  226.1610 C   0  0  0  0  0  0  0  0  0  0  0  0
  140.5740   69.5220  227.2600 C   0  0  0  0  0  0  0  0  0  0  0  0
  140.8170   68.5530  228.6850 Cl  0  0  0  0  0  0  0  0  0  0  0  0
  141.0610   70.8230  227.2720 C   0  0  0  0  0  0  0  0  0  0  0  0
  140.9080   71.6580  226.1760 C   0  0  0  0  0  0  0  0  0  0  0  0
  140.2490   71.1330  225.0760 C   0  0  0  0  0  0  0  0  0  0  0  0
  140.0950   71.9370  224.0060 N   0  0  0  0  0  0  0  0  0  0  0  0
  138.7420   74.0910  222.9290 H   0  0  0  0  0  0  0  0  0  0  0  0
  139.3310   74.3165  219.9742 H   0  0  0  0  0  0  0  0  0  0  0  0
  137.6668   74.7045  220.5562 H   0  0  0  0  0  0  0  0  0  0  0  0
  139.9748   77.0415  223.3009 H   0  0  0  0  0  0  0  0  0  0  0  0
  141.6063   76.3560  223.2396 H   0  0  0  0  0  0  0  0  0  0  0  0
  141.2933   78.9865  223.2092 H   0  0  0  0  0  0  0  0  0  0  0  0
  142.4843   78.2249  222.0793 H   0  0  0  0  0  0  0  0  0  0  0  0
  139.6118   78.8277  221.3187 H   0  0  0  0  0  0  0  0  0  0  0  0
  141.0148   79.9810  221.0834 H   0  0  0  0  0  0  0  0  0  0  0  0
  140.1300   77.7871  219.4611 H   0  0  0  0  0  0  0  0  0  0  0  0
  141.3731   79.0921  219.1699 H   0  0  0  0  0  0  0  0  0  0  0  0
  142.6438   77.1388  218.9631 H   0  0  0  0  0  0  0  0  0  0  0  0
  142.9354   77.5876  220.6494 H   0  0  0  0  0  0  0  0  0  0  0  0
  140.9859   75.5000  219.5293 H   0  0  0  0  0  0  0  0  0  0  0  0
  142.5595   74.9255  221.8764 H   0  0  0  0  0  0  0  0  0  0  0  0
  143.7221   75.5847  219.1704 H   0  0  0  0  0  0  0  0  0  0  0  0
  144.4643   75.7250  220.7829 H   0  0  0  0  0  0  0  0  0  0  0  0
  145.5135   73.8095  219.7810 H   0  0  0  0  0  0  0  0  0  0  0  0
  144.2903   73.1215  220.8902 H   0  0  0  0  0  0  0  0  0  0  0  0
  142.3653   74.3874  218.2563 H   0  0  0  0  0  0  0  0  0  0  0  0
  141.9085   72.6597  218.2658 H   0  0  0  0  0  0  0  0  0  0  0  0
  140.8257   73.6242  220.1828 H   0  0  0  0  0  0  0  0  0  0  0  0
  142.2401   72.7501  220.8363 H   0  0  0  0  0  0  0  0  0  0  0  0
  138.4699   69.8946  221.9502 H   0  0  0  0  0  0  0  0  0  0  0  0
  138.7192   68.3655  223.8793 H   0  0  0  0  0  0  0  0  0  0  0  0
  139.5400   67.9858  226.1580 H   0  0  0  0  0  0  0  0  0  0  0  0
  141.5777   71.1976  228.1679 H   0  0  0  0  0  0  0  0  0  0  0  0
  141.2917   72.6889  226.1794 H   0  0  0  0  0  0  0  0  0  0  0  0
  1  2  2  0
  2  3  1  0
  3  4  1  0
  4  5  1  0
  5  6  2  0
  5  7  1  0
  7  8  1  0
  8  9  1  0
  9 10  1  0
 10 11  1  0
 11 12  1  0
 12 13  1  0
 13 14  1  0
 14 15  1  0
 15 16  1  0
 16 17  1  0
 17 18  1  0
 18 19  1  0
  2 20  1  0
 20 21  2  0
 21 22  1  0
 22 23  2  0
 23 24  1  0
 24 25  2  0
 25 26  1  0
 25 27  1  0
 27 28  2  0
 28 29  1  0
 29 30  2  0
 13  7  1  0
 19 14  1  0
 30 20  1  0
 29 23  1  0
  3 31  1  0
  4 32  1  0
  4 33  1  0
  8 34  1  0
  8 35  1  0
  9 36  1  0
  9 37  1  0
 10 38  1  0
 10 39  1  0
 11 40  1  0
 11 41  1  0
 12 42  1  0
 12 43  1  0
 13 44  1  6
 14 45  1  0
 15 46  1  0
 15 47  1  0
 16 48  1  0
 16 49  1  0
 18 50  1  0
 18 51  1  0
 19 52  1  0
 19 53  1  0
 21 54  1  0
 22 55  1  0
 24 56  1  0
 27 57  1  0
 28 58  1  0
M  END
>  <smiles>  (73) 
O=C(NCC(=O)N1CCCCCC1C1CCOCC1)c1ccc2cc(Cl)ccc2n1

>  <score_type>  (73) 
oracle

>  <origin>  (73) 
autodockgpu

>  <m_score__min__energy>  (73) 
-7.0800000000000001

>  <m_primary>  (73) 
energy

>  <rmsd>  (73) 
2.7247888823406154

>  <m_score__min__rmsd>  (73) 
2.7247888823406154

>  <meeko>  (73) 
{"free_energy": -5.69, "intermolecular_energy": -8.97, "internal_energy": -1.92, "cluster_size": 26, "cluster_id": 1, "rank_in_cluster": 23}

>  <energy>  (73) 
-5.69

>  <cluster_rmsd>  (73) 
1.32

>  <cluster>  (73) 
1

$$$$

     RDKit          3D

 58 61  0  0  0  0  0  0  0  0999 V2000
  141.1730   78.1930  216.9350 O   0  0  0  0  0  0  0  0  0  0  0  0
  142.1790   78.0380  217.6540 C   0  0  0  0  0  0  0  0  0  0  0  0
  142.7430   79.1070  218.4110 N   0  0  0  0  0  0  0  0  0  0  0  0
  142.1480   80.4280  218.3640 C   0  0  0  0  0  0  0  0  0  0  0  0
  141.1620   80.6060  219.4850 C   0  0  0  0  0  0  0  0  0  0  0  0
  139.9750   80.8250  219.1270 O   0  0  0  0  0  0  0  0  0  0  0  0
  141.5990   80.5220  220.8190 N   0  0  0  0  0  0  0  0  0  0  0  0
  141.7950   81.8050  221.4940 C   0  0  0  0  0  0  0  0  0  0  0  0
  140.8860   81.7810  222.7070 C   0  0  0  0  0  0  0  0  0  0  0  0
  141.5960   81.2030  223.9160 C   0  0  0  0  0  0  0  0  0  0  0  0
  141.9470   79.7570  223.7830 C   0  0  0  0  0  0  0  0  0  0  0  0
  142.7960   79.4480  222.5550 C   0  0  0  0  0  0  0  0  0  0  0  0
  141.8130   79.2340  221.4210 C   0  0  1  0  0  0  0  0  0  0  0  0
  140.5620   78.5250  221.8210 C   0  0  0  0  0  0  0  0  0  0  0  0
  140.8430   77.2730  222.6250 C   0  0  0  0  0  0  0  0  0  0  0  0
  139.7190   76.2950  222.3470 C   0  0  0  0  0  0  0  0  0  0  0  0
  139.9130   75.7480  221.0770 O   0  0  0  0  0  0  0  0  0  0  0  0
  140.4670   76.6750  220.1980 C   0  0  0  0  0  0  0  0  0  0  0  0
  139.9020   78.0410  220.5340 C   0  0  0  0  0  0  0  0  0  0  0  0
  142.8110   76.7210  217.7310 C   0  0  0  0  0  0  0  0  0  0  0  0
  143.0340   75.9820  216.5860 C   0  0  0  0  0  0  0  0  0  0  0  0
  143.6300   74.7330  216.6180 C   0  0  0  0  0  0  0  0  0  0  0  0
  144.0110   74.2080  217.8300 C   0  0  0  0  0  0  0  0  0  0  0  0
  144.6080   72.9690  217.9190 C   0  0  0  0  0  0  0  0  0  0  0  0
  144.9660   72.5020  219.1600 C   0  0  0  0  0  0  0  0  0  0  0  0
  145.7240   70.9480  219.3520 Cl  0  0  0  0  0  0  0  0  0  0  0  0
  144.7360   73.2560  220.3040 C   0  0  0  0  0  0  0  0  0  0  0  0
  144.1370   74.5050  220.2350 C   0  0  0  0  0  0  0  0  0  0  0  0
  143.7830   74.9590  218.9740 C   0  0  0  0  0  0  0  0  0  0  0  0
  143.2000   76.1710  218.8970 N   0  0  0  0  0  0  0  0  0  0  0  0
  143.5900   78.9160  218.9980 H   0  0  0  0  0  0  0  0  0  0  0  0
  142.9409   81.1848  218.4567 H   0  0  0  0  0  0  0  0  0  0  0  0
  141.6198   80.5445  217.4061 H   0  0  0  0  0  0  0  0  0  0  0  0
  142.8442   81.9173  221.8046 H   0  0  0  0  0  0  0  0  0  0  0  0
  141.5596   82.6500  220.8303 H   0  0  0  0  0  0  0  0  0  0  0  0
  140.5669   82.8085  222.9361 H   0  0  0  0  0  0  0  0  0  0  0  0
  140.0176   81.1459  222.4777 H   0  0  0  0  0  0  0  0  0  0  0  0
  142.5246   81.7707  224.0756 H   0  0  0  0  0  0  0  0  0  0  0  0
  140.8982   81.2837  224.7625 H   0  0  0  0  0  0  0  0  0  0  0  0
  142.5065   79.4506  224.6792 H   0  0  0  0  0  0  0  0  0  0  0  0
  141.0029   79.2037  223.6713 H   0  0  0  0  0  0  0  0  0  0  0  0
  143.4649   80.2915  222.3289 H   0  0  0  0  0  0  0  0  0  0  0  0
  143.4327   78.5650  222.7129 H   0  0  0  0  0  0  0  0  0  0  0  0
  142.2327   78.5373  220.6805 H   0  0  0  0  0  0  0  0  0  0  0  0
  139.9516   79.2161  222.4209 H   0  0  0  0  0  0  0  0  0  0  0  0
  141.8053   76.8371  222.3183 H   0  0  0  0  0  0  0  0  0  0  0  0
  140.8996   77.5051  223.6987 H   0  0  0  0  0  0  0  0  0  0  0  0
  139.7283   75.4945  223.1014 H   0  0  0  0  0  0  0  0  0  0  0  0
  138.7492   76.8123  222.3910 H   0  0  0  0  0  0  0  0  0  0  0  0
  141.5612   76.6866  220.3097 H   0  0  0  0  0  0  0  0  0  0  0  0
  140.2230   76.4074  219.1593 H   0  0  0  0  0  0  0  0  0  0  0  0
  140.1183   78.7449  219.7168 H   0  0  0  0  0  0  0  0  0  0  0  0
  138.8116   77.9799  220.6653 H   0  0  0  0  0  0  0  0  0  0  0  0
  142.7277   76.3999  215.6157 H   0  0  0  0  0  0  0  0  0  0  0  0
  143.7962   74.1694  215.6881 H   0  0  0  0  0  0  0  0  0  0  0  0
  144.7935   72.3678  217.0167 H   0  0  0  0  0  0  0  0  0  0  0  0
  145.0348   72.8546  221.2836 H   0  0  0  0  0  0  0  0  0  0  0  0
  143.9518   75.1063  221.1373 H   0  0  0  0  0  0  0  0  0  0  0  0
  1  2  2  0
  2  3  1  0
  3  4  1  0
  4  5  1  0
  5  6  2  0
  5  7  1  0
  7  8  1  0
  8  9  1  0
  9 10  1  0
 10 11  1  0
 11 12  1  0
 12 13  1  0
 13 14  1  0
 14 15  1  0
 15 16  1  0
 16 17  1  0
 17 18  1  0
 18 19  1  0
  2 20  1  0
 20 21  2  0
 21 22  1  0
 22 23  2  0
 23 24  1  0
 24 25  2  0
 25 26  1  0
 25 27  1  0
 27 28  2  0
 28 29  1  0
 29 30  2  0
 13  7  1  0
 19 14  1  0
 30 20  1  0
 29 23  1  0
  3 31  1  0
  4 32  1  0
  4 33  1  0
  8 34  1  0
  8 35  1  0
  9 36  1  0
  9 37  1  0
 10 38  1  0
 10 39  1  0
 11 40  1  0
 11 41  1  0
 12 42  1  0
 12 43  1  0
 13 44  1  6
 14 45  1  0
 15 46  1  0
 15 47  1  0
 16 48  1  0
 16 49  1  0
 18 50  1  0
 18 51  1  0
 19 52  1  0
 19 53  1  0
 21 54  1  0
 22 55  1  0
 24 56  1  0
 27 57  1  0
 28 58  1  0
M  END
>  <smiles>  (74) 
O=C(NCC(=O)N1CCCCCC1C1CCOCC1)c1ccc2cc(Cl)ccc2n1

>  <score_type>  (74) 
oracle

>  <origin>  (74) 
autodockgpu

>  <m_score__min__energy>  (74) 
-7.0800000000000001

>  <m_primary>  (74) 
energy

>  <rmsd>  (74) 
8.430403913723762

>  <m_score__min__rmsd>  (74) 
8.430403913723762

>  <meeko>  (74) 
{"free_energy": -4.47, "intermolecular_energy": -7.75, "internal_energy": -2.25, "cluster_size": 2, "cluster_id": 8, "rank_in_cluster": 1}

>  <energy>  (74) 
-5.68

>  <cluster_rmsd>  (74) 
1.38

>  <cluster>  (74) 
1

$$$$

     RDKit          3D

 58 61  0  0  0  0  0  0  0  0999 V2000
  138.8090   71.2080  220.9450 O   0  0  0  0  0  0  0  0  0  0  0  0
  139.2670   71.7170  221.9870 C   0  0  0  0  0  0  0  0  0  0  0  0
  139.5870   73.1040  222.0750 N   0  0  0  0  0  0  0  0  0  0  0  0
  139.3840   73.9750  220.9340 C   0  0  0  0  0  0  0  0  0  0  0  0
  140.4710   75.0100  220.8560 C   0  0  0  0  0  0  0  0  0  0  0  0
  140.8670   75.4590  221.9630 O   0  0  0  0  0  0  0  0  0  0  0  0
  140.9690   75.4060  219.6010 N   0  0  0  0  0  0  0  0  0  0  0  0
  140.0570   76.2180  218.7960 C   0  0  0  0  0  0  0  0  0  0  0  0
  140.0770   77.6030  219.4130 C   0  0  0  0  0  0  0  0  0  0  0  0
  141.4670   78.2060  219.3680 C   0  0  0  0  0  0  0  0  0  0  0  0
  142.5360   77.3160  219.9120 C   0  0  0  0  0  0  0  0  0  0  0  0
  143.0500   76.2920  218.9030 C   0  0  0  0  0  0  0  0  0  0  0  0
  142.2940   75.0130  219.2020 C   0  0  1  0  0  0  0  0  0  0  0  0
  142.9840   74.1060  220.1660 C   0  0  0  0  0  0  0  0  0  0  0  0
  144.3950   74.5630  220.4760 C   0  0  0  0  0  0  0  0  0  0  0  0
  145.2120   73.3250  220.7890 C   0  0  0  0  0  0  0  0  0  0  0  0
  145.4890   72.6630  219.5920 O   0  0  0  0  0  0  0  0  0  0  0  0
  144.4360   72.7780  218.6870 C   0  0  0  0  0  0  0  0  0  0  0  0
  143.1380   72.7580  219.4680 C   0  0  0  0  0  0  0  0  0  0  0  0
  139.4880   70.8760  223.1610 C   0  0  0  0  0  0  0  0  0  0  0  0
  139.0810   69.5560  223.1660 C   0  0  0  0  0  0  0  0  0  0  0  0
  139.2720   68.7280  224.2580 C   0  0  0  0  0  0  0  0  0  0  0  0
  139.8870   69.2350  225.3780 C   0  0  0  0  0  0  0  0  0  0  0  0
  140.1030   68.4530  226.4940 C   0  0  0  0  0  0  0  0  0  0  0  0
  140.7230   69.0210  227.5800 C   0  0  0  0  0  0  0  0  0  0  0  0
  141.0290   68.0990  229.0230 Cl  0  0  0  0  0  0  0  0  0  0  0  0
  141.1270   70.3490  227.5630 C   0  0  0  0  0  0  0  0  0  0  0  0
  140.9200   71.1500  226.4500 C   0  0  0  0  0  0  0  0  0  0  0  0
  140.2930   70.5620  225.3640 C   0  0  0  0  0  0  0  0  0  0  0  0
  140.0870   71.3330  224.2780 N   0  0  0  0  0  0  0  0  0  0  0  0
  139.9690   73.4770  222.9770 H   0  0  0  0  0  0  0  0  0  0  0  0
  139.3923   73.3725  220.0137 H   0  0  0  0  0  0  0  0  0  0  0  0
  138.4164   74.4860  221.0468 H   0  0  0  0  0  0  0  0  0  0  0  0
  140.4018   76.2593  217.7523 H   0  0  0  0  0  0  0  0  0  0  0  0
  139.0416   75.7951  218.7870 H   0  0  0  0  0  0  0  0  0  0  0  0
  139.3861   78.2532  218.8563 H   0  0  0  0  0  0  0  0  0  0  0  0
  139.7691   77.5186  220.4656 H   0  0  0  0  0  0  0  0  0  0  0  0
  141.7097   78.4367  218.3202 H   0  0  0  0  0  0  0  0  0  0  0  0
  141.4449   79.1017  220.0062 H   0  0  0  0  0  0  0  0  0  0  0  0
  143.3810   77.9431  220.2325 H   0  0  0  0  0  0  0  0  0  0  0  0
  142.0933   76.7527  220.7467 H   0  0  0  0  0  0  0  0  0  0  0  0
  142.8452   76.6283  217.8759 H   0  0  0  0  0  0  0  0  0  0  0  0
  144.1379   76.1509  218.9834 H   0  0  0  0  0  0  0  0  0  0  0  0
  142.2445   74.3817  218.3025 H   0  0  0  0  0  0  0  0  0  0  0  0
  142.3951   74.0794  221.0947 H   0  0  0  0  0  0  0  0  0  0  0  0
  144.8210   75.0851  219.6066 H   0  0  0  0  0  0  0  0  0  0  0  0
  144.4004   75.2586  221.3282 H   0  0  0  0  0  0  0  0  0  0  0  0
  146.1531   73.6155  221.2787 H   0  0  0  0  0  0  0  0  0  0  0  0
  144.6499   72.6632  221.4644 H   0  0  0  0  0  0  0  0  0  0  0  0
  144.5228   73.7241  218.1327 H   0  0  0  0  0  0  0  0  0  0  0  0
  144.4600   71.9462  217.9676 H   0  0  0  0  0  0  0  0  0  0  0  0
  142.2931   72.5942  218.7829 H   0  0  0  0  0  0  0  0  0  0  0  0
  143.1513   71.9447  220.2085 H   0  0  0  0  0  0  0  0  0  0  0  0
  138.5880   69.1490  222.2709 H   0  0  0  0  0  0  0  0  0  0  0  0
  138.9370   67.6806  224.2303 H   0  0  0  0  0  0  0  0  0  0  0  0
  139.7862   67.3998  226.5135 H   0  0  0  0  0  0  0  0  0  0  0  0
  141.6207   70.7741  228.4493 H   0  0  0  0  0  0  0  0  0  0  0  0
  141.2387   72.2026  226.4306 H   0  0  0  0  0  0  0  0  0  0  0  0
  1  2  2  0
  2  3  1  0
  3  4  1  0
  4  5  1  0
  5  6  2  0
  5  7  1  0
  7  8  1  0
  8  9  1  0
  9 10  1  0
 10 11  1  0
 11 12  1  0
 12 13  1  0
 13 14  1  0
 14 15  1  0
 15 16  1  0
 16 17  1  0
 17 18  1  0
 18 19  1  0
  2 20  1  0
 20 21  2  0
 21 22  1  0
 22 23  2  0
 23 24  1  0
 24 25  2  0
 25 26  1  0
 25 27  1  0
 27 28  2  0
 28 29  1  0
 29 30  2  0
 13  7  1  0
 19 14  1  0
 30 20  1  0
 29 23  1  0
  3 31  1  0
  4 32  1  0
  4 33  1  0
  8 34  1  0
  8 35  1  0
  9 36  1  0
  9 37  1  0
 10 38  1  0
 10 39  1  0
 11 40  1  0
 11 41  1  0
 12 42  1  0
 12 43  1  0
 13 44  1  6
 14 45  1  0
 15 46  1  0
 15 47  1  0
 16 48  1  0
 16 49  1  0
 18 50  1  0
 18 51  1  0
 19 52  1  0
 19 53  1  0
 21 54  1  0
 22 55  1  0
 24 56  1  0
 27 57  1  0
 28 58  1  0
M  END
>  <smiles>  (75) 
O=C(NCC(=O)N1CCCCCC1C1CCOCC1)c1ccc2cc(Cl)ccc2n1

>  <score_type>  (75) 
oracle

>  <origin>  (75) 
autodockgpu

>  <m_score__min__energy>  (75) 
-7.0800000000000001

>  <m_primary>  (75) 
energy

>  <rmsd>  (75) 
1.6943096038639487

>  <m_score__min__rmsd>  (75) 
1.6943096038639487

>  <meeko>  (75) 
{"free_energy": -5.67, "intermolecular_energy": -8.95, "internal_energy": -2.25, "cluster_size": 13, "cluster_id": 2, "rank_in_cluster": 10}

>  <energy>  (75) 
-5.58

>  <cluster_rmsd>  (75) 
1.84

>  <cluster>  (75) 
1

$$$$

     RDKit          3D

 58 61  0  0  0  0  0  0  0  0999 V2000
  140.7610   72.5920  220.7330 O   0  0  0  0  0  0  0  0  0  0  0  0
  140.3200   72.9720  221.8350 C   0  0  0  0  0  0  0  0  0  0  0  0
  139.9260   74.3220  222.0700 N   0  0  0  0  0  0  0  0  0  0  0  0
  140.0300   75.3080  221.0110 C   0  0  0  0  0  0  0  0  0  0  0  0
  140.7330   76.5420  221.5030 C   0  0  0  0  0  0  0  0  0  0  0  0
  140.4840   76.8640  222.6940 O   0  0  0  0  0  0  0  0  0  0  0  0
  141.5970   77.2430  220.6420 N   0  0  0  0  0  0  0  0  0  0  0  0
  142.2880   76.4230  219.6470 C   0  0  0  0  0  0  0  0  0  0  0  0
  141.5320   76.6220  218.3470 C   0  0  0  0  0  0  0  0  0  0  0  0
  142.0480   77.8300  217.5900 C   0  0  0  0  0  0  0  0  0  0  0  0
  142.3130   79.0210  218.4510 C   0  0  0  0  0  0  0  0  0  0  0  0
  141.2280   79.2760  219.4890 C   0  0  0  0  0  0  0  0  0  0  0  0
  141.7400   78.6670  220.7790 C   0  0  1  0  0  0  0  0  0  0  0  0
  141.1170   79.2330  222.0120 C   0  0  0  0  0  0  0  0  0  0  0  0
  140.8030   80.7080  221.8720 C   0  0  0  0  0  0  0  0  0  0  0  0
  140.9040   81.3250  223.2530 C   0  0  0  0  0  0  0  0  0  0  0  0
  142.2540   81.4520  223.5830 O   0  0  0  0  0  0  0  0  0  0  0  0
  143.0100   80.4030  223.0650 C   0  0  0  0  0  0  0  0  0  0  0  0
  142.1670   79.1450  223.1150 C   0  0  0  0  0  0  0  0  0  0  0  0
  140.1980   72.0110  222.9300 C   0  0  0  0  0  0  0  0  0  0  0  0
  139.5860   70.7900  222.7280 C   0  0  0  0  0  0  0  0  0  0  0  0
  139.4520   69.8530  223.7390 C   0  0  0  0  0  0  0  0  0  0  0  0
  139.9440   70.1490  224.9890 C   0  0  0  0  0  0  0  0  0  0  0  0
  139.8370   69.2530  226.0310 C   0  0  0  0  0  0  0  0  0  0  0  0
  140.3500   69.6090  227.2550 C   0  0  0  0  0  0  0  0  0  0  0  0
  140.2520   68.5320  228.6180 Cl  0  0  0  0  0  0  0  0  0  0  0  0
  140.9630   70.8400  227.4450 C   0  0  0  0  0  0  0  0  0  0  0  0
  141.0800   71.7540  226.4090 C   0  0  0  0  0  0  0  0  0  0  0  0
  140.5570   71.3780  225.1820 C   0  0  0  0  0  0  0  0  0  0  0  0
  140.6660   72.2600  224.1690 N   0  0  0  0  0  0  0  0  0  0  0  0
  139.5620   74.5840  223.0170 H   0  0  0  0  0  0  0  0  0  0  0  0
  140.5977   74.8789  220.1722 H   0  0  0  0  0  0  0  0  0  0  0  0
  139.0169   75.5843  220.6835 H   0  0  0  0  0  0  0  0  0  0  0  0
  143.3316   76.7530  219.5372 H   0  0  0  0  0  0  0  0  0  0  0  0
  142.3115   75.3637  219.9425 H   0  0  0  0  0  0  0  0  0  0  0  0
  141.6551   75.7266  217.7200 H   0  0  0  0  0  0  0  0  0  0  0  0
  140.4707   76.7877  218.5840 H   0  0  0  0  0  0  0  0  0  0  0  0
  142.9867   77.5493  217.0900 H   0  0  0  0  0  0  0  0  0  0  0  0
  141.2593   78.1205  216.8803 H   0  0  0  0  0  0  0  0  0  0  0  0
  143.2670   78.8653  218.9761 H   0  0  0  0  0  0  0  0  0  0  0  0
  142.3387   79.8988  217.7886 H   0  0  0  0  0  0  0  0  0  0  0  0
  141.0638   80.3565  219.6141 H   0  0  0  0  0  0  0  0  0  0  0  0
  140.2666   78.8353  219.1866 H   0  0  0  0  0  0  0  0  0  0  0  0
  142.7985   78.9265  220.9283 H   0  0  0  0  0  0  0  0  0  0  0  0
  140.1889   78.6781  222.2137 H   0  0  0  0  0  0  0  0  0  0  0  0
  141.5264   81.1839  221.1936 H   0  0  0  0  0  0  0  0  0  0  0  0
  139.7959   80.8532  221.4540 H   0  0  0  0  0  0  0  0  0  0  0  0
  140.4272   82.3163  223.2524 H   0  0  0  0  0  0  0  0  0  0  0  0
  140.3942   80.6865  223.9895 H   0  0  0  0  0  0  0  0  0  0  0  0
  143.2894   80.6234  222.0241 H   0  0  0  0  0  0  0  0  0  0  0  0
  143.9294   80.2690  223.6539 H   0  0  0  0  0  0  0  0  0  0  0  0
  142.8040   78.2628  222.9537 H   0  0  0  0  0  0  0  0  0  0  0  0
  141.6806   79.0514  224.0972 H   0  0  0  0  0  0  0  0  0  0  0  0
  139.1910   70.5531  221.7291 H   0  0  0  0  0  0  0  0  0  0  0  0
  138.9603   68.8882  223.5456 H   0  0  0  0  0  0  0  0  0  0  0  0
  139.3524   68.2762  225.8861 H   0  0  0  0  0  0  0  0  0  0  0  0
  141.3638   71.0953  228.4371 H   0  0  0  0  0  0  0  0  0  0  0  0
  141.5647   72.7307  226.5541 H   0  0  0  0  0  0  0  0  0  0  0  0
  1  2  2  0
  2  3  1  0
  3  4  1  0
  4  5  1  0
  5  6  2  0
  5  7  1  0
  7  8  1  0
  8  9  1  0
  9 10  1  0
 10 11  1  0
 11 12  1  0
 12 13  1  0
 13 14  1  0
 14 15  1  0
 15 16  1  0
 16 17  1  0
 17 18  1  0
 18 19  1  0
  2 20  1  0
 20 21  2  0
 21 22  1  0
 22 23  2  0
 23 24  1  0
 24 25  2  0
 25 26  1  0
 25 27  1  0
 27 28  2  0
 28 29  1  0
 29 30  2  0
 13  7  1  0
 19 14  1  0
 30 20  1  0
 29 23  1  0
  3 31  1  0
  4 32  1  0
  4 33  1  0
  8 34  1  0
  8 35  1  0
  9 36  1  0
  9 37  1  0
 10 38  1  0
 10 39  1  0
 11 40  1  0
 11 41  1  0
 12 42  1  0
 12 43  1  0
 13 44  1  1
 14 45  1  0
 15 46  1  0
 15 47  1  0
 16 48  1  0
 16 49  1  0
 18 50  1  0
 18 51  1  0
 19 52  1  0
 19 53  1  0
 21 54  1  0
 22 55  1  0
 24 56  1  0
 27 57  1  0
 28 58  1  0
M  END
>  <smiles>  (76) 
O=C(NCC(=O)N1CCCCCC1C1CCOCC1)c1ccc2cc(Cl)ccc2n1

>  <score_type>  (76) 
oracle

>  <origin>  (76) 
autodockgpu

>  <m_score__min__energy>  (76) 
-7.0800000000000001

>  <m_primary>  (76) 
energy

>  <rmsd>  (76) 
2.236050780542735

>  <m_score__min__rmsd>  (76) 
2.236050780542735

>  <meeko>  (76) 
{"free_energy": -6.82, "intermolecular_energy": -10.1, "internal_energy": -1.44, "cluster_size": 26, "cluster_id": 1, "rank_in_cluster": 4}

>  <energy>  (76) 
-5.51

>  <cluster_rmsd>  (76) 
1.77

>  <cluster>  (76) 
1

$$$$

     RDKit          3D

 58 61  0  0  0  0  0  0  0  0999 V2000
  133.3920   70.1410  226.7210 O   0  0  0  0  0  0  0  0  0  0  0  0
  133.7800   71.2210  226.2340 C   0  0  0  0  0  0  0  0  0  0  0  0
  134.8280   71.2840  225.2690 N   0  0  0  0  0  0  0  0  0  0  0  0
  135.4820   70.0700  224.8200 C   0  0  0  0  0  0  0  0  0  0  0  0
  136.6690   70.3950  223.9580 C   0  0  0  0  0  0  0  0  0  0  0  0
  136.7720   71.6030  223.6170 O   0  0  0  0  0  0  0  0  0  0  0  0
  137.5660   69.3750  223.5910 N   0  0  0  0  0  0  0  0  0  0  0  0
  137.0660   68.4350  222.5880 C   0  0  0  0  0  0  0  0  0  0  0  0
  137.9860   68.5750  221.3910 C   0  0  0  0  0  0  0  0  0  0  0  0
  139.4390   68.6520  221.8200 C   0  0  0  0  0  0  0  0  0  0  0  0
  139.9110   70.0350  222.1270 C   0  0  0  0  0  0  0  0  0  0  0  0
  139.6750   70.4490  223.5750 C   0  0  0  0  0  0  0  0  0  0  0  0
  138.8710   69.3210  224.1930 C   0  0  1  0  0  0  0  0  0  0  0  0
  138.8610   69.3230  225.6850 C   0  0  0  0  0  0  0  0  0  0  0  0
  139.9810   70.1620  226.2660 C   0  0  0  0  0  0  0  0  0  0  0  0
  140.3580   69.5510  227.6010 C   0  0  0  0  0  0  0  0  0  0  0  0
  141.0970   68.3910  227.3640 O   0  0  0  0  0  0  0  0  0  0  0  0
  140.6580   67.7270  226.2210 C   0  0  0  0  0  0  0  0  0  0  0  0
  139.1550   67.8930  226.1280 C   0  0  0  0  0  0  0  0  0  0  0  0
  133.1480   72.4690  226.6590 C   0  0  0  0  0  0  0  0  0  0  0  0
  131.9080   72.4570  227.2640 C   0  0  0  0  0  0  0  0  0  0  0  0
  131.2770   73.6170  227.6800 C   0  0  0  0  0  0  0  0  0  0  0  0
  131.9070   74.8240  227.4840 C   0  0  0  0  0  0  0  0  0  0  0  0
  131.3240   76.0090  227.8790 C   0  0  0  0  0  0  0  0  0  0  0  0
  132.0060   77.1800  227.6550 C   0  0  0  0  0  0  0  0  0  0  0  0
  131.3350   78.7150  228.1250 Cl  0  0  0  0  0  0  0  0  0  0  0  0
  133.2540   77.1780  227.0450 C   0  0  0  0  0  0  0  0  0  0  0  0
  133.8560   75.9960  226.6410 C   0  0  0  0  0  0  0  0  0  0  0  0
  133.1540   74.8250  226.8750 C   0  0  0  0  0  0  0  0  0  0  0  0
  133.7310   73.6710  226.4860 N   0  0  0  0  0  0  0  0  0  0  0  0
  135.1120   72.2210  224.8950 H   0  0  0  0  0  0  0  0  0  0  0  0
  135.8180   69.4955  225.6958 H   0  0  0  0  0  0  0  0  0  0  0  0
  134.7661   69.4800  224.2289 H   0  0  0  0  0  0  0  0  0  0  0  0
  137.0988   67.4068  222.9775 H   0  0  0  0  0  0  0  0  0  0  0  0
  136.0206   68.6484  222.3206 H   0  0  0  0  0  0  0  0  0  0  0  0
  137.8523   67.7042  220.7323 H   0  0  0  0  0  0  0  0  0  0  0  0
  137.7298   69.5051  220.8625 H   0  0  0  0  0  0  0  0  0  0  0  0
  139.5661   68.0353  222.7220 H   0  0  0  0  0  0  0  0  0  0  0  0
  140.0399   68.2925  220.9717 H   0  0  0  0  0  0  0  0  0  0  0  0
  140.9901   70.0887  221.9207 H   0  0  0  0  0  0  0  0  0  0  0  0
  139.3313   70.7233  221.4944 H   0  0  0  0  0  0  0  0  0  0  0  0
  140.6333   70.5711  224.1010 H   0  0  0  0  0  0  0  0  0  0  0  0
  139.1470   71.4116  223.6434 H   0  0  0  0  0  0  0  0  0  0  0  0
  139.3463   68.3526  223.9777 H   0  0  0  0  0  0  0  0  0  0  0  0
  137.8921   69.7204  226.0217 H   0  0  0  0  0  0  0  0  0  0  0  0
  140.8483   70.1521  225.5894 H   0  0  0  0  0  0  0  0  0  0  0  0
  139.6589   71.2060  226.3933 H   0  0  0  0  0  0  0  0  0  0  0  0
  140.9635   70.2653  228.1783 H   0  0  0  0  0  0  0  0  0  0  0  0
  139.4510   69.3096  228.1747 H   0  0  0  0  0  0  0  0  0  0  0  0
  141.1368   68.1609  225.3308 H   0  0  0  0  0  0  0  0  0  0  0  0
  140.9209   66.6603  226.2755 H   0  0  0  0  0  0  0  0  0  0  0  0
  138.7466   67.1838  225.3930 H   0  0  0  0  0  0  0  0  0  0  0  0
  138.6891   67.6938  227.1044 H   0  0  0  0  0  0  0  0  0  0  0  0
  131.4033   71.4924  227.4213 H   0  0  0  0  0  0  0  0  0  0  0  0
  130.2879   73.5741  228.1594 H   0  0  0  0  0  0  0  0  0  0  0  0
  130.3359   76.0166  228.3622 H   0  0  0  0  0  0  0  0  0  0  0  0
  133.7748   78.1326  226.8792 H   0  0  0  0  0  0  0  0  0  0  0  0
  134.8441   75.9886  226.1577 H   0  0  0  0  0  0  0  0  0  0  0  0
  1  2  2  0
  2  3  1  0
  3  4  1  0
  4  5  1  0
  5  6  2  0
  5  7  1  0
  7  8  1  0
  8  9  1  0
  9 10  1  0
 10 11  1  0
 11 12  1  0
 12 13  1  0
 13 14  1  0
 14 15  1  0
 15 16  1  0
 16 17  1  0
 17 18  1  0
 18 19  1  0
  2 20  1  0
 20 21  2  0
 21 22  1  0
 22 23  2  0
 23 24  1  0
 24 25  2  0
 25 26  1  0
 25 27  1  0
 27 28  2  0
 28 29  1  0
 29 30  2  0
 13  7  1  0
 19 14  1  0
 30 20  1  0
 29 23  1  0
  3 31  1  0
  4 32  1  0
  4 33  1  0
  8 34  1  0
  8 35  1  0
  9 36  1  0
  9 37  1  0
 10 38  1  0
 10 39  1  0
 11 40  1  0
 11 41  1  0
 12 42  1  0
 12 43  1  0
 13 44  1  1
 14 45  1  0
 15 46  1  0
 15 47  1  0
 16 48  1  0
 16 49  1  0
 18 50  1  0
 18 51  1  0
 19 52  1  0
 19 53  1  0
 21 54  1  0
 22 55  1  0
 24 56  1  0
 27 57  1  0
 28 58  1  0
M  END
>  <smiles>  (77) 
O=C(NCC(=O)N1CCCCCC1C1CCOCC1)c1ccc2cc(Cl)ccc2n1

>  <score_type>  (77) 
oracle

>  <origin>  (77) 
autodockgpu

>  <m_score__min__energy>  (77) 
-7.0800000000000001

>  <m_primary>  (77) 
energy

>  <rmsd>  (77) 
8.576880769913775

>  <m_score__min__rmsd>  (77) 
8.576880769913775

>  <meeko>  (77) 
{"free_energy": -4.75, "intermolecular_energy": -8.04, "internal_energy": -2.37, "cluster_size": 3, "cluster_id": 6, "rank_in_cluster": 1}

>  <energy>  (77) 
-6.78

>  <cluster_rmsd>  (77) 
0.0

>  <cluster>  (77) 
2

$$$$

     RDKit          3D

 58 61  0  0  0  0  0  0  0  0999 V2000
  140.0360   72.1810  220.6860 O   0  0  0  0  0  0  0  0  0  0  0  0
  139.6820   72.5620  221.8190 C   0  0  0  0  0  0  0  0  0  0  0  0
  139.2170   73.8880  222.0620 N   0  0  0  0  0  0  0  0  0  0  0  0
  139.1420   74.8470  220.9770 C   0  0  0  0  0  0  0  0  0  0  0  0
  140.1250   75.9640  221.1890 C   0  0  0  0  0  0  0  0  0  0  0  0
  141.2480   75.6150  221.6370 O   0  0  0  0  0  0  0  0  0  0  0  0
  139.7540   77.2870  220.8880 N   0  0  0  0  0  0  0  0  0  0  0  0
  139.3730   77.5280  219.4960 C   0  0  0  0  0  0  0  0  0  0  0  0
  137.8590   77.4650  219.4620 C   0  0  0  0  0  0  0  0  0  0  0  0
  137.2540   78.0710  220.7140 C   0  0  0  0  0  0  0  0  0  0  0  0
  137.5430   77.3030  221.9620 C   0  0  0  0  0  0  0  0  0  0  0  0
  138.6050   77.9540  222.8460 C   0  0  0  0  0  0  0  0  0  0  0  0
  139.7620   78.2840  221.9240 C   0  0  1  0  0  0  0  0  0  0  0  0
  141.0730   78.4380  222.6200 C   0  0  0  0  0  0  0  0  0  0  0  0
  141.0110   79.4510  223.7450 C   0  0  0  0  0  0  0  0  0  0  0  0
  142.3880   80.0730  223.8700 C   0  0  0  0  0  0  0  0  0  0  0  0
  142.5630   80.9730  222.8180 O   0  0  0  0  0  0  0  0  0  0  0  0
  141.9340   80.5340  221.6560 C   0  0  0  0  0  0  0  0  0  0  0  0
  142.0450   79.0240  221.6000 C   0  0  0  0  0  0  0  0  0  0  0  0
  139.7400   71.6280  222.9420 C   0  0  0  0  0  0  0  0  0  0  0  0
  139.2900   70.3300  222.8000 C   0  0  0  0  0  0  0  0  0  0  0  0
  139.3300   69.4160  223.8380 C   0  0  0  0  0  0  0  0  0  0  0  0
  139.8330   69.8120  225.0550 C   0  0  0  0  0  0  0  0  0  0  0  0
  139.8960   68.9430  226.1230 C   0  0  0  0  0  0  0  0  0  0  0  0
  140.4110   69.4020  227.3110 C   0  0  0  0  0  0  0  0  0  0  0  0
  140.5220   68.3640  228.7030 Cl  0  0  0  0  0  0  0  0  0  0  0  0
  140.8600   70.7090  227.4410 C   0  0  0  0  0  0  0  0  0  0  0  0
  140.8060   71.5980  226.3780 C   0  0  0  0  0  0  0  0  0  0  0  0
  140.2840   71.1180  225.1870 C   0  0  0  0  0  0  0  0  0  0  0  0
  140.2270   71.9750  224.1490 N   0  0  0  0  0  0  0  0  0  0  0  0
  138.9330   74.1510  223.0360 H   0  0  0  0  0  0  0  0  0  0  0  0
  139.3714   74.3387  220.0288 H   0  0  0  0  0  0  0  0  0  0  0  0
  138.1267   75.2693  220.9466 H   0  0  0  0  0  0  0  0  0  0  0  0
  139.7220   78.5189  219.1700 H   0  0  0  0  0  0  0  0  0  0  0  0
  139.8231   76.7859  218.8202 H   0  0  0  0  0  0  0  0  0  0  0  0
  137.4969   78.0202  218.5842 H   0  0  0  0  0  0  0  0  0  0  0  0
  137.5566   76.4088  219.4064 H   0  0  0  0  0  0  0  0  0  0  0  0
  137.6541   79.0886  220.8337 H   0  0  0  0  0  0  0  0  0  0  0  0
  136.1625   78.0580  220.5782 H   0  0  0  0  0  0  0  0  0  0  0  0
  136.6121   77.2176  222.5417 H   0  0  0  0  0  0  0  0  0  0  0  0
  137.9347   76.3221  221.6548 H   0  0  0  0  0  0  0  0  0  0  0  0
  138.2097   78.8706  223.3082 H   0  0  0  0  0  0  0  0  0  0  0  0
  138.9158   77.2875  223.6640 H   0  0  0  0  0  0  0  0  0  0  0  0
  139.6263   79.2838  221.4858 H   0  0  0  0  0  0  0  0  0  0  0  0
  141.3646   77.4578  223.0251 H   0  0  0  0  0  0  0  0  0  0  0  0
  140.2674   80.2272  223.5117 H   0  0  0  0  0  0  0  0  0  0  0  0
  140.7157   78.9674  224.6878 H   0  0  0  0  0  0  0  0  0  0  0  0
  142.4700   80.6036  224.8301 H   0  0  0  0  0  0  0  0  0  0  0  0
  143.1605   79.2909  223.8302 H   0  0  0  0  0  0  0  0  0  0  0  0
  140.8745   80.8293  221.6716 H   0  0  0  0  0  0  0  0  0  0  0  0
  142.4109   80.9834  220.7725 H   0  0  0  0  0  0  0  0  0  0  0  0
  141.7863   78.6685  220.5917 H   0  0  0  0  0  0  0  0  0  0  0  0
  143.0736   78.7091  221.8299 H   0  0  0  0  0  0  0  0  0  0  0  0
  138.8857   70.0117  221.8278 H   0  0  0  0  0  0  0  0  0  0  0  0
  138.9651   68.3886  223.6920 H   0  0  0  0  0  0  0  0  0  0  0  0
  139.5421   67.9060  226.0263 H   0  0  0  0  0  0  0  0  0  0  0  0
  141.2665   71.0461  228.4059 H   0  0  0  0  0  0  0  0  0  0  0  0
  141.1605   72.6347  226.4754 H   0  0  0  0  0  0  0  0  0  0  0  0
  1  2  2  0
  2  3  1  0
  3  4  1  0
  4  5  1  0
  5  6  2  0
  5  7  1  0
  7  8  1  0
  8  9  1  0
  9 10  1  0
 10 11  1  0
 11 12  1  0
 12 13  1  0
 13 14  1  0
 14 15  1  0
 15 16  1  0
 16 17  1  0
 17 18  1  0
 18 19  1  0
  2 20  1  0
 20 21  2  0
 21 22  1  0
 22 23  2  0
 23 24  1  0
 24 25  2  0
 25 26  1  0
 25 27  1  0
 27 28  2  0
 28 29  1  0
 29 30  2  0
 13  7  1  0
 19 14  1  0
 30 20  1  0
 29 23  1  0
  3 31  1  0
  4 32  1  0
  4 33  1  0
  8 34  1  0
  8 35  1  0
  9 36  1  0
  9 37  1  0
 10 38  1  0
 10 39  1  0
 11 40  1  0
 11 41  1  0
 12 42  1  0
 12 43  1  0
 13 44  1  6
 14 45  1  0
 15 46  1  0
 15 47  1  0
 16 48  1  0
 16 49  1  0
 18 50  1  0
 18 51  1  0
 19 52  1  0
 19 53  1  0
 21 54  1  0
 22 55  1  0
 24 56  1  0
 27 57  1  0
 28 58  1  0
M  END
>  <smiles>  (78) 
O=C(NCC(=O)N1CCCCCC1C1CCOCC1)c1ccc2cc(Cl)ccc2n1

>  <score_type>  (78) 
oracle

>  <origin>  (78) 
autodockgpu

>  <m_score__min__energy>  (78) 
-7.0800000000000001

>  <m_primary>  (78) 
energy

>  <rmsd>  (78) 
2.621905535459826

>  <m_score__min__rmsd>  (78) 
2.621905535459826

>  <meeko>  (78) 
{"free_energy": -6.11, "intermolecular_energy": -9.39, "internal_energy": -1.48, "cluster_size": 26, "cluster_id": 1, "rank_in_cluster": 15}

>  <energy>  (78) 
-6.45

>  <cluster_rmsd>  (78) 
1.16

>  <cluster>  (78) 
2

$$$$

     RDKit          3D

 58 61  0  0  0  0  0  0  0  0999 V2000
  139.1530   71.5730  220.9390 O   0  0  0  0  0  0  0  0  0  0  0  0
  139.4250   72.0900  222.0400 C   0  0  0  0  0  0  0  0  0  0  0  0
  139.5690   73.5000  222.2000 N   0  0  0  0  0  0  0  0  0  0  0  0
  139.3980   74.3860  221.0650 C   0  0  0  0  0  0  0  0  0  0  0  0
  140.6080   75.2600  220.8880 C   0  0  0  0  0  0  0  0  0  0  0  0
  141.0470   75.7890  221.9420 O   0  0  0  0  0  0  0  0  0  0  0  0
  141.1620   75.4350  219.6070 N   0  0  0  0  0  0  0  0  0  0  0  0
  140.3790   76.2710  218.6970 C   0  0  0  0  0  0  0  0  0  0  0  0
  140.6580   77.7050  219.1050 C   0  0  0  0  0  0  0  0  0  0  0  0
  142.0950   78.0910  218.8100 C   0  0  0  0  0  0  0  0  0  0  0  0
  143.1060   77.1380  219.3570 C   0  0  0  0  0  0  0  0  0  0  0  0
  143.2310   75.8550  218.5380 C   0  0  0  0  0  0  0  0  0  0  0  0
  142.4180   74.8140  219.2820 C   0  0  1  0  0  0  0  0  0  0  0  0
  143.1230   74.2040  220.4460 C   0  0  0  0  0  0  0  0  0  0  0  0
  144.5970   74.5530  220.4720 C   0  0  0  0  0  0  0  0  0  0  0  0
  145.3230   73.3980  221.1350 C   0  0  0  0  0  0  0  0  0  0  0  0
  145.3980   72.3430  220.2250 O   0  0  0  0  0  0  0  0  0  0  0  0
  144.2650   72.2800  219.4170 C   0  0  0  0  0  0  0  0  0  0  0  0
  143.0680   72.6920  220.2500 C   0  0  0  0  0  0  0  0  0  0  0  0
  139.6050   71.2350  223.2110 C   0  0  0  0  0  0  0  0  0  0  0  0
  139.1960   69.9160  223.1870 C   0  0  0  0  0  0  0  0  0  0  0  0
  139.3490   69.0740  224.2750 C   0  0  0  0  0  0  0  0  0  0  0  0
  139.9290   69.5670  225.4210 C   0  0  0  0  0  0  0  0  0  0  0  0
  140.1060   68.7720  226.5330 C   0  0  0  0  0  0  0  0  0  0  0  0
  140.6920   69.3250  227.6460 C   0  0  0  0  0  0  0  0  0  0  0  0
  140.9490   68.3860  229.0880 Cl  0  0  0  0  0  0  0  0  0  0  0  0
  141.1000   70.6530  227.6570 C   0  0  0  0  0  0  0  0  0  0  0  0
  140.9310   71.4670  226.5480 C   0  0  0  0  0  0  0  0  0  0  0  0
  140.3380   70.8930  225.4350 C   0  0  0  0  0  0  0  0  0  0  0  0
  140.1690   71.6770  224.3520 N   0  0  0  0  0  0  0  0  0  0  0  0
  139.7980   73.8780  223.1500 H   0  0  0  0  0  0  0  0  0  0  0  0
  139.2507   73.7844  220.1559 H   0  0  0  0  0  0  0  0  0  0  0  0
  138.5217   75.0263  221.2443 H   0  0  0  0  0  0  0  0  0  0  0  0
  140.6927   76.1014  217.6564 H   0  0  0  0  0  0  0  0  0  0  0  0
  139.3060   76.0362  218.7557 H   0  0  0  0  0  0  0  0  0  0  0  0
  139.9855   78.3737  218.5477 H   0  0  0  0  0  0  0  0  0  0  0  0
  140.4883   77.7977  220.1879 H   0  0  0  0  0  0  0  0  0  0  0  0
  142.2223   78.1411  217.7185 H   0  0  0  0  0  0  0  0  0  0  0  0
  142.2715   79.0585  219.3027 H   0  0  0  0  0  0  0  0  0  0  0  0
  144.0852   77.6389  219.3731 H   0  0  0  0  0  0  0  0  0  0  0  0
  142.7713   76.8503  220.3646 H   0  0  0  0  0  0  0  0  0  0  0  0
  142.8278   76.0052  217.5256 H   0  0  0  0  0  0  0  0  0  0  0  0
  144.2806   75.5460  218.4243 H   0  0  0  0  0  0  0  0  0  0  0  0
  142.2497   73.9347  218.6428 H   0  0  0  0  0  0  0  0  0  0  0  0
  142.6436   74.5672  221.3670 H   0  0  0  0  0  0  0  0  0  0  0  0
  144.9689   74.6921  219.4462 H   0  0  0  0  0  0  0  0  0  0  0  0
  144.7658   75.4882  221.0260 H   0  0  0  0  0  0  0  0  0  0  0  0
  146.3369   73.7129  221.4228 H   0  0  0  0  0  0  0  0  0  0  0  0
  144.7810   73.0799  222.0378 H   0  0  0  0  0  0  0  0  0  0  0  0
  144.3779   72.9640  218.5629 H   0  0  0  0  0  0  0  0  0  0  0  0
  144.1279   71.2585  219.0326 H   0  0  0  0  0  0  0  0  0  0  0  0
  142.1391   72.4174  219.7288 H   0  0  0  0  0  0  0  0  0  0  0  0
  143.0882   72.1811  221.2239 H   0  0  0  0  0  0  0  0  0  0  0  0
  138.7324   69.5207  222.2711 H   0  0  0  0  0  0  0  0  0  0  0  0
  139.0124   68.0280  224.2241 H   0  0  0  0  0  0  0  0  0  0  0  0
  139.7857   67.7197  226.5295 H   0  0  0  0  0  0  0  0  0  0  0  0
  141.5662   71.0665  228.5635 H   0  0  0  0  0  0  0  0  0  0  0  0
  141.2524   72.5190  226.5513 H   0  0  0  0  0  0  0  0  0  0  0  0
  1  2  2  0
  2  3  1  0
  3  4  1  0
  4  5  1  0
  5  6  2  0
  5  7  1  0
  7  8  1  0
  8  9  1  0
  9 10  1  0
 10 11  1  0
 11 12  1  0
 12 13  1  0
 13 14  1  0
 14 15  1  0
 15 16  1  0
 16 17  1  0
 17 18  1  0
 18 19  1  0
  2 20  1  0
 20 21  2  0
 21 22  1  0
 22 23  2  0
 23 24  1  0
 24 25  2  0
 25 26  1  0
 25 27  1  0
 27 28  2  0
 28 29  1  0
 29 30  2  0
 13  7  1  0
 19 14  1  0
 30 20  1  0
 29 23  1  0
  3 31  1  0
  4 32  1  0
  4 33  1  0
  8 34  1  0
  8 35  1  0
  9 36  1  0
  9 37  1  0
 10 38  1  0
 10 39  1  0
 11 40  1  0
 11 41  1  0
 12 42  1  0
 12 43  1  0
 13 44  1  6
 14 45  1  0
 15 46  1  0
 15 47  1  0
 16 48  1  0
 16 49  1  0
 18 50  1  0
 18 51  1  0
 19 52  1  0
 19 53  1  0
 21 54  1  0
 22 55  1  0
 24 56  1  0
 27 57  1  0
 28 58  1  0
M  END
>  <smiles>  (79) 
O=C(NCC(=O)N1CCCCCC1C1CCOCC1)c1ccc2cc(Cl)ccc2n1

>  <score_type>  (79) 
oracle

>  <origin>  (79) 
autodockgpu

>  <m_score__min__energy>  (79) 
-7.0800000000000001

>  <m_primary>  (79) 
energy

>  <rmsd>  (79) 
1.781636629684476

>  <m_score__min__rmsd>  (79) 
1.781636629684476

>  <meeko>  (79) 
{"free_energy": -5.52, "intermolecular_energy": -8.81, "internal_energy": -2.18, "cluster_size": 13, "cluster_id": 2, "rank_in_cluster": 12}

>  <energy>  (79) 
-6.35

>  <cluster_rmsd>  (79) 
0.52

>  <cluster>  (79) 
2

$$$$

     RDKit          3D

 58 61  0  0  0  0  0  0  0  0999 V2000
  133.2390   70.0840  226.8400 O   0  0  0  0  0  0  0  0  0  0  0  0
  133.6980   71.1450  226.3730 C   0  0  0  0  0  0  0  0  0  0  0  0
  134.7650   71.1580  225.4280 N   0  0  0  0  0  0  0  0  0  0  0  0
  135.3560   69.9140  224.9750 C   0  0  0  0  0  0  0  0  0  0  0  0
  136.5150   70.1800  224.0560 C   0  0  0  0  0  0  0  0  0  0  0  0
  136.6890   71.3880  223.7470 O   0  0  0  0  0  0  0  0  0  0  0  0
  137.3110   69.1110  223.6070 N   0  0  0  0  0  0  0  0  0  0  0  0
  136.6800   68.2320  222.6230 C   0  0  0  0  0  0  0  0  0  0  0  0
  136.8730   68.9070  221.2790 C   0  0  0  0  0  0  0  0  0  0  0  0
  138.3190   68.8340  220.8290 C   0  0  0  0  0  0  0  0  0  0  0  0
  139.2530   68.2950  221.8630 C   0  0  0  0  0  0  0  0  0  0  0  0
  139.5840   69.2880  222.9740 C   0  0  0  0  0  0  0  0  0  0  0  0
  138.6470   68.9520  224.1170 C   0  0  1  0  0  0  0  0  0  0  0  0
  138.9200   69.7090  225.3740 C   0  0  0  0  0  0  0  0  0  0  0  0
  140.1130   70.6340  225.2400 C   0  0  0  0  0  0  0  0  0  0  0  0
  140.7480   70.7530  226.6120 C   0  0  0  0  0  0  0  0  0  0  0  0
  141.4530   69.5780  226.8760 O   0  0  0  0  0  0  0  0  0  0  0  0
  140.8180   68.4650  226.3300 C   0  0  0  0  0  0  0  0  0  0  0  0
  139.3220   68.6800  226.4270 C   0  0  0  0  0  0  0  0  0  0  0  0
  133.1320   72.4220  226.8020 C   0  0  0  0  0  0  0  0  0  0  0  0
  131.9170   72.4670  227.4570 C   0  0  0  0  0  0  0  0  0  0  0  0
  131.3480   73.6570  227.8790 C   0  0  0  0  0  0  0  0  0  0  0  0
  132.0140   74.8350  227.6370 C   0  0  0  0  0  0  0  0  0  0  0  0
  131.4930   76.0480  228.0360 C   0  0  0  0  0  0  0  0  0  0  0  0
  132.2090   77.1880  227.7640 C   0  0  0  0  0  0  0  0  0  0  0  0
  131.6160   78.7550  228.2350 Cl  0  0  0  0  0  0  0  0  0  0  0  0
  133.4290   77.1300  227.1040 C   0  0  0  0  0  0  0  0  0  0  0  0
  133.9700   75.9200  226.6960 C   0  0  0  0  0  0  0  0  0  0  0  0
  133.2340   74.7790  226.9790 C   0  0  0  0  0  0  0  0  0  0  0  0
  133.7510   73.5990  226.5860 N   0  0  0  0  0  0  0  0  0  0  0  0
  135.1100   72.0810  225.0700 H   0  0  0  0  0  0  0  0  0  0  0  0
  135.7098   69.3439  225.8467 H   0  0  0  0  0  0  0  0  0  0  0  0
  134.5946   69.3398  224.4268 H   0  0  0  0  0  0  0  0  0  0  0  0
  137.1627   67.2436  222.6276 H   0  0  0  0  0  0  0  0  0  0  0  0
  135.6146   68.0744  222.8466 H   0  0  0  0  0  0  0  0  0  0  0  0
  136.2395   68.4062  220.5321 H   0  0  0  0  0  0  0  0  0  0  0  0
  136.5933   69.9661  221.3789 H   0  0  0  0  0  0  0  0  0  0  0  0
  138.3727   68.1845  219.9428 H   0  0  0  0  0  0  0  0  0  0  0  0
  138.6386   69.8655  220.6196 H   0  0  0  0  0  0  0  0  0  0  0  0
  138.7905   67.4069  222.3185 H   0  0  0  0  0  0  0  0  0  0  0  0
  140.1979   68.0624  221.3501 H   0  0  0  0  0  0  0  0  0  0  0  0
  140.6313   69.1743  223.2905 H   0  0  0  0  0  0  0  0  0  0  0  0
  139.4592   70.3283  222.6391 H   0  0  0  0  0  0  0  0  0  0  0  0
  138.8045   67.9143  224.4463 H   0  0  0  0  0  0  0  0  0  0  0  0
  138.0249   70.2981  225.6223 H   0  0  0  0  0  0  0  0  0  0  0  0
  140.8364   70.2142  224.5256 H   0  0  0  0  0  0  0  0  0  0  0  0
  139.8005   71.6212  224.8687 H   0  0  0  0  0  0  0  0  0  0  0  0
  141.4364   71.6108  226.6293 H   0  0  0  0  0  0  0  0  0  0  0  0
  139.9710   70.9064  227.3754 H   0  0  0  0  0  0  0  0  0  0  0  0
  141.1102   68.3492  225.2758 H   0  0  0  0  0  0  0  0  0  0  0  0
  141.1078   67.5555  226.8766 H   0  0  0  0  0  0  0  0  0  0  0  0
  138.7965   67.7317  226.2410 H   0  0  0  0  0  0  0  0  0  0  0  0
  139.0536   69.0389  227.4316 H   0  0  0  0  0  0  0  0  0  0  0  0
  131.3827   71.5251  227.6502 H   0  0  0  0  0  0  0  0  0  0  0  0
  130.3789   73.6595  228.3994 H   0  0  0  0  0  0  0  0  0  0  0  0
  130.5271   76.1012  228.5596 H   0  0  0  0  0  0  0  0  0  0  0  0
  133.9771   78.0618  226.9008 H   0  0  0  0  0  0  0  0  0  0  0  0
  134.9363   75.8677  226.1731 H   0  0  0  0  0  0  0  0  0  0  0  0
  1  2  2  0
  2  3  1  0
  3  4  1  0
  4  5  1  0
  5  6  2  0
  5  7  1  0
  7  8  1  0
  8  9  1  0
  9 10  1  0
 10 11  1  0
 11 12  1  0
 12 13  1  0
 13 14  1  0
 14 15  1  0
 15 16  1  0
 16 17  1  0
 17 18  1  0
 18 19  1  0
  2 20  1  0
 20 21  2  0
 21 22  1  0
 22 23  2  0
 23 24  1  0
 24 25  2  0
 25 26  1  0
 25 27  1  0
 27 28  2  0
 28 29  1  0
 29 30  2  0
 13  7  1  0
 19 14  1  0
 30 20  1  0
 29 23  1  0
  3 31  1  0
  4 32  1  0
  4 33  1  0
  8 34  1  0
  8 35  1  0
  9 36  1  0
  9 37  1  0
 10 38  1  0
 10 39  1  0
 11 40  1  0
 11 41  1  0
 12 42  1  0
 12 43  1  0
 13 44  1  1
 14 45  1  0
 15 46  1  0
 15 47  1  0
 16 48  1  0
 16 49  1  0
 18 50  1  0
 18 51  1  0
 19 52  1  0
 19 53  1  0
 21 54  1  0
 22 55  1  0
 24 56  1  0
 27 57  1  0
 28 58  1  0
M  END
>  <smiles>  (80) 
O=C(NCC(=O)N1CCCCCC1C1CCOCC1)c1ccc2cc(Cl)ccc2n1

>  <score_type>  (80) 
oracle

>  <origin>  (80) 
autodockgpu

>  <m_score__min__energy>  (80) 
-7.0800000000000001

>  <m_primary>  (80) 
energy

>  <rmsd>  (80) 
8.673986933302473

>  <m_score__min__rmsd>  (80) 
8.673986933302473

>  <meeko>  (80) 
{"free_energy": -4.73, "intermolecular_energy": -8.01, "internal_energy": -2.34, "cluster_size": 3, "cluster_id": 6, "rank_in_cluster": 2}

>  <energy>  (80) 
-6.25

>  <cluster_rmsd>  (80) 
0.51

>  <cluster>  (80) 
2

$$$$

     RDKit          3D

 58 61  0  0  0  0  0  0  0  0999 V2000
  142.0110   78.4800  216.9620 O   0  0  0  0  0  0  0  0  0  0  0  0
  142.4750   77.9850  218.0090 C   0  0  0  0  0  0  0  0  0  0  0  0
  142.5590   78.7250  219.2250 N   0  0  0  0  0  0  0  0  0  0  0  0
  142.0990   80.0990  219.2770 C   0  0  0  0  0  0  0  0  0  0  0  0
  140.7430   80.1800  219.9210 C   0  0  0  0  0  0  0  0  0  0  0  0
  139.7920   80.4470  219.1400 O   0  0  0  0  0  0  0  0  0  0  0  0
  140.6130   79.9630  221.3050 N   0  0  0  0  0  0  0  0  0  0  0  0
  140.2700   81.1460  222.0930 C   0  0  0  0  0  0  0  0  0  0  0  0
  141.5700   81.6290  222.7060 C   0  0  0  0  0  0  0  0  0  0  0  0
  142.5720   80.4980  222.8340 C   0  0  0  0  0  0  0  0  0  0  0  0
  142.1330   79.3940  223.7390 C   0  0  0  0  0  0  0  0  0  0  0  0
  140.7860   78.7860  223.3500 C   0  0  0  0  0  0  0  0  0  0  0  0
  140.8100   78.6430  221.8410 C   0  0  1  0  0  0  0  0  0  0  0  0
  139.8670   77.6150  221.3100 C   0  0  0  0  0  0  0  0  0  0  0  0
  139.1780   76.8410  222.4150 C   0  0  0  0  0  0  0  0  0  0  0  0
  138.8840   75.4540  221.8800 C   0  0  0  0  0  0  0  0  0  0  0  0
  140.0750   74.7260  221.8590 O   0  0  0  0  0  0  0  0  0  0  0  0
  141.1660   75.5380  221.5570 C   0  0  0  0  0  0  0  0  0  0  0  0
  140.7130   76.5880  220.5630 C   0  0  0  0  0  0  0  0  0  0  0  0
  142.9500   76.6020  218.0000 C   0  0  0  0  0  0  0  0  0  0  0  0
  142.7620   75.8020  216.8910 C   0  0  0  0  0  0  0  0  0  0  0  0
  143.1980   74.4890  216.8450 C   0  0  0  0  0  0  0  0  0  0  0  0
  143.8390   73.9620  217.9410 C   0  0  0  0  0  0  0  0  0  0  0  0
  144.2940   72.6600  217.9480 C   0  0  0  0  0  0  0  0  0  0  0  0
  144.9280   72.1950  219.0740 C   0  0  0  0  0  0  0  0  0  0  0  0
  145.5280   70.5640  219.1590 Cl  0  0  0  0  0  0  0  0  0  0  0  0
  145.1100   73.0100  220.1840 C   0  0  0  0  0  0  0  0  0  0  0  0
  144.6610   74.3220  220.1950 C   0  0  0  0  0  0  0  0  0  0  0  0
  144.0240   74.7750  219.0500 C   0  0  0  0  0  0  0  0  0  0  0  0
  143.5830   76.0480  219.0520 N   0  0  0  0  0  0  0  0  0  0  0  0
  142.9580   78.2560  220.0730 H   0  0  0  0  0  0  0  0  0  0  0  0
  142.8131   80.6972  219.8619 H   0  0  0  0  0  0  0  0  0  0  0  0
  142.0274   80.4876  218.2504 H   0  0  0  0  0  0  0  0  0  0  0  0
  139.8395   81.9247  221.4463 H   0  0  0  0  0  0  0  0  0  0  0  0
  139.5216   80.9137  222.8649 H   0  0  0  0  0  0  0  0  0  0  0  0
  141.9972   82.4156  222.0667 H   0  0  0  0  0  0  0  0  0  0  0  0
  141.3559   82.0189  223.7120 H   0  0  0  0  0  0  0  0  0  0  0  0
  142.7461   80.0758  221.8333 H   0  0  0  0  0  0  0  0  0  0  0  0
  143.4818   80.9289  223.2774 H   0  0  0  0  0  0  0  0  0  0  0  0
  142.8937   78.5998  223.7138 H   0  0  0  0  0  0  0  0  0  0  0  0
  142.0147   79.8267  224.7434 H   0  0  0  0  0  0  0  0  0  0  0  0
  140.6599   77.8018  223.8249 H   0  0  0  0  0  0  0  0  0  0  0  0
  139.9489   79.4184  223.6807 H   0  0  0  0  0  0  0  0  0  0  0  0
  141.7801   78.2431  221.5109 H   0  0  0  0  0  0  0  0  0  0  0  0
  139.1119   78.1264  220.6950 H   0  0  0  0  0  0  0  0  0  0  0  0
  139.8361   76.7735  223.2938 H   0  0  0  0  0  0  0  0  0  0  0  0
  138.2492   77.3444  222.7215 H   0  0  0  0  0  0  0  0  0  0  0  0
  138.1537   74.9520  222.5316 H   0  0  0  0  0  0  0  0  0  0  0  0
  138.4659   75.5223  220.8649 H   0  0  0  0  0  0  0  0  0  0  0  0
  141.5324   76.0253  222.4726 H   0  0  0  0  0  0  0  0  0  0  0  0
  141.9812   74.9360  221.1292 H   0  0  0  0  0  0  0  0  0  0  0  0
  141.5890   77.0808  220.1161 H   0  0  0  0  0  0  0  0  0  0  0  0
  140.1245   76.1223  219.7587 H   0  0  0  0  0  0  0  0  0  0  0  0
  142.2482   76.2222  216.0138 H   0  0  0  0  0  0  0  0  0  0  0  0
  143.0342   73.8770  215.9457 H   0  0  0  0  0  0  0  0  0  0  0  0
  144.1524   72.0094  217.0724 H   0  0  0  0  0  0  0  0  0  0  0  0
  145.6201   72.6070  221.0713 H   0  0  0  0  0  0  0  0  0  0  0  0
  144.8035   74.9724  221.0706 H   0  0  0  0  0  0  0  0  0  0  0  0
  1  2  2  0
  2  3  1  0
  3  4  1  0
  4  5  1  0
  5  6  2  0
  5  7  1  0
  7  8  1  0
  8  9  1  0
  9 10  1  0
 10 11  1  0
 11 12  1  0
 12 13  1  0
 13 14  1  0
 14 15  1  0
 15 16  1  0
 16 17  1  0
 17 18  1  0
 18 19  1  0
  2 20  1  0
 20 21  2  0
 21 22  1  0
 22 23  2  0
 23 24  1  0
 24 25  2  0
 25 26  1  0
 25 27  1  0
 27 28  2  0
 28 29  1  0
 29 30  2  0
 13  7  1  0
 19 14  1  0
 30 20  1  0
 29 23  1  0
  3 31  1  0
  4 32  1  0
  4 33  1  0
  8 34  1  0
  8 35  1  0
  9 36  1  0
  9 37  1  0
 10 38  1  0
 10 39  1  0
 11 40  1  0
 11 41  1  0
 12 42  1  0
 12 43  1  0
 13 44  1  1
 14 45  1  0
 15 46  1  0
 15 47  1  0
 16 48  1  0
 16 49  1  0
 18 50  1  0
 18 51  1  0
 19 52  1  0
 19 53  1  0
 21 54  1  0
 22 55  1  0
 24 56  1  0
 27 57  1  0
 28 58  1  0
M  END
>  <smiles>  (81) 
O=C(NCC(=O)N1CCCCCC1C1CCOCC1)c1ccc2cc(Cl)ccc2n1

>  <score_type>  (81) 
oracle

>  <origin>  (81) 
autodockgpu

>  <m_score__min__energy>  (81) 
-7.0800000000000001

>  <m_primary>  (81) 
energy

>  <rmsd>  (81) 
8.127937123906355

>  <m_score__min__rmsd>  (81) 
8.127937123906355

>  <meeko>  (81) 
{"free_energy": -4.25, "intermolecular_energy": -7.53, "internal_energy": -2.63, "cluster_size": 2, "cluster_id": 8, "rank_in_cluster": 2}

>  <energy>  (81) 
-6.18

>  <cluster_rmsd>  (81) 
0.5

>  <cluster>  (81) 
2

$$$$

     RDKit          3D

 58 61  0  0  0  0  0  0  0  0999 V2000
  139.8410   72.2900  220.6760 O   0  0  0  0  0  0  0  0  0  0  0  0
  139.6120   72.6970  221.8310 C   0  0  0  0  0  0  0  0  0  0  0  0
  139.2530   74.0510  222.1010 N   0  0  0  0  0  0  0  0  0  0  0  0
  139.1430   75.0080  221.0170 C   0  0  0  0  0  0  0  0  0  0  0  0
  139.6790   76.3480  221.4370 C   0  0  0  0  0  0  0  0  0  0  0  0
  138.8530   77.1000  222.0160 O   0  0  0  0  0  0  0  0  0  0  0  0
  141.0210   76.6780  221.1700 N   0  0  0  0  0  0  0  0  0  0  0  0
  141.8430   75.5820  220.6570 C   0  0  0  0  0  0  0  0  0  0  0  0
  141.4890   75.4490  219.1890 C   0  0  0  0  0  0  0  0  0  0  0  0
  141.0170   76.7700  218.6140 C   0  0  0  0  0  0  0  0  0  0  0  0
  141.8580   77.9410  219.0070 C   0  0  0  0  0  0  0  0  0  0  0  0
  141.2390   78.7860  220.1180 C   0  0  0  0  0  0  0  0  0  0  0  0
  141.4850   78.0190  221.4020 C   0  0  1  0  0  0  0  0  0  0  0  0
  140.9150   78.6670  222.6200 C   0  0  0  0  0  0  0  0  0  0  0  0
  140.2040   79.9650  222.3000 C   0  0  0  0  0  0  0  0  0  0  0  0
  140.3320   80.8620  223.5160 C   0  0  0  0  0  0  0  0  0  0  0  0
  141.6330   81.3670  223.5580 O   0  0  0  0  0  0  0  0  0  0  0  0
  142.5590   80.4390  223.0870 C   0  0  0  0  0  0  0  0  0  0  0  0
  142.0960   79.0580  223.5030 C   0  0  0  0  0  0  0  0  0  0  0  0
  139.7100   71.7660  222.9540 C   0  0  0  0  0  0  0  0  0  0  0  0
  139.3010   70.4550  222.8160 C   0  0  0  0  0  0  0  0  0  0  0  0
  139.3790   69.5430  223.8550 C   0  0  0  0  0  0  0  0  0  0  0  0
  139.8800   69.9560  225.0670 C   0  0  0  0  0  0  0  0  0  0  0  0
  139.9790   69.0900  226.1340 C   0  0  0  0  0  0  0  0  0  0  0  0
  140.4900   69.5660  227.3180 C   0  0  0  0  0  0  0  0  0  0  0  0
  140.6460   68.5330  228.7090 Cl  0  0  0  0  0  0  0  0  0  0  0  0
  140.8980   70.8870  227.4430 C   0  0  0  0  0  0  0  0  0  0  0  0
  140.8060   71.7730  226.3810 C   0  0  0  0  0  0  0  0  0  0  0  0
  140.2890   71.2760  225.1950 C   0  0  0  0  0  0  0  0  0  0  0  0
  140.1960   72.1300  224.1570 N   0  0  0  0  0  0  0  0  0  0  0  0
  139.0710   74.3360  223.0930 H   0  0  0  0  0  0  0  0  0  0  0  0
  139.7182   74.6433  220.1532 H   0  0  0  0  0  0  0  0  0  0  0  0
  138.0820   75.1190  220.7486 H   0  0  0  0  0  0  0  0  0  0  0  0
  142.9111   75.8180  220.7732 H   0  0  0  0  0  0  0  0  0  0  0  0
  141.6555   74.6463  221.2040 H   0  0  0  0  0  0  0  0  0  0  0  0
  142.3784   75.1144  218.6349 H   0  0  0  0  0  0  0  0  0  0  0  0
  140.6729   74.7176  219.0937 H   0  0  0  0  0  0  0  0  0  0  0  0
  141.0246   76.6918  217.5168 H   0  0  0  0  0  0  0  0  0  0  0  0
  140.0107   76.9514  219.0196 H   0  0  0  0  0  0  0  0  0  0  0  0
  142.8334   77.5691  219.3540 H   0  0  0  0  0  0  0  0  0  0  0  0
  141.9506   78.5865  218.1211 H   0  0  0  0  0  0  0  0  0  0  0  0
  141.7214   79.7736  220.1627 H   0  0  0  0  0  0  0  0  0  0  0  0
  140.1661   78.9583  219.9472 H   0  0  0  0  0  0  0  0  0  0  0  0
  142.5588   78.0097  221.6405 H   0  0  0  0  0  0  0  0  0  0  0  0
  140.2059   77.9651  223.0833 H   0  0  0  0  0  0  0  0  0  0  0  0
  140.6714   80.4449  221.4275 H   0  0  0  0  0  0  0  0  0  0  0  0
  139.1460   79.7807  222.0622 H   0  0  0  0  0  0  0  0  0  0  0  0
  139.6138   81.6920  223.4423 H   0  0  0  0  0  0  0  0  0  0  0  0
  140.1198   80.2896  224.4311 H   0  0  0  0  0  0  0  0  0  0  0  0
  142.6199   80.4970  221.9902 H   0  0  0  0  0  0  0  0  0  0  0  0
  143.5546   80.6488  223.5052 H   0  0  0  0  0  0  0  0  0  0  0  0
  142.9148   78.3352  223.3718 H   0  0  0  0  0  0  0  0  0  0  0  0
  141.7959   79.0599  224.5613 H   0  0  0  0  0  0  0  0  0  0  0  0
  138.8992   70.1232  221.8472 H   0  0  0  0  0  0  0  0  0  0  0  0
  139.0454   68.5045  223.7130 H   0  0  0  0  0  0  0  0  0  0  0  0
  139.6567   68.0424  226.0406 H   0  0  0  0  0  0  0  0  0  0  0  0
  141.3024   71.2376  228.4040 H   0  0  0  0  0  0  0  0  0  0  0  0
  141.1280   72.8206  226.4750 H   0  0  0  0  0  0  0  0  0  0  0  0
  1  2  2  0
  2  3  1  0
  3  4  1  0
  4  5  1  0
  5  6  2  0
  5  7  1  0
  7  8  1  0
  8  9  1  0
  9 10  1  0
 10 11  1  0
 11 12  1  0
 12 13  1  0
 13 14  1  0
 14 15  1  0
 15 16  1  0
 16 17  1  0
 17 18  1  0
 18 19  1  0
  2 20  1  0
 20 21  2  0
 21 22  1  0
 22 23  2  0
 23 24  1  0
 24 25  2  0
 25 26  1  0
 25 27  1  0
 27 28  2  0
 28 29  1  0
 29 30  2  0
 13  7  1  0
 19 14  1  0
 30 20  1  0
 29 23  1  0
  3 31  1  0
  4 32  1  0
  4 33  1  0
  8 34  1  0
  8 35  1  0
  9 36  1  0
  9 37  1  0
 10 38  1  0
 10 39  1  0
 11 40  1  0
 11 41  1  0
 12 42  1  0
 12 43  1  0
 13 44  1  1
 14 45  1  0
 15 46  1  0
 15 47  1  0
 16 48  1  0
 16 49  1  0
 18 50  1  0
 18 51  1  0
 19 52  1  0
 19 53  1  0
 21 54  1  0
 22 55  1  0
 24 56  1  0
 27 57  1  0
 28 58  1  0
M  END
>  <smiles>  (82) 
O=C(NCC(=O)N1CCCCCC1C1CCOCC1)c1ccc2cc(Cl)ccc2n1

>  <score_type>  (82) 
oracle

>  <origin>  (82) 
autodockgpu

>  <m_score__min__energy>  (82) 
-7.0800000000000001

>  <m_primary>  (82) 
energy

>  <rmsd>  (82) 
2.0562051744016427

>  <m_score__min__rmsd>  (82) 
2.0562051744016427

>  <meeko>  (82) 
{"free_energy": -6.7, "intermolecular_energy": -9.99, "internal_energy": -1.48, "cluster_size": 26, "cluster_id": 1, "rank_in_cluster": 6}

>  <energy>  (82) 
-6.01

>  <cluster_rmsd>  (82) 
1.17

>  <cluster>  (82) 
2

$$$$

     RDKit          3D

 58 61  0  0  0  0  0  0  0  0999 V2000
  139.9240   72.2060  220.6370 O   0  0  0  0  0  0  0  0  0  0  0  0
  139.8110   72.6400  221.8010 C   0  0  0  0  0  0  0  0  0  0  0  0
  139.6210   74.0260  222.0780 N   0  0  0  0  0  0  0  0  0  0  0  0
  139.5550   74.9860  220.9930 C   0  0  0  0  0  0  0  0  0  0  0  0
  140.9160   75.1980  220.3900 C   0  0  0  0  0  0  0  0  0  0  0  0
  141.6340   76.0530  220.9690 O   0  0  0  0  0  0  0  0  0  0  0  0
  141.2980   74.4590  219.2550 N   0  0  0  0  0  0  0  0  0  0  0  0
  140.2180   74.1480  218.3190 C   0  0  0  0  0  0  0  0  0  0  0  0
  140.6830   74.6490  216.9660 C   0  0  0  0  0  0  0  0  0  0  0  0
  141.9210   73.9090  216.4990 C   0  0  0  0  0  0  0  0  0  0  0  0
  143.2010   74.6250  216.7800 C   0  0  0  0  0  0  0  0  0  0  0  0
  143.3110   75.1400  218.2130 C   0  0  0  0  0  0  0  0  0  0  0  0
  142.6740   74.0750  219.0840 C   0  0  1  0  0  0  0  0  0  0  0  0
  143.4030   73.8120  220.3590 C   0  0  0  0  0  0  0  0  0  0  0  0
  144.7430   74.5180  220.4110 C   0  0  0  0  0  0  0  0  0  0  0  0
  145.6650   73.6730  221.2690 C   0  0  0  0  0  0  0  0  0  0  0  0
  146.0680   72.5640  220.5240 O   0  0  0  0  0  0  0  0  0  0  0  0
  145.0560   72.1200  219.6760 C   0  0  0  0  0  0  0  0  0  0  0  0
  143.7290   72.3220  220.3790 C   0  0  0  0  0  0  0  0  0  0  0  0
  139.8710   71.7060  222.9240 C   0  0  0  0  0  0  0  0  0  0  0  0
  139.4390   70.4030  222.7780 C   0  0  0  0  0  0  0  0  0  0  0  0
  139.4810   69.4900  223.8170 C   0  0  0  0  0  0  0  0  0  0  0  0
  139.9670   69.8930  225.0390 C   0  0  0  0  0  0  0  0  0  0  0  0
  140.0310   69.0250  226.1070 C   0  0  0  0  0  0  0  0  0  0  0  0
  140.5290   69.4910  227.3000 C   0  0  0  0  0  0  0  0  0  0  0  0
  140.6400   68.4540  228.6930 Cl  0  0  0  0  0  0  0  0  0  0  0  0
  140.9590   70.8040  227.4340 C   0  0  0  0  0  0  0  0  0  0  0  0
  140.9040   71.6920  226.3700 C   0  0  0  0  0  0  0  0  0  0  0  0
  140.3990   71.2050  225.1750 C   0  0  0  0  0  0  0  0  0  0  0  0
  140.3410   72.0600  224.1360 N   0  0  0  0  0  0  0  0  0  0  0  0
  139.5320   74.3320  223.0770 H   0  0  0  0  0  0  0  0  0  0  0  0
  138.8711   74.6093  220.2182 H   0  0  0  0  0  0  0  0  0  0  0  0
  139.1898   75.9448  221.3897 H   0  0  0  0  0  0  0  0  0  0  0  0
  140.0418   73.0627  218.2852 H   0  0  0  0  0  0  0  0  0  0  0  0
  139.2725   74.6218  218.6217 H   0  0  0  0  0  0  0  0  0  0  0  0
  139.8775   74.4983  216.2322 H   0  0  0  0  0  0  0  0  0  0  0  0
  140.9314   75.7166  217.0583 H   0  0  0  0  0  0  0  0  0  0  0  0
  141.9523   72.9334  217.0061 H   0  0  0  0  0  0  0  0  0  0  0  0
  141.8422   73.8169  215.4057 H   0  0  0  0  0  0  0  0  0  0  0  0
  144.0351   73.9322  216.5944 H   0  0  0  0  0  0  0  0  0  0  0  0
  143.2316   75.5031  216.1182 H   0  0  0  0  0  0  0  0  0  0  0  0
  144.3663   75.2805  218.4897 H   0  0  0  0  0  0  0  0  0  0  0  0
  142.8125   76.1132  218.3331 H   0  0  0  0  0  0  0  0  0  0  0  0
  142.7329   73.0937  218.5904 H   0  0  0  0  0  0  0  0  0  0  0  0
  142.7738   74.1576  221.1924 H   0  0  0  0  0  0  0  0  0  0  0  0
  145.1569   74.6151  219.3965 H   0  0  0  0  0  0  0  0  0  0  0  0
  144.6349   75.5279  220.8333 H   0  0  0  0  0  0  0  0  0  0  0  0
  146.5456   74.2640  221.5611 H   0  0  0  0  0  0  0  0  0  0  0  0
  145.1399   73.3461  222.1787 H   0  0  0  0  0  0  0  0  0  0  0  0
  145.0737   72.6978  218.7401 H   0  0  0  0  0  0  0  0  0  0  0  0
  145.2009   71.0567  219.4345 H   0  0  0  0  0  0  0  0  0  0  0  0
  142.9408   71.7610  219.8556 H   0  0  0  0  0  0  0  0  0  0  0  0
  143.7883   71.9592  221.4157 H   0  0  0  0  0  0  0  0  0  0  0  0
  139.0479   70.0794  221.8021 H   0  0  0  0  0  0  0  0  0  0  0  0
  139.1311   68.4578  223.6679 H   0  0  0  0  0  0  0  0  0  0  0  0
  139.6915   67.9835  226.0071 H   0  0  0  0  0  0  0  0  0  0  0  0
  141.3510   71.1469  228.4029 H   0  0  0  0  0  0  0  0  0  0  0  0
  141.2450   72.7330  226.4700 H   0  0  0  0  0  0  0  0  0  0  0  0
  1  2  2  0
  2  3  1  0
  3  4  1  0
  4  5  1  0
  5  6  2  0
  5  7  1  0
  7  8  1  0
  8  9  1  0
  9 10  1  0
 10 11  1  0
 11 12  1  0
 12 13  1  0
 13 14  1  0
 14 15  1  0
 15 16  1  0
 16 17  1  0
 17 18  1  0
 18 19  1  0
  2 20  1  0
 20 21  2  0
 21 22  1  0
 22 23  2  0
 23 24  1  0
 24 25  2  0
 25 26  1  0
 25 27  1  0
 27 28  2  0
 28 29  1  0
 29 30  2  0
 13  7  1  0
 19 14  1  0
 30 20  1  0
 29 23  1  0
  3 31  1  0
  4 32  1  0
  4 33  1  0
  8 34  1  0
  8 35  1  0
  9 36  1  0
  9 37  1  0
 10 38  1  0
 10 39  1  0
 11 40  1  0
 11 41  1  0
 12 42  1  0
 12 43  1  0
 13 44  1  6
 14 45  1  0
 15 46  1  0
 15 47  1  0
 16 48  1  0
 16 49  1  0
 18 50  1  0
 18 51  1  0
 19 52  1  0
 19 53  1  0
 21 54  1  0
 22 55  1  0
 24 56  1  0
 27 57  1  0
 28 58  1  0
M  END
>  <smiles>  (83) 
O=C(NCC(=O)N1CCCCCC1C1CCOCC1)c1ccc2cc(Cl)ccc2n1

>  <score_type>  (83) 
oracle

>  <origin>  (83) 
autodockgpu

>  <m_score__min__energy>  (83) 
-7.0800000000000001

>  <m_primary>  (83) 
energy

>  <rmsd>  (83) 
1.9484222401937918

>  <m_score__min__rmsd>  (83) 
1.9484222401937918

>  <meeko>  (83) 
{"free_energy": -5.33, "intermolecular_energy": -8.61, "internal_energy": -2.19, "cluster_size": 13, "cluster_id": 2, "rank_in_cluster": 13}

>  <energy>  (83) 
-5.9

>  <cluster_rmsd>  (83) 
1.1

>  <cluster>  (83) 
2

$$$$

     RDKit          3D

 58 61  0  0  0  0  0  0  0  0999 V2000
  136.3180   77.2340  222.1930 O   0  0  0  0  0  0  0  0  0  0  0  0
  136.7600   76.1410  222.5980 C   0  0  0  0  0  0  0  0  0  0  0  0
  138.0860   75.7040  222.3080 N   0  0  0  0  0  0  0  0  0  0  0  0
  138.9730   76.5370  221.5180 C   0  0  0  0  0  0  0  0  0  0  0  0
  140.3950   76.0700  221.6510 C   0  0  0  0  0  0  0  0  0  0  0  0
  140.5570   75.0250  222.3330 O   0  0  0  0  0  0  0  0  0  0  0  0
  141.4290   76.7960  221.0310 N   0  0  0  0  0  0  0  0  0  0  0  0
  142.1710   76.0710  220.0000 C   0  0  0  0  0  0  0  0  0  0  0  0
  141.3890   76.2590  218.7150 C   0  0  0  0  0  0  0  0  0  0  0  0
  141.5870   77.6520  218.1490 C   0  0  0  0  0  0  0  0  0  0  0  0
  142.2110   78.6150  219.1050 C   0  0  0  0  0  0  0  0  0  0  0  0
  141.2870   79.0240  220.2480 C   0  0  0  0  0  0  0  0  0  0  0  0
  141.6810   78.1560  221.4260 C   0  0  1  0  0  0  0  0  0  0  0  0
  141.0460   78.5510  222.7160 C   0  0  0  0  0  0  0  0  0  0  0  0
  140.0040   79.6350  222.5360 C   0  0  0  0  0  0  0  0  0  0  0  0
  139.9760   80.4530  223.8120 C   0  0  0  0  0  0  0  0  0  0  0  0
  141.1020   81.2780  223.8330 O   0  0  0  0  0  0  0  0  0  0  0  0
  142.2030   80.6590  223.2460 C   0  0  0  0  0  0  0  0  0  0  0  0
  142.1420   79.1800  223.5710 C   0  0  0  0  0  0  0  0  0  0  0  0
  135.8990   75.2700  223.3970 C   0  0  0  0  0  0  0  0  0  0  0  0
  135.8860   73.9070  223.1810 C   0  0  0  0  0  0  0  0  0  0  0  0
  135.0860   73.0490  223.9170 C   0  0  0  0  0  0  0  0  0  0  0  0
  134.2750   73.5730  224.8970 C   0  0  0  0  0  0  0  0  0  0  0  0
  133.4590   72.7650  225.6590 C   0  0  0  0  0  0  0  0  0  0  0  0
  132.6740   73.3500  226.6230 C   0  0  0  0  0  0  0  0  0  0  0  0
  131.6180   72.3960  227.6240 Cl  0  0  0  0  0  0  0  0  0  0  0  0
  132.6970   74.7230  226.8300 C   0  0  0  0  0  0  0  0  0  0  0  0
  133.5120   75.5520  226.0740 C   0  0  0  0  0  0  0  0  0  0  0  0
  134.2970   74.9440  225.1070 C   0  0  0  0  0  0  0  0  0  0  0  0
  135.0910   75.7420  224.3670 N   0  0  0  0  0  0  0  0  0  0  0  0
  138.4020   74.7750  222.6740 H   0  0  0  0  0  0  0  0  0  0  0  0
  138.6725   76.4843  220.4612 H   0  0  0  0  0  0  0  0  0  0  0  0
  138.9044   77.5728  221.8819 H   0  0  0  0  0  0  0  0  0  0  0  0
  143.1845   76.4856  219.8952 H   0  0  0  0  0  0  0  0  0  0  0  0
  142.2798   75.0063  220.2543 H   0  0  0  0  0  0  0  0  0  0  0  0
  141.7312   75.5198  217.9758 H   0  0  0  0  0  0  0  0  0  0  0  0
  140.3201   76.1223  218.9356 H   0  0  0  0  0  0  0  0  0  0  0  0
  142.2344   77.5762  217.2629 H   0  0  0  0  0  0  0  0  0  0  0  0
  140.5868   78.0434  217.9117 H   0  0  0  0  0  0  0  0  0  0  0  0
  143.1092   78.1468  219.5341 H   0  0  0  0  0  0  0  0  0  0  0  0
  142.4463   79.5274  218.5373 H   0  0  0  0  0  0  0  0  0  0  0  0
  141.4265   80.0875  220.4919 H   0  0  0  0  0  0  0  0  0  0  0  0
  140.2283   78.8897  219.9815 H   0  0  0  0  0  0  0  0  0  0  0  0
  142.7480   78.2895  221.6575 H   0  0  0  0  0  0  0  0  0  0  0  0
  140.5746   77.6588  223.1539 H   0  0  0  0  0  0  0  0  0  0  0  0
  140.2723   80.2767  221.6838 H   0  0  0  0  0  0  0  0  0  0  0  0
  139.0162   79.1948  222.3350 H   0  0  0  0  0  0  0  0  0  0  0  0
  139.0645   81.0682  223.8387 H   0  0  0  0  0  0  0  0  0  0  0  0
  139.9799   79.7869  224.6874 H   0  0  0  0  0  0  0  0  0  0  0  0
  142.1738   80.8025  222.1558 H   0  0  0  0  0  0  0  0  0  0  0  0
  143.1358   81.0954  223.6325 H   0  0  0  0  0  0  0  0  0  0  0  0
  143.1092   78.7081  223.3434 H   0  0  0  0  0  0  0  0  0  0  0  0
  141.9231   79.0335  224.6390 H   0  0  0  0  0  0  0  0  0  0  0  0
  136.5336   73.4875  222.3970 H   0  0  0  0  0  0  0  0  0  0  0  0
  135.0988   71.9666  223.7213 H   0  0  0  0  0  0  0  0  0  0  0  0
  133.4367   71.6769  225.4991 H   0  0  0  0  0  0  0  0  0  0  0  0
  132.0561   75.1616  227.6090 H   0  0  0  0  0  0  0  0  0  0  0  0
  133.5344   76.6401  226.2341 H   0  0  0  0  0  0  0  0  0  0  0  0
  1  2  2  0
  2  3  1  0
  3  4  1  0
  4  5  1  0
  5  6  2  0
  5  7  1  0
  7  8  1  0
  8  9  1  0
  9 10  1  0
 10 11  1  0
 11 12  1  0
 12 13  1  0
 13 14  1  0
 14 15  1  0
 15 16  1  0
 16 17  1  0
 17 18  1  0
 18 19  1  0
  2 20  1  0
 20 21  2  0
 21 22  1  0
 22 23  2  0
 23 24  1  0
 24 25  2  0
 25 26  1  0
 25 27  1  0
 27 28  2  0
 28 29  1  0
 29 30  2  0
 13  7  1  0
 19 14  1  0
 30 20  1  0
 29 23  1  0
  3 31  1  0
  4 32  1  0
  4 33  1  0
  8 34  1  0
  8 35  1  0
  9 36  1  0
  9 37  1  0
 10 38  1  0
 10 39  1  0
 11 40  1  0
 11 41  1  0
 12 42  1  0
 12 43  1  0
 13 44  1  1
 14 45  1  0
 15 46  1  0
 15 47  1  0
 16 48  1  0
 16 49  1  0
 18 50  1  0
 18 51  1  0
 19 52  1  0
 19 53  1  0
 21 54  1  0
 22 55  1  0
 24 56  1  0
 27 57  1  0
 28 58  1  0
M  END
>  <smiles>  (84) 
O=C(NCC(=O)N1CCCCCC1C1CCOCC1)c1ccc2cc(Cl)ccc2n1

>  <score_type>  (84) 
oracle

>  <origin>  (84) 
autodockgpu

>  <m_score__min__energy>  (84) 
-7.0800000000000001

>  <m_primary>  (84) 
energy

>  <rmsd>  (84) 
5.418453014060597

>  <m_score__min__rmsd>  (84) 
5.418453014060597

>  <meeko>  (84) 
{"free_energy": -5.57, "intermolecular_energy": -8.86, "internal_energy": -2.07, "cluster_size": 3, "cluster_id": 3, "rank_in_cluster": 1}

>  <energy>  (84) 
-5.89

>  <cluster_rmsd>  (84) 
1.72

>  <cluster>  (84) 
2

$$$$

     RDKit          3D

 58 61  0  0  0  0  0  0  0  0999 V2000
  139.8550   72.2770  220.7210 O   0  0  0  0  0  0  0  0  0  0  0  0
  139.7710   72.6700  221.9010 C   0  0  0  0  0  0  0  0  0  0  0  0
  139.6200   74.0490  222.2310 N   0  0  0  0  0  0  0  0  0  0  0  0
  139.5590   75.0490  221.1830 C   0  0  0  0  0  0  0  0  0  0  0  0
  140.3130   76.2850  221.5860 C   0  0  0  0  0  0  0  0  0  0  0  0
  140.9260   76.2080  222.6830 O   0  0  0  0  0  0  0  0  0  0  0  0
  140.2940   77.4170  220.7510 N   0  0  0  0  0  0  0  0  0  0  0  0
  139.2040   77.4570  219.7770 C   0  0  0  0  0  0  0  0  0  0  0  0
  139.8340   77.1470  218.4330 C   0  0  0  0  0  0  0  0  0  0  0  0
  141.1690   76.4470  218.6000 C   0  0  0  0  0  0  0  0  0  0  0  0
  142.2930   77.3590  218.9650 C   0  0  0  0  0  0  0  0  0  0  0  0
  141.8410   78.7100  219.5110 C   0  0  0  0  0  0  0  0  0  0  0  0
  141.3030   78.4320  220.9010 C   0  0  1  0  0  0  0  0  0  0  0  0
  140.8490   79.6480  221.6360 C   0  0  0  0  0  0  0  0  0  0  0  0
  141.8380   80.7900  221.5240 C   0  0  0  0  0  0  0  0  0  0  0  0
  141.7210   81.6150  222.7900 C   0  0  0  0  0  0  0  0  0  0  0  0
  142.3500   80.9250  223.8270 O   0  0  0  0  0  0  0  0  0  0  0  0
  142.1940   79.5470  223.6960 C   0  0  0  0  0  0  0  0  0  0  0  0
  140.8190   79.2810  223.1160 C   0  0  0  0  0  0  0  0  0  0  0  0
  139.8270   71.6950  222.9890 C   0  0  0  0  0  0  0  0  0  0  0  0
  139.3150   70.4240  222.8200 C   0  0  0  0  0  0  0  0  0  0  0  0
  139.3500   69.4730  223.8250 C   0  0  0  0  0  0  0  0  0  0  0  0
  139.9140   69.8050  225.0350 C   0  0  0  0  0  0  0  0  0  0  0  0
  139.9760   68.8960  226.0700 C   0  0  0  0  0  0  0  0  0  0  0  0
  140.5530   69.2900  227.2530 C   0  0  0  0  0  0  0  0  0  0  0  0
  140.6660   68.2000  228.6040 Cl  0  0  0  0  0  0  0  0  0  0  0  0
  141.0650   70.5720  227.4100 C   0  0  0  0  0  0  0  0  0  0  0  0
  141.0120   71.4990  226.3800 C   0  0  0  0  0  0  0  0  0  0  0  0
  140.4270   71.0840  225.1940 C   0  0  0  0  0  0  0  0  0  0  0  0
  140.3720   71.9780  224.1880 N   0  0  0  0  0  0  0  0  0  0  0  0
  139.5550   74.3200  223.2420 H   0  0  0  0  0  0  0  0  0  0  0  0
  140.0036   74.6378  220.2647 H   0  0  0  0  0  0  0  0  0  0  0  0
  138.5063   75.3168  221.0095 H   0  0  0  0  0  0  0  0  0  0  0  0
  138.4419   76.7036  220.0249 H   0  0  0  0  0  0  0  0  0  0  0  0
  138.7038   78.4367  219.7715 H   0  0  0  0  0  0  0  0  0  0  0  0
  139.1567   76.4957  217.8612 H   0  0  0  0  0  0  0  0  0  0  0  0
  140.0025   78.0949  217.9010 H   0  0  0  0  0  0  0  0  0  0  0  0
  141.0661   75.6910  219.3924 H   0  0  0  0  0  0  0  0  0  0  0  0
  141.4212   76.0070  217.6239 H   0  0  0  0  0  0  0  0  0  0  0  0
  142.9062   76.8632  219.7319 H   0  0  0  0  0  0  0  0  0  0  0  0
  142.8540   77.5600  218.0404 H   0  0  0  0  0  0  0  0  0  0  0  0
  142.6905   79.4071  219.5609 H   0  0  0  0  0  0  0  0  0  0  0  0
  141.0799   79.1741  218.8666 H   0  0  0  0  0  0  0  0  0  0  0  0
  142.1091   78.0687  221.5554 H   0  0  0  0  0  0  0  0  0  0  0  0
  139.8802   79.9601  221.2188 H   0  0  0  0  0  0  0  0  0  0  0  0
  142.8597   80.3945  221.4258 H   0  0  0  0  0  0  0  0  0  0  0  0
  141.6231   81.4051  220.6377 H   0  0  0  0  0  0  0  0  0  0  0  0
  142.2083   82.5903  222.6439 H   0  0  0  0  0  0  0  0  0  0  0  0
  140.6617   81.7810  223.0355 H   0  0  0  0  0  0  0  0  0  0  0  0
  142.9663   79.1468  223.0227 H   0  0  0  0  0  0  0  0  0  0  0  0
  142.2951   79.0575  224.6759 H   0  0  0  0  0  0  0  0  0  0  0  0
  140.5655   78.2168  223.2310 H   0  0  0  0  0  0  0  0  0  0  0  0
  140.0615   79.8808  223.6417 H   0  0  0  0  0  0  0  0  0  0  0  0
  138.8635   70.1579  221.8529 H   0  0  0  0  0  0  0  0  0  0  0  0
  138.9338   68.4684  223.6589 H   0  0  0  0  0  0  0  0  0  0  0  0
  139.5730   67.8794  225.9513 H   0  0  0  0  0  0  0  0  0  0  0  0
  141.5211   70.8571  228.3695 H   0  0  0  0  0  0  0  0  0  0  0  0
  141.4151   72.5156  226.4986 H   0  0  0  0  0  0  0  0  0  0  0  0
  1  2  2  0
  2  3  1  0
  3  4  1  0
  4  5  1  0
  5  6  2  0
  5  7  1  0
  7  8  1  0
  8  9  1  0
  9 10  1  0
 10 11  1  0
 11 12  1  0
 12 13  1  0
 13 14  1  0
 14 15  1  0
 15 16  1  0
 16 17  1  0
 17 18  1  0
 18 19  1  0
  2 20  1  0
 20 21  2  0
 21 22  1  0
 22 23  2  0
 23 24  1  0
 24 25  2  0
 25 26  1  0
 25 27  1  0
 27 28  2  0
 28 29  1  0
 29 30  2  0
 13  7  1  0
 19 14  1  0
 30 20  1  0
 29 23  1  0
  3 31  1  0
  4 32  1  0
  4 33  1  0
  8 34  1  0
  8 35  1  0
  9 36  1  0
  9 37  1  0
 10 38  1  0
 10 39  1  0
 11 40  1  0
 11 41  1  0
 12 42  1  0
 12 43  1  0
 13 44  1  1
 14 45  1  0
 15 46  1  0
 15 47  1  0
 16 48  1  0
 16 49  1  0
 18 50  1  0
 18 51  1  0
 19 52  1  0
 19 53  1  0
 21 54  1  0
 22 55  1  0
 24 56  1  0
 27 57  1  0
 28 58  1  0
M  END
>  <smiles>  (85) 
O=C(NCC(=O)N1CCCCCC1C1CCOCC1)c1ccc2cc(Cl)ccc2n1

>  <score_type>  (85) 
oracle

>  <origin>  (85) 
autodockgpu

>  <m_score__min__energy>  (85) 
-7.0800000000000001

>  <m_primary>  (85) 
energy

>  <rmsd>  (85) 
1.8121525541211665

>  <m_score__min__rmsd>  (85) 
1.8121525541211665

>  <meeko>  (85) 
{"free_energy": -5.74, "intermolecular_energy": -9.02, "internal_energy": -1.94, "cluster_size": 26, "cluster_id": 1, "rank_in_cluster": 21}

>  <energy>  (85) 
-5.69

>  <cluster_rmsd>  (85) 
1.69

>  <cluster>  (85) 
2

$$$$

     RDKit          3D

 58 61  0  0  0  0  0  0  0  0999 V2000
  138.7760   71.6200  220.8430 O   0  0  0  0  0  0  0  0  0  0  0  0
  139.0370   72.1110  221.9590 C   0  0  0  0  0  0  0  0  0  0  0  0
  139.0690   73.5190  222.1790 N   0  0  0  0  0  0  0  0  0  0  0  0
  138.7920   74.4360  221.0890 C   0  0  0  0  0  0  0  0  0  0  0  0
  139.8690   74.3550  220.0430 C   0  0  0  0  0  0  0  0  0  0  0  0
  139.4650   74.1240  218.8740 O   0  0  0  0  0  0  0  0  0  0  0  0
  141.2150   74.5340  220.4110 N   0  0  0  0  0  0  0  0  0  0  0  0
  141.9950   73.3040  220.5420 C   0  0  0  0  0  0  0  0  0  0  0  0
  143.1430   73.4330  219.5590 C   0  0  0  0  0  0  0  0  0  0  0  0
  144.2810   74.2450  220.1460 C   0  0  0  0  0  0  0  0  0  0  0  0
  144.0810   75.7230  220.0640 C   0  0  0  0  0  0  0  0  0  0  0  0
  142.7170   76.1220  219.5050 C   0  0  0  0  0  0  0  0  0  0  0  0
  141.7260   75.8620  220.6220 C   0  0  1  0  0  0  0  0  0  0  0  0
  140.6750   76.9110  220.7640 C   0  0  0  0  0  0  0  0  0  0  0  0
  141.1140   78.2450  220.1950 C   0  0  0  0  0  0  0  0  0  0  0  0
  140.4120   79.3290  220.9900 C   0  0  0  0  0  0  0  0  0  0  0  0
  141.0390   79.4410  222.2320 O   0  0  0  0  0  0  0  0  0  0  0  0
  141.4880   78.2070  222.6940 C   0  0  0  0  0  0  0  0  0  0  0  0
  140.4920   77.1500  222.2600 C   0  0  0  0  0  0  0  0  0  0  0  0
  139.3220   71.2230  223.0850 C   0  0  0  0  0  0  0  0  0  0  0  0
  138.9640   69.8910  223.0370 C   0  0  0  0  0  0  0  0  0  0  0  0
  139.2160   69.0190  224.0820 C   0  0  0  0  0  0  0  0  0  0  0  0
  139.8450   69.4960  225.2080 C   0  0  0  0  0  0  0  0  0  0  0  0
  140.1200   68.6710  226.2780 C   0  0  0  0  0  0  0  0  0  0  0  0
  140.7510   69.2100  227.3740 C   0  0  0  0  0  0  0  0  0  0  0  0
  141.1320   68.2320  228.7620 Cl  0  0  0  0  0  0  0  0  0  0  0  0
  141.1060   70.5520  227.4100 C   0  0  0  0  0  0  0  0  0  0  0  0
  140.8380   71.3960  226.3430 C   0  0  0  0  0  0  0  0  0  0  0  0
  140.2010   70.8360  225.2470 C   0  0  0  0  0  0  0  0  0  0  0  0
  139.9360   71.6490  224.2060 N   0  0  0  0  0  0  0  0  0  0  0  0
  139.2950   73.8740  223.1390 H   0  0  0  0  0  0  0  0  0  0  0  0
  137.8253   74.1749  220.6336 H   0  0  0  0  0  0  0  0  0  0  0  0
  138.7605   75.4610  221.4871 H   0  0  0  0  0  0  0  0  0  0  0  0
  142.3792   73.2020  221.5677 H   0  0  0  0  0  0  0  0  0  0  0  0
  141.3833   72.4138  220.3339 H   0  0  0  0  0  0  0  0  0  0  0  0
  143.5128   72.4284  219.3058 H   0  0  0  0  0  0  0  0  0  0  0  0
  142.7748   73.9496  218.6604 H   0  0  0  0  0  0  0  0  0  0  0  0
  144.3915   73.9696  221.2052 H   0  0  0  0  0  0  0  0  0  0  0  0
  145.1765   74.0125  219.5510 H   0  0  0  0  0  0  0  0  0  0  0  0
  144.1799   76.1446  221.0752 H   0  0  0  0  0  0  0  0  0  0  0  0
  144.8417   76.1150  219.3729 H   0  0  0  0  0  0  0  0  0  0  0  0
  142.7123   77.1865  219.2277 H   0  0  0  0  0  0  0  0  0  0  0  0
  142.4665   75.5520  218.5982 H   0  0  0  0  0  0  0  0  0  0  0  0
  142.2288   75.9220  221.5985 H   0  0  0  0  0  0  0  0  0  0  0  0
  139.7725   76.5665  220.2379 H   0  0  0  0  0  0  0  0  0  0  0  0
  142.2043   78.3544  220.2910 H   0  0  0  0  0  0  0  0  0  0  0  0
  140.8561   78.3165  219.1281 H   0  0  0  0  0  0  0  0  0  0  0  0
  140.4790   80.2863  220.4524 H   0  0  0  0  0  0  0  0  0  0  0  0
  139.3509   79.0719  221.1243 H   0  0  0  0  0  0  0  0  0  0  0  0
  142.4767   77.9858  222.2655 H   0  0  0  0  0  0  0  0  0  0  0  0
  141.5760   78.2200  223.7904 H   0  0  0  0  0  0  0  0  0  0  0  0
  140.6753   76.2162  222.8118 H   0  0  0  0  0  0  0  0  0  0  0  0
  139.4655   77.4853  222.4693 H   0  0  0  0  0  0  0  0  0  0  0  0
  138.4607   69.5089  222.1366 H   0  0  0  0  0  0  0  0  0  0  0  0
  138.9182   67.9623  224.0129 H   0  0  0  0  0  0  0  0  0  0  0  0
  139.8412   67.6072  226.2552 H   0  0  0  0  0  0  0  0  0  0  0  0
  141.6094   70.9532  228.3020 H   0  0  0  0  0  0  0  0  0  0  0  0
  141.1177   72.4596  226.3654 H   0  0  0  0  0  0  0  0  0  0  0  0
  1  2  2  0
  2  3  1  0
  3  4  1  0
  4  5  1  0
  5  6  2  0
  5  7  1  0
  7  8  1  0
  8  9  1  0
  9 10  1  0
 10 11  1  0
 11 12  1  0
 12 13  1  0
 13 14  1  0
 14 15  1  0
 15 16  1  0
 16 17  1  0
 17 18  1  0
 18 19  1  0
  2 20  1  0
 20 21  2  0
 21 22  1  0
 22 23  2  0
 23 24  1  0
 24 25  2  0
 25 26  1  0
 25 27  1  0
 27 28  2  0
 28 29  1  0
 29 30  2  0
 13  7  1  0
 19 14  1  0
 30 20  1  0
 29 23  1  0
  3 31  1  0
  4 32  1  0
  4 33  1  0
  8 34  1  0
  8 35  1  0
  9 36  1  0
  9 37  1  0
 10 38  1  0
 10 39  1  0
 11 40  1  0
 11 41  1  0
 12 42  1  0
 12 43  1  0
 13 44  1  1
 14 45  1  0
 15 46  1  0
 15 47  1  0
 16 48  1  0
 16 49  1  0
 18 50  1  0
 18 51  1  0
 19 52  1  0
 19 53  1  0
 21 54  1  0
 22 55  1  0
 24 56  1  0
 27 57  1  0
 28 58  1  0
M  END
>  <smiles>  (86) 
O=C(NCC(=O)N1CCCCCC1C1CCOCC1)c1ccc2cc(Cl)ccc2n1

>  <score_type>  (86) 
oracle

>  <origin>  (86) 
autodockgpu

>  <m_score__min__energy>  (86) 
-7.0800000000000001

>  <m_primary>  (86) 
energy

>  <rmsd>  (86) 
2.171656682828816

>  <m_score__min__rmsd>  (86) 
2.171656682828816

>  <meeko>  (86) 
{"free_energy": -5.51, "intermolecular_energy": -8.79, "internal_energy": -1.98, "cluster_size": 26, "cluster_id": 1, "rank_in_cluster": 26}

>  <energy>  (86) 
-5.67

>  <cluster_rmsd>  (86) 
0.65

>  <cluster>  (86) 
2

$$$$

     RDKit          3D

 58 61  0  0  0  0  0  0  0  0999 V2000
  140.0340   73.7550  222.3500 O   0  0  0  0  0  0  0  0  0  0  0  0
  139.9430   72.5360  222.1060 C   0  0  0  0  0  0  0  0  0  0  0  0
  139.8060   72.0370  220.7770 N   0  0  0  0  0  0  0  0  0  0  0  0
  139.7670   72.9520  219.6530 C   0  0  0  0  0  0  0  0  0  0  0  0
  141.1370   73.1200  219.0580 C   0  0  0  0  0  0  0  0  0  0  0  0
  141.2020   72.9750  217.8090 O   0  0  0  0  0  0  0  0  0  0  0  0
  142.2290   73.4180  219.8930 N   0  0  0  0  0  0  0  0  0  0  0  0
  142.8830   72.2610  220.5030 C   0  0  0  0  0  0  0  0  0  0  0  0
  144.2230   72.1260  219.8070 C   0  0  0  0  0  0  0  0  0  0  0  0
  145.2900   72.9470  220.5050 C   0  0  0  0  0  0  0  0  0  0  0  0
  144.9580   74.3980  220.6300 C   0  0  0  0  0  0  0  0  0  0  0  0
  144.0320   74.9070  219.5280 C   0  0  0  0  0  0  0  0  0  0  0  0
  142.6270   74.7870  220.0860 C   0  0  1  0  0  0  0  0  0  0  0  0
  141.6660   75.7900  219.5430 C   0  0  0  0  0  0  0  0  0  0  0  0
  142.3210   77.1320  219.2830 C   0  0  0  0  0  0  0  0  0  0  0  0
  141.2590   78.1970  219.4720 C   0  0  0  0  0  0  0  0  0  0  0  0
  141.0360   78.3610  220.8400 O   0  0  0  0  0  0  0  0  0  0  0  0
  141.1600   77.1560  221.5280 C   0  0  0  0  0  0  0  0  0  0  0  0
  140.6350   76.0480  220.6380 C   0  0  0  0  0  0  0  0  0  0  0  0
  139.9790   71.5770  223.2090 C   0  0  0  0  0  0  0  0  0  0  0  0
  139.5010   70.2930  223.0390 C   0  0  0  0  0  0  0  0  0  0  0  0
  139.5180   69.3570  224.0590 C   0  0  0  0  0  0  0  0  0  0  0  0
  140.0270   69.7170  225.2840 C   0  0  0  0  0  0  0  0  0  0  0  0
  140.0680   68.8250  226.3340 C   0  0  0  0  0  0  0  0  0  0  0  0
  140.5900   69.2480  227.5320 C   0  0  0  0  0  0  0  0  0  0  0  0
  140.6750   68.1790  228.9030 Cl  0  0  0  0  0  0  0  0  0  0  0  0
  141.0670   70.5420  227.6900 C   0  0  0  0  0  0  0  0  0  0  0  0
  141.0350   71.4540  226.6460 C   0  0  0  0  0  0  0  0  0  0  0  0
  140.5060   71.0100  225.4450 C   0  0  0  0  0  0  0  0  0  0  0  0
  140.4700   71.8890  224.4240 N   0  0  0  0  0  0  0  0  0  0  0  0
  139.7340   71.0010  220.6320 H   0  0  0  0  0  0  0  0  0  0  0  0
  139.0865   72.5534  218.8862 H   0  0  0  0  0  0  0  0  0  0  0  0
  139.4118   73.9314  220.0060 H   0  0  0  0  0  0  0  0  0  0  0  0
  143.0267   72.4270  221.5809 H   0  0  0  0  0  0  0  0  0  0  0  0
  142.2769   71.3497  220.3923 H   0  0  0  0  0  0  0  0  0  0  0  0
  144.5244   71.0681  219.8115 H   0  0  0  0  0  0  0  0  0  0  0  0
  144.1184   72.4958  218.7763 H   0  0  0  0  0  0  0  0  0  0  0  0
  145.4351   72.5375  221.5156 H   0  0  0  0  0  0  0  0  0  0  0  0
  146.1968   72.8811  219.8858 H   0  0  0  0  0  0  0  0  0  0  0  0
  144.4666   74.5606  221.6006 H   0  0  0  0  0  0  0  0  0  0  0  0
  145.9024   74.9551  220.5426 H   0  0  0  0  0  0  0  0  0  0  0  0
  144.2613   75.9557  219.2881 H   0  0  0  0  0  0  0  0  0  0  0  0
  144.1508   74.3304  218.5988 H   0  0  0  0  0  0  0  0  0  0  0  0
  142.6202   75.0344  221.1578 H   0  0  0  0  0  0  0  0  0  0  0  0
  141.2521   75.3956  218.6032 H   0  0  0  0  0  0  0  0  0  0  0  0
  143.1453   77.2923  219.9935 H   0  0  0  0  0  0  0  0  0  0  0  0
  142.7353   77.1720  218.2648 H   0  0  0  0  0  0  0  0  0  0  0  0
  141.6034   79.1462  219.0356 H   0  0  0  0  0  0  0  0  0  0  0  0
  140.3275   77.8939  218.9716 H   0  0  0  0  0  0  0  0  0  0  0  0
  142.2174   76.9713  221.7684 H   0  0  0  0  0  0  0  0  0  0  0  0
  140.5879   77.1933  222.4668 H   0  0  0  0  0  0  0  0  0  0  0  0
  140.4840   75.1337  221.2307 H   0  0  0  0  0  0  0  0  0  0  0  0
  139.6723   76.3405  220.1934 H   0  0  0  0  0  0  0  0  0  0  0  0
  139.0926   70.0037  222.0595 H   0  0  0  0  0  0  0  0  0  0  0  0
  139.1303   68.3413  223.8917 H   0  0  0  0  0  0  0  0  0  0  0  0
  139.6914   67.7983  226.2153 H   0  0  0  0  0  0  0  0  0  0  0  0
  141.4785   70.8500  228.6625 H   0  0  0  0  0  0  0  0  0  0  0  0
  141.4115   72.4806  226.7656 H   0  0  0  0  0  0  0  0  0  0  0  0
  1  2  2  0
  2  3  1  0
  3  4  1  0
  4  5  1  0
  5  6  2  0
  5  7  1  0
  7  8  1  0
  8  9  1  0
  9 10  1  0
 10 11  1  0
 11 12  1  0
 12 13  1  0
 13 14  1  0
 14 15  1  0
 15 16  1  0
 16 17  1  0
 17 18  1  0
 18 19  1  0
  2 20  1  0
 20 21  2  0
 21 22  1  0
 22 23  2  0
 23 24  1  0
 24 25  2  0
 25 26  1  0
 25 27  1  0
 27 28  2  0
 28 29  1  0
 29 30  2  0
 13  7  1  0
 19 14  1  0
 30 20  1  0
 29 23  1  0
  3 31  1  0
  4 32  1  0
  4 33  1  0
  8 34  1  0
  8 35  1  0
  9 36  1  0
  9 37  1  0
 10 38  1  0
 10 39  1  0
 11 40  1  0
 11 41  1  0
 12 42  1  0
 12 43  1  0
 13 44  1  1
 14 45  1  0
 15 46  1  0
 15 47  1  0
 16 48  1  0
 16 49  1  0
 18 50  1  0
 18 51  1  0
 19 52  1  0
 19 53  1  0
 21 54  1  0
 22 55  1  0
 24 56  1  0
 27 57  1  0
 28 58  1  0
M  END
>  <smiles>  (87) 
O=C(NCC(=O)N1CCCCCC1C1CCOCC1)c1ccc2cc(Cl)ccc2n1

>  <score_type>  (87) 
oracle

>  <origin>  (87) 
autodockgpu

>  <m_score__min__energy>  (87) 
-7.0800000000000001

>  <m_primary>  (87) 
energy

>  <rmsd>  (87) 
3.147048447613064

>  <m_score__min__rmsd>  (87) 
3.147048447613064

>  <meeko>  (87) 
{"free_energy": -5.89, "intermolecular_energy": -9.17, "internal_energy": -1.91, "cluster_size": 13, "cluster_id": 2, "rank_in_cluster": 8}

>  <energy>  (87) 
-5.55

>  <cluster_rmsd>  (87) 
1.22

>  <cluster>  (87) 
2

$$$$

     RDKit          3D

 58 61  0  0  0  0  0  0  0  0999 V2000
  140.2940   71.9990  220.7180 O   0  0  0  0  0  0  0  0  0  0  0  0
  140.0390   72.4190  221.8630 C   0  0  0  0  0  0  0  0  0  0  0  0
  139.7310   73.7890  222.1180 N   0  0  0  0  0  0  0  0  0  0  0  0
  139.7070   74.7470  221.0300 C   0  0  0  0  0  0  0  0  0  0  0  0
  140.8290   75.7370  221.1700 C   0  0  0  0  0  0  0  0  0  0  0  0
  140.6180   76.6770  221.9800 O   0  0  0  0  0  0  0  0  0  0  0  0
  142.0070   75.5690  220.4190 N   0  0  0  0  0  0  0  0  0  0  0  0
  142.7070   76.8050  220.0710 C   0  0  0  0  0  0  0  0  0  0  0  0
  142.5210   76.9810  218.5770 C   0  0  0  0  0  0  0  0  0  0  0  0
  141.2490   76.3090  218.0970 C   0  0  0  0  0  0  0  0  0  0  0  0
  141.3530   74.8240  217.9750 C   0  0  0  0  0  0  0  0  0  0  0  0
  142.6440   74.2560  218.5560 C   0  0  0  0  0  0  0  0  0  0  0  0
  142.4400   74.2460  220.0580 C   0  0  1  0  0  0  0  0  0  0  0  0
  143.6160   73.7510  220.8320 C   0  0  0  0  0  0  0  0  0  0  0  0
  144.9050   74.4280  220.4140 C   0  0  0  0  0  0  0  0  0  0  0  0
  146.0300   73.4370  220.6390 C   0  0  0  0  0  0  0  0  0  0  0  0
  145.9850   72.4800  219.6230 O   0  0  0  0  0  0  0  0  0  0  0  0
  144.6770   72.2030  219.2360 C   0  0  0  0  0  0  0  0  0  0  0  0
  143.7940   72.2800  220.4660 C   0  0  0  0  0  0  0  0  0  0  0  0
  140.0520   71.4880  222.9900 C   0  0  0  0  0  0  0  0  0  0  0  0
  139.5450   70.2110  222.8510 C   0  0  0  0  0  0  0  0  0  0  0  0
  139.5400   69.3000  223.8930 C   0  0  0  0  0  0  0  0  0  0  0  0
  140.0570   69.6780  225.1090 C   0  0  0  0  0  0  0  0  0  0  0  0
  140.0770   68.8100  226.1800 C   0  0  0  0  0  0  0  0  0  0  0  0
  140.6090   69.2500  227.3690 C   0  0  0  0  0  0  0  0  0  0  0  0
  140.6680   68.2140  228.7650 Cl  0  0  0  0  0  0  0  0  0  0  0  0
  141.1160   70.5370  227.4950 C   0  0  0  0  0  0  0  0  0  0  0  0
  141.1050   71.4230  226.4290 C   0  0  0  0  0  0  0  0  0  0  0  0
  140.5650   70.9630  225.2390 C   0  0  0  0  0  0  0  0  0  0  0  0
  140.5500   71.8170  224.1970 N   0  0  0  0  0  0  0  0  0  0  0  0
  139.5250   74.0840  223.1020 H   0  0  0  0  0  0  0  0  0  0  0  0
  139.8146   74.2118  220.0750 H   0  0  0  0  0  0  0  0  0  0  0  0
  138.7506   75.2897  221.0573 H   0  0  0  0  0  0  0  0  0  0  0  0
  142.2718   77.6571  220.6138 H   0  0  0  0  0  0  0  0  0  0  0  0
  143.7719   76.7563  220.3425 H   0  0  0  0  0  0  0  0  0  0  0  0
  142.4675   78.0553  218.3467 H   0  0  0  0  0  0  0  0  0  0  0  0
  143.3749   76.5149  218.0636 H   0  0  0  0  0  0  0  0  0  0  0  0
  140.4449   76.5416  218.8106 H   0  0  0  0  0  0  0  0  0  0  0  0
  141.0464   76.6970  217.0878 H   0  0  0  0  0  0  0  0  0  0  0  0
  140.5029   74.3704  218.5057 H   0  0  0  0  0  0  0  0  0  0  0  0
  141.3486   74.5859  216.9011 H   0  0  0  0  0  0  0  0  0  0  0  0
  142.8167   73.2352  218.1844 H   0  0  0  0  0  0  0  0  0  0  0  0
  143.5205   74.8542  218.2664 H   0  0  0  0  0  0  0  0  0  0  0  0
  141.6704   73.5094  220.3319 H   0  0  0  0  0  0  0  0  0  0  0  0
  143.4307   73.9421  221.8993 H   0  0  0  0  0  0  0  0  0  0  0  0
  144.8560   74.7065  219.3510 H   0  0  0  0  0  0  0  0  0  0  0  0
  145.0708   75.3441  220.9999 H   0  0  0  0  0  0  0  0  0  0  0  0
  146.9970   73.9607  220.6133 H   0  0  0  0  0  0  0  0  0  0  0  0
  145.9157   72.9522  221.6198 H   0  0  0  0  0  0  0  0  0  0  0  0
  144.3443   72.9415  218.4917 H   0  0  0  0  0  0  0  0  0  0  0  0
  144.6173   71.2006  218.7869 H   0  0  0  0  0  0  0  0  0  0  0  0
  142.8144   71.8285  220.2504 H   0  0  0  0  0  0  0  0  0  0  0  0
  144.2562   71.7332  221.3011 H   0  0  0  0  0  0  0  0  0  0  0  0
  139.1307   69.9073  221.8783 H   0  0  0  0  0  0  0  0  0  0  0  0
  139.1288   68.2898  223.7502 H   0  0  0  0  0  0  0  0  0  0  0  0
  139.6768   67.7897  226.0855 H   0  0  0  0  0  0  0  0  0  0  0  0
  141.5345   70.8595  228.4598 H   0  0  0  0  0  0  0  0  0  0  0  0
  141.5060   72.4429  226.5235 H   0  0  0  0  0  0  0  0  0  0  0  0
  1  2  2  0
  2  3  1  0
  3  4  1  0
  4  5  1  0
  5  6  2  0
  5  7  1  0
  7  8  1  0
  8  9  1  0
  9 10  1  0
 10 11  1  0
 11 12  1  0
 12 13  1  0
 13 14  1  0
 14 15  1  0
 15 16  1  0
 16 17  1  0
 17 18  1  0
 18 19  1  0
  2 20  1  0
 20 21  2  0
 21 22  1  0
 22 23  2  0
 23 24  1  0
 24 25  2  0
 25 26  1  0
 25 27  1  0
 27 28  2  0
 28 29  1  0
 29 30  2  0
 13  7  1  0
 19 14  1  0
 30 20  1  0
 29 23  1  0
  3 31  1  0
  4 32  1  0
  4 33  1  0
  8 34  1  0
  8 35  1  0
  9 36  1  0
  9 37  1  0
 10 38  1  0
 10 39  1  0
 11 40  1  0
 11 41  1  0
 12 42  1  0
 12 43  1  0
 13 44  1  6
 14 45  1  0
 15 46  1  0
 15 47  1  0
 16 48  1  0
 16 49  1  0
 18 50  1  0
 18 51  1  0
 19 52  1  0
 19 53  1  0
 21 54  1  0
 22 55  1  0
 24 56  1  0
 27 57  1  0
 28 58  1  0
M  END
>  <smiles>  (88) 
O=C(NCC(=O)N1CCCCCC1C1CCOCC1)c1ccc2cc(Cl)ccc2n1

>  <score_type>  (88) 
oracle

>  <origin>  (88) 
autodockgpu

>  <m_score__min__energy>  (88) 
-7.0800000000000001

>  <m_primary>  (88) 
energy

>  <rmsd>  (88) 
2.5000657540864593

>  <m_score__min__rmsd>  (88) 
2.5000657540864593

>  <meeko>  (88) 
{"free_energy": -6.45, "intermolecular_energy": -9.73, "internal_energy": -1.96, "cluster_size": 13, "cluster_id": 2, "rank_in_cluster": 2}

>  <energy>  (88) 
-5.52

>  <cluster_rmsd>  (88) 
0.63

>  <cluster>  (88) 
2

$$$$

     RDKit          3D

 58 61  0  0  0  0  0  0  0  0999 V2000
  139.9020   74.0530  222.3570 O   0  0  0  0  0  0  0  0  0  0  0  0
  139.7550   72.8450  222.0870 C   0  0  0  0  0  0  0  0  0  0  0  0
  139.4820   72.3920  220.7630 N   0  0  0  0  0  0  0  0  0  0  0  0
  139.3630   73.3430  219.6750 C   0  0  0  0  0  0  0  0  0  0  0  0
  140.7030   73.5940  219.0420 C   0  0  0  0  0  0  0  0  0  0  0  0
  141.0880   72.7130  218.2300 O   0  0  0  0  0  0  0  0  0  0  0  0
  141.4270   74.7530  219.3780 N   0  0  0  0  0  0  0  0  0  0  0  0
  140.6200   75.8820  219.8370 C   0  0  0  0  0  0  0  0  0  0  0  0
  140.6040   76.8760  218.6910 C   0  0  0  0  0  0  0  0  0  0  0  0
  141.8060   77.7990  218.7470 C   0  0  0  0  0  0  0  0  0  0  0  0
  143.1200   77.0940  218.6800 C   0  0  0  0  0  0  0  0  0  0  0  0
  143.3310   76.0920  219.8040 C   0  0  0  0  0  0  0  0  0  0  0  0
  142.8610   74.7570  219.2610 C   0  0  1  0  0  0  0  0  0  0  0  0
  143.5330   73.5760  219.8770 C   0  0  0  0  0  0  0  0  0  0  0  0
  144.8080   73.9530  220.6020 C   0  0  0  0  0  0  0  0  0  0  0  0
  145.7420   72.7610  220.5240 C   0  0  0  0  0  0  0  0  0  0  0  0
  146.2720   72.6980  219.2350 O   0  0  0  0  0  0  0  0  0  0  0  0
  145.3490   73.1150  218.2790 C   0  0  0  0  0  0  0  0  0  0  0  0
  143.9710   72.6720  218.7290 C   0  0  0  0  0  0  0  0  0  0  0  0
  139.8670   71.8520  223.1540 C   0  0  0  0  0  0  0  0  0  0  0  0
  139.4580   70.5490  222.9470 C   0  0  0  0  0  0  0  0  0  0  0  0
  139.5470   69.5800  223.9310 C   0  0  0  0  0  0  0  0  0  0  0  0
  140.0610   69.9250  225.1590 C   0  0  0  0  0  0  0  0  0  0  0  0
  140.1730   69.0000  226.1750 C   0  0  0  0  0  0  0  0  0  0  0  0
  140.6960   69.4090  227.3780 C   0  0  0  0  0  0  0  0  0  0  0  0
  140.8680   68.2990  228.7070 Cl  0  0  0  0  0  0  0  0  0  0  0  0
  141.1040   70.7220  227.5740 C   0  0  0  0  0  0  0  0  0  0  0  0
  141.0000   71.6660  226.5640 C   0  0  0  0  0  0  0  0  0  0  0  0
  140.4710   71.2360  225.3580 C   0  0  0  0  0  0  0  0  0  0  0  0
  140.3650   72.1470  224.3710 N   0  0  0  0  0  0  0  0  0  0  0  0
  139.3680   71.3630  220.5960 H   0  0  0  0  0  0  0  0  0  0  0  0
  138.6749   72.9407  218.9170 H   0  0  0  0  0  0  0  0  0  0  0  0
  138.9765   74.2922  220.0747 H   0  0  0  0  0  0  0  0  0  0  0  0
  139.5973   75.5512  220.0706 H   0  0  0  0  0  0  0  0  0  0  0  0
  141.0348   76.3286  220.7527 H   0  0  0  0  0  0  0  0  0  0  0  0
  140.6187   76.3256  217.7387 H   0  0  0  0  0  0  0  0  0  0  0  0
  139.6927   77.4865  218.7729 H   0  0  0  0  0  0  0  0  0  0  0  0
  141.7451   78.4972  217.8992 H   0  0  0  0  0  0  0  0  0  0  0  0
  141.7691   78.3088  219.7210 H   0  0  0  0  0  0  0  0  0  0  0  0
  143.1788   76.5584  217.7210 H   0  0  0  0  0  0  0  0  0  0  0  0
  143.9028   77.8604  218.7797 H   0  0  0  0  0  0  0  0  0  0  0  0
  144.3954   76.0412  220.0770 H   0  0  0  0  0  0  0  0  0  0  0  0
  142.7773   76.3779  220.7104 H   0  0  0  0  0  0  0  0  0  0  0  0
  143.1533   74.6502  218.2060 H   0  0  0  0  0  0  0  0  0  0  0  0
  142.8316   73.1130  220.5867 H   0  0  0  0  0  0  0  0  0  0  0  0
  145.2712   74.8261  220.1192 H   0  0  0  0  0  0  0  0  0  0  0  0
  144.5971   74.2139  221.6496 H   0  0  0  0  0  0  0  0  0  0  0  0
  146.5559   72.8788  221.2546 H   0  0  0  0  0  0  0  0  0  0  0  0
  145.1923   71.8357  220.7513 H   0  0  0  0  0  0  0  0  0  0  0  0
  145.3767   74.2108  218.1872 H   0  0  0  0  0  0  0  0  0  0  0  0
  145.5896   72.6749  217.3000 H   0  0  0  0  0  0  0  0  0  0  0  0
  143.2603   72.7592  217.8940 H   0  0  0  0  0  0  0  0  0  0  0  0
  143.9972   71.6230  219.0591 H   0  0  0  0  0  0  0  0  0  0  0  0
  139.0469   70.2717  221.9651 H   0  0  0  0  0  0  0  0  0  0  0  0
  139.2121   68.5509  223.7342 H   0  0  0  0  0  0  0  0  0  0  0  0
  139.8512   67.9587  226.0261 H   0  0  0  0  0  0  0  0  0  0  0  0
  141.5176   71.0186  228.5492 H   0  0  0  0  0  0  0  0  0  0  0  0
  141.3223   72.7071  226.7132 H   0  0  0  0  0  0  0  0  0  0  0  0
  1  2  2  0
  2  3  1  0
  3  4  1  0
  4  5  1  0
  5  6  2  0
  5  7  1  0
  7  8  1  0
  8  9  1  0
  9 10  1  0
 10 11  1  0
 11 12  1  0
 12 13  1  0
 13 14  1  0
 14 15  1  0
 15 16  1  0
 16 17  1  0
 17 18  1  0
 18 19  1  0
  2 20  1  0
 20 21  2  0
 21 22  1  0
 22 23  2  0
 23 24  1  0
 24 25  2  0
 25 26  1  0
 25 27  1  0
 27 28  2  0
 28 29  1  0
 29 30  2  0
 13  7  1  0
 19 14  1  0
 30 20  1  0
 29 23  1  0
  3 31  1  0
  4 32  1  0
  4 33  1  0
  8 34  1  0
  8 35  1  0
  9 36  1  0
  9 37  1  0
 10 38  1  0
 10 39  1  0
 11 40  1  0
 11 41  1  0
 12 42  1  0
 12 43  1  0
 13 44  1  6
 14 45  1  0
 15 46  1  0
 15 47  1  0
 16 48  1  0
 16 49  1  0
 18 50  1  0
 18 51  1  0
 19 52  1  0
 19 53  1  0
 21 54  1  0
 22 55  1  0
 24 56  1  0
 27 57  1  0
 28 58  1  0
M  END
>  <smiles>  (89) 
O=C(NCC(=O)N1CCCCCC1C1CCOCC1)c1ccc2cc(Cl)ccc2n1

>  <score_type>  (89) 
oracle

>  <origin>  (89) 
autodockgpu

>  <m_score__min__energy>  (89) 
-7.0800000000000001

>  <m_primary>  (89) 
energy

>  <rmsd>  (89) 
2.3505264019022616

>  <m_score__min__rmsd>  (89) 
2.3505264019022616

>  <meeko>  (89) 
{"free_energy": -6.01, "intermolecular_energy": -9.29, "internal_energy": -1.73, "cluster_size": 13, "cluster_id": 2, "rank_in_cluster": 6}

>  <energy>  (89) 
-5.33

>  <cluster_rmsd>  (89) 
1.21

>  <cluster>  (89) 
2

$$$$

     RDKit          3D

 58 61  0  0  0  0  0  0  0  0999 V2000
  139.0530   71.3690  220.9490 O   0  0  0  0  0  0  0  0  0  0  0  0
  139.2650   71.8970  222.0580 C   0  0  0  0  0  0  0  0  0  0  0  0
  139.3310   73.3120  222.2250 N   0  0  0  0  0  0  0  0  0  0  0  0
  139.1510   74.1910  221.0860 C   0  0  0  0  0  0  0  0  0  0  0  0
  140.2140   75.2530  221.0630 C   0  0  0  0  0  0  0  0  0  0  0  0
  140.5870   75.6660  222.1920 O   0  0  0  0  0  0  0  0  0  0  0  0
  140.7170   75.7120  219.8310 N   0  0  0  0  0  0  0  0  0  0  0  0
  139.9310   76.7660  219.1900 C   0  0  0  0  0  0  0  0  0  0  0  0
  140.4410   78.0730  219.7650 C   0  0  0  0  0  0  0  0  0  0  0  0
  141.7700   78.4650  219.1490 C   0  0  0  0  0  0  0  0  0  0  0  0
  142.8150   77.4020  219.2270 C   0  0  0  0  0  0  0  0  0  0  0  0
  142.5090   76.1840  218.3600 C   0  0  0  0  0  0  0  0  0  0  0  0
  141.9270   75.1460  219.2990 C   0  0  1  0  0  0  0  0  0  0  0  0
  142.8830   74.6520  220.3330 C   0  0  0  0  0  0  0  0  0  0  0  0
  144.3150   74.6540  219.8390 C   0  0  0  0  0  0  0  0  0  0  0  0
  145.0420   73.5320  220.5550 C   0  0  0  0  0  0  0  0  0  0  0  0
  144.6500   72.3190  219.9860 O   0  0  0  0  0  0  0  0  0  0  0  0
  143.3160   72.3460  219.5870 C   0  0  0  0  0  0  0  0  0  0  0  0
  142.5420   73.1860  220.5820 C   0  0  0  0  0  0  0  0  0  0  0  0
  139.4520   71.0480  223.2340 C   0  0  0  0  0  0  0  0  0  0  0  0
  139.0100   69.7400  223.2320 C   0  0  0  0  0  0  0  0  0  0  0  0
  139.1690   68.9050  224.3250 C   0  0  0  0  0  0  0  0  0  0  0  0
  139.7870   69.3940  225.4520 C   0  0  0  0  0  0  0  0  0  0  0  0
  139.9710   68.6050  226.5670 C   0  0  0  0  0  0  0  0  0  0  0  0
  140.5970   69.1540  227.6600 C   0  0  0  0  0  0  0  0  0  0  0  0
  140.8640   68.2220  229.1050 Cl  0  0  0  0  0  0  0  0  0  0  0  0
  141.0360   70.4720  227.6490 C   0  0  0  0  0  0  0  0  0  0  0  0
  140.8600   71.2800  226.5360 C   0  0  0  0  0  0  0  0  0  0  0  0
  140.2280   70.7100  225.4430 C   0  0  0  0  0  0  0  0  0  0  0  0
  140.0520   71.4870  224.3570 N   0  0  0  0  0  0  0  0  0  0  0  0
  139.5120   73.6980  223.1820 H   0  0  0  0  0  0  0  0  0  0  0  0
  139.2108   73.5998  220.1603 H   0  0  0  0  0  0  0  0  0  0  0  0
  138.1671   74.6764  221.1652 H   0  0  0  0  0  0  0  0  0  0  0  0
  140.0784   76.7441  218.1001 H   0  0  0  0  0  0  0  0  0  0  0  0
  138.8545   76.6362  219.3752 H   0  0  0  0  0  0  0  0  0  0  0  0
  139.7048   78.8649  219.5626 H   0  0  0  0  0  0  0  0  0  0  0  0
  140.5852   77.9430  220.8477 H   0  0  0  0  0  0  0  0  0  0  0  0
  141.6016   78.7068  218.0892 H   0  0  0  0  0  0  0  0  0  0  0  0
  142.1463   79.3227  219.7258 H   0  0  0  0  0  0  0  0  0  0  0  0
  143.7734   77.8310  218.8992 H   0  0  0  0  0  0  0  0  0  0  0  0
  142.8483   77.0565  220.2708 H   0  0  0  0  0  0  0  0  0  0  0  0
  141.7811   76.4438  217.5773 H   0  0  0  0  0  0  0  0  0  0  0  0
  143.4107   75.8110  217.8522 H   0  0  0  0  0  0  0  0  0  0  0  0
  141.7003   74.2203  218.7498 H   0  0  0  0  0  0  0  0  0  0  0  0
  142.7991   75.3013  221.2169 H   0  0  0  0  0  0  0  0  0  0  0  0
  144.3384   74.4843  218.7524 H   0  0  0  0  0  0  0  0  0  0  0  0
  144.7957   75.6219  220.0439 H   0  0  0  0  0  0  0  0  0  0  0  0
  146.1285   73.6615  220.4417 H   0  0  0  0  0  0  0  0  0  0  0  0
  144.7939   73.5443  221.6266 H   0  0  0  0  0  0  0  0  0  0  0  0
  143.2362   72.7894  218.5835 H   0  0  0  0  0  0  0  0  0  0  0  0
  142.9085   71.3248  219.5532 H   0  0  0  0  0  0  0  0  0  0  0  0
  141.4624   73.0260  220.4446 H   0  0  0  0  0  0  0  0  0  0  0  0
  142.8108   72.9021  221.6102 H   0  0  0  0  0  0  0  0  0  0  0  0
  138.5147   69.3479  222.3315 H   0  0  0  0  0  0  0  0  0  0  0  0
  138.8067   67.8669  224.2924 H   0  0  0  0  0  0  0  0  0  0  0  0
  139.6250   67.5609  226.5815 H   0  0  0  0  0  0  0  0  0  0  0  0
  141.5328   70.8825  228.5404 H   0  0  0  0  0  0  0  0  0  0  0  0
  141.2058   72.3241  226.5216 H   0  0  0  0  0  0  0  0  0  0  0  0
  1  2  2  0
  2  3  1  0
  3  4  1  0
  4  5  1  0
  5  6  2  0
  5  7  1  0
  7  8  1  0
  8  9  1  0
  9 10  1  0
 10 11  1  0
 11 12  1  0
 12 13  1  0
 13 14  1  0
 14 15  1  0
 15 16  1  0
 16 17  1  0
 17 18  1  0
 18 19  1  0
  2 20  1  0
 20 21  2  0
 21 22  1  0
 22 23  2  0
 23 24  1  0
 24 25  2  0
 25 26  1  0
 25 27  1  0
 27 28  2  0
 28 29  1  0
 29 30  2  0
 13  7  1  0
 19 14  1  0
 30 20  1  0
 29 23  1  0
  3 31  1  0
  4 32  1  0
  4 33  1  0
  8 34  1  0
  8 35  1  0
  9 36  1  0
  9 37  1  0
 10 38  1  0
 10 39  1  0
 11 40  1  0
 11 41  1  0
 12 42  1  0
 12 43  1  0
 13 44  1  6
 14 45  1  0
 15 46  1  0
 15 47  1  0
 16 48  1  0
 16 49  1  0
 18 50  1  0
 18 51  1  0
 19 52  1  0
 19 53  1  0
 21 54  1  0
 22 55  1  0
 24 56  1  0
 27 57  1  0
 28 58  1  0
M  END
>  <smiles>  (90) 
O=C(NCC(=O)N1CCCCCC1C1CCOCC1)c1ccc2cc(Cl)ccc2n1

>  <score_type>  (90) 
oracle

>  <origin>  (90) 
autodockgpu

>  <m_score__min__energy>  (90) 
-7.0800000000000001

>  <m_primary>  (90) 
energy

>  <rmsd>  (90) 
1.6839562334674654

>  <m_score__min__rmsd>  (90) 
1.6839562334674654

>  <meeko>  (90) 
{"free_energy": -5.58, "intermolecular_energy": -8.86, "internal_energy": -2.21, "cluster_size": 26, "cluster_id": 1, "rank_in_cluster": 25}

>  <energy>  (90) 
-5.57

>  <cluster_rmsd>  (90) 
0.0

>  <cluster>  (90) 
3

$$$$

     RDKit          3D

 58 61  0  0  0  0  0  0  0  0999 V2000
  139.8430   72.5610  220.8010 O   0  0  0  0  0  0  0  0  0  0  0  0
  139.1680   72.7480  221.8320 C   0  0  0  0  0  0  0  0  0  0  0  0
  138.2620   73.8420  221.9580 N   0  0  0  0  0  0  0  0  0  0  0  0
  138.0990   74.7840  220.8680 C   0  0  0  0  0  0  0  0  0  0  0  0
  138.7740   76.0880  221.1890 C   0  0  0  0  0  0  0  0  0  0  0  0
  138.1420   76.8430  221.9720 O   0  0  0  0  0  0  0  0  0  0  0  0
  140.0260   76.3840  220.6190 N   0  0  0  0  0  0  0  0  0  0  0  0
  140.2030   75.9430  219.2360 C   0  0  0  0  0  0  0  0  0  0  0  0
  141.2490   74.8450  219.2800 C   0  0  0  0  0  0  0  0  0  0  0  0
  142.3730   75.1950  220.2360 C   0  0  0  0  0  0  0  0  0  0  0  0
  142.9490   76.5570  220.0290 C   0  0  0  0  0  0  0  0  0  0  0  0
  141.9910   77.6850  220.4030 C   0  0  0  0  0  0  0  0  0  0  0  0
  141.0160   77.0820  221.3950 C   0  0  1  0  0  0  0  0  0  0  0  0
  140.4560   78.0600  222.3730 C   0  0  0  0  0  0  0  0  0  0  0  0
  140.2390   79.4270  221.7580 C   0  0  0  0  0  0  0  0  0  0  0  0
  140.4070   80.4510  222.8640 C   0  0  0  0  0  0  0  0  0  0  0  0
  141.7690   80.5840  223.1400 O   0  0  0  0  0  0  0  0  0  0  0  0
  142.4430   79.3740  222.9960 C   0  0  0  0  0  0  0  0  0  0  0  0
  141.5180   78.2620  223.4490 C   0  0  0  0  0  0  0  0  0  0  0  0
  139.3010   71.8220  222.9560 C   0  0  0  0  0  0  0  0  0  0  0  0
  138.6060   70.6290  222.9680 C   0  0  0  0  0  0  0  0  0  0  0  0
  138.7060   69.7260  224.0130 C   0  0  0  0  0  0  0  0  0  0  0  0
  139.5250   70.0260  225.0750 C   0  0  0  0  0  0  0  0  0  0  0  0
  139.6620   69.1630  226.1410 C   0  0  0  0  0  0  0  0  0  0  0  0
  140.4970   69.5220  227.1710 C   0  0  0  0  0  0  0  0  0  0  0  0
  140.7200   68.4850  228.5500 Cl  0  0  0  0  0  0  0  0  0  0  0  0
  141.1910   70.7240  227.1460 C   0  0  0  0  0  0  0  0  0  0  0  0
  141.0670   71.6050  226.0830 C   0  0  0  0  0  0  0  0  0  0  0  0
  140.2210   71.2270  225.0530 C   0  0  0  0  0  0  0  0  0  0  0  0
  140.0930   72.0760  224.0150 N   0  0  0  0  0  0  0  0  0  0  0  0
  137.7210   73.9480  222.8490 H   0  0  0  0  0  0  0  0  0  0  0  0
  138.5448   74.3614  219.9555 H   0  0  0  0  0  0  0  0  0  0  0  0
  137.0252   74.9687  220.7171 H   0  0  0  0  0  0  0  0  0  0  0  0
  139.2559   75.5533  218.8345 H   0  0  0  0  0  0  0  0  0  0  0  0
  140.5155   76.7725  218.5846 H   0  0  0  0  0  0  0  0  0  0  0  0
  140.7738   73.9101  219.6120 H   0  0  0  0  0  0  0  0  0  0  0  0
  141.6734   74.7282  218.2719 H   0  0  0  0  0  0  0  0  0  0  0  0
  141.9832   75.1374  221.2630 H   0  0  0  0  0  0  0  0  0  0  0  0
  143.1841   74.4762  220.0479 H   0  0  0  0  0  0  0  0  0  0  0  0
  143.8546   76.6499  220.6465 H   0  0  0  0  0  0  0  0  0  0  0  0
  143.1650   76.6578  218.9552 H   0  0  0  0  0  0  0  0  0  0  0  0
  142.5411   78.5186  220.8640 H   0  0  0  0  0  0  0  0  0  0  0  0
  141.4744   78.0890  219.5198 H   0  0  0  0  0  0  0  0  0  0  0  0
  141.5365   76.3787  222.0616 H   0  0  0  0  0  0  0  0  0  0  0  0
  139.4965   77.6677  222.7410 H   0  0  0  0  0  0  0  0  0  0  0  0
  140.9800   79.6048  220.9647 H   0  0  0  0  0  0  0  0  0  0  0  0
  139.2366   79.4980  221.3105 H   0  0  0  0  0  0  0  0  0  0  0  0
  139.9978   81.4190  222.5390 H   0  0  0  0  0  0  0  0  0  0  0  0
  139.8694   80.1237  223.7661 H   0  0  0  0  0  0  0  0  0  0  0  0
  142.7180   79.2237  221.9416 H   0  0  0  0  0  0  0  0  0  0  0  0
  143.3615   79.3755  223.6012 H   0  0  0  0  0  0  0  0  0  0  0  0
  142.0911   77.3331  223.5861 H   0  0  0  0  0  0  0  0  0  0  0  0
  141.0448   78.5266  224.4061 H   0  0  0  0  0  0  0  0  0  0  0  0
  137.9504   70.3876  222.1183 H   0  0  0  0  0  0  0  0  0  0  0  0
  138.1390   68.7836  223.9934 H   0  0  0  0  0  0  0  0  0  0  0  0
  139.1153   68.2088  226.1664 H   0  0  0  0  0  0  0  0  0  0  0  0
  141.8523   70.9824  227.9862 H   0  0  0  0  0  0  0  0  0  0  0  0
  141.6143   72.5589  226.0584 H   0  0  0  0  0  0  0  0  0  0  0  0
  1  2  2  0
  2  3  1  0
  3  4  1  0
  4  5  1  0
  5  6  2  0
  5  7  1  0
  7  8  1  0
  8  9  1  0
  9 10  1  0
 10 11  1  0
 11 12  1  0
 12 13  1  0
 13 14  1  0
 14 15  1  0
 15 16  1  0
 16 17  1  0
 17 18  1  0
 18 19  1  0
  2 20  1  0
 20 21  2  0
 21 22  1  0
 22 23  2  0
 23 24  1  0
 24 25  2  0
 25 26  1  0
 25 27  1  0
 27 28  2  0
 28 29  1  0
 29 30  2  0
 13  7  1  0
 19 14  1  0
 30 20  1  0
 29 23  1  0
  3 31  1  0
  4 32  1  0
  4 33  1  0
  8 34  1  0
  8 35  1  0
  9 36  1  0
  9 37  1  0
 10 38  1  0
 10 39  1  0
 11 40  1  0
 11 41  1  0
 12 42  1  0
 12 43  1  0
 13 44  1  1
 14 45  1  0
 15 46  1  0
 15 47  1  0
 16 48  1  0
 16 49  1  0
 18 50  1  0
 18 51  1  0
 19 52  1  0
 19 53  1  0
 21 54  1  0
 22 55  1  0
 24 56  1  0
 27 57  1  0
 28 58  1  0
M  END
>  <smiles>  (91) 
O=C(NCC(=O)N1CCCCCC1C1CCOCC1)c1ccc2cc(Cl)ccc2n1

>  <score_type>  (91) 
oracle

>  <origin>  (91) 
autodockgpu

>  <m_score__min__energy>  (91) 
-7.0800000000000001

>  <m_primary>  (91) 
energy

>  <rmsd>  (91) 
1.7731295334340003

>  <m_score__min__rmsd>  (91) 
1.7731295334340003

>  <meeko>  (91) 
{"free_energy": -6.08, "intermolecular_energy": -9.36, "internal_energy": -1.62, "cluster_size": 26, "cluster_id": 1, "rank_in_cluster": 17}

>  <energy>  (91) 
-5.44

>  <cluster_rmsd>  (91) 
0.51

>  <cluster>  (91) 
3

$$$$

     RDKit          3D

 58 61  0  0  0  0  0  0  0  0999 V2000
  138.1390   71.3070  221.1740 O   0  0  0  0  0  0  0  0  0  0  0  0
  138.6860   71.8150  222.1720 C   0  0  0  0  0  0  0  0  0  0  0  0
  138.9470   73.2140  222.2640 N   0  0  0  0  0  0  0  0  0  0  0  0
  138.5760   74.1000  221.1780 C   0  0  0  0  0  0  0  0  0  0  0  0
  139.7100   74.2480  220.2030 C   0  0  0  0  0  0  0  0  0  0  0  0
  139.3690   74.4230  219.0040 O   0  0  0  0  0  0  0  0  0  0  0  0
  141.0380   74.1860  220.6630 N   0  0  0  0  0  0  0  0  0  0  0  0
  141.5220   72.8460  220.9940 C   0  0  0  0  0  0  0  0  0  0  0  0
  142.5810   72.5190  219.9600 C   0  0  0  0  0  0  0  0  0  0  0  0
  143.9490   73.0030  220.4000 C   0  0  0  0  0  0  0  0  0  0  0  0
  144.0510   74.4860  220.5500 C   0  0  0  0  0  0  0  0  0  0  0  0
  142.9650   75.2490  219.7940 C   0  0  0  0  0  0  0  0  0  0  0  0
  141.8140   75.3930  220.7690 C   0  0  1  0  0  0  0  0  0  0  0  0
  141.0250   76.6480  220.6030 C   0  0  0  0  0  0  0  0  0  0  0  0
  141.9110   77.8650  220.4330 C   0  0  0  0  0  0  0  0  0  0  0  0
  141.1620   79.0530  221.0040 C   0  0  0  0  0  0  0  0  0  0  0  0
  141.2130   78.9800  222.3970 O   0  0  0  0  0  0  0  0  0  0  0  0
  141.1770   77.6610  222.8430 C   0  0  0  0  0  0  0  0  0  0  0  0
  140.2760   76.8730  221.9140 C   0  0  0  0  0  0  0  0  0  0  0  0
  139.0780   70.9580  223.2900 C   0  0  0  0  0  0  0  0  0  0  0  0
  138.8180   69.6030  223.2600 C   0  0  0  0  0  0  0  0  0  0  0  0
  139.1740   68.7590  224.2980 C   0  0  0  0  0  0  0  0  0  0  0  0
  139.8060   69.2880  225.3990 C   0  0  0  0  0  0  0  0  0  0  0  0
  140.1820   68.4930  226.4610 C   0  0  0  0  0  0  0  0  0  0  0  0
  140.8110   69.0840  227.5300 C   0  0  0  0  0  0  0  0  0  0  0  0
  141.3140   68.1460  228.9060 Cl  0  0  0  0  0  0  0  0  0  0  0  0
  141.0660   70.4490  227.5480 C   0  0  0  0  0  0  0  0  0  0  0  0
  140.6960   71.2640  226.4890 C   0  0  0  0  0  0  0  0  0  0  0  0
  140.0630   70.6510  225.4190 C   0  0  0  0  0  0  0  0  0  0  0  0
  139.7000   71.4360  224.3860 N   0  0  0  0  0  0  0  0  0  0  0  0
  139.4110   73.5840  223.1280 H   0  0  0  0  0  0  0  0  0  0  0  0
  137.7021   73.6842  220.6552 H   0  0  0  0  0  0  0  0  0  0  0  0
  138.3361   75.0894  221.5946 H   0  0  0  0  0  0  0  0  0  0  0  0
  141.9574   72.8353  222.0041 H   0  0  0  0  0  0  0  0  0  0  0  0
  140.7062   72.1082  220.9835 H   0  0  0  0  0  0  0  0  0  0  0  0
  142.6160   71.4291  219.8153 H   0  0  0  0  0  0  0  0  0  0  0  0
  142.3182   73.0281  219.0210 H   0  0  0  0  0  0  0  0  0  0  0  0
  144.1838   72.5405  221.3700 H   0  0  0  0  0  0  0  0  0  0  0  0
  144.6575   72.7141  219.6097 H   0  0  0  0  0  0  0  0  0  0  0  0
  143.9719   74.7345  221.6186 H   0  0  0  0  0  0  0  0  0  0  0  0
  145.0181   74.7896  220.1226 H   0  0  0  0  0  0  0  0  0  0  0  0
  143.3341   76.2387  219.4869 H   0  0  0  0  0  0  0  0  0  0  0  0
  142.6592   74.7214  218.8785 H   0  0  0  0  0  0  0  0  0  0  0  0
  142.1960   75.5075  221.7942 H   0  0  0  0  0  0  0  0  0  0  0  0
  140.3819   76.5351  219.7177 H   0  0  0  0  0  0  0  0  0  0  0  0
  142.8569   77.7205  220.9756 H   0  0  0  0  0  0  0  0  0  0  0  0
  142.1478   78.0284  219.3713 H   0  0  0  0  0  0  0  0  0  0  0  0
  141.6329   79.9871  220.6638 H   0  0  0  0  0  0  0  0  0  0  0  0
  140.1161   79.0386  220.6636 H   0  0  0  0  0  0  0  0  0  0  0  0
  142.1911   77.2350  222.8286 H   0  0  0  0  0  0  0  0  0  0  0  0
  140.7928   77.6179  223.8728 H   0  0  0  0  0  0  0  0  0  0  0  0
  140.0254   75.9043  222.3710 H   0  0  0  0  0  0  0  0  0  0  0  0
  139.3430   77.4257  221.7293 H   0  0  0  0  0  0  0  0  0  0  0  0
  138.3104   69.1790  222.3810 H   0  0  0  0  0  0  0  0  0  0  0  0
  138.9549   67.6825  224.2431 H   0  0  0  0  0  0  0  0  0  0  0  0
  139.9831   67.4112  226.4526 H   0  0  0  0  0  0  0  0  0  0  0  0
  141.5711   70.8921  228.4190 H   0  0  0  0  0  0  0  0  0  0  0  0
  140.8954   72.3457  226.4976 H   0  0  0  0  0  0  0  0  0  0  0  0
  1  2  2  0
  2  3  1  0
  3  4  1  0
  4  5  1  0
  5  6  2  0
  5  7  1  0
  7  8  1  0
  8  9  1  0
  9 10  1  0
 10 11  1  0
 11 12  1  0
 12 13  1  0
 13 14  1  0
 14 15  1  0
 15 16  1  0
 16 17  1  0
 17 18  1  0
 18 19  1  0
  2 20  1  0
 20 21  2  0
 21 22  1  0
 22 23  2  0
 23 24  1  0
 24 25  2  0
 25 26  1  0
 25 27  1  0
 27 28  2  0
 28 29  1  0
 29 30  2  0
 13  7  1  0
 19 14  1  0
 30 20  1  0
 29 23  1  0
  3 31  1  0
  4 32  1  0
  4 33  1  0
  8 34  1  0
  8 35  1  0
  9 36  1  0
  9 37  1  0
 10 38  1  0
 10 39  1  0
 11 40  1  0
 11 41  1  0
 12 42  1  0
 12 43  1  0
 13 44  1  1
 14 45  1  0
 15 46  1  0
 15 47  1  0
 16 48  1  0
 16 49  1  0
 18 50  1  0
 18 51  1  0
 19 52  1  0
 19 53  1  0
 21 54  1  0
 22 55  1  0
 24 56  1  0
 27 57  1  0
 28 58  1  0
M  END
>  <smiles>  (92) 
O=C(NCC(=O)N1CCCCCC1C1CCOCC1)c1ccc2cc(Cl)ccc2n1

>  <score_type>  (92) 
oracle

>  <origin>  (92) 
autodockgpu

>  <m_score__min__energy>  (92) 
-7.0800000000000001

>  <m_primary>  (92) 
energy

>  <rmsd>  (92) 
2.340144945978133

>  <m_score__min__rmsd>  (92) 
2.340144945978133

>  <meeko>  (92) 
{"free_energy": -5.69, "intermolecular_energy": -8.97, "internal_energy": -1.97, "cluster_size": 13, "cluster_id": 2, "rank_in_cluster": 9}

>  <energy>  (92) 
-4.99

>  <cluster_rmsd>  (92) 
0.96

>  <cluster>  (92) 
3

$$$$

     RDKit          3D

 58 61  0  0  0  0  0  0  0  0999 V2000
  139.6030   71.9600  220.6810 O   0  0  0  0  0  0  0  0  0  0  0  0
  139.6450   72.4030  221.8450 C   0  0  0  0  0  0  0  0  0  0  0  0
  139.5730   73.7990  222.1280 N   0  0  0  0  0  0  0  0  0  0  0  0
  139.4450   74.7580  221.0480 C   0  0  0  0  0  0  0  0  0  0  0  0
  139.6600   76.1570  221.5530 C   0  0  0  0  0  0  0  0  0  0  0  0
  139.3710   76.3420  222.7630 O   0  0  0  0  0  0  0  0  0  0  0  0
  140.1510   77.1460  220.6810 N   0  0  0  0  0  0  0  0  0  0  0  0
  139.3970   77.3140  219.4380 C   0  0  0  0  0  0  0  0  0  0  0  0
  140.2710   76.7380  218.3410 C   0  0  0  0  0  0  0  0  0  0  0  0
  141.2760   75.7490  218.8990 C   0  0  0  0  0  0  0  0  0  0  0  0
  142.4580   76.3850  219.5530 C   0  0  0  0  0  0  0  0  0  0  0  0
  142.2510   77.8640  219.8590 C   0  0  0  0  0  0  0  0  0  0  0  0
  141.3130   77.9090  221.0490 C   0  0  1  0  0  0  0  0  0  0  0  0
  141.0160   79.2860  221.5410 C   0  0  0  0  0  0  0  0  0  0  0  0
  142.2440   80.1730  221.5430 C   0  0  0  0  0  0  0  0  0  0  0  0
  142.0730   81.1800  222.6640 C   0  0  0  0  0  0  0  0  0  0  0  0
  142.3090   80.5330  223.8780 O   0  0  0  0  0  0  0  0  0  0  0  0
  141.8680   79.2120  223.8500 C   0  0  0  0  0  0  0  0  0  0  0  0
  140.6110   79.1510  223.0060 C   0  0  0  0  0  0  0  0  0  0  0  0
  139.7730   71.4720  222.9650 C   0  0  0  0  0  0  0  0  0  0  0  0
  139.3850   70.1540  222.8300 C   0  0  0  0  0  0  0  0  0  0  0  0
  139.4910   69.2420  223.8650 C   0  0  0  0  0  0  0  0  0  0  0  0
  139.9990   69.6610  225.0720 C   0  0  0  0  0  0  0  0  0  0  0  0
  140.1270   68.7950  226.1360 C   0  0  0  0  0  0  0  0  0  0  0  0
  140.6430   69.2780  227.3150 C   0  0  0  0  0  0  0  0  0  0  0  0
  140.8340   68.2450  228.7020 Cl  0  0  0  0  0  0  0  0  0  0  0  0
  141.0300   70.6050  227.4380 C   0  0  0  0  0  0  0  0  0  0  0  0
  140.9100   71.4920  226.3780 C   0  0  0  0  0  0  0  0  0  0  0  0
  140.3880   70.9880  225.1980 C   0  0  0  0  0  0  0  0  0  0  0  0
  140.2670   71.8420  224.1630 N   0  0  0  0  0  0  0  0  0  0  0  0
  139.6140   74.1140  223.1270 H   0  0  0  0  0  0  0  0  0  0  0  0
  140.1948   74.5337  220.2750 H   0  0  0  0  0  0  0  0  0  0  0  0
  138.4310   74.6851  220.6280 H   0  0  0  0  0  0  0  0  0  0  0  0
  138.4428   76.7694  219.4927 H   0  0  0  0  0  0  0  0  0  0  0  0
  139.1576   78.3711  219.2505 H   0  0  0  0  0  0  0  0  0  0  0  0
  139.6327   76.2245  217.6069 H   0  0  0  0  0  0  0  0  0  0  0  0
  140.8226   77.5635  217.8674 H   0  0  0  0  0  0  0  0  0  0  0  0
  140.7655   75.1207  219.6438 H   0  0  0  0  0  0  0  0  0  0  0  0
  141.6588   75.1699  218.0457 H   0  0  0  0  0  0  0  0  0  0  0  0
  142.6612   75.8578  220.4968 H   0  0  0  0  0  0  0  0  0  0  0  0
  143.3001   76.3114  218.8492 H   0  0  0  0  0  0  0  0  0  0  0  0
  143.2099   78.3420  220.1081 H   0  0  0  0  0  0  0  0  0  0  0  0
  141.8366   78.4034  218.9946 H   0  0  0  0  0  0  0  0  0  0  0  0
  141.7942   77.4597  221.9302 H   0  0  0  0  0  0  0  0  0  0  0  0
  140.2473   79.7258  220.8886 H   0  0  0  0  0  0  0  0  0  0  0  0
  143.1455   79.5669  221.7161 H   0  0  0  0  0  0  0  0  0  0  0  0
  142.3563   80.6838  220.5753 H   0  0  0  0  0  0  0  0  0  0  0  0
  142.7911   82.0034  222.5363 H   0  0  0  0  0  0  0  0  0  0  0  0
  141.0537   81.5933  222.6482 H   0  0  0  0  0  0  0  0  0  0  0  0
  142.6443   78.5694  223.4090 H   0  0  0  0  0  0  0  0  0  0  0  0
  141.6582   78.8595  224.8706 H   0  0  0  0  0  0  0  0  0  0  0  0
  140.1017   78.1890  223.1648 H   0  0  0  0  0  0  0  0  0  0  0  0
  139.9235   79.9623  223.2874 H   0  0  0  0  0  0  0  0  0  0  0  0
  138.9772   69.8170  221.8656 H   0  0  0  0  0  0  0  0  0  0  0  0
  139.1739   68.1981  223.7245 H   0  0  0  0  0  0  0  0  0  0  0  0
  139.8234   67.7417  226.0441 H   0  0  0  0  0  0  0  0  0  0  0  0
  141.4400   70.9606  228.3948 H   0  0  0  0  0  0  0  0  0  0  0  0
  141.2147   72.5449  226.4702 H   0  0  0  0  0  0  0  0  0  0  0  0
  1  2  2  0
  2  3  1  0
  3  4  1  0
  4  5  1  0
  5  6  2  0
  5  7  1  0
  7  8  1  0
  8  9  1  0
  9 10  1  0
 10 11  1  0
 11 12  1  0
 12 13  1  0
 13 14  1  0
 14 15  1  0
 15 16  1  0
 16 17  1  0
 17 18  1  0
 18 19  1  0
  2 20  1  0
 20 21  2  0
 21 22  1  0
 22 23  2  0
 23 24  1  0
 24 25  2  0
 25 26  1  0
 25 27  1  0
 27 28  2  0
 28 29  1  0
 29 30  2  0
 13  7  1  0
 19 14  1  0
 30 20  1  0
 29 23  1  0
  3 31  1  0
  4 32  1  0
  4 33  1  0
  8 34  1  0
  8 35  1  0
  9 36  1  0
  9 37  1  0
 10 38  1  0
 10 39  1  0
 11 40  1  0
 11 41  1  0
 12 42  1  0
 12 43  1  0
 13 44  1  1
 14 45  1  0
 15 46  1  0
 15 47  1  0
 16 48  1  0
 16 49  1  0
 18 50  1  0
 18 51  1  0
 19 52  1  0
 19 53  1  0
 21 54  1  0
 22 55  1  0
 24 56  1  0
 27 57  1  0
 28 58  1  0
M  END
>  <smiles>  (93) 
O=C(NCC(=O)N1CCCCCC1C1CCOCC1)c1ccc2cc(Cl)ccc2n1

>  <score_type>  (93) 
oracle

>  <origin>  (93) 
autodockgpu

>  <m_score__min__energy>  (93) 
-7.0800000000000001

>  <m_primary>  (93) 
energy

>  <rmsd>  (93) 
1.6604187157763428

>  <m_score__min__rmsd>  (93) 
1.6604187157763428

>  <meeko>  (93) 
{"free_energy": -6.08, "intermolecular_energy": -9.36, "internal_energy": -2.03, "cluster_size": 26, "cluster_id": 1, "rank_in_cluster": 16}

>  <energy>  (93) 
-5.49

>  <cluster_rmsd>  (93) 
0.0

>  <cluster>  (93) 
4

$$$$

     RDKit          3D

 58 61  0  0  0  0  0  0  0  0999 V2000
  140.1660   72.2810  220.7160 O   0  0  0  0  0  0  0  0  0  0  0  0
  139.8150   72.6590  221.8510 C   0  0  0  0  0  0  0  0  0  0  0  0
  139.3790   73.9930  222.1050 N   0  0  0  0  0  0  0  0  0  0  0  0
  139.3320   74.9630  221.0280 C   0  0  0  0  0  0  0  0  0  0  0  0
  139.2430   76.3600  221.5770 C   0  0  0  0  0  0  0  0  0  0  0  0
  138.6150   76.4720  222.6620 O   0  0  0  0  0  0  0  0  0  0  0  0
  139.8400   77.4240  220.8780 N   0  0  0  0  0  0  0  0  0  0  0  0
  139.0540   77.9620  219.7680 C   0  0  0  0  0  0  0  0  0  0  0  0
  139.7960   77.5730  218.5050 C   0  0  0  0  0  0  0  0  0  0  0  0
  140.8280   78.6180  218.1280 C   0  0  0  0  0  0  0  0  0  0  0  0
  141.8700   78.8510  219.1730 C   0  0  0  0  0  0  0  0  0  0  0  0
  142.0670   77.6600  220.1140 C   0  0  0  0  0  0  0  0  0  0  0  0
  141.1340   77.9070  221.2820 C   0  0  1  0  0  0  0  0  0  0  0  0
  141.1380   79.3130  221.7820 C   0  0  0  0  0  0  0  0  0  0  0  0
  142.5410   79.8430  221.9940 C   0  0  0  0  0  0  0  0  0  0  0  0
  142.4750   80.8580  223.1190 C   0  0  0  0  0  0  0  0  0  0  0  0
  142.3500   80.1700  224.3280 O   0  0  0  0  0  0  0  0  0  0  0  0
  141.5890   79.0130  224.1840 C   0  0  0  0  0  0  0  0  0  0  0  0
  140.4990   79.2880  223.1670 C   0  0  0  0  0  0  0  0  0  0  0  0
  139.8470   71.7130  222.9650 C   0  0  0  0  0  0  0  0  0  0  0  0
  139.3870   70.4210  222.8020 C   0  0  0  0  0  0  0  0  0  0  0  0
  139.4010   69.4960  223.8320 C   0  0  0  0  0  0  0  0  0  0  0  0
  139.8880   69.8760  225.0610 C   0  0  0  0  0  0  0  0  0  0  0  0
  139.9250   68.9950  226.1210 C   0  0  0  0  0  0  0  0  0  0  0  0
  140.4260   69.4370  227.3210 C   0  0  0  0  0  0  0  0  0  0  0  0
  140.5040   68.3840  228.7040 Cl  0  0  0  0  0  0  0  0  0  0  0  0
  140.8850   70.7390  227.4720 C   0  0  0  0  0  0  0  0  0  0  0  0
  140.8570   71.6390  226.4170 C   0  0  0  0  0  0  0  0  0  0  0  0
  140.3490   71.1760  225.2140 C   0  0  0  0  0  0  0  0  0  0  0  0
  140.3170   72.0430  224.1840 N   0  0  0  0  0  0  0  0  0  0  0  0
  139.0960   74.2530  223.0800 H   0  0  0  0  0  0  0  0  0  0  0  0
  140.2434   74.8714  220.4190 H   0  0  0  0  0  0  0  0  0  0  0  0
  138.4416   74.7666  220.4126 H   0  0  0  0  0  0  0  0  0  0  0  0
  138.0441   77.5259  219.7679 H   0  0  0  0  0  0  0  0  0  0  0  0
  138.9377   79.0529  219.8477 H   0  0  0  0  0  0  0  0  0  0  0  0
  140.3037   76.6111  218.6696 H   0  0  0  0  0  0  0  0  0  0  0  0
  139.0672   77.4932  217.6849 H   0  0  0  0  0  0  0  0  0  0  0  0
  141.3306   78.2903  217.2060 H   0  0  0  0  0  0  0  0  0  0  0  0
  140.2868   79.5674  218.0024 H   0  0  0  0  0  0  0  0  0  0  0  0
  142.8261   79.0601  218.6709 H   0  0  0  0  0  0  0  0  0  0  0  0
  141.5285   79.6966  219.7880 H   0  0  0  0  0  0  0  0  0  0  0  0
  141.8051   76.7207  219.6050 H   0  0  0  0  0  0  0  0  0  0  0  0
  143.1133   77.5671  220.4406 H   0  0  0  0  0  0  0  0  0  0  0  0
  141.4817   77.3577  222.1694 H   0  0  0  0  0  0  0  0  0  0  0  0
  140.6165   79.9419  221.0455 H   0  0  0  0  0  0  0  0  0  0  0  0
  143.2167   79.0198  222.2690 H   0  0  0  0  0  0  0  0  0  0  0  0
  142.9252   80.3067  221.0735 H   0  0  0  0  0  0  0  0  0  0  0  0
  143.3944   81.4618  223.1287 H   0  0  0  0  0  0  0  0  0  0  0  0
  141.6135   81.5265  222.9743 H   0  0  0  0  0  0  0  0  0  0  0  0
  142.2270   78.1887  223.8326 H   0  0  0  0  0  0  0  0  0  0  0  0
  141.1455   78.7268  225.1491 H   0  0  0  0  0  0  0  0  0  0  0  0
  139.7382   78.4948  223.2123 H   0  0  0  0  0  0  0  0  0  0  0  0
  140.0136   80.2518  223.3801 H   0  0  0  0  0  0  0  0  0  0  0  0
  138.9960   70.1164  221.8200 H   0  0  0  0  0  0  0  0  0  0  0  0
  139.0287   68.4737  223.6701 H   0  0  0  0  0  0  0  0  0  0  0  0
  139.5619   67.9628  226.0083 H   0  0  0  0  0  0  0  0  0  0  0  0
  141.2783   71.0627  228.4470 H   0  0  0  0  0  0  0  0  0  0  0  0
  141.2207   72.6710  226.5300 H   0  0  0  0  0  0  0  0  0  0  0  0
  1  2  2  0
  2  3  1  0
  3  4  1  0
  4  5  1  0
  5  6  2  0
  5  7  1  0
  7  8  1  0
  8  9  1  0
  9 10  1  0
 10 11  1  0
 11 12  1  0
 12 13  1  0
 13 14  1  0
 14 15  1  0
 15 16  1  0
 16 17  1  0
 17 18  1  0
 18 19  1  0
  2 20  1  0
 20 21  2  0
 21 22  1  0
 22 23  2  0
 23 24  1  0
 24 25  2  0
 25 26  1  0
 25 27  1  0
 27 28  2  0
 28 29  1  0
 29 30  2  0
 13  7  1  0
 19 14  1  0
 30 20  1  0
 29 23  1  0
  3 31  1  0
  4 32  1  0
  4 33  1  0
  8 34  1  0
  8 35  1  0
  9 36  1  0
  9 37  1  0
 10 38  1  0
 10 39  1  0
 11 40  1  0
 11 41  1  0
 12 42  1  0
 12 43  1  0
 13 44  1  1
 14 45  1  0
 15 46  1  0
 15 47  1  0
 16 48  1  0
 16 49  1  0
 18 50  1  0
 18 51  1  0
 19 52  1  0
 19 53  1  0
 21 54  1  0
 22 55  1  0
 24 56  1  0
 27 57  1  0
 28 58  1  0
M  END
>  <smiles>  (94) 
O=C(NCC(=O)N1CCCCCC1C1CCOCC1)c1ccc2cc(Cl)ccc2n1

>  <score_type>  (94) 
oracle

>  <origin>  (94) 
autodockgpu

>  <m_score__min__energy>  (94) 
-7.0800000000000001

>  <m_primary>  (94) 
energy

>  <rmsd>  (94) 
2.0000280342805863

>  <m_score__min__rmsd>  (94) 
2.0000280342805863

>  <meeko>  (94) 
{"free_energy": -5.8, "intermolecular_energy": -9.09, "internal_energy": -1.96, "cluster_size": 26, "cluster_id": 1, "rank_in_cluster": 19}

>  <energy>  (94) 
-4.99

>  <cluster_rmsd>  (94) 
0.0

>  <cluster>  (94) 
5

$$$$

     RDKit          3D

 58 61  0  0  0  0  0  0  0  0999 V2000
  140.0950   72.3290  220.6780 O   0  0  0  0  0  0  0  0  0  0  0  0
  139.6890   72.6750  221.8040 C   0  0  0  0  0  0  0  0  0  0  0  0
  139.1410   73.9690  222.0470 N   0  0  0  0  0  0  0  0  0  0  0  0
  139.0410   74.9350  220.9700 C   0  0  0  0  0  0  0  0  0  0  0  0
  139.5720   76.2720  221.4050 C   0  0  0  0  0  0  0  0  0  0  0  0
  138.7000   77.1060  221.7620 O   0  0  0  0  0  0  0  0  0  0  0  0
  140.9580   76.5110  221.3890 N   0  0  0  0  0  0  0  0  0  0  0  0
  141.7950   75.3250  221.2080 C   0  0  0  0  0  0  0  0  0  0  0  0
  142.3210   75.4000  219.7880 C   0  0  0  0  0  0  0  0  0  0  0  0
  141.5460   76.4120  218.9660 C   0  0  0  0  0  0  0  0  0  0  0  0
  141.9800   77.8260  219.1720 C   0  0  0  0  0  0  0  0  0  0  0  0
  141.1660   78.5650  220.2320 C   0  0  0  0  0  0  0  0  0  0  0  0
  141.4530   77.8530  221.5390 C   0  0  1  0  0  0  0  0  0  0  0  0
  140.9440   78.5650  222.7480 C   0  0  0  0  0  0  0  0  0  0  0  0
  140.1160   79.7830  222.3910 C   0  0  0  0  0  0  0  0  0  0  0  0
  140.2830   80.7880  223.5140 C   0  0  0  0  0  0  0  0  0  0  0  0
  141.5430   81.3780  223.3960 O   0  0  0  0  0  0  0  0  0  0  0  0
  142.4890   80.4740  222.9190 C   0  0  0  0  0  0  0  0  0  0  0  0
  142.1650   79.1070  223.4850 C   0  0  0  0  0  0  0  0  0  0  0  0
  139.7720   71.7330  222.9190 C   0  0  0  0  0  0  0  0  0  0  0  0
  139.2940   70.4450  222.7860 C   0  0  0  0  0  0  0  0  0  0  0  0
  139.3550   69.5240  223.8180 C   0  0  0  0  0  0  0  0  0  0  0  0
  139.9080   69.9040  225.0170 C   0  0  0  0  0  0  0  0  0  0  0  0
  139.9940   69.0270  226.0770 C   0  0  0  0  0  0  0  0  0  0  0  0
  140.5590   69.4700  227.2490 C   0  0  0  0  0  0  0  0  0  0  0  0
  140.7020   68.4220  228.6300 Cl  0  0  0  0  0  0  0  0  0  0  0  0
  141.0360   70.7680  227.3700 C   0  0  0  0  0  0  0  0  0  0  0  0
  140.9590   71.6650  226.3140 C   0  0  0  0  0  0  0  0  0  0  0  0
  140.3860   71.2010  225.1410 C   0  0  0  0  0  0  0  0  0  0  0  0
  140.3070   72.0650  224.1100 N   0  0  0  0  0  0  0  0  0  0  0  0
  138.8160   74.2050  223.0160 H   0  0  0  0  0  0  0  0  0  0  0  0
  139.6246   74.5775  220.1088 H   0  0  0  0  0  0  0  0  0  0  0  0
  137.9824   75.0478  220.6931 H   0  0  0  0  0  0  0  0  0  0  0  0
  142.6286   75.3319  221.9256 H   0  0  0  0  0  0  0  0  0  0  0  0
  141.2260   74.3993  221.3794 H   0  0  0  0  0  0  0  0  0  0  0  0
  143.3804   75.6949  219.8134 H   0  0  0  0  0  0  0  0  0  0  0  0
  142.2035   74.4108  219.3215 H   0  0  0  0  0  0  0  0  0  0  0  0
  141.6735   76.1631  217.9021 H   0  0  0  0  0  0  0  0  0  0  0  0
  140.4979   76.3511  219.2942 H   0  0  0  0  0  0  0  0  0  0  0  0
  143.0354   77.8246  219.4819 H   0  0  0  0  0  0  0  0  0  0  0  0
  141.8255   78.3538  218.2193 H   0  0  0  0  0  0  0  0  0  0  0  0
  141.4796   79.6177  220.2917 H   0  0  0  0  0  0  0  0  0  0  0  0
  140.0919   78.5615  219.9948 H   0  0  0  0  0  0  0  0  0  0  0  0
  142.5357   77.8361  221.7328 H   0  0  0  0  0  0  0  0  0  0  0  0
  140.3298   77.8610  223.3287 H   0  0  0  0  0  0  0  0  0  0  0  0
  140.4711   80.2149  221.4437 H   0  0  0  0  0  0  0  0  0  0  0  0
  139.0574   79.5109  222.2667 H   0  0  0  0  0  0  0  0  0  0  0  0
  139.5032   81.5602  223.4400 H   0  0  0  0  0  0  0  0  0  0  0  0
  140.1921   80.2842  224.4876 H   0  0  0  0  0  0  0  0  0  0  0  0
  142.4511   80.4405  221.8202 H   0  0  0  0  0  0  0  0  0  0  0  0
  143.4988   80.7830  223.2268 H   0  0  0  0  0  0  0  0  0  0  0  0
  143.0198   78.4305  223.3378 H   0  0  0  0  0  0  0  0  0  0  0  0
  141.9575   79.1806  224.5627 H   0  0  0  0  0  0  0  0  0  0  0  0
  138.8494   70.1398  221.8273 H   0  0  0  0  0  0  0  0  0  0  0  0
  138.9668   68.5040  223.6801 H   0  0  0  0  0  0  0  0  0  0  0  0
  139.6192   67.9967  225.9870 H   0  0  0  0  0  0  0  0  0  0  0  0
  141.4836   71.0917  228.3212 H   0  0  0  0  0  0  0  0  0  0  0  0
  141.3348   72.6949  226.4039 H   0  0  0  0  0  0  0  0  0  0  0  0
  1  2  2  0
  2  3  1  0
  3  4  1  0
  4  5  1  0
  5  6  2  0
  5  7  1  0
  7  8  1  0
  8  9  1  0
  9 10  1  0
 10 11  1  0
 11 12  1  0
 12 13  1  0
 13 14  1  0
 14 15  1  0
 15 16  1  0
 16 17  1  0
 17 18  1  0
 18 19  1  0
  2 20  1  0
 20 21  2  0
 21 22  1  0
 22 23  2  0
 23 24  1  0
 24 25  2  0
 25 26  1  0
 25 27  1  0
 27 28  2  0
 28 29  1  0
 29 30  2  0
 13  7  1  0
 19 14  1  0
 30 20  1  0
 29 23  1  0
  3 31  1  0
  4 32  1  0
  4 33  1  0
  8 34  1  0
  8 35  1  0
  9 36  1  0
  9 37  1  0
 10 38  1  0
 10 39  1  0
 11 40  1  0
 11 41  1  0
 12 42  1  0
 12 43  1  0
 13 44  1  1
 14 45  1  0
 15 46  1  0
 15 47  1  0
 16 48  1  0
 16 49  1  0
 18 50  1  0
 18 51  1  0
 19 52  1  0
 19 53  1  0
 21 54  1  0
 22 55  1  0
 24 56  1  0
 27 57  1  0
 28 58  1  0
M  END
>  <smiles>  (95) 
O=C(NCC(=O)N1CCCCCC1C1CCOCC1)c1ccc2cc(Cl)ccc2n1

>  <score_type>  (95) 
oracle

>  <origin>  (95) 
autodockgpu

>  <m_score__min__energy>  (95) 
-7.0800000000000001

>  <m_primary>  (95) 
energy

>  <rmsd>  (95) 
2.170213771032232

>  <m_score__min__rmsd>  (95) 
2.170213771032232

>  <meeko>  (95) 
{"free_energy": -6.91, "intermolecular_energy": -10.19, "internal_energy": -1.69, "cluster_size": 26, "cluster_id": 1, "rank_in_cluster": 3}

>  <energy>  (95) 
-4.75

>  <cluster_rmsd>  (95) 
0.0

>  <cluster>  (95) 
6

$$$$

     RDKit          3D

 58 61  0  0  0  0  0  0  0  0999 V2000
  139.9440   72.1640  220.6250 O   0  0  0  0  0  0  0  0  0  0  0  0
  139.9180   72.6080  221.7900 C   0  0  0  0  0  0  0  0  0  0  0  0
  139.8650   74.0050  222.0680 N   0  0  0  0  0  0  0  0  0  0  0  0
  139.8410   74.9660  220.9820 C   0  0  0  0  0  0  0  0  0  0  0  0
  141.0400   75.8700  221.0470 C   0  0  0  0  0  0  0  0  0  0  0  0
  141.0560   76.6730  222.0160 O   0  0  0  0  0  0  0  0  0  0  0  0
  142.0400   75.7760  220.0620 N   0  0  0  0  0  0  0  0  0  0  0  0
  142.4950   77.0510  219.5100 C   0  0  0  0  0  0  0  0  0  0  0  0
  141.5560   77.3670  218.3620 C   0  0  0  0  0  0  0  0  0  0  0  0
  141.8800   76.5300  217.1400 C   0  0  0  0  0  0  0  0  0  0  0  0
  141.9290   75.0610  217.4020 C   0  0  0  0  0  0  0  0  0  0  0  0
  143.1050   74.6450  218.2770 C   0  0  0  0  0  0  0  0  0  0  0  0
  142.5410   74.4840  219.6750 C   0  0  1  0  0  0  0  0  0  0  0  0
  143.4900   73.8740  220.6500 C   0  0  0  0  0  0  0  0  0  0  0  0
  144.8860   74.4530  220.5330 C   0  0  0  0  0  0  0  0  0  0  0  0
  145.8610   73.3660  220.9420 C   0  0  0  0  0  0  0  0  0  0  0  0
  145.9550   72.4420  219.9000 O   0  0  0  0  0  0  0  0  0  0  0  0
  144.7370   72.2840  219.2430 C   0  0  0  0  0  0  0  0  0  0  0  0
  143.6280   72.4030  220.2690 C   0  0  0  0  0  0  0  0  0  0  0  0
  139.9400   71.6740  222.9140 C   0  0  0  0  0  0  0  0  0  0  0  0
  139.4850   70.3800  222.7620 C   0  0  0  0  0  0  0  0  0  0  0  0
  139.4910   69.4660  223.8020 C   0  0  0  0  0  0  0  0  0  0  0  0
  139.9650   69.8610  225.0310 C   0  0  0  0  0  0  0  0  0  0  0  0
  139.9930   68.9920  226.1010 C   0  0  0  0  0  0  0  0  0  0  0  0
  140.4800   69.4490  227.3020 C   0  0  0  0  0  0  0  0  0  0  0  0
  140.5470   68.4120  228.6970 Cl  0  0  0  0  0  0  0  0  0  0  0  0
  140.9350   70.7530  227.4420 C   0  0  0  0  0  0  0  0  0  0  0  0
  140.9150   71.6410  226.3770 C   0  0  0  0  0  0  0  0  0  0  0  0
  140.4210   71.1640  225.1740 C   0  0  0  0  0  0  0  0  0  0  0  0
  140.3970   72.0190  224.1340 N   0  0  0  0  0  0  0  0  0  0  0  0
  139.8450   74.3200  223.0670 H   0  0  0  0  0  0  0  0  0  0  0  0
  139.8462   74.4274  220.0229 H   0  0  0  0  0  0  0  0  0  0  0  0
  138.9312   75.5778  221.0707 H   0  0  0  0  0  0  0  0  0  0  0  0
  142.4424   77.8395  220.2752 H   0  0  0  0  0  0  0  0  0  0  0  0
  143.5403   76.9943  219.1722 H   0  0  0  0  0  0  0  0  0  0  0  0
  140.5227   77.1578  218.6761 H   0  0  0  0  0  0  0  0  0  0  0  0
  141.6748   78.4282  218.0979 H   0  0  0  0  0  0  0  0  0  0  0  0
  141.1099   76.7193  216.3777 H   0  0  0  0  0  0  0  0  0  0  0  0
  142.8866   76.8268  216.8104 H   0  0  0  0  0  0  0  0  0  0  0  0
  140.9969   74.7646  217.9054 H   0  0  0  0  0  0  0  0  0  0  0  0
  142.0519   74.5601  216.4304 H   0  0  0  0  0  0  0  0  0  0  0  0
  143.5287   73.6937  217.9227 H   0  0  0  0  0  0  0  0  0  0  0  0
  143.9142   75.3896  218.2495 H   0  0  0  0  0  0  0  0  0  0  0  0
  141.7239   73.7475  219.6741 H   0  0  0  0  0  0  0  0  0  0  0  0
  143.1024   74.0528  221.6638 H   0  0  0  0  0  0  0  0  0  0  0  0
  145.0798   74.7614  219.4951 H   0  0  0  0  0  0  0  0  0  0  0  0
  144.9960   75.3374  221.1778 H   0  0  0  0  0  0  0  0  0  0  0  0
  146.8494   73.8078  221.1367 H   0  0  0  0  0  0  0  0  0  0  0  0
  145.5088   72.8680  221.8574 H   0  0  0  0  0  0  0  0  0  0  0  0
  144.6222   73.0659  218.4779 H   0  0  0  0  0  0  0  0  0  0  0  0
  144.6953   71.3016  218.7499 H   0  0  0  0  0  0  0  0  0  0  0  0
  142.6828   72.0387  219.8402 H   0  0  0  0  0  0  0  0  0  0  0  0
  143.8651   71.7999  221.1579 H   0  0  0  0  0  0  0  0  0  0  0  0
  139.1041   70.0635  221.7798 H   0  0  0  0  0  0  0  0  0  0  0  0
  139.1228   68.4410  223.6478 H   0  0  0  0  0  0  0  0  0  0  0  0
  139.6341   67.9575  225.9958 H   0  0  0  0  0  0  0  0  0  0  0  0
  141.3189   71.0885  228.4167 H   0  0  0  0  0  0  0  0  0  0  0  0
  141.2744   72.6752  226.4826 H   0  0  0  0  0  0  0  0  0  0  0  0
  1  2  2  0
  2  3  1  0
  3  4  1  0
  4  5  1  0
  5  6  2  0
  5  7  1  0
  7  8  1  0
  8  9  1  0
  9 10  1  0
 10 11  1  0
 11 12  1  0
 12 13  1  0
 13 14  1  0
 14 15  1  0
 15 16  1  0
 16 17  1  0
 17 18  1  0
 18 19  1  0
  2 20  1  0
 20 21  2  0
 21 22  1  0
 22 23  2  0
 23 24  1  0
 24 25  2  0
 25 26  1  0
 25 27  1  0
 27 28  2  0
 28 29  1  0
 29 30  2  0
 13  7  1  0
 19 14  1  0
 30 20  1  0
 29 23  1  0
  3 31  1  0
  4 32  1  0
  4 33  1  0
  8 34  1  0
  8 35  1  0
  9 36  1  0
  9 37  1  0
 10 38  1  0
 10 39  1  0
 11 40  1  0
 11 41  1  0
 12 42  1  0
 12 43  1  0
 13 44  1  6
 14 45  1  0
 15 46  1  0
 15 47  1  0
 16 48  1  0
 16 49  1  0
 18 50  1  0
 18 51  1  0
 19 52  1  0
 19 53  1  0
 21 54  1  0
 22 55  1  0
 24 56  1  0
 27 57  1  0
 28 58  1  0
M  END
>  <smiles>  (96) 
O=C(NCC(=O)N1CCCCCC1C1CCOCC1)c1ccc2cc(Cl)ccc2n1

>  <score_type>  (96) 
oracle

>  <origin>  (96) 
autodockgpu

>  <m_score__min__energy>  (96) 
-7.0800000000000001

>  <m_primary>  (96) 
energy

>  <rmsd>  (96) 
2.4339230426100946

>  <m_score__min__rmsd>  (96) 
2.4339230426100946

>  <meeko>  (96) 
{"free_energy": -5.9, "intermolecular_energy": -9.18, "internal_energy": -2.09, "cluster_size": 13, "cluster_id": 2, "rank_in_cluster": 7}

>  <energy>  (96) 
-4.73

>  <cluster_rmsd>  (96) 
0.75

>  <cluster>  (96) 
6

$$$$

     RDKit          3D

 58 61  0  0  0  0  0  0  0  0999 V2000
  140.6210   71.9840  220.8710 O   0  0  0  0  0  0  0  0  0  0  0  0
  140.1020   72.3560  221.9420 C   0  0  0  0  0  0  0  0  0  0  0  0
  139.5150   73.6470  222.0930 N   0  0  0  0  0  0  0  0  0  0  0  0
  139.5070   74.5800  220.9830 C   0  0  0  0  0  0  0  0  0  0  0  0
  140.8810   75.1450  220.7560 C   0  0  0  0  0  0  0  0  0  0  0  0
  141.5280   75.4220  221.7990 O   0  0  0  0  0  0  0  0  0  0  0  0
  141.3520   75.3290  219.4430 N   0  0  0  0  0  0  0  0  0  0  0  0
  140.3510   75.7860  218.4790 C   0  0  0  0  0  0  0  0  0  0  0  0
  140.1420   77.2610  218.7630 C   0  0  0  0  0  0  0  0  0  0  0  0
  141.4640   78.0020  218.8240 C   0  0  0  0  0  0  0  0  0  0  0  0
  142.4570   77.4000  219.7630 C   0  0  0  0  0  0  0  0  0  0  0  0
  143.4180   76.4260  219.0880 C   0  0  0  0  0  0  0  0  0  0  0  0
  142.7340   75.0750  219.1380 C   0  0  1  0  0  0  0  0  0  0  0  0
  143.3930   74.0890  220.0440 C   0  0  0  0  0  0  0  0  0  0  0  0
  144.7880   74.5210  220.4460 C   0  0  0  0  0  0  0  0  0  0  0  0
  145.6010   73.2630  220.6810 C   0  0  0  0  0  0  0  0  0  0  0  0
  145.9270   72.7100  219.4410 O   0  0  0  0  0  0  0  0  0  0  0  0
  144.9090   72.9010  218.5110 C   0  0  0  0  0  0  0  0  0  0  0  0
  143.5820   72.8080  219.2370 C   0  0  0  0  0  0  0  0  0  0  0  0
  140.0880   71.4460  223.0870 C   0  0  0  0  0  0  0  0  0  0  0  0
  139.5660   70.1740  222.9660 C   0  0  0  0  0  0  0  0  0  0  0  0
  139.5350   69.2840  224.0260 C   0  0  0  0  0  0  0  0  0  0  0  0
  140.0410   69.6800  225.2420 C   0  0  0  0  0  0  0  0  0  0  0  0
  140.0360   68.8330  226.3300 C   0  0  0  0  0  0  0  0  0  0  0  0
  140.5580   69.2900  227.5160 C   0  0  0  0  0  0  0  0  0  0  0  0
  140.5860   68.2810  228.9330 Cl  0  0  0  0  0  0  0  0  0  0  0  0
  141.0800   70.5720  227.6240 C   0  0  0  0  0  0  0  0  0  0  0  0
  141.0950   71.4370  226.5410 C   0  0  0  0  0  0  0  0  0  0  0  0
  140.5650   70.9600  225.3520 C   0  0  0  0  0  0  0  0  0  0  0  0
  140.5740   71.7940  224.2940 N   0  0  0  0  0  0  0  0  0  0  0  0
  139.0940   73.9040  223.0180 H   0  0  0  0  0  0  0  0  0  0  0  0
  139.1766   74.0568  220.0735 H   0  0  0  0  0  0  0  0  0  0  0  0
  138.8191   75.4053  221.2188 H   0  0  0  0  0  0  0  0  0  0  0  0
  140.7161   75.6424  217.4514 H   0  0  0  0  0  0  0  0  0  0  0  0
  139.4124   75.2201  218.5730 H   0  0  0  0  0  0  0  0  0  0  0  0
  139.5238   77.6959  217.9639 H   0  0  0  0  0  0  0  0  0  0  0  0
  139.6426   77.3600  219.7381 H   0  0  0  0  0  0  0  0  0  0  0  0
  141.9028   78.0096  217.8153 H   0  0  0  0  0  0  0  0  0  0  0  0
  141.2445   79.0125  219.1991 H   0  0  0  0  0  0  0  0  0  0  0  0
  143.0449   78.2119  220.2160 H   0  0  0  0  0  0  0  0  0  0  0  0
  141.8895   76.8286  220.5123 H   0  0  0  0  0  0  0  0  0  0  0  0
  143.5988   76.7261  218.0453 H   0  0  0  0  0  0  0  0  0  0  0  0
  144.3956   76.4052  219.5918 H   0  0  0  0  0  0  0  0  0  0  0  0
  142.8184   74.5701  218.1644 H   0  0  0  0  0  0  0  0  0  0  0  0
  142.7696   73.9792  220.9436 H   0  0  0  0  0  0  0  0  0  0  0  0
  145.2431   75.1183  219.6422 H   0  0  0  0  0  0  0  0  0  0  0  0
  144.7567   75.1393  221.3553 H   0  0  0  0  0  0  0  0  0  0  0  0
  146.5211   73.5126  221.2298 H   0  0  0  0  0  0  0  0  0  0  0  0
  145.0189   72.5426  221.2745 H   0  0  0  0  0  0  0  0  0  0  0  0
  145.0105   73.8927  218.0460 H   0  0  0  0  0  0  0  0  0  0  0  0
  144.9656   72.1360  217.7226 H   0  0  0  0  0  0  0  0  0  0  0  0
  142.7648   72.7023  218.5083 H   0  0  0  0  0  0  0  0  0  0  0  0
  143.5724   71.9327  219.9032 H   0  0  0  0  0  0  0  0  0  0  0  0
  139.1607   69.8565  221.9939 H   0  0  0  0  0  0  0  0  0  0  0  0
  139.1125   68.2765  223.8977 H   0  0  0  0  0  0  0  0  0  0  0  0
  139.6241   67.8161  226.2504 H   0  0  0  0  0  0  0  0  0  0  0  0
  141.4897   70.9079  228.5880 H   0  0  0  0  0  0  0  0  0  0  0  0
  141.5077   72.4535  226.6211 H   0  0  0  0  0  0  0  0  0  0  0  0
  1  2  2  0
  2  3  1  0
  3  4  1  0
  4  5  1  0
  5  6  2  0
  5  7  1  0
  7  8  1  0
  8  9  1  0
  9 10  1  0
 10 11  1  0
 11 12  1  0
 12 13  1  0
 13 14  1  0
 14 15  1  0
 15 16  1  0
 16 17  1  0
 17 18  1  0
 18 19  1  0
  2 20  1  0
 20 21  2  0
 21 22  1  0
 22 23  2  0
 23 24  1  0
 24 25  2  0
 25 26  1  0
 25 27  1  0
 27 28  2  0
 28 29  1  0
 29 30  2  0
 13  7  1  0
 19 14  1  0
 30 20  1  0
 29 23  1  0
  3 31  1  0
  4 32  1  0
  4 33  1  0
  8 34  1  0
  8 35  1  0
  9 36  1  0
  9 37  1  0
 10 38  1  0
 10 39  1  0
 11 40  1  0
 11 41  1  0
 12 42  1  0
 12 43  1  0
 13 44  1  6
 14 45  1  0
 15 46  1  0
 15 47  1  0
 16 48  1  0
 16 49  1  0
 18 50  1  0
 18 51  1  0
 19 52  1  0
 19 53  1  0
 21 54  1  0
 22 55  1  0
 24 56  1  0
 27 57  1  0
 28 58  1  0
M  END
>  <smiles>  (97) 
O=C(NCC(=O)N1CCCCCC1C1CCOCC1)c1ccc2cc(Cl)ccc2n1

>  <score_type>  (97) 
oracle

>  <origin>  (97) 
autodockgpu

>  <m_score__min__energy>  (97) 
-7.0800000000000001

>  <m_primary>  (97) 
energy

>  <rmsd>  (97) 
1.8460434078245274

>  <m_score__min__rmsd>  (97) 
1.8460434078245274

>  <meeko>  (97) 
{"free_energy": -6.78, "intermolecular_energy": -10.06, "internal_energy": -1.69, "cluster_size": 13, "cluster_id": 2, "rank_in_cluster": 1}

>  <energy>  (97) 
-4.6

>  <cluster_rmsd>  (97) 
1.21

>  <cluster>  (97) 
6

$$$$

     RDKit          3D

 58 61  0  0  0  0  0  0  0  0999 V2000
  139.5390   72.1270  220.7070 O   0  0  0  0  0  0  0  0  0  0  0  0
  139.4900   72.5690  221.8720 C   0  0  0  0  0  0  0  0  0  0  0  0
  139.3090   73.9560  222.1490 N   0  0  0  0  0  0  0  0  0  0  0  0
  139.1770   74.9070  221.0630 C   0  0  0  0  0  0  0  0  0  0  0  0
  139.6410   76.2710  221.4920 C   0  0  0  0  0  0  0  0  0  0  0  0
  138.7550   77.0040  222.0040 O   0  0  0  0  0  0  0  0  0  0  0  0
  140.9850   76.6410  221.3060 N   0  0  0  0  0  0  0  0  0  0  0  0
  141.8360   75.6200  220.6950 C   0  0  0  0  0  0  0  0  0  0  0  0
  141.5080   75.6370  219.2150 C   0  0  0  0  0  0  0  0  0  0  0  0
  141.5070   77.0520  218.6680 C   0  0  0  0  0  0  0  0  0  0  0  0
  140.6260   77.9950  219.4190 C   0  0  0  0  0  0  0  0  0  0  0  0
  141.3690   78.8190  220.4650 C   0  0  0  0  0  0  0  0  0  0  0  0
  141.4270   77.9500  221.7060 C   0  0  1  0  0  0  0  0  0  0  0  0
  140.7000   78.5130  222.8810 C   0  0  0  0  0  0  0  0  0  0  0  0
  139.8670   79.7240  222.5150 C   0  0  0  0  0  0  0  0  0  0  0  0
  139.8030   80.6160  223.7400 C   0  0  0  0  0  0  0  0  0  0  0  0
  141.0290   81.2680  223.8770 O   0  0  0  0  0  0  0  0  0  0  0  0
  142.0880   80.4600  223.4710 C   0  0  0  0  0  0  0  0  0  0  0  0
  141.7620   79.0290  223.8480 C   0  0  0  0  0  0  0  0  0  0  0  0
  139.6190   71.6450  222.9970 C   0  0  0  0  0  0  0  0  0  0  0  0
  139.1960   70.3350  222.8820 C   0  0  0  0  0  0  0  0  0  0  0  0
  139.3010   69.4300  223.9240 C   0  0  0  0  0  0  0  0  0  0  0  0
  139.8460   69.8480  225.1160 C   0  0  0  0  0  0  0  0  0  0  0  0
  139.9750   68.9890  226.1860 C   0  0  0  0  0  0  0  0  0  0  0  0
  140.5280   69.4690  227.3480 C   0  0  0  0  0  0  0  0  0  0  0  0
  140.7230   68.4450  228.7410 Cl  0  0  0  0  0  0  0  0  0  0  0  0
  140.9490   70.7880  227.4500 C   0  0  0  0  0  0  0  0  0  0  0  0
  140.8280   71.6670  226.3850 C   0  0  0  0  0  0  0  0  0  0  0  0
  140.2690   71.1660  225.2210 C   0  0  0  0  0  0  0  0  0  0  0  0
  140.1470   72.0130  224.1800 N   0  0  0  0  0  0  0  0  0  0  0  0
  139.2760   74.2690  223.1490 H   0  0  0  0  0  0  0  0  0  0  0  0
  139.7862   74.5696  220.2115 H   0  0  0  0  0  0  0  0  0  0  0  0
  138.1175   74.9686  220.7736 H   0  0  0  0  0  0  0  0  0  0  0  0
  142.8974   75.8610  220.8545 H   0  0  0  0  0  0  0  0  0  0  0  0
  141.6579   74.6285  221.1368 H   0  0  0  0  0  0  0  0  0  0  0  0
  142.2603   75.0441  218.6742 H   0  0  0  0  0  0  0  0  0  0  0  0
  140.5038   75.2100  219.0765 H   0  0  0  0  0  0  0  0  0  0  0  0
  142.5366   77.4374  218.7050 H   0  0  0  0  0  0  0  0  0  0  0  0
  141.1111   76.9958  217.6433 H   0  0  0  0  0  0  0  0  0  0  0  0
  140.1602   78.6843  218.6993 H   0  0  0  0  0  0  0  0  0  0  0  0
  139.8827   77.3863  219.9547 H   0  0  0  0  0  0  0  0  0  0  0  0
  142.3845   79.0569  220.1155 H   0  0  0  0  0  0  0  0  0  0  0  0
  140.8634   79.7758  220.6624 H   0  0  0  0  0  0  0  0  0  0  0  0
  142.4572   77.9000  222.0884 H   0  0  0  0  0  0  0  0  0  0  0  0
  140.0463   77.7282  223.2893 H   0  0  0  0  0  0  0  0  0  0  0  0
  140.3362   80.2649  221.6799 H   0  0  0  0  0  0  0  0  0  0  0  0
  138.8571   79.4210  222.2014 H   0  0  0  0  0  0  0  0  0  0  0  0
  138.9999   81.3576  223.6175 H   0  0  0  0  0  0  0  0  0  0  0  0
  139.5949   80.0122  224.6356 H   0  0  0  0  0  0  0  0  0  0  0  0
  142.2194   80.5375  222.3816 H   0  0  0  0  0  0  0  0  0  0  0  0
  143.0197   80.7795  223.9607 H   0  0  0  0  0  0  0  0  0  0  0  0
  142.6672   78.4085  223.7732 H   0  0  0  0  0  0  0  0  0  0  0  0
  141.3897   78.9832  224.8821 H   0  0  0  0  0  0  0  0  0  0  0  0
  138.7606   69.9994  221.9292 H   0  0  0  0  0  0  0  0  0  0  0  0
  138.9543   68.3933  223.8010 H   0  0  0  0  0  0  0  0  0  0  0  0
  139.6427   67.9431  226.1111 H   0  0  0  0  0  0  0  0  0  0  0  0
  141.3873   71.1426  228.3946 H   0  0  0  0  0  0  0  0  0  0  0  0
  141.1602   72.7129  226.4607 H   0  0  0  0  0  0  0  0  0  0  0  0
  1  2  2  0
  2  3  1  0
  3  4  1  0
  4  5  1  0
  5  6  2  0
  5  7  1  0
  7  8  1  0
  8  9  1  0
  9 10  1  0
 10 11  1  0
 11 12  1  0
 12 13  1  0
 13 14  1  0
 14 15  1  0
 15 16  1  0
 16 17  1  0
 17 18  1  0
 18 19  1  0
  2 20  1  0
 20 21  2  0
 21 22  1  0
 22 23  2  0
 23 24  1  0
 24 25  2  0
 25 26  1  0
 25 27  1  0
 27 28  2  0
 28 29  1  0
 29 30  2  0
 13  7  1  0
 19 14  1  0
 30 20  1  0
 29 23  1  0
  3 31  1  0
  4 32  1  0
  4 33  1  0
  8 34  1  0
  8 35  1  0
  9 36  1  0
  9 37  1  0
 10 38  1  0
 10 39  1  0
 11 40  1  0
 11 41  1  0
 12 42  1  0
 12 43  1  0
 13 44  1  1
 14 45  1  0
 15 46  1  0
 15 47  1  0
 16 48  1  0
 16 49  1  0
 18 50  1  0
 18 51  1  0
 19 52  1  0
 19 53  1  0
 21 54  1  0
 22 55  1  0
 24 56  1  0
 27 57  1  0
 28 58  1  0
M  END
>  <smiles>  (98) 
O=C(NCC(=O)N1CCCCCC1C1CCOCC1)c1ccc2cc(Cl)ccc2n1

>  <score_type>  (98) 
oracle

>  <origin>  (98) 
autodockgpu

>  <m_score__min__energy>  (98) 
-7.0800000000000001

>  <m_primary>  (98) 
energy

>  <rmsd>  (98) 
2.0861765962114442

>  <m_score__min__rmsd>  (98) 
2.0861765962114442

>  <meeko>  (98) 
{"free_energy": -6.74, "intermolecular_energy": -10.02, "internal_energy": -1.2, "cluster_size": 26, "cluster_id": 1, "rank_in_cluster": 5}

>  <energy>  (98) 
-4.75

>  <cluster_rmsd>  (98) 
0.0

>  <cluster>  (98) 
7

$$$$

     RDKit          3D

 58 61  0  0  0  0  0  0  0  0999 V2000
  136.4630   77.7900  222.6970 O   0  0  0  0  0  0  0  0  0  0  0  0
  136.5820   76.6000  223.0480 C   0  0  0  0  0  0  0  0  0  0  0  0
  137.6690   75.7860  222.6110 N   0  0  0  0  0  0  0  0  0  0  0  0
  138.6830   76.3320  221.7300 C   0  0  0  0  0  0  0  0  0  0  0  0
  139.9670   75.5620  221.8580 C   0  0  0  0  0  0  0  0  0  0  0  0
  139.8580   74.4140  222.3620 O   0  0  0  0  0  0  0  0  0  0  0  0
  141.1740   76.1420  221.4270 N   0  0  0  0  0  0  0  0  0  0  0  0
  142.1540   75.2070  220.8740 C   0  0  0  0  0  0  0  0  0  0  0  0
  142.7180   75.8780  219.6370 C   0  0  0  0  0  0  0  0  0  0  0  0
  141.6130   76.3060  218.6900 C   0  0  0  0  0  0  0  0  0  0  0  0
  140.4660   76.9890  219.3610 C   0  0  0  0  0  0  0  0  0  0  0  0
  140.8870   78.1680  220.2380 C   0  0  0  0  0  0  0  0  0  0  0  0
  141.3660   77.5630  221.5430 C   0  0  1  0  0  0  0  0  0  0  0  0
  140.7510   78.1690  222.7600 C   0  0  0  0  0  0  0  0  0  0  0  0
  139.8820   79.3660  222.4300 C   0  0  0  0  0  0  0  0  0  0  0  0
  139.9300   80.3020  223.6210 C   0  0  0  0  0  0  0  0  0  0  0  0
  141.1620   80.9590  223.6170 O   0  0  0  0  0  0  0  0  0  0  0  0
  142.1810   80.1360  223.1440 C   0  0  0  0  0  0  0  0  0  0  0  0
  141.8970   78.7210  223.6030 C   0  0  0  0  0  0  0  0  0  0  0  0
  135.5830   76.0100  223.9360 C   0  0  0  0  0  0  0  0  0  0  0  0
  134.6560   76.8060  224.5780 C   0  0  0  0  0  0  0  0  0  0  0  0
  133.6940   76.2850  225.4260 C   0  0  0  0  0  0  0  0  0  0  0  0
  133.6600   74.9270  225.6380 C   0  0  0  0  0  0  0  0  0  0  0  0
  132.7230   74.3550  226.4730 C   0  0  0  0  0  0  0  0  0  0  0  0
  132.7430   72.9910  226.6410 C   0  0  0  0  0  0  0  0  0  0  0  0
  131.5930   72.1970  227.6780 Cl  0  0  0  0  0  0  0  0  0  0  0  0
  133.6810   72.2010  225.9900 C   0  0  0  0  0  0  0  0  0  0  0  0
  134.6310   72.7580  225.1470 C   0  0  0  0  0  0  0  0  0  0  0  0
  134.5960   74.1340  224.9880 C   0  0  0  0  0  0  0  0  0  0  0  0
  135.5150   74.6850  224.1710 N   0  0  0  0  0  0  0  0  0  0  0  0
  137.7170   74.7920  222.9390 H   0  0  0  0  0  0  0  0  0  0  0  0
  138.3283   76.2727  220.6904 H   0  0  0  0  0  0  0  0  0  0  0  0
  138.8688   77.3794  222.0102 H   0  0  0  0  0  0  0  0  0  0  0  0
  142.9544   75.0158  221.6039 H   0  0  0  0  0  0  0  0  0  0  0  0
  141.6948   74.2370  220.6329 H   0  0  0  0  0  0  0  0  0  0  0  0
  143.2929   76.7651  219.9411 H   0  0  0  0  0  0  0  0  0  0  0  0
  143.3632   75.1566  219.1143 H   0  0  0  0  0  0  0  0  0  0  0  0
  142.0413   76.9971  217.9491 H   0  0  0  0  0  0  0  0  0  0  0  0
  141.2132   75.3886  218.2334 H   0  0  0  0  0  0  0  0  0  0  0  0
  139.7795   77.3596  218.5855 H   0  0  0  0  0  0  0  0  0  0  0  0
  139.9897   76.2488  220.0207 H   0  0  0  0  0  0  0  0  0  0  0  0
  141.6993   78.7324  219.7567 H   0  0  0  0  0  0  0  0  0  0  0  0
  140.0553   78.8698  220.3987 H   0  0  0  0  0  0  0  0  0  0  0  0
  142.4313   77.7888  221.6986 H   0  0  0  0  0  0  0  0  0  0  0  0
  140.1420   77.3992  223.2566 H   0  0  0  0  0  0  0  0  0  0  0  0
  140.2682   79.8759  221.5351 H   0  0  0  0  0  0  0  0  0  0  0  0
  138.8483   79.0510  222.2245 H   0  0  0  0  0  0  0  0  0  0  0  0
  139.1162   81.0384  223.5475 H   0  0  0  0  0  0  0  0  0  0  0  0
  139.8090   79.7322  224.5541 H   0  0  0  0  0  0  0  0  0  0  0  0
  142.2094   80.1725  222.0450 H   0  0  0  0  0  0  0  0  0  0  0  0
  143.1534   80.4736  223.5319 H   0  0  0  0  0  0  0  0  0  0  0  0
  142.7934   78.0981  223.4669 H   0  0  0  0  0  0  0  0  0  0  0  0
  141.6234   78.7141  224.6684 H   0  0  0  0  0  0  0  0  0  0  0  0
  134.6827   77.8927  224.4098 H   0  0  0  0  0  0  0  0  0  0  0  0
  132.9686   76.9466  225.9221 H   0  0  0  0  0  0  0  0  0  0  0  0
  131.9776   74.9755  226.9920 H   0  0  0  0  0  0  0  0  0  0  0  0
  133.6704   71.1122  226.1459 H   0  0  0  0  0  0  0  0  0  0  0  0
  135.3768   72.1370  224.6292 H   0  0  0  0  0  0  0  0  0  0  0  0
  1  2  2  0
  2  3  1  0
  3  4  1  0
  4  5  1  0
  5  6  2  0
  5  7  1  0
  7  8  1  0
  8  9  1  0
  9 10  1  0
 10 11  1  0
 11 12  1  0
 12 13  1  0
 13 14  1  0
 14 15  1  0
 15 16  1  0
 16 17  1  0
 17 18  1  0
 18 19  1  0
  2 20  1  0
 20 21  2  0
 21 22  1  0
 22 23  2  0
 23 24  1  0
 24 25  2  0
 25 26  1  0
 25 27  1  0
 27 28  2  0
 28 29  1  0
 29 30  2  0
 13  7  1  0
 19 14  1  0
 30 20  1  0
 29 23  1  0
  3 31  1  0
  4 32  1  0
  4 33  1  0
  8 34  1  0
  8 35  1  0
  9 36  1  0
  9 37  1  0
 10 38  1  0
 10 39  1  0
 11 40  1  0
 11 41  1  0
 12 42  1  0
 12 43  1  0
 13 44  1  1
 14 45  1  0
 15 46  1  0
 15 47  1  0
 16 48  1  0
 16 49  1  0
 18 50  1  0
 18 51  1  0
 19 52  1  0
 19 53  1  0
 21 54  1  0
 22 55  1  0
 24 56  1  0
 27 57  1  0
 28 58  1  0
M  END
>  <smiles>  (99) 
O=C(NCC(=O)N1CCCCCC1C1CCOCC1)c1ccc2cc(Cl)ccc2n1

>  <score_type>  (99) 
oracle

>  <origin>  (99) 
autodockgpu

>  <m_score__min__energy>  (99) 
-7.0800000000000001

>  <m_primary>  (99) 
energy

>  <rmsd>  (99) 
5.988173264355602

>  <m_score__min__rmsd>  (99) 
5.988173264355602

>  <meeko>  (99) 
{"free_energy": -4.99, "intermolecular_energy": -8.28, "internal_energy": -1.94, "cluster_size": 3, "cluster_id": 3, "rank_in_cluster": 3}

>  <energy>  (99) 
-4.47

>  <cluster_rmsd>  (99) 
0.0

>  <cluster>  (99) 
8

$$$$

     RDKit          3D

 58 61  0  0  0  0  0  0  0  0999 V2000
  140.8160   72.6410  220.8590 O   0  0  0  0  0  0  0  0  0  0  0  0
  140.3610   72.9900  221.9660 C   0  0  0  0  0  0  0  0  0  0  0  0
  139.9360   74.3260  222.2240 N   0  0  0  0  0  0  0  0  0  0  0  0
  140.0240   75.3340  221.1850 C   0  0  0  0  0  0  0  0  0  0  0  0
  139.9600   76.7140  221.7780 C   0  0  0  0  0  0  0  0  0  0  0  0
  139.1600   76.8490  222.7400 O   0  0  0  0  0  0  0  0  0  0  0  0
  140.7650   77.7390  221.2480 N   0  0  0  0  0  0  0  0  0  0  0  0
  141.4490   78.5710  222.2380 C   0  0  0  0  0  0  0  0  0  0  0  0
  140.8110   79.9430  222.1410 C   0  0  0  0  0  0  0  0  0  0  0  0
  141.5070   80.8020  221.1030 C   0  0  0  0  0  0  0  0  0  0  0  0
  141.4430   80.2530  219.7150 C   0  0  0  0  0  0  0  0  0  0  0  0
  140.2990   79.2670  219.5020 C   0  0  0  0  0  0  0  0  0  0  0  0
  140.8690   77.9000  219.8230 C   0  0  1  0  0  0  0  0  0  0  0  0
  142.2370   77.6640  219.2750 C   0  0  0  0  0  0  0  0  0  0  0  0
  142.2400   77.5510  217.7650 C   0  0  0  0  0  0  0  0  0  0  0  0
  143.3820   76.6300  217.3820 C   0  0  0  0  0  0  0  0  0  0  0  0
  143.0040   75.3160  217.6670 O   0  0  0  0  0  0  0  0  0  0  0  0
  142.2040   75.2480  218.8040 C   0  0  0  0  0  0  0  0  0  0  0  0
  142.6850   76.2980  219.7850 C   0  0  0  0  0  0  0  0  0  0  0  0
  140.2550   72.0060  223.0420 C   0  0  0  0  0  0  0  0  0  0  0  0
  139.6930   70.7670  222.8070 C   0  0  0  0  0  0  0  0  0  0  0  0
  139.5760   69.8080  223.7980 C   0  0  0  0  0  0  0  0  0  0  0  0
  140.0320   70.0990  225.0620 C   0  0  0  0  0  0  0  0  0  0  0  0
  139.9400   69.1810  226.0870 C   0  0  0  0  0  0  0  0  0  0  0  0
  140.4160   69.5340  227.3260 C   0  0  0  0  0  0  0  0  0  0  0  0
  140.3340   68.4290  228.6680 Cl  0  0  0  0  0  0  0  0  0  0  0  0
  140.9790   70.7830  227.5500 C   0  0  0  0  0  0  0  0  0  0  0  0
  141.0810   71.7190  226.5320 C   0  0  0  0  0  0  0  0  0  0  0  0
  140.5960   71.3470  225.2880 C   0  0  0  0  0  0  0  0  0  0  0  0
  140.6910   72.2490  224.2930 N   0  0  0  0  0  0  0  0  0  0  0  0
  139.5630   74.5620  223.1750 H   0  0  0  0  0  0  0  0  0  0  0  0
  140.9760   75.2159  220.6468 H   0  0  0  0  0  0  0  0  0  0  0  0
  139.1773   75.2057  220.4946 H   0  0  0  0  0  0  0  0  0  0  0  0
  141.3114   78.1557  223.2473 H   0  0  0  0  0  0  0  0  0  0  0  0
  142.5318   78.6152  222.0491 H   0  0  0  0  0  0  0  0  0  0  0  0
  139.7538   79.8275  221.8601 H   0  0  0  0  0  0  0  0  0  0  0  0
  140.9019   80.4382  223.1190 H   0  0  0  0  0  0  0  0  0  0  0  0
  141.0347   81.7955  221.1037 H   0  0  0  0  0  0  0  0  0  0  0  0
  142.5706   80.8371  221.3816 H   0  0  0  0  0  0  0  0  0  0  0  0
  141.3147   81.0915  219.0147 H   0  0  0  0  0  0  0  0  0  0  0  0
  142.3799   79.7034  219.5413 H   0  0  0  0  0  0  0  0  0  0  0  0
  139.4612   79.5007  220.1754 H   0  0  0  0  0  0  0  0  0  0  0  0
  139.9101   79.3130  218.4740 H   0  0  0  0  0  0  0  0  0  0  0  0
  140.2890   77.1171  219.3125 H   0  0  0  0  0  0  0  0  0  0  0  0
  142.8789   78.5034  219.5806 H   0  0  0  0  0  0  0  0  0  0  0  0
  141.2849   77.1304  217.4175 H   0  0  0  0  0  0  0  0  0  0  0  0
  142.3666   78.5405  217.3015 H   0  0  0  0  0  0  0  0  0  0  0  0
  143.5956   76.7303  216.3076 H   0  0  0  0  0  0  0  0  0  0  0  0
  144.2867   76.8942  217.9492 H   0  0  0  0  0  0  0  0  0  0  0  0
  141.1557   75.4432  218.5339 H   0  0  0  0  0  0  0  0  0  0  0  0
  142.2702   74.2473  219.2558 H   0  0  0  0  0  0  0  0  0  0  0  0
  142.2488   76.1090  220.7770 H   0  0  0  0  0  0  0  0  0  0  0  0
  143.7810   76.2645  219.8719 H   0  0  0  0  0  0  0  0  0  0  0  0
  139.3254   70.5339  221.7968 H   0  0  0  0  0  0  0  0  0  0  0  0
  139.1255   68.8289  223.5779 H   0  0  0  0  0  0  0  0  0  0  0  0
  139.4958   68.1893  225.9163 H   0  0  0  0  0  0  0  0  0  0  0  0
  141.3512   71.0349  228.5540 H   0  0  0  0  0  0  0  0  0  0  0  0
  141.5259   72.7102  226.7037 H   0  0  0  0  0  0  0  0  0  0  0  0
  1  2  2  0
  2  3  1  0
  3  4  1  0
  4  5  1  0
  5  6  2  0
  5  7  1  0
  7  8  1  0
  8  9  1  0
  9 10  1  0
 10 11  1  0
 11 12  1  0
 12 13  1  0
 13 14  1  0
 14 15  1  0
 15 16  1  0
 16 17  1  0
 17 18  1  0
 18 19  1  0
  2 20  1  0
 20 21  2  0
 21 22  1  0
 22 23  2  0
 23 24  1  0
 24 25  2  0
 25 26  1  0
 25 27  1  0
 27 28  2  0
 28 29  1  0
 29 30  2  0
 13  7  1  0
 19 14  1  0
 30 20  1  0
 29 23  1  0
  3 31  1  0
  4 32  1  0
  4 33  1  0
  8 34  1  0
  8 35  1  0
  9 36  1  0
  9 37  1  0
 10 38  1  0
 10 39  1  0
 11 40  1  0
 11 41  1  0
 12 42  1  0
 12 43  1  0
 13 44  1  6
 14 45  1  0
 15 46  1  0
 15 47  1  0
 16 48  1  0
 16 49  1  0
 18 50  1  0
 18 51  1  0
 19 52  1  0
 19 53  1  0
 21 54  1  0
 22 55  1  0
 24 56  1  0
 27 57  1  0
 28 58  1  0
M  END
>  <smiles>  (100) 
O=C(NCC(=O)N1CCCCCC1C1CCOCC1)c1ccc2cc(Cl)ccc2n1

>  <score_type>  (100) 
oracle

>  <origin>  (100) 
autodockgpu

>  <m_score__min__energy>  (100) 
-7.0800000000000001

>  <m_primary>  (100) 
energy

>  <rmsd>  (100) 
3.1013894928528356

>  <m_score__min__rmsd>  (100) 
3.1013894928528356

>  <meeko>  (100) 
{"free_energy": -6.02, "intermolecular_energy": -9.31, "internal_energy": -2.0, "cluster_size": 26, "cluster_id": 1, "rank_in_cluster": 18}

>  <energy>  (100) 
-4.25

>  <cluster_rmsd>  (100) 
0.9

>  <cluster>  (100) 
8

$$$$
