
     RDKit          3D

 52 56  0  0  0  0  0  0  0  0999 V2000
  142.8770   74.6390  220.3040 O   0  0  0  0  0  0  0  0  0  0  0  0
  141.8190   74.3920  220.9470 C   0  0  0  0  0  0  0  0  0  0  0  0
  141.4290   72.9790  221.1160 C   0  0  0  0  0  0  0  0  0  0  0  0
  140.1670   72.8730  221.8950 C   0  0  0  0  0  0  0  0  0  0  0  0
  139.6020   71.5570  222.1850 C   0  0  0  0  0  0  0  0  0  0  0  0
  138.8720   70.8990  221.2180 C   0  0  0  0  0  0  0  0  0  0  0  0
  138.3020   69.6600  221.4060 C   0  0  0  0  0  0  0  0  0  0  0  0
  138.4850   69.0600  222.6410 C   0  0  0  0  0  0  0  0  0  0  0  0
  139.2040   69.6620  223.6520 C   0  0  0  0  0  0  0  0  0  0  0  0
  139.3580   68.9860  224.9180 C   0  0  0  0  0  0  0  0  0  0  0  0
  139.1730   67.7480  224.9540 O   0  0  0  0  0  0  0  0  0  0  0  0
  139.7070   69.6250  226.1360 N   0  0  0  0  0  0  0  0  0  0  0  0
  139.8310   68.8190  227.3460 C   0  0  0  0  0  0  0  0  0  0  0  0
  141.1270   69.2270  228.0480 C   0  0  0  0  0  0  0  0  0  0  0  0
  141.0080   70.5560  228.4020 O   0  0  0  0  0  0  0  0  0  0  0  0
  141.0800   71.3230  227.2440 C   0  0  0  0  0  0  0  0  0  0  0  0
  139.9530   71.0410  226.2720 C   0  0  0  0  0  0  0  0  0  0  0  0
  139.7580   70.9210  223.3940 C   0  0  0  0  0  0  0  0  0  0  0  0
  139.5290   73.9010  222.3440 N   0  0  0  0  0  0  0  0  0  0  0  0
  139.9180   75.2440  222.1720 C   0  0  0  0  0  0  0  0  0  0  0  0
  139.1260   76.2420  222.7150 C   0  0  0  0  0  0  0  0  0  0  0  0
  139.5070   77.5590  222.5470 C   0  0  0  0  0  0  0  0  0  0  0  0
  140.6590   77.8500  221.8470 C   0  0  0  0  0  0  0  0  0  0  0  0
  141.0240   79.2560  221.6940 C   0  0  0  0  0  0  0  0  0  0  0  0
  141.4770   79.9100  222.8420 C   0  0  0  0  0  0  0  0  0  0  0  0
  141.8500   81.2570  222.7940 C   0  0  0  0  0  0  0  0  0  0  0  0
  141.7440   81.8850  221.5580 C   0  0  0  0  0  0  0  0  0  0  0  0
  141.3030   81.2250  220.4700 N   0  0  0  0  0  0  0  0  0  0  0  0
  140.9390   79.9300  220.4960 C   0  0  0  0  0  0  0  0  0  0  0  0
  141.4500   76.8320  221.3030 C   0  0  0  0  0  0  0  0  0  0  0  0
  141.0630   75.5170  221.4730 C   0  0  0  0  0  0  0  0  0  0  0  0
  141.2815   72.5239  220.1255 H   0  0  0  0  0  0  0  0  0  0  0  0
  142.2271   72.4541  221.6614 H   0  0  0  0  0  0  0  0  0  0  0  0
  138.7377   71.3908  220.2433 H   0  0  0  0  0  0  0  0  0  0  0  0
  137.7256   69.1673  220.6091 H   0  0  0  0  0  0  0  0  0  0  0  0
  138.0417   68.0696  222.8214 H   0  0  0  0  0  0  0  0  0  0  0  0
  138.9724   69.0036  228.0083 H   0  0  0  0  0  0  0  0  0  0  0  0
  139.8506   67.7483  227.0944 H   0  0  0  0  0  0  0  0  0  0  0  0
  141.2768   68.6111  228.9470 H   0  0  0  0  0  0  0  0  0  0  0  0
  141.9904   69.0797  227.3825 H   0  0  0  0  0  0  0  0  0  0  0  0
  141.0417   72.3857  227.5253 H   0  0  0  0  0  0  0  0  0  0  0  0
  142.0216   71.0640  226.7377 H   0  0  0  0  0  0  0  0  0  0  0  0
  139.0370   71.5285  226.6371 H   0  0  0  0  0  0  0  0  0  0  0  0
  140.2433   71.4348  225.2868 H   0  0  0  0  0  0  0  0  0  0  0  0
  140.3379   71.4186  224.1853 H   0  0  0  0  0  0  0  0  0  0  0  0
  138.2102   75.9904  223.2700 H   0  0  0  0  0  0  0  0  0  0  0  0
  138.8956   78.3703  222.9688 H   0  0  0  0  0  0  0  0  0  0  0  0
  141.5410   79.3605  223.7927 H   0  0  0  0  0  0  0  0  0  0  0  0
  142.2081   81.7911  223.6864 H   0  0  0  0  0  0  0  0  0  0  0  0
  142.0266   82.9442  221.4668 H   0  0  0  0  0  0  0  0  0  0  0  0
  140.5836   79.4240  219.5863 H   0  0  0  0  0  0  0  0  0  0  0  0
  142.3676   77.0757  220.7475 H   0  0  0  0  0  0  0  0  0  0  0  0
  1  2  2  0
  2  3  1  0
  3  4  1  0
  4  5  1  0
  5  6  2  0
  6  7  1  0
  7  8  2  0
  8  9  1  0
  9 10  1  0
 10 11  2  0
 10 12  1  0
 12 13  1  0
 13 14  1  0
 14 15  1  0
 15 16  1  0
 16 17  1  0
  9 18  2  0
  4 19  2  0
 19 20  1  0
 20 21  2  0
 21 22  1  0
 22 23  2  0
 23 24  1  0
 24 25  2  0
 25 26  1  0
 26 27  2  0
 27 28  1  0
 28 29  2  0
 23 30  1  0
 30 31  2  0
 31  2  1  0
 18  5  1  0
 31 20  1  0
 17 12  1  0
 29 24  1  0
  3 32  1  0
  3 33  1  0
  6 34  1  0
  7 35  1  0
  8 36  1  0
 13 37  1  0
 13 38  1  0
 14 39  1  0
 14 40  1  0
 16 41  1  0
 16 42  1  0
 17 43  1  0
 17 44  1  0
 18 45  1  0
 21 46  1  0
 22 47  1  0
 25 48  1  0
 26 49  1  0
 27 50  1  0
 29 51  1  0
 30 52  1  0
M  END
>  <smiles>  (1) 
O=C1CC(c2cccc(C(=O)N3CCOCC3)c2)=Nc2ccc(-c3cccnc3)cc21

>  <score_type>  (1) 
oracle

>  <origin>  (1) 
autodockgpu

>  <m_score__min__energy>  (1) 
-9.0999999999999996

>  <m_primary>  (1) 
energy

>  <rmsd>  (1) 
6.827758875086637

>  <m_score__min__rmsd>  (1) 
6.827758875086637

>  <meeko>  (1) 
{"free_energy": -9.05, "intermolecular_energy": -9.95, "internal_energy": -0.74, "cluster_size": 44, "cluster_id": 1, "rank_in_cluster": 21}

>  <energy>  (1) 
-9.1

>  <cluster_rmsd>  (1) 
0.0

>  <cluster>  (1) 
1

$$$$

     RDKit          3D

 52 56  0  0  0  0  0  0  0  0999 V2000
  142.9420   74.8370  220.1710 O   0  0  0  0  0  0  0  0  0  0  0  0
  141.9090   74.5250  220.8250 C   0  0  0  0  0  0  0  0  0  0  0  0
  141.5900   73.0910  220.9690 C   0  0  0  0  0  0  0  0  0  0  0  0
  140.3490   72.9060  221.7660 C   0  0  0  0  0  0  0  0  0  0  0  0
  139.8540   71.5590  222.0350 C   0  0  0  0  0  0  0  0  0  0  0  0
  139.3160   70.8110  221.0100 C   0  0  0  0  0  0  0  0  0  0  0  0
  138.8240   69.5350  221.1740 C   0  0  0  0  0  0  0  0  0  0  0  0
  138.8820   68.9940  222.4480 C   0  0  0  0  0  0  0  0  0  0  0  0
  139.4070   69.6870  223.5180 C   0  0  0  0  0  0  0  0  0  0  0  0
  139.4380   69.0680  224.8220 C   0  0  0  0  0  0  0  0  0  0  0  0
  139.1930   67.8420  224.9020 O   0  0  0  0  0  0  0  0  0  0  0  0
  139.7260   69.7510  226.0320 N   0  0  0  0  0  0  0  0  0  0  0  0
  139.7260   69.0020  227.2840 C   0  0  0  0  0  0  0  0  0  0  0  0
  140.9860   69.3880  228.0610 C   0  0  0  0  0  0  0  0  0  0  0  0
  140.9030   70.7370  228.3430 O   0  0  0  0  0  0  0  0  0  0  0  0
  141.0930   71.4420  227.1590 C   0  0  0  0  0  0  0  0  0  0  0  0
  140.0270   71.1600  226.1200 C   0  0  0  0  0  0  0  0  0  0  0  0
  139.8910   70.9780  223.2810 C   0  0  0  0  0  0  0  0  0  0  0  0
  139.6710   73.8920  222.2490 N   0  0  0  0  0  0  0  0  0  0  0  0
  139.9910   75.2560  222.1010 C   0  0  0  0  0  0  0  0  0  0  0  0
  139.1610   76.2020  222.6790 C   0  0  0  0  0  0  0  0  0  0  0  0
  139.4750   77.5400  222.5350 C   0  0  0  0  0  0  0  0  0  0  0  0
  140.5990   77.9020  221.8220 C   0  0  0  0  0  0  0  0  0  0  0  0
  140.8930   79.3260  221.6960 C   0  0  0  0  0  0  0  0  0  0  0  0
  141.5180   79.9330  222.7870 C   0  0  0  0  0  0  0  0  0  0  0  0
  141.8390   81.2940  222.7590 C   0  0  0  0  0  0  0  0  0  0  0  0
  141.5040   81.9850  221.5990 C   0  0  0  0  0  0  0  0  0  0  0  0
  140.9020   81.3700  220.5640 N   0  0  0  0  0  0  0  0  0  0  0  0
  140.5850   80.0620  220.5720 C   0  0  0  0  0  0  0  0  0  0  0  0
  141.4280   76.9360  221.2420 C   0  0  0  0  0  0  0  0  0  0  0  0
  141.1090   75.5990  221.3890 C   0  0  0  0  0  0  0  0  0  0  0  0
  141.4471   72.6509  219.9710 H   0  0  0  0  0  0  0  0  0  0  0  0
  142.4219   72.5943  221.4897 H   0  0  0  0  0  0  0  0  0  0  0  0
  139.2774   71.2577  220.0055 H   0  0  0  0  0  0  0  0  0  0  0  0
  138.4030   68.9697  220.3295 H   0  0  0  0  0  0  0  0  0  0  0  0
  138.4961   67.9770  222.6114 H   0  0  0  0  0  0  0  0  0  0  0  0
  138.8316   69.2560  227.8718 H   0  0  0  0  0  0  0  0  0  0  0  0
  139.7146   67.9204  227.0842 H   0  0  0  0  0  0  0  0  0  0  0  0
  141.0418   68.8116  228.9962 H   0  0  0  0  0  0  0  0  0  0  0  0
  141.8876   69.1707  227.4695 H   0  0  0  0  0  0  0  0  0  0  0  0
  141.0831   72.5180  227.3872 H   0  0  0  0  0  0  0  0  0  0  0  0
  142.0557   71.1186  226.7364 H   0  0  0  0  0  0  0  0  0  0  0  0
  139.1106   71.7038  226.3929 H   0  0  0  0  0  0  0  0  0  0  0  0
  140.4057   71.4912  225.1418 H   0  0  0  0  0  0  0  0  0  0  0  0
  140.3159   71.5481  224.1203 H   0  0  0  0  0  0  0  0  0  0  0  0
  138.2680   75.8939  223.2425 H   0  0  0  0  0  0  0  0  0  0  0  0
  138.8330   78.3111  222.9859 H   0  0  0  0  0  0  0  0  0  0  0  0
  141.7604   79.3347  223.6777 H   0  0  0  0  0  0  0  0  0  0  0  0
  142.3300   81.7913  223.6085 H   0  0  0  0  0  0  0  0  0  0  0  0
  141.7362   83.0577  221.5260 H   0  0  0  0  0  0  0  0  0  0  0  0
  140.0941   79.5936  219.7062 H   0  0  0  0  0  0  0  0  0  0  0  0
  142.3222   77.2364  220.6762 H   0  0  0  0  0  0  0  0  0  0  0  0
  1  2  2  0
  2  3  1  0
  3  4  1  0
  4  5  1  0
  5  6  2  0
  6  7  1  0
  7  8  2  0
  8  9  1  0
  9 10  1  0
 10 11  2  0
 10 12  1  0
 12 13  1  0
 13 14  1  0
 14 15  1  0
 15 16  1  0
 16 17  1  0
  9 18  2  0
  4 19  2  0
 19 20  1  0
 20 21  2  0
 21 22  1  0
 22 23  2  0
 23 24  1  0
 24 25  2  0
 25 26  1  0
 26 27  2  0
 27 28  1  0
 28 29  2  0
 23 30  1  0
 30 31  2  0
 31  2  1  0
 18  5  1  0
 31 20  1  0
 17 12  1  0
 29 24  1  0
  3 32  1  0
  3 33  1  0
  6 34  1  0
  7 35  1  0
  8 36  1  0
 13 37  1  0
 13 38  1  0
 14 39  1  0
 14 40  1  0
 16 41  1  0
 16 42  1  0
 17 43  1  0
 17 44  1  0
 18 45  1  0
 21 46  1  0
 22 47  1  0
 25 48  1  0
 26 49  1  0
 27 50  1  0
 29 51  1  0
 30 52  1  0
M  END
>  <smiles>  (2) 
O=C1CC(c2cccc(C(=O)N3CCOCC3)c2)=Nc2ccc(-c3cccnc3)cc21

>  <score_type>  (2) 
oracle

>  <origin>  (2) 
autodockgpu

>  <m_score__min__energy>  (2) 
-9.0999999999999996

>  <m_primary>  (2) 
energy

>  <rmsd>  (2) 
6.846578215748492

>  <m_score__min__rmsd>  (2) 
6.846578215748492

>  <meeko>  (2) 
{"free_energy": -9.06, "intermolecular_energy": -9.96, "internal_energy": -0.69, "cluster_size": 44, "cluster_id": 1, "rank_in_cluster": 19}

>  <energy>  (2) 
-9.09

>  <cluster_rmsd>  (2) 
0.05

>  <cluster>  (2) 
1

$$$$

     RDKit          3D

 52 56  0  0  0  0  0  0  0  0999 V2000
  142.8810   74.6920  220.3130 O   0  0  0  0  0  0  0  0  0  0  0  0
  141.8180   74.4450  220.9470 C   0  0  0  0  0  0  0  0  0  0  0  0
  141.4250   73.0320  221.1140 C   0  0  0  0  0  0  0  0  0  0  0  0
  140.1570   72.9280  221.8820 C   0  0  0  0  0  0  0  0  0  0  0  0
  139.5890   71.6130  222.1680 C   0  0  0  0  0  0  0  0  0  0  0  0
  138.8440   70.9660  221.2060 C   0  0  0  0  0  0  0  0  0  0  0  0
  138.2690   69.7280  221.3900 C   0  0  0  0  0  0  0  0  0  0  0  0
  138.4640   69.1170  222.6190 C   0  0  0  0  0  0  0  0  0  0  0  0
  139.1990   69.7080  223.6250 C   0  0  0  0  0  0  0  0  0  0  0  0
  139.3650   69.0210  224.8840 C   0  0  0  0  0  0  0  0  0  0  0  0
  139.2000   67.7800  224.9070 O   0  0  0  0  0  0  0  0  0  0  0  0
  139.7040   69.6530  226.1090 N   0  0  0  0  0  0  0  0  0  0  0  0
  139.8420   68.8360  227.3100 C   0  0  0  0  0  0  0  0  0  0  0  0
  141.1320   69.2570  228.0160 C   0  0  0  0  0  0  0  0  0  0  0  0
  140.9910   70.5810  228.3840 O   0  0  0  0  0  0  0  0  0  0  0  0
  141.0490   71.3610  227.2340 C   0  0  0  0  0  0  0  0  0  0  0  0
  139.9260   71.0710  226.2600 C   0  0  0  0  0  0  0  0  0  0  0  0
  139.7560   70.9670  223.3700 C   0  0  0  0  0  0  0  0  0  0  0  0
  139.5160   73.9570  222.3250 N   0  0  0  0  0  0  0  0  0  0  0  0
  139.9070   75.3000  222.1550 C   0  0  0  0  0  0  0  0  0  0  0  0
  139.1110   76.2980  222.6910 C   0  0  0  0  0  0  0  0  0  0  0  0
  139.4940   77.6160  222.5240 C   0  0  0  0  0  0  0  0  0  0  0  0
  140.6520   77.9050  221.8340 C   0  0  0  0  0  0  0  0  0  0  0  0
  141.0190   79.3100  221.6830 C   0  0  0  0  0  0  0  0  0  0  0  0
  141.4470   79.9700  222.8370 C   0  0  0  0  0  0  0  0  0  0  0  0
  141.8200   81.3170  222.7920 C   0  0  0  0  0  0  0  0  0  0  0  0
  141.7400   81.9400  221.5500 C   0  0  0  0  0  0  0  0  0  0  0  0
  141.3220   81.2750  220.4570 N   0  0  0  0  0  0  0  0  0  0  0  0
  140.9590   79.9800  220.4800 C   0  0  0  0  0  0  0  0  0  0  0  0
  141.4470   76.8860  221.2970 C   0  0  0  0  0  0  0  0  0  0  0  0
  141.0580   75.5710  221.4660 C   0  0  0  0  0  0  0  0  0  0  0  0
  141.2854   72.5762  220.1227 H   0  0  0  0  0  0  0  0  0  0  0  0
  142.2179   72.5068  221.6666 H   0  0  0  0  0  0  0  0  0  0  0  0
  138.7005   71.4663  220.2369 H   0  0  0  0  0  0  0  0  0  0  0  0
  137.6805   69.2450  220.5961 H   0  0  0  0  0  0  0  0  0  0  0  0
  138.0175   68.1277  222.7977 H   0  0  0  0  0  0  0  0  0  0  0  0
  138.9810   68.9995  227.9748 H   0  0  0  0  0  0  0  0  0  0  0  0
  139.8788   67.7686  227.0466 H   0  0  0  0  0  0  0  0  0  0  0  0
  141.2921   68.6342  228.9084 H   0  0  0  0  0  0  0  0  0  0  0  0
  141.9976   69.1304  227.3492 H   0  0  0  0  0  0  0  0  0  0  0  0
  140.9936   72.4200  227.5265 H   0  0  0  0  0  0  0  0  0  0  0  0
  141.9941   71.1225  226.7242 H   0  0  0  0  0  0  0  0  0  0  0  0
  139.0023   71.5390  226.6311 H   0  0  0  0  0  0  0  0  0  0  0  0
  140.2084   71.4805  225.2789 H   0  0  0  0  0  0  0  0  0  0  0  0
  140.3473   71.4559  224.1582 H   0  0  0  0  0  0  0  0  0  0  0  0
  138.1911   76.0470  223.2394 H   0  0  0  0  0  0  0  0  0  0  0  0
  138.8791   78.4283  222.9388 H   0  0  0  0  0  0  0  0  0  0  0  0
  141.4912   79.4246  223.7913 H   0  0  0  0  0  0  0  0  0  0  0  0
  142.1584   81.8551  223.6897 H   0  0  0  0  0  0  0  0  0  0  0  0
  142.0245   82.9987  221.4597 H   0  0  0  0  0  0  0  0  0  0  0  0
  140.6238   79.4702  219.5647 H   0  0  0  0  0  0  0  0  0  0  0  0
  142.3688   77.1286  220.7480 H   0  0  0  0  0  0  0  0  0  0  0  0
  1  2  2  0
  2  3  1  0
  3  4  1  0
  4  5  1  0
  5  6  2  0
  6  7  1  0
  7  8  2  0
  8  9  1  0
  9 10  1  0
 10 11  2  0
 10 12  1  0
 12 13  1  0
 13 14  1  0
 14 15  1  0
 15 16  1  0
 16 17  1  0
  9 18  2  0
  4 19  2  0
 19 20  1  0
 20 21  2  0
 21 22  1  0
 22 23  2  0
 23 24  1  0
 24 25  2  0
 25 26  1  0
 26 27  2  0
 27 28  1  0
 28 29  2  0
 23 30  1  0
 30 31  2  0
 31  2  1  0
 18  5  1  0
 31 20  1  0
 17 12  1  0
 29 24  1  0
  3 32  1  0
  3 33  1  0
  6 34  1  0
  7 35  1  0
  8 36  1  0
 13 37  1  0
 13 38  1  0
 14 39  1  0
 14 40  1  0
 16 41  1  0
 16 42  1  0
 17 43  1  0
 17 44  1  0
 18 45  1  0
 21 46  1  0
 22 47  1  0
 25 48  1  0
 26 49  1  0
 27 50  1  0
 29 51  1  0
 30 52  1  0
M  END
>  <smiles>  (3) 
O=C1CC(c2cccc(C(=O)N3CCOCC3)c2)=Nc2ccc(-c3cccnc3)cc21

>  <score_type>  (3) 
oracle

>  <origin>  (3) 
autodockgpu

>  <m_score__min__energy>  (3) 
-9.0999999999999996

>  <m_primary>  (3) 
energy

>  <rmsd>  (3) 
6.833735826916348

>  <m_score__min__rmsd>  (3) 
6.833735826916348

>  <meeko>  (3) 
{"free_energy": -9.01, "intermolecular_energy": -9.9, "internal_energy": -0.75, "cluster_size": 44, "cluster_id": 1, "rank_in_cluster": 23}

>  <energy>  (3) 
-9.09

>  <cluster_rmsd>  (3) 
0.05

>  <cluster>  (3) 
1

$$$$

     RDKit          3D

 52 56  0  0  0  0  0  0  0  0999 V2000
  142.6770   73.3760  220.6030 O   0  0  0  0  0  0  0  0  0  0  0  0
  141.5400   73.5530  221.1240 C   0  0  0  0  0  0  0  0  0  0  0  0
  140.8840   72.3930  221.7590 C   0  0  0  0  0  0  0  0  0  0  0  0
  139.5620   72.7790  222.3180 C   0  0  0  0  0  0  0  0  0  0  0  0
  138.7430   71.7800  223.0000 C   0  0  0  0  0  0  0  0  0  0  0  0
  137.3700   71.8300  222.8880 C   0  0  0  0  0  0  0  0  0  0  0  0
  136.5230   70.9320  223.4980 C   0  0  0  0  0  0  0  0  0  0  0  0
  137.1030   69.9310  224.2600 C   0  0  0  0  0  0  0  0  0  0  0  0
  138.4690   69.8230  224.4140 C   0  0  0  0  0  0  0  0  0  0  0  0
  139.0140   68.7580  225.2230 C   0  0  0  0  0  0  0  0  0  0  0  0
  139.0360   67.6020  224.7420 O   0  0  0  0  0  0  0  0  0  0  0  0
  139.5300   68.9250  226.5330 N   0  0  0  0  0  0  0  0  0  0  0  0
  140.0530   67.7610  227.2410 C   0  0  0  0  0  0  0  0  0  0  0  0
  141.3970   68.1520  227.8570 C   0  0  0  0  0  0  0  0  0  0  0  0
  141.1580   69.1620  228.7670 O   0  0  0  0  0  0  0  0  0  0  0  0
  140.8420   70.3190  228.0610 C   0  0  0  0  0  0  0  0  0  0  0  0
  139.5790   70.1850  227.2360 C   0  0  0  0  0  0  0  0  0  0  0  0
  139.2730   70.7680  223.7660 C   0  0  0  0  0  0  0  0  0  0  0  0
  139.0880   73.9760  222.2390 N   0  0  0  0  0  0  0  0  0  0  0  0
  139.7290   75.0720  221.6270 C   0  0  0  0  0  0  0  0  0  0  0  0
  139.0890   76.3000  221.6220 C   0  0  0  0  0  0  0  0  0  0  0  0
  139.7190   77.3750  221.0230 C   0  0  0  0  0  0  0  0  0  0  0  0
  140.9600   77.2020  220.4470 C   0  0  0  0  0  0  0  0  0  0  0  0
  141.5880   78.3650  219.8270 C   0  0  0  0  0  0  0  0  0  0  0  0
  142.2510   78.1440  218.6170 C   0  0  0  0  0  0  0  0  0  0  0  0
  142.8820   79.1970  217.9480 C   0  0  0  0  0  0  0  0  0  0  0  0
  142.8070   80.4480  218.5520 C   0  0  0  0  0  0  0  0  0  0  0  0
  142.1610   80.6270  219.7190 N   0  0  0  0  0  0  0  0  0  0  0  0
  141.5470   79.6270  220.3780 C   0  0  0  0  0  0  0  0  0  0  0  0
  141.5950   75.9550  220.4600 C   0  0  0  0  0  0  0  0  0  0  0  0
  140.9610   74.8840  221.0600 C   0  0  0  0  0  0  0  0  0  0  0  0
  140.7415   71.6025  221.0075 H   0  0  0  0  0  0  0  0  0  0  0  0
  141.5223   72.0299  222.5780 H   0  0  0  0  0  0  0  0  0  0  0  0
  136.9268   72.6310  222.2780 H   0  0  0  0  0  0  0  0  0  0  0  0
  135.4313   71.0063  223.3850 H   0  0  0  0  0  0  0  0  0  0  0  0
  136.4521   69.1978  224.7588 H   0  0  0  0  0  0  0  0  0  0  0  0
  139.3522   67.4591  228.0333 H   0  0  0  0  0  0  0  0  0  0  0  0
  140.1796   66.9157  226.5486 H   0  0  0  0  0  0  0  0  0  0  0  0
  141.8430   67.2851  228.3665 H   0  0  0  0  0  0  0  0  0  0  0  0
  142.0966   68.4897  227.0782 H   0  0  0  0  0  0  0  0  0  0  0  0
  140.7056   71.1411  228.7791 H   0  0  0  0  0  0  0  0  0  0  0  0
  141.6701   70.5144  227.3638 H   0  0  0  0  0  0  0  0  0  0  0  0
  138.7080   70.2542  227.9042 H   0  0  0  0  0  0  0  0  0  0  0  0
  139.5698   70.9936  226.4903 H   0  0  0  0  0  0  0  0  0  0  0  0
  140.3656   70.6989  223.8730 H   0  0  0  0  0  0  0  0  0  0  0  0
  138.0985   76.4179  222.0857 H   0  0  0  0  0  0  0  0  0  0  0  0
  139.2335   78.3619  221.0059 H   0  0  0  0  0  0  0  0  0  0  0  0
  142.2767   77.1319  218.1868 H   0  0  0  0  0  0  0  0  0  0  0  0
  143.4096   79.0445  216.9949 H   0  0  0  0  0  0  0  0  0  0  0  0
  143.2864   81.3100  218.0649 H   0  0  0  0  0  0  0  0  0  0  0  0
  141.0272   79.8121  221.3296 H   0  0  0  0  0  0  0  0  0  0  0  0
  142.5856   75.8292  219.9987 H   0  0  0  0  0  0  0  0  0  0  0  0
  1  2  2  0
  2  3  1  0
  3  4  1  0
  4  5  1  0
  5  6  2  0
  6  7  1  0
  7  8  2  0
  8  9  1  0
  9 10  1  0
 10 11  2  0
 10 12  1  0
 12 13  1  0
 13 14  1  0
 14 15  1  0
 15 16  1  0
 16 17  1  0
  9 18  2  0
  4 19  2  0
 19 20  1  0
 20 21  2  0
 21 22  1  0
 22 23  2  0
 23 24  1  0
 24 25  2  0
 25 26  1  0
 26 27  2  0
 27 28  1  0
 28 29  2  0
 23 30  1  0
 30 31  2  0
 31  2  1  0
 18  5  1  0
 31 20  1  0
 17 12  1  0
 29 24  1  0
  3 32  1  0
  3 33  1  0
  6 34  1  0
  7 35  1  0
  8 36  1  0
 13 37  1  0
 13 38  1  0
 14 39  1  0
 14 40  1  0
 16 41  1  0
 16 42  1  0
 17 43  1  0
 17 44  1  0
 18 45  1  0
 21 46  1  0
 22 47  1  0
 25 48  1  0
 26 49  1  0
 27 50  1  0
 29 51  1  0
 30 52  1  0
M  END
>  <smiles>  (4) 
O=C1CC(c2cccc(C(=O)N3CCOCC3)c2)=Nc2ccc(-c3cccnc3)cc21

>  <score_type>  (4) 
oracle

>  <origin>  (4) 
autodockgpu

>  <m_score__min__energy>  (4) 
-9.0999999999999996

>  <m_primary>  (4) 
energy

>  <rmsd>  (4) 
6.842080859317384

>  <m_score__min__rmsd>  (4) 
6.842080859317384

>  <meeko>  (4) 
{"free_energy": -7.8, "intermolecular_energy": -8.69, "internal_energy": -0.96, "cluster_size": 44, "cluster_id": 1, "rank_in_cluster": 44}

>  <energy>  (4) 
-9.08

>  <cluster_rmsd>  (4) 
0.03

>  <cluster>  (4) 
1

$$$$

     RDKit          3D

 52 56  0  0  0  0  0  0  0  0999 V2000
  142.8100   74.4040  220.6250 O   0  0  0  0  0  0  0  0  0  0  0  0
  141.6850   74.2010  221.1620 C   0  0  0  0  0  0  0  0  0  0  0  0
  141.2320   72.8040  221.3080 C   0  0  0  0  0  0  0  0  0  0  0  0
  139.8970   72.7510  221.9590 C   0  0  0  0  0  0  0  0  0  0  0  0
  139.2620   71.4590  222.2070 C   0  0  0  0  0  0  0  0  0  0  0  0
  138.3190   70.9810  221.3220 C   0  0  0  0  0  0  0  0  0  0  0  0
  137.6690   69.7770  221.4780 C   0  0  0  0  0  0  0  0  0  0  0  0
  137.9960   69.0210  222.5930 C   0  0  0  0  0  0  0  0  0  0  0  0
  138.9300   69.4400  223.5170 C   0  0  0  0  0  0  0  0  0  0  0  0
  139.2260   68.6080  224.6590 C   0  0  0  0  0  0  0  0  0  0  0  0
  139.2070   67.3650  224.5060 O   0  0  0  0  0  0  0  0  0  0  0  0
  139.5400   69.0970  225.9530 N   0  0  0  0  0  0  0  0  0  0  0  0
  139.8220   68.1420  227.0200 C   0  0  0  0  0  0  0  0  0  0  0  0
  141.0820   68.6120  227.7470 C   0  0  0  0  0  0  0  0  0  0  0  0
  140.8050   69.8430  228.3060 O   0  0  0  0  0  0  0  0  0  0  0  0
  140.7250   70.7790  227.2810 C   0  0  0  0  0  0  0  0  0  0  0  0
  139.6040   70.4960  226.3020 C   0  0  0  0  0  0  0  0  0  0  0  0
  139.5540   70.6730  223.2970 C   0  0  0  0  0  0  0  0  0  0  0  0
  139.2540   73.8060  222.3320 N   0  0  0  0  0  0  0  0  0  0  0  0
  139.7030   75.1330  222.1840 C   0  0  0  0  0  0  0  0  0  0  0  0
  138.8960   76.1640  222.6350 C   0  0  0  0  0  0  0  0  0  0  0  0
  139.3370   77.4660  222.4900 C   0  0  0  0  0  0  0  0  0  0  0  0
  140.5620   77.7080  221.9040 C   0  0  0  0  0  0  0  0  0  0  0  0
  140.9880   79.0990  221.7720 C   0  0  0  0  0  0  0  0  0  0  0  0
  141.3940   79.7400  222.9450 C   0  0  0  0  0  0  0  0  0  0  0  0
  141.8190   81.0710  222.9190 C   0  0  0  0  0  0  0  0  0  0  0  0
  141.8130   81.6990  221.6770 C   0  0  0  0  0  0  0  0  0  0  0  0
  141.4160   81.0520  220.5650 N   0  0  0  0  0  0  0  0  0  0  0  0
  141.0030   79.7710  220.5700 C   0  0  0  0  0  0  0  0  0  0  0  0
  141.3670   76.6570  221.4520 C   0  0  0  0  0  0  0  0  0  0  0  0
  140.9210   75.3580  221.5990 C   0  0  0  0  0  0  0  0  0  0  0  0
  141.1675   72.3393  220.3131 H   0  0  0  0  0  0  0  0  0  0  0  0
  141.9540   72.2615  221.9360 H   0  0  0  0  0  0  0  0  0  0  0  0
  138.0724   71.5950  220.4432 H   0  0  0  0  0  0  0  0  0  0  0  0
  136.9221   69.4299  220.7488 H   0  0  0  0  0  0  0  0  0  0  0  0
  137.4936   68.0545  222.7458 H   0  0  0  0  0  0  0  0  0  0  0  0
  138.9764   68.1054  227.7225 H   0  0  0  0  0  0  0  0  0  0  0  0
  139.9715   67.1346  226.6043 H   0  0  0  0  0  0  0  0  0  0  0  0
  141.3504   67.8935  228.5355 H   0  0  0  0  0  0  0  0  0  0  0  0
  141.9275   68.6863  227.0472 H   0  0  0  0  0  0  0  0  0  0  0  0
  140.5589   71.7713  227.7256 H   0  0  0  0  0  0  0  0  0  0  0  0
  141.6698   70.7313  226.7196 H   0  0  0  0  0  0  0  0  0  0  0  0
  138.6485   70.7935  226.7586 H   0  0  0  0  0  0  0  0  0  0  0  0
  139.7979   71.0698  225.3837 H   0  0  0  0  0  0  0  0  0  0  0  0
  140.3037   71.0256  224.0206 H   0  0  0  0  0  0  0  0  0  0  0  0
  137.9222   75.9508  223.1000 H   0  0  0  0  0  0  0  0  0  0  0  0
  138.7153   78.3034  222.8396 H   0  0  0  0  0  0  0  0  0  0  0  0
  141.3790   79.1916  223.8985 H   0  0  0  0  0  0  0  0  0  0  0  0
  142.1410   81.5943  223.8314 H   0  0  0  0  0  0  0  0  0  0  0  0
  142.1397   82.7467  221.6022 H   0  0  0  0  0  0  0  0  0  0  0  0
  140.6865   79.2750  219.6406 H   0  0  0  0  0  0  0  0  0  0  0  0
  142.3420   76.8623  220.9858 H   0  0  0  0  0  0  0  0  0  0  0  0
  1  2  2  0
  2  3  1  0
  3  4  1  0
  4  5  1  0
  5  6  2  0
  6  7  1  0
  7  8  2  0
  8  9  1  0
  9 10  1  0
 10 11  2  0
 10 12  1  0
 12 13  1  0
 13 14  1  0
 14 15  1  0
 15 16  1  0
 16 17  1  0
  9 18  2  0
  4 19  2  0
 19 20  1  0
 20 21  2  0
 21 22  1  0
 22 23  2  0
 23 24  1  0
 24 25  2  0
 25 26  1  0
 26 27  2  0
 27 28  1  0
 28 29  2  0
 23 30  1  0
 30 31  2  0
 31  2  1  0
 18  5  1  0
 31 20  1  0
 17 12  1  0
 29 24  1  0
  3 32  1  0
  3 33  1  0
  6 34  1  0
  7 35  1  0
  8 36  1  0
 13 37  1  0
 13 38  1  0
 14 39  1  0
 14 40  1  0
 16 41  1  0
 16 42  1  0
 17 43  1  0
 17 44  1  0
 18 45  1  0
 21 46  1  0
 22 47  1  0
 25 48  1  0
 26 49  1  0
 27 50  1  0
 29 51  1  0
 30 52  1  0
M  END
>  <smiles>  (5) 
O=C1CC(c2cccc(C(=O)N3CCOCC3)c2)=Nc2ccc(-c3cccnc3)cc21

>  <score_type>  (5) 
oracle

>  <origin>  (5) 
autodockgpu

>  <m_score__min__energy>  (5) 
-9.0999999999999996

>  <m_primary>  (5) 
energy

>  <rmsd>  (5) 
6.752049859120499

>  <m_score__min__rmsd>  (5) 
6.752049859120499

>  <meeko>  (5) 
{"free_energy": -8.64, "intermolecular_energy": -9.53, "internal_energy": -0.85, "cluster_size": 44, "cluster_id": 1, "rank_in_cluster": 37}

>  <energy>  (5) 
-9.08

>  <cluster_rmsd>  (5) 
0.06

>  <cluster>  (5) 
1

$$$$

     RDKit          3D

 52 56  0  0  0  0  0  0  0  0999 V2000
  142.8790   74.6750  220.2590 O   0  0  0  0  0  0  0  0  0  0  0  0
  141.8290   74.4160  220.9100 C   0  0  0  0  0  0  0  0  0  0  0  0
  141.4520   72.9980  221.0760 C   0  0  0  0  0  0  0  0  0  0  0  0
  140.1990   72.8770  221.8660 C   0  0  0  0  0  0  0  0  0  0  0  0
  139.6490   71.5560  222.1540 C   0  0  0  0  0  0  0  0  0  0  0  0
  138.9610   70.8730  221.1730 C   0  0  0  0  0  0  0  0  0  0  0  0
  138.4070   69.6260  221.3580 C   0  0  0  0  0  0  0  0  0  0  0  0
  138.5610   69.0440  222.6060 C   0  0  0  0  0  0  0  0  0  0  0  0
  139.2370   69.6710  223.6320 C   0  0  0  0  0  0  0  0  0  0  0  0
  139.3630   69.0130  224.9100 C   0  0  0  0  0  0  0  0  0  0  0  0
  139.1540   67.7790  224.9640 O   0  0  0  0  0  0  0  0  0  0  0  0
  139.7080   69.6650  226.1220 N   0  0  0  0  0  0  0  0  0  0  0  0
  139.8020   68.8770  227.3470 C   0  0  0  0  0  0  0  0  0  0  0  0
  141.0970   69.2720  228.0590 C   0  0  0  0  0  0  0  0  0  0  0  0
  140.9980   70.6080  228.3890 O   0  0  0  0  0  0  0  0  0  0  0  0
  141.0990   71.3550  227.2210 C   0  0  0  0  0  0  0  0  0  0  0  0
  139.9790   71.0780  226.2390 C   0  0  0  0  0  0  0  0  0  0  0  0
  139.7770   70.9370  223.3750 C   0  0  0  0  0  0  0  0  0  0  0  0
  139.5570   73.8970  222.3270 N   0  0  0  0  0  0  0  0  0  0  0  0
  139.9330   75.2450  222.1580 C   0  0  0  0  0  0  0  0  0  0  0  0
  139.1370   76.2330  222.7140 C   0  0  0  0  0  0  0  0  0  0  0  0
  139.5060   77.5550  222.5490 C   0  0  0  0  0  0  0  0  0  0  0  0
  140.6490   77.8590  221.8390 C   0  0  0  0  0  0  0  0  0  0  0  0
  141.0000   79.2680  221.6910 C   0  0  0  0  0  0  0  0  0  0  0  0
  141.4600   79.9200  222.8370 C   0  0  0  0  0  0  0  0  0  0  0  0
  141.8220   81.2700  222.7930 C   0  0  0  0  0  0  0  0  0  0  0  0
  141.6960   81.9040  221.5610 C   0  0  0  0  0  0  0  0  0  0  0  0
  141.2490   81.2470  220.4750 N   0  0  0  0  0  0  0  0  0  0  0  0
  140.8960   79.9490  220.4970 C   0  0  0  0  0  0  0  0  0  0  0  0
  141.4430   76.8510  221.2820 C   0  0  0  0  0  0  0  0  0  0  0  0
  141.0690   75.5310  221.4500 C   0  0  0  0  0  0  0  0  0  0  0  0
  141.2989   72.5465  220.0847 H   0  0  0  0  0  0  0  0  0  0  0  0
  142.2596   72.4775  221.6116 H   0  0  0  0  0  0  0  0  0  0  0  0
  138.8486   71.3507  220.1886 H   0  0  0  0  0  0  0  0  0  0  0  0
  137.8652   69.1136  220.5494 H   0  0  0  0  0  0  0  0  0  0  0  0
  138.1295   68.0481  222.7847 H   0  0  0  0  0  0  0  0  0  0  0  0
  138.9390   69.0888  227.9953 H   0  0  0  0  0  0  0  0  0  0  0  0
  139.8046   67.8021  227.1131 H   0  0  0  0  0  0  0  0  0  0  0  0
  141.2239   68.6686  228.9699 H   0  0  0  0  0  0  0  0  0  0  0  0
  141.9660   69.0972  227.4077 H   0  0  0  0  0  0  0  0  0  0  0  0
  141.0767   72.4226  227.4853 H   0  0  0  0  0  0  0  0  0  0  0  0
  142.0421   71.0713  226.7310 H   0  0  0  0  0  0  0  0  0  0  0  0
  139.0678   71.5882  226.5845 H   0  0  0  0  0  0  0  0  0  0  0  0
  140.2893   71.4503  225.2515 H   0  0  0  0  0  0  0  0  0  0  0  0
  140.3226   71.4544  224.1779 H   0  0  0  0  0  0  0  0  0  0  0  0
  138.2286   75.9706  223.2761 H   0  0  0  0  0  0  0  0  0  0  0  0
  138.8923   78.3592  222.9810 H   0  0  0  0  0  0  0  0  0  0  0  0
  141.5384   79.3660  223.7841 H   0  0  0  0  0  0  0  0  0  0  0  0
  142.1866   81.8019  223.6842 H   0  0  0  0  0  0  0  0  0  0  0  0
  141.9679   82.9662  221.4727 H   0  0  0  0  0  0  0  0  0  0  0  0
  140.5347   79.4455  219.5882 H   0  0  0  0  0  0  0  0  0  0  0  0
  142.3525   77.1053  220.7180 H   0  0  0  0  0  0  0  0  0  0  0  0
  1  2  2  0
  2  3  1  0
  3  4  1  0
  4  5  1  0
  5  6  2  0
  6  7  1  0
  7  8  2  0
  8  9  1  0
  9 10  1  0
 10 11  2  0
 10 12  1  0
 12 13  1  0
 13 14  1  0
 14 15  1  0
 15 16  1  0
 16 17  1  0
  9 18  2  0
  4 19  2  0
 19 20  1  0
 20 21  2  0
 21 22  1  0
 22 23  2  0
 23 24  1  0
 24 25  2  0
 25 26  1  0
 26 27  2  0
 27 28  1  0
 28 29  2  0
 23 30  1  0
 30 31  2  0
 31  2  1  0
 18  5  1  0
 31 20  1  0
 17 12  1  0
 29 24  1  0
  3 32  1  0
  3 33  1  0
  6 34  1  0
  7 35  1  0
  8 36  1  0
 13 37  1  0
 13 38  1  0
 14 39  1  0
 14 40  1  0
 16 41  1  0
 16 42  1  0
 17 43  1  0
 17 44  1  0
 18 45  1  0
 21 46  1  0
 22 47  1  0
 25 48  1  0
 26 49  1  0
 27 50  1  0
 29 51  1  0
 30 52  1  0
M  END
>  <smiles>  (6) 
O=C1CC(c2cccc(C(=O)N3CCOCC3)c2)=Nc2ccc(-c3cccnc3)cc21

>  <score_type>  (6) 
oracle

>  <origin>  (6) 
autodockgpu

>  <m_score__min__energy>  (6) 
-9.0999999999999996

>  <m_primary>  (6) 
energy

>  <rmsd>  (6) 
6.832343789773858

>  <m_score__min__rmsd>  (6) 
6.832343789773858

>  <meeko>  (6) 
{"free_energy": -9.08, "intermolecular_energy": -9.97, "internal_energy": -0.72, "cluster_size": 44, "cluster_id": 1, "rank_in_cluster": 11}

>  <energy>  (6) 
-9.08

>  <cluster_rmsd>  (6) 
0.05

>  <cluster>  (6) 
1

$$$$

     RDKit          3D

 52 56  0  0  0  0  0  0  0  0999 V2000
  142.8950   74.7300  220.1720 O   0  0  0  0  0  0  0  0  0  0  0  0
  141.8610   74.4330  220.8330 C   0  0  0  0  0  0  0  0  0  0  0  0
  141.5300   73.0030  220.9900 C   0  0  0  0  0  0  0  0  0  0  0  0
  140.2900   72.8380  221.7920 C   0  0  0  0  0  0  0  0  0  0  0  0
  139.7830   71.4970  222.0750 C   0  0  0  0  0  0  0  0  0  0  0  0
  139.2130   70.7550  221.0630 C   0  0  0  0  0  0  0  0  0  0  0  0
  138.7080   69.4860  221.2400 C   0  0  0  0  0  0  0  0  0  0  0  0
  138.7860   68.9460  222.5140 C   0  0  0  0  0  0  0  0  0  0  0  0
  139.3440   69.6340  223.5710 C   0  0  0  0  0  0  0  0  0  0  0  0
  139.3960   69.0170  224.8750 C   0  0  0  0  0  0  0  0  0  0  0  0
  139.1600   67.7890  224.9590 O   0  0  0  0  0  0  0  0  0  0  0  0
  139.6960   69.7030  226.0800 N   0  0  0  0  0  0  0  0  0  0  0  0
  139.7170   68.9550  227.3330 C   0  0  0  0  0  0  0  0  0  0  0  0
  140.9840   69.3490  228.0930 C   0  0  0  0  0  0  0  0  0  0  0  0
  140.8970   70.6980  228.3740 O   0  0  0  0  0  0  0  0  0  0  0  0
  141.0670   71.4030  227.1880 C   0  0  0  0  0  0  0  0  0  0  0  0
  139.9890   71.1140  226.1630 C   0  0  0  0  0  0  0  0  0  0  0  0
  139.8400   70.9180  223.3210 C   0  0  0  0  0  0  0  0  0  0  0  0
  139.6220   73.8340  222.2690 N   0  0  0  0  0  0  0  0  0  0  0  0
  139.9540   75.1930  222.1070 C   0  0  0  0  0  0  0  0  0  0  0  0
  139.1350   76.1520  222.6800 C   0  0  0  0  0  0  0  0  0  0  0  0
  139.4610   77.4860  222.5230 C   0  0  0  0  0  0  0  0  0  0  0  0
  140.5860   77.8310  221.8040 C   0  0  0  0  0  0  0  0  0  0  0  0
  140.8920   79.2510  221.6640 C   0  0  0  0  0  0  0  0  0  0  0  0
  141.4240   79.6570  220.4370 C   0  0  0  0  0  0  0  0  0  0  0  0
  141.7490   80.9970  220.2090 C   0  0  0  0  0  0  0  0  0  0  0  0
  141.5120   81.8790  221.2590 C   0  0  0  0  0  0  0  0  0  0  0  0
  140.9990   81.4560  222.4290 N   0  0  0  0  0  0  0  0  0  0  0  0
  140.6800   80.1710  222.6680 C   0  0  0  0  0  0  0  0  0  0  0  0
  141.4040   76.8520  221.2300 C   0  0  0  0  0  0  0  0  0  0  0  0
  141.0730   75.5200  221.3900 C   0  0  0  0  0  0  0  0  0  0  0  0
  141.3801   72.5555  219.9964 H   0  0  0  0  0  0  0  0  0  0  0  0
  142.3590   72.5024  221.5118 H   0  0  0  0  0  0  0  0  0  0  0  0
  139.1584   71.2008  220.0589 H   0  0  0  0  0  0  0  0  0  0  0  0
  138.2617   68.9249  220.4057 H   0  0  0  0  0  0  0  0  0  0  0  0
  138.3896   67.9348  222.6879 H   0  0  0  0  0  0  0  0  0  0  0  0
  138.8288   69.2042  227.9322 H   0  0  0  0  0  0  0  0  0  0  0  0
  139.7097   67.8731  227.1341 H   0  0  0  0  0  0  0  0  0  0  0  0
  141.0549   68.7744  229.0283 H   0  0  0  0  0  0  0  0  0  0  0  0
  141.8792   69.1358  227.4904 H   0  0  0  0  0  0  0  0  0  0  0  0
  141.0536   72.4791  227.4158 H   0  0  0  0  0  0  0  0  0  0  0  0
  142.0260   71.0851  226.7529 H   0  0  0  0  0  0  0  0  0  0  0  0
  139.0729   71.6522  226.4477 H   0  0  0  0  0  0  0  0  0  0  0  0
  140.3524   71.4473  225.1797 H   0  0  0  0  0  0  0  0  0  0  0  0
  140.2910   71.4838  224.1495 H   0  0  0  0  0  0  0  0  0  0  0  0
  138.2413   75.8572  223.2497 H   0  0  0  0  0  0  0  0  0  0  0  0
  138.8274   78.2671  222.9685 H   0  0  0  0  0  0  0  0  0  0  0  0
  141.5886   78.9142  219.6426 H   0  0  0  0  0  0  0  0  0  0  0  0
  142.1696   81.3363  219.2509 H   0  0  0  0  0  0  0  0  0  0  0  0
  141.7492   82.9453  221.1298 H   0  0  0  0  0  0  0  0  0  0  0  0
  140.2616   79.8633  223.6377 H   0  0  0  0  0  0  0  0  0  0  0  0
  142.2992   77.1389  220.6587 H   0  0  0  0  0  0  0  0  0  0  0  0
  1  2  2  0
  2  3  1  0
  3  4  1  0
  4  5  1  0
  5  6  2  0
  6  7  1  0
  7  8  2  0
  8  9  1  0
  9 10  1  0
 10 11  2  0
 10 12  1  0
 12 13  1  0
 13 14  1  0
 14 15  1  0
 15 16  1  0
 16 17  1  0
  9 18  2  0
  4 19  2  0
 19 20  1  0
 20 21  2  0
 21 22  1  0
 22 23  2  0
 23 24  1  0
 24 25  2  0
 25 26  1  0
 26 27  2  0
 27 28  1  0
 28 29  2  0
 23 30  1  0
 30 31  2  0
 31  2  1  0
 18  5  1  0
 31 20  1  0
 17 12  1  0
 29 24  1  0
  3 32  1  0
  3 33  1  0
  6 34  1  0
  7 35  1  0
  8 36  1  0
 13 37  1  0
 13 38  1  0
 14 39  1  0
 14 40  1  0
 16 41  1  0
 16 42  1  0
 17 43  1  0
 17 44  1  0
 18 45  1  0
 21 46  1  0
 22 47  1  0
 25 48  1  0
 26 49  1  0
 27 50  1  0
 29 51  1  0
 30 52  1  0
M  END
>  <smiles>  (7) 
O=C1CC(c2cccc(C(=O)N3CCOCC3)c2)=Nc2ccc(-c3cccnc3)cc21

>  <score_type>  (7) 
oracle

>  <origin>  (7) 
autodockgpu

>  <m_score__min__energy>  (7) 
-9.0999999999999996

>  <m_primary>  (7) 
energy

>  <rmsd>  (7) 
6.8346272743059435

>  <m_score__min__rmsd>  (7) 
6.8346272743059435

>  <meeko>  (7) 
{"free_energy": -8.88, "intermolecular_energy": -9.77, "internal_energy": -0.69, "cluster_size": 44, "cluster_id": 1, "rank_in_cluster": 34}

>  <energy>  (7) 
-9.08

>  <cluster_rmsd>  (7) 
0.03

>  <cluster>  (7) 
1

$$$$

     RDKit          3D

 52 56  0  0  0  0  0  0  0  0999 V2000
  142.7750   74.3820  220.6660 O   0  0  0  0  0  0  0  0  0  0  0  0
  141.6430   74.2000  221.1950 C   0  0  0  0  0  0  0  0  0  0  0  0
  141.1720   72.8100  221.3550 C   0  0  0  0  0  0  0  0  0  0  0  0
  139.8300   72.7820  221.9940 C   0  0  0  0  0  0  0  0  0  0  0  0
  139.1770   71.5020  222.2530 C   0  0  0  0  0  0  0  0  0  0  0  0
  138.1670   71.0690  221.4200 C   0  0  0  0  0  0  0  0  0  0  0  0
  137.4960   69.8790  221.5900 C   0  0  0  0  0  0  0  0  0  0  0  0
  137.8720   69.0880  222.6640 C   0  0  0  0  0  0  0  0  0  0  0  0
  138.8740   69.4610  223.5360 C   0  0  0  0  0  0  0  0  0  0  0  0
  139.2190   68.5940  224.6380 C   0  0  0  0  0  0  0  0  0  0  0  0
  139.2190   67.3580  224.4410 O   0  0  0  0  0  0  0  0  0  0  0  0
  139.5610   69.0430  225.9400 N   0  0  0  0  0  0  0  0  0  0  0  0
  139.8910   68.0560  226.9630 C   0  0  0  0  0  0  0  0  0  0  0  0
  141.1640   68.5250  227.6710 C   0  0  0  0  0  0  0  0  0  0  0  0
  140.8790   69.7300  228.2820 O   0  0  0  0  0  0  0  0  0  0  0  0
  140.7520   70.7000  227.2940 C   0  0  0  0  0  0  0  0  0  0  0  0
  139.6080   70.4300  226.3380 C   0  0  0  0  0  0  0  0  0  0  0  0
  139.5160   70.6830  223.3040 C   0  0  0  0  0  0  0  0  0  0  0  0
  139.1960   73.8500  222.3450 N   0  0  0  0  0  0  0  0  0  0  0  0
  139.6620   75.1690  222.1830 C   0  0  0  0  0  0  0  0  0  0  0  0
  138.8630   76.2160  222.6120 C   0  0  0  0  0  0  0  0  0  0  0  0
  139.3210   77.5100  222.4540 C   0  0  0  0  0  0  0  0  0  0  0  0
  140.5550   77.7300  221.8770 C   0  0  0  0  0  0  0  0  0  0  0  0
  140.9990   79.1130  221.7310 C   0  0  0  0  0  0  0  0  0  0  0  0
  140.8330   79.6910  220.4700 C   0  0  0  0  0  0  0  0  0  0  0  0
  141.2280   81.0110  220.2330 C   0  0  0  0  0  0  0  0  0  0  0  0
  141.7820   81.6940  221.3110 C   0  0  0  0  0  0  0  0  0  0  0  0
  141.9290   81.1080  222.5140 N   0  0  0  0  0  0  0  0  0  0  0  0
  141.5550   79.8390  222.7610 C   0  0  0  0  0  0  0  0  0  0  0  0
  141.3520   76.6630  221.4480 C   0  0  0  0  0  0  0  0  0  0  0  0
  140.8880   75.3710  221.6080 C   0  0  0  0  0  0  0  0  0  0  0  0
  141.1113   72.3329  220.3657 H   0  0  0  0  0  0  0  0  0  0  0  0
  141.8815   72.2670  221.9967 H   0  0  0  0  0  0  0  0  0  0  0  0
  137.8817   71.7099  220.5728 H   0  0  0  0  0  0  0  0  0  0  0  0
  136.6953   69.5691  220.9024 H   0  0  0  0  0  0  0  0  0  0  0  0
  137.3544   68.1311  222.8266 H   0  0  0  0  0  0  0  0  0  0  0  0
  139.0669   67.9778  227.6874 H   0  0  0  0  0  0  0  0  0  0  0  0
  140.0466   67.0670  226.5072 H   0  0  0  0  0  0  0  0  0  0  0  0
  141.4690   67.7844  228.4250 H   0  0  0  0  0  0  0  0  0  0  0  0
  141.9876   68.6408  226.9510 H   0  0  0  0  0  0  0  0  0  0  0  0
  140.5809   71.6726  227.7785 H   0  0  0  0  0  0  0  0  0  0  0  0
  141.6806   70.6905  226.7045 H   0  0  0  0  0  0  0  0  0  0  0  0
  138.6608   70.6913  226.8326 H   0  0  0  0  0  0  0  0  0  0  0  0
  139.7632   71.0405  225.4362 H   0  0  0  0  0  0  0  0  0  0  0  0
  140.3193   70.9989  223.9859 H   0  0  0  0  0  0  0  0  0  0  0  0
  137.8821   76.0209  223.0700 H   0  0  0  0  0  0  0  0  0  0  0  0
  138.7059   78.3593  222.7860 H   0  0  0  0  0  0  0  0  0  0  0  0
  140.3870   79.1016  219.6554 H   0  0  0  0  0  0  0  0  0  0  0  0
  141.1073   81.4841  219.2473 H   0  0  0  0  0  0  0  0  0  0  0  0
  142.1072   82.7363  221.1773 H   0  0  0  0  0  0  0  0  0  0  0  0
  141.6896   79.3939  223.7579 H   0  0  0  0  0  0  0  0  0  0  0  0
  142.3344   76.8499  220.9897 H   0  0  0  0  0  0  0  0  0  0  0  0
  1  2  2  0
  2  3  1  0
  3  4  1  0
  4  5  1  0
  5  6  2  0
  6  7  1  0
  7  8  2  0
  8  9  1  0
  9 10  1  0
 10 11  2  0
 10 12  1  0
 12 13  1  0
 13 14  1  0
 14 15  1  0
 15 16  1  0
 16 17  1  0
  9 18  2  0
  4 19  2  0
 19 20  1  0
 20 21  2  0
 21 22  1  0
 22 23  2  0
 23 24  1  0
 24 25  2  0
 25 26  1  0
 26 27  2  0
 27 28  1  0
 28 29  2  0
 23 30  1  0
 30 31  2  0
 31  2  1  0
 18  5  1  0
 31 20  1  0
 17 12  1  0
 29 24  1  0
  3 32  1  0
  3 33  1  0
  6 34  1  0
  7 35  1  0
  8 36  1  0
 13 37  1  0
 13 38  1  0
 14 39  1  0
 14 40  1  0
 16 41  1  0
 16 42  1  0
 17 43  1  0
 17 44  1  0
 18 45  1  0
 21 46  1  0
 22 47  1  0
 25 48  1  0
 26 49  1  0
 27 50  1  0
 29 51  1  0
 30 52  1  0
M  END
>  <smiles>  (8) 
O=C1CC(c2cccc(C(=O)N3CCOCC3)c2)=Nc2ccc(-c3cccnc3)cc21

>  <score_type>  (8) 
oracle

>  <origin>  (8) 
autodockgpu

>  <m_score__min__energy>  (8) 
-9.0999999999999996

>  <m_primary>  (8) 
energy

>  <rmsd>  (8) 
6.752098502896585

>  <m_score__min__rmsd>  (8) 
6.752098502896585

>  <meeko>  (8) 
{"free_energy": -8.37, "intermolecular_energy": -9.26, "internal_energy": -0.88, "cluster_size": 44, "cluster_id": 1, "rank_in_cluster": 39}

>  <energy>  (8) 
-9.08

>  <cluster_rmsd>  (8) 
0.13

>  <cluster>  (8) 
1

$$$$

     RDKit          3D

 52 56  0  0  0  0  0  0  0  0999 V2000
  142.9590   74.9850  220.1610 O   0  0  0  0  0  0  0  0  0  0  0  0
  141.9300   74.6730  220.8210 C   0  0  0  0  0  0  0  0  0  0  0  0
  141.6130   73.2390  220.9680 C   0  0  0  0  0  0  0  0  0  0  0  0
  140.3770   73.0540  221.7720 C   0  0  0  0  0  0  0  0  0  0  0  0
  139.8840   71.7070  222.0460 C   0  0  0  0  0  0  0  0  0  0  0  0
  139.4160   70.9260  221.0100 C   0  0  0  0  0  0  0  0  0  0  0  0
  138.9320   69.6480  221.1770 C   0  0  0  0  0  0  0  0  0  0  0  0
  138.9230   69.1380  222.4650 C   0  0  0  0  0  0  0  0  0  0  0  0
  139.3770   69.8640  223.5470 C   0  0  0  0  0  0  0  0  0  0  0  0
  139.3400   69.2780  224.8650 C   0  0  0  0  0  0  0  0  0  0  0  0
  138.9580   68.0900  224.9740 O   0  0  0  0  0  0  0  0  0  0  0  0
  139.7080   69.9520  226.0580 N   0  0  0  0  0  0  0  0  0  0  0  0
  139.6260   69.2380  227.3280 C   0  0  0  0  0  0  0  0  0  0  0  0
  140.9230   69.4960  228.0950 C   0  0  0  0  0  0  0  0  0  0  0  0
  140.9960   70.8520  228.3440 O   0  0  0  0  0  0  0  0  0  0  0  0
  141.2620   71.5020  227.1440 C   0  0  0  0  0  0  0  0  0  0  0  0
  140.1680   71.3190  226.1130 C   0  0  0  0  0  0  0  0  0  0  0  0
  139.8570   71.1570  223.3060 C   0  0  0  0  0  0  0  0  0  0  0  0
  139.7000   74.0400  222.2570 N   0  0  0  0  0  0  0  0  0  0  0  0
  140.0180   75.4040  222.1060 C   0  0  0  0  0  0  0  0  0  0  0  0
  139.1900   76.3500  222.6880 C   0  0  0  0  0  0  0  0  0  0  0  0
  139.5020   77.6880  222.5390 C   0  0  0  0  0  0  0  0  0  0  0  0
  140.6220   78.0500  221.8200 C   0  0  0  0  0  0  0  0  0  0  0  0
  140.9140   79.4740  221.6900 C   0  0  0  0  0  0  0  0  0  0  0  0
  141.2710   80.1470  222.8610 C   0  0  0  0  0  0  0  0  0  0  0  0
  141.5690   81.5130  222.8360 C   0  0  0  0  0  0  0  0  0  0  0  0
  141.4890   82.1410  221.5970 C   0  0  0  0  0  0  0  0  0  0  0  0
  141.1410   81.4640  220.4870 N   0  0  0  0  0  0  0  0  0  0  0  0
  140.8510   80.1500  220.4910 C   0  0  0  0  0  0  0  0  0  0  0  0
  141.4490   77.0840  221.2370 C   0  0  0  0  0  0  0  0  0  0  0  0
  141.1320   75.7470  221.3880 C   0  0  0  0  0  0  0  0  0  0  0  0
  141.4648   72.7979  219.9713 H   0  0  0  0  0  0  0  0  0  0  0  0
  142.4483   72.7433  221.4844 H   0  0  0  0  0  0  0  0  0  0  0  0
  139.4302   71.3476  219.9941 H   0  0  0  0  0  0  0  0  0  0  0  0
  138.5679   69.0569  220.3238 H   0  0  0  0  0  0  0  0  0  0  0  0
  138.5410   68.1199  222.6307 H   0  0  0  0  0  0  0  0  0  0  0  0
  138.7680   69.6064  227.9095 H   0  0  0  0  0  0  0  0  0  0  0  0
  139.4908   68.1603  227.1543 H   0  0  0  0  0  0  0  0  0  0  0  0
  140.9149   68.9399  229.0441 H   0  0  0  0  0  0  0  0  0  0  0  0
  141.7922   69.1627  227.5089 H   0  0  0  0  0  0  0  0  0  0  0  0
  141.3759   72.5772  227.3462 H   0  0  0  0  0  0  0  0  0  0  0  0
  142.1803   71.0609  226.7291 H   0  0  0  0  0  0  0  0  0  0  0  0
  139.3204   71.9699  226.3736 H   0  0  0  0  0  0  0  0  0  0  0  0
  140.5791   71.5818  225.1272 H   0  0  0  0  0  0  0  0  0  0  0  0
  140.2252   71.7534  224.1538 H   0  0  0  0  0  0  0  0  0  0  0  0
  138.3010   76.0419  223.2579 H   0  0  0  0  0  0  0  0  0  0  0  0
  138.8612   78.4594  222.9909 H   0  0  0  0  0  0  0  0  0  0  0  0
  141.3182   79.5968  223.8123 H   0  0  0  0  0  0  0  0  0  0  0  0
  141.8514   82.0615  223.7467 H   0  0  0  0  0  0  0  0  0  0  0  0
  141.7152   83.2149  221.5230 H   0  0  0  0  0  0  0  0  0  0  0  0
  140.5714   79.6300  219.5629 H   0  0  0  0  0  0  0  0  0  0  0  0
  142.3399   77.3844  220.6659 H   0  0  0  0  0  0  0  0  0  0  0  0
  1  2  2  0
  2  3  1  0
  3  4  1  0
  4  5  1  0
  5  6  2  0
  6  7  1  0
  7  8  2  0
  8  9  1  0
  9 10  1  0
 10 11  2  0
 10 12  1  0
 12 13  1  0
 13 14  1  0
 14 15  1  0
 15 16  1  0
 16 17  1  0
  9 18  2  0
  4 19  2  0
 19 20  1  0
 20 21  2  0
 21 22  1  0
 22 23  2  0
 23 24  1  0
 24 25  2  0
 25 26  1  0
 26 27  2  0
 27 28  1  0
 28 29  2  0
 23 30  1  0
 30 31  2  0
 31  2  1  0
 18  5  1  0
 31 20  1  0
 17 12  1  0
 29 24  1  0
  3 32  1  0
  3 33  1  0
  6 34  1  0
  7 35  1  0
  8 36  1  0
 13 37  1  0
 13 38  1  0
 14 39  1  0
 14 40  1  0
 16 41  1  0
 16 42  1  0
 17 43  1  0
 17 44  1  0
 18 45  1  0
 21 46  1  0
 22 47  1  0
 25 48  1  0
 26 49  1  0
 27 50  1  0
 29 51  1  0
 30 52  1  0
M  END
>  <smiles>  (9) 
O=C1CC(c2cccc(C(=O)N3CCOCC3)c2)=Nc2ccc(-c3cccnc3)cc21

>  <score_type>  (9) 
oracle

>  <origin>  (9) 
autodockgpu

>  <m_score__min__energy>  (9) 
-9.0999999999999996

>  <m_primary>  (9) 
energy

>  <rmsd>  (9) 
6.865839863810104

>  <m_score__min__rmsd>  (9) 
6.865839863810104

>  <meeko>  (9) 
{"free_energy": -9.0, "intermolecular_energy": -9.89, "internal_energy": -0.66, "cluster_size": 44, "cluster_id": 1, "rank_in_cluster": 26}

>  <energy>  (9) 
-9.08

>  <cluster_rmsd>  (9) 
0.1

>  <cluster>  (9) 
1

$$$$

     RDKit          3D

 52 56  0  0  0  0  0  0  0  0999 V2000
  142.9520   74.7800  220.1740 O   0  0  0  0  0  0  0  0  0  0  0  0
  141.9200   74.4700  220.8330 C   0  0  0  0  0  0  0  0  0  0  0  0
  141.5970   73.0370  220.9750 C   0  0  0  0  0  0  0  0  0  0  0  0
  140.3590   72.8560  221.7780 C   0  0  0  0  0  0  0  0  0  0  0  0
  139.8600   71.5100  222.0470 C   0  0  0  0  0  0  0  0  0  0  0  0
  139.3260   70.7610  221.0200 C   0  0  0  0  0  0  0  0  0  0  0  0
  138.8300   69.4870  221.1840 C   0  0  0  0  0  0  0  0  0  0  0  0
  138.8800   68.9470  222.4590 C   0  0  0  0  0  0  0  0  0  0  0  0
  139.4020   69.6410  223.5310 C   0  0  0  0  0  0  0  0  0  0  0  0
  139.4250   69.0240  224.8360 C   0  0  0  0  0  0  0  0  0  0  0  0
  139.1710   67.8000  224.9170 O   0  0  0  0  0  0  0  0  0  0  0  0
  139.7170   69.7070  226.0450 N   0  0  0  0  0  0  0  0  0  0  0  0
  139.7080   68.9590  227.2980 C   0  0  0  0  0  0  0  0  0  0  0  0
  140.9690   69.3360  228.0770 C   0  0  0  0  0  0  0  0  0  0  0  0
  140.8970   70.6860  228.3560 O   0  0  0  0  0  0  0  0  0  0  0  0
  141.0950   71.3880  227.1720 C   0  0  0  0  0  0  0  0  0  0  0  0
  140.0290   71.1130  226.1320 C   0  0  0  0  0  0  0  0  0  0  0  0
  139.8900   70.9310  223.2940 C   0  0  0  0  0  0  0  0  0  0  0  0
  139.6870   73.8430  222.2670 N   0  0  0  0  0  0  0  0  0  0  0  0
  140.0120   75.2060  222.1200 C   0  0  0  0  0  0  0  0  0  0  0  0
  139.1890   76.1540  222.7050 C   0  0  0  0  0  0  0  0  0  0  0  0
  139.5070   77.4910  222.5620 C   0  0  0  0  0  0  0  0  0  0  0  0
  140.6300   77.8500  221.8440 C   0  0  0  0  0  0  0  0  0  0  0  0
  140.9280   79.2740  221.7190 C   0  0  0  0  0  0  0  0  0  0  0  0
  141.4920   79.8930  222.8370 C   0  0  0  0  0  0  0  0  0  0  0  0
  141.8130   81.2540  222.8120 C   0  0  0  0  0  0  0  0  0  0  0  0
  141.5410   81.9320  221.6290 C   0  0  0  0  0  0  0  0  0  0  0  0
  140.9970   81.3050  220.5690 N   0  0  0  0  0  0  0  0  0  0  0  0
  140.6810   79.9970  220.5730 C   0  0  0  0  0  0  0  0  0  0  0  0
  141.4520   76.8820  221.2580 C   0  0  0  0  0  0  0  0  0  0  0  0
  141.1280   75.5470  221.4040 C   0  0  0  0  0  0  0  0  0  0  0  0
  141.4475   72.5996  219.9768 H   0  0  0  0  0  0  0  0  0  0  0  0
  142.4297   72.5354  221.4898 H   0  0  0  0  0  0  0  0  0  0  0  0
  139.2945   71.2056  220.0144 H   0  0  0  0  0  0  0  0  0  0  0  0
  138.4116   68.9217  220.3382 H   0  0  0  0  0  0  0  0  0  0  0  0
  138.4906   67.9312  222.6219 H   0  0  0  0  0  0  0  0  0  0  0  0
  138.8143   69.2207  227.8835 H   0  0  0  0  0  0  0  0  0  0  0  0
  139.6882   67.8773  227.0994 H   0  0  0  0  0  0  0  0  0  0  0  0
  141.0177   68.7611  229.0136 H   0  0  0  0  0  0  0  0  0  0  0  0
  141.8700   69.1099  227.4879 H   0  0  0  0  0  0  0  0  0  0  0  0
  141.0932   72.4644  227.3989 H   0  0  0  0  0  0  0  0  0  0  0  0
  142.0561   71.0569  226.7516 H   0  0  0  0  0  0  0  0  0  0  0  0
  139.1165   71.6644  226.4027 H   0  0  0  0  0  0  0  0  0  0  0  0
  140.4122   71.4399  225.1541 H   0  0  0  0  0  0  0  0  0  0  0  0
  140.3122   71.5016  224.1343 H   0  0  0  0  0  0  0  0  0  0  0  0
  138.2982   75.8480  223.2732 H   0  0  0  0  0  0  0  0  0  0  0  0
  138.8699   78.2637  223.0170 H   0  0  0  0  0  0  0  0  0  0  0  0
  141.6855   79.3043  223.7458 H   0  0  0  0  0  0  0  0  0  0  0  0
  142.2568   81.7608  223.6816 H   0  0  0  0  0  0  0  0  0  0  0  0
  141.7754   83.0043  221.5575 H   0  0  0  0  0  0  0  0  0  0  0  0
  140.2383   79.5190  219.6867 H   0  0  0  0  0  0  0  0  0  0  0  0
  142.3447   77.1797  220.6884 H   0  0  0  0  0  0  0  0  0  0  0  0
  1  2  2  0
  2  3  1  0
  3  4  1  0
  4  5  1  0
  5  6  2  0
  6  7  1  0
  7  8  2  0
  8  9  1  0
  9 10  1  0
 10 11  2  0
 10 12  1  0
 12 13  1  0
 13 14  1  0
 14 15  1  0
 15 16  1  0
 16 17  1  0
  9 18  2  0
  4 19  2  0
 19 20  1  0
 20 21  2  0
 21 22  1  0
 22 23  2  0
 23 24  1  0
 24 25  2  0
 25 26  1  0
 26 27  2  0
 27 28  1  0
 28 29  2  0
 23 30  1  0
 30 31  2  0
 31  2  1  0
 18  5  1  0
 31 20  1  0
 17 12  1  0
 29 24  1  0
  3 32  1  0
  3 33  1  0
  6 34  1  0
  7 35  1  0
  8 36  1  0
 13 37  1  0
 13 38  1  0
 14 39  1  0
 14 40  1  0
 16 41  1  0
 16 42  1  0
 17 43  1  0
 17 44  1  0
 18 45  1  0
 21 46  1  0
 22 47  1  0
 25 48  1  0
 26 49  1  0
 27 50  1  0
 29 51  1  0
 30 52  1  0
M  END
>  <smiles>  (10) 
O=C1CC(c2cccc(C(=O)N3CCOCC3)c2)=Nc2ccc(-c3cccnc3)cc21

>  <score_type>  (10) 
oracle

>  <origin>  (10) 
autodockgpu

>  <m_score__min__energy>  (10) 
-9.0999999999999996

>  <m_primary>  (10) 
energy

>  <rmsd>  (10) 
6.836714481594333

>  <m_score__min__rmsd>  (10) 
6.836714481594333

>  <meeko>  (10) 
{"free_energy": -9.06, "intermolecular_energy": -9.96, "internal_energy": -0.69, "cluster_size": 44, "cluster_id": 1, "rank_in_cluster": 20}

>  <energy>  (10) 
-9.08

>  <cluster_rmsd>  (10) 
0.09

>  <cluster>  (10) 
1

$$$$

     RDKit          3D

 52 56  0  0  0  0  0  0  0  0999 V2000
  142.8760   74.6380  220.3260 O   0  0  0  0  0  0  0  0  0  0  0  0
  141.8110   74.3910  220.9590 C   0  0  0  0  0  0  0  0  0  0  0  0
  141.4180   72.9780  221.1230 C   0  0  0  0  0  0  0  0  0  0  0  0
  140.1500   72.8730  221.8910 C   0  0  0  0  0  0  0  0  0  0  0  0
  139.5810   71.5580  222.1750 C   0  0  0  0  0  0  0  0  0  0  0  0
  138.8260   70.9180  221.2150 C   0  0  0  0  0  0  0  0  0  0  0  0
  138.2510   69.6800  221.3980 C   0  0  0  0  0  0  0  0  0  0  0  0
  138.4540   69.0620  222.6210 C   0  0  0  0  0  0  0  0  0  0  0  0
  139.1990   69.6460  223.6250 C   0  0  0  0  0  0  0  0  0  0  0  0
  139.3740   68.9520  224.8780 C   0  0  0  0  0  0  0  0  0  0  0  0
  139.2000   67.7110  224.8970 O   0  0  0  0  0  0  0  0  0  0  0  0
  139.7310   69.5750  226.1020 N   0  0  0  0  0  0  0  0  0  0  0  0
  139.8770   68.7520  227.2980 C   0  0  0  0  0  0  0  0  0  0  0  0
  141.1770   69.1600  227.9910 C   0  0  0  0  0  0  0  0  0  0  0  0
  141.0510   70.4820  228.3670 O   0  0  0  0  0  0  0  0  0  0  0  0
  141.1020   71.2680  227.2200 C   0  0  0  0  0  0  0  0  0  0  0  0
  139.9660   70.9910  226.2570 C   0  0  0  0  0  0  0  0  0  0  0  0
  139.7570   70.9040  223.3720 C   0  0  0  0  0  0  0  0  0  0  0  0
  139.5090   73.9010  222.3350 N   0  0  0  0  0  0  0  0  0  0  0  0
  139.9000   75.2440  222.1670 C   0  0  0  0  0  0  0  0  0  0  0  0
  139.1040   76.2420  222.7040 C   0  0  0  0  0  0  0  0  0  0  0  0
  139.4880   77.5600  222.5400 C   0  0  0  0  0  0  0  0  0  0  0  0
  140.6470   77.8500  221.8500 C   0  0  0  0  0  0  0  0  0  0  0  0
  141.0150   79.2550  221.7020 C   0  0  0  0  0  0  0  0  0  0  0  0
  141.4330   79.9150  222.8590 C   0  0  0  0  0  0  0  0  0  0  0  0
  141.8060   81.2620  222.8160 C   0  0  0  0  0  0  0  0  0  0  0  0
  141.7350   81.8850  221.5740 C   0  0  0  0  0  0  0  0  0  0  0  0
  141.3260   81.2200  220.4770 N   0  0  0  0  0  0  0  0  0  0  0  0
  140.9630   79.9240  220.4990 C   0  0  0  0  0  0  0  0  0  0  0  0
  141.4420   76.8320  221.3130 C   0  0  0  0  0  0  0  0  0  0  0  0
  141.0520   75.5160  221.4790 C   0  0  0  0  0  0  0  0  0  0  0  0
  141.2782   72.5242  220.1308 H   0  0  0  0  0  0  0  0  0  0  0  0
  142.2109   72.4513  221.6743 H   0  0  0  0  0  0  0  0  0  0  0  0
  138.6747   71.4240  220.2501 H   0  0  0  0  0  0  0  0  0  0  0  0
  137.6555   69.2020  220.6062 H   0  0  0  0  0  0  0  0  0  0  0  0
  138.0064   68.0728  222.7977 H   0  0  0  0  0  0  0  0  0  0  0  0
  139.0248   68.9189  227.9732 H   0  0  0  0  0  0  0  0  0  0  0  0
  139.9034   67.6856  227.0294 H   0  0  0  0  0  0  0  0  0  0  0  0
  141.3425   68.5315  228.8785 H   0  0  0  0  0  0  0  0  0  0  0  0
  142.0337   69.0305  227.3133 H   0  0  0  0  0  0  0  0  0  0  0  0
  141.0574   72.3258  227.5185 H   0  0  0  0  0  0  0  0  0  0  0  0
  142.0397   71.0256  226.6985 H   0  0  0  0  0  0  0  0  0  0  0  0
  139.0501   71.4645  226.6404 H   0  0  0  0  0  0  0  0  0  0  0  0
  140.2410   71.4026  225.2747 H   0  0  0  0  0  0  0  0  0  0  0  0
  140.3571   71.3865  224.1575 H   0  0  0  0  0  0  0  0  0  0  0  0
  138.1833   75.9907  223.2509 H   0  0  0  0  0  0  0  0  0  0  0  0
  138.8737   78.3718  222.9567 H   0  0  0  0  0  0  0  0  0  0  0  0
  141.4693   79.3701  223.8138 H   0  0  0  0  0  0  0  0  0  0  0  0
  142.1378   81.8003  223.7161 H   0  0  0  0  0  0  0  0  0  0  0  0
  142.0192   82.9440  221.4863 H   0  0  0  0  0  0  0  0  0  0  0  0
  140.6340   79.4134  219.5819 H   0  0  0  0  0  0  0  0  0  0  0  0
  142.3649   77.0752  220.7661 H   0  0  0  0  0  0  0  0  0  0  0  0
  1  2  2  0
  2  3  1  0
  3  4  1  0
  4  5  1  0
  5  6  2  0
  6  7  1  0
  7  8  2  0
  8  9  1  0
  9 10  1  0
 10 11  2  0
 10 12  1  0
 12 13  1  0
 13 14  1  0
 14 15  1  0
 15 16  1  0
 16 17  1  0
  9 18  2  0
  4 19  2  0
 19 20  1  0
 20 21  2  0
 21 22  1  0
 22 23  2  0
 23 24  1  0
 24 25  2  0
 25 26  1  0
 26 27  2  0
 27 28  1  0
 28 29  2  0
 23 30  1  0
 30 31  2  0
 31  2  1  0
 18  5  1  0
 31 20  1  0
 17 12  1  0
 29 24  1  0
  3 32  1  0
  3 33  1  0
  6 34  1  0
  7 35  1  0
  8 36  1  0
 13 37  1  0
 13 38  1  0
 14 39  1  0
 14 40  1  0
 16 41  1  0
 16 42  1  0
 17 43  1  0
 17 44  1  0
 18 45  1  0
 21 46  1  0
 22 47  1  0
 25 48  1  0
 26 49  1  0
 27 50  1  0
 29 51  1  0
 30 52  1  0
M  END
>  <smiles>  (11) 
O=C1CC(c2cccc(C(=O)N3CCOCC3)c2)=Nc2ccc(-c3cccnc3)cc21

>  <score_type>  (11) 
oracle

>  <origin>  (11) 
autodockgpu

>  <m_score__min__energy>  (11) 
-9.0999999999999996

>  <m_primary>  (11) 
energy

>  <rmsd>  (11) 
6.825962118304232

>  <m_score__min__rmsd>  (11) 
6.825962118304232

>  <meeko>  (11) 
{"free_energy": -9.0, "intermolecular_energy": -9.9, "internal_energy": -0.74, "cluster_size": 44, "cluster_id": 1, "rank_in_cluster": 25}

>  <energy>  (11) 
-9.08

>  <cluster_rmsd>  (11) 
0.03

>  <cluster>  (11) 
1

$$$$

     RDKit          3D

 52 56  0  0  0  0  0  0  0  0999 V2000
  142.8880   74.6560  220.2240 O   0  0  0  0  0  0  0  0  0  0  0  0
  141.8430   74.3880  220.8790 C   0  0  0  0  0  0  0  0  0  0  0  0
  141.4790   72.9680  221.0480 C   0  0  0  0  0  0  0  0  0  0  0  0
  140.2290   72.8370  221.8420 C   0  0  0  0  0  0  0  0  0  0  0  0
  139.6910   71.5120  222.1340 C   0  0  0  0  0  0  0  0  0  0  0  0
  139.0340   70.8080  221.1470 C   0  0  0  0  0  0  0  0  0  0  0  0
  138.4940   69.5550  221.3350 C   0  0  0  0  0  0  0  0  0  0  0  0
  138.6280   68.9900  222.5930 C   0  0  0  0  0  0  0  0  0  0  0  0
  139.2730   69.6390  223.6250 C   0  0  0  0  0  0  0  0  0  0  0  0
  139.3780   68.9980  224.9140 C   0  0  0  0  0  0  0  0  0  0  0  0
  139.1690   67.7650  224.9810 O   0  0  0  0  0  0  0  0  0  0  0  0
  139.7050   69.6660  226.1220 N   0  0  0  0  0  0  0  0  0  0  0  0
  139.7810   68.8950  227.3590 C   0  0  0  0  0  0  0  0  0  0  0  0
  141.0650   69.2990  228.0850 C   0  0  0  0  0  0  0  0  0  0  0  0
  140.9610   70.6400  228.3960 O   0  0  0  0  0  0  0  0  0  0  0  0
  141.0790   71.3710  227.2190 C   0  0  0  0  0  0  0  0  0  0  0  0
  139.9740   71.0810  226.2240 C   0  0  0  0  0  0  0  0  0  0  0  0
  139.8000   70.9090  223.3650 C   0  0  0  0  0  0  0  0  0  0  0  0
  139.5800   73.8530  222.3030 N   0  0  0  0  0  0  0  0  0  0  0  0
  139.9430   75.2030  222.1310 C   0  0  0  0  0  0  0  0  0  0  0  0
  139.1410   76.1850  222.6880 C   0  0  0  0  0  0  0  0  0  0  0  0
  139.4970   77.5100  222.5190 C   0  0  0  0  0  0  0  0  0  0  0  0
  140.6350   77.8230  221.8060 C   0  0  0  0  0  0  0  0  0  0  0  0
  140.9740   79.2350  221.6540 C   0  0  0  0  0  0  0  0  0  0  0  0
  141.3940   79.9030  222.8060 C   0  0  0  0  0  0  0  0  0  0  0  0
  141.7400   81.2560  222.7600 C   0  0  0  0  0  0  0  0  0  0  0  0
  141.6430   81.8780  221.5190 C   0  0  0  0  0  0  0  0  0  0  0  0
  141.2340   81.2050  220.4270 N   0  0  0  0  0  0  0  0  0  0  0  0
  140.8970   79.9030  220.4510 C   0  0  0  0  0  0  0  0  0  0  0  0
  141.4360   76.8200  221.2480 C   0  0  0  0  0  0  0  0  0  0  0  0
  141.0740   75.4980  221.4190 C   0  0  0  0  0  0  0  0  0  0  0  0
  141.3271   72.5138  220.0577 H   0  0  0  0  0  0  0  0  0  0  0  0
  142.2926   72.4554  221.5821 H   0  0  0  0  0  0  0  0  0  0  0  0
  138.9358   71.2727  220.1548 H   0  0  0  0  0  0  0  0  0  0  0  0
  137.9781   69.0251  220.5207 H   0  0  0  0  0  0  0  0  0  0  0  0
  138.2059   67.9906  222.7747 H   0  0  0  0  0  0  0  0  0  0  0  0
  138.9085   69.1157  227.9915 H   0  0  0  0  0  0  0  0  0  0  0  0
  139.7872   67.8171  227.1396 H   0  0  0  0  0  0  0  0  0  0  0  0
  141.1780   68.7076  229.0056 H   0  0  0  0  0  0  0  0  0  0  0  0
  141.9438   69.1155  227.4494 H   0  0  0  0  0  0  0  0  0  0  0  0
  141.0529   72.4420  227.4684 H   0  0  0  0  0  0  0  0  0  0  0  0
  142.0290   71.0801  226.7470 H   0  0  0  0  0  0  0  0  0  0  0  0
  139.0577   71.5956  226.5489 H   0  0  0  0  0  0  0  0  0  0  0  0
  140.2988   71.4404  225.2364 H   0  0  0  0  0  0  0  0  0  0  0  0
  140.3197   71.4437  224.1737 H   0  0  0  0  0  0  0  0  0  0  0  0
  138.2374   75.9156  223.2545 H   0  0  0  0  0  0  0  0  0  0  0  0
  138.8766   78.3093  222.9504 H   0  0  0  0  0  0  0  0  0  0  0  0
  141.4531   79.3583  223.7599 H   0  0  0  0  0  0  0  0  0  0  0  0
  142.0713   81.8002  223.6567 H   0  0  0  0  0  0  0  0  0  0  0  0
  141.9061   82.9422  221.4282 H   0  0  0  0  0  0  0  0  0  0  0  0
  140.5694   79.3863  219.5368 H   0  0  0  0  0  0  0  0  0  0  0  0
  142.3417   77.0810  220.6809 H   0  0  0  0  0  0  0  0  0  0  0  0
  1  2  2  0
  2  3  1  0
  3  4  1  0
  4  5  1  0
  5  6  2  0
  6  7  1  0
  7  8  2  0
  8  9  1  0
  9 10  1  0
 10 11  2  0
 10 12  1  0
 12 13  1  0
 13 14  1  0
 14 15  1  0
 15 16  1  0
 16 17  1  0
  9 18  2  0
  4 19  2  0
 19 20  1  0
 20 21  2  0
 21 22  1  0
 22 23  2  0
 23 24  1  0
 24 25  2  0
 25 26  1  0
 26 27  2  0
 27 28  1  0
 28 29  2  0
 23 30  1  0
 30 31  2  0
 31  2  1  0
 18  5  1  0
 31 20  1  0
 17 12  1  0
 29 24  1  0
  3 32  1  0
  3 33  1  0
  6 34  1  0
  7 35  1  0
  8 36  1  0
 13 37  1  0
 13 38  1  0
 14 39  1  0
 14 40  1  0
 16 41  1  0
 16 42  1  0
 17 43  1  0
 17 44  1  0
 18 45  1  0
 21 46  1  0
 22 47  1  0
 25 48  1  0
 26 49  1  0
 27 50  1  0
 29 51  1  0
 30 52  1  0
M  END
>  <smiles>  (12) 
O=C1CC(c2cccc(C(=O)N3CCOCC3)c2)=Nc2ccc(-c3cccnc3)cc21

>  <score_type>  (12) 
oracle

>  <origin>  (12) 
autodockgpu

>  <m_score__min__energy>  (12) 
-9.0999999999999996

>  <m_primary>  (12) 
energy

>  <rmsd>  (12) 
6.832230279721421

>  <m_score__min__rmsd>  (12) 
6.832230279721421

>  <meeko>  (12) 
{"free_energy": -9.09, "intermolecular_energy": -9.98, "internal_energy": -0.72, "cluster_size": 44, "cluster_id": 1, "rank_in_cluster": 3}

>  <energy>  (12) 
-9.08

>  <cluster_rmsd>  (12) 
0.03

>  <cluster>  (12) 
1

$$$$

     RDKit          3D

 52 56  0  0  0  0  0  0  0  0999 V2000
  141.5800   81.2080  224.1620 O   0  0  0  0  0  0  0  0  0  0  0  0
  141.0210   80.3470  223.4260 C   0  0  0  0  0  0  0  0  0  0  0  0
  141.8670   79.5980  222.4770 C   0  0  0  0  0  0  0  0  0  0  0  0
  141.0500   78.6310  221.6970 C   0  0  0  0  0  0  0  0  0  0  0  0
  141.6920   77.7780  220.7010 C   0  0  0  0  0  0  0  0  0  0  0  0
  142.1950   78.3360  219.5440 C   0  0  0  0  0  0  0  0  0  0  0  0
  142.8110   77.6080  218.5520 C   0  0  0  0  0  0  0  0  0  0  0  0
  142.9230   76.2400  218.7460 C   0  0  0  0  0  0  0  0  0  0  0  0
  142.4420   75.6170  219.8800 C   0  0  0  0  0  0  0  0  0  0  0  0
  142.5870   74.1880  220.0230 C   0  0  0  0  0  0  0  0  0  0  0  0
  141.5620   73.4760  219.9200 O   0  0  0  0  0  0  0  0  0  0  0  0
  143.8160   73.5240  220.2740 N   0  0  0  0  0  0  0  0  0  0  0  0
  143.8210   72.0700  220.3960 C   0  0  0  0  0  0  0  0  0  0  0  0
  144.9790   71.5340  219.5530 C   0  0  0  0  0  0  0  0  0  0  0  0
  146.1490   72.0350  220.0880 O   0  0  0  0  0  0  0  0  0  0  0  0
  146.2140   73.3930  219.7980 C   0  0  0  0  0  0  0  0  0  0  0  0
  145.0870   74.1900  220.4220 C   0  0  0  0  0  0  0  0  0  0  0  0
  141.8270   76.4170  220.8490 C   0  0  0  0  0  0  0  0  0  0  0  0
  139.7770   78.4960  221.8570 N   0  0  0  0  0  0  0  0  0  0  0  0
  138.9860   79.2230  222.7690 C   0  0  0  0  0  0  0  0  0  0  0  0
  137.6260   78.9640  222.8240 C   0  0  0  0  0  0  0  0  0  0  0  0
  136.8500   79.6760  223.7190 C   0  0  0  0  0  0  0  0  0  0  0  0
  137.4410   80.6210  224.5310 C   0  0  0  0  0  0  0  0  0  0  0  0
  136.5830   81.3490  225.4620 C   0  0  0  0  0  0  0  0  0  0  0  0
  135.2380   80.9730  225.4940 C   0  0  0  0  0  0  0  0  0  0  0  0
  134.3400   81.6120  226.3540 C   0  0  0  0  0  0  0  0  0  0  0  0
  134.8620   82.6210  227.1560 C   0  0  0  0  0  0  0  0  0  0  0  0
  136.1630   82.9600  227.1000 N   0  0  0  0  0  0  0  0  0  0  0  0
  137.0430   82.3570  226.2800 C   0  0  0  0  0  0  0  0  0  0  0  0
  138.8150   80.8730  224.4640 C   0  0  0  0  0  0  0  0  0  0  0  0
  139.5870   80.1580  223.5670 C   0  0  0  0  0  0  0  0  0  0  0  0
  142.3477   80.3054  221.7853 H   0  0  0  0  0  0  0  0  0  0  0  0
  142.6286   79.0423  223.0437 H   0  0  0  0  0  0  0  0  0  0  0  0
  142.0983   79.4231  219.4068 H   0  0  0  0  0  0  0  0  0  0  0  0
  143.1984   78.0914  217.6430 H   0  0  0  0  0  0  0  0  0  0  0  0
  143.4112   75.6310  217.9709 H   0  0  0  0  0  0  0  0  0  0  0  0
  143.9605   71.7833  221.4488 H   0  0  0  0  0  0  0  0  0  0  0  0
  142.8655   71.6518  220.0464 H   0  0  0  0  0  0  0  0  0  0  0  0
  144.9910   70.4346  219.5873 H   0  0  0  0  0  0  0  0  0  0  0  0
  144.8695   71.8437  218.5032 H   0  0  0  0  0  0  0  0  0  0  0  0
  147.1702   73.7857  220.1742 H   0  0  0  0  0  0  0  0  0  0  0  0
  146.1250   73.4993  218.7068 H   0  0  0  0  0  0  0  0  0  0  0  0
  145.2963   74.3243  221.4935 H   0  0  0  0  0  0  0  0  0  0  0  0
  145.0274   75.1602  219.9070 H   0  0  0  0  0  0  0  0  0  0  0  0
  141.4378   75.9411  221.7611 H   0  0  0  0  0  0  0  0  0  0  0  0
  137.1726   78.2063  222.1680 H   0  0  0  0  0  0  0  0  0  0  0  0
  135.7677   79.4901  223.7832 H   0  0  0  0  0  0  0  0  0  0  0  0
  134.8821   80.1664  224.8362 H   0  0  0  0  0  0  0  0  0  0  0  0
  133.2771   81.3316  226.3942 H   0  0  0  0  0  0  0  0  0  0  0  0
  134.1968   83.1537  227.8515 H   0  0  0  0  0  0  0  0  0  0  0  0
  138.1001   82.6606  226.2634 H   0  0  0  0  0  0  0  0  0  0  0  0
  139.2753   81.6298  225.1161 H   0  0  0  0  0  0  0  0  0  0  0  0
  1  2  2  0
  2  3  1  0
  3  4  1  0
  4  5  1  0
  5  6  2  0
  6  7  1  0
  7  8  2  0
  8  9  1  0
  9 10  1  0
 10 11  2  0
 10 12  1  0
 12 13  1  0
 13 14  1  0
 14 15  1  0
 15 16  1  0
 16 17  1  0
  9 18  2  0
  4 19  2  0
 19 20  1  0
 20 21  2  0
 21 22  1  0
 22 23  2  0
 23 24  1  0
 24 25  2  0
 25 26  1  0
 26 27  2  0
 27 28  1  0
 28 29  2  0
 23 30  1  0
 30 31  2  0
 31  2  1  0
 18  5  1  0
 31 20  1  0
 17 12  1  0
 29 24  1  0
  3 32  1  0
  3 33  1  0
  6 34  1  0
  7 35  1  0
  8 36  1  0
 13 37  1  0
 13 38  1  0
 14 39  1  0
 14 40  1  0
 16 41  1  0
 16 42  1  0
 17 43  1  0
 17 44  1  0
 18 45  1  0
 21 46  1  0
 22 47  1  0
 25 48  1  0
 26 49  1  0
 27 50  1  0
 29 51  1  0
 30 52  1  0
M  END
>  <smiles>  (13) 
O=C1CC(c2cccc(C(=O)N3CCOCC3)c2)=Nc2ccc(-c3cccnc3)cc21

>  <score_type>  (13) 
oracle

>  <origin>  (13) 
autodockgpu

>  <m_score__min__energy>  (13) 
-9.0999999999999996

>  <m_primary>  (13) 
energy

>  <rmsd>  (13) 
8.883005527389967

>  <m_score__min__rmsd>  (13) 
8.883005527389967

>  <meeko>  (13) 
{"free_energy": -7.77, "intermolecular_energy": -8.67, "internal_energy": -0.93, "cluster_size": 5, "cluster_id": 2, "rank_in_cluster": 5}

>  <energy>  (13) 
-9.08

>  <cluster_rmsd>  (13) 
0.11

>  <cluster>  (13) 
1

$$$$

     RDKit          3D

 52 56  0  0  0  0  0  0  0  0999 V2000
  142.8900   74.7090  220.2430 O   0  0  0  0  0  0  0  0  0  0  0  0
  141.8430   74.4450  220.8990 C   0  0  0  0  0  0  0  0  0  0  0  0
  141.4710   73.0270  221.0620 C   0  0  0  0  0  0  0  0  0  0  0  0
  140.2220   72.9010  221.8580 C   0  0  0  0  0  0  0  0  0  0  0  0
  139.6750   71.5770  222.1460 C   0  0  0  0  0  0  0  0  0  0  0  0
  139.0050   70.8860  221.1590 C   0  0  0  0  0  0  0  0  0  0  0  0
  138.4560   69.6370  221.3430 C   0  0  0  0  0  0  0  0  0  0  0  0
  138.5960   69.0610  222.5950 C   0  0  0  0  0  0  0  0  0  0  0  0
  139.2550   69.6980  223.6270 C   0  0  0  0  0  0  0  0  0  0  0  0
  139.3670   69.0460  224.9100 C   0  0  0  0  0  0  0  0  0  0  0  0
  139.1630   67.8120  224.9670 O   0  0  0  0  0  0  0  0  0  0  0  0
  139.6950   69.7060  226.1230 N   0  0  0  0  0  0  0  0  0  0  0  0
  139.7770   68.9240  227.3530 C   0  0  0  0  0  0  0  0  0  0  0  0
  141.0610   69.3280  228.0790 C   0  0  0  0  0  0  0  0  0  0  0  0
  140.9530   70.6660  228.4010 O   0  0  0  0  0  0  0  0  0  0  0  0
  141.0650   71.4070  227.2300 C   0  0  0  0  0  0  0  0  0  0  0  0
  139.9580   71.1210  226.2360 C   0  0  0  0  0  0  0  0  0  0  0  0
  139.7900   70.9650  223.3720 C   0  0  0  0  0  0  0  0  0  0  0  0
  139.5800   73.9180  222.3250 N   0  0  0  0  0  0  0  0  0  0  0  0
  139.9510   75.2670  222.1580 C   0  0  0  0  0  0  0  0  0  0  0  0
  139.1570   76.2520  222.7210 C   0  0  0  0  0  0  0  0  0  0  0  0
  139.5210   77.5750  222.5580 C   0  0  0  0  0  0  0  0  0  0  0  0
  140.6600   77.8840  221.8430 C   0  0  0  0  0  0  0  0  0  0  0  0
  141.0080   79.2940  221.6970 C   0  0  0  0  0  0  0  0  0  0  0  0
  141.4480   79.9510  222.8490 C   0  0  0  0  0  0  0  0  0  0  0  0
  141.8040   81.3020  222.8070 C   0  0  0  0  0  0  0  0  0  0  0  0
  141.6950   81.9330  221.5720 C   0  0  0  0  0  0  0  0  0  0  0  0
  141.2670   81.2710  220.4810 N   0  0  0  0  0  0  0  0  0  0  0  0
  140.9200   79.9720  220.5010 C   0  0  0  0  0  0  0  0  0  0  0  0
  141.4540   76.8790  221.2800 C   0  0  0  0  0  0  0  0  0  0  0  0
  141.0840   75.5580  221.4450 C   0  0  0  0  0  0  0  0  0  0  0  0
  141.3141   72.5783  220.0700 H   0  0  0  0  0  0  0  0  0  0  0  0
  142.2826   72.5065  221.5916 H   0  0  0  0  0  0  0  0  0  0  0  0
  138.9036   71.3583  220.1707 H   0  0  0  0  0  0  0  0  0  0  0  0
  137.9280   69.1179  220.5295 H   0  0  0  0  0  0  0  0  0  0  0  0
  138.1680   68.0634  222.7725 H   0  0  0  0  0  0  0  0  0  0  0  0
  138.9050   69.1351  227.9895 H   0  0  0  0  0  0  0  0  0  0  0  0
  139.7871   67.8481  227.1244 H   0  0  0  0  0  0  0  0  0  0  0  0
  141.1787   68.7298  228.9946 H   0  0  0  0  0  0  0  0  0  0  0  0
  141.9387   69.1534  227.4393 H   0  0  0  0  0  0  0  0  0  0  0  0
  141.0358   72.4759  227.4882 H   0  0  0  0  0  0  0  0  0  0  0  0
  142.0148   71.1237  226.7528 H   0  0  0  0  0  0  0  0  0  0  0  0
  139.0405   71.6288  226.5682 H   0  0  0  0  0  0  0  0  0  0  0  0
  140.2779   71.4904  225.2505 H   0  0  0  0  0  0  0  0  0  0  0  0
  140.3209   71.4898  224.1799 H   0  0  0  0  0  0  0  0  0  0  0  0
  138.2526   75.9860  223.2879 H   0  0  0  0  0  0  0  0  0  0  0  0
  138.9071   78.3762  222.9952 H   0  0  0  0  0  0  0  0  0  0  0  0
  141.5149   79.3995  223.7984 H   0  0  0  0  0  0  0  0  0  0  0  0
  142.1518   81.8376  223.7026 H   0  0  0  0  0  0  0  0  0  0  0  0
  141.9644   82.9960  221.4852 H   0  0  0  0  0  0  0  0  0  0  0  0
  140.5754   79.4648  219.5877 H   0  0  0  0  0  0  0  0  0  0  0  0
  142.3609   77.1371  220.7134 H   0  0  0  0  0  0  0  0  0  0  0  0
  1  2  2  0
  2  3  1  0
  3  4  1  0
  4  5  1  0
  5  6  2  0
  6  7  1  0
  7  8  2  0
  8  9  1  0
  9 10  1  0
 10 11  2  0
 10 12  1  0
 12 13  1  0
 13 14  1  0
 14 15  1  0
 15 16  1  0
 16 17  1  0
  9 18  2  0
  4 19  2  0
 19 20  1  0
 20 21  2  0
 21 22  1  0
 22 23  2  0
 23 24  1  0
 24 25  2  0
 25 26  1  0
 26 27  2  0
 27 28  1  0
 28 29  2  0
 23 30  1  0
 30 31  2  0
 31  2  1  0
 18  5  1  0
 31 20  1  0
 17 12  1  0
 29 24  1  0
  3 32  1  0
  3 33  1  0
  6 34  1  0
  7 35  1  0
  8 36  1  0
 13 37  1  0
 13 38  1  0
 14 39  1  0
 14 40  1  0
 16 41  1  0
 16 42  1  0
 17 43  1  0
 17 44  1  0
 18 45  1  0
 21 46  1  0
 22 47  1  0
 25 48  1  0
 26 49  1  0
 27 50  1  0
 29 51  1  0
 30 52  1  0
M  END
>  <smiles>  (14) 
O=C1CC(c2cccc(C(=O)N3CCOCC3)c2)=Nc2ccc(-c3cccnc3)cc21

>  <score_type>  (14) 
oracle

>  <origin>  (14) 
autodockgpu

>  <m_score__min__energy>  (14) 
-9.0999999999999996

>  <m_primary>  (14) 
energy

>  <rmsd>  (14) 
6.836901533853113

>  <m_score__min__rmsd>  (14) 
6.836901533853113

>  <meeko>  (14) 
{"free_energy": -9.09, "intermolecular_energy": -9.99, "internal_energy": -0.72, "cluster_size": 44, "cluster_id": 1, "rank_in_cluster": 2}

>  <energy>  (14) 
-9.08

>  <cluster_rmsd>  (14) 
0.03

>  <cluster>  (14) 
1

$$$$

     RDKit          3D

 52 56  0  0  0  0  0  0  0  0999 V2000
  141.6650   81.0440  223.9780 O   0  0  0  0  0  0  0  0  0  0  0  0
  141.0970   80.2040  223.2250 C   0  0  0  0  0  0  0  0  0  0  0  0
  141.9360   79.4570  222.2680 C   0  0  0  0  0  0  0  0  0  0  0  0
  141.1080   78.5160  221.4680 C   0  0  0  0  0  0  0  0  0  0  0  0
  141.7420   77.6690  220.4610 C   0  0  0  0  0  0  0  0  0  0  0  0
  142.2130   78.2320  219.2940 C   0  0  0  0  0  0  0  0  0  0  0  0
  142.8210   77.5100  218.2910 C   0  0  0  0  0  0  0  0  0  0  0  0
  142.9540   76.1440  218.4850 C   0  0  0  0  0  0  0  0  0  0  0  0
  142.5040   75.5170  219.6290 C   0  0  0  0  0  0  0  0  0  0  0  0
  142.6710   74.0910  219.7720 C   0  0  0  0  0  0  0  0  0  0  0  0
  141.6690   73.3580  219.6060 O   0  0  0  0  0  0  0  0  0  0  0  0
  143.8970   73.4500  220.0900 N   0  0  0  0  0  0  0  0  0  0  0  0
  143.9260   71.9960  220.2030 C   0  0  0  0  0  0  0  0  0  0  0  0
  145.1420   71.4900  219.4260 C   0  0  0  0  0  0  0  0  0  0  0  0
  146.2680   72.0120  220.0310 O   0  0  0  0  0  0  0  0  0  0  0  0
  146.3210   73.3740  219.7530 C   0  0  0  0  0  0  0  0  0  0  0  0
  145.1430   74.1420  220.3160 C   0  0  0  0  0  0  0  0  0  0  0  0
  141.8980   76.3110  220.6090 C   0  0  0  0  0  0  0  0  0  0  0  0
  139.8320   78.3980  221.6200 N   0  0  0  0  0  0  0  0  0  0  0  0
  139.0470   79.1210  222.5400 C   0  0  0  0  0  0  0  0  0  0  0  0
  137.6840   78.8830  222.5850 C   0  0  0  0  0  0  0  0  0  0  0  0
  136.9140   79.5920  223.4880 C   0  0  0  0  0  0  0  0  0  0  0  0
  137.5160   80.5150  224.3180 C   0  0  0  0  0  0  0  0  0  0  0  0
  136.6650   81.2400  225.2570 C   0  0  0  0  0  0  0  0  0  0  0  0
  137.3090   82.1090  226.1390 C   0  0  0  0  0  0  0  0  0  0  0  0
  136.5780   82.8480  227.0750 C   0  0  0  0  0  0  0  0  0  0  0  0
  135.1990   82.6640  227.0670 C   0  0  0  0  0  0  0  0  0  0  0  0
  134.6080   81.8170  226.2020 N   0  0  0  0  0  0  0  0  0  0  0  0
  135.2950   81.0980  225.2950 C   0  0  0  0  0  0  0  0  0  0  0  0
  138.8940   80.7460  224.2620 C   0  0  0  0  0  0  0  0  0  0  0  0
  139.6590   80.0350  223.3560 C   0  0  0  0  0  0  0  0  0  0  0  0
  142.4316   80.1679  221.5905 H   0  0  0  0  0  0  0  0  0  0  0  0
  142.6855   78.8799  222.8294 H   0  0  0  0  0  0  0  0  0  0  0  0
  142.0969   79.3172  219.1564 H   0  0  0  0  0  0  0  0  0  0  0  0
  143.1857   77.9969  217.3745 H   0  0  0  0  0  0  0  0  0  0  0  0
  143.4341   75.5398  217.7012 H   0  0  0  0  0  0  0  0  0  0  0  0
  144.0100   71.7046  221.2604 H   0  0  0  0  0  0  0  0  0  0  0  0
  143.0017   71.5608  219.7953 H   0  0  0  0  0  0  0  0  0  0  0  0
  145.1754   70.3909  219.4551 H   0  0  0  0  0  0  0  0  0  0  0  0
  145.0871   71.8041  218.3732 H   0  0  0  0  0  0  0  0  0  0  0  0
  147.2453   73.7839  220.1861 H   0  0  0  0  0  0  0  0  0  0  0  0
  146.2932   73.4867  218.6591 H   0  0  0  0  0  0  0  0  0  0  0  0
  145.2871   74.2722  221.3987 H   0  0  0  0  0  0  0  0  0  0  0  0
  145.0923   75.1148  219.8050 H   0  0  0  0  0  0  0  0  0  0  0  0
  141.5337   75.8320  221.5298 H   0  0  0  0  0  0  0  0  0  0  0  0
  137.2222   78.1433  221.9145 H   0  0  0  0  0  0  0  0  0  0  0  0
  135.8288   79.4214  223.5444 H   0  0  0  0  0  0  0  0  0  0  0  0
  138.4032   82.2139  226.0977 H   0  0  0  0  0  0  0  0  0  0  0  0
  137.0669   83.5372  227.7792 H   0  0  0  0  0  0  0  0  0  0  0  0
  134.5776   83.2223  227.7826 H   0  0  0  0  0  0  0  0  0  0  0  0
  134.7775   80.4165  224.6038 H   0  0  0  0  0  0  0  0  0  0  0  0
  139.3631   81.4835  224.9298 H   0  0  0  0  0  0  0  0  0  0  0  0
  1  2  2  0
  2  3  1  0
  3  4  1  0
  4  5  1  0
  5  6  2  0
  6  7  1  0
  7  8  2  0
  8  9  1  0
  9 10  1  0
 10 11  2  0
 10 12  1  0
 12 13  1  0
 13 14  1  0
 14 15  1  0
 15 16  1  0
 16 17  1  0
  9 18  2  0
  4 19  2  0
 19 20  1  0
 20 21  2  0
 21 22  1  0
 22 23  2  0
 23 24  1  0
 24 25  2  0
 25 26  1  0
 26 27  2  0
 27 28  1  0
 28 29  2  0
 23 30  1  0
 30 31  2  0
 31  2  1  0
 18  5  1  0
 31 20  1  0
 17 12  1  0
 29 24  1  0
  3 32  1  0
  3 33  1  0
  6 34  1  0
  7 35  1  0
  8 36  1  0
 13 37  1  0
 13 38  1  0
 14 39  1  0
 14 40  1  0
 16 41  1  0
 16 42  1  0
 17 43  1  0
 17 44  1  0
 18 45  1  0
 21 46  1  0
 22 47  1  0
 25 48  1  0
 26 49  1  0
 27 50  1  0
 29 51  1  0
 30 52  1  0
M  END
>  <smiles>  (15) 
O=C1CC(c2cccc(C(=O)N3CCOCC3)c2)=Nc2ccc(-c3cccnc3)cc21

>  <score_type>  (15) 
oracle

>  <origin>  (15) 
autodockgpu

>  <m_score__min__energy>  (15) 
-9.0999999999999996

>  <m_primary>  (15) 
energy

>  <rmsd>  (15) 
8.883133012851525

>  <m_score__min__rmsd>  (15) 
8.883133012851525

>  <meeko>  (15) 
{"free_energy": -7.92, "intermolecular_energy": -8.82, "internal_energy": -0.94, "cluster_size": 5, "cluster_id": 2, "rank_in_cluster": 2}

>  <energy>  (15) 
-9.07

>  <cluster_rmsd>  (15) 
0.07

>  <cluster>  (15) 
1

$$$$

     RDKit          3D

 52 56  0  0  0  0  0  0  0  0999 V2000
  142.9000   74.6640  220.2270 O   0  0  0  0  0  0  0  0  0  0  0  0
  141.8540   74.3980  220.8820 C   0  0  0  0  0  0  0  0  0  0  0  0
  141.4880   72.9790  221.0510 C   0  0  0  0  0  0  0  0  0  0  0  0
  140.2370   72.8510  221.8440 C   0  0  0  0  0  0  0  0  0  0  0  0
  139.6970   71.5260  222.1370 C   0  0  0  0  0  0  0  0  0  0  0  0
  139.0330   70.8260  221.1510 C   0  0  0  0  0  0  0  0  0  0  0  0
  138.4900   69.5750  221.3400 C   0  0  0  0  0  0  0  0  0  0  0  0
  138.6290   69.0070  222.5960 C   0  0  0  0  0  0  0  0  0  0  0  0
  139.2810   69.6520  223.6260 C   0  0  0  0  0  0  0  0  0  0  0  0
  139.3920   69.0080  224.9140 C   0  0  0  0  0  0  0  0  0  0  0  0
  139.1990   67.7720  224.9760 O   0  0  0  0  0  0  0  0  0  0  0  0
  139.7060   69.6760  226.1250 N   0  0  0  0  0  0  0  0  0  0  0  0
  139.7890   68.9020  227.3590 C   0  0  0  0  0  0  0  0  0  0  0  0
  141.0650   69.3210  228.0900 C   0  0  0  0  0  0  0  0  0  0  0  0
  140.9430   70.6590  228.4050 O   0  0  0  0  0  0  0  0  0  0  0  0
  141.0540   71.3960  227.2310 C   0  0  0  0  0  0  0  0  0  0  0  0
  139.9560   71.0940  226.2320 C   0  0  0  0  0  0  0  0  0  0  0  0
  139.8110   70.9210  223.3660 C   0  0  0  0  0  0  0  0  0  0  0  0
  139.5890   73.8670  222.3040 N   0  0  0  0  0  0  0  0  0  0  0  0
  139.9550   75.2170  222.1320 C   0  0  0  0  0  0  0  0  0  0  0  0
  139.1540   76.2010  222.6880 C   0  0  0  0  0  0  0  0  0  0  0  0
  139.5120   77.5250  222.5190 C   0  0  0  0  0  0  0  0  0  0  0  0
  140.6510   77.8350  221.8060 C   0  0  0  0  0  0  0  0  0  0  0  0
  140.9930   79.2470  221.6540 C   0  0  0  0  0  0  0  0  0  0  0  0
  140.7000   79.8290  220.4190 C   0  0  0  0  0  0  0  0  0  0  0  0
  140.9900   81.1760  220.1780 C   0  0  0  0  0  0  0  0  0  0  0  0
  141.5740   81.8790  221.2260 C   0  0  0  0  0  0  0  0  0  0  0  0
  141.8440   81.2880  222.4050 N   0  0  0  0  0  0  0  0  0  0  0  0
  141.5730   79.9940  222.6550 C   0  0  0  0  0  0  0  0  0  0  0  0
  141.4510   76.8320  221.2490 C   0  0  0  0  0  0  0  0  0  0  0  0
  141.0870   75.5100  221.4200 C   0  0  0  0  0  0  0  0  0  0  0  0
  141.3362   72.5246  220.0608 H   0  0  0  0  0  0  0  0  0  0  0  0
  142.3004   72.4650  221.5856 H   0  0  0  0  0  0  0  0  0  0  0  0
  138.9319   71.2926  220.1600 H   0  0  0  0  0  0  0  0  0  0  0  0
  137.9676   69.0484  220.5277 H   0  0  0  0  0  0  0  0  0  0  0  0
  138.2052   68.0083  222.7777 H   0  0  0  0  0  0  0  0  0  0  0  0
  138.9117   69.1085  227.9897 H   0  0  0  0  0  0  0  0  0  0  0  0
  139.8106   67.8251  227.1358 H   0  0  0  0  0  0  0  0  0  0  0  0
  141.1831   68.7282  229.0090 H   0  0  0  0  0  0  0  0  0  0  0  0
  141.9478   69.1515  227.4560 H   0  0  0  0  0  0  0  0  0  0  0  0
  141.0121   72.4656  227.4842 H   0  0  0  0  0  0  0  0  0  0  0  0
  142.0094   71.1205  226.7606 H   0  0  0  0  0  0  0  0  0  0  0  0
  139.0319   71.5954  226.5556 H   0  0  0  0  0  0  0  0  0  0  0  0
  140.2791   71.4603  225.2464 H   0  0  0  0  0  0  0  0  0  0  0  0
  140.3368   71.4525  224.1729 H   0  0  0  0  0  0  0  0  0  0  0  0
  138.2494   75.9333  223.2538 H   0  0  0  0  0  0  0  0  0  0  0  0
  138.8930   78.3257  222.9500 H   0  0  0  0  0  0  0  0  0  0  0  0
  140.2363   79.2219  219.6275 H   0  0  0  0  0  0  0  0  0  0  0  0
  140.7682   81.6532  219.2120 H   0  0  0  0  0  0  0  0  0  0  0  0
  141.8210   82.9421  221.0885 H   0  0  0  0  0  0  0  0  0  0  0  0
  141.8081   79.5454  223.6315 H   0  0  0  0  0  0  0  0  0  0  0  0
  142.3574   77.0920  220.6826 H   0  0  0  0  0  0  0  0  0  0  0  0
  1  2  2  0
  2  3  1  0
  3  4  1  0
  4  5  1  0
  5  6  2  0
  6  7  1  0
  7  8  2  0
  8  9  1  0
  9 10  1  0
 10 11  2  0
 10 12  1  0
 12 13  1  0
 13 14  1  0
 14 15  1  0
 15 16  1  0
 16 17  1  0
  9 18  2  0
  4 19  2  0
 19 20  1  0
 20 21  2  0
 21 22  1  0
 22 23  2  0
 23 24  1  0
 24 25  2  0
 25 26  1  0
 26 27  2  0
 27 28  1  0
 28 29  2  0
 23 30  1  0
 30 31  2  0
 31  2  1  0
 18  5  1  0
 31 20  1  0
 17 12  1  0
 29 24  1  0
  3 32  1  0
  3 33  1  0
  6 34  1  0
  7 35  1  0
  8 36  1  0
 13 37  1  0
 13 38  1  0
 14 39  1  0
 14 40  1  0
 16 41  1  0
 16 42  1  0
 17 43  1  0
 17 44  1  0
 18 45  1  0
 21 46  1  0
 22 47  1  0
 25 48  1  0
 26 49  1  0
 27 50  1  0
 29 51  1  0
 30 52  1  0
M  END
>  <smiles>  (16) 
O=C1CC(c2cccc(C(=O)N3CCOCC3)c2)=Nc2ccc(-c3cccnc3)cc21

>  <score_type>  (16) 
oracle

>  <origin>  (16) 
autodockgpu

>  <m_score__min__energy>  (16) 
-9.0999999999999996

>  <m_primary>  (16) 
energy

>  <rmsd>  (16) 
6.835380755986118

>  <m_score__min__rmsd>  (16) 
6.835380755986118

>  <meeko>  (16) 
{"free_energy": -8.91, "intermolecular_energy": -9.81, "internal_energy": -0.72, "cluster_size": 44, "cluster_id": 1, "rank_in_cluster": 32}

>  <energy>  (16) 
-9.07

>  <cluster_rmsd>  (16) 
0.1

>  <cluster>  (16) 
1

$$$$

     RDKit          3D

 52 56  0  0  0  0  0  0  0  0999 V2000
  142.9140   74.6940  220.3200 O   0  0  0  0  0  0  0  0  0  0  0  0
  141.8500   74.4290  220.9480 C   0  0  0  0  0  0  0  0  0  0  0  0
  141.4780   73.0100  221.1060 C   0  0  0  0  0  0  0  0  0  0  0  0
  140.2080   72.8820  221.8680 C   0  0  0  0  0  0  0  0  0  0  0  0
  139.6590   71.5580  222.1450 C   0  0  0  0  0  0  0  0  0  0  0  0
  138.9710   70.8830  221.1580 C   0  0  0  0  0  0  0  0  0  0  0  0
  138.4180   69.6340  221.3330 C   0  0  0  0  0  0  0  0  0  0  0  0
  138.5730   69.0410  222.5760 C   0  0  0  0  0  0  0  0  0  0  0  0
  139.2500   69.6600  223.6060 C   0  0  0  0  0  0  0  0  0  0  0  0
  139.3760   68.9910  224.8790 C   0  0  0  0  0  0  0  0  0  0  0  0
  139.1850   67.7540  224.9190 O   0  0  0  0  0  0  0  0  0  0  0  0
  139.7030   69.6360  226.1000 N   0  0  0  0  0  0  0  0  0  0  0  0
  139.8010   68.8380  227.3170 C   0  0  0  0  0  0  0  0  0  0  0  0
  141.0840   69.2440  228.0420 C   0  0  0  0  0  0  0  0  0  0  0  0
  140.9640   70.5760  228.3850 O   0  0  0  0  0  0  0  0  0  0  0  0
  141.0610   71.3360  227.2240 C   0  0  0  0  0  0  0  0  0  0  0  0
  139.9520   71.0520  226.2320 C   0  0  0  0  0  0  0  0  0  0  0  0
  139.7880   70.9290  223.3610 C   0  0  0  0  0  0  0  0  0  0  0  0
  139.5500   73.8990  222.3120 N   0  0  0  0  0  0  0  0  0  0  0  0
  139.9210   75.2480  222.1500 C   0  0  0  0  0  0  0  0  0  0  0  0
  139.1070   76.2320  222.6870 C   0  0  0  0  0  0  0  0  0  0  0  0
  139.4710   77.5560  222.5290 C   0  0  0  0  0  0  0  0  0  0  0  0
  140.6290   77.8670  221.8450 C   0  0  0  0  0  0  0  0  0  0  0  0
  140.9750   79.2780  221.7030 C   0  0  0  0  0  0  0  0  0  0  0  0
  141.4830   79.9120  222.8390 C   0  0  0  0  0  0  0  0  0  0  0  0
  141.8440   81.2630  222.8000 C   0  0  0  0  0  0  0  0  0  0  0  0
  141.6680   81.9150  221.5840 C   0  0  0  0  0  0  0  0  0  0  0  0
  141.1750   81.2740  220.5080 N   0  0  0  0  0  0  0  0  0  0  0  0
  140.8230   79.9760  220.5250 C   0  0  0  0  0  0  0  0  0  0  0  0
  141.4410   76.8630  221.3080 C   0  0  0  0  0  0  0  0  0  0  0  0
  141.0710   75.5410  221.4680 C   0  0  0  0  0  0  0  0  0  0  0  0
  141.3498   72.5573  220.1117 H   0  0  0  0  0  0  0  0  0  0  0  0
  142.2764   72.4944  221.6597 H   0  0  0  0  0  0  0  0  0  0  0  0
  138.8579   71.3690  220.1777 H   0  0  0  0  0  0  0  0  0  0  0  0
  137.8760   69.1282  220.5203 H   0  0  0  0  0  0  0  0  0  0  0  0
  138.1418   68.0436  222.7468 H   0  0  0  0  0  0  0  0  0  0  0  0
  138.9305   69.0304  227.9614 H   0  0  0  0  0  0  0  0  0  0  0  0
  139.8218   67.7658  227.0719 H   0  0  0  0  0  0  0  0  0  0  0  0
  141.2127   68.6332  228.9478 H   0  0  0  0  0  0  0  0  0  0  0  0
  141.9600   69.0882  227.3952 H   0  0  0  0  0  0  0  0  0  0  0  0
  141.0209   72.4005  227.4983 H   0  0  0  0  0  0  0  0  0  0  0  0
  142.0113   71.0709  226.7375 H   0  0  0  0  0  0  0  0  0  0  0  0
  139.0310   71.5453  226.5761 H   0  0  0  0  0  0  0  0  0  0  0  0
  140.2630   71.4384  225.2502 H   0  0  0  0  0  0  0  0  0  0  0  0
  140.3324   71.4403  224.1686 H   0  0  0  0  0  0  0  0  0  0  0  0
  138.1880   75.9646  223.2291 H   0  0  0  0  0  0  0  0  0  0  0  0
  138.8421   78.3566  222.9456 H   0  0  0  0  0  0  0  0  0  0  0  0
  141.6004   79.3436  223.7734 H   0  0  0  0  0  0  0  0  0  0  0  0
  142.2453   81.7816  223.6832 H   0  0  0  0  0  0  0  0  0  0  0  0
  141.9377   82.9781  221.4998 H   0  0  0  0  0  0  0  0  0  0  0  0
  140.4252   79.4858  219.6242 H   0  0  0  0  0  0  0  0  0  0  0  0
  142.3621   77.1221  220.7654 H   0  0  0  0  0  0  0  0  0  0  0  0
  1  2  2  0
  2  3  1  0
  3  4  1  0
  4  5  1  0
  5  6  2  0
  6  7  1  0
  7  8  2  0
  8  9  1  0
  9 10  1  0
 10 11  2  0
 10 12  1  0
 12 13  1  0
 13 14  1  0
 14 15  1  0
 15 16  1  0
 16 17  1  0
  9 18  2  0
  4 19  2  0
 19 20  1  0
 20 21  2  0
 21 22  1  0
 22 23  2  0
 23 24  1  0
 24 25  2  0
 25 26  1  0
 26 27  2  0
 27 28  1  0
 28 29  2  0
 23 30  1  0
 30 31  2  0
 31  2  1  0
 18  5  1  0
 31 20  1  0
 17 12  1  0
 29 24  1  0
  3 32  1  0
  3 33  1  0
  6 34  1  0
  7 35  1  0
  8 36  1  0
 13 37  1  0
 13 38  1  0
 14 39  1  0
 14 40  1  0
 16 41  1  0
 16 42  1  0
 17 43  1  0
 17 44  1  0
 18 45  1  0
 21 46  1  0
 22 47  1  0
 25 48  1  0
 26 49  1  0
 27 50  1  0
 29 51  1  0
 30 52  1  0
M  END
>  <smiles>  (17) 
O=C1CC(c2cccc(C(=O)N3CCOCC3)c2)=Nc2ccc(-c3cccnc3)cc21

>  <score_type>  (17) 
oracle

>  <origin>  (17) 
autodockgpu

>  <m_score__min__energy>  (17) 
-9.0999999999999996

>  <m_primary>  (17) 
energy

>  <rmsd>  (17) 
6.826967802532092

>  <m_score__min__rmsd>  (17) 
6.826967802532092

>  <meeko>  (17) 
{"free_energy": -9.08, "intermolecular_energy": -9.97, "internal_energy": -0.73, "cluster_size": 44, "cluster_id": 1, "rank_in_cluster": 14}

>  <energy>  (17) 
-9.07

>  <cluster_rmsd>  (17) 
0.13

>  <cluster>  (17) 
1

$$$$

     RDKit          3D

 52 56  0  0  0  0  0  0  0  0999 V2000
  141.6660   81.0690  223.9200 O   0  0  0  0  0  0  0  0  0  0  0  0
  141.1010   80.2210  223.1750 C   0  0  0  0  0  0  0  0  0  0  0  0
  141.9420   79.4720  222.2200 C   0  0  0  0  0  0  0  0  0  0  0  0
  141.1180   78.5200  221.4300 C   0  0  0  0  0  0  0  0  0  0  0  0
  141.7540   77.6710  220.4270 C   0  0  0  0  0  0  0  0  0  0  0  0
  142.2300   78.2300  219.2600 C   0  0  0  0  0  0  0  0  0  0  0  0
  142.8400   77.5040  218.2600 C   0  0  0  0  0  0  0  0  0  0  0  0
  142.9720   76.1390  218.4590 C   0  0  0  0  0  0  0  0  0  0  0  0
  142.5180   75.5160  219.6030 C   0  0  0  0  0  0  0  0  0  0  0  0
  142.6840   74.0890  219.7510 C   0  0  0  0  0  0  0  0  0  0  0  0
  141.6830   73.3570  219.5790 O   0  0  0  0  0  0  0  0  0  0  0  0
  143.9070   73.4500  220.0790 N   0  0  0  0  0  0  0  0  0  0  0  0
  143.9350   71.9950  220.1950 C   0  0  0  0  0  0  0  0  0  0  0  0
  145.1560   71.4880  219.4280 C   0  0  0  0  0  0  0  0  0  0  0  0
  146.2780   72.0100  220.0390 O   0  0  0  0  0  0  0  0  0  0  0  0
  146.3340   73.3710  219.7590 C   0  0  0  0  0  0  0  0  0  0  0  0
  145.1520   74.1420  220.3110 C   0  0  0  0  0  0  0  0  0  0  0  0
  141.9090   76.3130  220.5790 C   0  0  0  0  0  0  0  0  0  0  0  0
  139.8430   78.3970  221.5860 N   0  0  0  0  0  0  0  0  0  0  0  0
  139.0570   79.1220  222.5020 C   0  0  0  0  0  0  0  0  0  0  0  0
  137.6950   78.8760  222.5520 C   0  0  0  0  0  0  0  0  0  0  0  0
  136.9230   79.5860  223.4520 C   0  0  0  0  0  0  0  0  0  0  0  0
  137.5210   80.5180  224.2740 C   0  0  0  0  0  0  0  0  0  0  0  0
  136.6680   81.2450  225.2100 C   0  0  0  0  0  0  0  0  0  0  0  0
  137.3140   82.0860  226.1190 C   0  0  0  0  0  0  0  0  0  0  0  0
  136.5810   82.8230  227.0540 C   0  0  0  0  0  0  0  0  0  0  0  0
  135.1990   82.6680  227.0180 C   0  0  0  0  0  0  0  0  0  0  0  0
  134.6070   81.8490  226.1290 N   0  0  0  0  0  0  0  0  0  0  0  0
  135.2950   81.1310  225.2220 C   0  0  0  0  0  0  0  0  0  0  0  0
  138.8980   80.7570  224.2130 C   0  0  0  0  0  0  0  0  0  0  0  0
  139.6650   80.0440  223.3110 C   0  0  0  0  0  0  0  0  0  0  0  0
  142.4306   80.1811  221.5356 H   0  0  0  0  0  0  0  0  0  0  0  0
  142.6971   78.9039  222.7831 H   0  0  0  0  0  0  0  0  0  0  0  0
  142.1166   79.3151  219.1194 H   0  0  0  0  0  0  0  0  0  0  0  0
  143.2066   77.9876  217.3426 H   0  0  0  0  0  0  0  0  0  0  0  0
  143.4548   75.5321  217.6789 H   0  0  0  0  0  0  0  0  0  0  0  0
  144.0114   71.7055  221.2535 H   0  0  0  0  0  0  0  0  0  0  0  0
  143.0136   71.5590  219.7816 H   0  0  0  0  0  0  0  0  0  0  0  0
  145.1889   70.3889  219.4591 H   0  0  0  0  0  0  0  0  0  0  0  0
  145.1083   71.8012  218.3746 H   0  0  0  0  0  0  0  0  0  0  0  0
  147.2552   73.7810  220.1986 H   0  0  0  0  0  0  0  0  0  0  0  0
  146.3145   73.4812  218.6647 H   0  0  0  0  0  0  0  0  0  0  0  0
  145.2886   74.2762  221.3942 H   0  0  0  0  0  0  0  0  0  0  0  0
  145.1055   75.1128  219.7958 H   0  0  0  0  0  0  0  0  0  0  0  0
  141.5415   75.8366  221.4998 H   0  0  0  0  0  0  0  0  0  0  0  0
  137.2360   78.1291  221.8875 H   0  0  0  0  0  0  0  0  0  0  0  0
  135.8390   79.4089  223.5123 H   0  0  0  0  0  0  0  0  0  0  0  0
  138.4107   82.1693  226.0990 H   0  0  0  0  0  0  0  0  0  0  0  0
  137.0707   83.4896  227.7791 H   0  0  0  0  0  0  0  0  0  0  0  0
  134.5763   83.2271  227.7319 H   0  0  0  0  0  0  0  0  0  0  0  0
  134.7759   80.4719  224.5106 H   0  0  0  0  0  0  0  0  0  0  0  0
  139.3641   81.5025  224.8741 H   0  0  0  0  0  0  0  0  0  0  0  0
  1  2  2  0
  2  3  1  0
  3  4  1  0
  4  5  1  0
  5  6  2  0
  6  7  1  0
  7  8  2  0
  8  9  1  0
  9 10  1  0
 10 11  2  0
 10 12  1  0
 12 13  1  0
 13 14  1  0
 14 15  1  0
 15 16  1  0
 16 17  1  0
  9 18  2  0
  4 19  2  0
 19 20  1  0
 20 21  2  0
 21 22  1  0
 22 23  2  0
 23 24  1  0
 24 25  2  0
 25 26  1  0
 26 27  2  0
 27 28  1  0
 28 29  2  0
 23 30  1  0
 30 31  2  0
 31  2  1  0
 18  5  1  0
 31 20  1  0
 17 12  1  0
 29 24  1  0
  3 32  1  0
  3 33  1  0
  6 34  1  0
  7 35  1  0
  8 36  1  0
 13 37  1  0
 13 38  1  0
 14 39  1  0
 14 40  1  0
 16 41  1  0
 16 42  1  0
 17 43  1  0
 17 44  1  0
 18 45  1  0
 21 46  1  0
 22 47  1  0
 25 48  1  0
 26 49  1  0
 27 50  1  0
 29 51  1  0
 30 52  1  0
M  END
>  <smiles>  (18) 
O=C1CC(c2cccc(C(=O)N3CCOCC3)c2)=Nc2ccc(-c3cccnc3)cc21

>  <score_type>  (18) 
oracle

>  <origin>  (18) 
autodockgpu

>  <m_score__min__energy>  (18) 
-9.0999999999999996

>  <m_primary>  (18) 
energy

>  <rmsd>  (18) 
8.902437741367564

>  <m_score__min__rmsd>  (18) 
8.902437741367564

>  <meeko>  (18) 
{"free_energy": -7.92, "intermolecular_energy": -8.81, "internal_energy": -0.94, "cluster_size": 5, "cluster_id": 2, "rank_in_cluster": 3}

>  <energy>  (18) 
-9.07

>  <cluster_rmsd>  (18) 
0.14

>  <cluster>  (18) 
1

$$$$

     RDKit          3D

 52 56  0  0  0  0  0  0  0  0999 V2000
  141.6280   81.1230  223.9680 O   0  0  0  0  0  0  0  0  0  0  0  0
  141.0700   80.2930  223.1960 C   0  0  0  0  0  0  0  0  0  0  0  0
  141.9140   79.5920  222.2100 C   0  0  0  0  0  0  0  0  0  0  0  0
  141.0990   78.6570  221.3920 C   0  0  0  0  0  0  0  0  0  0  0  0
  141.7390   77.8540  220.3540 C   0  0  0  0  0  0  0  0  0  0  0  0
  142.1970   78.4610  219.2040 C   0  0  0  0  0  0  0  0  0  0  0  0
  142.8090   77.7810  218.1750 C   0  0  0  0  0  0  0  0  0  0  0  0
  142.9640   76.4130  218.3240 C   0  0  0  0  0  0  0  0  0  0  0  0
  142.5300   75.7420  219.4480 C   0  0  0  0  0  0  0  0  0  0  0  0
  142.7190   74.3140  219.5440 C   0  0  0  0  0  0  0  0  0  0  0  0
  141.7850   73.5670  219.1720 O   0  0  0  0  0  0  0  0  0  0  0  0
  143.8940   73.6870  220.0320 N   0  0  0  0  0  0  0  0  0  0  0  0
  143.9540   72.2300  220.0730 C   0  0  0  0  0  0  0  0  0  0  0  0
  145.3000   71.8000  219.4890 C   0  0  0  0  0  0  0  0  0  0  0  0
  146.2890   72.3140  220.3030 O   0  0  0  0  0  0  0  0  0  0  0  0
  146.3420   73.6900  220.1090 C   0  0  0  0  0  0  0  0  0  0  0  0
  145.0610   74.3960  220.5020 C   0  0  0  0  0  0  0  0  0  0  0  0
  141.9170   76.4940  220.4570 C   0  0  0  0  0  0  0  0  0  0  0  0
  139.8270   78.5080  221.5520 N   0  0  0  0  0  0  0  0  0  0  0  0
  139.0370   79.1870  222.5010 C   0  0  0  0  0  0  0  0  0  0  0  0
  137.6790   78.9190  222.5520 C   0  0  0  0  0  0  0  0  0  0  0  0
  136.9040   79.5850  223.4820 C   0  0  0  0  0  0  0  0  0  0  0  0
  137.4950   80.4960  224.3330 C   0  0  0  0  0  0  0  0  0  0  0  0
  136.6380   81.1750  225.3000 C   0  0  0  0  0  0  0  0  0  0  0  0
  137.2720   82.0420  226.1940 C   0  0  0  0  0  0  0  0  0  0  0  0
  136.5350   82.7380  227.1570 C   0  0  0  0  0  0  0  0  0  0  0  0
  135.1610   82.5160  227.1640 C   0  0  0  0  0  0  0  0  0  0  0  0
  134.5810   81.6740  226.2890 N   0  0  0  0  0  0  0  0  0  0  0  0
  135.2730   80.9950  225.3550 C   0  0  0  0  0  0  0  0  0  0  0  0
  138.8680   80.7580  224.2700 C   0  0  0  0  0  0  0  0  0  0  0  0
  139.6370   80.0900  223.3370 C   0  0  0  0  0  0  0  0  0  0  0  0
  142.3871   80.3324  221.5483 H   0  0  0  0  0  0  0  0  0  0  0  0
  142.6812   79.0153  222.7474 H   0  0  0  0  0  0  0  0  0  0  0  0
  142.0663   79.5485  219.1029 H   0  0  0  0  0  0  0  0  0  0  0  0
  143.1601   78.3025  217.2724 H   0  0  0  0  0  0  0  0  0  0  0  0
  143.4497   75.8423  217.5187 H   0  0  0  0  0  0  0  0  0  0  0  0
  143.8689   71.8813  221.1128 H   0  0  0  0  0  0  0  0  0  0  0  0
  143.1272   71.7953  219.4921 H   0  0  0  0  0  0  0  0  0  0  0  0
  145.3657   70.7022  219.4657 H   0  0  0  0  0  0  0  0  0  0  0  0
  145.4126   72.1727  218.4602 H   0  0  0  0  0  0  0  0  0  0  0  0
  147.1657   74.0972  220.7138 H   0  0  0  0  0  0  0  0  0  0  0  0
  146.4951   73.8636  219.0336 H   0  0  0  0  0  0  0  0  0  0  0  0
  145.0162   74.4687  221.5987 H   0  0  0  0  0  0  0  0  0  0  0  0
  145.0644   75.3944  220.0403 H   0  0  0  0  0  0  0  0  0  0  0  0
  141.5655   75.9796  221.3636 H   0  0  0  0  0  0  0  0  0  0  0  0
  137.2259   78.1894  221.8647 H   0  0  0  0  0  0  0  0  0  0  0  0
  135.8231   79.3902  223.5435 H   0  0  0  0  0  0  0  0  0  0  0  0
  138.3622   82.1783  226.1395 H   0  0  0  0  0  0  0  0  0  0  0  0
  137.0151   83.4239  227.8705 H   0  0  0  0  0  0  0  0  0  0  0  0
  134.5353   83.0405  227.9012 H   0  0  0  0  0  0  0  0  0  0  0  0
  134.7633   80.3159  224.6557 H   0  0  0  0  0  0  0  0  0  0  0  0
  139.3287   81.4859  224.9540 H   0  0  0  0  0  0  0  0  0  0  0  0
  1  2  2  0
  2  3  1  0
  3  4  1  0
  4  5  1  0
  5  6  2  0
  6  7  1  0
  7  8  2  0
  8  9  1  0
  9 10  1  0
 10 11  2  0
 10 12  1  0
 12 13  1  0
 13 14  1  0
 14 15  1  0
 15 16  1  0
 16 17  1  0
  9 18  2  0
  4 19  2  0
 19 20  1  0
 20 21  2  0
 21 22  1  0
 22 23  2  0
 23 24  1  0
 24 25  2  0
 25 26  1  0
 26 27  2  0
 27 28  1  0
 28 29  2  0
 23 30  1  0
 30 31  2  0
 31  2  1  0
 18  5  1  0
 31 20  1  0
 17 12  1  0
 29 24  1  0
  3 32  1  0
  3 33  1  0
  6 34  1  0
  7 35  1  0
  8 36  1  0
 13 37  1  0
 13 38  1  0
 14 39  1  0
 14 40  1  0
 16 41  1  0
 16 42  1  0
 17 43  1  0
 17 44  1  0
 18 45  1  0
 21 46  1  0
 22 47  1  0
 25 48  1  0
 26 49  1  0
 27 50  1  0
 29 51  1  0
 30 52  1  0
M  END
>  <smiles>  (19) 
O=C1CC(c2cccc(C(=O)N3CCOCC3)c2)=Nc2ccc(-c3cccnc3)cc21

>  <score_type>  (19) 
oracle

>  <origin>  (19) 
autodockgpu

>  <m_score__min__energy>  (19) 
-9.0999999999999996

>  <m_primary>  (19) 
energy

>  <rmsd>  (19) 
8.981278516575431

>  <m_score__min__rmsd>  (19) 
8.981278516575431

>  <meeko>  (19) 
{"free_energy": -7.91, "intermolecular_energy": -8.81, "internal_energy": -0.94, "cluster_size": 5, "cluster_id": 2, "rank_in_cluster": 4}

>  <energy>  (19) 
-9.06

>  <cluster_rmsd>  (19) 
0.18

>  <cluster>  (19) 
1

$$$$

     RDKit          3D

 52 56  0  0  0  0  0  0  0  0999 V2000
  142.7840   74.4630  220.6820 O   0  0  0  0  0  0  0  0  0  0  0  0
  141.6470   74.2850  221.2010 C   0  0  0  0  0  0  0  0  0  0  0  0
  141.1600   72.8980  221.3370 C   0  0  0  0  0  0  0  0  0  0  0  0
  139.8140   72.8750  221.9670 C   0  0  0  0  0  0  0  0  0  0  0  0
  139.1450   71.5980  222.2010 C   0  0  0  0  0  0  0  0  0  0  0  0
  138.1010   71.2130  221.3870 C   0  0  0  0  0  0  0  0  0  0  0  0
  137.4140   70.0290  221.5380 C   0  0  0  0  0  0  0  0  0  0  0  0
  137.8090   69.1950  222.5710 C   0  0  0  0  0  0  0  0  0  0  0  0
  138.8450   69.5180  223.4220 C   0  0  0  0  0  0  0  0  0  0  0  0
  139.2090   68.6070  224.4800 C   0  0  0  0  0  0  0  0  0  0  0  0
  139.1990   67.3790  224.2340 O   0  0  0  0  0  0  0  0  0  0  0  0
  139.5820   69.0010  225.7910 N   0  0  0  0  0  0  0  0  0  0  0  0
  139.9290   67.9730  226.7670 C   0  0  0  0  0  0  0  0  0  0  0  0
  141.2190   68.4070  227.4650 C   0  0  0  0  0  0  0  0  0  0  0  0
  140.9540   69.5880  228.1300 O   0  0  0  0  0  0  0  0  0  0  0  0
  140.8110   70.5980  227.1840 C   0  0  0  0  0  0  0  0  0  0  0  0
  139.6450   70.3710  226.2430 C   0  0  0  0  0  0  0  0  0  0  0  0
  139.5020   70.7360  223.2120 C   0  0  0  0  0  0  0  0  0  0  0  0
  139.1890   73.9440  222.3300 N   0  0  0  0  0  0  0  0  0  0  0  0
  139.6700   75.2600  222.1920 C   0  0  0  0  0  0  0  0  0  0  0  0
  138.8800   76.3090  222.6320 C   0  0  0  0  0  0  0  0  0  0  0  0
  139.3520   77.6010  222.4960 C   0  0  0  0  0  0  0  0  0  0  0  0
  140.5920   77.8160  221.9310 C   0  0  0  0  0  0  0  0  0  0  0  0
  141.0510   79.1960  221.8090 C   0  0  0  0  0  0  0  0  0  0  0  0
  140.9180   79.7890  220.5510 C   0  0  0  0  0  0  0  0  0  0  0  0
  141.3300   81.1070  220.3370 C   0  0  0  0  0  0  0  0  0  0  0  0
  141.8670   81.7740  221.4330 C   0  0  0  0  0  0  0  0  0  0  0  0
  141.9820   81.1740  222.6330 N   0  0  0  0  0  0  0  0  0  0  0  0
  141.5920   79.9060  222.8590 C   0  0  0  0  0  0  0  0  0  0  0  0
  141.3800   76.7470  221.4900 C   0  0  0  0  0  0  0  0  0  0  0  0
  140.9020   75.4580  221.6270 C   0  0  0  0  0  0  0  0  0  0  0  0
  141.1005   72.4365  220.3403 H   0  0  0  0  0  0  0  0  0  0  0  0
  141.8595   72.3377  221.9749 H   0  0  0  0  0  0  0  0  0  0  0  0
  137.8003   71.8884  220.5725 H   0  0  0  0  0  0  0  0  0  0  0  0
  136.5863   69.7570  220.8664 H   0  0  0  0  0  0  0  0  0  0  0  0
  137.2783   68.2427  222.7175 H   0  0  0  0  0  0  0  0  0  0  0  0
  139.1203   67.8701  227.5056 H   0  0  0  0  0  0  0  0  0  0  0  0
  140.0696   67.0023  226.2690 H   0  0  0  0  0  0  0  0  0  0  0  0
  141.5361   67.6353  228.1819 H   0  0  0  0  0  0  0  0  0  0  0  0
  142.0274   68.5478  226.7324 H   0  0  0  0  0  0  0  0  0  0  0  0
  140.6554   71.5512  227.7105 H   0  0  0  0  0  0  0  0  0  0  0  0
  141.7268   70.6085  226.5747 H   0  0  0  0  0  0  0  0  0  0  0  0
  138.7101   70.6164  226.7682 H   0  0  0  0  0  0  0  0  0  0  0  0
  139.7840   71.0162  225.3630 H   0  0  0  0  0  0  0  0  0  0  0  0
  140.3322   71.0134  223.8782 H   0  0  0  0  0  0  0  0  0  0  0  0
  137.8946   76.1174  223.0817 H   0  0  0  0  0  0  0  0  0  0  0  0
  138.7432   78.4518  222.8359 H   0  0  0  0  0  0  0  0  0  0  0  0
  140.4845   79.2125  219.7205 H   0  0  0  0  0  0  0  0  0  0  0  0
  141.2347   81.5913  219.3540 H   0  0  0  0  0  0  0  0  0  0  0  0
  142.2051   82.8143  221.3170 H   0  0  0  0  0  0  0  0  0  0  0  0
  141.7019   79.4492  223.8536 H   0  0  0  0  0  0  0  0  0  0  0  0
  142.3669   76.9305  221.0402 H   0  0  0  0  0  0  0  0  0  0  0  0
  1  2  2  0
  2  3  1  0
  3  4  1  0
  4  5  1  0
  5  6  2  0
  6  7  1  0
  7  8  2  0
  8  9  1  0
  9 10  1  0
 10 11  2  0
 10 12  1  0
 12 13  1  0
 13 14  1  0
 14 15  1  0
 15 16  1  0
 16 17  1  0
  9 18  2  0
  4 19  2  0
 19 20  1  0
 20 21  2  0
 21 22  1  0
 22 23  2  0
 23 24  1  0
 24 25  2  0
 25 26  1  0
 26 27  2  0
 27 28  1  0
 28 29  2  0
 23 30  1  0
 30 31  2  0
 31  2  1  0
 18  5  1  0
 31 20  1  0
 17 12  1  0
 29 24  1  0
  3 32  1  0
  3 33  1  0
  6 34  1  0
  7 35  1  0
  8 36  1  0
 13 37  1  0
 13 38  1  0
 14 39  1  0
 14 40  1  0
 16 41  1  0
 16 42  1  0
 17 43  1  0
 17 44  1  0
 18 45  1  0
 21 46  1  0
 22 47  1  0
 25 48  1  0
 26 49  1  0
 27 50  1  0
 29 51  1  0
 30 52  1  0
M  END
>  <smiles>  (20) 
O=C1CC(c2cccc(C(=O)N3CCOCC3)c2)=Nc2ccc(-c3cccnc3)cc21

>  <score_type>  (20) 
oracle

>  <origin>  (20) 
autodockgpu

>  <m_score__min__energy>  (20) 
-9.0999999999999996

>  <m_primary>  (20) 
energy

>  <rmsd>  (20) 
6.745651077023395

>  <m_score__min__rmsd>  (20) 
6.745651077023395

>  <meeko>  (20) 
{"free_energy": -8.3, "intermolecular_energy": -9.19, "internal_energy": -0.88, "cluster_size": 44, "cluster_id": 1, "rank_in_cluster": 40}

>  <energy>  (20) 
-9.06

>  <cluster_rmsd>  (20) 
0.16

>  <cluster>  (20) 
1

$$$$

     RDKit          3D

 52 56  0  0  0  0  0  0  0  0999 V2000
  142.9420   74.7900  220.1980 O   0  0  0  0  0  0  0  0  0  0  0  0
  141.9060   74.4940  220.8560 C   0  0  0  0  0  0  0  0  0  0  0  0
  141.5720   73.0640  221.0100 C   0  0  0  0  0  0  0  0  0  0  0  0
  140.3300   72.8990  221.8100 C   0  0  0  0  0  0  0  0  0  0  0  0
  139.8200   71.5590  222.0880 C   0  0  0  0  0  0  0  0  0  0  0  0
  139.2400   70.8240  221.0770 C   0  0  0  0  0  0  0  0  0  0  0  0
  138.7310   69.5570  221.2510 C   0  0  0  0  0  0  0  0  0  0  0  0
  138.8170   69.0090  222.5200 C   0  0  0  0  0  0  0  0  0  0  0  0
  139.3860   69.6890  223.5770 C   0  0  0  0  0  0  0  0  0  0  0  0
  139.4450   69.0640  224.8780 C   0  0  0  0  0  0  0  0  0  0  0  0
  139.2010   67.8380  224.9570 O   0  0  0  0  0  0  0  0  0  0  0  0
  139.7610   69.7410  226.0840 N   0  0  0  0  0  0  0  0  0  0  0  0
  139.7880   68.9870  227.3320 C   0  0  0  0  0  0  0  0  0  0  0  0
  141.0650   69.3680  228.0820 C   0  0  0  0  0  0  0  0  0  0  0  0
  140.9900   70.7150  228.3720 O   0  0  0  0  0  0  0  0  0  0  0  0
  141.1550   71.4260  227.1880 C   0  0  0  0  0  0  0  0  0  0  0  0
  140.0660   71.1500  226.1720 C   0  0  0  0  0  0  0  0  0  0  0  0
  139.8840   70.9730  223.3310 C   0  0  0  0  0  0  0  0  0  0  0  0
  139.6630   73.8950  222.2870 N   0  0  0  0  0  0  0  0  0  0  0  0
  139.9980   75.2550  222.1290 C   0  0  0  0  0  0  0  0  0  0  0  0
  139.1800   76.2140  222.7020 C   0  0  0  0  0  0  0  0  0  0  0  0
  139.5090   77.5470  222.5480 C   0  0  0  0  0  0  0  0  0  0  0  0
  140.6360   77.8920  221.8320 C   0  0  0  0  0  0  0  0  0  0  0  0
  140.9450   79.3120  221.6950 C   0  0  0  0  0  0  0  0  0  0  0  0
  141.4980   79.9400  222.8140 C   0  0  0  0  0  0  0  0  0  0  0  0
  141.8280   81.2980  222.7780 C   0  0  0  0  0  0  0  0  0  0  0  0
  141.5770   81.9650  221.5840 C   0  0  0  0  0  0  0  0  0  0  0  0
  141.0430   81.3300  220.5230 N   0  0  0  0  0  0  0  0  0  0  0  0
  140.7180   80.0240  220.5380 C   0  0  0  0  0  0  0  0  0  0  0  0
  141.4540   76.9130  221.2570 C   0  0  0  0  0  0  0  0  0  0  0  0
  141.1190   75.5810  221.4140 C   0  0  0  0  0  0  0  0  0  0  0  0
  141.4229   72.6186  220.0153 H   0  0  0  0  0  0  0  0  0  0  0  0
  142.3993   72.5613  221.5325 H   0  0  0  0  0  0  0  0  0  0  0  0
  139.1805   71.2748  220.0754 H   0  0  0  0  0  0  0  0  0  0  0  0
  138.2751   69.0030  220.4172 H   0  0  0  0  0  0  0  0  0  0  0  0
  138.4184   67.9981  222.6908 H   0  0  0  0  0  0  0  0  0  0  0  0
  138.9073   69.2396  227.9407 H   0  0  0  0  0  0  0  0  0  0  0  0
  139.7707   67.9062  227.1279 H   0  0  0  0  0  0  0  0  0  0  0  0
  141.1411   68.7871  229.0130 H   0  0  0  0  0  0  0  0  0  0  0  0
  141.9528   69.1526  227.4693 H   0  0  0  0  0  0  0  0  0  0  0  0
  141.1513   72.5009  227.4218 H   0  0  0  0  0  0  0  0  0  0  0  0
  142.1080   71.1044  226.7426 H   0  0  0  0  0  0  0  0  0  0  0  0
  139.1566   71.6936  226.4678 H   0  0  0  0  0  0  0  0  0  0  0  0
  140.4234   71.4852  225.1872 H   0  0  0  0  0  0  0  0  0  0  0  0
  140.3423   71.5330  224.1595 H   0  0  0  0  0  0  0  0  0  0  0  0
  138.2847   75.9200  223.2694 H   0  0  0  0  0  0  0  0  0  0  0  0
  138.8759   78.3283  222.9938 H   0  0  0  0  0  0  0  0  0  0  0  0
  141.6754   79.3604  223.7319 H   0  0  0  0  0  0  0  0  0  0  0  0
  142.2631   81.8116  223.6480 H   0  0  0  0  0  0  0  0  0  0  0  0
  141.8199   83.0349  221.5042 H   0  0  0  0  0  0  0  0  0  0  0  0
  140.2835   79.5390  219.6514 H   0  0  0  0  0  0  0  0  0  0  0  0
  142.3509   77.1993  220.6881 H   0  0  0  0  0  0  0  0  0  0  0  0
  1  2  2  0
  2  3  1  0
  3  4  1  0
  4  5  1  0
  5  6  2  0
  6  7  1  0
  7  8  2  0
  8  9  1  0
  9 10  1  0
 10 11  2  0
 10 12  1  0
 12 13  1  0
 13 14  1  0
 14 15  1  0
 15 16  1  0
 16 17  1  0
  9 18  2  0
  4 19  2  0
 19 20  1  0
 20 21  2  0
 21 22  1  0
 22 23  2  0
 23 24  1  0
 24 25  2  0
 25 26  1  0
 26 27  2  0
 27 28  1  0
 28 29  2  0
 23 30  1  0
 30 31  2  0
 31  2  1  0
 18  5  1  0
 31 20  1  0
 17 12  1  0
 29 24  1  0
  3 32  1  0
  3 33  1  0
  6 34  1  0
  7 35  1  0
  8 36  1  0
 13 37  1  0
 13 38  1  0
 14 39  1  0
 14 40  1  0
 16 41  1  0
 16 42  1  0
 17 43  1  0
 17 44  1  0
 18 45  1  0
 21 46  1  0
 22 47  1  0
 25 48  1  0
 26 49  1  0
 27 50  1  0
 29 51  1  0
 30 52  1  0
M  END
>  <smiles>  (21) 
O=C1CC(c2cccc(C(=O)N3CCOCC3)c2)=Nc2ccc(-c3cccnc3)cc21

>  <score_type>  (21) 
oracle

>  <origin>  (21) 
autodockgpu

>  <m_score__min__energy>  (21) 
-9.0999999999999996

>  <m_primary>  (21) 
energy

>  <rmsd>  (21) 
6.849114581871082

>  <m_score__min__rmsd>  (21) 
6.849114581871082

>  <meeko>  (21) 
{"free_energy": -9.07, "intermolecular_energy": -9.96, "internal_energy": -0.69, "cluster_size": 44, "cluster_id": 1, "rank_in_cluster": 17}

>  <energy>  (21) 
-9.05

>  <cluster_rmsd>  (21) 
0.07

>  <cluster>  (21) 
1

$$$$

     RDKit          3D

 52 56  0  0  0  0  0  0  0  0999 V2000
  142.9250   74.7890  220.2110 O   0  0  0  0  0  0  0  0  0  0  0  0
  141.8860   74.4840  220.8620 C   0  0  0  0  0  0  0  0  0  0  0  0
  141.5580   73.0520  221.0050 C   0  0  0  0  0  0  0  0  0  0  0  0
  140.3120   72.8770  221.7970 C   0  0  0  0  0  0  0  0  0  0  0  0
  139.8070   71.5330  222.0650 C   0  0  0  0  0  0  0  0  0  0  0  0
  139.2360   70.8010  221.0460 C   0  0  0  0  0  0  0  0  0  0  0  0
  138.7320   69.5310  221.2090 C   0  0  0  0  0  0  0  0  0  0  0  0
  138.8120   68.9760  222.4760 C   0  0  0  0  0  0  0  0  0  0  0  0
  139.3710   69.6530  223.5410 C   0  0  0  0  0  0  0  0  0  0  0  0
  139.4240   69.0220  224.8380 C   0  0  0  0  0  0  0  0  0  0  0  0
  139.1950   67.7920  224.9080 O   0  0  0  0  0  0  0  0  0  0  0  0
  139.7180   69.6960  226.0520 N   0  0  0  0  0  0  0  0  0  0  0  0
  139.7400   68.9340  227.2960 C   0  0  0  0  0  0  0  0  0  0  0  0
  141.0040   69.3280  228.0620 C   0  0  0  0  0  0  0  0  0  0  0  0
  140.9080   70.6730  228.3590 O   0  0  0  0  0  0  0  0  0  0  0  0
  141.0760   71.3920  227.1810 C   0  0  0  0  0  0  0  0  0  0  0  0
  140.0020   71.1080  226.1510 C   0  0  0  0  0  0  0  0  0  0  0  0
  139.8650   70.9410  223.3050 C   0  0  0  0  0  0  0  0  0  0  0  0
  139.6390   73.8680  222.2770 N   0  0  0  0  0  0  0  0  0  0  0  0
  139.9680   75.2290  222.1290 C   0  0  0  0  0  0  0  0  0  0  0  0
  139.1430   76.1810  222.7040 C   0  0  0  0  0  0  0  0  0  0  0  0
  139.4670   77.5170  222.5600 C   0  0  0  0  0  0  0  0  0  0  0  0
  140.5960   77.8710  221.8510 C   0  0  0  0  0  0  0  0  0  0  0  0
  140.9000   79.2930  221.7250 C   0  0  0  0  0  0  0  0  0  0  0  0
  141.1470   79.7660  220.4340 C   0  0  0  0  0  0  0  0  0  0  0  0
  141.4470   81.1130  220.2130 C   0  0  0  0  0  0  0  0  0  0  0  0
  141.4810   81.9320  221.3370 C   0  0  0  0  0  0  0  0  0  0  0  0
  141.2380   81.4450  222.5680 N   0  0  0  0  0  0  0  0  0  0  0  0
  140.9480   80.1520  222.8010 C   0  0  0  0  0  0  0  0  0  0  0  0
  141.4210   76.8990  221.2750 C   0  0  0  0  0  0  0  0  0  0  0  0
  141.0920   75.5650  221.4220 C   0  0  0  0  0  0  0  0  0  0  0  0
  141.4166   72.6121  220.0068 H   0  0  0  0  0  0  0  0  0  0  0  0
  142.3846   72.5495  221.5287 H   0  0  0  0  0  0  0  0  0  0  0  0
  139.1801   71.2576  220.0468 H   0  0  0  0  0  0  0  0  0  0  0  0
  138.2845   68.9797  220.3689 H   0  0  0  0  0  0  0  0  0  0  0  0
  138.4169   67.9623  222.6385 H   0  0  0  0  0  0  0  0  0  0  0  0
  138.8492   69.1713  227.8962 H   0  0  0  0  0  0  0  0  0  0  0  0
  139.7384   67.8543  227.0858 H   0  0  0  0  0  0  0  0  0  0  0  0
  141.0780   68.7429  228.9905 H   0  0  0  0  0  0  0  0  0  0  0  0
  141.9010   69.1282  227.4575 H   0  0  0  0  0  0  0  0  0  0  0  0
  141.0558   72.4654  227.4205 H   0  0  0  0  0  0  0  0  0  0  0  0
  142.0376   71.0845  226.7443 H   0  0  0  0  0  0  0  0  0  0  0  0
  139.0820   71.6374  226.4398 H   0  0  0  0  0  0  0  0  0  0  0  0
  140.3650   71.4545  225.1722 H   0  0  0  0  0  0  0  0  0  0  0  0
  140.3149   71.4987  224.1396 H   0  0  0  0  0  0  0  0  0  0  0  0
  138.2462   75.8795  223.2651 H   0  0  0  0  0  0  0  0  0  0  0  0
  138.8287   78.2928  223.0079 H   0  0  0  0  0  0  0  0  0  0  0  0
  141.1049   79.0710  219.5824 H   0  0  0  0  0  0  0  0  0  0  0  0
  141.6456   81.5046  219.2044 H   0  0  0  0  0  0  0  0  0  0  0  0
  141.7115   83.0009  221.2171 H   0  0  0  0  0  0  0  0  0  0  0  0
  140.7547   79.7909  223.8219 H   0  0  0  0  0  0  0  0  0  0  0  0
  142.3196   77.1927  220.7126 H   0  0  0  0  0  0  0  0  0  0  0  0
  1  2  2  0
  2  3  1  0
  3  4  1  0
  4  5  1  0
  5  6  2  0
  6  7  1  0
  7  8  2  0
  8  9  1  0
  9 10  1  0
 10 11  2  0
 10 12  1  0
 12 13  1  0
 13 14  1  0
 14 15  1  0
 15 16  1  0
 16 17  1  0
  9 18  2  0
  4 19  2  0
 19 20  1  0
 20 21  2  0
 21 22  1  0
 22 23  2  0
 23 24  1  0
 24 25  2  0
 25 26  1  0
 26 27  2  0
 27 28  1  0
 28 29  2  0
 23 30  1  0
 30 31  2  0
 31  2  1  0
 18  5  1  0
 31 20  1  0
 17 12  1  0
 29 24  1  0
  3 32  1  0
  3 33  1  0
  6 34  1  0
  7 35  1  0
  8 36  1  0
 13 37  1  0
 13 38  1  0
 14 39  1  0
 14 40  1  0
 16 41  1  0
 16 42  1  0
 17 43  1  0
 17 44  1  0
 18 45  1  0
 21 46  1  0
 22 47  1  0
 25 48  1  0
 26 49  1  0
 27 50  1  0
 29 51  1  0
 30 52  1  0
M  END
>  <smiles>  (22) 
O=C1CC(c2cccc(C(=O)N3CCOCC3)c2)=Nc2ccc(-c3cccnc3)cc21

>  <score_type>  (22) 
oracle

>  <origin>  (22) 
autodockgpu

>  <m_score__min__energy>  (22) 
-9.0999999999999996

>  <m_primary>  (22) 
energy

>  <rmsd>  (22) 
6.837136366981081

>  <m_score__min__rmsd>  (22) 
6.837136366981081

>  <meeko>  (22) 
{"free_energy": -8.92, "intermolecular_energy": -9.82, "internal_energy": -0.69, "cluster_size": 44, "cluster_id": 1, "rank_in_cluster": 31}

>  <energy>  (22) 
-9.05

>  <cluster_rmsd>  (22) 
0.14

>  <cluster>  (22) 
1

$$$$

     RDKit          3D

 52 56  0  0  0  0  0  0  0  0999 V2000
  142.9140   74.7830  220.2690 O   0  0  0  0  0  0  0  0  0  0  0  0
  141.8660   74.4910  220.9110 C   0  0  0  0  0  0  0  0  0  0  0  0
  141.5230   73.0630  221.0570 C   0  0  0  0  0  0  0  0  0  0  0  0
  140.2680   72.9030  221.8380 C   0  0  0  0  0  0  0  0  0  0  0  0
  139.7470   71.5660  222.1080 C   0  0  0  0  0  0  0  0  0  0  0  0
  139.1410   70.8510  221.0960 C   0  0  0  0  0  0  0  0  0  0  0  0
  138.6210   69.5870  221.2620 C   0  0  0  0  0  0  0  0  0  0  0  0
  138.7210   69.0220  222.5220 C   0  0  0  0  0  0  0  0  0  0  0  0
  139.3150   69.6810  223.5790 C   0  0  0  0  0  0  0  0  0  0  0  0
  139.3880   69.0380  224.8690 C   0  0  0  0  0  0  0  0  0  0  0  0
  139.1600   67.8080  224.9320 O   0  0  0  0  0  0  0  0  0  0  0  0
  139.7010   69.7020  226.0840 N   0  0  0  0  0  0  0  0  0  0  0  0
  139.7430   68.9300  227.3210 C   0  0  0  0  0  0  0  0  0  0  0  0
  141.0180   69.3160  228.0710 C   0  0  0  0  0  0  0  0  0  0  0  0
  140.9270   70.6590  228.3810 O   0  0  0  0  0  0  0  0  0  0  0  0
  141.0780   71.3880  227.2060 C   0  0  0  0  0  0  0  0  0  0  0  0
  139.9870   71.1130  226.1910 C   0  0  0  0  0  0  0  0  0  0  0  0
  139.8240   70.9620  223.3410 C   0  0  0  0  0  0  0  0  0  0  0  0
  139.5990   73.9030  222.3060 N   0  0  0  0  0  0  0  0  0  0  0  0
  139.9430   75.2600  222.1550 C   0  0  0  0  0  0  0  0  0  0  0  0
  139.1210   76.2230  222.7160 C   0  0  0  0  0  0  0  0  0  0  0  0
  139.4590   77.5550  222.5690 C   0  0  0  0  0  0  0  0  0  0  0  0
  140.5980   77.8940  221.8700 C   0  0  0  0  0  0  0  0  0  0  0  0
  140.9170   79.3130  221.7400 C   0  0  0  0  0  0  0  0  0  0  0  0
  141.4740   79.9330  222.8610 C   0  0  0  0  0  0  0  0  0  0  0  0
  141.8130   81.2890  222.8320 C   0  0  0  0  0  0  0  0  0  0  0  0
  141.5660   81.9630  221.6400 C   0  0  0  0  0  0  0  0  0  0  0  0
  141.0270   81.3360  220.5770 N   0  0  0  0  0  0  0  0  0  0  0  0
  140.6940   80.0320  220.5860 C   0  0  0  0  0  0  0  0  0  0  0  0
  141.4200   76.9120  221.3070 C   0  0  0  0  0  0  0  0  0  0  0  0
  141.0770   75.5820  221.4570 C   0  0  0  0  0  0  0  0  0  0  0  0
  141.3868   72.6202  220.0593 H   0  0  0  0  0  0  0  0  0  0  0  0
  142.3398   72.5551  221.5907 H   0  0  0  0  0  0  0  0  0  0  0  0
  139.0693   71.3162  220.1018 H   0  0  0  0  0  0  0  0  0  0  0  0
  138.1461   69.0487  220.4286 H   0  0  0  0  0  0  0  0  0  0  0  0
  138.3131   68.0137  222.6861 H   0  0  0  0  0  0  0  0  0  0  0  0
  138.8618   69.1625  227.9370 H   0  0  0  0  0  0  0  0  0  0  0  0
  139.7385   67.8522  227.1011 H   0  0  0  0  0  0  0  0  0  0  0  0
  141.1054   68.7228  228.9932 H   0  0  0  0  0  0  0  0  0  0  0  0
  141.9059   69.1207  227.4517 H   0  0  0  0  0  0  0  0  0  0  0  0
  141.0629   72.4595  227.4545 H   0  0  0  0  0  0  0  0  0  0  0  0
  142.0325   71.0837  226.7518 H   0  0  0  0  0  0  0  0  0  0  0  0
  139.0720   71.6399  226.4995 H   0  0  0  0  0  0  0  0  0  0  0  0
  140.3342   71.4680  225.2095 H   0  0  0  0  0  0  0  0  0  0  0  0
  140.3026   71.5052  224.1691 H   0  0  0  0  0  0  0  0  0  0  0  0
  138.2153   75.9330  223.2687 H   0  0  0  0  0  0  0  0  0  0  0  0
  138.8237   78.3392  223.0066 H   0  0  0  0  0  0  0  0  0  0  0  0
  141.6477   79.3481  223.7763 H   0  0  0  0  0  0  0  0  0  0  0  0
  142.2513   81.7957  223.7044 H   0  0  0  0  0  0  0  0  0  0  0  0
  141.8165   83.0314  221.5643 H   0  0  0  0  0  0  0  0  0  0  0  0
  140.2563   79.5538  219.6973 H   0  0  0  0  0  0  0  0  0  0  0  0
  142.3270   77.1948  220.7525 H   0  0  0  0  0  0  0  0  0  0  0  0
  1  2  2  0
  2  3  1  0
  3  4  1  0
  4  5  1  0
  5  6  2  0
  6  7  1  0
  7  8  2  0
  8  9  1  0
  9 10  1  0
 10 11  2  0
 10 12  1  0
 12 13  1  0
 13 14  1  0
 14 15  1  0
 15 16  1  0
 16 17  1  0
  9 18  2  0
  4 19  2  0
 19 20  1  0
 20 21  2  0
 21 22  1  0
 22 23  2  0
 23 24  1  0
 24 25  2  0
 25 26  1  0
 26 27  2  0
 27 28  1  0
 28 29  2  0
 23 30  1  0
 30 31  2  0
 31  2  1  0
 18  5  1  0
 31 20  1  0
 17 12  1  0
 29 24  1  0
  3 32  1  0
  3 33  1  0
  6 34  1  0
  7 35  1  0
  8 36  1  0
 13 37  1  0
 13 38  1  0
 14 39  1  0
 14 40  1  0
 16 41  1  0
 16 42  1  0
 17 43  1  0
 17 44  1  0
 18 45  1  0
 21 46  1  0
 22 47  1  0
 25 48  1  0
 26 49  1  0
 27 50  1  0
 29 51  1  0
 30 52  1  0
M  END
>  <smiles>  (23) 
O=C1CC(c2cccc(C(=O)N3CCOCC3)c2)=Nc2ccc(-c3cccnc3)cc21

>  <score_type>  (23) 
oracle

>  <origin>  (23) 
autodockgpu

>  <m_score__min__energy>  (23) 
-9.0999999999999996

>  <m_primary>  (23) 
energy

>  <rmsd>  (23) 
6.833707396081751

>  <m_score__min__rmsd>  (23) 
6.833707396081751

>  <meeko>  (23) 
{"free_energy": -9.08, "intermolecular_energy": -9.97, "internal_energy": -0.7, "cluster_size": 44, "cluster_id": 1, "rank_in_cluster": 9}

>  <energy>  (23) 
-9.01

>  <cluster_rmsd>  (23) 
0.09

>  <cluster>  (23) 
1

$$$$

     RDKit          3D

 52 56  0  0  0  0  0  0  0  0999 V2000
  142.8720   74.6060  220.2010 O   0  0  0  0  0  0  0  0  0  0  0  0
  141.8300   74.3530  220.8680 C   0  0  0  0  0  0  0  0  0  0  0  0
  141.4500   72.9370  221.0410 C   0  0  0  0  0  0  0  0  0  0  0  0
  140.2080   72.8230  221.8500 C   0  0  0  0  0  0  0  0  0  0  0  0
  139.6550   71.5040  222.1480 C   0  0  0  0  0  0  0  0  0  0  0  0
  138.9730   70.8120  221.1700 C   0  0  0  0  0  0  0  0  0  0  0  0
  138.4180   69.5670  221.3640 C   0  0  0  0  0  0  0  0  0  0  0  0
  138.5650   68.9970  222.6180 C   0  0  0  0  0  0  0  0  0  0  0  0
  139.2360   69.6340  223.6410 C   0  0  0  0  0  0  0  0  0  0  0  0
  139.3540   68.9880  224.9270 C   0  0  0  0  0  0  0  0  0  0  0  0
  139.1500   67.7540  224.9910 O   0  0  0  0  0  0  0  0  0  0  0  0
  139.6870   69.6530  226.1360 N   0  0  0  0  0  0  0  0  0  0  0  0
  139.7750   68.8770  227.3680 C   0  0  0  0  0  0  0  0  0  0  0  0
  141.0620   69.2850  228.0860 C   0  0  0  0  0  0  0  0  0  0  0  0
  140.9550   70.6240  228.4040 O   0  0  0  0  0  0  0  0  0  0  0  0
  141.0610   71.3600  227.2290 C   0  0  0  0  0  0  0  0  0  0  0  0
  139.9500   71.0690  226.2410 C   0  0  0  0  0  0  0  0  0  0  0  0
  139.7770   70.8970  223.3760 C   0  0  0  0  0  0  0  0  0  0  0  0
  139.5770   73.8470  222.3180 N   0  0  0  0  0  0  0  0  0  0  0  0
  139.9560   75.1920  222.1420 C   0  0  0  0  0  0  0  0  0  0  0  0
  139.1730   76.1840  222.7080 C   0  0  0  0  0  0  0  0  0  0  0  0
  139.5450   77.5040  222.5360 C   0  0  0  0  0  0  0  0  0  0  0  0
  140.6790   77.8020  221.8090 C   0  0  0  0  0  0  0  0  0  0  0  0
  141.0350   79.2100  221.6540 C   0  0  0  0  0  0  0  0  0  0  0  0
  141.2970   79.9200  222.8270 C   0  0  0  0  0  0  0  0  0  0  0  0
  141.6460   81.2730  222.7790 C   0  0  0  0  0  0  0  0  0  0  0  0
  141.7140   81.8500  221.5150 C   0  0  0  0  0  0  0  0  0  0  0  0
  141.4550   81.1370  220.4020 N   0  0  0  0  0  0  0  0  0  0  0  0
  141.1170   79.8350  220.4280 C   0  0  0  0  0  0  0  0  0  0  0  0
  141.4600   76.7900  221.2420 C   0  0  0  0  0  0  0  0  0  0  0  0
  141.0830   75.4720  221.4170 C   0  0  0  0  0  0  0  0  0  0  0  0
  141.2803   72.4850  220.0526 H   0  0  0  0  0  0  0  0  0  0  0  0
  142.2633   72.4133  221.5647 H   0  0  0  0  0  0  0  0  0  0  0  0
  138.8664   71.2802  220.1803 H   0  0  0  0  0  0  0  0  0  0  0  0
  137.8806   69.0469  220.5573 H   0  0  0  0  0  0  0  0  0  0  0  0
  138.1321   68.0030  222.8041 H   0  0  0  0  0  0  0  0  0  0  0  0
  138.9058   69.0903  228.0076 H   0  0  0  0  0  0  0  0  0  0  0  0
  139.7846   67.8001  227.1441 H   0  0  0  0  0  0  0  0  0  0  0  0
  141.1848   68.6902  229.0031 H   0  0  0  0  0  0  0  0  0  0  0  0
  141.9364   69.1091  227.4422 H   0  0  0  0  0  0  0  0  0  0  0  0
  141.0320   72.4300  227.4827 H   0  0  0  0  0  0  0  0  0  0  0  0
  142.0088   71.0751  226.7488 H   0  0  0  0  0  0  0  0  0  0  0  0
  139.0337   71.5781  226.5745 H   0  0  0  0  0  0  0  0  0  0  0  0
  140.2656   71.4337  225.2524 H   0  0  0  0  0  0  0  0  0  0  0  0
  140.3181   71.4221  224.1769 H   0  0  0  0  0  0  0  0  0  0  0  0
  138.2718   75.9263  223.2837 H   0  0  0  0  0  0  0  0  0  0  0  0
  138.9410   78.3114  222.9757 H   0  0  0  0  0  0  0  0  0  0  0  0
  141.2282   79.4097  223.7990 H   0  0  0  0  0  0  0  0  0  0  0  0
  141.8555   81.8502  223.6916 H   0  0  0  0  0  0  0  0  0  0  0  0
  141.9853   82.9120  221.4224 H   0  0  0  0  0  0  0  0  0  0  0  0
  140.9120   79.2850  219.4977 H   0  0  0  0  0  0  0  0  0  0  0  0
  142.3623   77.0397  220.6645 H   0  0  0  0  0  0  0  0  0  0  0  0
  1  2  2  0
  2  3  1  0
  3  4  1  0
  4  5  1  0
  5  6  2  0
  6  7  1  0
  7  8  2  0
  8  9  1  0
  9 10  1  0
 10 11  2  0
 10 12  1  0
 12 13  1  0
 13 14  1  0
 14 15  1  0
 15 16  1  0
 16 17  1  0
  9 18  2  0
  4 19  2  0
 19 20  1  0
 20 21  2  0
 21 22  1  0
 22 23  2  0
 23 24  1  0
 24 25  2  0
 25 26  1  0
 26 27  2  0
 27 28  1  0
 28 29  2  0
 23 30  1  0
 30 31  2  0
 31  2  1  0
 18  5  1  0
 31 20  1  0
 17 12  1  0
 29 24  1  0
  3 32  1  0
  3 33  1  0
  6 34  1  0
  7 35  1  0
  8 36  1  0
 13 37  1  0
 13 38  1  0
 14 39  1  0
 14 40  1  0
 16 41  1  0
 16 42  1  0
 17 43  1  0
 17 44  1  0
 18 45  1  0
 21 46  1  0
 22 47  1  0
 25 48  1  0
 26 49  1  0
 27 50  1  0
 29 51  1  0
 30 52  1  0
M  END
>  <smiles>  (24) 
O=C1CC(c2cccc(C(=O)N3CCOCC3)c2)=Nc2ccc(-c3cccnc3)cc21

>  <score_type>  (24) 
oracle

>  <origin>  (24) 
autodockgpu

>  <m_score__min__energy>  (24) 
-9.0999999999999996

>  <m_primary>  (24) 
energy

>  <rmsd>  (24) 
6.829437011161825

>  <m_score__min__rmsd>  (24) 
6.829437011161825

>  <meeko>  (24) 
{"free_energy": -9.07, "intermolecular_energy": -9.96, "internal_energy": -0.73, "cluster_size": 44, "cluster_id": 1, "rank_in_cluster": 16}

>  <energy>  (24) 
-9.01

>  <cluster_rmsd>  (24) 
0.26

>  <cluster>  (24) 
1

$$$$

     RDKit          3D

 52 56  0  0  0  0  0  0  0  0999 V2000
  142.9140   74.6680  220.2650 O   0  0  0  0  0  0  0  0  0  0  0  0
  141.8600   74.4060  220.9090 C   0  0  0  0  0  0  0  0  0  0  0  0
  141.4880   72.9870  221.0760 C   0  0  0  0  0  0  0  0  0  0  0  0
  140.2290   72.8630  221.8560 C   0  0  0  0  0  0  0  0  0  0  0  0
  139.6820   71.5400  222.1440 C   0  0  0  0  0  0  0  0  0  0  0  0
  139.0090   70.8490  221.1590 C   0  0  0  0  0  0  0  0  0  0  0  0
  138.4590   69.6000  221.3440 C   0  0  0  0  0  0  0  0  0  0  0  0
  138.6020   69.0250  222.5970 C   0  0  0  0  0  0  0  0  0  0  0  0
  139.2630   69.6610  223.6270 C   0  0  0  0  0  0  0  0  0  0  0  0
  139.3770   69.0100  224.9100 C   0  0  0  0  0  0  0  0  0  0  0  0
  139.1770   67.7750  224.9670 O   0  0  0  0  0  0  0  0  0  0  0  0
  139.7020   69.6700  226.1230 N   0  0  0  0  0  0  0  0  0  0  0  0
  139.7860   68.8890  227.3530 C   0  0  0  0  0  0  0  0  0  0  0  0
  141.0690   69.2970  228.0790 C   0  0  0  0  0  0  0  0  0  0  0  0
  140.9560   70.6340  228.4020 O   0  0  0  0  0  0  0  0  0  0  0  0
  141.0660   71.3760  227.2310 C   0  0  0  0  0  0  0  0  0  0  0  0
  139.9600   71.0860  226.2360 C   0  0  0  0  0  0  0  0  0  0  0  0
  139.7990   70.9280  223.3700 C   0  0  0  0  0  0  0  0  0  0  0  0
  139.5780   73.8820  222.3070 N   0  0  0  0  0  0  0  0  0  0  0  0
  139.9490   75.2310  222.1370 C   0  0  0  0  0  0  0  0  0  0  0  0
  139.1440   76.2170  222.6820 C   0  0  0  0  0  0  0  0  0  0  0  0
  139.5080   77.5400  222.5160 C   0  0  0  0  0  0  0  0  0  0  0  0
  140.6550   77.8470  221.8150 C   0  0  0  0  0  0  0  0  0  0  0  0
  141.0020   79.2570  221.6640 C   0  0  0  0  0  0  0  0  0  0  0  0
  141.4620   79.9120  222.8080 C   0  0  0  0  0  0  0  0  0  0  0  0
  141.8190   81.2630  222.7620 C   0  0  0  0  0  0  0  0  0  0  0  0
  141.6880   81.8960  221.5300 C   0  0  0  0  0  0  0  0  0  0  0  0
  141.2410   81.2360  220.4450 N   0  0  0  0  0  0  0  0  0  0  0  0
  140.8930   79.9360  220.4700 C   0  0  0  0  0  0  0  0  0  0  0  0
  141.4590   76.8400  221.2680 C   0  0  0  0  0  0  0  0  0  0  0  0
  141.0900   75.5190  221.4370 C   0  0  0  0  0  0  0  0  0  0  0  0
  141.3451   72.5320  220.0848 H   0  0  0  0  0  0  0  0  0  0  0  0
  142.2934   72.4716  221.6197 H   0  0  0  0  0  0  0  0  0  0  0  0
  138.9056   71.3212  220.1709 H   0  0  0  0  0  0  0  0  0  0  0  0
  137.9288   69.0809  220.5320 H   0  0  0  0  0  0  0  0  0  0  0  0
  138.1738   68.0277  222.7760 H   0  0  0  0  0  0  0  0  0  0  0  0
  138.9134   69.0979  227.9893 H   0  0  0  0  0  0  0  0  0  0  0  0
  139.7991   67.8130  227.1249 H   0  0  0  0  0  0  0  0  0  0  0  0
  141.1892   68.6985  228.9941 H   0  0  0  0  0  0  0  0  0  0  0  0
  141.9472   69.1261  227.4390 H   0  0  0  0  0  0  0  0  0  0  0  0
  141.0327   72.4447  227.4895 H   0  0  0  0  0  0  0  0  0  0  0  0
  142.0171   71.0965  226.7542 H   0  0  0  0  0  0  0  0  0  0  0  0
  139.0406   71.5906  226.5677 H   0  0  0  0  0  0  0  0  0  0  0  0
  140.2791   71.4564  225.2506 H   0  0  0  0  0  0  0  0  0  0  0  0
  140.3323   71.4525  224.1765 H   0  0  0  0  0  0  0  0  0  0  0  0
  138.2318   75.9523  223.2368 H   0  0  0  0  0  0  0  0  0  0  0  0
  138.8868   78.3426  222.9403 H   0  0  0  0  0  0  0  0  0  0  0  0
  141.5444   79.3593  223.7555 H   0  0  0  0  0  0  0  0  0  0  0  0
  142.1838   81.7967  223.6520 H   0  0  0  0  0  0  0  0  0  0  0  0
  141.9556   82.9592  221.4404 H   0  0  0  0  0  0  0  0  0  0  0  0
  140.5317   79.4298  219.5627 H   0  0  0  0  0  0  0  0  0  0  0  0
  142.3722   77.0968  220.7111 H   0  0  0  0  0  0  0  0  0  0  0  0
  1  2  2  0
  2  3  1  0
  3  4  1  0
  4  5  1  0
  5  6  2  0
  6  7  1  0
  7  8  2  0
  8  9  1  0
  9 10  1  0
 10 11  2  0
 10 12  1  0
 12 13  1  0
 13 14  1  0
 14 15  1  0
 15 16  1  0
 16 17  1  0
  9 18  2  0
  4 19  2  0
 19 20  1  0
 20 21  2  0
 21 22  1  0
 22 23  2  0
 23 24  1  0
 24 25  2  0
 25 26  1  0
 26 27  2  0
 27 28  1  0
 28 29  2  0
 23 30  1  0
 30 31  2  0
 31  2  1  0
 18  5  1  0
 31 20  1  0
 17 12  1  0
 29 24  1  0
  3 32  1  0
  3 33  1  0
  6 34  1  0
  7 35  1  0
  8 36  1  0
 13 37  1  0
 13 38  1  0
 14 39  1  0
 14 40  1  0
 16 41  1  0
 16 42  1  0
 17 43  1  0
 17 44  1  0
 18 45  1  0
 21 46  1  0
 22 47  1  0
 25 48  1  0
 26 49  1  0
 27 50  1  0
 29 51  1  0
 30 52  1  0
M  END
>  <smiles>  (25) 
O=C1CC(c2cccc(C(=O)N3CCOCC3)c2)=Nc2ccc(-c3cccnc3)cc21

>  <score_type>  (25) 
oracle

>  <origin>  (25) 
autodockgpu

>  <m_score__min__energy>  (25) 
-9.0999999999999996

>  <m_primary>  (25) 
energy

>  <rmsd>  (25) 
6.831721723989088

>  <m_score__min__rmsd>  (25) 
6.831721723989088

>  <meeko>  (25) 
{"free_energy": -9.08, "intermolecular_energy": -9.98, "internal_energy": -0.72, "cluster_size": 44, "cluster_id": 1, "rank_in_cluster": 4}

>  <energy>  (25) 
-9.0

>  <cluster_rmsd>  (25) 
0.1

>  <cluster>  (25) 
1

$$$$

     RDKit          3D

 52 56  0  0  0  0  0  0  0  0999 V2000
  142.9990   75.1690  219.9220 O   0  0  0  0  0  0  0  0  0  0  0  0
  142.0120   74.8280  220.6330 C   0  0  0  0  0  0  0  0  0  0  0  0
  141.7400   73.3860  220.7900 C   0  0  0  0  0  0  0  0  0  0  0  0
  140.5500   73.1680  221.6550 C   0  0  0  0  0  0  0  0  0  0  0  0
  140.1070   71.8080  221.9480 C   0  0  0  0  0  0  0  0  0  0  0  0
  139.8060   70.9490  220.9120 C   0  0  0  0  0  0  0  0  0  0  0  0
  139.3790   69.6530  221.0960 C   0  0  0  0  0  0  0  0  0  0  0  0
  139.2500   69.2090  222.4020 C   0  0  0  0  0  0  0  0  0  0  0  0
  139.5340   70.0150  223.4840 C   0  0  0  0  0  0  0  0  0  0  0  0
  139.3780   69.4940  224.8220 C   0  0  0  0  0  0  0  0  0  0  0  0
  138.8840   68.3510  224.9580 O   0  0  0  0  0  0  0  0  0  0  0  0
  139.7470   70.1860  226.0040 N   0  0  0  0  0  0  0  0  0  0  0  0
  139.5360   69.5400  227.2960 C   0  0  0  0  0  0  0  0  0  0  0  0
  140.8120   69.7170  228.1200 C   0  0  0  0  0  0  0  0  0  0  0  0
  140.9950   71.0710  228.3180 O   0  0  0  0  0  0  0  0  0  0  0  0
  141.3790   71.6400  227.1090 C   0  0  0  0  0  0  0  0  0  0  0  0
  140.3260   71.5080  226.0280 C   0  0  0  0  0  0  0  0  0  0  0  0
  139.9650   71.3210  223.2260 C   0  0  0  0  0  0  0  0  0  0  0  0
  139.8740   74.1350  222.1770 N   0  0  0  0  0  0  0  0  0  0  0  0
  140.1500   75.5070  222.0150 C   0  0  0  0  0  0  0  0  0  0  0  0
  139.3290   76.4300  222.6420 C   0  0  0  0  0  0  0  0  0  0  0  0
  139.5990   77.7760  222.4840 C   0  0  0  0  0  0  0  0  0  0  0  0
  140.6720   78.1690  221.7100 C   0  0  0  0  0  0  0  0  0  0  0  0
  140.9210   79.6000  221.5710 C   0  0  0  0  0  0  0  0  0  0  0  0
  141.3050   80.2820  222.7280 C   0  0  0  0  0  0  0  0  0  0  0  0
  141.5660   81.6550  222.6940 C   0  0  0  0  0  0  0  0  0  0  0  0
  141.4210   82.2820  221.4600 C   0  0  0  0  0  0  0  0  0  0  0  0
  141.0490   81.5960  220.3630 N   0  0  0  0  0  0  0  0  0  0  0  0
  140.7930   80.2750  220.3760 C   0  0  0  0  0  0  0  0  0  0  0  0
  141.4930   77.2250  221.0820 C   0  0  0  0  0  0  0  0  0  0  0  0
  141.2170   75.8810  221.2440 C   0  0  0  0  0  0  0  0  0  0  0  0
  141.5532   72.9437  219.8003 H   0  0  0  0  0  0  0  0  0  0  0  0
  142.6126   72.9102  221.2614 H   0  0  0  0  0  0  0  0  0  0  0  0
  139.9129   71.3196  219.8819 H   0  0  0  0  0  0  0  0  0  0  0  0
  139.1500   68.9980  220.2424 H   0  0  0  0  0  0  0  0  0  0  0  0
  138.9095   68.1786  222.5818 H   0  0  0  0  0  0  0  0  0  0  0  0
  138.6871   70.0092  227.8150 H   0  0  0  0  0  0  0  0  0  0  0  0
  139.3112   68.4719  227.1598 H   0  0  0  0  0  0  0  0  0  0  0  0
  140.7070   69.2068  229.0888 H   0  0  0  0  0  0  0  0  0  0  0  0
  141.6753   69.2827  227.5945 H   0  0  0  0  0  0  0  0  0  0  0  0
  141.5796   72.7090  227.2734 H   0  0  0  0  0  0  0  0  0  0  0  0
  142.2733   71.1011  226.7627 H   0  0  0  0  0  0  0  0  0  0  0  0
  139.5290   72.2427  226.2153 H   0  0  0  0  0  0  0  0  0  0  0  0
  140.8085   71.6883  225.0560 H   0  0  0  0  0  0  0  0  0  0  0  0
  140.1982   71.9807  224.0747 H   0  0  0  0  0  0  0  0  0  0  0  0
  138.4778   76.0976  223.2544 H   0  0  0  0  0  0  0  0  0  0  0  0
  138.9629   78.5293  222.9719 H   0  0  0  0  0  0  0  0  0  0  0  0
  141.4031   79.7328  223.6760 H   0  0  0  0  0  0  0  0  0  0  0  0
  141.8696   82.2098  223.5940 H   0  0  0  0  0  0  0  0  0  0  0  0
  141.6146   83.3618  221.3792 H   0  0  0  0  0  0  0  0  0  0  0  0
  140.4901   79.7486  219.4588 H   0  0  0  0  0  0  0  0  0  0  0  0
  142.3462   77.5489  220.4679 H   0  0  0  0  0  0  0  0  0  0  0  0
  1  2  2  0
  2  3  1  0
  3  4  1  0
  4  5  1  0
  5  6  2  0
  6  7  1  0
  7  8  2  0
  8  9  1  0
  9 10  1  0
 10 11  2  0
 10 12  1  0
 12 13  1  0
 13 14  1  0
 14 15  1  0
 15 16  1  0
 16 17  1  0
  9 18  2  0
  4 19  2  0
 19 20  1  0
 20 21  2  0
 21 22  1  0
 22 23  2  0
 23 24  1  0
 24 25  2  0
 25 26  1  0
 26 27  2  0
 27 28  1  0
 28 29  2  0
 23 30  1  0
 30 31  2  0
 31  2  1  0
 18  5  1  0
 31 20  1  0
 17 12  1  0
 29 24  1  0
  3 32  1  0
  3 33  1  0
  6 34  1  0
  7 35  1  0
  8 36  1  0
 13 37  1  0
 13 38  1  0
 14 39  1  0
 14 40  1  0
 16 41  1  0
 16 42  1  0
 17 43  1  0
 17 44  1  0
 18 45  1  0
 21 46  1  0
 22 47  1  0
 25 48  1  0
 26 49  1  0
 27 50  1  0
 29 51  1  0
 30 52  1  0
M  END
>  <smiles>  (26) 
O=C1CC(c2cccc(C(=O)N3CCOCC3)c2)=Nc2ccc(-c3cccnc3)cc21

>  <score_type>  (26) 
oracle

>  <origin>  (26) 
autodockgpu

>  <m_score__min__energy>  (26) 
-9.0999999999999996

>  <m_primary>  (26) 
energy

>  <rmsd>  (26) 
6.917509090728807

>  <m_score__min__rmsd>  (26) 
6.917509090728807

>  <meeko>  (26) 
{"free_energy": -8.93, "intermolecular_energy": -9.82, "internal_energy": -0.66, "cluster_size": 44, "cluster_id": 1, "rank_in_cluster": 30}

>  <energy>  (26) 
-9.0

>  <cluster_rmsd>  (26) 
0.3

>  <cluster>  (26) 
1

$$$$

     RDKit          3D

 52 56  0  0  0  0  0  0  0  0999 V2000
  142.8850   74.6400  220.1990 O   0  0  0  0  0  0  0  0  0  0  0  0
  141.8390   74.3780  220.8570 C   0  0  0  0  0  0  0  0  0  0  0  0
  141.4710   72.9590  221.0300 C   0  0  0  0  0  0  0  0  0  0  0  0
  140.2230   72.8340  221.8270 C   0  0  0  0  0  0  0  0  0  0  0  0
  139.6810   71.5110  222.1230 C   0  0  0  0  0  0  0  0  0  0  0  0
  139.0090   70.8120  221.1420 C   0  0  0  0  0  0  0  0  0  0  0  0
  138.4640   69.5620  221.3350 C   0  0  0  0  0  0  0  0  0  0  0  0
  138.6100   68.9940  222.5900 C   0  0  0  0  0  0  0  0  0  0  0  0
  139.2710   69.6380  223.6160 C   0  0  0  0  0  0  0  0  0  0  0  0
  139.3880   68.9950  224.9030 C   0  0  0  0  0  0  0  0  0  0  0  0
  139.1860   67.7600  224.9680 O   0  0  0  0  0  0  0  0  0  0  0  0
  139.7190   69.6620  226.1110 N   0  0  0  0  0  0  0  0  0  0  0  0
  139.8070   68.8880  227.3450 C   0  0  0  0  0  0  0  0  0  0  0  0
  141.0940   69.2970  228.0630 C   0  0  0  0  0  0  0  0  0  0  0  0
  140.9850   70.6370  228.3780 O   0  0  0  0  0  0  0  0  0  0  0  0
  141.0910   71.3720  227.2020 C   0  0  0  0  0  0  0  0  0  0  0  0
  139.9810   71.0780  226.2140 C   0  0  0  0  0  0  0  0  0  0  0  0
  139.8010   70.9060  223.3520 C   0  0  0  0  0  0  0  0  0  0  0  0
  139.5770   73.8530  222.2860 N   0  0  0  0  0  0  0  0  0  0  0  0
  139.9440   75.2020  222.1090 C   0  0  0  0  0  0  0  0  0  0  0  0
  139.1460   76.1880  222.6650 C   0  0  0  0  0  0  0  0  0  0  0  0
  139.5060   77.5110  222.4930 C   0  0  0  0  0  0  0  0  0  0  0  0
  140.6440   77.8180  221.7760 C   0  0  0  0  0  0  0  0  0  0  0  0
  140.9870   79.2290  221.6200 C   0  0  0  0  0  0  0  0  0  0  0  0
  141.4180   79.8970  222.7680 C   0  0  0  0  0  0  0  0  0  0  0  0
  141.7690   81.2490  222.7170 C   0  0  0  0  0  0  0  0  0  0  0  0
  141.6630   81.8690  221.4770 C   0  0  0  0  0  0  0  0  0  0  0  0
  141.2440   81.1970  220.3890 N   0  0  0  0  0  0  0  0  0  0  0  0
  140.9020   79.8960  220.4170 C   0  0  0  0  0  0  0  0  0  0  0  0
  141.4410   76.8120  221.2200 C   0  0  0  0  0  0  0  0  0  0  0  0
  141.0750   75.4910  221.3950 C   0  0  0  0  0  0  0  0  0  0  0  0
  141.3152   72.5031  220.0411 H   0  0  0  0  0  0  0  0  0  0  0  0
  142.2843   72.4449  221.5631 H   0  0  0  0  0  0  0  0  0  0  0  0
  138.9026   71.2784  220.1515 H   0  0  0  0  0  0  0  0  0  0  0  0
  137.9349   69.0366  220.5263 H   0  0  0  0  0  0  0  0  0  0  0  0
  138.1849   67.9964  222.7749 H   0  0  0  0  0  0  0  0  0  0  0  0
  138.9377   69.1025  227.9840 H   0  0  0  0  0  0  0  0  0  0  0  0
  139.8169   67.8107  227.1228 H   0  0  0  0  0  0  0  0  0  0  0  0
  141.2166   68.7040  228.9813 H   0  0  0  0  0  0  0  0  0  0  0  0
  141.9693   69.1197  227.4208 H   0  0  0  0  0  0  0  0  0  0  0  0
  141.0604   72.4422  227.4543 H   0  0  0  0  0  0  0  0  0  0  0  0
  142.0396   71.0882  226.7228 H   0  0  0  0  0  0  0  0  0  0  0  0
  139.0641   71.5870  226.5461 H   0  0  0  0  0  0  0  0  0  0  0  0
  140.2972   71.4410  225.2250 H   0  0  0  0  0  0  0  0  0  0  0  0
  140.3321   71.4372  224.1556 H   0  0  0  0  0  0  0  0  0  0  0  0
  138.2422   75.9228  223.2331 H   0  0  0  0  0  0  0  0  0  0  0  0
  138.8898   78.3135  222.9246 H   0  0  0  0  0  0  0  0  0  0  0  0
  141.4819   79.3536  223.7223 H   0  0  0  0  0  0  0  0  0  0  0  0
  142.1107   81.7932  223.6098 H   0  0  0  0  0  0  0  0  0  0  0  0
  141.9275   82.9326  221.3833 H   0  0  0  0  0  0  0  0  0  0  0  0
  140.5644   79.3798  219.5062 H   0  0  0  0  0  0  0  0  0  0  0  0
  142.3468   77.0689  220.6512 H   0  0  0  0  0  0  0  0  0  0  0  0
  1  2  2  0
  2  3  1  0
  3  4  1  0
  4  5  1  0
  5  6  2  0
  6  7  1  0
  7  8  2  0
  8  9  1  0
  9 10  1  0
 10 11  2  0
 10 12  1  0
 12 13  1  0
 13 14  1  0
 14 15  1  0
 15 16  1  0
 16 17  1  0
  9 18  2  0
  4 19  2  0
 19 20  1  0
 20 21  2  0
 21 22  1  0
 22 23  2  0
 23 24  1  0
 24 25  2  0
 25 26  1  0
 26 27  2  0
 27 28  1  0
 28 29  2  0
 23 30  1  0
 30 31  2  0
 31  2  1  0
 18  5  1  0
 31 20  1  0
 17 12  1  0
 29 24  1  0
  3 32  1  0
  3 33  1  0
  6 34  1  0
  7 35  1  0
  8 36  1  0
 13 37  1  0
 13 38  1  0
 14 39  1  0
 14 40  1  0
 16 41  1  0
 16 42  1  0
 17 43  1  0
 17 44  1  0
 18 45  1  0
 21 46  1  0
 22 47  1  0
 25 48  1  0
 26 49  1  0
 27 50  1  0
 29 51  1  0
 30 52  1  0
M  END
>  <smiles>  (27) 
O=C1CC(c2cccc(C(=O)N3CCOCC3)c2)=Nc2ccc(-c3cccnc3)cc21

>  <score_type>  (27) 
oracle

>  <origin>  (27) 
autodockgpu

>  <m_score__min__energy>  (27) 
-9.0999999999999996

>  <m_primary>  (27) 
energy

>  <rmsd>  (27) 
6.835685909266637

>  <m_score__min__rmsd>  (27) 
6.835685909266637

>  <meeko>  (27) 
{"free_energy": -9.08, "intermolecular_energy": -9.98, "internal_energy": -0.72, "cluster_size": 44, "cluster_id": 1, "rank_in_cluster": 5}

>  <energy>  (27) 
-8.99

>  <cluster_rmsd>  (27) 
0.43

>  <cluster>  (27) 
1

$$$$

     RDKit          3D

 52 56  0  0  0  0  0  0  0  0999 V2000
  142.9840   74.7620  220.0440 O   0  0  0  0  0  0  0  0  0  0  0  0
  141.9660   74.4430  220.7190 C   0  0  0  0  0  0  0  0  0  0  0  0
  141.6660   73.0060  220.8770 C   0  0  0  0  0  0  0  0  0  0  0  0
  140.4410   72.8140  221.6970 C   0  0  0  0  0  0  0  0  0  0  0  0
  139.9660   71.4630  221.9840 C   0  0  0  0  0  0  0  0  0  0  0  0
  139.5060   70.6680  220.9560 C   0  0  0  0  0  0  0  0  0  0  0  0
  139.0380   69.3850  221.1350 C   0  0  0  0  0  0  0  0  0  0  0  0
  139.0370   68.8870  222.4270 C   0  0  0  0  0  0  0  0  0  0  0  0
  139.4820   69.6280  223.5020 C   0  0  0  0  0  0  0  0  0  0  0  0
  139.4550   69.0530  224.8260 C   0  0  0  0  0  0  0  0  0  0  0  0
  139.1720   67.8380  224.9370 O   0  0  0  0  0  0  0  0  0  0  0  0
  139.7260   69.7670  226.0210 N   0  0  0  0  0  0  0  0  0  0  0  0
  139.6650   69.0610  227.2960 C   0  0  0  0  0  0  0  0  0  0  0  0
  140.9110   69.4370  228.1000 C   0  0  0  0  0  0  0  0  0  0  0  0
  140.8590   70.7960  228.3350 O   0  0  0  0  0  0  0  0  0  0  0  0
  141.1060   71.4560  227.1360 C   0  0  0  0  0  0  0  0  0  0  0  0
  140.0650   71.1700  226.0730 C   0  0  0  0  0  0  0  0  0  0  0  0
  139.9460   70.9240  223.2490 C   0  0  0  0  0  0  0  0  0  0  0  0
  139.7600   73.7950  222.1860 N   0  0  0  0  0  0  0  0  0  0  0  0
  140.0630   75.1610  222.0240 C   0  0  0  0  0  0  0  0  0  0  0  0
  139.2330   76.1020  222.6110 C   0  0  0  0  0  0  0  0  0  0  0  0
  139.5290   77.4420  222.4530 C   0  0  0  0  0  0  0  0  0  0  0  0
  140.6370   77.8120  221.7180 C   0  0  0  0  0  0  0  0  0  0  0  0
  140.9130   79.2390  221.5780 C   0  0  0  0  0  0  0  0  0  0  0  0
  141.4180   79.8900  222.7050 C   0  0  0  0  0  0  0  0  0  0  0  0
  141.7140   81.2560  222.6660 C   0  0  0  0  0  0  0  0  0  0  0  0
  141.4770   81.9070  221.4600 C   0  0  0  0  0  0  0  0  0  0  0  0
  140.9880   81.2490  220.3910 N   0  0  0  0  0  0  0  0  0  0  0  0
  140.6980   79.9360  220.4090 C   0  0  0  0  0  0  0  0  0  0  0  0
  141.4660   76.8510  221.1300 C   0  0  0  0  0  0  0  0  0  0  0  0
  141.1640   75.5120  221.2910 C   0  0  0  0  0  0  0  0  0  0  0  0
  141.5105   72.5580  219.8845 H   0  0  0  0  0  0  0  0  0  0  0  0
  142.5124   72.5209  221.3852 H   0  0  0  0  0  0  0  0  0  0  0  0
  139.5131   71.0811  219.9365 H   0  0  0  0  0  0  0  0  0  0  0  0
  138.6803   68.7817  220.2876 H   0  0  0  0  0  0  0  0  0  0  0  0
  138.6687   67.8654  222.6021 H   0  0  0  0  0  0  0  0  0  0  0  0
  138.7606   69.3599  227.8462 H   0  0  0  0  0  0  0  0  0  0  0  0
  139.6280   67.9740  227.1314 H   0  0  0  0  0  0  0  0  0  0  0  0
  140.9207   68.8909  229.0548 H   0  0  0  0  0  0  0  0  0  0  0  0
  141.8238   69.1746  227.5450 H   0  0  0  0  0  0  0  0  0  0  0  0
  141.1203   72.5388  227.3292 H   0  0  0  0  0  0  0  0  0  0  0  0
  142.0716   71.0921  226.7549 H   0  0  0  0  0  0  0  0  0  0  0  0
  139.1568   71.7480  226.2988 H   0  0  0  0  0  0  0  0  0  0  0  0
  140.4832   71.4581  225.0972 H   0  0  0  0  0  0  0  0  0  0  0  0
  140.3072   71.5325  224.0912 H   0  0  0  0  0  0  0  0  0  0  0  0
  138.3538   75.7877  223.1926 H   0  0  0  0  0  0  0  0  0  0  0  0
  138.8861   78.2088  222.9098 H   0  0  0  0  0  0  0  0  0  0  0  0
  141.5847   79.3228  223.6327 H   0  0  0  0  0  0  0  0  0  0  0  0
  142.1131   81.7875  223.5425 H   0  0  0  0  0  0  0  0  0  0  0  0
  141.6935   82.9823  221.3773 H   0  0  0  0  0  0  0  0  0  0  0  0
  140.3003   79.4325  219.5155 H   0  0  0  0  0  0  0  0  0  0  0  0
  142.3471   77.1571  220.5469 H   0  0  0  0  0  0  0  0  0  0  0  0
  1  2  2  0
  2  3  1  0
  3  4  1  0
  4  5  1  0
  5  6  2  0
  6  7  1  0
  7  8  2  0
  8  9  1  0
  9 10  1  0
 10 11  2  0
 10 12  1  0
 12 13  1  0
 13 14  1  0
 14 15  1  0
 15 16  1  0
 16 17  1  0
  9 18  2  0
  4 19  2  0
 19 20  1  0
 20 21  2  0
 21 22  1  0
 22 23  2  0
 23 24  1  0
 24 25  2  0
 25 26  1  0
 26 27  2  0
 27 28  1  0
 28 29  2  0
 23 30  1  0
 30 31  2  0
 31  2  1  0
 18  5  1  0
 31 20  1  0
 17 12  1  0
 29 24  1  0
  3 32  1  0
  3 33  1  0
  6 34  1  0
  7 35  1  0
  8 36  1  0
 13 37  1  0
 13 38  1  0
 14 39  1  0
 14 40  1  0
 16 41  1  0
 16 42  1  0
 17 43  1  0
 17 44  1  0
 18 45  1  0
 21 46  1  0
 22 47  1  0
 25 48  1  0
 26 49  1  0
 27 50  1  0
 29 51  1  0
 30 52  1  0
M  END
>  <smiles>  (28) 
O=C1CC(c2cccc(C(=O)N3CCOCC3)c2)=Nc2ccc(-c3cccnc3)cc21

>  <score_type>  (28) 
oracle

>  <origin>  (28) 
autodockgpu

>  <m_score__min__energy>  (28) 
-9.0999999999999996

>  <m_primary>  (28) 
energy

>  <rmsd>  (28) 
6.847072174625957

>  <m_score__min__rmsd>  (28) 
6.847072174625957

>  <meeko>  (28) 
{"free_energy": -9.01, "intermolecular_energy": -9.9, "internal_energy": -0.68, "cluster_size": 44, "cluster_id": 1, "rank_in_cluster": 24}

>  <energy>  (28) 
-8.96

>  <cluster_rmsd>  (28) 
0.15

>  <cluster>  (28) 
1

$$$$

     RDKit          3D

 52 56  0  0  0  0  0  0  0  0999 V2000
  142.9680   75.1490  220.0700 O   0  0  0  0  0  0  0  0  0  0  0  0
  141.9640   74.8110  220.7570 C   0  0  0  0  0  0  0  0  0  0  0  0
  141.6800   73.3690  220.9000 C   0  0  0  0  0  0  0  0  0  0  0  0
  140.4710   73.1540  221.7370 C   0  0  0  0  0  0  0  0  0  0  0  0
  140.0130   71.7950  222.0130 C   0  0  0  0  0  0  0  0  0  0  0  0
  139.5910   70.9920  220.9750 C   0  0  0  0  0  0  0  0  0  0  0  0
  139.1410   69.7010  221.1440 C   0  0  0  0  0  0  0  0  0  0  0  0
  139.1200   69.2020  222.4360 C   0  0  0  0  0  0  0  0  0  0  0  0
  139.5290   69.9510  223.5200 C   0  0  0  0  0  0  0  0  0  0  0  0
  139.4820   69.3750  224.8430 C   0  0  0  0  0  0  0  0  0  0  0  0
  139.1230   68.1800  224.9560 O   0  0  0  0  0  0  0  0  0  0  0  0
  139.8140   70.0680  226.0360 N   0  0  0  0  0  0  0  0  0  0  0  0
  139.7240   69.3630  227.3110 C   0  0  0  0  0  0  0  0  0  0  0  0
  141.0020   69.6560  228.0980 C   0  0  0  0  0  0  0  0  0  0  0  0
  141.0410   71.0150  228.3370 O   0  0  0  0  0  0  0  0  0  0  0  0
  141.3140   71.6610  227.1360 C   0  0  0  0  0  0  0  0  0  0  0  0
  140.2420   71.4450  226.0860 C   0  0  0  0  0  0  0  0  0  0  0  0
  139.9750   71.2550  223.2770 C   0  0  0  0  0  0  0  0  0  0  0  0
  139.7880   74.1220  222.2500 N   0  0  0  0  0  0  0  0  0  0  0  0
  140.0750   75.4930  222.1010 C   0  0  0  0  0  0  0  0  0  0  0  0
  139.2450   76.4170  222.7140 C   0  0  0  0  0  0  0  0  0  0  0  0
  139.5260   77.7630  222.5680 C   0  0  0  0  0  0  0  0  0  0  0  0
  140.6180   78.1530  221.8210 C   0  0  0  0  0  0  0  0  0  0  0  0
  140.8780   79.5840  221.6950 C   0  0  0  0  0  0  0  0  0  0  0  0
  141.3090   80.2440  222.8480 C   0  0  0  0  0  0  0  0  0  0  0  0
  141.5840   81.6140  222.8250 C   0  0  0  0  0  0  0  0  0  0  0  0
  141.4040   82.2610  221.6070 C   0  0  0  0  0  0  0  0  0  0  0  0
  140.9870   81.5960  220.5130 N   0  0  0  0  0  0  0  0  0  0  0  0
  140.7170   80.2780  220.5150 C   0  0  0  0  0  0  0  0  0  0  0  0
  141.4480   77.2080  221.2070 C   0  0  0  0  0  0  0  0  0  0  0  0
  141.1610   75.8650  221.3550 C   0  0  0  0  0  0  0  0  0  0  0  0
  141.5122   72.9332  219.9040 H   0  0  0  0  0  0  0  0  0  0  0  0
  142.5392   72.8852  221.3875 H   0  0  0  0  0  0  0  0  0  0  0  0
  139.6149   71.4048  219.9557 H   0  0  0  0  0  0  0  0  0  0  0  0
  138.8122   69.0921  220.2890 H   0  0  0  0  0  0  0  0  0  0  0  0
  138.7654   68.1743  222.6033 H   0  0  0  0  0  0  0  0  0  0  0  0
  138.8481   69.7180  227.8739 H   0  0  0  0  0  0  0  0  0  0  0  0
  139.6143   68.2811  227.1451 H   0  0  0  0  0  0  0  0  0  0  0  0
  140.9898   69.1074  229.0514 H   0  0  0  0  0  0  0  0  0  0  0  0
  141.8882   69.3375  227.5294 H   0  0  0  0  0  0  0  0  0  0  0  0
  141.4003   72.7401  227.3310 H   0  0  0  0  0  0  0  0  0  0  0  0
  142.2491   71.2370  226.7413 H   0  0  0  0  0  0  0  0  0  0  0  0
  139.3756   72.0792  226.3253 H   0  0  0  0  0  0  0  0  0  0  0  0
  140.6645   71.7087  225.1052 H   0  0  0  0  0  0  0  0  0  0  0  0
  140.3068   71.8695  224.1269 H   0  0  0  0  0  0  0  0  0  0  0  0
  138.3787   76.0863  223.3058 H   0  0  0  0  0  0  0  0  0  0  0  0
  138.8830   78.5177  223.0444 H   0  0  0  0  0  0  0  0  0  0  0  0
  141.4333   79.6796  223.7839 H   0  0  0  0  0  0  0  0  0  0  0  0
  141.9246   82.1518  223.7221 H   0  0  0  0  0  0  0  0  0  0  0  0
  141.6068   83.3398  221.5359 H   0  0  0  0  0  0  0  0  0  0  0  0
  140.3774   79.7687  219.6010 H   0  0  0  0  0  0  0  0  0  0  0  0
  142.3170   77.5304  220.6147 H   0  0  0  0  0  0  0  0  0  0  0  0
  1  2  2  0
  2  3  1  0
  3  4  1  0
  4  5  1  0
  5  6  2  0
  6  7  1  0
  7  8  2  0
  8  9  1  0
  9 10  1  0
 10 11  2  0
 10 12  1  0
 12 13  1  0
 13 14  1  0
 14 15  1  0
 15 16  1  0
 16 17  1  0
  9 18  2  0
  4 19  2  0
 19 20  1  0
 20 21  2  0
 21 22  1  0
 22 23  2  0
 23 24  1  0
 24 25  2  0
 25 26  1  0
 26 27  2  0
 27 28  1  0
 28 29  2  0
 23 30  1  0
 30 31  2  0
 31  2  1  0
 18  5  1  0
 31 20  1  0
 17 12  1  0
 29 24  1  0
  3 32  1  0
  3 33  1  0
  6 34  1  0
  7 35  1  0
  8 36  1  0
 13 37  1  0
 13 38  1  0
 14 39  1  0
 14 40  1  0
 16 41  1  0
 16 42  1  0
 17 43  1  0
 17 44  1  0
 18 45  1  0
 21 46  1  0
 22 47  1  0
 25 48  1  0
 26 49  1  0
 27 50  1  0
 29 51  1  0
 30 52  1  0
M  END
>  <smiles>  (29) 
O=C1CC(c2cccc(C(=O)N3CCOCC3)c2)=Nc2ccc(-c3cccnc3)cc21

>  <score_type>  (29) 
oracle

>  <origin>  (29) 
autodockgpu

>  <m_score__min__energy>  (29) 
-9.0999999999999996

>  <m_primary>  (29) 
energy

>  <rmsd>  (29) 
6.910174034379997

>  <m_score__min__rmsd>  (29) 
6.910174034379997

>  <meeko>  (29) 
{"free_energy": -8.99, "intermolecular_energy": -9.89, "internal_energy": -0.66, "cluster_size": 44, "cluster_id": 1, "rank_in_cluster": 27}

>  <energy>  (29) 
-8.94

>  <cluster_rmsd>  (29) 
0.51

>  <cluster>  (29) 
1

$$$$

     RDKit          3D

 52 56  0  0  0  0  0  0  0  0999 V2000
  142.8980   74.7020  220.2630 O   0  0  0  0  0  0  0  0  0  0  0  0
  141.8500   74.4270  220.9130 C   0  0  0  0  0  0  0  0  0  0  0  0
  141.4890   73.0050  221.0700 C   0  0  0  0  0  0  0  0  0  0  0  0
  140.2370   72.8660  221.8590 C   0  0  0  0  0  0  0  0  0  0  0  0
  139.7010   71.5370  222.1400 C   0  0  0  0  0  0  0  0  0  0  0  0
  139.0440   70.8410  221.1470 C   0  0  0  0  0  0  0  0  0  0  0  0
  138.5060   69.5860  221.3250 C   0  0  0  0  0  0  0  0  0  0  0  0
  138.6420   69.0100  222.5770 C   0  0  0  0  0  0  0  0  0  0  0  0
  139.2880   69.6500  223.6150 C   0  0  0  0  0  0  0  0  0  0  0  0
  139.3960   68.9980  224.8980 C   0  0  0  0  0  0  0  0  0  0  0  0
  139.1860   67.7650  224.9540 O   0  0  0  0  0  0  0  0  0  0  0  0
  139.7270   69.6550  226.1110 N   0  0  0  0  0  0  0  0  0  0  0  0
  139.8050   68.8730  227.3400 C   0  0  0  0  0  0  0  0  0  0  0  0
  141.0910   69.2700  228.0660 C   0  0  0  0  0  0  0  0  0  0  0  0
  140.9890   70.6080  228.3900 O   0  0  0  0  0  0  0  0  0  0  0  0
  141.1050   71.3490  227.2190 C   0  0  0  0  0  0  0  0  0  0  0  0
  139.9970   71.0690  226.2240 C   0  0  0  0  0  0  0  0  0  0  0  0
  139.8130   70.9240  223.3650 C   0  0  0  0  0  0  0  0  0  0  0  0
  139.5830   73.8760  222.3240 N   0  0  0  0  0  0  0  0  0  0  0  0
  139.9440   75.2290  222.1630 C   0  0  0  0  0  0  0  0  0  0  0  0
  139.1370   76.2050  222.7230 C   0  0  0  0  0  0  0  0  0  0  0  0
  139.4910   77.5320  222.5660 C   0  0  0  0  0  0  0  0  0  0  0  0
  140.6310   77.8520  221.8580 C   0  0  0  0  0  0  0  0  0  0  0  0
  140.9670   79.2660  221.7170 C   0  0  0  0  0  0  0  0  0  0  0  0
  141.4490   79.9090  222.8600 C   0  0  0  0  0  0  0  0  0  0  0  0
  141.7980   81.2630  222.8220 C   0  0  0  0  0  0  0  0  0  0  0  0
  141.6370   81.9100  221.6010 C   0  0  0  0  0  0  0  0  0  0  0  0
  141.1690   81.2610  220.5190 N   0  0  0  0  0  0  0  0  0  0  0  0
  140.8280   79.9590  220.5350 C   0  0  0  0  0  0  0  0  0  0  0  0
  141.4370   76.8560  221.2970 C   0  0  0  0  0  0  0  0  0  0  0  0
  141.0770   75.5310  221.4570 C   0  0  0  0  0  0  0  0  0  0  0  0
  141.3411   72.5579  220.0759 H   0  0  0  0  0  0  0  0  0  0  0  0
  142.3021   72.4899  221.6024 H   0  0  0  0  0  0  0  0  0  0  0  0
  138.9443   71.3142  220.1590 H   0  0  0  0  0  0  0  0  0  0  0  0
  137.9897   69.0627  220.5067 H   0  0  0  0  0  0  0  0  0  0  0  0
  138.2209   68.0086  222.7499 H   0  0  0  0  0  0  0  0  0  0  0  0
  138.9342   69.0886  227.9765 H   0  0  0  0  0  0  0  0  0  0  0  0
  139.8095   67.7971  227.1111 H   0  0  0  0  0  0  0  0  0  0  0  0
  141.2064   68.6699  228.9806 H   0  0  0  0  0  0  0  0  0  0  0  0
  141.9677   69.0924  227.4258 H   0  0  0  0  0  0  0  0  0  0  0  0
  141.0809   72.4179  227.4777 H   0  0  0  0  0  0  0  0  0  0  0  0
  142.0535   71.0609  226.7421 H   0  0  0  0  0  0  0  0  0  0  0  0
  139.0819   71.5815  226.5556 H   0  0  0  0  0  0  0  0  0  0  0  0
  140.3192   71.4369  225.2387 H   0  0  0  0  0  0  0  0  0  0  0  0
  140.3332   71.4525  224.1774 H   0  0  0  0  0  0  0  0  0  0  0  0
  138.2309   75.9294  223.2825 H   0  0  0  0  0  0  0  0  0  0  0  0
  138.8683   78.3269  223.0023 H   0  0  0  0  0  0  0  0  0  0  0  0
  141.5550   79.3451  223.7985 H   0  0  0  0  0  0  0  0  0  0  0  0
  142.1794   81.7882  223.7101 H   0  0  0  0  0  0  0  0  0  0  0  0
  141.8979   82.9754  221.5182 H   0  0  0  0  0  0  0  0  0  0  0  0
  140.4490   79.4625  219.6296 H   0  0  0  0  0  0  0  0  0  0  0  0
  142.3448   77.1234  220.7362 H   0  0  0  0  0  0  0  0  0  0  0  0
  1  2  2  0
  2  3  1  0
  3  4  1  0
  4  5  1  0
  5  6  2  0
  6  7  1  0
  7  8  2  0
  8  9  1  0
  9 10  1  0
 10 11  2  0
 10 12  1  0
 12 13  1  0
 13 14  1  0
 14 15  1  0
 15 16  1  0
 16 17  1  0
  9 18  2  0
  4 19  2  0
 19 20  1  0
 20 21  2  0
 21 22  1  0
 22 23  2  0
 23 24  1  0
 24 25  2  0
 25 26  1  0
 26 27  2  0
 27 28  1  0
 28 29  2  0
 23 30  1  0
 30 31  2  0
 31  2  1  0
 18  5  1  0
 31 20  1  0
 17 12  1  0
 29 24  1  0
  3 32  1  0
  3 33  1  0
  6 34  1  0
  7 35  1  0
  8 36  1  0
 13 37  1  0
 13 38  1  0
 14 39  1  0
 14 40  1  0
 16 41  1  0
 16 42  1  0
 17 43  1  0
 17 44  1  0
 18 45  1  0
 21 46  1  0
 22 47  1  0
 25 48  1  0
 26 49  1  0
 27 50  1  0
 29 51  1  0
 30 52  1  0
M  END
>  <smiles>  (30) 
O=C1CC(c2cccc(C(=O)N3CCOCC3)c2)=Nc2ccc(-c3cccnc3)cc21

>  <score_type>  (30) 
oracle

>  <origin>  (30) 
autodockgpu

>  <m_score__min__energy>  (30) 
-9.0999999999999996

>  <m_primary>  (30) 
energy

>  <rmsd>  (30) 
6.833061251462703

>  <m_score__min__rmsd>  (30) 
6.833061251462703

>  <meeko>  (30) 
{"free_energy": -9.08, "intermolecular_energy": -9.98, "internal_energy": -0.72, "cluster_size": 44, "cluster_id": 1, "rank_in_cluster": 7}

>  <energy>  (30) 
-8.93

>  <cluster_rmsd>  (30) 
0.53

>  <cluster>  (30) 
1

$$$$

     RDKit          3D

 52 56  0  0  0  0  0  0  0  0999 V2000
  139.7560   74.0370  222.3130 O   0  0  0  0  0  0  0  0  0  0  0  0
  140.1540   75.1850  221.9700 C   0  0  0  0  0  0  0  0  0  0  0  0
  139.3510   76.3490  222.3940 C   0  0  0  0  0  0  0  0  0  0  0  0
  139.9620   77.6130  221.9080 C   0  0  0  0  0  0  0  0  0  0  0  0
  139.3300   78.8920  222.2210 C   0  0  0  0  0  0  0  0  0  0  0  0
  139.9410   80.0680  221.8430 C   0  0  0  0  0  0  0  0  0  0  0  0
  139.4180   81.3160  222.0990 C   0  0  0  0  0  0  0  0  0  0  0  0
  138.2110   81.3690  222.7760 C   0  0  0  0  0  0  0  0  0  0  0  0
  137.5450   80.2310  223.1830 C   0  0  0  0  0  0  0  0  0  0  0  0
  136.2900   80.3530  223.8870 C   0  0  0  0  0  0  0  0  0  0  0  0
  135.3350   79.6300  223.5210 O   0  0  0  0  0  0  0  0  0  0  0  0
  136.0560   81.2370  224.9710 N   0  0  0  0  0  0  0  0  0  0  0  0
  134.7370   81.2570  225.5950 C   0  0  0  0  0  0  0  0  0  0  0  0
  134.9360   81.2220  227.1110 C   0  0  0  0  0  0  0  0  0  0  0  0
  135.6200   82.3680  227.4660 O   0  0  0  0  0  0  0  0  0  0  0  0
  136.9320   82.2470  227.0230 C   0  0  0  0  0  0  0  0  0  0  0  0
  137.0440   82.1370  225.5160 C   0  0  0  0  0  0  0  0  0  0  0  0
  138.1320   78.9950  222.8890 C   0  0  0  0  0  0  0  0  0  0  0  0
  141.0490   77.6470  221.2120 N   0  0  0  0  0  0  0  0  0  0  0  0
  141.8020   76.5240  220.8160 C   0  0  0  0  0  0  0  0  0  0  0  0
  142.9500   76.7230  220.0680 C   0  0  0  0  0  0  0  0  0  0  0  0
  143.6900   75.6220  219.6800 C   0  0  0  0  0  0  0  0  0  0  0  0
  143.2720   74.3580  220.0430 C   0  0  0  0  0  0  0  0  0  0  0  0
  144.0840   73.2240  219.6130 C   0  0  0  0  0  0  0  0  0  0  0  0
  143.6240   71.9560  219.9720 C   0  0  0  0  0  0  0  0  0  0  0  0
  144.3340   70.8090  219.6040 C   0  0  0  0  0  0  0  0  0  0  0  0
  145.5000   71.0110  218.8740 C   0  0  0  0  0  0  0  0  0  0  0  0
  145.9170   72.2480  218.5440 N   0  0  0  0  0  0  0  0  0  0  0  0
  145.2470   73.3630  218.8880 C   0  0  0  0  0  0  0  0  0  0  0  0
  142.1090   74.1730  220.7990 C   0  0  0  0  0  0  0  0  0  0  0  0
  141.3730   75.2770  221.1830 C   0  0  0  0  0  0  0  0  0  0  0  0
  138.3355   76.2568  221.9815 H   0  0  0  0  0  0  0  0  0  0  0  0
  139.3155   76.3729  223.4932 H   0  0  0  0  0  0  0  0  0  0  0  0
  140.8996   80.0064  221.3071 H   0  0  0  0  0  0  0  0  0  0  0  0
  139.9369   82.2318  221.7794 H   0  0  0  0  0  0  0  0  0  0  0  0
  137.7682   82.3515  222.9968 H   0  0  0  0  0  0  0  0  0  0  0  0
  134.2017   82.1744  225.3090 H   0  0  0  0  0  0  0  0  0  0  0  0
  134.1431   80.3917  225.2655 H   0  0  0  0  0  0  0  0  0  0  0  0
  133.9599   81.1950  227.6175 H   0  0  0  0  0  0  0  0  0  0  0  0
  135.5010   80.3259  227.4072 H   0  0  0  0  0  0  0  0  0  0  0  0
  137.4954   83.1326  227.3520 H   0  0  0  0  0  0  0  0  0  0  0  0
  137.3375   81.3180  227.4502 H   0  0  0  0  0  0  0  0  0  0  0  0
  136.9001   83.1341  225.0742 H   0  0  0  0  0  0  0  0  0  0  0  0
  138.0405   81.7387  225.2746 H   0  0  0  0  0  0  0  0  0  0  0  0
  137.6178   78.0746  223.2028 H   0  0  0  0  0  0  0  0  0  0  0  0
  143.2672   77.7383  219.7878 H   0  0  0  0  0  0  0  0  0  0  0  0
  144.6063   75.7525  219.0856 H   0  0  0  0  0  0  0  0  0  0  0  0
  142.6934   71.8581  220.5503 H   0  0  0  0  0  0  0  0  0  0  0  0
  143.9887   69.8010  219.8773 H   0  0  0  0  0  0  0  0  0  0  0  0
  146.0949   70.1410  218.5591 H   0  0  0  0  0  0  0  0  0  0  0  0
  145.6175   74.3574  218.5985 H   0  0  0  0  0  0  0  0  0  0  0  0
  141.7850   73.1611  221.0839 H   0  0  0  0  0  0  0  0  0  0  0  0
  1  2  2  0
  2  3  1  0
  3  4  1  0
  4  5  1  0
  5  6  2  0
  6  7  1  0
  7  8  2  0
  8  9  1  0
  9 10  1  0
 10 11  2  0
 10 12  1  0
 12 13  1  0
 13 14  1  0
 14 15  1  0
 15 16  1  0
 16 17  1  0
  9 18  2  0
  4 19  2  0
 19 20  1  0
 20 21  2  0
 21 22  1  0
 22 23  2  0
 23 24  1  0
 24 25  2  0
 25 26  1  0
 26 27  2  0
 27 28  1  0
 28 29  2  0
 23 30  1  0
 30 31  2  0
 31  2  1  0
 18  5  1  0
 31 20  1  0
 17 12  1  0
 29 24  1  0
  3 32  1  0
  3 33  1  0
  6 34  1  0
  7 35  1  0
  8 36  1  0
 13 37  1  0
 13 38  1  0
 14 39  1  0
 14 40  1  0
 16 41  1  0
 16 42  1  0
 17 43  1  0
 17 44  1  0
 18 45  1  0
 21 46  1  0
 22 47  1  0
 25 48  1  0
 26 49  1  0
 27 50  1  0
 29 51  1  0
 30 52  1  0
M  END
>  <smiles>  (31) 
O=C1CC(c2cccc(C(=O)N3CCOCC3)c2)=Nc2ccc(-c3cccnc3)cc21

>  <score_type>  (31) 
oracle

>  <origin>  (31) 
autodockgpu

>  <m_score__min__energy>  (31) 
-9.0999999999999996

>  <m_primary>  (31) 
energy

>  <rmsd>  (31) 
9.136879816563317

>  <m_score__min__rmsd>  (31) 
9.136879816563317

>  <meeko>  (31) 
{"free_energy": -7.65, "intermolecular_energy": -8.54, "internal_energy": -0.86, "cluster_size": 1, "cluster_id": 3, "rank_in_cluster": 1}

>  <energy>  (31) 
-8.92

>  <cluster_rmsd>  (31) 
0.48

>  <cluster>  (31) 
1

$$$$

     RDKit          3D

 52 56  0  0  0  0  0  0  0  0999 V2000
  142.8840   74.6610  220.2730 O   0  0  0  0  0  0  0  0  0  0  0  0
  141.8310   74.4010  220.9190 C   0  0  0  0  0  0  0  0  0  0  0  0
  141.4540   72.9830  221.0840 C   0  0  0  0  0  0  0  0  0  0  0  0
  140.1970   72.8620  221.8670 C   0  0  0  0  0  0  0  0  0  0  0  0
  139.6460   71.5400  222.1540 C   0  0  0  0  0  0  0  0  0  0  0  0
  138.9530   70.8620  221.1740 C   0  0  0  0  0  0  0  0  0  0  0  0
  138.3980   69.6150  221.3580 C   0  0  0  0  0  0  0  0  0  0  0  0
  138.5570   69.0280  222.6030 C   0  0  0  0  0  0  0  0  0  0  0  0
  139.2390   69.6510  223.6270 C   0  0  0  0  0  0  0  0  0  0  0  0
  139.3700   68.9890  224.9030 C   0  0  0  0  0  0  0  0  0  0  0  0
  139.1730   67.7530  224.9510 O   0  0  0  0  0  0  0  0  0  0  0  0
  139.7070   69.6390  226.1180 N   0  0  0  0  0  0  0  0  0  0  0  0
  139.8070   68.8460  227.3400 C   0  0  0  0  0  0  0  0  0  0  0  0
  141.0970   69.2510  228.0550 C   0  0  0  0  0  0  0  0  0  0  0  0
  140.9850   70.5850  228.3910 O   0  0  0  0  0  0  0  0  0  0  0  0
  141.0790   71.3380  227.2260 C   0  0  0  0  0  0  0  0  0  0  0  0
  139.9630   71.0540  226.2420 C   0  0  0  0  0  0  0  0  0  0  0  0
  139.7790   70.9170  223.3720 C   0  0  0  0  0  0  0  0  0  0  0  0
  139.5520   73.8820  222.3230 N   0  0  0  0  0  0  0  0  0  0  0  0
  139.9270   75.2290  222.1550 C   0  0  0  0  0  0  0  0  0  0  0  0
  139.1270   76.2170  222.7060 C   0  0  0  0  0  0  0  0  0  0  0  0
  139.4950   77.5390  222.5420 C   0  0  0  0  0  0  0  0  0  0  0  0
  140.6420   77.8440  221.8380 C   0  0  0  0  0  0  0  0  0  0  0  0
  140.9930   79.2530  221.6900 C   0  0  0  0  0  0  0  0  0  0  0  0
  141.4540   79.9050  222.8360 C   0  0  0  0  0  0  0  0  0  0  0  0
  141.8140   81.2550  222.7930 C   0  0  0  0  0  0  0  0  0  0  0  0
  141.6880   81.8900  221.5620 C   0  0  0  0  0  0  0  0  0  0  0  0
  141.2400   81.2330  220.4750 N   0  0  0  0  0  0  0  0  0  0  0  0
  140.8880   79.9350  220.4970 C   0  0  0  0  0  0  0  0  0  0  0  0
  141.4400   76.8360  221.2870 C   0  0  0  0  0  0  0  0  0  0  0  0
  141.0660   75.5160  221.4530 C   0  0  0  0  0  0  0  0  0  0  0  0
  141.3067   72.5307  220.0922 H   0  0  0  0  0  0  0  0  0  0  0  0
  142.2590   72.4634  221.6244 H   0  0  0  0  0  0  0  0  0  0  0  0
  138.8370   71.3431  220.1916 H   0  0  0  0  0  0  0  0  0  0  0  0
  137.8513   69.1063  220.5503 H   0  0  0  0  0  0  0  0  0  0  0  0
  138.1250   68.0321  222.7805 H   0  0  0  0  0  0  0  0  0  0  0  0
  138.9411   69.0463  227.9881 H   0  0  0  0  0  0  0  0  0  0  0  0
  139.8203   67.7722  227.1016 H   0  0  0  0  0  0  0  0  0  0  0  0
  141.2289   68.6449  228.9634 H   0  0  0  0  0  0  0  0  0  0  0  0
  141.9682   69.0879  227.4035 H   0  0  0  0  0  0  0  0  0  0  0  0
  141.0455   72.4041  227.4948 H   0  0  0  0  0  0  0  0  0  0  0  0
  142.0252   71.0658  226.7355 H   0  0  0  0  0  0  0  0  0  0  0  0
  139.0462   71.5529  226.5892 H   0  0  0  0  0  0  0  0  0  0  0  0
  140.2701   71.4343  225.2566 H   0  0  0  0  0  0  0  0  0  0  0  0
  140.3288   71.4311  224.1741 H   0  0  0  0  0  0  0  0  0  0  0  0
  138.2160   75.9541  223.2636 H   0  0  0  0  0  0  0  0  0  0  0  0
  138.8777   78.3427  222.9698 H   0  0  0  0  0  0  0  0  0  0  0  0
  141.5346   79.3502  223.7824 H   0  0  0  0  0  0  0  0  0  0  0  0
  142.1774   81.7866  223.6848 H   0  0  0  0  0  0  0  0  0  0  0  0
  141.9602   82.9522  221.4743 H   0  0  0  0  0  0  0  0  0  0  0  0
  140.5264   79.4318  219.5881 H   0  0  0  0  0  0  0  0  0  0  0  0
  142.3531   77.0906  220.7290 H   0  0  0  0  0  0  0  0  0  0  0  0
  1  2  2  0
  2  3  1  0
  3  4  1  0
  4  5  1  0
  5  6  2  0
  6  7  1  0
  7  8  2  0
  8  9  1  0
  9 10  1  0
 10 11  2  0
 10 12  1  0
 12 13  1  0
 13 14  1  0
 14 15  1  0
 15 16  1  0
 16 17  1  0
  9 18  2  0
  4 19  2  0
 19 20  1  0
 20 21  2  0
 21 22  1  0
 22 23  2  0
 23 24  1  0
 24 25  2  0
 25 26  1  0
 26 27  2  0
 27 28  1  0
 28 29  2  0
 23 30  1  0
 30 31  2  0
 31  2  1  0
 18  5  1  0
 31 20  1  0
 17 12  1  0
 29 24  1  0
  3 32  1  0
  3 33  1  0
  6 34  1  0
  7 35  1  0
  8 36  1  0
 13 37  1  0
 13 38  1  0
 14 39  1  0
 14 40  1  0
 16 41  1  0
 16 42  1  0
 17 43  1  0
 17 44  1  0
 18 45  1  0
 21 46  1  0
 22 47  1  0
 25 48  1  0
 26 49  1  0
 27 50  1  0
 29 51  1  0
 30 52  1  0
M  END
>  <smiles>  (32) 
O=C1CC(c2cccc(C(=O)N3CCOCC3)c2)=Nc2ccc(-c3cccnc3)cc21

>  <score_type>  (32) 
oracle

>  <origin>  (32) 
autodockgpu

>  <m_score__min__energy>  (32) 
-9.0999999999999996

>  <m_primary>  (32) 
energy

>  <rmsd>  (32) 
6.829285995950178

>  <m_score__min__rmsd>  (32) 
6.829285995950178

>  <meeko>  (32) 
{"free_energy": -9.08, "intermolecular_energy": -9.97, "internal_energy": -0.73, "cluster_size": 44, "cluster_id": 1, "rank_in_cluster": 12}

>  <energy>  (32) 
-8.91

>  <cluster_rmsd>  (32) 
0.44

>  <cluster>  (32) 
1

$$$$

     RDKit          3D

 52 56  0  0  0  0  0  0  0  0999 V2000
  143.0040   75.1570  219.9510 O   0  0  0  0  0  0  0  0  0  0  0  0
  142.0200   74.8160  220.6650 C   0  0  0  0  0  0  0  0  0  0  0  0
  141.7460   73.3740  220.8180 C   0  0  0  0  0  0  0  0  0  0  0  0
  140.5600   73.1550  221.6870 C   0  0  0  0  0  0  0  0  0  0  0  0
  140.1150   71.7950  221.9770 C   0  0  0  0  0  0  0  0  0  0  0  0
  139.8150   70.9380  220.9390 C   0  0  0  0  0  0  0  0  0  0  0  0
  139.3860   69.6420  221.1200 C   0  0  0  0  0  0  0  0  0  0  0  0
  139.2550   69.1950  222.4250 C   0  0  0  0  0  0  0  0  0  0  0  0
  139.5380   70.0000  223.5090 C   0  0  0  0  0  0  0  0  0  0  0  0
  139.3800   69.4760  224.8450 C   0  0  0  0  0  0  0  0  0  0  0  0
  138.8860   68.3330  224.9790 O   0  0  0  0  0  0  0  0  0  0  0  0
  139.7470   70.1650  226.0300 N   0  0  0  0  0  0  0  0  0  0  0  0
  139.5340   69.5170  227.3200 C   0  0  0  0  0  0  0  0  0  0  0  0
  140.8090   69.6910  228.1470 C   0  0  0  0  0  0  0  0  0  0  0  0
  140.9920   71.0450  228.3480 O   0  0  0  0  0  0  0  0  0  0  0  0
  141.3780   71.6160  227.1400 C   0  0  0  0  0  0  0  0  0  0  0  0
  140.3270   71.4870  226.0570 C   0  0  0  0  0  0  0  0  0  0  0  0
  139.9710   71.3060  223.2540 C   0  0  0  0  0  0  0  0  0  0  0  0
  139.8890   74.1220  222.2170 N   0  0  0  0  0  0  0  0  0  0  0  0
  140.1660   75.4940  222.0590 C   0  0  0  0  0  0  0  0  0  0  0  0
  139.3510   76.4160  222.6940 C   0  0  0  0  0  0  0  0  0  0  0  0
  139.6230   77.7620  222.5400 C   0  0  0  0  0  0  0  0  0  0  0  0
  140.6930   78.1550  221.7630 C   0  0  0  0  0  0  0  0  0  0  0  0
  140.9440   79.5870  221.6280 C   0  0  0  0  0  0  0  0  0  0  0  0
  141.3340   80.2630  222.7870 C   0  0  0  0  0  0  0  0  0  0  0  0
  141.5970   81.6360  222.7570 C   0  0  0  0  0  0  0  0  0  0  0  0
  141.4500   82.2670  221.5260 C   0  0  0  0  0  0  0  0  0  0  0  0
  141.0730   81.5860  220.4270 N   0  0  0  0  0  0  0  0  0  0  0  0
  140.8150   80.2660  220.4360 C   0  0  0  0  0  0  0  0  0  0  0  0
  141.5080   77.2130  221.1270 C   0  0  0  0  0  0  0  0  0  0  0  0
  141.2310   75.8680  221.2840 C   0  0  0  0  0  0  0  0  0  0  0  0
  141.5541   72.9356  219.8275 H   0  0  0  0  0  0  0  0  0  0  0  0
  142.6197   72.8950  221.2839 H   0  0  0  0  0  0  0  0  0  0  0  0
  139.9244   71.3102  219.9097 H   0  0  0  0  0  0  0  0  0  0  0  0
  139.1570   68.9892  220.2647 H   0  0  0  0  0  0  0  0  0  0  0  0
  138.9141   68.1643  222.6025 H   0  0  0  0  0  0  0  0  0  0  0  0
  138.6847   69.9859  227.8386 H   0  0  0  0  0  0  0  0  0  0  0  0
  139.3089   68.4493  227.1811 H   0  0  0  0  0  0  0  0  0  0  0  0
  140.7019   69.1788  229.1146 H   0  0  0  0  0  0  0  0  0  0  0  0
  141.6731   69.2570  227.6226 H   0  0  0  0  0  0  0  0  0  0  0  0
  141.5791   72.6845  227.3067 H   0  0  0  0  0  0  0  0  0  0  0  0
  142.2721   71.0767  226.7941 H   0  0  0  0  0  0  0  0  0  0  0  0
  139.5303   72.2220  226.2442 H   0  0  0  0  0  0  0  0  0  0  0  0
  140.8111   71.6688  225.0861 H   0  0  0  0  0  0  0  0  0  0  0  0
  140.2041   71.9639  224.1042 H   0  0  0  0  0  0  0  0  0  0  0  0
  138.5025   76.0830  223.3098 H   0  0  0  0  0  0  0  0  0  0  0  0
  138.9908   78.5148  223.0335 H   0  0  0  0  0  0  0  0  0  0  0  0
  141.4351   79.7096  223.7323 H   0  0  0  0  0  0  0  0  0  0  0  0
  141.9036   82.1874  223.6581 H   0  0  0  0  0  0  0  0  0  0  0  0
  141.6461   83.3466  221.4485 H   0  0  0  0  0  0  0  0  0  0  0  0
  140.5096   79.7432  219.5176 H   0  0  0  0  0  0  0  0  0  0  0  0
  142.3584   77.5383  220.5098 H   0  0  0  0  0  0  0  0  0  0  0  0
  1  2  2  0
  2  3  1  0
  3  4  1  0
  4  5  1  0
  5  6  2  0
  6  7  1  0
  7  8  2  0
  8  9  1  0
  9 10  1  0
 10 11  2  0
 10 12  1  0
 12 13  1  0
 13 14  1  0
 14 15  1  0
 15 16  1  0
 16 17  1  0
  9 18  2  0
  4 19  2  0
 19 20  1  0
 20 21  2  0
 21 22  1  0
 22 23  2  0
 23 24  1  0
 24 25  2  0
 25 26  1  0
 26 27  2  0
 27 28  1  0
 28 29  2  0
 23 30  1  0
 30 31  2  0
 31  2  1  0
 18  5  1  0
 31 20  1  0
 17 12  1  0
 29 24  1  0
  3 32  1  0
  3 33  1  0
  6 34  1  0
  7 35  1  0
  8 36  1  0
 13 37  1  0
 13 38  1  0
 14 39  1  0
 14 40  1  0
 16 41  1  0
 16 42  1  0
 17 43  1  0
 17 44  1  0
 18 45  1  0
 21 46  1  0
 22 47  1  0
 25 48  1  0
 26 49  1  0
 27 50  1  0
 29 51  1  0
 30 52  1  0
M  END
>  <smiles>  (33) 
O=C1CC(c2cccc(C(=O)N3CCOCC3)c2)=Nc2ccc(-c3cccnc3)cc21

>  <score_type>  (33) 
oracle

>  <origin>  (33) 
autodockgpu

>  <m_score__min__energy>  (33) 
-9.0999999999999996

>  <m_primary>  (33) 
energy

>  <rmsd>  (33) 
6.911850977576473

>  <m_score__min__rmsd>  (33) 
6.911850977576473

>  <meeko>  (33) 
{"free_energy": -8.94, "intermolecular_energy": -9.83, "internal_energy": -0.66, "cluster_size": 44, "cluster_id": 1, "rank_in_cluster": 29}

>  <energy>  (33) 
-8.9

>  <cluster_rmsd>  (33) 
0.47

>  <cluster>  (33) 
1

$$$$

     RDKit          3D

 52 56  0  0  0  0  0  0  0  0999 V2000
  142.9150   74.4730  220.5200 O   0  0  0  0  0  0  0  0  0  0  0  0
  141.8100   74.2550  221.0910 C   0  0  0  0  0  0  0  0  0  0  0  0
  141.3890   72.8510  221.2670 C   0  0  0  0  0  0  0  0  0  0  0  0
  140.0740   72.7800  221.9560 C   0  0  0  0  0  0  0  0  0  0  0  0
  139.4720   71.4800  222.2380 C   0  0  0  0  0  0  0  0  0  0  0  0
  138.6270   70.9030  221.3130 C   0  0  0  0  0  0  0  0  0  0  0  0
  138.0150   69.6830  221.4970 C   0  0  0  0  0  0  0  0  0  0  0  0
  138.2760   69.0170  222.6830 C   0  0  0  0  0  0  0  0  0  0  0  0
  139.1110   69.5370  223.6510 C   0  0  0  0  0  0  0  0  0  0  0  0
  139.3420   68.7940  224.8670 C   0  0  0  0  0  0  0  0  0  0  0  0
  139.2000   67.5500  224.8370 O   0  0  0  0  0  0  0  0  0  0  0  0
  139.7210   69.3730  226.1050 N   0  0  0  0  0  0  0  0  0  0  0  0
  139.9250   68.5040  227.2600 C   0  0  0  0  0  0  0  0  0  0  0  0
  141.2360   68.9160  227.9300 C   0  0  0  0  0  0  0  0  0  0  0  0
  141.0880   70.2170  228.3670 O   0  0  0  0  0  0  0  0  0  0  0  0
  141.0840   71.0520  227.2550 C   0  0  0  0  0  0  0  0  0  0  0  0
  139.9250   70.7870  226.3150 C   0  0  0  0  0  0  0  0  0  0  0  0
  139.7010   70.7800  223.3990 C   0  0  0  0  0  0  0  0  0  0  0  0
  139.4200   73.8270  222.3320 N   0  0  0  0  0  0  0  0  0  0  0  0
  139.8380   75.1610  222.1540 C   0  0  0  0  0  0  0  0  0  0  0  0
  139.0230   76.1820  222.6130 C   0  0  0  0  0  0  0  0  0  0  0  0
  139.4330   77.4900  222.4400 C   0  0  0  0  0  0  0  0  0  0  0  0
  140.6360   77.7490  221.8170 C   0  0  0  0  0  0  0  0  0  0  0  0
  141.0300   79.1450  221.6550 C   0  0  0  0  0  0  0  0  0  0  0  0
  141.6620   79.7450  222.7470 C   0  0  0  0  0  0  0  0  0  0  0  0
  142.0770   81.0790  222.6860 C   0  0  0  0  0  0  0  0  0  0  0  0
  141.8240   81.7520  221.4950 C   0  0  0  0  0  0  0  0  0  0  0  0
  141.2120   81.1450  220.4610 N   0  0  0  0  0  0  0  0  0  0  0  0
  140.8060   79.8630  220.5000 C   0  0  0  0  0  0  0  0  0  0  0  0
  141.4500   76.7080  221.3570 C   0  0  0  0  0  0  0  0  0  0  0  0
  141.0340   75.4020  221.5330 C   0  0  0  0  0  0  0  0  0  0  0  0
  141.3060   72.3724  220.2801 H   0  0  0  0  0  0  0  0  0  0  0  0
  142.1389   72.3309  221.8811 H   0  0  0  0  0  0  0  0  0  0  0  0
  138.4312   71.4470  220.3772 H   0  0  0  0  0  0  0  0  0  0  0  0
  137.3473   69.2557  220.7344 H   0  0  0  0  0  0  0  0  0  0  0  0
  137.8016   68.0403  222.8594 H   0  0  0  0  0  0  0  0  0  0  0  0
  139.0907   68.6201  227.9675 H   0  0  0  0  0  0  0  0  0  0  0  0
  139.9691   67.4510  226.9451 H   0  0  0  0  0  0  0  0  0  0  0  0
  141.4455   68.2547  228.7837 H   0  0  0  0  0  0  0  0  0  0  0  0
  142.0740   68.8383  227.2217 H   0  0  0  0  0  0  0  0  0  0  0  0
  141.0228   72.0945  227.6006 H   0  0  0  0  0  0  0  0  0  0  0  0
  142.0107   70.8565  226.6955 H   0  0  0  0  0  0  0  0  0  0  0  0
  139.0100   71.2191  226.7464 H   0  0  0  0  0  0  0  0  0  0  0  0
  140.1584   71.2480  225.3439 H   0  0  0  0  0  0  0  0  0  0  0  0
  140.3716   71.2125  224.1561 H   0  0  0  0  0  0  0  0  0  0  0  0
  138.0663   75.9558  223.1065 H   0  0  0  0  0  0  0  0  0  0  0  0
  138.8043   78.3192  222.7967 H   0  0  0  0  0  0  0  0  0  0  0  0
  141.8349   79.1623  223.6638 H   0  0  0  0  0  0  0  0  0  0  0  0
  142.5766   81.5699  223.5342 H   0  0  0  0  0  0  0  0  0  0  0  0
  142.1309   82.8037  221.3960 H   0  0  0  0  0  0  0  0  0  0  0  0
  140.3091   79.4007  219.6343 H   0  0  0  0  0  0  0  0  0  0  0  0
  142.4078   76.9262  220.8621 H   0  0  0  0  0  0  0  0  0  0  0  0
  1  2  2  0
  2  3  1  0
  3  4  1  0
  4  5  1  0
  5  6  2  0
  6  7  1  0
  7  8  2  0
  8  9  1  0
  9 10  1  0
 10 11  2  0
 10 12  1  0
 12 13  1  0
 13 14  1  0
 14 15  1  0
 15 16  1  0
 16 17  1  0
  9 18  2  0
  4 19  2  0
 19 20  1  0
 20 21  2  0
 21 22  1  0
 22 23  2  0
 23 24  1  0
 24 25  2  0
 25 26  1  0
 26 27  2  0
 27 28  1  0
 28 29  2  0
 23 30  1  0
 30 31  2  0
 31  2  1  0
 18  5  1  0
 31 20  1  0
 17 12  1  0
 29 24  1  0
  3 32  1  0
  3 33  1  0
  6 34  1  0
  7 35  1  0
  8 36  1  0
 13 37  1  0
 13 38  1  0
 14 39  1  0
 14 40  1  0
 16 41  1  0
 16 42  1  0
 17 43  1  0
 17 44  1  0
 18 45  1  0
 21 46  1  0
 22 47  1  0
 25 48  1  0
 26 49  1  0
 27 50  1  0
 29 51  1  0
 30 52  1  0
M  END
>  <smiles>  (34) 
O=C1CC(c2cccc(C(=O)N3CCOCC3)c2)=Nc2ccc(-c3cccnc3)cc21

>  <score_type>  (34) 
oracle

>  <origin>  (34) 
autodockgpu

>  <m_score__min__energy>  (34) 
-9.0999999999999996

>  <m_primary>  (34) 
energy

>  <rmsd>  (34) 
6.795779025152843

>  <m_score__min__rmsd>  (34) 
6.795779025152843

>  <meeko>  (34) 
{"free_energy": -8.84, "intermolecular_energy": -9.73, "internal_energy": -0.77, "cluster_size": 44, "cluster_id": 1, "rank_in_cluster": 36}

>  <energy>  (34) 
-8.88

>  <cluster_rmsd>  (34) 
0.49

>  <cluster>  (34) 
1

$$$$

     RDKit          3D

 52 56  0  0  0  0  0  0  0  0999 V2000
  142.9280   74.7950  220.1970 O   0  0  0  0  0  0  0  0  0  0  0  0
  141.8900   74.4960  220.8520 C   0  0  0  0  0  0  0  0  0  0  0  0
  141.5560   73.0650  220.9980 C   0  0  0  0  0  0  0  0  0  0  0  0
  140.3130   72.8960  221.7950 C   0  0  0  0  0  0  0  0  0  0  0  0
  139.8030   71.5550  222.0660 C   0  0  0  0  0  0  0  0  0  0  0  0
  139.2200   70.8270  221.0510 C   0  0  0  0  0  0  0  0  0  0  0  0
  138.7110   69.5580  221.2180 C   0  0  0  0  0  0  0  0  0  0  0  0
  138.7990   69.0030  222.4840 C   0  0  0  0  0  0  0  0  0  0  0  0
  139.3700   69.6760  223.5440 C   0  0  0  0  0  0  0  0  0  0  0  0
  139.4310   69.0430  224.8410 C   0  0  0  0  0  0  0  0  0  0  0  0
  139.2010   67.8140  224.9110 O   0  0  0  0  0  0  0  0  0  0  0  0
  139.7350   69.7160  226.0520 N   0  0  0  0  0  0  0  0  0  0  0  0
  139.7650   68.9520  227.2960 C   0  0  0  0  0  0  0  0  0  0  0  0
  141.0350   69.3440  228.0540 C   0  0  0  0  0  0  0  0  0  0  0  0
  140.9430   70.6880  228.3530 O   0  0  0  0  0  0  0  0  0  0  0  0
  141.1040   71.4090  227.1740 C   0  0  0  0  0  0  0  0  0  0  0  0
  140.0220   71.1270  226.1510 C   0  0  0  0  0  0  0  0  0  0  0  0
  139.8690   70.9610  223.3050 C   0  0  0  0  0  0  0  0  0  0  0  0
  139.6450   73.8900  222.2760 N   0  0  0  0  0  0  0  0  0  0  0  0
  139.9800   75.2500  222.1250 C   0  0  0  0  0  0  0  0  0  0  0  0
  139.1610   76.2060  222.7020 C   0  0  0  0  0  0  0  0  0  0  0  0
  139.4900   77.5410  222.5550 C   0  0  0  0  0  0  0  0  0  0  0  0
  140.6180   77.8890  221.8420 C   0  0  0  0  0  0  0  0  0  0  0  0
  140.9280   79.3100  221.7130 C   0  0  0  0  0  0  0  0  0  0  0  0
  141.5160   79.9230  222.8210 C   0  0  0  0  0  0  0  0  0  0  0  0
  141.8490   81.2800  222.7920 C   0  0  0  0  0  0  0  0  0  0  0  0
  141.5630   81.9620  221.6140 C   0  0  0  0  0  0  0  0  0  0  0  0
  140.9950   81.3420  220.5630 N   0  0  0  0  0  0  0  0  0  0  0  0
  140.6670   80.0370  220.5720 C   0  0  0  0  0  0  0  0  0  0  0  0
  141.4370   76.9130  221.2640 C   0  0  0  0  0  0  0  0  0  0  0  0
  141.1030   75.5800  221.4140 C   0  0  0  0  0  0  0  0  0  0  0  0
  141.4086   72.6247  220.0008 H   0  0  0  0  0  0  0  0  0  0  0  0
  142.3825   72.5596  221.5190 H   0  0  0  0  0  0  0  0  0  0  0  0
  139.1578   71.2847  220.0527 H   0  0  0  0  0  0  0  0  0  0  0  0
  138.2541   69.0088  220.3816 H   0  0  0  0  0  0  0  0  0  0  0  0
  138.4000   67.9914  222.6497 H   0  0  0  0  0  0  0  0  0  0  0  0
  138.8786   69.1894  227.9026 H   0  0  0  0  0  0  0  0  0  0  0  0
  139.7610   67.8725  227.0846 H   0  0  0  0  0  0  0  0  0  0  0  0
  141.1146   68.7578  228.9814 H   0  0  0  0  0  0  0  0  0  0  0  0
  141.9275   69.1439  227.4430 H   0  0  0  0  0  0  0  0  0  0  0  0
  141.0866   72.4821  227.4150 H   0  0  0  0  0  0  0  0  0  0  0  0
  142.0624   71.1015  226.7303 H   0  0  0  0  0  0  0  0  0  0  0  0
  139.1048   71.6573  226.4469 H   0  0  0  0  0  0  0  0  0  0  0  0
  140.3791   71.4737  225.1701 H   0  0  0  0  0  0  0  0  0  0  0  0
  140.3298   71.5151  224.1360 H   0  0  0  0  0  0  0  0  0  0  0  0
  138.2651   75.9089  223.2669 H   0  0  0  0  0  0  0  0  0  0  0  0
  138.8563   78.3201  223.0037 H   0  0  0  0  0  0  0  0  0  0  0  0
  141.7193   79.3318  223.7261 H   0  0  0  0  0  0  0  0  0  0  0  0
  142.3123   81.7817  223.6544 H   0  0  0  0  0  0  0  0  0  0  0  0
  141.8065   83.0321  221.5396 H   0  0  0  0  0  0  0  0  0  0  0  0
  140.2037   79.5641  219.6935 H   0  0  0  0  0  0  0  0  0  0  0  0
  142.3346   77.2025  220.6979 H   0  0  0  0  0  0  0  0  0  0  0  0
  1  2  2  0
  2  3  1  0
  3  4  1  0
  4  5  1  0
  5  6  2  0
  6  7  1  0
  7  8  2  0
  8  9  1  0
  9 10  1  0
 10 11  2  0
 10 12  1  0
 12 13  1  0
 13 14  1  0
 14 15  1  0
 15 16  1  0
 16 17  1  0
  9 18  2  0
  4 19  2  0
 19 20  1  0
 20 21  2  0
 21 22  1  0
 22 23  2  0
 23 24  1  0
 24 25  2  0
 25 26  1  0
 26 27  2  0
 27 28  1  0
 28 29  2  0
 23 30  1  0
 30 31  2  0
 31  2  1  0
 18  5  1  0
 31 20  1  0
 17 12  1  0
 29 24  1  0
  3 32  1  0
  3 33  1  0
  6 34  1  0
  7 35  1  0
  8 36  1  0
 13 37  1  0
 13 38  1  0
 14 39  1  0
 14 40  1  0
 16 41  1  0
 16 42  1  0
 17 43  1  0
 17 44  1  0
 18 45  1  0
 21 46  1  0
 22 47  1  0
 25 48  1  0
 26 49  1  0
 27 50  1  0
 29 51  1  0
 30 52  1  0
M  END
>  <smiles>  (35) 
O=C1CC(c2cccc(C(=O)N3CCOCC3)c2)=Nc2ccc(-c3cccnc3)cc21

>  <score_type>  (35) 
oracle

>  <origin>  (35) 
autodockgpu

>  <m_score__min__energy>  (35) 
-9.0999999999999996

>  <m_primary>  (35) 
energy

>  <rmsd>  (35) 
6.843279856782544

>  <m_score__min__rmsd>  (35) 
6.843279856782544

>  <meeko>  (35) 
{"free_energy": -9.08, "intermolecular_energy": -9.98, "internal_energy": -0.71, "cluster_size": 44, "cluster_id": 1, "rank_in_cluster": 8}

>  <energy>  (35) 
-8.84

>  <cluster_rmsd>  (35) 
0.67

>  <cluster>  (35) 
1

$$$$

     RDKit          3D

 52 56  0  0  0  0  0  0  0  0999 V2000
  142.9510   74.7720  220.1910 O   0  0  0  0  0  0  0  0  0  0  0  0
  141.9130   74.4690  220.8450 C   0  0  0  0  0  0  0  0  0  0  0  0
  141.5820   73.0380  220.9890 C   0  0  0  0  0  0  0  0  0  0  0  0
  140.3380   72.8660  221.7850 C   0  0  0  0  0  0  0  0  0  0  0  0
  139.8310   71.5230  222.0550 C   0  0  0  0  0  0  0  0  0  0  0  0
  139.2780   70.7830  221.0310 C   0  0  0  0  0  0  0  0  0  0  0  0
  138.7730   69.5120  221.1960 C   0  0  0  0  0  0  0  0  0  0  0  0
  138.8340   68.9670  222.4680 C   0  0  0  0  0  0  0  0  0  0  0  0
  139.3740   69.6530  223.5370 C   0  0  0  0  0  0  0  0  0  0  0  0
  139.4070   69.0310  224.8390 C   0  0  0  0  0  0  0  0  0  0  0  0
  139.1640   67.8050  224.9160 O   0  0  0  0  0  0  0  0  0  0  0  0
  139.6980   69.7110  226.0500 N   0  0  0  0  0  0  0  0  0  0  0  0
  139.7000   68.9590  227.3000 C   0  0  0  0  0  0  0  0  0  0  0  0
  140.9600   69.3440  228.0760 C   0  0  0  0  0  0  0  0  0  0  0  0
  140.8770   70.6920  228.3610 O   0  0  0  0  0  0  0  0  0  0  0  0
  141.0650   71.4000  227.1790 C   0  0  0  0  0  0  0  0  0  0  0  0
  139.9980   71.1200  226.1410 C   0  0  0  0  0  0  0  0  0  0  0  0
  139.8700   70.9400  223.2990 C   0  0  0  0  0  0  0  0  0  0  0  0
  139.6680   73.8580  222.2660 N   0  0  0  0  0  0  0  0  0  0  0  0
  140.0000   75.2190  222.1170 C   0  0  0  0  0  0  0  0  0  0  0  0
  139.1780   76.1720  222.6930 C   0  0  0  0  0  0  0  0  0  0  0  0
  139.5040   77.5080  222.5480 C   0  0  0  0  0  0  0  0  0  0  0  0
  140.6330   77.8590  221.8360 C   0  0  0  0  0  0  0  0  0  0  0  0
  140.9400   79.2800  221.7090 C   0  0  0  0  0  0  0  0  0  0  0  0
  141.4920   79.9020  222.8310 C   0  0  0  0  0  0  0  0  0  0  0  0
  141.8200   81.2610  222.8040 C   0  0  0  0  0  0  0  0  0  0  0  0
  141.5660   81.9360  221.6140 C   0  0  0  0  0  0  0  0  0  0  0  0
  141.0310   81.3070  220.5500 N   0  0  0  0  0  0  0  0  0  0  0  0
  140.7090   80.0000  220.5570 C   0  0  0  0  0  0  0  0  0  0  0  0
  141.4540   76.8850  221.2580 C   0  0  0  0  0  0  0  0  0  0  0  0
  141.1230   75.5510  221.4070 C   0  0  0  0  0  0  0  0  0  0  0  0
  141.4364   72.5985  219.9912 H   0  0  0  0  0  0  0  0  0  0  0  0
  142.4090   72.5335  221.5101 H   0  0  0  0  0  0  0  0  0  0  0  0
  139.2380   71.2322  220.0277 H   0  0  0  0  0  0  0  0  0  0  0  0
  138.3396   68.9535  220.3532 H   0  0  0  0  0  0  0  0  0  0  0  0
  138.4388   67.9536  222.6316 H   0  0  0  0  0  0  0  0  0  0  0  0
  138.8061   69.2109  227.8895 H   0  0  0  0  0  0  0  0  0  0  0  0
  139.6891   67.8778  227.0976 H   0  0  0  0  0  0  0  0  0  0  0  0
  141.0171   68.7657  229.0099 H   0  0  0  0  0  0  0  0  0  0  0  0
  141.8609   69.1285  227.4828 H   0  0  0  0  0  0  0  0  0  0  0  0
  141.0547   72.4754  227.4100 H   0  0  0  0  0  0  0  0  0  0  0  0
  142.0274   71.0784  226.7543 H   0  0  0  0  0  0  0  0  0  0  0  0
  139.0816   71.6625  226.4166 H   0  0  0  0  0  0  0  0  0  0  0  0
  140.3750   71.4540  225.1631 H   0  0  0  0  0  0  0  0  0  0  0  0
  140.3061   71.5043  224.1365 H   0  0  0  0  0  0  0  0  0  0  0  0
  138.2817   75.8721  223.2558 H   0  0  0  0  0  0  0  0  0  0  0  0
  138.8681   78.2853  222.9969 H   0  0  0  0  0  0  0  0  0  0  0  0
  141.6706   79.3169  223.7452 H   0  0  0  0  0  0  0  0  0  0  0  0
  142.2556   81.7693  223.6769 H   0  0  0  0  0  0  0  0  0  0  0  0
  141.8074   83.0067  221.5407 H   0  0  0  0  0  0  0  0  0  0  0  0
  140.2737   79.5202  219.6681 H   0  0  0  0  0  0  0  0  0  0  0  0
  142.3512   77.1767  220.6923 H   0  0  0  0  0  0  0  0  0  0  0  0
  1  2  2  0
  2  3  1  0
  3  4  1  0
  4  5  1  0
  5  6  2  0
  6  7  1  0
  7  8  2  0
  8  9  1  0
  9 10  1  0
 10 11  2  0
 10 12  1  0
 12 13  1  0
 13 14  1  0
 14 15  1  0
 15 16  1  0
 16 17  1  0
  9 18  2  0
  4 19  2  0
 19 20  1  0
 20 21  2  0
 21 22  1  0
 22 23  2  0
 23 24  1  0
 24 25  2  0
 25 26  1  0
 26 27  2  0
 27 28  1  0
 28 29  2  0
 23 30  1  0
 30 31  2  0
 31  2  1  0
 18  5  1  0
 31 20  1  0
 17 12  1  0
 29 24  1  0
  3 32  1  0
  3 33  1  0
  6 34  1  0
  7 35  1  0
  8 36  1  0
 13 37  1  0
 13 38  1  0
 14 39  1  0
 14 40  1  0
 16 41  1  0
 16 42  1  0
 17 43  1  0
 17 44  1  0
 18 45  1  0
 21 46  1  0
 22 47  1  0
 25 48  1  0
 26 49  1  0
 27 50  1  0
 29 51  1  0
 30 52  1  0
M  END
>  <smiles>  (36) 
O=C1CC(c2cccc(C(=O)N3CCOCC3)c2)=Nc2ccc(-c3cccnc3)cc21

>  <score_type>  (36) 
oracle

>  <origin>  (36) 
autodockgpu

>  <m_score__min__energy>  (36) 
-9.0999999999999996

>  <m_primary>  (36) 
energy

>  <rmsd>  (36) 
6.83446582473014

>  <m_score__min__rmsd>  (36) 
6.83446582473014

>  <meeko>  (36) 
{"free_energy": -9.07, "intermolecular_energy": -9.96, "internal_energy": -0.69, "cluster_size": 44, "cluster_id": 1, "rank_in_cluster": 18}

>  <energy>  (36) 
-8.84

>  <cluster_rmsd>  (36) 
0.26

>  <cluster>  (36) 
1

$$$$

     RDKit          3D

 52 56  0  0  0  0  0  0  0  0999 V2000
  142.9040   74.6430  220.2360 O   0  0  0  0  0  0  0  0  0  0  0  0
  141.8510   74.3790  220.8820 C   0  0  0  0  0  0  0  0  0  0  0  0
  141.4850   72.9600  221.0540 C   0  0  0  0  0  0  0  0  0  0  0  0
  140.2270   72.8340  221.8360 C   0  0  0  0  0  0  0  0  0  0  0  0
  139.6850   71.5110  222.1290 C   0  0  0  0  0  0  0  0  0  0  0  0
  139.0190   70.8120  221.1450 C   0  0  0  0  0  0  0  0  0  0  0  0
  138.4740   69.5610  221.3340 C   0  0  0  0  0  0  0  0  0  0  0  0
  138.6140   68.9930  222.5900 C   0  0  0  0  0  0  0  0  0  0  0  0
  139.2690   69.6370  223.6190 C   0  0  0  0  0  0  0  0  0  0  0  0
  139.3810   68.9930  224.9060 C   0  0  0  0  0  0  0  0  0  0  0  0
  139.1860   67.7570  224.9690 O   0  0  0  0  0  0  0  0  0  0  0  0
  139.6980   69.6610  226.1170 N   0  0  0  0  0  0  0  0  0  0  0  0
  139.7820   68.8860  227.3510 C   0  0  0  0  0  0  0  0  0  0  0  0
  141.0600   69.3030  228.0800 C   0  0  0  0  0  0  0  0  0  0  0  0
  140.9400   70.6410  228.3960 O   0  0  0  0  0  0  0  0  0  0  0  0
  141.0510   71.3780  227.2210 C   0  0  0  0  0  0  0  0  0  0  0  0
  139.9500   71.0780  226.2240 C   0  0  0  0  0  0  0  0  0  0  0  0
  139.8000   70.9050  223.3580 C   0  0  0  0  0  0  0  0  0  0  0  0
  139.5740   73.8530  222.2850 N   0  0  0  0  0  0  0  0  0  0  0  0
  139.9400   75.2020  222.1100 C   0  0  0  0  0  0  0  0  0  0  0  0
  139.1330   76.1870  222.6540 C   0  0  0  0  0  0  0  0  0  0  0  0
  139.4920   77.5110  222.4830 C   0  0  0  0  0  0  0  0  0  0  0  0
  140.6370   77.8190  221.7790 C   0  0  0  0  0  0  0  0  0  0  0  0
  140.9790   79.2300  221.6240 C   0  0  0  0  0  0  0  0  0  0  0  0
  141.4730   79.8810  222.7570 C   0  0  0  0  0  0  0  0  0  0  0  0
  141.8280   81.2320  222.7050 C   0  0  0  0  0  0  0  0  0  0  0  0
  141.6610   81.8700  221.4800 C   0  0  0  0  0  0  0  0  0  0  0  0
  141.1810   81.2140  220.4070 N   0  0  0  0  0  0  0  0  0  0  0  0
  140.8340   79.9140  220.4360 C   0  0  0  0  0  0  0  0  0  0  0  0
  141.4430   76.8140  221.2350 C   0  0  0  0  0  0  0  0  0  0  0  0
  141.0790   75.4920  221.4080 C   0  0  0  0  0  0  0  0  0  0  0  0
  141.3428   72.5011  220.0645 H   0  0  0  0  0  0  0  0  0  0  0  0
  142.2930   72.4494  221.5984 H   0  0  0  0  0  0  0  0  0  0  0  0
  138.9171   71.2789  220.1542 H   0  0  0  0  0  0  0  0  0  0  0  0
  137.9499   69.0353  220.5222 H   0  0  0  0  0  0  0  0  0  0  0  0
  138.1886   67.9952  222.7726 H   0  0  0  0  0  0  0  0  0  0  0  0
  138.9061   69.0934  227.9833 H   0  0  0  0  0  0  0  0  0  0  0  0
  139.8017   67.8092  227.1273 H   0  0  0  0  0  0  0  0  0  0  0  0
  141.1791   68.7095  228.9985 H   0  0  0  0  0  0  0  0  0  0  0  0
  141.9415   69.1328  227.4444 H   0  0  0  0  0  0  0  0  0  0  0  0
  141.0121   72.4478  227.4739 H   0  0  0  0  0  0  0  0  0  0  0  0
  142.0050   71.1004  226.7490 H   0  0  0  0  0  0  0  0  0  0  0  0
  139.0274   71.5805  226.5499 H   0  0  0  0  0  0  0  0  0  0  0  0
  140.2713   71.4445  225.2379 H   0  0  0  0  0  0  0  0  0  0  0  0
  140.3279   71.4356  224.1641 H   0  0  0  0  0  0  0  0  0  0  0  0
  138.2231   75.9209  223.2119 H   0  0  0  0  0  0  0  0  0  0  0  0
  138.8688   78.3130  222.9054 H   0  0  0  0  0  0  0  0  0  0  0  0
  141.5838   79.3248  223.6996 H   0  0  0  0  0  0  0  0  0  0  0  0
  142.2187   81.7625  223.5859 H   0  0  0  0  0  0  0  0  0  0  0  0
  141.9269   82.9333  221.3862 H   0  0  0  0  0  0  0  0  0  0  0  0
  140.4459   79.4118  219.5376 H   0  0  0  0  0  0  0  0  0  0  0  0
  142.3549   77.0723  220.6766 H   0  0  0  0  0  0  0  0  0  0  0  0
  1  2  2  0
  2  3  1  0
  3  4  1  0
  4  5  1  0
  5  6  2  0
  6  7  1  0
  7  8  2  0
  8  9  1  0
  9 10  1  0
 10 11  2  0
 10 12  1  0
 12 13  1  0
 13 14  1  0
 14 15  1  0
 15 16  1  0
 16 17  1  0
  9 18  2  0
  4 19  2  0
 19 20  1  0
 20 21  2  0
 21 22  1  0
 22 23  2  0
 23 24  1  0
 24 25  2  0
 25 26  1  0
 26 27  2  0
 27 28  1  0
 28 29  2  0
 23 30  1  0
 30 31  2  0
 31  2  1  0
 18  5  1  0
 31 20  1  0
 17 12  1  0
 29 24  1  0
  3 32  1  0
  3 33  1  0
  6 34  1  0
  7 35  1  0
  8 36  1  0
 13 37  1  0
 13 38  1  0
 14 39  1  0
 14 40  1  0
 16 41  1  0
 16 42  1  0
 17 43  1  0
 17 44  1  0
 18 45  1  0
 21 46  1  0
 22 47  1  0
 25 48  1  0
 26 49  1  0
 27 50  1  0
 29 51  1  0
 30 52  1  0
M  END
>  <smiles>  (37) 
O=C1CC(c2cccc(C(=O)N3CCOCC3)c2)=Nc2ccc(-c3cccnc3)cc21

>  <score_type>  (37) 
oracle

>  <origin>  (37) 
autodockgpu

>  <m_score__min__energy>  (37) 
-9.0999999999999996

>  <m_primary>  (37) 
energy

>  <rmsd>  (37) 
6.831063296854405

>  <m_score__min__rmsd>  (37) 
6.831063296854405

>  <meeko>  (37) 
{"free_energy": -9.08, "intermolecular_energy": -9.98, "internal_energy": -0.72, "cluster_size": 44, "cluster_id": 1, "rank_in_cluster": 6}

>  <energy>  (37) 
-8.64

>  <cluster_rmsd>  (37) 
0.48

>  <cluster>  (37) 
1

$$$$

     RDKit          3D

 52 56  0  0  0  0  0  0  0  0999 V2000
  142.9030   74.6270  220.2180 O   0  0  0  0  0  0  0  0  0  0  0  0
  141.8560   74.3660  220.8750 C   0  0  0  0  0  0  0  0  0  0  0  0
  141.4870   72.9480  221.0500 C   0  0  0  0  0  0  0  0  0  0  0  0
  140.2370   72.8270  221.8460 C   0  0  0  0  0  0  0  0  0  0  0  0
  139.6940   71.5040  222.1440 C   0  0  0  0  0  0  0  0  0  0  0  0
  139.0360   70.7980  221.1600 C   0  0  0  0  0  0  0  0  0  0  0  0
  138.4900   69.5480  221.3540 C   0  0  0  0  0  0  0  0  0  0  0  0
  138.6220   68.9890  222.6150 C   0  0  0  0  0  0  0  0  0  0  0  0
  139.2680   69.6410  223.6450 C   0  0  0  0  0  0  0  0  0  0  0  0
  139.3700   69.0060  224.9370 C   0  0  0  0  0  0  0  0  0  0  0  0
  139.1540   67.7750  225.0110 O   0  0  0  0  0  0  0  0  0  0  0  0
  139.7020   69.6790  226.1420 N   0  0  0  0  0  0  0  0  0  0  0  0
  139.7730   68.9140  227.3820 C   0  0  0  0  0  0  0  0  0  0  0  0
  141.0600   69.3150  228.1060 C   0  0  0  0  0  0  0  0  0  0  0  0
  140.9640   70.6580  228.4100 O   0  0  0  0  0  0  0  0  0  0  0  0
  141.0860   71.3820  227.2290 C   0  0  0  0  0  0  0  0  0  0  0  0
  139.9790   71.0930  226.2360 C   0  0  0  0  0  0  0  0  0  0  0  0
  139.8000   70.9080  223.3790 C   0  0  0  0  0  0  0  0  0  0  0  0
  139.5920   73.8470  222.3020 N   0  0  0  0  0  0  0  0  0  0  0  0
  139.9600   75.1950  222.1230 C   0  0  0  0  0  0  0  0  0  0  0  0
  139.1620   76.1820  222.6760 C   0  0  0  0  0  0  0  0  0  0  0  0
  139.5230   77.5050  222.5010 C   0  0  0  0  0  0  0  0  0  0  0  0
  140.6620   77.8100  221.7860 C   0  0  0  0  0  0  0  0  0  0  0  0
  141.0060   79.2200  221.6270 C   0  0  0  0  0  0  0  0  0  0  0  0
  141.4460   79.8880  222.7720 C   0  0  0  0  0  0  0  0  0  0  0  0
  141.7980   81.2390  222.7190 C   0  0  0  0  0  0  0  0  0  0  0  0
  141.6870   81.8590  221.4790 C   0  0  0  0  0  0  0  0  0  0  0  0
  141.2600   81.1870  220.3930 N   0  0  0  0  0  0  0  0  0  0  0  0
  140.9150   79.8870  220.4250 C   0  0  0  0  0  0  0  0  0  0  0  0
  141.4590   76.8020  221.2330 C   0  0  0  0  0  0  0  0  0  0  0  0
  141.0920   75.4820  221.4100 C   0  0  0  0  0  0  0  0  0  0  0  0
  141.3321   72.4901  220.0619 H   0  0  0  0  0  0  0  0  0  0  0  0
  142.2991   72.4336  221.5846 H   0  0  0  0  0  0  0  0  0  0  0  0
  138.9416   71.2578  220.1652 H   0  0  0  0  0  0  0  0  0  0  0  0
  137.9714   69.0165  220.5425 H   0  0  0  0  0  0  0  0  0  0  0  0
  138.1973   67.9915  222.8011 H   0  0  0  0  0  0  0  0  0  0  0  0
  138.9017   69.1428  228.0133 H   0  0  0  0  0  0  0  0  0  0  0  0
  139.7726   67.8350  227.1683 H   0  0  0  0  0  0  0  0  0  0  0  0
  141.1698   68.7278  229.0297 H   0  0  0  0  0  0  0  0  0  0  0  0
  141.9375   69.1234  227.4710 H   0  0  0  0  0  0  0  0  0  0  0  0
  141.0662   72.4545  227.4726 H   0  0  0  0  0  0  0  0  0  0  0  0
  142.0342   71.0832  226.7583 H   0  0  0  0  0  0  0  0  0  0  0  0
  139.0657   71.6146  226.5584 H   0  0  0  0  0  0  0  0  0  0  0  0
  140.3054   71.4451  225.2463 H   0  0  0  0  0  0  0  0  0  0  0  0
  140.3207   71.4454  224.1852 H   0  0  0  0  0  0  0  0  0  0  0  0
  138.2576   75.9184  223.2440 H   0  0  0  0  0  0  0  0  0  0  0  0
  138.9060   78.3087  222.9291 H   0  0  0  0  0  0  0  0  0  0  0  0
  141.5161   79.3445  223.7258 H   0  0  0  0  0  0  0  0  0  0  0  0
  142.1443   81.7831  223.6101 H   0  0  0  0  0  0  0  0  0  0  0  0
  141.9539   82.9218  221.3833 H   0  0  0  0  0  0  0  0  0  0  0  0
  140.5699   79.3711  219.5168 H   0  0  0  0  0  0  0  0  0  0  0  0
  142.3657   77.0571  220.6649 H   0  0  0  0  0  0  0  0  0  0  0  0
  1  2  2  0
  2  3  1  0
  3  4  1  0
  4  5  1  0
  5  6  2  0
  6  7  1  0
  7  8  2  0
  8  9  1  0
  9 10  1  0
 10 11  2  0
 10 12  1  0
 12 13  1  0
 13 14  1  0
 14 15  1  0
 15 16  1  0
 16 17  1  0
  9 18  2  0
  4 19  2  0
 19 20  1  0
 20 21  2  0
 21 22  1  0
 22 23  2  0
 23 24  1  0
 24 25  2  0
 25 26  1  0
 26 27  2  0
 27 28  1  0
 28 29  2  0
 23 30  1  0
 30 31  2  0
 31  2  1  0
 18  5  1  0
 31 20  1  0
 17 12  1  0
 29 24  1  0
  3 32  1  0
  3 33  1  0
  6 34  1  0
  7 35  1  0
  8 36  1  0
 13 37  1  0
 13 38  1  0
 14 39  1  0
 14 40  1  0
 16 41  1  0
 16 42  1  0
 17 43  1  0
 17 44  1  0
 18 45  1  0
 21 46  1  0
 22 47  1  0
 25 48  1  0
 26 49  1  0
 27 50  1  0
 29 51  1  0
 30 52  1  0
M  END
>  <smiles>  (38) 
O=C1CC(c2cccc(C(=O)N3CCOCC3)c2)=Nc2ccc(-c3cccnc3)cc21

>  <score_type>  (38) 
oracle

>  <origin>  (38) 
autodockgpu

>  <m_score__min__energy>  (38) 
-9.0999999999999996

>  <m_primary>  (38) 
energy

>  <rmsd>  (38) 
6.83211351012574

>  <m_score__min__rmsd>  (38) 
6.83211351012574

>  <meeko>  (38) 
{"free_energy": -9.07, "intermolecular_energy": -9.97, "internal_energy": -0.72, "cluster_size": 44, "cluster_id": 1, "rank_in_cluster": 15}

>  <energy>  (38) 
-8.45

>  <cluster_rmsd>  (38) 
0.62

>  <cluster>  (38) 
1

$$$$

     RDKit          3D

 52 56  0  0  0  0  0  0  0  0999 V2000
  136.3680   76.0160  221.7170 O   0  0  0  0  0  0  0  0  0  0  0  0
  137.4490   75.3870  221.8940 C   0  0  0  0  0  0  0  0  0  0  0  0
  137.3860   73.9140  221.9640 C   0  0  0  0  0  0  0  0  0  0  0  0
  138.7420   73.3410  222.1720 C   0  0  0  0  0  0  0  0  0  0  0  0
  138.9100   71.8940  222.2650 C   0  0  0  0  0  0  0  0  0  0  0  0
  138.9990   71.1400  221.1140 C   0  0  0  0  0  0  0  0  0  0  0  0
  139.1560   69.7720  221.1080 C   0  0  0  0  0  0  0  0  0  0  0  0
  139.2250   69.1380  222.3380 C   0  0  0  0  0  0  0  0  0  0  0  0
  139.1430   69.8310  223.5280 C   0  0  0  0  0  0  0  0  0  0  0  0
  139.2210   69.1130  224.7780 C   0  0  0  0  0  0  0  0  0  0  0  0
  138.9390   67.8930  224.7780 O   0  0  0  0  0  0  0  0  0  0  0  0
  139.5960   69.6910  226.0180 N   0  0  0  0  0  0  0  0  0  0  0  0
  139.6350   68.8480  227.2090 C   0  0  0  0  0  0  0  0  0  0  0  0
  140.9460   69.1340  227.9420 C   0  0  0  0  0  0  0  0  0  0  0  0
  140.9250   70.4590  228.3290 O   0  0  0  0  0  0  0  0  0  0  0  0
  141.0780   71.2470  227.1940 C   0  0  0  0  0  0  0  0  0  0  0  0
  139.9500   71.0800  226.1960 C   0  0  0  0  0  0  0  0  0  0  0  0
  138.9860   71.2200  223.4620 C   0  0  0  0  0  0  0  0  0  0  0  0
  139.8040   74.0670  222.2730 N   0  0  0  0  0  0  0  0  0  0  0  0
  139.8440   75.4740  222.2040 C   0  0  0  0  0  0  0  0  0  0  0  0
  141.0650   76.1130  222.3310 C   0  0  0  0  0  0  0  0  0  0  0  0
  141.1050   77.4930  222.2620 C   0  0  0  0  0  0  0  0  0  0  0  0
  139.9350   78.1980  222.0700 C   0  0  0  0  0  0  0  0  0  0  0  0
  140.0230   79.6540  222.0030 C   0  0  0  0  0  0  0  0  0  0  0  0
  141.2190   80.2270  222.4430 C   0  0  0  0  0  0  0  0  0  0  0  0
  141.3970   81.6130  222.4160 C   0  0  0  0  0  0  0  0  0  0  0  0
  140.3310   82.3650  221.9340 C   0  0  0  0  0  0  0  0  0  0  0  0
  139.1910   81.7820  221.5180 N   0  0  0  0  0  0  0  0  0  0  0  0
  139.0000   80.4500  221.5360 C   0  0  0  0  0  0  0  0  0  0  0  0
  138.7070   77.5390  221.9440 C   0  0  0  0  0  0  0  0  0  0  0  0
  138.6740   76.1600  222.0150 C   0  0  0  0  0  0  0  0  0  0  0  0
  136.7368   73.6194  222.8017 H   0  0  0  0  0  0  0  0  0  0  0  0
  136.9811   73.5311  221.0156 H   0  0  0  0  0  0  0  0  0  0  0  0
  138.9413   71.6603  220.1466 H   0  0  0  0  0  0  0  0  0  0  0  0
  139.2238   69.2067  220.1668 H   0  0  0  0  0  0  0  0  0  0  0  0
  139.3493   68.0454  222.3666 H   0  0  0  0  0  0  0  0  0  0  0  0
  138.7820   69.0838  227.8623 H   0  0  0  0  0  0  0  0  0  0  0  0
  139.5750   67.7857  226.9297 H   0  0  0  0  0  0  0  0  0  0  0  0
  141.0307   68.4857  228.8266 H   0  0  0  0  0  0  0  0  0  0  0  0
  141.8071   68.9355  227.2870 H   0  0  0  0  0  0  0  0  0  0  0  0
  141.1181   72.3019  227.5033 H   0  0  0  0  0  0  0  0  0  0  0  0
  142.0054   70.9274  226.6962 H   0  0  0  0  0  0  0  0  0  0  0  0
  139.0686   71.6289  226.5590 H   0  0  0  0  0  0  0  0  0  0  0  0
  140.2883   71.4748  225.2266 H   0  0  0  0  0  0  0  0  0  0  0  0
  138.9211   71.7924  224.3991 H   0  0  0  0  0  0  0  0  0  0  0  0
  141.9871   75.5331  222.4841 H   0  0  0  0  0  0  0  0  0  0  0  0
  142.0628   78.0251  222.3595 H   0  0  0  0  0  0  0  0  0  0  0  0
  142.0283   79.5810  222.8142 H   0  0  0  0  0  0  0  0  0  0  0  0
  142.3305   82.0839  222.7578 H   0  0  0  0  0  0  0  0  0  0  0  0
  140.4213   83.4605  221.8917 H   0  0  0  0  0  0  0  0  0  0  0  0
  138.0542   80.0094  221.1878 H   0  0  0  0  0  0  0  0  0  0  0  0
  137.7804   78.1115  221.7905 H   0  0  0  0  0  0  0  0  0  0  0  0
  1  2  2  0
  2  3  1  0
  3  4  1  0
  4  5  1  0
  5  6  2  0
  6  7  1  0
  7  8  2  0
  8  9  1  0
  9 10  1  0
 10 11  2  0
 10 12  1  0
 12 13  1  0
 13 14  1  0
 14 15  1  0
 15 16  1  0
 16 17  1  0
  9 18  2  0
  4 19  2  0
 19 20  1  0
 20 21  2  0
 21 22  1  0
 22 23  2  0
 23 24  1  0
 24 25  2  0
 25 26  1  0
 26 27  2  0
 27 28  1  0
 28 29  2  0
 23 30  1  0
 30 31  2  0
 31  2  1  0
 18  5  1  0
 31 20  1  0
 17 12  1  0
 29 24  1  0
  3 32  1  0
  3 33  1  0
  6 34  1  0
  7 35  1  0
  8 36  1  0
 13 37  1  0
 13 38  1  0
 14 39  1  0
 14 40  1  0
 16 41  1  0
 16 42  1  0
 17 43  1  0
 17 44  1  0
 18 45  1  0
 21 46  1  0
 22 47  1  0
 25 48  1  0
 26 49  1  0
 27 50  1  0
 29 51  1  0
 30 52  1  0
M  END
>  <smiles>  (39) 
O=C1CC(c2cccc(C(=O)N3CCOCC3)c2)=Nc2ccc(-c3cccnc3)cc21

>  <score_type>  (39) 
oracle

>  <origin>  (39) 
autodockgpu

>  <m_score__min__energy>  (39) 
-9.0999999999999996

>  <m_primary>  (39) 
energy

>  <rmsd>  (39) 
6.879860835024512

>  <m_score__min__rmsd>  (39) 
6.879860835024512

>  <meeko>  (39) 
{"free_energy": -8.08, "intermolecular_energy": -8.98, "internal_energy": -0.74, "cluster_size": 44, "cluster_id": 1, "rank_in_cluster": 41}

>  <energy>  (39) 
-8.37

>  <cluster_rmsd>  (39) 
0.7

>  <cluster>  (39) 
1

$$$$

     RDKit          3D

 52 56  0  0  0  0  0  0  0  0999 V2000
  143.0090   75.1390  219.9930 O   0  0  0  0  0  0  0  0  0  0  0  0
  142.0150   74.8070  220.6970 C   0  0  0  0  0  0  0  0  0  0  0  0
  141.7300   73.3680  220.8540 C   0  0  0  0  0  0  0  0  0  0  0  0
  140.5330   73.1600  221.7100 C   0  0  0  0  0  0  0  0  0  0  0  0
  140.0760   71.8040  222.0020 C   0  0  0  0  0  0  0  0  0  0  0  0
  139.7150   70.9670  220.9670 C   0  0  0  0  0  0  0  0  0  0  0  0
  139.2710   69.6770  221.1510 C   0  0  0  0  0  0  0  0  0  0  0  0
  139.1900   69.2140  222.4540 C   0  0  0  0  0  0  0  0  0  0  0  0
  139.5360   69.9980  223.5350 C   0  0  0  0  0  0  0  0  0  0  0  0
  139.4280   69.4590  224.8700 C   0  0  0  0  0  0  0  0  0  0  0  0
  138.9860   68.2950  225.0050 O   0  0  0  0  0  0  0  0  0  0  0  0
  139.7900   70.1550  226.0520 N   0  0  0  0  0  0  0  0  0  0  0  0
  139.6320   69.4900  227.3410 C   0  0  0  0  0  0  0  0  0  0  0  0
  140.9150   69.7120  228.1430 C   0  0  0  0  0  0  0  0  0  0  0  0
  141.0450   71.0710  228.3510 O   0  0  0  0  0  0  0  0  0  0  0  0
  141.3810   71.6660  227.1400 C   0  0  0  0  0  0  0  0  0  0  0  0
  140.3130   71.5000  226.0780 C   0  0  0  0  0  0  0  0  0  0  0  0
  139.9800   71.3000  223.2780 C   0  0  0  0  0  0  0  0  0  0  0  0
  139.8610   74.1330  222.2270 N   0  0  0  0  0  0  0  0  0  0  0  0
  140.1480   75.5030  222.0650 C   0  0  0  0  0  0  0  0  0  0  0  0
  139.3310   76.4330  222.6850 C   0  0  0  0  0  0  0  0  0  0  0  0
  139.6130   77.7770  222.5270 C   0  0  0  0  0  0  0  0  0  0  0  0
  140.6940   78.1600  221.7600 C   0  0  0  0  0  0  0  0  0  0  0  0
  140.9550   79.5890  221.6210 C   0  0  0  0  0  0  0  0  0  0  0  0
  141.1840   80.0580  220.3260 C   0  0  0  0  0  0  0  0  0  0  0  0
  141.4420   81.4120  220.0930 C   0  0  0  0  0  0  0  0  0  0  0  0
  141.4550   82.2410  221.2100 C   0  0  0  0  0  0  0  0  0  0  0  0
  141.2310   81.7570  222.4460 N   0  0  0  0  0  0  0  0  0  0  0  0
  140.9810   80.4580  222.6900 C   0  0  0  0  0  0  0  0  0  0  0  0
  141.5110   77.2090  221.1390 C   0  0  0  0  0  0  0  0  0  0  0  0
  141.2240   75.8670  221.3000 C   0  0  0  0  0  0  0  0  0  0  0  0
  141.5468   72.9260  219.8635 H   0  0  0  0  0  0  0  0  0  0  0  0
  142.5953   72.8862  221.3328 H   0  0  0  0  0  0  0  0  0  0  0  0
  139.7857   71.3511  219.9386 H   0  0  0  0  0  0  0  0  0  0  0  0
  138.9921   69.0402  220.2985 H   0  0  0  0  0  0  0  0  0  0  0  0
  138.8382   68.1872  222.6326 H   0  0  0  0  0  0  0  0  0  0  0  0
  138.7747   69.9189  227.8805 H   0  0  0  0  0  0  0  0  0  0  0  0
  139.4498   68.4146  227.1983 H   0  0  0  0  0  0  0  0  0  0  0  0
  140.8496   69.1889  229.1085 H   0  0  0  0  0  0  0  0  0  0  0  0
  141.7856   69.3187  227.5977 H   0  0  0  0  0  0  0  0  0  0  0  0
  141.5405   72.7409  227.3107 H   0  0  0  0  0  0  0  0  0  0  0  0
  142.2896   71.1675  226.7713 H   0  0  0  0  0  0  0  0  0  0  0  0
  139.4897   72.1986  226.2882 H   0  0  0  0  0  0  0  0  0  0  0  0
  140.7679   71.7098  225.0987 H   0  0  0  0  0  0  0  0  0  0  0  0
  140.2618   71.9422  224.1255 H   0  0  0  0  0  0  0  0  0  0  0  0
  138.4732   76.1083  223.2922 H   0  0  0  0  0  0  0  0  0  0  0  0
  138.9798   78.5361  223.0096 H   0  0  0  0  0  0  0  0  0  0  0  0
  141.1612   79.3548  219.4804 H   0  0  0  0  0  0  0  0  0  0  0  0
  141.6250   81.8011  219.0805 H   0  0  0  0  0  0  0  0  0  0  0  0
  141.6526   83.3153  221.0805 H   0  0  0  0  0  0  0  0  0  0  0  0
  140.8023   80.0995  223.7145 H   0  0  0  0  0  0  0  0  0  0  0  0
  142.3708   77.5256  220.5304 H   0  0  0  0  0  0  0  0  0  0  0  0
  1  2  2  0
  2  3  1  0
  3  4  1  0
  4  5  1  0
  5  6  2  0
  6  7  1  0
  7  8  2  0
  8  9  1  0
  9 10  1  0
 10 11  2  0
 10 12  1  0
 12 13  1  0
 13 14  1  0
 14 15  1  0
 15 16  1  0
 16 17  1  0
  9 18  2  0
  4 19  2  0
 19 20  1  0
 20 21  2  0
 21 22  1  0
 22 23  2  0
 23 24  1  0
 24 25  2  0
 25 26  1  0
 26 27  2  0
 27 28  1  0
 28 29  2  0
 23 30  1  0
 30 31  2  0
 31  2  1  0
 18  5  1  0
 31 20  1  0
 17 12  1  0
 29 24  1  0
  3 32  1  0
  3 33  1  0
  6 34  1  0
  7 35  1  0
  8 36  1  0
 13 37  1  0
 13 38  1  0
 14 39  1  0
 14 40  1  0
 16 41  1  0
 16 42  1  0
 17 43  1  0
 17 44  1  0
 18 45  1  0
 21 46  1  0
 22 47  1  0
 25 48  1  0
 26 49  1  0
 27 50  1  0
 29 51  1  0
 30 52  1  0
M  END
>  <smiles>  (40) 
O=C1CC(c2cccc(C(=O)N3CCOCC3)c2)=Nc2ccc(-c3cccnc3)cc21

>  <score_type>  (40) 
oracle

>  <origin>  (40) 
autodockgpu

>  <m_score__min__energy>  (40) 
-9.0999999999999996

>  <m_primary>  (40) 
energy

>  <rmsd>  (40) 
6.917161183815971

>  <m_score__min__rmsd>  (40) 
6.917161183815971

>  <meeko>  (40) 
{"free_energy": -8.84, "intermolecular_energy": -9.73, "internal_energy": -0.66, "cluster_size": 44, "cluster_id": 1, "rank_in_cluster": 35}

>  <energy>  (40) 
-8.3

>  <cluster_rmsd>  (40) 
0.76

>  <cluster>  (40) 
1

$$$$

     RDKit          3D

 52 56  0  0  0  0  0  0  0  0999 V2000
  142.8100   74.3030  220.5620 O   0  0  0  0  0  0  0  0  0  0  0  0
  141.6970   74.1090  221.1260 C   0  0  0  0  0  0  0  0  0  0  0  0
  141.2460   72.7150  221.3020 C   0  0  0  0  0  0  0  0  0  0  0  0
  139.9250   72.6730  221.9820 C   0  0  0  0  0  0  0  0  0  0  0  0
  139.2940   71.3860  222.2630 C   0  0  0  0  0  0  0  0  0  0  0  0
  138.3570   70.8790  221.3870 C   0  0  0  0  0  0  0  0  0  0  0  0
  137.7120   69.6770  221.5740 C   0  0  0  0  0  0  0  0  0  0  0  0
  138.0360   68.9540  222.7110 C   0  0  0  0  0  0  0  0  0  0  0  0
  138.9640   69.4030  223.6270 C   0  0  0  0  0  0  0  0  0  0  0  0
  139.2580   68.6050  224.7940 C   0  0  0  0  0  0  0  0  0  0  0  0
  139.2060   67.3580  224.6860 O   0  0  0  0  0  0  0  0  0  0  0  0
  139.6050   69.1310  226.0650 N   0  0  0  0  0  0  0  0  0  0  0  0
  139.8800   68.2080  227.1610 C   0  0  0  0  0  0  0  0  0  0  0  0
  141.1640   68.6710  227.8510 C   0  0  0  0  0  0  0  0  0  0  0  0
  140.9260   69.9280  228.3700 O   0  0  0  0  0  0  0  0  0  0  0  0
  140.8530   70.8290  227.3130 C   0  0  0  0  0  0  0  0  0  0  0  0
  139.7090   70.5400  226.3620 C   0  0  0  0  0  0  0  0  0  0  0  0
  139.5840   70.6330  223.3760 C   0  0  0  0  0  0  0  0  0  0  0  0
  139.2900   73.7350  222.3520 N   0  0  0  0  0  0  0  0  0  0  0  0
  139.7370   75.0590  222.1740 C   0  0  0  0  0  0  0  0  0  0  0  0
  138.9400   76.0970  222.6260 C   0  0  0  0  0  0  0  0  0  0  0  0
  139.3790   77.3960  222.4520 C   0  0  0  0  0  0  0  0  0  0  0  0
  140.5910   77.6290  221.8370 C   0  0  0  0  0  0  0  0  0  0  0  0
  141.0150   79.0160  221.6750 C   0  0  0  0  0  0  0  0  0  0  0  0
  141.2010   79.4630  220.3650 C   0  0  0  0  0  0  0  0  0  0  0  0
  141.6060   80.7760  220.1100 C   0  0  0  0  0  0  0  0  0  0  0  0
  141.8060   81.5890  221.2210 C   0  0  0  0  0  0  0  0  0  0  0  0
  141.6180   81.1280  222.4720 N   0  0  0  0  0  0  0  0  0  0  0  0
  141.2290   79.8670  222.7370 C   0  0  0  0  0  0  0  0  0  0  0  0
  141.3860   76.5700  221.3850 C   0  0  0  0  0  0  0  0  0  0  0  0
  140.9420   75.2730  221.5600 C   0  0  0  0  0  0  0  0  0  0  0  0
  141.1599   72.2359  220.3156 H   0  0  0  0  0  0  0  0  0  0  0  0
  141.9807   72.1809  221.9224 H   0  0  0  0  0  0  0  0  0  0  0  0
  138.1117   71.4669  220.4902 H   0  0  0  0  0  0  0  0  0  0  0  0
  136.9705   69.3061  220.8511 H   0  0  0  0  0  0  0  0  0  0  0  0
  137.5365   67.9902  222.8887 H   0  0  0  0  0  0  0  0  0  0  0  0
  139.0454   68.2186  227.8775 H   0  0  0  0  0  0  0  0  0  0  0  0
  139.9968   67.1828  226.7798 H   0  0  0  0  0  0  0  0  0  0  0  0
  141.4277   67.9742  228.6603 H   0  0  0  0  0  0  0  0  0  0  0  0
  141.9996   68.6988  227.1362 H   0  0  0  0  0  0  0  0  0  0  0  0
  140.7192   71.8405  227.7241 H   0  0  0  0  0  0  0  0  0  0  0  0
  141.7870   70.7372  226.7393 H   0  0  0  0  0  0  0  0  0  0  0  0
  138.7687   70.8777  226.8223 H   0  0  0  0  0  0  0  0  0  0  0  0
  139.9016   71.0757  225.4208 H   0  0  0  0  0  0  0  0  0  0  0  0
  140.3281   71.0094  224.0934 H   0  0  0  0  0  0  0  0  0  0  0  0
  137.9759   75.8918  223.1143 H   0  0  0  0  0  0  0  0  0  0  0  0
  138.7651   78.2390  222.8020 H   0  0  0  0  0  0  0  0  0  0  0  0
  141.0269   78.7743  219.5251 H   0  0  0  0  0  0  0  0  0  0  0  0
  141.7585   81.1468  219.0857 H   0  0  0  0  0  0  0  0  0  0  0  0
  142.1248   82.6315  221.0742 H   0  0  0  0  0  0  0  0  0  0  0  0
  141.0860   79.5254  223.7728 H   0  0  0  0  0  0  0  0  0  0  0  0
  142.3518   76.7672  220.8967 H   0  0  0  0  0  0  0  0  0  0  0  0
  1  2  2  0
  2  3  1  0
  3  4  1  0
  4  5  1  0
  5  6  2  0
  6  7  1  0
  7  8  2  0
  8  9  1  0
  9 10  1  0
 10 11  2  0
 10 12  1  0
 12 13  1  0
 13 14  1  0
 14 15  1  0
 15 16  1  0
 16 17  1  0
  9 18  2  0
  4 19  2  0
 19 20  1  0
 20 21  2  0
 21 22  1  0
 22 23  2  0
 23 24  1  0
 24 25  2  0
 25 26  1  0
 26 27  2  0
 27 28  1  0
 28 29  2  0
 23 30  1  0
 30 31  2  0
 31  2  1  0
 18  5  1  0
 31 20  1  0
 17 12  1  0
 29 24  1  0
  3 32  1  0
  3 33  1  0
  6 34  1  0
  7 35  1  0
  8 36  1  0
 13 37  1  0
 13 38  1  0
 14 39  1  0
 14 40  1  0
 16 41  1  0
 16 42  1  0
 17 43  1  0
 17 44  1  0
 18 45  1  0
 21 46  1  0
 22 47  1  0
 25 48  1  0
 26 49  1  0
 27 50  1  0
 29 51  1  0
 30 52  1  0
M  END
>  <smiles>  (41) 
O=C1CC(c2cccc(C(=O)N3CCOCC3)c2)=Nc2ccc(-c3cccnc3)cc21

>  <score_type>  (41) 
oracle

>  <origin>  (41) 
autodockgpu

>  <m_score__min__energy>  (41) 
-9.0999999999999996

>  <m_primary>  (41) 
energy

>  <rmsd>  (41) 
6.765842266622256

>  <m_score__min__rmsd>  (41) 
6.765842266622256

>  <meeko>  (41) 
{"free_energy": -8.45, "intermolecular_energy": -9.35, "internal_energy": -0.84, "cluster_size": 44, "cluster_id": 1, "rank_in_cluster": 38}

>  <energy>  (41) 
-8.08

>  <cluster_rmsd>  (41) 
1.74

>  <cluster>  (41) 
1

$$$$

     RDKit          3D

 52 56  0  0  0  0  0  0  0  0999 V2000
  142.9190   74.7690  220.3560 O   0  0  0  0  0  0  0  0  0  0  0  0
  141.8590   74.4810  220.9780 C   0  0  0  0  0  0  0  0  0  0  0  0
  141.5090   73.0540  221.1210 C   0  0  0  0  0  0  0  0  0  0  0  0
  140.2390   72.9000  221.8780 C   0  0  0  0  0  0  0  0  0  0  0  0
  139.7100   71.5640  222.1400 C   0  0  0  0  0  0  0  0  0  0  0  0
  139.0790   70.8680  221.1310 C   0  0  0  0  0  0  0  0  0  0  0  0
  138.5490   69.6070  221.2900 C   0  0  0  0  0  0  0  0  0  0  0  0
  138.6660   69.0250  222.5420 C   0  0  0  0  0  0  0  0  0  0  0  0
  139.2860   69.6650  223.5950 C   0  0  0  0  0  0  0  0  0  0  0  0
  139.3750   69.0050  224.8760 C   0  0  0  0  0  0  0  0  0  0  0  0
  139.1570   67.7730  224.9240 O   0  0  0  0  0  0  0  0  0  0  0  0
  139.6950   69.6550  226.0970 N   0  0  0  0  0  0  0  0  0  0  0  0
  139.7550   68.8660  227.3230 C   0  0  0  0  0  0  0  0  0  0  0  0
  141.0340   69.2520  228.0660 C   0  0  0  0  0  0  0  0  0  0  0  0
  140.9370   70.5890  228.3950 O   0  0  0  0  0  0  0  0  0  0  0  0
  141.0710   71.3350  227.2290 C   0  0  0  0  0  0  0  0  0  0  0  0
  139.9730   71.0660  226.2200 C   0  0  0  0  0  0  0  0  0  0  0  0
  139.8030   70.9440  223.3640 C   0  0  0  0  0  0  0  0  0  0  0  0
  139.5640   73.9020  222.3310 N   0  0  0  0  0  0  0  0  0  0  0  0
  139.9140   75.2580  222.1830 C   0  0  0  0  0  0  0  0  0  0  0  0
  139.0840   76.2240  222.7270 C   0  0  0  0  0  0  0  0  0  0  0  0
  139.4280   77.5550  222.5840 C   0  0  0  0  0  0  0  0  0  0  0  0
  140.5820   77.8900  221.9060 C   0  0  0  0  0  0  0  0  0  0  0  0
  140.9060   79.3070  221.7790 C   0  0  0  0  0  0  0  0  0  0  0  0
  141.6710   79.8660  222.8050 C   0  0  0  0  0  0  0  0  0  0  0  0
  142.0330   81.2170  222.7710 C   0  0  0  0  0  0  0  0  0  0  0  0
  141.5910   81.9480  221.6730 C   0  0  0  0  0  0  0  0  0  0  0  0
  140.8540   81.3790  220.7010 N   0  0  0  0  0  0  0  0  0  0  0  0
  140.4960   80.0820  220.7160 C   0  0  0  0  0  0  0  0  0  0  0  0
  141.4110   76.9040  221.3610 C   0  0  0  0  0  0  0  0  0  0  0  0
  141.0620   75.5750  221.5070 C   0  0  0  0  0  0  0  0  0  0  0  0
  141.3906   72.6090  220.1220 H   0  0  0  0  0  0  0  0  0  0  0  0
  142.3139   72.5449  221.6715 H   0  0  0  0  0  0  0  0  0  0  0  0
  138.9942   71.3465  220.1442 H   0  0  0  0  0  0  0  0  0  0  0  0
  138.0539   69.0840  220.4585 H   0  0  0  0  0  0  0  0  0  0  0  0
  138.2506   68.0190  222.7016 H   0  0  0  0  0  0  0  0  0  0  0  0
  138.8780   69.0827  227.9506 H   0  0  0  0  0  0  0  0  0  0  0  0
  139.7569   67.7914  227.0882 H   0  0  0  0  0  0  0  0  0  0  0  0
  141.1346   68.6471  228.9792 H   0  0  0  0  0  0  0  0  0  0  0  0
  141.9170   69.0720  227.4352 H   0  0  0  0  0  0  0  0  0  0  0  0
  141.0500   72.4028  227.4925 H   0  0  0  0  0  0  0  0  0  0  0  0
  142.0234   71.0439  226.7618 H   0  0  0  0  0  0  0  0  0  0  0  0
  139.0574   71.5829  226.5432 H   0  0  0  0  0  0  0  0  0  0  0  0
  140.3095   71.4359  225.2402 H   0  0  0  0  0  0  0  0  0  0  0  0
  140.3013   71.4723  224.1902 H   0  0  0  0  0  0  0  0  0  0  0  0
  138.1674   75.9371  223.2633 H   0  0  0  0  0  0  0  0  0  0  0  0
  138.7863   78.3416  223.0077 H   0  0  0  0  0  0  0  0  0  0  0  0
  141.9923   79.2375  223.6487 H   0  0  0  0  0  0  0  0  0  0  0  0
  142.6345   81.6763  223.5692 H   0  0  0  0  0  0  0  0  0  0  0  0
  141.8495   83.0145  221.5975 H   0  0  0  0  0  0  0  0  0  0  0  0
  139.8929   79.6524  219.9025 H   0  0  0  0  0  0  0  0  0  0  0  0
  142.3290   77.1830  220.8230 H   0  0  0  0  0  0  0  0  0  0  0  0
  1  2  2  0
  2  3  1  0
  3  4  1  0
  4  5  1  0
  5  6  2  0
  6  7  1  0
  7  8  2  0
  8  9  1  0
  9 10  1  0
 10 11  2  0
 10 12  1  0
 12 13  1  0
 13 14  1  0
 14 15  1  0
 15 16  1  0
 16 17  1  0
  9 18  2  0
  4 19  2  0
 19 20  1  0
 20 21  2  0
 21 22  1  0
 22 23  2  0
 23 24  1  0
 24 25  2  0
 25 26  1  0
 26 27  2  0
 27 28  1  0
 28 29  2  0
 23 30  1  0
 30 31  2  0
 31  2  1  0
 18  5  1  0
 31 20  1  0
 17 12  1  0
 29 24  1  0
  3 32  1  0
  3 33  1  0
  6 34  1  0
  7 35  1  0
  8 36  1  0
 13 37  1  0
 13 38  1  0
 14 39  1  0
 14 40  1  0
 16 41  1  0
 16 42  1  0
 17 43  1  0
 17 44  1  0
 18 45  1  0
 21 46  1  0
 22 47  1  0
 25 48  1  0
 26 49  1  0
 27 50  1  0
 29 51  1  0
 30 52  1  0
M  END
>  <smiles>  (42) 
O=C1CC(c2cccc(C(=O)N3CCOCC3)c2)=Nc2ccc(-c3cccnc3)cc21

>  <score_type>  (42) 
oracle

>  <origin>  (42) 
autodockgpu

>  <m_score__min__energy>  (42) 
-9.0999999999999996

>  <m_primary>  (42) 
energy

>  <rmsd>  (42) 
6.824014345887813

>  <m_score__min__rmsd>  (42) 
6.824014345887813

>  <meeko>  (42) 
{"free_energy": -9.05, "intermolecular_energy": -9.94, "internal_energy": -0.7, "cluster_size": 44, "cluster_id": 1, "rank_in_cluster": 22}

>  <energy>  (42) 
-8.04

>  <cluster_rmsd>  (42) 
1.63

>  <cluster>  (42) 
1

$$$$

     RDKit          3D

 52 56  0  0  0  0  0  0  0  0999 V2000
  142.9100   74.7080  220.1700 O   0  0  0  0  0  0  0  0  0  0  0  0
  141.8760   74.4250  220.8370 C   0  0  0  0  0  0  0  0  0  0  0  0
  141.5280   73.0000  220.9980 C   0  0  0  0  0  0  0  0  0  0  0  0
  140.2900   72.8510  221.8080 C   0  0  0  0  0  0  0  0  0  0  0  0
  139.7680   71.5180  222.0960 C   0  0  0  0  0  0  0  0  0  0  0  0
  139.1600   70.7910  221.0950 C   0  0  0  0  0  0  0  0  0  0  0  0
  138.6380   69.5300  221.2780 C   0  0  0  0  0  0  0  0  0  0  0  0
  138.7400   68.9800  222.5450 C   0  0  0  0  0  0  0  0  0  0  0  0
  139.3370   69.6520  223.5920 C   0  0  0  0  0  0  0  0  0  0  0  0
  139.4120   69.0260  224.8910 C   0  0  0  0  0  0  0  0  0  0  0  0
  139.1820   67.7980  224.9690 O   0  0  0  0  0  0  0  0  0  0  0  0
  139.7290   69.7050  226.0950 N   0  0  0  0  0  0  0  0  0  0  0  0
  139.7720   68.9480  227.3430 C   0  0  0  0  0  0  0  0  0  0  0  0
  141.0500   69.3430  228.0850 C   0  0  0  0  0  0  0  0  0  0  0  0
  140.9620   70.6890  228.3770 O   0  0  0  0  0  0  0  0  0  0  0  0
  141.1110   71.4030  227.1930 C   0  0  0  0  0  0  0  0  0  0  0  0
  140.0180   71.1170  226.1840 C   0  0  0  0  0  0  0  0  0  0  0  0
  139.8470   70.9300  223.3360 C   0  0  0  0  0  0  0  0  0  0  0  0
  139.6370   73.8560  222.2860 N   0  0  0  0  0  0  0  0  0  0  0  0
  139.9850   75.2110  222.1210 C   0  0  0  0  0  0  0  0  0  0  0  0
  139.1820   76.1810  222.6960 C   0  0  0  0  0  0  0  0  0  0  0  0
  139.5230   77.5100  222.5350 C   0  0  0  0  0  0  0  0  0  0  0  0
  140.6490   77.8400  221.8090 C   0  0  0  0  0  0  0  0  0  0  0  0
  140.9720   79.2560  221.6640 C   0  0  0  0  0  0  0  0  0  0  0  0
  141.3900   79.9210  222.8190 C   0  0  0  0  0  0  0  0  0  0  0  0
  141.7220   81.2790  222.7800 C   0  0  0  0  0  0  0  0  0  0  0  0
  141.6120   81.9070  221.5430 C   0  0  0  0  0  0  0  0  0  0  0  0
  141.2050   81.2370  220.4490 N   0  0  0  0  0  0  0  0  0  0  0  0
  140.8810   79.9320  220.4670 C   0  0  0  0  0  0  0  0  0  0  0  0
  141.4520   76.8500  221.2320 C   0  0  0  0  0  0  0  0  0  0  0  0
  141.1040   75.5230  221.3960 C   0  0  0  0  0  0  0  0  0  0  0  0
  141.3667   72.5531  220.0059 H   0  0  0  0  0  0  0  0  0  0  0  0
  142.3537   72.4900  221.5159 H   0  0  0  0  0  0  0  0  0  0  0  0
  139.0878   71.2432  220.0948 H   0  0  0  0  0  0  0  0  0  0  0  0
  138.1600   68.9824  220.4524 H   0  0  0  0  0  0  0  0  0  0  0  0
  138.3316   67.9742  222.7226 H   0  0  0  0  0  0  0  0  0  0  0  0
  138.8924   69.1895  227.9578 H   0  0  0  0  0  0  0  0  0  0  0  0
  139.7651   67.8674  227.1376 H   0  0  0  0  0  0  0  0  0  0  0  0
  141.1389   68.7622  229.0149 H   0  0  0  0  0  0  0  0  0  0  0  0
  141.9359   69.1384  227.4659 H   0  0  0  0  0  0  0  0  0  0  0  0
  141.0976   72.4775  227.4283 H   0  0  0  0  0  0  0  0  0  0  0  0
  142.0641   71.0918  226.7405 H   0  0  0  0  0  0  0  0  0  0  0  0
  139.1045   71.6493  226.4876 H   0  0  0  0  0  0  0  0  0  0  0  0
  140.3643   71.4588  225.1975 H   0  0  0  0  0  0  0  0  0  0  0  0
  140.3280   71.4834  224.1560 H   0  0  0  0  0  0  0  0  0  0  0  0
  138.2879   75.8985  223.2711 H   0  0  0  0  0  0  0  0  0  0  0  0
  138.9013   78.2995  222.9824 H   0  0  0  0  0  0  0  0  0  0  0  0
  141.4588   79.3709  223.7691 H   0  0  0  0  0  0  0  0  0  0  0  0
  142.0521   81.8213  223.6783 H   0  0  0  0  0  0  0  0  0  0  0  0
  141.8632   82.9745  221.4575 H   0  0  0  0  0  0  0  0  0  0  0  0
  140.5524   79.4185  219.5514 H   0  0  0  0  0  0  0  0  0  0  0  0
  142.3479   77.1244  220.6558 H   0  0  0  0  0  0  0  0  0  0  0  0
  1  2  2  0
  2  3  1  0
  3  4  1  0
  4  5  1  0
  5  6  2  0
  6  7  1  0
  7  8  2  0
  8  9  1  0
  9 10  1  0
 10 11  2  0
 10 12  1  0
 12 13  1  0
 13 14  1  0
 14 15  1  0
 15 16  1  0
 16 17  1  0
  9 18  2  0
  4 19  2  0
 19 20  1  0
 20 21  2  0
 21 22  1  0
 22 23  2  0
 23 24  1  0
 24 25  2  0
 25 26  1  0
 26 27  2  0
 27 28  1  0
 28 29  2  0
 23 30  1  0
 30 31  2  0
 31  2  1  0
 18  5  1  0
 31 20  1  0
 17 12  1  0
 29 24  1  0
  3 32  1  0
  3 33  1  0
  6 34  1  0
  7 35  1  0
  8 36  1  0
 13 37  1  0
 13 38  1  0
 14 39  1  0
 14 40  1  0
 16 41  1  0
 16 42  1  0
 17 43  1  0
 17 44  1  0
 18 45  1  0
 21 46  1  0
 22 47  1  0
 25 48  1  0
 26 49  1  0
 27 50  1  0
 29 51  1  0
 30 52  1  0
M  END
>  <smiles>  (43) 
O=C1CC(c2cccc(C(=O)N3CCOCC3)c2)=Nc2ccc(-c3cccnc3)cc21

>  <score_type>  (43) 
oracle

>  <origin>  (43) 
autodockgpu

>  <m_score__min__energy>  (43) 
-9.0999999999999996

>  <m_primary>  (43) 
energy

>  <rmsd>  (43) 
6.8409690585760075

>  <m_score__min__rmsd>  (43) 
6.8409690585760075

>  <meeko>  (43) 
{"free_energy": -9.08, "intermolecular_energy": -9.97, "internal_energy": -0.71, "cluster_size": 44, "cluster_id": 1, "rank_in_cluster": 10}

>  <energy>  (43) 
-7.98

>  <cluster_rmsd>  (43) 
1.78

>  <cluster>  (43) 
1

$$$$

     RDKit          3D

 52 56  0  0  0  0  0  0  0  0999 V2000
  142.8990   74.7250  220.2080 O   0  0  0  0  0  0  0  0  0  0  0  0
  141.8610   74.4400  220.8690 C   0  0  0  0  0  0  0  0  0  0  0  0
  141.5140   73.0140  221.0270 C   0  0  0  0  0  0  0  0  0  0  0  0
  140.2720   72.8620  221.8290 C   0  0  0  0  0  0  0  0  0  0  0  0
  139.7510   71.5280  222.1120 C   0  0  0  0  0  0  0  0  0  0  0  0
  139.1280   70.8110  221.1130 C   0  0  0  0  0  0  0  0  0  0  0  0
  138.6050   69.5490  221.2920 C   0  0  0  0  0  0  0  0  0  0  0  0
  138.7220   68.9890  222.5540 C   0  0  0  0  0  0  0  0  0  0  0  0
  139.3330   69.6520  223.5990 C   0  0  0  0  0  0  0  0  0  0  0  0
  139.4220   69.0150  224.8920 C   0  0  0  0  0  0  0  0  0  0  0  0
  139.1950   67.7860  224.9630 O   0  0  0  0  0  0  0  0  0  0  0  0
  139.7510   69.6840  226.0990 N   0  0  0  0  0  0  0  0  0  0  0  0
  139.8080   68.9180  227.3390 C   0  0  0  0  0  0  0  0  0  0  0  0
  141.0930   69.3070  228.0710 C   0  0  0  0  0  0  0  0  0  0  0  0
  141.0070   70.6510  228.3750 O   0  0  0  0  0  0  0  0  0  0  0  0
  141.1430   71.3750  227.1960 C   0  0  0  0  0  0  0  0  0  0  0  0
  140.0390   71.0950  226.1950 C   0  0  0  0  0  0  0  0  0  0  0  0
  139.8440   70.9300  223.3470 C   0  0  0  0  0  0  0  0  0  0  0  0
  139.6150   73.8660  222.3040 N   0  0  0  0  0  0  0  0  0  0  0  0
  139.9620   75.2220  222.1420 C   0  0  0  0  0  0  0  0  0  0  0  0
  139.1530   76.1900  222.7140 C   0  0  0  0  0  0  0  0  0  0  0  0
  139.4940   77.5200  222.5550 C   0  0  0  0  0  0  0  0  0  0  0  0
  140.6230   77.8520  221.8360 C   0  0  0  0  0  0  0  0  0  0  0  0
  140.9450   79.2690  221.6950 C   0  0  0  0  0  0  0  0  0  0  0  0
  141.2360   79.7170  220.4040 C   0  0  0  0  0  0  0  0  0  0  0  0
  141.5550   81.0570  220.1700 C   0  0  0  0  0  0  0  0  0  0  0  0
  141.5640   81.8950  221.2800 C   0  0  0  0  0  0  0  0  0  0  0  0
  141.2790   81.4320  222.5120 N   0  0  0  0  0  0  0  0  0  0  0  0
  140.9700   80.1450  222.7580 C   0  0  0  0  0  0  0  0  0  0  0  0
  141.4310   76.8640  221.2630 C   0  0  0  0  0  0  0  0  0  0  0  0
  141.0850   75.5360  221.4240 C   0  0  0  0  0  0  0  0  0  0  0  0
  141.3594   72.5677  220.0336 H   0  0  0  0  0  0  0  0  0  0  0  0
  142.3374   72.5052  221.5497 H   0  0  0  0  0  0  0  0  0  0  0  0
  139.0438   71.2719  220.1178 H   0  0  0  0  0  0  0  0  0  0  0  0
  138.1154   69.0090  220.4682 H   0  0  0  0  0  0  0  0  0  0  0  0
  138.3143   67.9824  222.7288 H   0  0  0  0  0  0  0  0  0  0  0  0
  138.9348   69.1541  227.9650 H   0  0  0  0  0  0  0  0  0  0  0  0
  139.7999   67.8391  227.1245 H   0  0  0  0  0  0  0  0  0  0  0  0
  141.1916   68.7185  228.9951 H   0  0  0  0  0  0  0  0  0  0  0  0
  141.9728   69.1078  227.4416 H   0  0  0  0  0  0  0  0  0  0  0  0
  141.1302   72.4474  227.4403 H   0  0  0  0  0  0  0  0  0  0  0  0
  142.0921   71.0696  226.7313 H   0  0  0  0  0  0  0  0  0  0  0  0
  139.1281   71.6241  226.5117 H   0  0  0  0  0  0  0  0  0  0  0  0
  140.3746   71.4445  225.2075 H   0  0  0  0  0  0  0  0  0  0  0  0
  140.3372   71.4753  224.1651 H   0  0  0  0  0  0  0  0  0  0  0  0
  138.2562   75.9057  223.2840 H   0  0  0  0  0  0  0  0  0  0  0  0
  138.8688   78.3086  222.9991 H   0  0  0  0  0  0  0  0  0  0  0  0
  141.2137   79.0077  219.5635 H   0  0  0  0  0  0  0  0  0  0  0  0
  141.7868   81.4295  219.1613 H   0  0  0  0  0  0  0  0  0  0  0  0
  141.8093   82.9592  221.1487 H   0  0  0  0  0  0  0  0  0  0  0  0
  140.7439   79.8026  223.7786 H   0  0  0  0  0  0  0  0  0  0  0  0
  142.3296   77.1407  220.6920 H   0  0  0  0  0  0  0  0  0  0  0  0
  1  2  2  0
  2  3  1  0
  3  4  1  0
  4  5  1  0
  5  6  2  0
  6  7  1  0
  7  8  2  0
  8  9  1  0
  9 10  1  0
 10 11  2  0
 10 12  1  0
 12 13  1  0
 13 14  1  0
 14 15  1  0
 15 16  1  0
 16 17  1  0
  9 18  2  0
  4 19  2  0
 19 20  1  0
 20 21  2  0
 21 22  1  0
 22 23  2  0
 23 24  1  0
 24 25  2  0
 25 26  1  0
 26 27  2  0
 27 28  1  0
 28 29  2  0
 23 30  1  0
 30 31  2  0
 31  2  1  0
 18  5  1  0
 31 20  1  0
 17 12  1  0
 29 24  1  0
  3 32  1  0
  3 33  1  0
  6 34  1  0
  7 35  1  0
  8 36  1  0
 13 37  1  0
 13 38  1  0
 14 39  1  0
 14 40  1  0
 16 41  1  0
 16 42  1  0
 17 43  1  0
 17 44  1  0
 18 45  1  0
 21 46  1  0
 22 47  1  0
 25 48  1  0
 26 49  1  0
 27 50  1  0
 29 51  1  0
 30 52  1  0
M  END
>  <smiles>  (44) 
O=C1CC(c2cccc(C(=O)N3CCOCC3)c2)=Nc2ccc(-c3cccnc3)cc21

>  <score_type>  (44) 
oracle

>  <origin>  (44) 
autodockgpu

>  <m_score__min__energy>  (44) 
-9.0999999999999996

>  <m_primary>  (44) 
energy

>  <rmsd>  (44) 
6.841095405937924

>  <m_score__min__rmsd>  (44) 
6.841095405937924

>  <meeko>  (44) 
{"free_energy": -8.9, "intermolecular_energy": -9.79, "internal_energy": -0.71, "cluster_size": 44, "cluster_id": 1, "rank_in_cluster": 33}

>  <energy>  (44) 
-7.8

>  <cluster_rmsd>  (44) 
1.57

>  <cluster>  (44) 
1

$$$$

     RDKit          3D

 52 56  0  0  0  0  0  0  0  0999 V2000
  142.8900   74.6780  220.2540 O   0  0  0  0  0  0  0  0  0  0  0  0
  141.8410   74.4120  220.9030 C   0  0  0  0  0  0  0  0  0  0  0  0
  141.4700   72.9920  221.0640 C   0  0  0  0  0  0  0  0  0  0  0  0
  140.2160   72.8640  221.8520 C   0  0  0  0  0  0  0  0  0  0  0  0
  139.6710   71.5390  222.1350 C   0  0  0  0  0  0  0  0  0  0  0  0
  138.9980   70.8510  221.1470 C   0  0  0  0  0  0  0  0  0  0  0  0
  138.4500   69.6010  221.3280 C   0  0  0  0  0  0  0  0  0  0  0  0
  138.5940   69.0210  222.5780 C   0  0  0  0  0  0  0  0  0  0  0  0
  139.2550   69.6530  223.6100 C   0  0  0  0  0  0  0  0  0  0  0  0
  139.3700   68.9970  224.8910 C   0  0  0  0  0  0  0  0  0  0  0  0
  139.1660   67.7620  224.9440 O   0  0  0  0  0  0  0  0  0  0  0  0
  139.7000   69.6520  226.1050 N   0  0  0  0  0  0  0  0  0  0  0  0
  139.7850   68.8660  227.3320 C   0  0  0  0  0  0  0  0  0  0  0  0
  141.0710   69.2670  228.0560 C   0  0  0  0  0  0  0  0  0  0  0  0
  140.9640   70.6040  228.3840 O   0  0  0  0  0  0  0  0  0  0  0  0
  141.0730   71.3500  227.2150 C   0  0  0  0  0  0  0  0  0  0  0  0
  139.9640   71.0660  226.2230 C   0  0  0  0  0  0  0  0  0  0  0  0
  139.7890   70.9220  223.3580 C   0  0  0  0  0  0  0  0  0  0  0  0
  139.5690   73.8800  222.3140 N   0  0  0  0  0  0  0  0  0  0  0  0
  139.9390   75.2290  222.1500 C   0  0  0  0  0  0  0  0  0  0  0  0
  139.1380   76.2120  222.7080 C   0  0  0  0  0  0  0  0  0  0  0  0
  139.5010   77.5360  222.5480 C   0  0  0  0  0  0  0  0  0  0  0  0
  140.6440   77.8480  221.8410 C   0  0  0  0  0  0  0  0  0  0  0  0
  140.9900   79.2590  221.6970 C   0  0  0  0  0  0  0  0  0  0  0  0
  141.4810   79.8990  222.8370 C   0  0  0  0  0  0  0  0  0  0  0  0
  141.8390   81.2500  222.7960 C   0  0  0  0  0  0  0  0  0  0  0  0
  141.6790   81.8970  221.5750 C   0  0  0  0  0  0  0  0  0  0  0  0
  141.2020   81.2500  220.4950 N   0  0  0  0  0  0  0  0  0  0  0  0
  140.8510   79.9510  220.5140 C   0  0  0  0  0  0  0  0  0  0  0  0
  141.4430   76.8440  221.2820 C   0  0  0  0  0  0  0  0  0  0  0  0
  141.0750   75.5230  221.4450 C   0  0  0  0  0  0  0  0  0  0  0  0
  141.3203   72.5428  220.0711 H   0  0  0  0  0  0  0  0  0  0  0  0
  142.2790   72.4730  221.5989 H   0  0  0  0  0  0  0  0  0  0  0  0
  138.8934   71.3269  220.1608 H   0  0  0  0  0  0  0  0  0  0  0  0
  137.9200   69.0844  220.5142 H   0  0  0  0  0  0  0  0  0  0  0  0
  138.1666   68.0227  222.7531 H   0  0  0  0  0  0  0  0  0  0  0  0
  138.9148   69.0753  227.9715 H   0  0  0  0  0  0  0  0  0  0  0  0
  139.7942   67.7909  227.0997 H   0  0  0  0  0  0  0  0  0  0  0  0
  141.1913   68.6650  228.9688 H   0  0  0  0  0  0  0  0  0  0  0  0
  141.9468   69.0951  227.4131 H   0  0  0  0  0  0  0  0  0  0  0  0
  141.0431   72.4179  227.4772 H   0  0  0  0  0  0  0  0  0  0  0  0
  142.0222   71.0701  226.7347 H   0  0  0  0  0  0  0  0  0  0  0  0
  139.0473   71.5726  226.5591 H   0  0  0  0  0  0  0  0  0  0  0  0
  140.2826   71.4379  225.2380 H   0  0  0  0  0  0  0  0  0  0  0  0
  140.3217   71.4439  224.1666 H   0  0  0  0  0  0  0  0  0  0  0  0
  138.2300   75.9438  223.2680 H   0  0  0  0  0  0  0  0  0  0  0  0
  138.8826   78.3358  222.9815 H   0  0  0  0  0  0  0  0  0  0  0  0
  141.5870   79.3352  223.7756 H   0  0  0  0  0  0  0  0  0  0  0  0
  142.2267   81.7735  223.6824 H   0  0  0  0  0  0  0  0  0  0  0  0
  141.9480   82.9602  221.4901 H   0  0  0  0  0  0  0  0  0  0  0  0
  140.4643   79.4560  219.6110 H   0  0  0  0  0  0  0  0  0  0  0  0
  142.3523   77.1038  220.7201 H   0  0  0  0  0  0  0  0  0  0  0  0
  1  2  2  0
  2  3  1  0
  3  4  1  0
  4  5  1  0
  5  6  2  0
  6  7  1  0
  7  8  2  0
  8  9  1  0
  9 10  1  0
 10 11  2  0
 10 12  1  0
 12 13  1  0
 13 14  1  0
 14 15  1  0
 15 16  1  0
 16 17  1  0
  9 18  2  0
  4 19  2  0
 19 20  1  0
 20 21  2  0
 21 22  1  0
 22 23  2  0
 23 24  1  0
 24 25  2  0
 25 26  1  0
 26 27  2  0
 27 28  1  0
 28 29  2  0
 23 30  1  0
 30 31  2  0
 31  2  1  0
 18  5  1  0
 31 20  1  0
 17 12  1  0
 29 24  1  0
  3 32  1  0
  3 33  1  0
  6 34  1  0
  7 35  1  0
  8 36  1  0
 13 37  1  0
 13 38  1  0
 14 39  1  0
 14 40  1  0
 16 41  1  0
 16 42  1  0
 17 43  1  0
 17 44  1  0
 18 45  1  0
 21 46  1  0
 22 47  1  0
 25 48  1  0
 26 49  1  0
 27 50  1  0
 29 51  1  0
 30 52  1  0
M  END
>  <smiles>  (45) 
O=C1CC(c2cccc(C(=O)N3CCOCC3)c2)=Nc2ccc(-c3cccnc3)cc21

>  <score_type>  (45) 
oracle

>  <origin>  (45) 
autodockgpu

>  <m_score__min__energy>  (45) 
-9.0999999999999996

>  <m_primary>  (45) 
energy

>  <rmsd>  (45) 
6.82970269450083

>  <m_score__min__rmsd>  (45) 
6.82970269450083

>  <meeko>  (45) 
{"free_energy": -9.1, "intermolecular_energy": -9.99, "internal_energy": -0.72, "cluster_size": 44, "cluster_id": 1, "rank_in_cluster": 1}

>  <energy>  (45) 
-7.92

>  <cluster_rmsd>  (45) 
0.0

>  <cluster>  (45) 
2

$$$$

     RDKit          3D

 52 56  0  0  0  0  0  0  0  0999 V2000
  142.9280   74.7480  220.1980 O   0  0  0  0  0  0  0  0  0  0  0  0
  141.8920   74.4530  220.8570 C   0  0  0  0  0  0  0  0  0  0  0  0
  141.5550   73.0240  221.0100 C   0  0  0  0  0  0  0  0  0  0  0  0
  140.3130   72.8610  221.8110 C   0  0  0  0  0  0  0  0  0  0  0  0
  139.8010   71.5220  222.0890 C   0  0  0  0  0  0  0  0  0  0  0  0
  139.2100   70.7930  221.0800 C   0  0  0  0  0  0  0  0  0  0  0  0
  138.6980   69.5270  221.2540 C   0  0  0  0  0  0  0  0  0  0  0  0
  138.7930   68.9740  222.5210 C   0  0  0  0  0  0  0  0  0  0  0  0
  139.3720   69.6480  223.5750 C   0  0  0  0  0  0  0  0  0  0  0  0
  139.4400   69.0190  224.8730 C   0  0  0  0  0  0  0  0  0  0  0  0
  139.2190   67.7890  224.9460 O   0  0  0  0  0  0  0  0  0  0  0  0
  139.7390   69.6970  226.0830 N   0  0  0  0  0  0  0  0  0  0  0  0
  139.7770   68.9370  227.3280 C   0  0  0  0  0  0  0  0  0  0  0  0
  141.0440   69.3400  228.0840 C   0  0  0  0  0  0  0  0  0  0  0  0
  140.9420   70.6850  228.3790 O   0  0  0  0  0  0  0  0  0  0  0  0
  141.0970   71.4030  227.1990 C   0  0  0  0  0  0  0  0  0  0  0  0
  140.0160   71.1110  226.1780 C   0  0  0  0  0  0  0  0  0  0  0  0
  139.8730   70.9320  223.3290 C   0  0  0  0  0  0  0  0  0  0  0  0
  139.6490   73.8590  222.2890 N   0  0  0  0  0  0  0  0  0  0  0  0
  139.9860   75.2180  222.1310 C   0  0  0  0  0  0  0  0  0  0  0  0
  139.1700   76.1780  222.7060 C   0  0  0  0  0  0  0  0  0  0  0  0
  139.5010   77.5110  222.5520 C   0  0  0  0  0  0  0  0  0  0  0  0
  140.6290   77.8530  221.8350 C   0  0  0  0  0  0  0  0  0  0  0  0
  140.9410   79.2730  221.6990 C   0  0  0  0  0  0  0  0  0  0  0  0
  141.4860   79.9020  222.8200 C   0  0  0  0  0  0  0  0  0  0  0  0
  141.8180   81.2600  222.7860 C   0  0  0  0  0  0  0  0  0  0  0  0
  141.5760   81.9260  221.5890 C   0  0  0  0  0  0  0  0  0  0  0  0
  141.0490   81.2900  220.5250 N   0  0  0  0  0  0  0  0  0  0  0  0
  140.7230   79.9840  220.5390 C   0  0  0  0  0  0  0  0  0  0  0  0
  141.4440   76.8730  221.2590 C   0  0  0  0  0  0  0  0  0  0  0  0
  141.1070   75.5420  221.4160 C   0  0  0  0  0  0  0  0  0  0  0  0
  141.4041   72.5798  220.0150 H   0  0  0  0  0  0  0  0  0  0  0  0
  142.3815   72.5190  221.5314 H   0  0  0  0  0  0  0  0  0  0  0  0
  139.1437   71.2476  220.0805 H   0  0  0  0  0  0  0  0  0  0  0  0
  138.2330   68.9775  220.4222 H   0  0  0  0  0  0  0  0  0  0  0  0
  138.3931   67.9635  222.6914 H   0  0  0  0  0  0  0  0  0  0  0  0
  138.8895   69.1689  227.9351 H   0  0  0  0  0  0  0  0  0  0  0  0
  139.7819   67.8571  227.1187 H   0  0  0  0  0  0  0  0  0  0  0  0
  141.1282   68.7572  229.0131 H   0  0  0  0  0  0  0  0  0  0  0  0
  141.9378   69.1443  227.4735 H   0  0  0  0  0  0  0  0  0  0  0  0
  141.0727   72.4767  227.4370 H   0  0  0  0  0  0  0  0  0  0  0  0
  142.0570   71.1006  226.7552 H   0  0  0  0  0  0  0  0  0  0  0  0
  139.0954   71.6355  226.4736 H   0  0  0  0  0  0  0  0  0  0  0  0
  140.3693   71.4580  225.1958 H   0  0  0  0  0  0  0  0  0  0  0  0
  140.3400   71.4876  224.1556 H   0  0  0  0  0  0  0  0  0  0  0  0
  138.2751   75.8850  223.2746 H   0  0  0  0  0  0  0  0  0  0  0  0
  138.8696   78.2936  222.9979 H   0  0  0  0  0  0  0  0  0  0  0  0
  141.6560   79.3232  223.7398 H   0  0  0  0  0  0  0  0  0  0  0  0
  142.2473   81.7738  223.6587 H   0  0  0  0  0  0  0  0  0  0  0  0
  141.8204   82.9956  221.5096 H   0  0  0  0  0  0  0  0  0  0  0  0
  140.2948   79.4983  219.6498 H   0  0  0  0  0  0  0  0  0  0  0  0
  142.3407   77.1578  220.6890 H   0  0  0  0  0  0  0  0  0  0  0  0
  1  2  2  0
  2  3  1  0
  3  4  1  0
  4  5  1  0
  5  6  2  0
  6  7  1  0
  7  8  2  0
  8  9  1  0
  9 10  1  0
 10 11  2  0
 10 12  1  0
 12 13  1  0
 13 14  1  0
 14 15  1  0
 15 16  1  0
 16 17  1  0
  9 18  2  0
  4 19  2  0
 19 20  1  0
 20 21  2  0
 21 22  1  0
 22 23  2  0
 23 24  1  0
 24 25  2  0
 25 26  1  0
 26 27  2  0
 27 28  1  0
 28 29  2  0
 23 30  1  0
 30 31  2  0
 31  2  1  0
 18  5  1  0
 31 20  1  0
 17 12  1  0
 29 24  1  0
  3 32  1  0
  3 33  1  0
  6 34  1  0
  7 35  1  0
  8 36  1  0
 13 37  1  0
 13 38  1  0
 14 39  1  0
 14 40  1  0
 16 41  1  0
 16 42  1  0
 17 43  1  0
 17 44  1  0
 18 45  1  0
 21 46  1  0
 22 47  1  0
 25 48  1  0
 26 49  1  0
 27 50  1  0
 29 51  1  0
 30 52  1  0
M  END
>  <smiles>  (46) 
O=C1CC(c2cccc(C(=O)N3CCOCC3)c2)=Nc2ccc(-c3cccnc3)cc21

>  <score_type>  (46) 
oracle

>  <origin>  (46) 
autodockgpu

>  <m_score__min__energy>  (46) 
-9.0999999999999996

>  <m_primary>  (46) 
energy

>  <rmsd>  (46) 
6.841444116937301

>  <m_score__min__rmsd>  (46) 
6.841444116937301

>  <meeko>  (46) 
{"free_energy": -9.08, "intermolecular_energy": -9.97, "internal_energy": -0.71, "cluster_size": 44, "cluster_id": 1, "rank_in_cluster": 13}

>  <energy>  (46) 
-7.92

>  <cluster_rmsd>  (46) 
0.21

>  <cluster>  (46) 
2

$$$$

     RDKit          3D

 52 56  0  0  0  0  0  0  0  0999 V2000
  136.5360   76.0510  221.8690 O   0  0  0  0  0  0  0  0  0  0  0  0
  137.6110   75.3900  221.9250 C   0  0  0  0  0  0  0  0  0  0  0  0
  137.5130   73.9190  222.0010 C   0  0  0  0  0  0  0  0  0  0  0  0
  138.8670   73.3070  222.0580 C   0  0  0  0  0  0  0  0  0  0  0  0
  139.0020   71.8540  222.1300 C   0  0  0  0  0  0  0  0  0  0  0  0
  139.0780   71.1160  220.9690 C   0  0  0  0  0  0  0  0  0  0  0  0
  139.2040   69.7450  220.9440 C   0  0  0  0  0  0  0  0  0  0  0  0
  139.2540   69.0920  222.1650 C   0  0  0  0  0  0  0  0  0  0  0  0
  139.1840   69.7690  223.3640 C   0  0  0  0  0  0  0  0  0  0  0  0
  139.2400   69.0310  224.6040 C   0  0  0  0  0  0  0  0  0  0  0  0
  138.9510   67.8130  224.5810 O   0  0  0  0  0  0  0  0  0  0  0  0
  139.6030   69.5880  225.8580 N   0  0  0  0  0  0  0  0  0  0  0  0
  139.6210   68.7260  227.0350 C   0  0  0  0  0  0  0  0  0  0  0  0
  140.9240   68.9930  227.7900 C   0  0  0  0  0  0  0  0  0  0  0  0
  140.9060   70.3120  228.1970 O   0  0  0  0  0  0  0  0  0  0  0  0
  141.0790   71.1160  227.0760 C   0  0  0  0  0  0  0  0  0  0  0  0
  139.9630   70.9710  226.0620 C   0  0  0  0  0  0  0  0  0  0  0  0
  139.0580   71.1620  223.3170 C   0  0  0  0  0  0  0  0  0  0  0  0
  139.9540   74.0010  222.0420 N   0  0  0  0  0  0  0  0  0  0  0  0
  140.0270   75.4060  221.9700 C   0  0  0  0  0  0  0  0  0  0  0  0
  141.2740   76.0090  221.9620 C   0  0  0  0  0  0  0  0  0  0  0  0
  141.3450   77.3870  221.8910 C   0  0  0  0  0  0  0  0  0  0  0  0
  140.1830   78.1270  221.8300 C   0  0  0  0  0  0  0  0  0  0  0  0
  140.3060   79.5800  221.7550 C   0  0  0  0  0  0  0  0  0  0  0  0
  141.2050   80.1760  222.6420 C   0  0  0  0  0  0  0  0  0  0  0  0
  141.3920   81.5620  222.6440 C   0  0  0  0  0  0  0  0  0  0  0  0
  140.6400   82.2890  221.7260 C   0  0  0  0  0  0  0  0  0  0  0  0
  139.7810   81.6830  220.8850 N   0  0  0  0  0  0  0  0  0  0  0  0
  139.5880   80.3520  220.8670 C   0  0  0  0  0  0  0  0  0  0  0  0
  138.9300   77.5050  221.8390 C   0  0  0  0  0  0  0  0  0  0  0  0
  138.8640   76.1260  221.9110 C   0  0  0  0  0  0  0  0  0  0  0  0
  136.9518   73.6402  222.9051 H   0  0  0  0  0  0  0  0  0  0  0  0
  136.9948   73.5510  221.1032 H   0  0  0  0  0  0  0  0  0  0  0  0
  139.0357   71.6515  220.0091 H   0  0  0  0  0  0  0  0  0  0  0  0
  139.2625   69.1918  219.9950 H   0  0  0  0  0  0  0  0  0  0  0  0
  139.3529   67.9965  222.1782 H   0  0  0  0  0  0  0  0  0  0  0  0
  138.7606   68.9561  227.6805 H   0  0  0  0  0  0  0  0  0  0  0  0
  139.5587   67.6687  226.7380 H   0  0  0  0  0  0  0  0  0  0  0  0
  140.9929   68.3308  228.6657 H   0  0  0  0  0  0  0  0  0  0  0  0
  141.7926   68.7993  227.1434 H   0  0  0  0  0  0  0  0  0  0  0  0
  141.1218   72.1658  227.4015 H   0  0  0  0  0  0  0  0  0  0  0  0
  142.0108   70.7982  226.5854 H   0  0  0  0  0  0  0  0  0  0  0  0
  139.0804   71.5196  226.4225 H   0  0  0  0  0  0  0  0  0  0  0  0
  140.3160   71.3784  225.1031 H   0  0  0  0  0  0  0  0  0  0  0  0
  139.0018   71.7225  224.2618 H   0  0  0  0  0  0  0  0  0  0  0  0
  142.1903   75.4023  222.0112 H   0  0  0  0  0  0  0  0  0  0  0  0
  142.3228   77.8909  221.8832 H   0  0  0  0  0  0  0  0  0  0  0  0
  141.7717   79.5491  223.3461 H   0  0  0  0  0  0  0  0  0  0  0  0
  142.0955   82.0511  223.3339 H   0  0  0  0  0  0  0  0  0  0  0  0
  140.7499   83.3828  221.6867 H   0  0  0  0  0  0  0  0  0  0  0  0
  138.8776   79.8927  220.1639 H   0  0  0  0  0  0  0  0  0  0  0  0
  138.0095   78.1052  221.7895 H   0  0  0  0  0  0  0  0  0  0  0  0
  1  2  2  0
  2  3  1  0
  3  4  1  0
  4  5  1  0
  5  6  2  0
  6  7  1  0
  7  8  2  0
  8  9  1  0
  9 10  1  0
 10 11  2  0
 10 12  1  0
 12 13  1  0
 13 14  1  0
 14 15  1  0
 15 16  1  0
 16 17  1  0
  9 18  2  0
  4 19  2  0
 19 20  1  0
 20 21  2  0
 21 22  1  0
 22 23  2  0
 23 24  1  0
 24 25  2  0
 25 26  1  0
 26 27  2  0
 27 28  1  0
 28 29  2  0
 23 30  1  0
 30 31  2  0
 31  2  1  0
 18  5  1  0
 31 20  1  0
 17 12  1  0
 29 24  1  0
  3 32  1  0
  3 33  1  0
  6 34  1  0
  7 35  1  0
  8 36  1  0
 13 37  1  0
 13 38  1  0
 14 39  1  0
 14 40  1  0
 16 41  1  0
 16 42  1  0
 17 43  1  0
 17 44  1  0
 18 45  1  0
 21 46  1  0
 22 47  1  0
 25 48  1  0
 26 49  1  0
 27 50  1  0
 29 51  1  0
 30 52  1  0
M  END
>  <smiles>  (47) 
O=C1CC(c2cccc(C(=O)N3CCOCC3)c2)=Nc2ccc(-c3cccnc3)cc21

>  <score_type>  (47) 
oracle

>  <origin>  (47) 
autodockgpu

>  <m_score__min__energy>  (47) 
-9.0999999999999996

>  <m_primary>  (47) 
energy

>  <rmsd>  (47) 
6.834455664126981

>  <m_score__min__rmsd>  (47) 
6.834455664126981

>  <meeko>  (47) 
{"free_energy": -8.04, "intermolecular_energy": -8.93, "internal_energy": -0.74, "cluster_size": 44, "cluster_id": 1, "rank_in_cluster": 42}

>  <energy>  (47) 
-7.92

>  <cluster_rmsd>  (47) 
0.21

>  <cluster>  (47) 
2

$$$$

     RDKit          3D

 52 56  0  0  0  0  0  0  0  0999 V2000
  141.6590   81.1390  223.9040 O   0  0  0  0  0  0  0  0  0  0  0  0
  141.0990   80.2950  223.1500 C   0  0  0  0  0  0  0  0  0  0  0  0
  141.9400   79.5860  222.1650 C   0  0  0  0  0  0  0  0  0  0  0  0
  141.1240   78.6340  221.3670 C   0  0  0  0  0  0  0  0  0  0  0  0
  141.7610   77.8210  220.3350 C   0  0  0  0  0  0  0  0  0  0  0  0
  142.2190   78.4180  219.1800 C   0  0  0  0  0  0  0  0  0  0  0  0
  142.8280   77.7290  218.1560 C   0  0  0  0  0  0  0  0  0  0  0  0
  142.9790   76.3600  218.3150 C   0  0  0  0  0  0  0  0  0  0  0  0
  142.5430   75.7000  219.4450 C   0  0  0  0  0  0  0  0  0  0  0  0
  142.7270   74.2720  219.5510 C   0  0  0  0  0  0  0  0  0  0  0  0
  141.7870   73.5260  219.1950 O   0  0  0  0  0  0  0  0  0  0  0  0
  143.9050   73.6440  220.0330 N   0  0  0  0  0  0  0  0  0  0  0  0
  143.9590   72.1870  220.0850 C   0  0  0  0  0  0  0  0  0  0  0  0
  145.2980   71.7470  219.4910 C   0  0  0  0  0  0  0  0  0  0  0  0
  146.2970   72.2640  220.2910 O   0  0  0  0  0  0  0  0  0  0  0  0
  146.3540   73.6380  220.0850 C   0  0  0  0  0  0  0  0  0  0  0  0
  145.0790   74.3530  220.4840 C   0  0  0  0  0  0  0  0  0  0  0  0
  141.9330   76.4610  220.4480 C   0  0  0  0  0  0  0  0  0  0  0  0
  139.8550   78.4790  221.5420 N   0  0  0  0  0  0  0  0  0  0  0  0
  139.0680   79.1660  222.4870 C   0  0  0  0  0  0  0  0  0  0  0  0
  137.7130   78.8890  222.5550 C   0  0  0  0  0  0  0  0  0  0  0  0
  136.9410   79.5620  223.4830 C   0  0  0  0  0  0  0  0  0  0  0  0
  137.5330   80.4890  224.3150 C   0  0  0  0  0  0  0  0  0  0  0  0
  136.6810   81.1760  225.2810 C   0  0  0  0  0  0  0  0  0  0  0  0
  137.3230   82.0150  226.1940 C   0  0  0  0  0  0  0  0  0  0  0  0
  136.5900   82.7160  227.1570 C   0  0  0  0  0  0  0  0  0  0  0  0
  135.2120   82.5270  227.1440 C   0  0  0  0  0  0  0  0  0  0  0  0
  134.6230   81.7100  226.2500 N   0  0  0  0  0  0  0  0  0  0  0  0
  135.3110   81.0280  225.3160 C   0  0  0  0  0  0  0  0  0  0  0  0
  138.9040   80.7590  224.2360 C   0  0  0  0  0  0  0  0  0  0  0  0
  139.6700   80.0840  223.3060 C   0  0  0  0  0  0  0  0  0  0  0  0
  142.4018   80.3207  221.4890 H   0  0  0  0  0  0  0  0  0  0  0  0
  142.7163   79.0222  222.7031 H   0  0  0  0  0  0  0  0  0  0  0  0
  142.0906   79.5050  219.0707 H   0  0  0  0  0  0  0  0  0  0  0  0
  143.1802   78.2429  217.2494 H   0  0  0  0  0  0  0  0  0  0  0  0
  143.4622   75.7814  217.5140 H   0  0  0  0  0  0  0  0  0  0  0  0
  143.8826   71.8468  221.1283 H   0  0  0  0  0  0  0  0  0  0  0  0
  143.1246   71.7511  219.5160 H   0  0  0  0  0  0  0  0  0  0  0  0
  145.3595   70.6488  219.4760 H   0  0  0  0  0  0  0  0  0  0  0  0
  145.4017   72.1108  218.4581 H   0  0  0  0  0  0  0  0  0  0  0  0
  147.1849   74.0467  220.6788 H   0  0  0  0  0  0  0  0  0  0  0  0
  146.4980   73.8020  219.0069 H   0  0  0  0  0  0  0  0  0  0  0  0
  145.0455   74.4368  221.5803 H   0  0  0  0  0  0  0  0  0  0  0  0
  145.0814   75.3467  220.0123 H   0  0  0  0  0  0  0  0  0  0  0  0
  141.5789   75.9545  221.3580 H   0  0  0  0  0  0  0  0  0  0  0  0
  137.2591   78.1464  221.8823 H   0  0  0  0  0  0  0  0  0  0  0  0
  135.8623   79.3598  223.5575 H   0  0  0  0  0  0  0  0  0  0  0  0
  138.4167   82.1258  226.1555 H   0  0  0  0  0  0  0  0  0  0  0  0
  137.0770   83.3810  227.8854 H   0  0  0  0  0  0  0  0  0  0  0  0
  134.5896   83.0566  227.8803 H   0  0  0  0  0  0  0  0  0  0  0  0
  134.7947   80.3710  224.6006 H   0  0  0  0  0  0  0  0  0  0  0  0
  139.3655   81.4993  224.9060 H   0  0  0  0  0  0  0  0  0  0  0  0
  1  2  2  0
  2  3  1  0
  3  4  1  0
  4  5  1  0
  5  6  2  0
  6  7  1  0
  7  8  2  0
  8  9  1  0
  9 10  1  0
 10 11  2  0
 10 12  1  0
 12 13  1  0
 13 14  1  0
 14 15  1  0
 15 16  1  0
 16 17  1  0
  9 18  2  0
  4 19  2  0
 19 20  1  0
 20 21  2  0
 21 22  1  0
 22 23  2  0
 23 24  1  0
 24 25  2  0
 25 26  1  0
 26 27  2  0
 27 28  1  0
 28 29  2  0
 23 30  1  0
 30 31  2  0
 31  2  1  0
 18  5  1  0
 31 20  1  0
 17 12  1  0
 29 24  1  0
  3 32  1  0
  3 33  1  0
  6 34  1  0
  7 35  1  0
  8 36  1  0
 13 37  1  0
 13 38  1  0
 14 39  1  0
 14 40  1  0
 16 41  1  0
 16 42  1  0
 17 43  1  0
 17 44  1  0
 18 45  1  0
 21 46  1  0
 22 47  1  0
 25 48  1  0
 26 49  1  0
 27 50  1  0
 29 51  1  0
 30 52  1  0
M  END
>  <smiles>  (48) 
O=C1CC(c2cccc(C(=O)N3CCOCC3)c2)=Nc2ccc(-c3cccnc3)cc21

>  <score_type>  (48) 
oracle

>  <origin>  (48) 
autodockgpu

>  <m_score__min__energy>  (48) 
-9.0999999999999996

>  <m_primary>  (48) 
energy

>  <rmsd>  (48) 
8.982164009275765

>  <m_score__min__rmsd>  (48) 
8.982164009275765

>  <meeko>  (48) 
{"free_energy": -7.92, "intermolecular_energy": -8.82, "internal_energy": -0.95, "cluster_size": 5, "cluster_id": 2, "rank_in_cluster": 1}

>  <energy>  (48) 
-7.91

>  <cluster_rmsd>  (48) 
0.05

>  <cluster>  (48) 
2

$$$$

     RDKit          3D

 52 56  0  0  0  0  0  0  0  0999 V2000
  142.8790   74.6690  220.3820 O   0  0  0  0  0  0  0  0  0  0  0  0
  141.8030   74.4320  221.0000 C   0  0  0  0  0  0  0  0  0  0  0  0
  141.3990   73.0230  221.1660 C   0  0  0  0  0  0  0  0  0  0  0  0
  140.1180   72.9300  221.9150 C   0  0  0  0  0  0  0  0  0  0  0  0
  139.5370   71.6200  222.1970 C   0  0  0  0  0  0  0  0  0  0  0  0
  138.7430   71.0060  221.2510 C   0  0  0  0  0  0  0  0  0  0  0  0
  138.1530   69.7750  221.4340 C   0  0  0  0  0  0  0  0  0  0  0  0
  138.3830   69.1360  222.6420 C   0  0  0  0  0  0  0  0  0  0  0  0
  139.1670   69.6930  223.6310 C   0  0  0  0  0  0  0  0  0  0  0  0
  139.3670   68.9780  224.8690 C   0  0  0  0  0  0  0  0  0  0  0  0
  139.2110   67.7350  224.8670 O   0  0  0  0  0  0  0  0  0  0  0  0
  139.7310   69.5830  226.0990 N   0  0  0  0  0  0  0  0  0  0  0  0
  139.9040   68.7400  227.2780 C   0  0  0  0  0  0  0  0  0  0  0  0
  141.2070   69.1540  227.9620 C   0  0  0  0  0  0  0  0  0  0  0  0
  141.0670   70.4670  228.3640 O   0  0  0  0  0  0  0  0  0  0  0  0
  141.0930   71.2740  227.2320 C   0  0  0  0  0  0  0  0  0  0  0  0
  139.9480   70.9990  226.2780 C   0  0  0  0  0  0  0  0  0  0  0  0
  139.7370   70.9460  223.3790 C   0  0  0  0  0  0  0  0  0  0  0  0
  139.4770   73.9640  222.3440 N   0  0  0  0  0  0  0  0  0  0  0  0
  139.8800   75.3040  222.1750 C   0  0  0  0  0  0  0  0  0  0  0  0
  139.0820   76.3100  222.6940 C   0  0  0  0  0  0  0  0  0  0  0  0
  139.4770   77.6240  222.5290 C   0  0  0  0  0  0  0  0  0  0  0  0
  140.6480   77.9030  221.8560 C   0  0  0  0  0  0  0  0  0  0  0  0
  141.0270   79.3050  221.7060 C   0  0  0  0  0  0  0  0  0  0  0  0
  141.4360   79.9680  222.8650 C   0  0  0  0  0  0  0  0  0  0  0  0
  141.8180   81.3120  222.8200 C   0  0  0  0  0  0  0  0  0  0  0  0
  141.7660   81.9290  221.5750 C   0  0  0  0  0  0  0  0  0  0  0  0
  141.3670   81.2620  220.4760 N   0  0  0  0  0  0  0  0  0  0  0  0
  140.9950   79.9690  220.4990 C   0  0  0  0  0  0  0  0  0  0  0  0
  141.4440   76.8770  221.3360 C   0  0  0  0  0  0  0  0  0  0  0  0
  141.0430   75.5650  221.5030 C   0  0  0  0  0  0  0  0  0  0  0  0
  141.2719   72.5642  220.1743 H   0  0  0  0  0  0  0  0  0  0  0  0
  142.1800   72.4949  221.7327 H   0  0  0  0  0  0  0  0  0  0  0  0
  138.5716   71.5281  220.2981 H   0  0  0  0  0  0  0  0  0  0  0  0
  137.5257   69.3184  220.6543 H   0  0  0  0  0  0  0  0  0  0  0  0
  137.9250   68.1515  222.8182 H   0  0  0  0  0  0  0  0  0  0  0  0
  139.0583   68.8821  227.9669 H   0  0  0  0  0  0  0  0  0  0  0  0
  139.9420   67.6792  226.9894 H   0  0  0  0  0  0  0  0  0  0  0  0
  141.3928   68.5118  228.8355 H   0  0  0  0  0  0  0  0  0  0  0  0
  142.0567   69.0494  227.2713 H   0  0  0  0  0  0  0  0  0  0  0  0
  141.0381   72.3254  227.5506 H   0  0  0  0  0  0  0  0  0  0  0  0
  142.0272   71.0541  226.6944 H   0  0  0  0  0  0  0  0  0  0  0  0
  139.0306   71.4520  226.6820 H   0  0  0  0  0  0  0  0  0  0  0  0
  140.2042   71.4331  225.3003 H   0  0  0  0  0  0  0  0  0  0  0  0
  140.3670   71.4080  224.1534 H   0  0  0  0  0  0  0  0  0  0  0  0
  138.1511   76.0676  223.2276 H   0  0  0  0  0  0  0  0  0  0  0  0
  138.8615   78.4419  222.9318 H   0  0  0  0  0  0  0  0  0  0  0  0
  141.4578   79.4274  223.8227 H   0  0  0  0  0  0  0  0  0  0  0  0
  142.1424   81.8526  223.7214 H   0  0  0  0  0  0  0  0  0  0  0  0
  142.0575   82.9860  221.4862 H   0  0  0  0  0  0  0  0  0  0  0  0
  140.6743   79.4565  219.5800 H   0  0  0  0  0  0  0  0  0  0  0  0
  142.3764   77.1112  220.8014 H   0  0  0  0  0  0  0  0  0  0  0  0
  1  2  2  0
  2  3  1  0
  3  4  1  0
  4  5  1  0
  5  6  2  0
  6  7  1  0
  7  8  2  0
  8  9  1  0
  9 10  1  0
 10 11  2  0
 10 12  1  0
 12 13  1  0
 13 14  1  0
 14 15  1  0
 15 16  1  0
 16 17  1  0
  9 18  2  0
  4 19  2  0
 19 20  1  0
 20 21  2  0
 21 22  1  0
 22 23  2  0
 23 24  1  0
 24 25  2  0
 25 26  1  0
 26 27  2  0
 27 28  1  0
 28 29  2  0
 23 30  1  0
 30 31  2  0
 31  2  1  0
 18  5  1  0
 31 20  1  0
 17 12  1  0
 29 24  1  0
  3 32  1  0
  3 33  1  0
  6 34  1  0
  7 35  1  0
  8 36  1  0
 13 37  1  0
 13 38  1  0
 14 39  1  0
 14 40  1  0
 16 41  1  0
 16 42  1  0
 17 43  1  0
 17 44  1  0
 18 45  1  0
 21 46  1  0
 22 47  1  0
 25 48  1  0
 26 49  1  0
 27 50  1  0
 29 51  1  0
 30 52  1  0
M  END
>  <smiles>  (49) 
O=C1CC(c2cccc(C(=O)N3CCOCC3)c2)=Nc2ccc(-c3cccnc3)cc21

>  <score_type>  (49) 
oracle

>  <origin>  (49) 
autodockgpu

>  <m_score__min__energy>  (49) 
-9.0999999999999996

>  <m_primary>  (49) 
energy

>  <rmsd>  (49) 
6.827823197189209

>  <m_score__min__rmsd>  (49) 
6.827823197189209

>  <meeko>  (49) 
{"free_energy": -8.96, "intermolecular_energy": -9.86, "internal_energy": -0.76, "cluster_size": 44, "cluster_id": 1, "rank_in_cluster": 28}

>  <energy>  (49) 
-7.77

>  <cluster_rmsd>  (49) 
0.59

>  <cluster>  (49) 
2

$$$$

     RDKit          3D

 52 56  0  0  0  0  0  0  0  0999 V2000
  136.4120   76.0380  221.3880 O   0  0  0  0  0  0  0  0  0  0  0  0
  137.4880   75.4300  221.6470 C   0  0  0  0  0  0  0  0  0  0  0  0
  137.4470   73.9560  221.7200 C   0  0  0  0  0  0  0  0  0  0  0  0
  138.7940   73.4090  222.0290 C   0  0  0  0  0  0  0  0  0  0  0  0
  138.9810   71.9650  222.1420 C   0  0  0  0  0  0  0  0  0  0  0  0
  139.1460   71.2060  221.0030 C   0  0  0  0  0  0  0  0  0  0  0  0
  139.3260   69.8410  221.0160 C   0  0  0  0  0  0  0  0  0  0  0  0
  139.3370   69.2160  222.2520 C   0  0  0  0  0  0  0  0  0  0  0  0
  139.1770   69.9140  223.4310 C   0  0  0  0  0  0  0  0  0  0  0  0
  139.1960   69.2050  224.6880 C   0  0  0  0  0  0  0  0  0  0  0  0
  138.8680   67.9970  224.6910 O   0  0  0  0  0  0  0  0  0  0  0  0
  139.5620   69.7800  225.9330 N   0  0  0  0  0  0  0  0  0  0  0  0
  139.5400   68.9470  227.1300 C   0  0  0  0  0  0  0  0  0  0  0  0
  140.8430   69.1900  227.8940 C   0  0  0  0  0  0  0  0  0  0  0  0
  140.8630   70.5180  228.2690 O   0  0  0  0  0  0  0  0  0  0  0  0
  141.0730   71.2900  227.1310 C   0  0  0  0  0  0  0  0  0  0  0  0
  139.9640   71.1560  226.1080 C   0  0  0  0  0  0  0  0  0  0  0  0
  139.0000   71.3000  223.3460 C   0  0  0  0  0  0  0  0  0  0  0  0
  139.8320   74.1540  222.2040 N   0  0  0  0  0  0  0  0  0  0  0  0
  139.8520   75.5610  222.1300 C   0  0  0  0  0  0  0  0  0  0  0  0
  141.0500   76.2230  222.3430 C   0  0  0  0  0  0  0  0  0  0  0  0
  141.0690   77.6030  222.2700 C   0  0  0  0  0  0  0  0  0  0  0  0
  139.9040   78.2860  221.9900 C   0  0  0  0  0  0  0  0  0  0  0  0
  139.9720   79.7430  221.9220 C   0  0  0  0  0  0  0  0  0  0  0  0
  141.2270   80.2980  221.6660 C   0  0  0  0  0  0  0  0  0  0  0  0
  141.3910   81.6840  221.5830 C   0  0  0  0  0  0  0  0  0  0  0  0
  140.2470   82.4540  221.7650 C   0  0  0  0  0  0  0  0  0  0  0  0
  139.0500   81.8870  222.0110 N   0  0  0  0  0  0  0  0  0  0  0  0
  138.8730   80.5560  222.0950 C   0  0  0  0  0  0  0  0  0  0  0  0
  138.7010   77.6050  221.7780 C   0  0  0  0  0  0  0  0  0  0  0  0
  138.6870   76.2250  221.8530 C   0  0  0  0  0  0  0  0  0  0  0  0
  136.7440   73.6527  222.5098 H   0  0  0  0  0  0  0  0  0  0  0  0
  137.1195   73.5621  220.7466 H   0  0  0  0  0  0  0  0  0  0  0  0
  139.1331   71.7192  220.0302 H   0  0  0  0  0  0  0  0  0  0  0  0
  139.4556   69.2710  220.0842 H   0  0  0  0  0  0  0  0  0  0  0  0
  139.4781   68.1259  222.2949 H   0  0  0  0  0  0  0  0  0  0  0  0
  138.6806   69.2200  227.7599 H   0  0  0  0  0  0  0  0  0  0  0  0
  139.4472   67.8854  226.8572 H   0  0  0  0  0  0  0  0  0  0  0  0
  140.8807   68.5474  228.7859 H   0  0  0  0  0  0  0  0  0  0  0  0
  141.7120   68.9527  227.2627 H   0  0  0  0  0  0  0  0  0  0  0  0
  141.1452   72.3454  227.4326 H   0  0  0  0  0  0  0  0  0  0  0  0
  141.9995   70.9318  226.6585 H   0  0  0  0  0  0  0  0  0  0  0  0
  139.0956   71.7410  226.4450 H   0  0  0  0  0  0  0  0  0  0  0  0
  140.3401   71.5286  225.1438 H   0  0  0  0  0  0  0  0  0  0  0  0
  138.8717   71.8770  224.2737 H   0  0  0  0  0  0  0  0  0  0  0  0
  141.9689   75.6609  222.5660 H   0  0  0  0  0  0  0  0  0  0  0  0
  142.0073   78.1531  222.4342 H   0  0  0  0  0  0  0  0  0  0  0  0
  142.0961   79.6379  221.5281 H   0  0  0  0  0  0  0  0  0  0  0  0
  142.3718   82.1408  221.3845 H   0  0  0  0  0  0  0  0  0  0  0  0
  140.3213   83.5499  221.7068 H   0  0  0  0  0  0  0  0  0  0  0  0
  137.8794   80.1290  222.2960 H   0  0  0  0  0  0  0  0  0  0  0  0
  137.7782   78.1604  221.5545 H   0  0  0  0  0  0  0  0  0  0  0  0
  1  2  2  0
  2  3  1  0
  3  4  1  0
  4  5  1  0
  5  6  2  0
  6  7  1  0
  7  8  2  0
  8  9  1  0
  9 10  1  0
 10 11  2  0
 10 12  1  0
 12 13  1  0
 13 14  1  0
 14 15  1  0
 15 16  1  0
 16 17  1  0
  9 18  2  0
  4 19  2  0
 19 20  1  0
 20 21  2  0
 21 22  1  0
 22 23  2  0
 23 24  1  0
 24 25  2  0
 25 26  1  0
 26 27  2  0
 27 28  1  0
 28 29  2  0
 23 30  1  0
 30 31  2  0
 31  2  1  0
 18  5  1  0
 31 20  1  0
 17 12  1  0
 29 24  1  0
  3 32  1  0
  3 33  1  0
  6 34  1  0
  7 35  1  0
  8 36  1  0
 13 37  1  0
 13 38  1  0
 14 39  1  0
 14 40  1  0
 16 41  1  0
 16 42  1  0
 17 43  1  0
 17 44  1  0
 18 45  1  0
 21 46  1  0
 22 47  1  0
 25 48  1  0
 26 49  1  0
 27 50  1  0
 29 51  1  0
 30 52  1  0
M  END
>  <smiles>  (50) 
O=C1CC(c2cccc(C(=O)N3CCOCC3)c2)=Nc2ccc(-c3cccnc3)cc21

>  <score_type>  (50) 
oracle

>  <origin>  (50) 
autodockgpu

>  <m_score__min__energy>  (50) 
-9.0999999999999996

>  <m_primary>  (50) 
energy

>  <rmsd>  (50) 
6.911627936572592

>  <m_score__min__rmsd>  (50) 
6.911627936572592

>  <meeko>  (50) 
{"free_energy": -7.98, "intermolecular_energy": -8.88, "internal_energy": -0.78, "cluster_size": 44, "cluster_id": 1, "rank_in_cluster": 43}

>  <energy>  (50) 
-7.65

>  <cluster_rmsd>  (50) 
0.0

>  <cluster>  (50) 
3

$$$$
