
     RDKit          3D

 37 38  0  0  0  0  0  0  0  0999 V2000
  141.8060   78.6380  223.6570 C   0  0  0  0  0  0  0  0  0  0  0  0
  141.0190   78.4300  222.4010 C   0  0  0  0  0  0  0  0  0  0  0  0
  141.3640   79.4920  221.4120 C   0  0  0  0  0  0  0  0  0  0  0  0
  141.1270   77.0940  221.8750 N   0  0  0  0  0  0  0  0  0  0  0  0
  140.0030   76.2170  221.9050 C   0  0  0  0  0  0  0  0  0  0  0  0
  138.9150   76.6150  222.3940 O   0  0  0  0  0  0  0  0  0  0  0  0
  140.1930   74.8500  221.3430 C   0  0  0  0  0  0  0  0  0  0  0  0
  139.9310   73.8410  222.3440 N   0  0  0  0  0  0  0  0  0  0  0  0
  140.6530   72.6140  222.4300 C   0  0  0  0  0  0  0  0  0  0  0  0
  141.5590   72.4180  221.5820 O   0  0  0  0  0  0  0  0  0  0  0  0
  140.3210   71.6460  223.4770 C   0  0  0  0  0  0  0  0  0  0  0  0
  139.6080   70.5290  223.0940 C   0  0  0  0  0  0  0  0  0  0  0  0
  139.2970   69.6130  224.0900 C   0  0  0  0  0  0  0  0  0  0  0  0
  139.6930   69.8330  225.3940 C   0  0  0  0  0  0  0  0  0  0  0  0
  139.4100   68.9540  226.4180 C   0  0  0  0  0  0  0  0  0  0  0  0
  139.8050   69.1710  227.7270 C   0  0  0  0  0  0  0  0  0  0  0  0
  140.5170   70.3110  228.0410 C   0  0  0  0  0  0  0  0  0  0  0  0
  140.8140   71.2080  227.0240 C   0  0  0  0  0  0  0  0  0  0  0  0
  140.4100   70.9760  225.7210 C   0  0  0  0  0  0  0  0  0  0  0  0
  140.7120   71.8710  224.7410 N   0  0  0  0  0  0  0  0  0  0  0  0
  141.1574   78.4666  224.5287 H   0  0  0  0  0  0  0  0  0  0  0  0
  142.6490   77.9318  223.6827 H   0  0  0  0  0  0  0  0  0  0  0  0
  142.1900   79.6685  223.6827 H   0  0  0  0  0  0  0  0  0  0  0  0
  139.9507   78.5288  222.6439 H   0  0  0  0  0  0  0  0  0  0  0  0
  141.6613   80.4070  221.9453 H   0  0  0  0  0  0  0  0  0  0  0  0
  142.1968   79.1486  220.7807 H   0  0  0  0  0  0  0  0  0  0  0  0
  140.4884   79.7036  220.7807 H   0  0  0  0  0  0  0  0  0  0  0  0
  142.0600   76.8090  221.4770 H   0  0  0  0  0  0  0  0  0  0  0  0
  139.5020   74.7082  220.4989 H   0  0  0  0  0  0  0  0  0  0  0  0
  141.2354   74.7496  221.0065 H   0  0  0  0  0  0  0  0  0  0  0  0
  139.1810   73.9910  223.0530 H   0  0  0  0  0  0  0  0  0  0  0  0
  139.3006   70.3715  222.0496 H   0  0  0  0  0  0  0  0  0  0  0  0
  138.7304   68.7045  223.8379 H   0  0  0  0  0  0  0  0  0  0  0  0
  138.8452   68.0395  226.1844 H   0  0  0  0  0  0  0  0  0  0  0  0
  139.5535   68.4409  228.5104 H   0  0  0  0  0  0  0  0  0  0  0  0
  140.8418   70.5044  229.0740 H   0  0  0  0  0  0  0  0  0  0  0  0
  141.3814   72.1207  227.2584 H   0  0  0  0  0  0  0  0  0  0  0  0
  1  2  1  0
  2  3  1  0
  2  4  1  0
  4  5  1  0
  5  6  2  0
  5  7  1  0
  7  8  1  0
  8  9  1  0
  9 10  2  0
  9 11  1  0
 11 12  2  0
 12 13  1  0
 13 14  2  0
 14 15  1  0
 15 16  2  0
 16 17  1  0
 17 18  2  0
 18 19  1  0
 19 20  2  0
 20 11  1  0
 19 14  1  0
  1 21  1  0
  1 22  1  0
  1 23  1  0
  2 24  1  0
  3 25  1  0
  3 26  1  0
  3 27  1  0
  4 28  1  0
  7 29  1  0
  7 30  1  0
  8 31  1  0
 12 32  1  0
 13 33  1  0
 15 34  1  0
 16 35  1  0
 17 36  1  0
 18 37  1  0
M  END
>  <smiles>  (1) 
CC(C)NC(=O)CNC(=O)c1ccc2ccccc2n1

>  <score_type>  (1) 
oracle

>  <origin>  (1) 
autodockgpu

>  <m_score__min__energy>  (1) 
-7.2300000000000004

>  <m_primary>  (1) 
energy

>  <rmsd>  (1) 
2.600370929783902

>  <m_score__min__rmsd>  (1) 
2.600370929783902

>  <meeko>  (1) 
{"free_energy": -7.14, "intermolecular_energy": -8.33, "internal_energy": -0.79, "cluster_size": 31, "cluster_id": 1, "rank_in_cluster": 10}

>  <energy>  (1) 
-7.23

>  <cluster_rmsd>  (1) 
0.0

>  <cluster>  (1) 
1

$$$$

     RDKit          3D

 37 38  0  0  0  0  0  0  0  0999 V2000
  143.5490   74.7080  218.7320 C   0  0  0  0  0  0  0  0  0  0  0  0
  143.3990   73.5770  219.7010 C   0  0  0  0  0  0  0  0  0  0  0  0
  144.3610   73.7510  220.8270 C   0  0  0  0  0  0  0  0  0  0  0  0
  142.0400   73.3700  220.1280 N   0  0  0  0  0  0  0  0  0  0  0  0
  141.2790   74.4560  220.6550 C   0  0  0  0  0  0  0  0  0  0  0  0
  141.8000   75.5960  220.7440 O   0  0  0  0  0  0  0  0  0  0  0  0
  139.8800   74.1630  221.0770 C   0  0  0  0  0  0  0  0  0  0  0  0
  139.8620   73.3810  222.2910 N   0  0  0  0  0  0  0  0  0  0  0  0
  140.1730   71.9900  222.3350 C   0  0  0  0  0  0  0  0  0  0  0  0
  140.4750   71.4320  221.2500 O   0  0  0  0  0  0  0  0  0  0  0  0
  140.1290   71.2740  223.6110 C   0  0  0  0  0  0  0  0  0  0  0  0
  139.5830   70.0070  223.6010 C   0  0  0  0  0  0  0  0  0  0  0  0
  139.5460   69.3320  224.8130 C   0  0  0  0  0  0  0  0  0  0  0  0
  140.0380   69.9210  225.9600 C   0  0  0  0  0  0  0  0  0  0  0  0
  140.0240   69.2920  227.1870 C   0  0  0  0  0  0  0  0  0  0  0  0
  140.5160   69.8790  228.3400 C   0  0  0  0  0  0  0  0  0  0  0  0
  141.0500   71.1500  228.2790 C   0  0  0  0  0  0  0  0  0  0  0  0
  141.0740   71.8000  227.0530 C   0  0  0  0  0  0  0  0  0  0  0  0
  140.5770   71.1990  225.9110 C   0  0  0  0  0  0  0  0  0  0  0  0
  140.6110   71.8570  224.7200 N   0  0  0  0  0  0  0  0  0  0  0  0
  143.6740   75.6506  219.2851 H   0  0  0  0  0  0  0  0  0  0  0  0
  144.4320   74.5342  218.0994 H   0  0  0  0  0  0  0  0  0  0  0  0
  142.6513   74.7704  218.0994 H   0  0  0  0  0  0  0  0  0  0  0  0
  143.6543   72.6415  219.1817 H   0  0  0  0  0  0  0  0  0  0  0  0
  143.8269   73.6544  221.7838 H   0  0  0  0  0  0  0  0  0  0  0  0
  145.1427   72.9797  220.7639 H   0  0  0  0  0  0  0  0  0  0  0  0
  144.8230   74.7473  220.7639 H   0  0  0  0  0  0  0  0  0  0  0  0
  141.6500   72.3960  220.0330 H   0  0  0  0  0  0  0  0  0  0  0  0
  139.3501   75.1111  221.2512 H   0  0  0  0  0  0  0  0  0  0  0  0
  139.3854   73.5877  220.2805 H   0  0  0  0  0  0  0  0  0  0  0  0
  139.6130   73.8310  223.1990 H   0  0  0  0  0  0  0  0  0  0  0  0
  139.1956   69.5536  222.6767 H   0  0  0  0  0  0  0  0  0  0  0  0
  139.1208   68.3186  224.8599 H   0  0  0  0  0  0  0  0  0  0  0  0
  139.6028   68.2779  227.2525 H   0  0  0  0  0  0  0  0  0  0  0  0
  140.4816   69.3370  229.2966 H   0  0  0  0  0  0  0  0  0  0  0  0
  141.4476   71.6369  229.1817 H   0  0  0  0  0  0  0  0  0  0  0  0
  141.4968   72.8134  226.9884 H   0  0  0  0  0  0  0  0  0  0  0  0
  1  2  1  0
  2  3  1  0
  2  4  1  0
  4  5  1  0
  5  6  2  0
  5  7  1  0
  7  8  1  0
  8  9  1  0
  9 10  2  0
  9 11  1  0
 11 12  2  0
 12 13  1  0
 13 14  2  0
 14 15  1  0
 15 16  2  0
 16 17  1  0
 17 18  2  0
 18 19  1  0
 19 20  2  0
 20 11  1  0
 19 14  1  0
  1 21  1  0
  1 22  1  0
  1 23  1  0
  2 24  1  0
  3 25  1  0
  3 26  1  0
  3 27  1  0
  4 28  1  0
  7 29  1  0
  7 30  1  0
  8 31  1  0
 12 32  1  0
 13 33  1  0
 15 34  1  0
 16 35  1  0
 17 36  1  0
 18 37  1  0
M  END
>  <smiles>  (2) 
CC(C)NC(=O)CNC(=O)c1ccc2ccccc2n1

>  <score_type>  (2) 
oracle

>  <origin>  (2) 
autodockgpu

>  <m_score__min__energy>  (2) 
-7.2300000000000004

>  <m_primary>  (2) 
energy

>  <rmsd>  (2) 
2.2929525931492147

>  <m_score__min__rmsd>  (2) 
2.2929525931492147

>  <meeko>  (2) 
{"free_energy": -6.09, "intermolecular_energy": -7.29, "internal_energy": -1.54, "cluster_size": 14, "cluster_id": 3, "rank_in_cluster": 12}

>  <energy>  (2) 
-7.22

>  <cluster_rmsd>  (2) 
0.1

>  <cluster>  (2) 
1

$$$$

     RDKit          3D

 37 38  0  0  0  0  0  0  0  0999 V2000
  141.5460   78.5210  223.4690 C   0  0  0  0  0  0  0  0  0  0  0  0
  140.9150   78.1740  222.1570 C   0  0  0  0  0  0  0  0  0  0  0  0
  141.3630   79.1420  221.1140 C   0  0  0  0  0  0  0  0  0  0  0  0
  141.0990   76.7960  221.7830 N   0  0  0  0  0  0  0  0  0  0  0  0
  139.9700   75.9420  221.6060 C   0  0  0  0  0  0  0  0  0  0  0  0
  138.8110   76.3980  221.7780 O   0  0  0  0  0  0  0  0  0  0  0  0
  140.2410   74.5290  221.2190 C   0  0  0  0  0  0  0  0  0  0  0  0
  140.0120   73.6380  222.3330 N   0  0  0  0  0  0  0  0  0  0  0  0
  140.5950   72.3400  222.4340 C   0  0  0  0  0  0  0  0  0  0  0  0
  141.3440   71.9700  221.4950 O   0  0  0  0  0  0  0  0  0  0  0  0
  140.3070   71.5020  223.5990 C   0  0  0  0  0  0  0  0  0  0  0  0
  139.6390   70.3180  223.3690 C   0  0  0  0  0  0  0  0  0  0  0  0
  139.3710   69.5250  224.4770 C   0  0  0  0  0  0  0  0  0  0  0  0
  139.7630   69.9250  225.7380 C   0  0  0  0  0  0  0  0  0  0  0  0
  139.5210   69.1750  226.8690 C   0  0  0  0  0  0  0  0  0  0  0  0
  139.9120   69.5730  228.1360 C   0  0  0  0  0  0  0  0  0  0  0  0
  140.5780   70.7710  228.2950 C   0  0  0  0  0  0  0  0  0  0  0  0
  140.8330   71.5410  227.1690 C   0  0  0  0  0  0  0  0  0  0  0  0
  140.4340   71.1290  225.9100 C   0  0  0  0  0  0  0  0  0  0  0  0
  140.6950   71.9020  224.8210 N   0  0  0  0  0  0  0  0  0  0  0  0
  140.9040   78.1679  224.2894 H   0  0  0  0  0  0  0  0  0  0  0  0
  142.5317   78.0381  223.5409 H   0  0  0  0  0  0  0  0  0  0  0  0
  141.6661   79.6121  223.5409 H   0  0  0  0  0  0  0  0  0  0  0  0
  139.8245   78.2721  222.2626 H   0  0  0  0  0  0  0  0  0  0  0  0
  141.7777   80.0379  221.5992 H   0  0  0  0  0  0  0  0  0  0  0  0
  142.1359   78.6737  220.4869 H   0  0  0  0  0  0  0  0  0  0  0  0
  140.5058   79.4281  220.4869 H   0  0  0  0  0  0  0  0  0  0  0  0
  142.0900   76.4620  221.6510 H   0  0  0  0  0  0  0  0  0  0  0  0
  139.5747   74.2482  220.3900 H   0  0  0  0  0  0  0  0  0  0  0  0
  141.2935   74.4440  220.9106 H   0  0  0  0  0  0  0  0  0  0  0  0
  139.3920   73.9330  223.1180 H   0  0  0  0  0  0  0  0  0  0  0  0
  139.3331   70.0161  222.3565 H   0  0  0  0  0  0  0  0  0  0  0  0
  138.8415   68.5695  224.3482 H   0  0  0  0  0  0  0  0  0  0  0  0
  138.9929   68.2162  226.7598 H   0  0  0  0  0  0  0  0  0  0  0  0
  139.6936   68.9397  229.0085 H   0  0  0  0  0  0  0  0  0  0  0  0
  140.8995   71.1080  229.2915 H   0  0  0  0  0  0  0  0  0  0  0  0
  141.3631   72.4984  227.2798 H   0  0  0  0  0  0  0  0  0  0  0  0
  1  2  1  0
  2  3  1  0
  2  4  1  0
  4  5  1  0
  5  6  2  0
  5  7  1  0
  7  8  1  0
  8  9  1  0
  9 10  2  0
  9 11  1  0
 11 12  2  0
 12 13  1  0
 13 14  2  0
 14 15  1  0
 15 16  2  0
 16 17  1  0
 17 18  2  0
 18 19  1  0
 19 20  2  0
 20 11  1  0
 19 14  1  0
  1 21  1  0
  1 22  1  0
  1 23  1  0
  2 24  1  0
  3 25  1  0
  3 26  1  0
  3 27  1  0
  4 28  1  0
  7 29  1  0
  7 30  1  0
  8 31  1  0
 12 32  1  0
 13 33  1  0
 15 34  1  0
 16 35  1  0
 17 36  1  0
 18 37  1  0
M  END
>  <smiles>  (3) 
CC(C)NC(=O)CNC(=O)c1ccc2ccccc2n1

>  <score_type>  (3) 
oracle

>  <origin>  (3) 
autodockgpu

>  <m_score__min__energy>  (3) 
-7.2300000000000004

>  <m_primary>  (3) 
energy

>  <rmsd>  (3) 
2.452316113722647

>  <m_score__min__rmsd>  (3) 
2.452316113722647

>  <meeko>  (3) 
{"free_energy": -7.15, "intermolecular_energy": -8.34, "internal_energy": -0.77, "cluster_size": 31, "cluster_id": 1, "rank_in_cluster": 8}

>  <energy>  (3) 
-7.21

>  <cluster_rmsd>  (3) 
0.15

>  <cluster>  (3) 
1

$$$$

     RDKit          3D

 37 38  0  0  0  0  0  0  0  0999 V2000
  141.7780   78.6420  223.6940 C   0  0  0  0  0  0  0  0  0  0  0  0
  140.9070   78.3920  222.5030 C   0  0  0  0  0  0  0  0  0  0  0  0
  141.1270   79.4630  221.4880 C   0  0  0  0  0  0  0  0  0  0  0  0
  141.0340   77.0600  221.9740 N   0  0  0  0  0  0  0  0  0  0  0  0
  139.8940   76.2050  221.8950 C   0  0  0  0  0  0  0  0  0  0  0  0
  138.7760   76.6220  222.2900 O   0  0  0  0  0  0  0  0  0  0  0  0
  140.1060   74.8410  221.3360 C   0  0  0  0  0  0  0  0  0  0  0  0
  139.8580   73.8300  222.3380 N   0  0  0  0  0  0  0  0  0  0  0  0
  140.6120   72.6240  222.4400 C   0  0  0  0  0  0  0  0  0  0  0  0
  141.5350   72.4490  221.6060 O   0  0  0  0  0  0  0  0  0  0  0  0
  140.2930   71.6530  223.4880 C   0  0  0  0  0  0  0  0  0  0  0  0
  139.5690   70.5400  223.1120 C   0  0  0  0  0  0  0  0  0  0  0  0
  139.2700   69.6210  224.1080 C   0  0  0  0  0  0  0  0  0  0  0  0
  139.6880   69.8330  225.4070 C   0  0  0  0  0  0  0  0  0  0  0  0
  139.4170   68.9510  226.4310 C   0  0  0  0  0  0  0  0  0  0  0  0
  139.8340   69.1600  227.7340 C   0  0  0  0  0  0  0  0  0  0  0  0
  140.5560   70.2950  228.0420 C   0  0  0  0  0  0  0  0  0  0  0  0
  140.8400   71.1950  227.0250 C   0  0  0  0  0  0  0  0  0  0  0  0
  140.4140   70.9710  225.7280 C   0  0  0  0  0  0  0  0  0  0  0  0
  140.7050   71.8700  224.7470 N   0  0  0  0  0  0  0  0  0  0  0  0
  141.1981   78.4755  224.6138 H   0  0  0  0  0  0  0  0  0  0  0  0
  142.6359   77.9538  223.6718 H   0  0  0  0  0  0  0  0  0  0  0  0
  142.1403   79.6804  223.6718 H   0  0  0  0  0  0  0  0  0  0  0  0
  139.8570   78.4444  222.8268 H   0  0  0  0  0  0  0  0  0  0  0  0
  141.3230   80.4174  221.9986 H   0  0  0  0  0  0  0  0  0  0  0  0
  141.9899   79.1999  220.8585 H   0  0  0  0  0  0  0  0  0  0  0  0
  140.2303   79.5614  220.8585 H   0  0  0  0  0  0  0  0  0  0  0  0
  141.9920   76.7590  221.6550 H   0  0  0  0  0  0  0  0  0  0  0  0
  139.4188   74.6871  220.4910 H   0  0  0  0  0  0  0  0  0  0  0  0
  141.1505   74.7562  221.0015 H   0  0  0  0  0  0  0  0  0  0  0  0
  139.0940   73.9630  223.0360 H   0  0  0  0  0  0  0  0  0  0  0  0
  139.2442   70.3884  222.0720 H   0  0  0  0  0  0  0  0  0  0  0  0
  138.6953   68.7162  223.8607 H   0  0  0  0  0  0  0  0  0  0  0  0
  138.8438   68.0404  226.2024 H   0  0  0  0  0  0  0  0  0  0  0  0
  139.5919   68.4273  228.5179 H   0  0  0  0  0  0  0  0  0  0  0  0
  140.8986   70.4819  229.0705 H   0  0  0  0  0  0  0  0  0  0  0  0
  141.4150   72.1043  227.2544 H   0  0  0  0  0  0  0  0  0  0  0  0
  1  2  1  0
  2  3  1  0
  2  4  1  0
  4  5  1  0
  5  6  2  0
  5  7  1  0
  7  8  1  0
  8  9  1  0
  9 10  2  0
  9 11  1  0
 11 12  2  0
 12 13  1  0
 13 14  2  0
 14 15  1  0
 15 16  2  0
 16 17  1  0
 17 18  2  0
 18 19  1  0
 19 20  2  0
 20 11  1  0
 19 14  1  0
  1 21  1  0
  1 22  1  0
  1 23  1  0
  2 24  1  0
  3 25  1  0
  3 26  1  0
  3 27  1  0
  4 28  1  0
  7 29  1  0
  7 30  1  0
  8 31  1  0
 12 32  1  0
 13 33  1  0
 15 34  1  0
 16 35  1  0
 17 36  1  0
 18 37  1  0
M  END
>  <smiles>  (4) 
CC(C)NC(=O)CNC(=O)c1ccc2ccccc2n1

>  <score_type>  (4) 
oracle

>  <origin>  (4) 
autodockgpu

>  <m_score__min__energy>  (4) 
-7.2300000000000004

>  <m_primary>  (4) 
energy

>  <rmsd>  (4) 
2.6048236926654806

>  <m_score__min__rmsd>  (4) 
2.6048236926654806

>  <meeko>  (4) 
{"free_energy": -7.19, "intermolecular_energy": -8.38, "internal_energy": -0.77, "cluster_size": 31, "cluster_id": 1, "rank_in_cluster": 6}

>  <energy>  (4) 
-7.21

>  <cluster_rmsd>  (4) 
0.21

>  <cluster>  (4) 
1

$$$$

     RDKit          3D

 37 38  0  0  0  0  0  0  0  0999 V2000
  141.5070   78.4170  223.4810 C   0  0  0  0  0  0  0  0  0  0  0  0
  140.9260   78.0880  222.1420 C   0  0  0  0  0  0  0  0  0  0  0  0
  141.4610   79.0320  221.1180 C   0  0  0  0  0  0  0  0  0  0  0  0
  141.0730   76.7030  221.7810 N   0  0  0  0  0  0  0  0  0  0  0  0
  139.9200   75.8880  221.5730 C   0  0  0  0  0  0  0  0  0  0  0  0
  138.7730   76.3850  221.7060 O   0  0  0  0  0  0  0  0  0  0  0  0
  140.1530   74.4630  221.2030 C   0  0  0  0  0  0  0  0  0  0  0  0
  139.9910   73.6000  222.3500 N   0  0  0  0  0  0  0  0  0  0  0  0
  140.4510   72.2510  222.3900 C   0  0  0  0  0  0  0  0  0  0  0  0
  141.0220   71.8060  221.3630 O   0  0  0  0  0  0  0  0  0  0  0  0
  140.2440   71.4460  223.5950 C   0  0  0  0  0  0  0  0  0  0  0  0
  139.5890   70.2430  223.4410 C   0  0  0  0  0  0  0  0  0  0  0  0
  139.3970   69.4820  224.5870 C   0  0  0  0  0  0  0  0  0  0  0  0
  139.8490   69.9320  225.8110 C   0  0  0  0  0  0  0  0  0  0  0  0
  139.6840   69.2150  226.9770 C   0  0  0  0  0  0  0  0  0  0  0  0
  140.1350   69.6620  228.2060 C   0  0  0  0  0  0  0  0  0  0  0  0
  140.7840   70.8770  228.2900 C   0  0  0  0  0  0  0  0  0  0  0  0
  140.9620   71.6140  227.1270 C   0  0  0  0  0  0  0  0  0  0  0  0
  140.5030   71.1520  225.9070 C   0  0  0  0  0  0  0  0  0  0  0  0
  140.6890   71.8940  224.7800 N   0  0  0  0  0  0  0  0  0  0  0  0
  140.8418   78.0403  224.2719 H   0  0  0  0  0  0  0  0  0  0  0  0
  142.4957   77.9447  223.5777 H   0  0  0  0  0  0  0  0  0  0  0  0
  141.6106   79.5078  223.5777 H   0  0  0  0  0  0  0  0  0  0  0  0
  139.8364   78.2291  222.1963 H   0  0  0  0  0  0  0  0  0  0  0  0
  141.9434   79.8833  221.6206 H   0  0  0  0  0  0  0  0  0  0  0  0
  142.1984   78.5115  220.4892 H   0  0  0  0  0  0  0  0  0  0  0  0
  140.6356   79.3972  220.4892 H   0  0  0  0  0  0  0  0  0  0  0  0
  142.0550   76.3330  221.6820 H   0  0  0  0  0  0  0  0  0  0  0  0
  139.4310   74.1697  220.4267 H   0  0  0  0  0  0  0  0  0  0  0  0
  141.1822   74.3607  220.8285 H   0  0  0  0  0  0  0  0  0  0  0  0
  139.5180   73.9560  223.2090 H   0  0  0  0  0  0  0  0  0  0  0  0
  139.2351   69.9017  222.4570 H   0  0  0  0  0  0  0  0  0  0  0  0
  138.8807   68.5131  224.5185 H   0  0  0  0  0  0  0  0  0  0  0  0
  139.1705   68.2435  226.9278 H   0  0  0  0  0  0  0  0  0  0  0  0
  139.9776   69.0539  229.1090 H   0  0  0  0  0  0  0  0  0  0  0  0
  141.1518   71.2528  229.2562 H   0  0  0  0  0  0  0  0  0  0  0  0
  141.4781   72.5841  227.1769 H   0  0  0  0  0  0  0  0  0  0  0  0
  1  2  1  0
  2  3  1  0
  2  4  1  0
  4  5  1  0
  5  6  2  0
  5  7  1  0
  7  8  1  0
  8  9  1  0
  9 10  2  0
  9 11  1  0
 11 12  2  0
 12 13  1  0
 13 14  2  0
 14 15  1  0
 15 16  2  0
 16 17  1  0
 17 18  2  0
 18 19  1  0
 19 20  2  0
 20 11  1  0
 19 14  1  0
  1 21  1  0
  1 22  1  0
  1 23  1  0
  2 24  1  0
  3 25  1  0
  3 26  1  0
  3 27  1  0
  4 28  1  0
  7 29  1  0
  7 30  1  0
  8 31  1  0
 12 32  1  0
 13 33  1  0
 15 34  1  0
 16 35  1  0
 17 36  1  0
 18 37  1  0
M  END
>  <smiles>  (5) 
CC(C)NC(=O)CNC(=O)c1ccc2ccccc2n1

>  <score_type>  (5) 
oracle

>  <origin>  (5) 
autodockgpu

>  <m_score__min__energy>  (5) 
-7.2300000000000004

>  <m_primary>  (5) 
energy

>  <rmsd>  (5) 
2.405530959990207

>  <m_score__min__rmsd>  (5) 
2.405530959990207

>  <meeko>  (5) 
{"free_energy": -7.14, "intermolecular_energy": -8.33, "internal_energy": -0.79, "cluster_size": 31, "cluster_id": 1, "rank_in_cluster": 9}

>  <energy>  (5) 
-7.19

>  <cluster_rmsd>  (5) 
0.29

>  <cluster>  (5) 
1

$$$$

     RDKit          3D

 37 38  0  0  0  0  0  0  0  0999 V2000
  144.5870   73.5320  220.4350 C   0  0  0  0  0  0  0  0  0  0  0  0
  143.5180   74.5780  220.3890 C   0  0  0  0  0  0  0  0  0  0  0  0
  143.6770   75.4030  219.1570 C   0  0  0  0  0  0  0  0  0  0  0  0
  142.1910   74.0450  220.5590 N   0  0  0  0  0  0  0  0  0  0  0  0
  141.1300   74.8880  221.0060 C   0  0  0  0  0  0  0  0  0  0  0  0
  141.3580   76.0990  221.2510 O   0  0  0  0  0  0  0  0  0  0  0  0
  139.7860   74.2630  221.1580 C   0  0  0  0  0  0  0  0  0  0  0  0
  139.7320   73.4390  222.3430 N   0  0  0  0  0  0  0  0  0  0  0  0
  140.2940   72.1300  222.4160 C   0  0  0  0  0  0  0  0  0  0  0  0
  140.8590   71.6880  221.3850 O   0  0  0  0  0  0  0  0  0  0  0  0
  140.1930   71.3630  223.6590 C   0  0  0  0  0  0  0  0  0  0  0  0
  139.6030   70.1190  223.5820 C   0  0  0  0  0  0  0  0  0  0  0  0
  139.5120   69.3950  224.7620 C   0  0  0  0  0  0  0  0  0  0  0  0
  139.9960   69.9170  225.9450 C   0  0  0  0  0  0  0  0  0  0  0  0
  139.9300   69.2380  227.1430 C   0  0  0  0  0  0  0  0  0  0  0  0
  140.4140   69.7580  228.3310 C   0  0  0  0  0  0  0  0  0  0  0  0
  140.9940   71.0100  228.3370 C   0  0  0  0  0  0  0  0  0  0  0  0
  141.0720   71.7100  227.1410 C   0  0  0  0  0  0  0  0  0  0  0  0
  140.5820   71.1750  225.9630 C   0  0  0  0  0  0  0  0  0  0  0  0
  140.6690   71.8810  224.8020 N   0  0  0  0  0  0  0  0  0  0  0  0
  144.8262   73.2980  221.4829 H   0  0  0  0  0  0  0  0  0  0  0  0
  144.2322   72.6226  219.9280 H   0  0  0  0  0  0  0  0  0  0  0  0
  145.4885   73.9065  219.9280 H   0  0  0  0  0  0  0  0  0  0  0  0
  143.6468   75.2399  221.2581 H   0  0  0  0  0  0  0  0  0  0  0  0
  143.8782   76.4472  219.4384 H   0  0  0  0  0  0  0  0  0  0  0  0
  144.5169   75.0152  218.5619 H   0  0  0  0  0  0  0  0  0  0  0  0
  142.7531   75.3552  218.5619 H   0  0  0  0  0  0  0  0  0  0  0  0
  142.0520   73.0240  220.3400 H   0  0  0  0  0  0  0  0  0  0  0  0
  139.0270   75.0554  221.2354 H   0  0  0  0  0  0  0  0  0  0  0  0
  139.5917   73.6294  220.2801 H   0  0  0  0  0  0  0  0  0  0  0  0
  139.2650   73.7940  223.2060 H   0  0  0  0  0  0  0  0  0  0  0  0
  139.2226   69.7197  222.6302 H   0  0  0  0  0  0  0  0  0  0  0  0
  139.0503   68.3966  224.7550 H   0  0  0  0  0  0  0  0  0  0  0  0
  139.4721   68.2379  227.1554 H   0  0  0  0  0  0  0  0  0  0  0  0
  140.3369   69.1780  229.2625 H   0  0  0  0  0  0  0  0  0  0  0  0
  141.3858   71.4437  229.2689 H   0  0  0  0  0  0  0  0  0  0  0  0
  141.5321   72.7091  227.1296 H   0  0  0  0  0  0  0  0  0  0  0  0
  1  2  1  0
  2  3  1  0
  2  4  1  0
  4  5  1  0
  5  6  2  0
  5  7  1  0
  7  8  1  0
  8  9  1  0
  9 10  2  0
  9 11  1  0
 11 12  2  0
 12 13  1  0
 13 14  2  0
 14 15  1  0
 15 16  2  0
 16 17  1  0
 17 18  2  0
 18 19  1  0
 19 20  2  0
 20 11  1  0
 19 14  1  0
  1 21  1  0
  1 22  1  0
  1 23  1  0
  2 24  1  0
  3 25  1  0
  3 26  1  0
  3 27  1  0
  4 28  1  0
  7 29  1  0
  7 30  1  0
  8 31  1  0
 12 32  1  0
 13 33  1  0
 15 34  1  0
 16 35  1  0
 17 36  1  0
 18 37  1  0
M  END
>  <smiles>  (6) 
CC(C)NC(=O)CNC(=O)c1ccc2ccccc2n1

>  <score_type>  (6) 
oracle

>  <origin>  (6) 
autodockgpu

>  <m_score__min__energy>  (6) 
-7.2300000000000004

>  <m_primary>  (6) 
energy

>  <rmsd>  (6) 
2.5616264515744342

>  <m_score__min__rmsd>  (6) 
2.5616264515744342

>  <meeko>  (6) 
{"free_energy": -6.47, "intermolecular_energy": -7.66, "internal_energy": -1.52, "cluster_size": 14, "cluster_id": 3, "rank_in_cluster": 4}

>  <energy>  (6) 
-7.19

>  <cluster_rmsd>  (6) 
0.11

>  <cluster>  (6) 
1

$$$$

     RDKit          3D

 37 38  0  0  0  0  0  0  0  0999 V2000
  144.4800   73.5110  220.8050 C   0  0  0  0  0  0  0  0  0  0  0  0
  143.5110   74.0900  219.8230 C   0  0  0  0  0  0  0  0  0  0  0  0
  143.9320   73.7360  218.4360 C   0  0  0  0  0  0  0  0  0  0  0  0
  142.1400   73.7590  220.1120 N   0  0  0  0  0  0  0  0  0  0  0  0
  141.3250   74.6610  220.8580 C   0  0  0  0  0  0  0  0  0  0  0  0
  141.8090   75.7490  221.2620 O   0  0  0  0  0  0  0  0  0  0  0  0
  139.9170   74.2480  221.1180 C   0  0  0  0  0  0  0  0  0  0  0  0
  139.8310   73.4370  222.3100 N   0  0  0  0  0  0  0  0  0  0  0  0
  140.3710   72.1200  222.4060 C   0  0  0  0  0  0  0  0  0  0  0  0
  140.9480   71.6590  221.3890 O   0  0  0  0  0  0  0  0  0  0  0  0
  140.2380   71.3670  223.6540 C   0  0  0  0  0  0  0  0  0  0  0  0
  139.6180   70.1370  223.5810 C   0  0  0  0  0  0  0  0  0  0  0  0
  139.4960   69.4270  224.7680 C   0  0  0  0  0  0  0  0  0  0  0  0
  139.9790   69.9470  225.9510 C   0  0  0  0  0  0  0  0  0  0  0  0
  139.8820   69.2810  227.1540 C   0  0  0  0  0  0  0  0  0  0  0  0
  140.3650   69.8000  228.3430 C   0  0  0  0  0  0  0  0  0  0  0  0
  140.9750   71.0380  228.3450 C   0  0  0  0  0  0  0  0  0  0  0  0
  141.0840   71.7250  227.1440 C   0  0  0  0  0  0  0  0  0  0  0  0
  140.5940   71.1910  225.9650 C   0  0  0  0  0  0  0  0  0  0  0  0
  140.7120   71.8850  224.7990 N   0  0  0  0  0  0  0  0  0  0  0  0
  144.1331   73.7183  221.8281 H   0  0  0  0  0  0  0  0  0  0  0  0
  144.5489   72.4235  220.6544 H   0  0  0  0  0  0  0  0  0  0  0  0
  145.4703   73.9655  220.6544 H   0  0  0  0  0  0  0  0  0  0  0  0
  143.5398   75.1857  219.9160 H   0  0  0  0  0  0  0  0  0  0  0  0
  144.7733   73.0286  218.4775 H   0  0  0  0  0  0  0  0  0  0  0  0
  143.0885   73.2718  217.9040 H   0  0  0  0  0  0  0  0  0  0  0  0
  144.2445   74.6467  217.9040 H   0  0  0  0  0  0  0  0  0  0  0  0
  141.7820   72.8360  219.7510 H   0  0  0  0  0  0  0  0  0  0  0  0
  139.2960   75.1466  221.2479 H   0  0  0  0  0  0  0  0  0  0  0  0
  139.5602   73.6556  220.2626 H   0  0  0  0  0  0  0  0  0  0  0  0
  139.3540   73.8070  223.1610 H   0  0  0  0  0  0  0  0  0  0  0  0
  139.2386   69.7380  222.6287 H   0  0  0  0  0  0  0  0  0  0  0  0
  139.0096   68.4404  224.7651 H   0  0  0  0  0  0  0  0  0  0  0  0
  139.3991   68.2928  227.1699 H   0  0  0  0  0  0  0  0  0  0  0  0
  140.2634   69.2304  229.2785 H   0  0  0  0  0  0  0  0  0  0  0  0
  141.3661   71.4706  229.2777 H   0  0  0  0  0  0  0  0  0  0  0  0
  141.5689   72.7123  227.1289 H   0  0  0  0  0  0  0  0  0  0  0  0
  1  2  1  0
  2  3  1  0
  2  4  1  0
  4  5  1  0
  5  6  2  0
  5  7  1  0
  7  8  1  0
  8  9  1  0
  9 10  2  0
  9 11  1  0
 11 12  2  0
 12 13  1  0
 13 14  2  0
 14 15  1  0
 15 16  2  0
 16 17  1  0
 17 18  2  0
 18 19  1  0
 19 20  2  0
 20 11  1  0
 19 14  1  0
  1 21  1  0
  1 22  1  0
  1 23  1  0
  2 24  1  0
  3 25  1  0
  3 26  1  0
  3 27  1  0
  4 28  1  0
  7 29  1  0
  7 30  1  0
  8 31  1  0
 12 32  1  0
 13 33  1  0
 15 34  1  0
 16 35  1  0
 17 36  1  0
 18 37  1  0
M  END
>  <smiles>  (7) 
CC(C)NC(=O)CNC(=O)c1ccc2ccccc2n1

>  <score_type>  (7) 
oracle

>  <origin>  (7) 
autodockgpu

>  <m_score__min__energy>  (7) 
-7.2300000000000004

>  <m_primary>  (7) 
energy

>  <rmsd>  (7) 
2.682288424928718

>  <m_score__min__rmsd>  (7) 
2.682288424928718

>  <meeko>  (7) 
{"free_energy": -6.2, "intermolecular_energy": -7.39, "internal_energy": -1.51, "cluster_size": 14, "cluster_id": 3, "rank_in_cluster": 10}

>  <energy>  (7) 
-7.17

>  <cluster_rmsd>  (7) 
0.43

>  <cluster>  (7) 
1

$$$$

     RDKit          3D

 37 38  0  0  0  0  0  0  0  0999 V2000
  144.6010   73.4660  220.4260 C   0  0  0  0  0  0  0  0  0  0  0  0
  143.5370   74.5160  220.4720 C   0  0  0  0  0  0  0  0  0  0  0  0
  143.6820   75.4280  219.3010 C   0  0  0  0  0  0  0  0  0  0  0  0
  142.2110   73.9770  220.6230 N   0  0  0  0  0  0  0  0  0  0  0  0
  141.1210   74.8330  220.9640 C   0  0  0  0  0  0  0  0  0  0  0  0
  141.3240   76.0620  221.1320 O   0  0  0  0  0  0  0  0  0  0  0  0
  139.7790   74.2010  221.1030 C   0  0  0  0  0  0  0  0  0  0  0  0
  139.7140   73.3880  222.2960 N   0  0  0  0  0  0  0  0  0  0  0  0
  140.3080   72.0960  222.3990 C   0  0  0  0  0  0  0  0  0  0  0  0
  140.9150   71.6580  221.3890 O   0  0  0  0  0  0  0  0  0  0  0  0
  140.1930   71.3390  223.6470 C   0  0  0  0  0  0  0  0  0  0  0  0
  139.5750   70.1090  223.5800 C   0  0  0  0  0  0  0  0  0  0  0  0
  139.4700   69.3950  224.7650 C   0  0  0  0  0  0  0  0  0  0  0  0
  139.9680   69.9130  225.9430 C   0  0  0  0  0  0  0  0  0  0  0  0
  139.8900   69.2430  227.1460 C   0  0  0  0  0  0  0  0  0  0  0  0
  140.3880   69.7600  228.3290 C   0  0  0  0  0  0  0  0  0  0  0  0
  140.9970   70.9980  228.3260 C   0  0  0  0  0  0  0  0  0  0  0  0
  141.0880   71.6890  227.1260 C   0  0  0  0  0  0  0  0  0  0  0  0
  140.5830   71.1580  225.9520 C   0  0  0  0  0  0  0  0  0  0  0  0
  140.6830   71.8540  224.7860 N   0  0  0  0  0  0  0  0  0  0  0  0
  144.8846   73.1862  221.4513 H   0  0  0  0  0  0  0  0  0  0  0  0
  144.2196   72.5805  219.8964 H   0  0  0  0  0  0  0  0  0  0  0  0
  145.4814   73.8591  219.8964 H   0  0  0  0  0  0  0  0  0  0  0  0
  143.6815   75.1128  221.3846 H   0  0  0  0  0  0  0  0  0  0  0  0
  143.8455   76.4565  219.6553 H   0  0  0  0  0  0  0  0  0  0  0  0
  144.5407   75.1091  218.6920 H   0  0  0  0  0  0  0  0  0  0  0  0
  142.7667   75.3911  218.6920 H   0  0  0  0  0  0  0  0  0  0  0  0
  142.0930   72.9410  220.4720 H   0  0  0  0  0  0  0  0  0  0  0  0
  139.0139   74.9891  221.1619 H   0  0  0  0  0  0  0  0  0  0  0  0
  139.6007   73.5577  220.2287 H   0  0  0  0  0  0  0  0  0  0  0  0
  139.2130   73.7390  223.1410 H   0  0  0  0  0  0  0  0  0  0  0  0
  139.1834   69.7121  222.6318 H   0  0  0  0  0  0  0  0  0  0  0  0
  138.9856   68.4074  224.7654 H   0  0  0  0  0  0  0  0  0  0  0  0
  139.4104   68.2533  227.1659 H   0  0  0  0  0  0  0  0  0  0  0  0
  140.2990   69.1884  229.2646 H   0  0  0  0  0  0  0  0  0  0  0  0
  141.4014   71.4278  229.2543 H   0  0  0  0  0  0  0  0  0  0  0  0
  141.5706   72.6773  227.1076 H   0  0  0  0  0  0  0  0  0  0  0  0
  1  2  1  0
  2  3  1  0
  2  4  1  0
  4  5  1  0
  5  6  2  0
  5  7  1  0
  7  8  1  0
  8  9  1  0
  9 10  2  0
  9 11  1  0
 11 12  2  0
 12 13  1  0
 13 14  2  0
 14 15  1  0
 15 16  2  0
 16 17  1  0
 17 18  2  0
 18 19  1  0
 19 20  2  0
 20 11  1  0
 19 14  1  0
  1 21  1  0
  1 22  1  0
  1 23  1  0
  2 24  1  0
  3 25  1  0
  3 26  1  0
  3 27  1  0
  4 28  1  0
  7 29  1  0
  7 30  1  0
  8 31  1  0
 12 32  1  0
 13 33  1  0
 15 34  1  0
 16 35  1  0
 17 36  1  0
 18 37  1  0
M  END
>  <smiles>  (8) 
CC(C)NC(=O)CNC(=O)c1ccc2ccccc2n1

>  <score_type>  (8) 
oracle

>  <origin>  (8) 
autodockgpu

>  <m_score__min__energy>  (8) 
-7.2300000000000004

>  <m_primary>  (8) 
energy

>  <rmsd>  (8) 
2.576491350258975

>  <m_score__min__rmsd>  (8) 
2.576491350258975

>  <meeko>  (8) 
{"free_energy": -6.5, "intermolecular_energy": -7.69, "internal_energy": -1.5, "cluster_size": 14, "cluster_id": 3, "rank_in_cluster": 2}

>  <energy>  (8) 
-7.15

>  <cluster_rmsd>  (8) 
0.38

>  <cluster>  (8) 
1

$$$$

     RDKit          3D

 37 38  0  0  0  0  0  0  0  0999 V2000
  141.8230   78.3680  223.8200 C   0  0  0  0  0  0  0  0  0  0  0  0
  140.9210   78.1700  222.6430 C   0  0  0  0  0  0  0  0  0  0  0  0
  141.1840   79.2300  221.6260 C   0  0  0  0  0  0  0  0  0  0  0  0
  140.9660   76.8340  222.1080 N   0  0  0  0  0  0  0  0  0  0  0  0
  139.7570   76.1170  221.8640 C   0  0  0  0  0  0  0  0  0  0  0  0
  138.6500   76.6560  222.1170 O   0  0  0  0  0  0  0  0  0  0  0  0
  139.8850   74.7390  221.3110 C   0  0  0  0  0  0  0  0  0  0  0  0
  139.6770   73.7490  222.3420 N   0  0  0  0  0  0  0  0  0  0  0  0
  140.4680   72.5700  222.4710 C   0  0  0  0  0  0  0  0  0  0  0  0
  141.3900   72.4000  221.6340 O   0  0  0  0  0  0  0  0  0  0  0  0
  140.1870   71.6180  223.5480 C   0  0  0  0  0  0  0  0  0  0  0  0
  139.4180   70.5190  223.2270 C   0  0  0  0  0  0  0  0  0  0  0  0
  139.1560   69.6180  224.2500 C   0  0  0  0  0  0  0  0  0  0  0  0
  139.6510   69.8350  225.5200 C   0  0  0  0  0  0  0  0  0  0  0  0
  139.4190   68.9710  226.5690 C   0  0  0  0  0  0  0  0  0  0  0  0
  139.9130   69.1860  227.8440 C   0  0  0  0  0  0  0  0  0  0  0  0
  140.6760   70.3070  228.0970 C   0  0  0  0  0  0  0  0  0  0  0  0
  140.9230   71.1890  227.0540 C   0  0  0  0  0  0  0  0  0  0  0  0
  140.4200   70.9600  225.7850 C   0  0  0  0  0  0  0  0  0  0  0  0
  140.6740   71.8400  224.7780 N   0  0  0  0  0  0  0  0  0  0  0  0
  141.2471   78.2416  224.7486 H   0  0  0  0  0  0  0  0  0  0  0  0
  142.6351   77.6267  223.7884 H   0  0  0  0  0  0  0  0  0  0  0  0
  142.2500   79.3813  223.7884 H   0  0  0  0  0  0  0  0  0  0  0  0
  139.8812   78.2794  222.9847 H   0  0  0  0  0  0  0  0  0  0  0  0
  141.4188   80.1764  222.1351 H   0  0  0  0  0  0  0  0  0  0  0  0
  142.0352   78.9312  220.9966 H   0  0  0  0  0  0  0  0  0  0  0  0
  140.2918   79.3638  220.9966 H   0  0  0  0  0  0  0  0  0  0  0  0
  141.9180   76.4260  221.9130 H   0  0  0  0  0  0  0  0  0  0  0  0
  139.1347   74.5975  220.5191 H   0  0  0  0  0  0  0  0  0  0  0  0
  140.8998   74.6159  220.9049 H   0  0  0  0  0  0  0  0  0  0  0  0
  138.9140   73.8770  223.0430 H   0  0  0  0  0  0  0  0  0  0  0  0
  139.0308   70.3639  222.2091 H   0  0  0  0  0  0  0  0  0  0  0  0
  138.5488   68.7236  224.0468 H   0  0  0  0  0  0  0  0  0  0  0  0
  138.8144   68.0707  226.3845 H   0  0  0  0  0  0  0  0  0  0  0  0
  139.6987   68.4682  228.6495 H   0  0  0  0  0  0  0  0  0  0  0  0
  141.0795   70.4976  229.1024 H   0  0  0  0  0  0  0  0  0  0  0  0
  141.5302   72.0873  227.2395 H   0  0  0  0  0  0  0  0  0  0  0  0
  1  2  1  0
  2  3  1  0
  2  4  1  0
  4  5  1  0
  5  6  2  0
  5  7  1  0
  7  8  1  0
  8  9  1  0
  9 10  2  0
  9 11  1  0
 11 12  2  0
 12 13  1  0
 13 14  2  0
 14 15  1  0
 15 16  2  0
 16 17  1  0
 17 18  2  0
 18 19  1  0
 19 20  2  0
 20 11  1  0
 19 14  1  0
  1 21  1  0
  1 22  1  0
  1 23  1  0
  2 24  1  0
  3 25  1  0
  3 26  1  0
  3 27  1  0
  4 28  1  0
  7 29  1  0
  7 30  1  0
  8 31  1  0
 12 32  1  0
 13 33  1  0
 15 34  1  0
 16 35  1  0
 17 36  1  0
 18 37  1  0
M  END
>  <smiles>  (9) 
CC(C)NC(=O)CNC(=O)c1ccc2ccccc2n1

>  <score_type>  (9) 
oracle

>  <origin>  (9) 
autodockgpu

>  <m_score__min__energy>  (9) 
-7.2300000000000004

>  <m_primary>  (9) 
energy

>  <rmsd>  (9) 
2.5770553849708437

>  <m_score__min__rmsd>  (9) 
2.5770553849708437

>  <meeko>  (9) 
{"free_energy": -7.21, "intermolecular_energy": -8.4, "internal_energy": -0.73, "cluster_size": 31, "cluster_id": 1, "rank_in_cluster": 3}

>  <energy>  (9) 
-7.14

>  <cluster_rmsd>  (9) 
0.48

>  <cluster>  (9) 
1

$$$$

     RDKit          3D

 37 38  0  0  0  0  0  0  0  0999 V2000
  146.0160   73.0740  221.4980 C   0  0  0  0  0  0  0  0  0  0  0  0
  145.2910   73.9120  220.4920 C   0  0  0  0  0  0  0  0  0  0  0  0
  145.4480   73.3140  219.1350 C   0  0  0  0  0  0  0  0  0  0  0  0
  143.9220   74.1750  220.8520 N   0  0  0  0  0  0  0  0  0  0  0  0
  142.9010   73.2280  220.5390 C   0  0  0  0  0  0  0  0  0  0  0  0
  143.2030   72.1610  219.9470 O   0  0  0  0  0  0  0  0  0  0  0  0
  141.5090   73.5720  220.9420 C   0  0  0  0  0  0  0  0  0  0  0  0
  141.4250   74.9450  221.3830 N   0  0  0  0  0  0  0  0  0  0  0  0
  140.2630   75.5060  221.9910 C   0  0  0  0  0  0  0  0  0  0  0  0
  139.2700   74.7510  222.1420 O   0  0  0  0  0  0  0  0  0  0  0  0
  140.2650   76.9090  222.4070 C   0  0  0  0  0  0  0  0  0  0  0  0
  139.0380   77.5010  222.6210 C   0  0  0  0  0  0  0  0  0  0  0  0
  139.0450   78.8320  223.0180 C   0  0  0  0  0  0  0  0  0  0  0  0
  140.2360   79.5080  223.1830 C   0  0  0  0  0  0  0  0  0  0  0  0
  140.2970   80.8290  223.5760 C   0  0  0  0  0  0  0  0  0  0  0  0
  141.4890   81.5110  223.7420 C   0  0  0  0  0  0  0  0  0  0  0  0
  142.6830   80.8580  223.5120 C   0  0  0  0  0  0  0  0  0  0  0  0
  142.6440   79.5280  223.1170 C   0  0  0  0  0  0  0  0  0  0  0  0
  141.4430   78.8610  222.9540 C   0  0  0  0  0  0  0  0  0  0  0  0
  141.4310   77.5570  222.5650 N   0  0  0  0  0  0  0  0  0  0  0  0
  145.7375   73.3959  222.5123 H   0  0  0  0  0  0  0  0  0  0  0  0
  145.7425   72.0175  221.3605 H   0  0  0  0  0  0  0  0  0  0  0  0
  147.1009   73.1927  221.3605 H   0  0  0  0  0  0  0  0  0  0  0  0
  145.7540   74.9097  220.4764 H   0  0  0  0  0  0  0  0  0  0  0  0
  145.7263   72.2541  219.2313 H   0  0  0  0  0  0  0  0  0  0  0  0
  144.4981   73.3953  218.5863 H   0  0  0  0  0  0  0  0  0  0  0  0
  146.2355   73.8514  218.5863 H   0  0  0  0  0  0  0  0  0  0  0  0
  143.7210   75.0840  221.3460 H   0  0  0  0  0  0  0  0  0  0  0  0
  140.8389   73.4284  220.0816 H   0  0  0  0  0  0  0  0  0  0  0  0
  141.2116   72.9166  221.7739 H   0  0  0  0  0  0  0  0  0  0  0  0
  142.2420   75.5830  221.2620 H   0  0  0  0  0  0  0  0  0  0  0  0
  138.0985   76.9456  222.4838 H   0  0  0  0  0  0  0  0  0  0  0  0
  138.0930   79.3513  223.2024 H   0  0  0  0  0  0  0  0  0  0  0  0
  139.3550   81.3643  223.7660 H   0  0  0  0  0  0  0  0  0  0  0  0
  141.4853   82.5656  224.0549 H   0  0  0  0  0  0  0  0  0  0  0  0
  143.6432   81.3795  223.6388 H   0  0  0  0  0  0  0  0  0  0  0  0
  143.5870   78.9935  222.9298 H   0  0  0  0  0  0  0  0  0  0  0  0
  1  2  1  0
  2  3  1  0
  2  4  1  0
  4  5  1  0
  5  6  2  0
  5  7  1  0
  7  8  1  0
  8  9  1  0
  9 10  2  0
  9 11  1  0
 11 12  2  0
 12 13  1  0
 13 14  2  0
 14 15  1  0
 15 16  2  0
 16 17  1  0
 17 18  2  0
 18 19  1  0
 19 20  2  0
 20 11  1  0
 19 14  1  0
  1 21  1  0
  1 22  1  0
  1 23  1  0
  2 24  1  0
  3 25  1  0
  3 26  1  0
  3 27  1  0
  4 28  1  0
  7 29  1  0
  7 30  1  0
  8 31  1  0
 12 32  1  0
 13 33  1  0
 15 34  1  0
 16 35  1  0
 17 36  1  0
 18 37  1  0
M  END
>  <smiles>  (10) 
CC(C)NC(=O)CNC(=O)c1ccc2ccccc2n1

>  <score_type>  (10) 
oracle

>  <origin>  (10) 
autodockgpu

>  <m_score__min__energy>  (10) 
-7.2300000000000004

>  <m_primary>  (10) 
energy

>  <rmsd>  (10) 
8.11257629784592

>  <m_score__min__rmsd>  (10) 
8.11257629784592

>  <meeko>  (10) 
{"free_energy": -6.53, "intermolecular_energy": -7.72, "internal_energy": -0.82, "cluster_size": 2, "cluster_id": 2, "rank_in_cluster": 1}

>  <energy>  (10) 
-7.14

>  <cluster_rmsd>  (10) 
0.15

>  <cluster>  (10) 
1

$$$$

     RDKit          3D

 37 38  0  0  0  0  0  0  0  0999 V2000
  141.7710   78.6550  223.6880 C   0  0  0  0  0  0  0  0  0  0  0  0
  140.9660   78.4550  222.4420 C   0  0  0  0  0  0  0  0  0  0  0  0
  141.2900   79.5280  221.4590 C   0  0  0  0  0  0  0  0  0  0  0  0
  141.0750   77.1250  221.9020 N   0  0  0  0  0  0  0  0  0  0  0  0
  139.9550   76.2420  221.9350 C   0  0  0  0  0  0  0  0  0  0  0  0
  138.8710   76.6300  222.4400 O   0  0  0  0  0  0  0  0  0  0  0  0
  140.1450   74.8820  221.3570 C   0  0  0  0  0  0  0  0  0  0  0  0
  139.8730   73.8610  222.3430 N   0  0  0  0  0  0  0  0  0  0  0  0
  140.6150   72.6480  222.4430 C   0  0  0  0  0  0  0  0  0  0  0  0
  141.5500   72.4750  221.6220 O   0  0  0  0  0  0  0  0  0  0  0  0
  140.2700   71.6660  223.4740 C   0  0  0  0  0  0  0  0  0  0  0  0
  139.5600   70.5560  223.0690 C   0  0  0  0  0  0  0  0  0  0  0  0
  139.2370   69.6270  224.0490 C   0  0  0  0  0  0  0  0  0  0  0  0
  139.6190   69.8290  225.3590 C   0  0  0  0  0  0  0  0  0  0  0  0
  139.3240   68.9370  226.3690 C   0  0  0  0  0  0  0  0  0  0  0  0
  139.7050   69.1350  227.6840 C   0  0  0  0  0  0  0  0  0  0  0  0
  140.4160   70.2690  228.0210 C   0  0  0  0  0  0  0  0  0  0  0  0
  140.7250   71.1790  227.0200 C   0  0  0  0  0  0  0  0  0  0  0  0
  140.3340   70.9650  225.7100 C   0  0  0  0  0  0  0  0  0  0  0  0
  140.6490   71.8730  224.7450 N   0  0  0  0  0  0  0  0  0  0  0  0
  141.1304   78.4958  224.5679 H   0  0  0  0  0  0  0  0  0  0  0  0
  142.6037   77.9364  223.7059 H   0  0  0  0  0  0  0  0  0  0  0  0
  142.1705   79.6797  223.7059 H   0  0  0  0  0  0  0  0  0  0  0  0
  139.9008   78.5454  222.7011 H   0  0  0  0  0  0  0  0  0  0  0  0
  141.5673   80.4465  221.9969 H   0  0  0  0  0  0  0  0  0  0  0  0
  142.1307   79.2050  220.8274 H   0  0  0  0  0  0  0  0  0  0  0  0
  140.4110   79.7242  220.8274 H   0  0  0  0  0  0  0  0  0  0  0  0
  142.0040   76.8480  221.4900 H   0  0  0  0  0  0  0  0  0  0  0  0
  139.4597   74.7531  220.5063 H   0  0  0  0  0  0  0  0  0  0  0  0
  141.1895   74.7828  221.0267 H   0  0  0  0  0  0  0  0  0  0  0  0
  139.0980   73.9920  223.0300 H   0  0  0  0  0  0  0  0  0  0  0  0
  139.2635   70.4131  222.0194 H   0  0  0  0  0  0  0  0  0  0  0  0
  138.6720   68.7227  223.7786 H   0  0  0  0  0  0  0  0  0  0  0  0
  138.7601   68.0267  226.1173 H   0  0  0  0  0  0  0  0  0  0  0  0
  139.4435   68.3949  228.4546 H   0  0  0  0  0  0  0  0  0  0  0  0
  140.7307   70.4474  229.0598 H   0  0  0  0  0  0  0  0  0  0  0  0
  141.2914   72.0875  227.2726 H   0  0  0  0  0  0  0  0  0  0  0  0
  1  2  1  0
  2  3  1  0
  2  4  1  0
  4  5  1  0
  5  6  2  0
  5  7  1  0
  7  8  1  0
  8  9  1  0
  9 10  2  0
  9 11  1  0
 11 12  2  0
 12 13  1  0
 13 14  2  0
 14 15  1  0
 15 16  2  0
 16 17  1  0
 17 18  2  0
 18 19  1  0
 19 20  2  0
 20 11  1  0
 19 14  1  0
  1 21  1  0
  1 22  1  0
  1 23  1  0
  2 24  1  0
  3 25  1  0
  3 26  1  0
  3 27  1  0
  4 28  1  0
  7 29  1  0
  7 30  1  0
  8 31  1  0
 12 32  1  0
 13 33  1  0
 15 34  1  0
 16 35  1  0
 17 36  1  0
 18 37  1  0
M  END
>  <smiles>  (11) 
CC(C)NC(=O)CNC(=O)c1ccc2ccccc2n1

>  <score_type>  (11) 
oracle

>  <origin>  (11) 
autodockgpu

>  <m_score__min__energy>  (11) 
-7.2300000000000004

>  <m_primary>  (11) 
energy

>  <rmsd>  (11) 
2.6165640112169934

>  <m_score__min__rmsd>  (11) 
2.6165640112169934

>  <meeko>  (11) 
{"free_energy": -7.12, "intermolecular_energy": -8.31, "internal_energy": -0.8, "cluster_size": 31, "cluster_id": 1, "rank_in_cluster": 14}

>  <energy>  (11) 
-7.13

>  <cluster_rmsd>  (11) 
0.16

>  <cluster>  (11) 
1

$$$$

     RDKit          3D

 37 38  0  0  0  0  0  0  0  0999 V2000
  144.5470   73.7110  220.4870 C   0  0  0  0  0  0  0  0  0  0  0  0
  143.4500   74.7180  220.3440 C   0  0  0  0  0  0  0  0  0  0  0  0
  143.6570   75.5110  219.0980 C   0  0  0  0  0  0  0  0  0  0  0  0
  142.1340   74.1460  220.4520 N   0  0  0  0  0  0  0  0  0  0  0  0
  141.0700   74.8940  221.0390 C   0  0  0  0  0  0  0  0  0  0  0  0
  141.2870   76.0580  221.4620 O   0  0  0  0  0  0  0  0  0  0  0  0
  139.7370   74.2340  221.1160 C   0  0  0  0  0  0  0  0  0  0  0  0
  139.6440   73.3970  222.2890 N   0  0  0  0  0  0  0  0  0  0  0  0
  140.3410   72.1610  222.4300 C   0  0  0  0  0  0  0  0  0  0  0  0
  141.0690   71.7970  221.4720 O   0  0  0  0  0  0  0  0  0  0  0  0
  140.1890   71.3740  223.6560 C   0  0  0  0  0  0  0  0  0  0  0  0
  139.5540   70.1550  223.5430 C   0  0  0  0  0  0  0  0  0  0  0  0
  139.4140   69.4120  224.7070 C   0  0  0  0  0  0  0  0  0  0  0  0
  139.8940   69.8930  225.9090 C   0  0  0  0  0  0  0  0  0  0  0  0
  139.7800   69.1940  227.0920 C   0  0  0  0  0  0  0  0  0  0  0  0
  140.2600   69.6730  228.2980 C   0  0  0  0  0  0  0  0  0  0  0  0
  140.8850   70.9020  228.3400 C   0  0  0  0  0  0  0  0  0  0  0  0
  141.0120   71.6220  227.1600 C   0  0  0  0  0  0  0  0  0  0  0  0
  140.5250   71.1280  225.9620 C   0  0  0  0  0  0  0  0  0  0  0  0
  140.6600   71.8530  224.8180 N   0  0  0  0  0  0  0  0  0  0  0  0
  144.7428   73.5312  221.5544 H   0  0  0  0  0  0  0  0  0  0  0  0
  144.2450   72.7690  220.0059 H   0  0  0  0  0  0  0  0  0  0  0  0
  145.4598   74.0923  220.0059 H   0  0  0  0  0  0  0  0  0  0  0  0
  143.5045   75.4098  221.1975 H   0  0  0  0  0  0  0  0  0  0  0  0
  143.9267   76.5443  219.3616 H   0  0  0  0  0  0  0  0  0  0  0  0
  144.4675   75.0599  218.5067 H   0  0  0  0  0  0  0  0  0  0  0  0
  142.7294   75.5136  218.5067 H   0  0  0  0  0  0  0  0  0  0  0  0
  142.0030   73.1670  220.0830 H   0  0  0  0  0  0  0  0  0  0  0  0
  138.9548   75.0061  221.1614 H   0  0  0  0  0  0  0  0  0  0  0  0
  139.6040   73.6048  220.2236 H   0  0  0  0  0  0  0  0  0  0  0  0
  139.0430   73.6860  223.0910 H   0  0  0  0  0  0  0  0  0  0  0  0
  139.1766   69.7891  222.5767 H   0  0  0  0  0  0  0  0  0  0  0  0
  138.9164   68.4316  224.6716 H   0  0  0  0  0  0  0  0  0  0  0  0
  139.2853   68.2116  227.0763 H   0  0  0  0  0  0  0  0  0  0  0  0
  140.1441   69.0784  229.2162 H   0  0  0  0  0  0  0  0  0  0  0  0
  141.2742   71.3027  229.2876 H   0  0  0  0  0  0  0  0  0  0  0  0
  141.5088   72.6033  227.1772 H   0  0  0  0  0  0  0  0  0  0  0  0
  1  2  1  0
  2  3  1  0
  2  4  1  0
  4  5  1  0
  5  6  2  0
  5  7  1  0
  7  8  1  0
  8  9  1  0
  9 10  2  0
  9 11  1  0
 11 12  2  0
 12 13  1  0
 13 14  2  0
 14 15  1  0
 15 16  2  0
 16 17  1  0
 17 18  2  0
 18 19  1  0
 19 20  2  0
 20 11  1  0
 19 14  1  0
  1 21  1  0
  1 22  1  0
  1 23  1  0
  2 24  1  0
  3 25  1  0
  3 26  1  0
  3 27  1  0
  4 28  1  0
  7 29  1  0
  7 30  1  0
  8 31  1  0
 12 32  1  0
 13 33  1  0
 15 34  1  0
 16 35  1  0
 17 36  1  0
 18 37  1  0
M  END
>  <smiles>  (12) 
CC(C)NC(=O)CNC(=O)c1ccc2ccccc2n1

>  <score_type>  (12) 
oracle

>  <origin>  (12) 
autodockgpu

>  <m_score__min__energy>  (12) 
-7.2300000000000004

>  <m_primary>  (12) 
energy

>  <rmsd>  (12) 
2.5043112908374052

>  <m_score__min__rmsd>  (12) 
2.5043112908374052

>  <meeko>  (12) 
{"free_energy": -6.49, "intermolecular_energy": -7.68, "internal_energy": -1.47, "cluster_size": 14, "cluster_id": 3, "rank_in_cluster": 3}

>  <energy>  (12) 
-7.13

>  <cluster_rmsd>  (12) 
0.16

>  <cluster>  (12) 
1

$$$$

     RDKit          3D

 37 38  0  0  0  0  0  0  0  0999 V2000
  135.7960   74.2670  223.1980 C   0  0  0  0  0  0  0  0  0  0  0  0
  136.8110   74.6170  222.1550 C   0  0  0  0  0  0  0  0  0  0  0  0
  137.3350   75.9900  222.4070 C   0  0  0  0  0  0  0  0  0  0  0  0
  137.8420   73.6230  222.0090 N   0  0  0  0  0  0  0  0  0  0  0  0
  137.9330   72.8520  220.8120 C   0  0  0  0  0  0  0  0  0  0  0  0
  137.1070   73.0440  219.8830 O   0  0  0  0  0  0  0  0  0  0  0  0
  139.0260   71.8430  220.7350 C   0  0  0  0  0  0  0  0  0  0  0  0
  139.2860   71.2660  222.0340 N   0  0  0  0  0  0  0  0  0  0  0  0
  140.1010   71.8930  223.0220 C   0  0  0  0  0  0  0  0  0  0  0  0
  140.6110   73.0030  222.7300 O   0  0  0  0  0  0  0  0  0  0  0  0
  140.3120   71.2360  224.3140 C   0  0  0  0  0  0  0  0  0  0  0  0
  141.0690   71.9150  225.2460 C   0  0  0  0  0  0  0  0  0  0  0  0
  141.2650   71.2890  226.4690 C   0  0  0  0  0  0  0  0  0  0  0  0
  140.7180   70.0470  226.7180 C   0  0  0  0  0  0  0  0  0  0  0  0
  140.8830   69.3840  227.9160 C   0  0  0  0  0  0  0  0  0  0  0  0
  140.3370   68.1380  228.1680 C   0  0  0  0  0  0  0  0  0  0  0  0
  139.5890   67.5140  227.1910 C   0  0  0  0  0  0  0  0  0  0  0  0
  139.4100   68.1640  225.9780 C   0  0  0  0  0  0  0  0  0  0  0  0
  139.9640   69.4100  225.7420 C   0  0  0  0  0  0  0  0  0  0  0  0
  139.7750   70.0270  224.5440 N   0  0  0  0  0  0  0  0  0  0  0  0
  136.2305   74.4168  224.1974 H   0  0  0  0  0  0  0  0  0  0  0  0
  134.9130   74.9126  223.0816 H   0  0  0  0  0  0  0  0  0  0  0  0
  135.4986   73.2144  223.0816 H   0  0  0  0  0  0  0  0  0  0  0  0
  136.3116   74.6215  221.1749 H   0  0  0  0  0  0  0  0  0  0  0  0
  137.4014   76.1639  223.4911 H   0  0  0  0  0  0  0  0  0  0  0  0
  138.3342   76.0893  221.9579 H   0  0  0  0  0  0  0  0  0  0  0  0
  136.6560   76.7298  221.9579 H   0  0  0  0  0  0  0  0  0  0  0  0
  138.5090   73.5000  222.8150 H   0  0  0  0  0  0  0  0  0  0  0  0
  138.7308   71.0444  220.0385 H   0  0  0  0  0  0  0  0  0  0  0  0
  139.9408   72.3414  220.3818 H   0  0  0  0  0  0  0  0  0  0  0  0
  138.8690   70.3440  222.2890 H   0  0  0  0  0  0  0  0  0  0  0  0
  141.4968   72.9052  225.0302 H   0  0  0  0  0  0  0  0  0  0  0  0
  141.8619   71.7875  227.2469 H   0  0  0  0  0  0  0  0  0  0  0  0
  141.4753   69.8676  228.7067 H   0  0  0  0  0  0  0  0  0  0  0  0
  140.4981   67.6486  229.1399 H   0  0  0  0  0  0  0  0  0  0  0  0
  139.1446   66.5237  227.3694 H   0  0  0  0  0  0  0  0  0  0  0  0
  138.8163   67.6795  225.1889 H   0  0  0  0  0  0  0  0  0  0  0  0
  1  2  1  0
  2  3  1  0
  2  4  1  0
  4  5  1  0
  5  6  2  0
  5  7  1  0
  7  8  1  0
  8  9  1  0
  9 10  2  0
  9 11  1  0
 11 12  2  0
 12 13  1  0
 13 14  2  0
 14 15  1  0
 15 16  2  0
 16 17  1  0
 17 18  2  0
 18 19  1  0
 19 20  2  0
 20 11  1  0
 19 14  1  0
  1 21  1  0
  1 22  1  0
  1 23  1  0
  2 24  1  0
  3 25  1  0
  3 26  1  0
  3 27  1  0
  4 28  1  0
  7 29  1  0
  7 30  1  0
  8 31  1  0
 12 32  1  0
 13 33  1  0
 15 34  1  0
 16 35  1  0
 17 36  1  0
 18 37  1  0
M  END
>  <smiles>  (13) 
CC(C)NC(=O)CNC(=O)c1ccc2ccccc2n1

>  <score_type>  (13) 
oracle

>  <origin>  (13) 
autodockgpu

>  <m_score__min__energy>  (13) 
-7.2300000000000004

>  <m_primary>  (13) 
energy

>  <rmsd>  (13) 
4.197006525532972

>  <m_score__min__rmsd>  (13) 
4.197006525532972

>  <meeko>  (13) 
{"free_energy": -5.69, "intermolecular_energy": -6.88, "internal_energy": -1.78, "cluster_size": 2, "cluster_id": 4, "rank_in_cluster": 2}

>  <energy>  (13) 
-7.12

>  <cluster_rmsd>  (13) 
0.13

>  <cluster>  (13) 
1

$$$$

     RDKit          3D

 37 38  0  0  0  0  0  0  0  0999 V2000
  144.4730   73.9280  220.4480 C   0  0  0  0  0  0  0  0  0  0  0  0
  143.2500   74.7880  220.3920 C   0  0  0  0  0  0  0  0  0  0  0  0
  143.3200   75.6830  219.2010 C   0  0  0  0  0  0  0  0  0  0  0  0
  142.0230   74.0400  220.4810 N   0  0  0  0  0  0  0  0  0  0  0  0
  140.7770   74.7180  220.6340 C   0  0  0  0  0  0  0  0  0  0  0  0
  140.7540   75.9740  220.6920 O   0  0  0  0  0  0  0  0  0  0  0  0
  139.5510   73.8750  220.7180 C   0  0  0  0  0  0  0  0  0  0  0  0
  139.5090   73.1530  221.9690 N   0  0  0  0  0  0  0  0  0  0  0  0
  140.2740   71.9770  222.2230 C   0  0  0  0  0  0  0  0  0  0  0  0
  141.0180   71.5620  221.2990 O   0  0  0  0  0  0  0  0  0  0  0  0
  140.1700   71.3070  223.5210 C   0  0  0  0  0  0  0  0  0  0  0  0
  139.5250   70.0880  223.5470 C   0  0  0  0  0  0  0  0  0  0  0  0
  139.4300   69.4560  224.7790 C   0  0  0  0  0  0  0  0  0  0  0  0
  139.9630   70.0400  225.9100 C   0  0  0  0  0  0  0  0  0  0  0  0
  139.8950   69.4520  227.1560 C   0  0  0  0  0  0  0  0  0  0  0  0
  140.4280   70.0350  228.2930 C   0  0  0  0  0  0  0  0  0  0  0  0
  141.0610   71.2570  228.1960 C   0  0  0  0  0  0  0  0  0  0  0  0
  141.1410   71.8650  226.9510 C   0  0  0  0  0  0  0  0  0  0  0  0
  140.6020   71.2690  225.8250 C   0  0  0  0  0  0  0  0  0  0  0  0
  140.6930   71.8850  224.6140 N   0  0  0  0  0  0  0  0  0  0  0  0
  144.7410   73.7396  221.4981 H   0  0  0  0  0  0  0  0  0  0  0  0
  144.2720   72.9714  219.9435 H   0  0  0  0  0  0  0  0  0  0  0  0
  145.3052   74.4408  219.9435 H   0  0  0  0  0  0  0  0  0  0  0  0
  143.2344   75.4228  221.2902 H   0  0  0  0  0  0  0  0  0  0  0  0
  143.4018   76.7287  219.5325 H   0  0  0  0  0  0  0  0  0  0  0  0
  144.2003   75.4202  218.5961 H   0  0  0  0  0  0  0  0  0  0  0  0
  142.4095   75.5602  218.5961 H   0  0  0  0  0  0  0  0  0  0  0  0
  142.0960   72.9900  220.4270 H   0  0  0  0  0  0  0  0  0  0  0  0
  138.6636   74.5208  220.6445 H   0  0  0  0  0  0  0  0  0  0  0  0
  139.5656   73.1485  219.8921 H   0  0  0  0  0  0  0  0  0  0  0  0
  138.8950   73.4860  222.7440 H   0  0  0  0  0  0  0  0  0  0  0  0
  139.1059   69.6382  222.6348 H   0  0  0  0  0  0  0  0  0  0  0  0
  138.9256   68.4814  224.8545 H   0  0  0  0  0  0  0  0  0  0  0  0
  139.3952   68.4767  227.2504 H   0  0  0  0  0  0  0  0  0  0  0  0
  140.3474   69.5280  229.2659 H   0  0  0  0  0  0  0  0  0  0  0  0
  141.4927   71.7387  229.0857 H   0  0  0  0  0  0  0  0  0  0  0  0
  141.6426   72.8395  226.8578 H   0  0  0  0  0  0  0  0  0  0  0  0
  1  2  1  0
  2  3  1  0
  2  4  1  0
  4  5  1  0
  5  6  2  0
  5  7  1  0
  7  8  1  0
  8  9  1  0
  9 10  2  0
  9 11  1  0
 11 12  2  0
 12 13  1  0
 13 14  2  0
 14 15  1  0
 15 16  2  0
 16 17  1  0
 17 18  2  0
 18 19  1  0
 19 20  2  0
 20 11  1  0
 19 14  1  0
  1 21  1  0
  1 22  1  0
  1 23  1  0
  2 24  1  0
  3 25  1  0
  3 26  1  0
  3 27  1  0
  4 28  1  0
  7 29  1  0
  7 30  1  0
  8 31  1  0
 12 32  1  0
 13 33  1  0
 15 34  1  0
 16 35  1  0
 17 36  1  0
 18 37  1  0
M  END
>  <smiles>  (14) 
CC(C)NC(=O)CNC(=O)c1ccc2ccccc2n1

>  <score_type>  (14) 
oracle

>  <origin>  (14) 
autodockgpu

>  <m_score__min__energy>  (14) 
-7.2300000000000004

>  <m_primary>  (14) 
energy

>  <rmsd>  (14) 
2.416539188921863

>  <m_score__min__rmsd>  (14) 
2.416539188921863

>  <meeko>  (14) 
{"free_energy": -6.28, "intermolecular_energy": -7.48, "internal_energy": -1.45, "cluster_size": 31, "cluster_id": 1, "rank_in_cluster": 28}

>  <energy>  (14) 
-7.12

>  <cluster_rmsd>  (14) 
0.16

>  <cluster>  (14) 
1

$$$$

     RDKit          3D

 37 38  0  0  0  0  0  0  0  0999 V2000
  140.3100   79.1760  221.4670 C   0  0  0  0  0  0  0  0  0  0  0  0
  141.4280   78.3240  221.9820 C   0  0  0  0  0  0  0  0  0  0  0  0
  141.4930   78.4280  223.4680 C   0  0  0  0  0  0  0  0  0  0  0  0
  141.3800   76.9690  221.4990 N   0  0  0  0  0  0  0  0  0  0  0  0
  140.2790   76.1250  221.8330 C   0  0  0  0  0  0  0  0  0  0  0  0
  139.3490   76.5710  222.5530 O   0  0  0  0  0  0  0  0  0  0  0  0
  140.3010   74.7360  221.2970 C   0  0  0  0  0  0  0  0  0  0  0  0
  140.0340   73.7760  222.3430 N   0  0  0  0  0  0  0  0  0  0  0  0
  140.6320   72.4820  222.3930 C   0  0  0  0  0  0  0  0  0  0  0  0
  141.4280   72.1790  221.4690 O   0  0  0  0  0  0  0  0  0  0  0  0
  140.3040   71.5710  223.4910 C   0  0  0  0  0  0  0  0  0  0  0  0
  139.5990   70.4300  223.1700 C   0  0  0  0  0  0  0  0  0  0  0  0
  139.2930   69.5680  224.2140 C   0  0  0  0  0  0  0  0  0  0  0  0
  139.6850   69.8610  225.5040 C   0  0  0  0  0  0  0  0  0  0  0  0
  139.4060   69.0380  226.5750 C   0  0  0  0  0  0  0  0  0  0  0  0
  139.7980   69.3290  227.8700 C   0  0  0  0  0  0  0  0  0  0  0  0
  140.5020   70.4890  228.1220 C   0  0  0  0  0  0  0  0  0  0  0  0
  140.7940   71.3310  227.0580 C   0  0  0  0  0  0  0  0  0  0  0  0
  140.3940   71.0250  225.7690 C   0  0  0  0  0  0  0  0  0  0  0  0
  140.6920   71.8670  224.7420 N   0  0  0  0  0  0  0  0  0  0  0  0
  139.7524   79.6009  222.3146 H   0  0  0  0  0  0  0  0  0  0  0  0
  140.7224   79.9909  220.8540 H   0  0  0  0  0  0  0  0  0  0  0  0
  139.6337   78.5622  220.8540 H   0  0  0  0  0  0  0  0  0  0  0  0
  142.3733   78.7123  221.5751 H   0  0  0  0  0  0  0  0  0  0  0  0
  140.9612   77.5771  223.9187 H   0  0  0  0  0  0  0  0  0  0  0  0
  142.5445   78.4158  223.7908 H   0  0  0  0  0  0  0  0  0  0  0  0
  141.0213   79.3678  223.7908 H   0  0  0  0  0  0  0  0  0  0  0  0
  142.1830   76.6440  220.8990 H   0  0  0  0  0  0  0  0  0  0  0  0
  139.5335   74.6395  220.5150 H   0  0  0  0  0  0  0  0  0  0  0  0
  141.2996   74.5351  220.8818 H   0  0  0  0  0  0  0  0  0  0  0  0
  139.3740   74.0140  223.1150 H   0  0  0  0  0  0  0  0  0  0  0  0
  139.2937   70.2133  222.1357 H   0  0  0  0  0  0  0  0  0  0  0  0
  138.7331   68.6432  224.0111 H   0  0  0  0  0  0  0  0  0  0  0  0
  138.8468   68.1086  226.3917 H   0  0  0  0  0  0  0  0  0  0  0  0
  139.5504   68.6412  228.6919 H   0  0  0  0  0  0  0  0  0  0  0  0
  140.8244   70.7406  229.1431 H   0  0  0  0  0  0  0  0  0  0  0  0
  141.3542   72.2595  227.2429 H   0  0  0  0  0  0  0  0  0  0  0  0
  1  2  1  0
  2  3  1  0
  2  4  1  0
  4  5  1  0
  5  6  2  0
  5  7  1  0
  7  8  1  0
  8  9  1  0
  9 10  2  0
  9 11  1  0
 11 12  2  0
 12 13  1  0
 13 14  2  0
 14 15  1  0
 15 16  2  0
 16 17  1  0
 17 18  2  0
 18 19  1  0
 19 20  2  0
 20 11  1  0
 19 14  1  0
  1 21  1  0
  1 22  1  0
  1 23  1  0
  2 24  1  0
  3 25  1  0
  3 26  1  0
  3 27  1  0
  4 28  1  0
  7 29  1  0
  7 30  1  0
  8 31  1  0
 12 32  1  0
 13 33  1  0
 15 34  1  0
 16 35  1  0
 17 36  1  0
 18 37  1  0
M  END
>  <smiles>  (15) 
CC(C)NC(=O)CNC(=O)c1ccc2ccccc2n1

>  <score_type>  (15) 
oracle

>  <origin>  (15) 
autodockgpu

>  <m_score__min__energy>  (15) 
-7.2300000000000004

>  <m_primary>  (15) 
energy

>  <rmsd>  (15) 
2.1623725447216535

>  <m_score__min__rmsd>  (15) 
2.1623725447216535

>  <meeko>  (15) 
{"free_energy": -6.75, "intermolecular_energy": -7.94, "internal_energy": -0.84, "cluster_size": 31, "cluster_id": 1, "rank_in_cluster": 24}

>  <energy>  (15) 
-7.11

>  <cluster_rmsd>  (15) 
0.18

>  <cluster>  (15) 
1

$$$$

     RDKit          3D

 37 38  0  0  0  0  0  0  0  0999 V2000
  141.8040   78.5560  223.6660 C   0  0  0  0  0  0  0  0  0  0  0  0
  141.0900   78.3930  222.3610 C   0  0  0  0  0  0  0  0  0  0  0  0
  141.5480   79.4430  221.4060 C   0  0  0  0  0  0  0  0  0  0  0  0
  141.1700   77.0570  221.8310 N   0  0  0  0  0  0  0  0  0  0  0  0
  140.0440   76.1830  221.9130 C   0  0  0  0  0  0  0  0  0  0  0  0
  138.9820   76.5860  222.4510 O   0  0  0  0  0  0  0  0  0  0  0  0
  140.2030   74.8160  221.3440 C   0  0  0  0  0  0  0  0  0  0  0  0
  139.9390   73.8080  222.3440 N   0  0  0  0  0  0  0  0  0  0  0  0
  140.6450   72.5710  222.4190 C   0  0  0  0  0  0  0  0  0  0  0  0
  141.5390   72.3650  221.5610 O   0  0  0  0  0  0  0  0  0  0  0  0
  140.3110   71.6050  223.4670 C   0  0  0  0  0  0  0  0  0  0  0  0
  139.6020   70.4850  223.0850 C   0  0  0  0  0  0  0  0  0  0  0  0
  139.2890   69.5710  224.0810 C   0  0  0  0  0  0  0  0  0  0  0  0
  139.6800   69.7940  225.3860 C   0  0  0  0  0  0  0  0  0  0  0  0
  139.3950   68.9170  226.4110 C   0  0  0  0  0  0  0  0  0  0  0  0
  139.7850   69.1380  227.7210 C   0  0  0  0  0  0  0  0  0  0  0  0
  140.4930   70.2800  228.0350 C   0  0  0  0  0  0  0  0  0  0  0  0
  140.7920   71.1750  227.0170 C   0  0  0  0  0  0  0  0  0  0  0  0
  140.3930   70.9390  225.7130 C   0  0  0  0  0  0  0  0  0  0  0  0
  140.6970   71.8330  224.7320 N   0  0  0  0  0  0  0  0  0  0  0  0
  141.0972   78.3946  224.4933 H   0  0  0  0  0  0  0  0  0  0  0  0
  142.6197   77.8210  223.7320 H   0  0  0  0  0  0  0  0  0  0  0  0
  142.2199   79.5722  223.7320 H   0  0  0  0  0  0  0  0  0  0  0  0
  140.0140   78.5405  222.5358 H   0  0  0  0  0  0  0  0  0  0  0  0
  141.9261   80.3098  221.9678 H   0  0  0  0  0  0  0  0  0  0  0  0
  142.3511   79.0377  220.7729 H   0  0  0  0  0  0  0  0  0  0  0  0
  140.7046   79.7559  220.7729 H   0  0  0  0  0  0  0  0  0  0  0  0
  142.0820   76.7680  221.3910 H   0  0  0  0  0  0  0  0  0  0  0  0
  139.4977   74.6889  220.5095 H   0  0  0  0  0  0  0  0  0  0  0  0
  141.2388   74.6998  220.9925 H   0  0  0  0  0  0  0  0  0  0  0  0
  139.1980   73.9660  223.0620 H   0  0  0  0  0  0  0  0  0  0  0  0
  139.2990   70.3240  222.0399 H   0  0  0  0  0  0  0  0  0  0  0  0
  138.7246   68.6612  223.8286 H   0  0  0  0  0  0  0  0  0  0  0  0
  138.8327   68.0008  226.1776 H   0  0  0  0  0  0  0  0  0  0  0  0
  139.5325   68.4091  228.5051 H   0  0  0  0  0  0  0  0  0  0  0  0
  140.8132   70.4767  229.0688 H   0  0  0  0  0  0  0  0  0  0  0  0
  141.3569   72.0893  227.2512 H   0  0  0  0  0  0  0  0  0  0  0  0
  1  2  1  0
  2  3  1  0
  2  4  1  0
  4  5  1  0
  5  6  2  0
  5  7  1  0
  7  8  1  0
  8  9  1  0
  9 10  2  0
  9 11  1  0
 11 12  2  0
 12 13  1  0
 13 14  2  0
 14 15  1  0
 15 16  2  0
 16 17  1  0
 17 18  2  0
 18 19  1  0
 19 20  2  0
 20 11  1  0
 19 14  1  0
  1 21  1  0
  1 22  1  0
  1 23  1  0
  2 24  1  0
  3 25  1  0
  3 26  1  0
  3 27  1  0
  4 28  1  0
  7 29  1  0
  7 30  1  0
  8 31  1  0
 12 32  1  0
 13 33  1  0
 15 34  1  0
 16 35  1  0
 17 36  1  0
 18 37  1  0
M  END
>  <smiles>  (16) 
CC(C)NC(=O)CNC(=O)c1ccc2ccccc2n1

>  <score_type>  (16) 
oracle

>  <origin>  (16) 
autodockgpu

>  <m_score__min__energy>  (16) 
-7.2300000000000004

>  <m_primary>  (16) 
energy

>  <rmsd>  (16) 
2.5813008016764187

>  <m_score__min__rmsd>  (16) 
2.5813008016764187

>  <meeko>  (16) 
{"free_energy": -7.11, "intermolecular_energy": -8.3, "internal_energy": -0.8, "cluster_size": 31, "cluster_id": 1, "rank_in_cluster": 15}

>  <energy>  (16) 
-7.1

>  <cluster_rmsd>  (16) 
0.19

>  <cluster>  (16) 
1

$$$$

     RDKit          3D

 37 38  0  0  0  0  0  0  0  0999 V2000
  137.6740   77.2920  221.7540 C   0  0  0  0  0  0  0  0  0  0  0  0
  137.5260   76.1650  222.7260 C   0  0  0  0  0  0  0  0  0  0  0  0
  136.0920   76.0190  223.1090 C   0  0  0  0  0  0  0  0  0  0  0  0
  138.1300   74.9390  222.2730 N   0  0  0  0  0  0  0  0  0  0  0  0
  137.6620   74.3030  221.0850 C   0  0  0  0  0  0  0  0  0  0  0  0
  136.7180   74.8190  220.4330 O   0  0  0  0  0  0  0  0  0  0  0  0
  138.3360   73.0380  220.6810 C   0  0  0  0  0  0  0  0  0  0  0  0
  138.5480   72.1800  221.8240 N   0  0  0  0  0  0  0  0  0  0  0  0
  139.6740   72.2900  222.6910 C   0  0  0  0  0  0  0  0  0  0  0  0
  140.5170   73.1850  222.4310 O   0  0  0  0  0  0  0  0  0  0  0  0
  139.8100   71.3770  223.8280 C   0  0  0  0  0  0  0  0  0  0  0  0
  139.3720   70.0820  223.6470 C   0  0  0  0  0  0  0  0  0  0  0  0
  139.5050   69.2200  224.7270 C   0  0  0  0  0  0  0  0  0  0  0  0
  140.0510   69.6610  225.9150 C   0  0  0  0  0  0  0  0  0  0  0  0
  140.2040   68.8450  227.0150 C   0  0  0  0  0  0  0  0  0  0  0  0
  140.7510   69.2840  228.2090 C   0  0  0  0  0  0  0  0  0  0  0  0
  141.1690   70.5950  228.3220 C   0  0  0  0  0  0  0  0  0  0  0  0
  141.0240   71.4330  227.2250 C   0  0  0  0  0  0  0  0  0  0  0  0
  140.4750   70.9770  226.0400 C   0  0  0  0  0  0  0  0  0  0  0  0
  140.3430   71.8190  224.9780 N   0  0  0  0  0  0  0  0  0  0  0  0
  137.7980   78.2366  222.3039 H   0  0  0  0  0  0  0  0  0  0  0  0
  138.5569   77.1172  221.1216 H   0  0  0  0  0  0  0  0  0  0  0  0
  136.7759   77.3511  221.1216 H   0  0  0  0  0  0  0  0  0  0  0  0
  138.0943   76.4162  223.6337 H   0  0  0  0  0  0  0  0  0  0  0  0
  136.0044   76.0101  224.2055 H   0  0  0  0  0  0  0  0  0  0  0  0
  135.5160   76.8631  222.7020 H   0  0  0  0  0  0  0  0  0  0  0  0
  135.6979   75.0761  222.7020 H   0  0  0  0  0  0  0  0  0  0  0  0
  138.9170   74.5480  222.8550 H   0  0  0  0  0  0  0  0  0  0  0  0
  137.7064   72.5125  219.9479 H   0  0  0  0  0  0  0  0  0  0  0  0
  139.3132   73.2851  220.2405 H   0  0  0  0  0  0  0  0  0  0  0  0
  137.8560   71.4320  222.0510 H   0  0  0  0  0  0  0  0  0  0  0  0
  138.9381   69.7482  222.6929 H   0  0  0  0  0  0  0  0  0  0  0  0
  139.1720   68.1757  224.6349 H   0  0  0  0  0  0  0  0  0  0  0  0
  139.8767   67.7974  226.9412 H   0  0  0  0  0  0  0  0  0  0  0  0
  140.8516   68.5943  229.0600 H   0  0  0  0  0  0  0  0  0  0  0  0
  141.6070   70.9669  229.2600 H   0  0  0  0  0  0  0  0  0  0  0  0
  141.3521   72.4803  227.2994 H   0  0  0  0  0  0  0  0  0  0  0  0
  1  2  1  0
  2  3  1  0
  2  4  1  0
  4  5  1  0
  5  6  2  0
  5  7  1  0
  7  8  1  0
  8  9  1  0
  9 10  2  0
  9 11  1  0
 11 12  2  0
 12 13  1  0
 13 14  2  0
 14 15  1  0
 15 16  2  0
 16 17  1  0
 17 18  2  0
 18 19  1  0
 19 20  2  0
 20 11  1  0
 19 14  1  0
  1 21  1  0
  1 22  1  0
  1 23  1  0
  2 24  1  0
  3 25  1  0
  3 26  1  0
  3 27  1  0
  4 28  1  0
  7 29  1  0
  7 30  1  0
  8 31  1  0
 12 32  1  0
 13 33  1  0
 15 34  1  0
 16 35  1  0
 17 36  1  0
 18 37  1  0
M  END
>  <smiles>  (17) 
CC(C)NC(=O)CNC(=O)c1ccc2ccccc2n1

>  <score_type>  (17) 
oracle

>  <origin>  (17) 
autodockgpu

>  <m_score__min__energy>  (17) 
-7.2300000000000004

>  <m_primary>  (17) 
energy

>  <rmsd>  (17) 
2.505719685406871

>  <m_score__min__rmsd>  (17) 
2.505719685406871

>  <meeko>  (17) 
{"free_energy": -6.0, "intermolecular_energy": -7.19, "internal_energy": -1.38, "cluster_size": 31, "cluster_id": 1, "rank_in_cluster": 31}

>  <energy>  (17) 
-7.09

>  <cluster_rmsd>  (17) 
0.19

>  <cluster>  (17) 
1

$$$$

     RDKit          3D

 37 38  0  0  0  0  0  0  0  0999 V2000
  141.5770   78.4970  223.5530 C   0  0  0  0  0  0  0  0  0  0  0  0
  140.9340   78.2070  222.2330 C   0  0  0  0  0  0  0  0  0  0  0  0
  141.4030   79.1950  221.2190 C   0  0  0  0  0  0  0  0  0  0  0  0
  141.0820   76.8370  221.8160 N   0  0  0  0  0  0  0  0  0  0  0  0
  139.9360   75.9970  221.6870 C   0  0  0  0  0  0  0  0  0  0  0  0
  138.7940   76.4580  221.9400 O   0  0  0  0  0  0  0  0  0  0  0  0
  140.1700   74.5910  221.2520 C   0  0  0  0  0  0  0  0  0  0  0  0
  139.9330   73.6700  222.3390 N   0  0  0  0  0  0  0  0  0  0  0  0
  140.5980   72.4140  222.4630 C   0  0  0  0  0  0  0  0  0  0  0  0
  141.4280   72.1110  221.5700 O   0  0  0  0  0  0  0  0  0  0  0  0
  140.2970   71.5400  223.5980 C   0  0  0  0  0  0  0  0  0  0  0  0
  139.6120   70.3740  223.3270 C   0  0  0  0  0  0  0  0  0  0  0  0
  139.3310   69.5480  224.4070 C   0  0  0  0  0  0  0  0  0  0  0  0
  139.7270   69.8990  225.6810 C   0  0  0  0  0  0  0  0  0  0  0  0
  139.4730   69.1130  226.7850 C   0  0  0  0  0  0  0  0  0  0  0  0
  139.8680   69.4610  228.0650 C   0  0  0  0  0  0  0  0  0  0  0  0
  140.5510   70.6440  228.2660 C   0  0  0  0  0  0  0  0  0  0  0  0
  140.8190   71.4490  227.1680 C   0  0  0  0  0  0  0  0  0  0  0  0
  140.4150   71.0850  225.8950 C   0  0  0  0  0  0  0  0  0  0  0  0
  140.6880   71.8920  224.8330 N   0  0  0  0  0  0  0  0  0  0  0  0
  140.9007   78.1920  224.3652 H   0  0  0  0  0  0  0  0  0  0  0  0
  142.5207   77.9374  223.6320 H   0  0  0  0  0  0  0  0  0  0  0  0
  141.7822   79.5748  223.6320 H   0  0  0  0  0  0  0  0  0  0  0  0
  139.8466   78.3295  222.3454 H   0  0  0  0  0  0  0  0  0  0  0  0
  141.8207   80.0749  221.7302 H   0  0  0  0  0  0  0  0  0  0  0  0
  142.1785   78.7343  220.5894 H   0  0  0  0  0  0  0  0  0  0  0  0
  140.5557   79.5046  220.5894 H   0  0  0  0  0  0  0  0  0  0  0  0
  142.0590   76.4990  221.6160 H   0  0  0  0  0  0  0  0  0  0  0  0
  139.4883   74.3523  220.4224 H   0  0  0  0  0  0  0  0  0  0  0  0
  141.2169   74.4922  220.9290 H   0  0  0  0  0  0  0  0  0  0  0  0
  139.2460   73.9090  223.0860 H   0  0  0  0  0  0  0  0  0  0  0  0
  139.3032   70.1111  222.3045 H   0  0  0  0  0  0  0  0  0  0  0  0
  138.7877   68.6053  224.2454 H   0  0  0  0  0  0  0  0  0  0  0  0
  138.9317   68.1661  226.6419 H   0  0  0  0  0  0  0  0  0  0  0  0
  139.6398   68.8009  228.9148 H   0  0  0  0  0  0  0  0  0  0  0  0
  140.8754   70.9417  229.2740 H   0  0  0  0  0  0  0  0  0  0  0  0
  141.3628   72.3943  227.3119 H   0  0  0  0  0  0  0  0  0  0  0  0
  1  2  1  0
  2  3  1  0
  2  4  1  0
  4  5  1  0
  5  6  2  0
  5  7  1  0
  7  8  1  0
  8  9  1  0
  9 10  2  0
  9 11  1  0
 11 12  2  0
 12 13  1  0
 13 14  2  0
 14 15  1  0
 15 16  2  0
 16 17  1  0
 17 18  2  0
 18 19  1  0
 19 20  2  0
 20 11  1  0
 19 14  1  0
  1 21  1  0
  1 22  1  0
  1 23  1  0
  2 24  1  0
  3 25  1  0
  3 26  1  0
  3 27  1  0
  4 28  1  0
  7 29  1  0
  7 30  1  0
  8 31  1  0
 12 32  1  0
 13 33  1  0
 15 34  1  0
 16 35  1  0
 17 36  1  0
 18 37  1  0
M  END
>  <smiles>  (18) 
CC(C)NC(=O)CNC(=O)c1ccc2ccccc2n1

>  <score_type>  (18) 
oracle

>  <origin>  (18) 
autodockgpu

>  <m_score__min__energy>  (18) 
-7.2300000000000004

>  <m_primary>  (18) 
energy

>  <rmsd>  (18) 
2.4818439729124178

>  <m_score__min__rmsd>  (18) 
2.4818439729124178

>  <meeko>  (18) 
{"free_energy": -7.19, "intermolecular_energy": -8.38, "internal_energy": -0.77, "cluster_size": 31, "cluster_id": 1, "rank_in_cluster": 5}

>  <energy>  (18) 
-7.08

>  <cluster_rmsd>  (18) 
0.16

>  <cluster>  (18) 
1

$$$$

     RDKit          3D

 37 38  0  0  0  0  0  0  0  0999 V2000
  141.7950   78.5000  223.7690 C   0  0  0  0  0  0  0  0  0  0  0  0
  141.1780   78.4240  222.4070 C   0  0  0  0  0  0  0  0  0  0  0  0
  141.7860   79.4600  221.5230 C   0  0  0  0  0  0  0  0  0  0  0  0
  141.2020   77.0990  221.8450 N   0  0  0  0  0  0  0  0  0  0  0  0
  140.0680   76.2430  221.9750 C   0  0  0  0  0  0  0  0  0  0  0  0
  139.0460   76.6500  222.5840 O   0  0  0  0  0  0  0  0  0  0  0  0
  140.1680   74.8860  221.3670 C   0  0  0  0  0  0  0  0  0  0  0  0
  139.8950   73.8610  222.3470 N   0  0  0  0  0  0  0  0  0  0  0  0
  140.6220   72.6370  222.4280 C   0  0  0  0  0  0  0  0  0  0  0  0
  141.5450   72.4590  221.5940 O   0  0  0  0  0  0  0  0  0  0  0  0
  140.2770   71.6520  223.4550 C   0  0  0  0  0  0  0  0  0  0  0  0
  139.5500   70.5530  223.0490 C   0  0  0  0  0  0  0  0  0  0  0  0
  139.2270   69.6200  224.0250 C   0  0  0  0  0  0  0  0  0  0  0  0
  139.6250   69.8070  225.3340 C   0  0  0  0  0  0  0  0  0  0  0  0
  139.3300   68.9110  226.3390 C   0  0  0  0  0  0  0  0  0  0  0  0
  139.7270   69.0950  227.6520 C   0  0  0  0  0  0  0  0  0  0  0  0
  140.4540   70.2190  227.9900 C   0  0  0  0  0  0  0  0  0  0  0  0
  140.7630   71.1330  226.9920 C   0  0  0  0  0  0  0  0  0  0  0  0
  140.3560   70.9340  225.6850 C   0  0  0  0  0  0  0  0  0  0  0  0
  140.6710   71.8450  224.7240 N   0  0  0  0  0  0  0  0  0  0  0  0
  141.0097   78.4033  224.5332 H   0  0  0  0  0  0  0  0  0  0  0  0
  142.5241   77.6849  223.8872 H   0  0  0  0  0  0  0  0  0  0  0  0
  142.3045   79.4677  223.8872 H   0  0  0  0  0  0  0  0  0  0  0  0
  140.1053   78.6486  222.5012 H   0  0  0  0  0  0  0  0  0  0  0  0
  142.2466   80.2448  222.1410 H   0  0  0  0  0  0  0  0  0  0  0  0
  142.5545   78.9950  220.8880 H   0  0  0  0  0  0  0  0  0  0  0  0
  141.0053   79.9042  220.8880 H   0  0  0  0  0  0  0  0  0  0  0  0
  142.0810   76.8050  221.3440 H   0  0  0  0  0  0  0  0  0  0  0  0
  139.4390   74.8040  220.5474 H   0  0  0  0  0  0  0  0  0  0  0  0
  141.1907   74.7456  220.9870 H   0  0  0  0  0  0  0  0  0  0  0  0
  139.1310   73.9960  223.0450 H   0  0  0  0  0  0  0  0  0  0  0  0
  139.2407   70.4217  222.0016 H   0  0  0  0  0  0  0  0  0  0  0  0
  138.6492   68.7243  223.7533 H   0  0  0  0  0  0  0  0  0  0  0  0
  138.7531   68.0092  226.0861 H   0  0  0  0  0  0  0  0  0  0  0  0
  139.4655   68.3520  228.4198 H   0  0  0  0  0  0  0  0  0  0  0  0
  140.7810   70.3865  229.0268 H   0  0  0  0  0  0  0  0  0  0  0  0
  141.3427   72.0329  227.2454 H   0  0  0  0  0  0  0  0  0  0  0  0
  1  2  1  0
  2  3  1  0
  2  4  1  0
  4  5  1  0
  5  6  2  0
  5  7  1  0
  7  8  1  0
  8  9  1  0
  9 10  2  0
  9 11  1  0
 11 12  2  0
 12 13  1  0
 13 14  2  0
 14 15  1  0
 15 16  2  0
 16 17  1  0
 17 18  2  0
 18 19  1  0
 19 20  2  0
 20 11  1  0
 19 14  1  0
  1 21  1  0
  1 22  1  0
  1 23  1  0
  2 24  1  0
  3 25  1  0
  3 26  1  0
  3 27  1  0
  4 28  1  0
  7 29  1  0
  7 30  1  0
  8 31  1  0
 12 32  1  0
 13 33  1  0
 15 34  1  0
 16 35  1  0
 17 36  1  0
 18 37  1  0
M  END
>  <smiles>  (19) 
CC(C)NC(=O)CNC(=O)c1ccc2ccccc2n1

>  <score_type>  (19) 
oracle

>  <origin>  (19) 
autodockgpu

>  <m_score__min__energy>  (19) 
-7.2300000000000004

>  <m_primary>  (19) 
energy

>  <rmsd>  (19) 
2.622028607079447

>  <m_score__min__rmsd>  (19) 
2.622028607079447

>  <meeko>  (19) 
{"free_energy": -7.08, "intermolecular_energy": -8.27, "internal_energy": -0.81, "cluster_size": 31, "cluster_id": 1, "rank_in_cluster": 19}

>  <energy>  (19) 
-7.08

>  <cluster_rmsd>  (19) 
0.21

>  <cluster>  (19) 
1

$$$$

     RDKit          3D

 37 38  0  0  0  0  0  0  0  0999 V2000
  139.3080   78.2370  222.9920 C   0  0  0  0  0  0  0  0  0  0  0  0
  140.6780   78.0130  222.4350 C   0  0  0  0  0  0  0  0  0  0  0  0
  141.6910   78.6560  223.3200 C   0  0  0  0  0  0  0  0  0  0  0  0
  140.9570   76.6290  222.1500 N   0  0  0  0  0  0  0  0  0  0  0  0
  140.0450   75.8580  221.3680 C   0  0  0  0  0  0  0  0  0  0  0  0
  138.9950   76.3930  220.9300 O   0  0  0  0  0  0  0  0  0  0  0  0
  140.4030   74.4340  221.1160 C   0  0  0  0  0  0  0  0  0  0  0  0
  140.1350   73.6230  222.2810 N   0  0  0  0  0  0  0  0  0  0  0  0
  140.5910   72.2790  222.4240 C   0  0  0  0  0  0  0  0  0  0  0  0
  141.2590   71.7930  221.4770 O   0  0  0  0  0  0  0  0  0  0  0  0
  140.2730   71.5280  223.6400 C   0  0  0  0  0  0  0  0  0  0  0  0
  139.4510   70.4290  223.5010 C   0  0  0  0  0  0  0  0  0  0  0  0
  139.1540   69.7190  224.6560 C   0  0  0  0  0  0  0  0  0  0  0  0
  139.6680   70.1140  225.8750 C   0  0  0  0  0  0  0  0  0  0  0  0
  139.4040   69.4430  227.0500 C   0  0  0  0  0  0  0  0  0  0  0  0
  139.9170   69.8360  228.2730 C   0  0  0  0  0  0  0  0  0  0  0  0
  140.7340   70.9460  228.3420 C   0  0  0  0  0  0  0  0  0  0  0  0
  141.0140   71.6350  227.1700 C   0  0  0  0  0  0  0  0  0  0  0  0
  140.4910   71.2290  225.9550 C   0  0  0  0  0  0  0  0  0  0  0  0
  140.7800   71.9220  224.8190 N   0  0  0  0  0  0  0  0  0  0  0  0
  139.3533   78.2296  224.0910 H   0  0  0  0  0  0  0  0  0  0  0  0
  138.9265   79.2094  222.6473 H   0  0  0  0  0  0  0  0  0  0  0  0
  138.6367   77.4367  222.6473 H   0  0  0  0  0  0  0  0  0  0  0  0
  140.7328   78.5000  221.4502 H   0  0  0  0  0  0  0  0  0  0  0  0
  141.4204   78.4842  224.3723 H   0  0  0  0  0  0  0  0  0  0  0  0
  142.6813   78.2208  223.1204 H   0  0  0  0  0  0  0  0  0  0  0  0
  141.7187   79.7374  223.1204 H   0  0  0  0  0  0  0  0  0  0  0  0
  141.8500   76.2290  222.5400 H   0  0  0  0  0  0  0  0  0  0  0  0
  139.8092   74.0573  220.2701 H   0  0  0  0  0  0  0  0  0  0  0  0
  141.4772   74.3762  220.8861 H   0  0  0  0  0  0  0  0  0  0  0  0
  139.5810   74.0140  223.0740 H   0  0  0  0  0  0  0  0  0  0  0  0
  139.0500   70.1296  222.5214 H   0  0  0  0  0  0  0  0  0  0  0  0
  138.5034   68.8338  224.5997 H   0  0  0  0  0  0  0  0  0  0  0  0
  138.7561   68.5548  227.0133 H   0  0  0  0  0  0  0  0  0  0  0  0
  139.6756   69.2681  229.1836 H   0  0  0  0  0  0  0  0  0  0  0  0
  141.1536   71.2771  229.3034 H   0  0  0  0  0  0  0  0  0  0  0  0
  141.6645   72.5212  227.2079 H   0  0  0  0  0  0  0  0  0  0  0  0
  1  2  1  0
  2  3  1  0
  2  4  1  0
  4  5  1  0
  5  6  2  0
  5  7  1  0
  7  8  1  0
  8  9  1  0
  9 10  2  0
  9 11  1  0
 11 12  2  0
 12 13  1  0
 13 14  2  0
 14 15  1  0
 15 16  2  0
 16 17  1  0
 17 18  2  0
 18 19  1  0
 19 20  2  0
 20 11  1  0
 19 14  1  0
  1 21  1  0
  1 22  1  0
  1 23  1  0
  2 24  1  0
  3 25  1  0
  3 26  1  0
  3 27  1  0
  4 28  1  0
  7 29  1  0
  7 30  1  0
  8 31  1  0
 12 32  1  0
 13 33  1  0
 15 34  1  0
 16 35  1  0
 17 36  1  0
 18 37  1  0
M  END
>  <smiles>  (20) 
CC(C)NC(=O)CNC(=O)c1ccc2ccccc2n1

>  <score_type>  (20) 
oracle

>  <origin>  (20) 
autodockgpu

>  <m_score__min__energy>  (20) 
-7.2300000000000004

>  <m_primary>  (20) 
energy

>  <rmsd>  (20) 
2.4800468589228464

>  <m_score__min__rmsd>  (20) 
2.4800468589228464

>  <meeko>  (20) 
{"free_energy": -6.92, "intermolecular_energy": -8.12, "internal_energy": -0.64, "cluster_size": 31, "cluster_id": 1, "rank_in_cluster": 21}

>  <energy>  (20) 
-7.01

>  <cluster_rmsd>  (20) 
0.31

>  <cluster>  (20) 
1

$$$$

     RDKit          3D

 37 38  0  0  0  0  0  0  0  0999 V2000
  141.8340   78.6290  223.6410 C   0  0  0  0  0  0  0  0  0  0  0  0
  140.9170   78.3500  222.4920 C   0  0  0  0  0  0  0  0  0  0  0  0
  141.0350   79.4390  221.4810 C   0  0  0  0  0  0  0  0  0  0  0  0
  141.0790   77.0300  221.9410 N   0  0  0  0  0  0  0  0  0  0  0  0
  140.0080   76.0890  222.0020 C   0  0  0  0  0  0  0  0  0  0  0  0
  138.9200   76.4170  222.5400 O   0  0  0  0  0  0  0  0  0  0  0  0
  140.2520   74.7430  221.4110 C   0  0  0  0  0  0  0  0  0  0  0  0
  139.9480   73.7000  222.3620 N   0  0  0  0  0  0  0  0  0  0  0  0
  140.6840   72.4820  222.4550 C   0  0  0  0  0  0  0  0  0  0  0  0
  141.6420   72.3260  221.6580 O   0  0  0  0  0  0  0  0  0  0  0  0
  140.3060   71.4770  223.4500 C   0  0  0  0  0  0  0  0  0  0  0  0
  139.5590   70.4050  223.0070 C   0  0  0  0  0  0  0  0  0  0  0  0
  139.2050   69.4540  223.9540 C   0  0  0  0  0  0  0  0  0  0  0  0
  139.5930   69.5970  225.2710 C   0  0  0  0  0  0  0  0  0  0  0  0
  139.2670   68.6800  226.2480 C   0  0  0  0  0  0  0  0  0  0  0  0
  139.6540   68.8200  227.5700 C   0  0  0  0  0  0  0  0  0  0  0  0
  140.4010   69.9170  227.9460 C   0  0  0  0  0  0  0  0  0  0  0  0
  140.7400   70.8510  226.9770 C   0  0  0  0  0  0  0  0  0  0  0  0
  140.3440   70.6960  225.6600 C   0  0  0  0  0  0  0  0  0  0  0  0
  140.6890   71.6260  224.7280 N   0  0  0  0  0  0  0  0  0  0  0  0
  141.2968   78.4656  224.5869 H   0  0  0  0  0  0  0  0  0  0  0  0
  142.7011   77.9540  223.5904 H   0  0  0  0  0  0  0  0  0  0  0  0
  142.1782   79.6725  223.5904 H   0  0  0  0  0  0  0  0  0  0  0  0
  139.8835   78.3499  222.8686 H   0  0  0  0  0  0  0  0  0  0  0  0
  141.1398   80.4062  221.9944 H   0  0  0  0  0  0  0  0  0  0  0  0
  141.9191   79.2605  220.8513 H   0  0  0  0  0  0  0  0  0  0  0  0
  140.1332   79.4540  220.8513 H   0  0  0  0  0  0  0  0  0  0  0  0
  142.0090   76.8040  221.5010 H   0  0  0  0  0  0  0  0  0  0  0  0
  139.6141   74.6183  220.5235 H   0  0  0  0  0  0  0  0  0  0  0  0
  141.3140   74.6678  221.1344 H   0  0  0  0  0  0  0  0  0  0  0  0
  139.1540   73.8170  223.0290 H   0  0  0  0  0  0  0  0  0  0  0  0
  139.2583   70.3085  221.9533 H   0  0  0  0  0  0  0  0  0  0  0  0
  138.6103   68.5791  223.6525 H   0  0  0  0  0  0  0  0  0  0  0  0
  138.6733   67.7984  225.9645 H   0  0  0  0  0  0  0  0  0  0  0  0
  139.3681   68.0624  228.3145 H   0  0  0  0  0  0  0  0  0  0  0  0
  140.7208   70.0486  228.9902 H   0  0  0  0  0  0  0  0  0  0  0  0
  141.3349   71.7315  227.2613 H   0  0  0  0  0  0  0  0  0  0  0  0
  1  2  1  0
  2  3  1  0
  2  4  1  0
  4  5  1  0
  5  6  2  0
  5  7  1  0
  7  8  1  0
  8  9  1  0
  9 10  2  0
  9 11  1  0
 11 12  2  0
 12 13  1  0
 13 14  2  0
 14 15  1  0
 15 16  2  0
 16 17  1  0
 17 18  2  0
 18 19  1  0
 19 20  2  0
 20 11  1  0
 19 14  1  0
  1 21  1  0
  1 22  1  0
  1 23  1  0
  2 24  1  0
  3 25  1  0
  3 26  1  0
  3 27  1  0
  4 28  1  0
  7 29  1  0
  7 30  1  0
  8 31  1  0
 12 32  1  0
 13 33  1  0
 15 34  1  0
 16 35  1  0
 17 36  1  0
 18 37  1  0
M  END
>  <smiles>  (21) 
CC(C)NC(=O)CNC(=O)c1ccc2ccccc2n1

>  <score_type>  (21) 
oracle

>  <origin>  (21) 
autodockgpu

>  <m_score__min__energy>  (21) 
-7.2300000000000004

>  <m_primary>  (21) 
energy

>  <rmsd>  (21) 
2.5985761354331935

>  <m_score__min__rmsd>  (21) 
2.5985761354331935

>  <meeko>  (21) 
{"free_energy": -7.01, "intermolecular_energy": -8.21, "internal_energy": -0.81, "cluster_size": 31, "cluster_id": 1, "rank_in_cluster": 20}

>  <energy>  (21) 
-6.92

>  <cluster_rmsd>  (21) 
0.71

>  <cluster>  (21) 
1

$$$$

     RDKit          3D

 37 38  0  0  0  0  0  0  0  0999 V2000
  144.5540   73.8090  220.2800 C   0  0  0  0  0  0  0  0  0  0  0  0
  143.4690   74.8290  220.4270 C   0  0  0  0  0  0  0  0  0  0  0  0
  143.6090   75.8670  219.3640 C   0  0  0  0  0  0  0  0  0  0  0  0
  142.1520   74.2530  220.5000 N   0  0  0  0  0  0  0  0  0  0  0  0
  141.0860   74.9700  221.1220 C   0  0  0  0  0  0  0  0  0  0  0  0
  141.3030   76.1100  221.6070 O   0  0  0  0  0  0  0  0  0  0  0  0
  139.7520   74.3070  221.1600 C   0  0  0  0  0  0  0  0  0  0  0  0
  139.6410   73.4410  222.3110 N   0  0  0  0  0  0  0  0  0  0  0  0
  140.3920   72.2390  222.4650 C   0  0  0  0  0  0  0  0  0  0  0  0
  141.1870   71.9330  221.5410 O   0  0  0  0  0  0  0  0  0  0  0  0
  140.2150   71.4190  223.6650 C   0  0  0  0  0  0  0  0  0  0  0  0
  139.5460   70.2230  223.5150 C   0  0  0  0  0  0  0  0  0  0  0  0
  139.3820   69.4490  224.6550 C   0  0  0  0  0  0  0  0  0  0  0  0
  139.8750   69.8770  225.8710 C   0  0  0  0  0  0  0  0  0  0  0  0
  139.7390   69.1450  227.0310 C   0  0  0  0  0  0  0  0  0  0  0  0
  140.2320   69.5720  228.2530 C   0  0  0  0  0  0  0  0  0  0  0  0
  140.8940   70.7800  228.3330 C   0  0  0  0  0  0  0  0  0  0  0  0
  141.0420   71.5320  227.1760 C   0  0  0  0  0  0  0  0  0  0  0  0
  140.5420   71.0910  225.9630 C   0  0  0  0  0  0  0  0  0  0  0  0
  140.7000   71.8470  224.8420 N   0  0  0  0  0  0  0  0  0  0  0  0
  144.8941   73.4893  221.2761 H   0  0  0  0  0  0  0  0  0  0  0  0
  144.1676   72.9396  219.7279 H   0  0  0  0  0  0  0  0  0  0  0  0
  145.3979   74.2483  219.7279 H   0  0  0  0  0  0  0  0  0  0  0  0
  143.5923   75.3243  221.4014 H   0  0  0  0  0  0  0  0  0  0  0  0
  143.7421   76.8541  219.8307 H   0  0  0  0  0  0  0  0  0  0  0  0
  144.4841   75.6359  218.7389 H   0  0  0  0  0  0  0  0  0  0  0  0
  142.7039   75.8760  218.7389 H   0  0  0  0  0  0  0  0  0  0  0  0
  142.0220   73.2950  220.0790 H   0  0  0  0  0  0  0  0  0  0  0  0
  138.9681   75.0770  221.2114 H   0  0  0  0  0  0  0  0  0  0  0  0
  139.6343   73.7002  220.2501 H   0  0  0  0  0  0  0  0  0  0  0  0
  138.9840   73.6830  223.0850 H   0  0  0  0  0  0  0  0  0  0  0  0
  139.1603   69.8975  222.5376 H   0  0  0  0  0  0  0  0  0  0  0  0
  138.8545   68.4860  224.5890 H   0  0  0  0  0  0  0  0  0  0  0  0
  139.2156   68.1786  226.9842 H   0  0  0  0  0  0  0  0  0  0  0  0
  140.0969   68.9531  229.1523 H   0  0  0  0  0  0  0  0  0  0  0  0
  141.2954   71.1389  229.2922 H   0  0  0  0  0  0  0  0  0  0  0  0
  141.5670   72.4975  227.2239 H   0  0  0  0  0  0  0  0  0  0  0  0
  1  2  1  0
  2  3  1  0
  2  4  1  0
  4  5  1  0
  5  6  2  0
  5  7  1  0
  7  8  1  0
  8  9  1  0
  9 10  2  0
  9 11  1  0
 11 12  2  0
 12 13  1  0
 13 14  2  0
 14 15  1  0
 15 16  2  0
 16 17  1  0
 17 18  2  0
 18 19  1  0
 19 20  2  0
 20 11  1  0
 19 14  1  0
  1 21  1  0
  1 22  1  0
  1 23  1  0
  2 24  1  0
  3 25  1  0
  3 26  1  0
  3 27  1  0
  4 28  1  0
  7 29  1  0
  7 30  1  0
  8 31  1  0
 12 32  1  0
 13 33  1  0
 15 34  1  0
 16 35  1  0
 17 36  1  0
 18 37  1  0
M  END
>  <smiles>  (22) 
CC(C)NC(=O)CNC(=O)c1ccc2ccccc2n1

>  <score_type>  (22) 
oracle

>  <origin>  (22) 
autodockgpu

>  <m_score__min__energy>  (22) 
-7.2300000000000004

>  <m_primary>  (22) 
energy

>  <rmsd>  (22) 
2.4766206251668574

>  <m_score__min__rmsd>  (22) 
2.4766206251668574

>  <meeko>  (22) 
{"free_energy": -6.51, "intermolecular_energy": -7.71, "internal_energy": -1.43, "cluster_size": 31, "cluster_id": 1, "rank_in_cluster": 26}

>  <energy>  (22) 
-6.92

>  <cluster_rmsd>  (22) 
0.44

>  <cluster>  (22) 
1

$$$$

     RDKit          3D

 37 38  0  0  0  0  0  0  0  0999 V2000
  135.4420   74.5190  223.9260 C   0  0  0  0  0  0  0  0  0  0  0  0
  136.1990   74.8890  222.6890 C   0  0  0  0  0  0  0  0  0  0  0  0
  136.7160   76.2820  222.8170 C   0  0  0  0  0  0  0  0  0  0  0  0
  137.2090   73.9290  222.3300 N   0  0  0  0  0  0  0  0  0  0  0  0
  137.0430   73.1070  221.1760 C   0  0  0  0  0  0  0  0  0  0  0  0
  136.0080   73.2260  220.4710 O   0  0  0  0  0  0  0  0  0  0  0  0
  138.1310   72.1370  220.8700 C   0  0  0  0  0  0  0  0  0  0  0  0
  138.5730   71.4650  222.0700 N   0  0  0  0  0  0  0  0  0  0  0  0
  139.5140   72.0260  222.9830 C   0  0  0  0  0  0  0  0  0  0  0  0
  139.9710   73.1650  222.7130 O   0  0  0  0  0  0  0  0  0  0  0  0
  139.9080   71.2740  224.1760 C   0  0  0  0  0  0  0  0  0  0  0  0
  140.7870   71.8900  225.0430 C   0  0  0  0  0  0  0  0  0  0  0  0
  141.1550   71.1740  226.1740 C   0  0  0  0  0  0  0  0  0  0  0  0
  140.6530   69.9080  226.3980 C   0  0  0  0  0  0  0  0  0  0  0  0
  140.9880   69.1570  227.5040 C   0  0  0  0  0  0  0  0  0  0  0  0
  140.4860   67.8870  227.7320 C   0  0  0  0  0  0  0  0  0  0  0  0
  139.6090   67.3300  226.8240 C   0  0  0  0  0  0  0  0  0  0  0  0
  139.2590   68.0700  225.7030 C   0  0  0  0  0  0  0  0  0  0  0  0
  139.7700   69.3380  225.4900 C   0  0  0  0  0  0  0  0  0  0  0  0
  139.4120   70.0440  224.3830 N   0  0  0  0  0  0  0  0  0  0  0  0
  136.0266   74.8047  224.8129 H   0  0  0  0  0  0  0  0  0  0  0  0
  134.4771   75.0471  223.9371 H   0  0  0  0  0  0  0  0  0  0  0  0
  135.2659   73.4332  223.9371 H   0  0  0  0  0  0  0  0  0  0  0  0
  135.5023   74.8637  221.8382 H   0  0  0  0  0  0  0  0  0  0  0  0
  136.8121   76.5410  223.8817 H   0  0  0  0  0  0  0  0  0  0  0  0
  137.7006   76.3537  222.3318 H   0  0  0  0  0  0  0  0  0  0  0  0
  136.0166   76.9787  222.3318 H   0  0  0  0  0  0  0  0  0  0  0  0
  138.0570   73.8680  222.9530 H   0  0  0  0  0  0  0  0  0  0  0  0
  137.7568   71.3893  220.1552 H   0  0  0  0  0  0  0  0  0  0  0  0
  138.9817   72.6861  220.4402 H   0  0  0  0  0  0  0  0  0  0  0  0
  138.2020   70.5190  222.3060 H   0  0  0  0  0  0  0  0  0  0  0  0
  141.1773   72.8997  224.8475 H   0  0  0  0  0  0  0  0  0  0  0  0
  141.8529   71.6196  226.8981 H   0  0  0  0  0  0  0  0  0  0  0  0
  141.6855   69.5858  228.2385 H   0  0  0  0  0  0  0  0  0  0  0  0
  140.7840   67.3263  228.6302 H   0  0  0  0  0  0  0  0  0  0  0  0
  139.1968   66.3229  226.9848 H   0  0  0  0  0  0  0  0  0  0  0  0
  138.5614   67.6397  224.9693 H   0  0  0  0  0  0  0  0  0  0  0  0
  1  2  1  0
  2  3  1  0
  2  4  1  0
  4  5  1  0
  5  6  2  0
  5  7  1  0
  7  8  1  0
  8  9  1  0
  9 10  2  0
  9 11  1  0
 11 12  2  0
 12 13  1  0
 13 14  2  0
 14 15  1  0
 15 16  2  0
 16 17  1  0
 17 18  2  0
 18 19  1  0
 19 20  2  0
 20 11  1  0
 19 14  1  0
  1 21  1  0
  1 22  1  0
  1 23  1  0
  2 24  1  0
  3 25  1  0
  3 26  1  0
  3 27  1  0
  4 28  1  0
  7 29  1  0
  7 30  1  0
  8 31  1  0
 12 32  1  0
 13 33  1  0
 15 34  1  0
 16 35  1  0
 17 36  1  0
 18 37  1  0
M  END
>  <smiles>  (23) 
CC(C)NC(=O)CNC(=O)c1ccc2ccccc2n1

>  <score_type>  (23) 
oracle

>  <origin>  (23) 
autodockgpu

>  <m_score__min__energy>  (23) 
-7.2300000000000004

>  <m_primary>  (23) 
energy

>  <rmsd>  (23) 
4.374234876016088

>  <m_score__min__rmsd>  (23) 
4.374234876016088

>  <meeko>  (23) 
{"free_energy": -5.81, "intermolecular_energy": -7.0, "internal_energy": -1.8, "cluster_size": 2, "cluster_id": 4, "rank_in_cluster": 1}

>  <energy>  (23) 
-6.9

>  <cluster_rmsd>  (23) 
0.42

>  <cluster>  (23) 
1

$$$$

     RDKit          3D

 37 38  0  0  0  0  0  0  0  0999 V2000
  144.6290   73.5160  220.5390 C   0  0  0  0  0  0  0  0  0  0  0  0
  143.5460   74.5460  220.4570 C   0  0  0  0  0  0  0  0  0  0  0  0
  143.6940   75.3300  219.1980 C   0  0  0  0  0  0  0  0  0  0  0  0
  142.2270   74.0020  220.6470 N   0  0  0  0  0  0  0  0  0  0  0  0
  141.1290   74.8640  220.9440 C   0  0  0  0  0  0  0  0  0  0  0  0
  141.3190   76.1030  221.0390 O   0  0  0  0  0  0  0  0  0  0  0  0
  139.7950   74.2260  221.1270 C   0  0  0  0  0  0  0  0  0  0  0  0
  139.7700   73.4220  222.3270 N   0  0  0  0  0  0  0  0  0  0  0  0
  140.2390   72.0760  222.3810 C   0  0  0  0  0  0  0  0  0  0  0  0
  140.6940   71.5810  221.3190 O   0  0  0  0  0  0  0  0  0  0  0  0
  140.1750   71.3330  223.6410 C   0  0  0  0  0  0  0  0  0  0  0  0
  139.6240   70.0690  223.5960 C   0  0  0  0  0  0  0  0  0  0  0  0
  139.5670   69.3680  224.7920 C   0  0  0  0  0  0  0  0  0  0  0  0
  140.0460   69.9300  225.9590 C   0  0  0  0  0  0  0  0  0  0  0  0
  140.0130   69.2740  227.1710 C   0  0  0  0  0  0  0  0  0  0  0  0
  140.4920   69.8350  228.3430 C   0  0  0  0  0  0  0  0  0  0  0  0
  141.0330   71.1040  228.3170 C   0  0  0  0  0  0  0  0  0  0  0  0
  141.0760   71.7810  227.1060 C   0  0  0  0  0  0  0  0  0  0  0  0
  140.5920   71.2060  225.9440 C   0  0  0  0  0  0  0  0  0  0  0  0
  140.6450   71.8900  224.7680 N   0  0  0  0  0  0  0  0  0  0  0  0
  144.8531   73.3028  221.5946 H   0  0  0  0  0  0  0  0  0  0  0  0
  144.2959   72.5933  220.0413 H   0  0  0  0  0  0  0  0  0  0  0  0
  145.5338   73.8949  220.0413 H   0  0  0  0  0  0  0  0  0  0  0  0
  143.6662   75.2398  221.3021 H   0  0  0  0  0  0  0  0  0  0  0  0
  143.8929   76.3837  219.4434 H   0  0  0  0  0  0  0  0  0  0  0  0
  144.5317   74.9259  218.6107 H   0  0  0  0  0  0  0  0  0  0  0  0
  142.7666   75.2591  218.6107 H   0  0  0  0  0  0  0  0  0  0  0  0
  142.1200   72.9570  220.5570 H   0  0  0  0  0  0  0  0  0  0  0  0
  139.0276   75.0105  221.2027 H   0  0  0  0  0  0  0  0  0  0  0  0
  139.5943   73.5754  220.2630 H   0  0  0  0  0  0  0  0  0  0  0  0
  139.3940   73.8200  223.2150 H   0  0  0  0  0  0  0  0  0  0  0  0
  139.2478   69.6375  222.6567 H   0  0  0  0  0  0  0  0  0  0  0  0
  139.1366   68.3559  224.8108 H   0  0  0  0  0  0  0  0  0  0  0  0
  139.5875   68.2604  227.2088 H   0  0  0  0  0  0  0  0  0  0  0  0
  140.4416   69.2732  229.2874 H   0  0  0  0  0  0  0  0  0  0  0  0
  141.4215   71.5687  229.2352 H   0  0  0  0  0  0  0  0  0  0  0  0
  141.5030   72.7941  227.0692 H   0  0  0  0  0  0  0  0  0  0  0  0
  1  2  1  0
  2  3  1  0
  2  4  1  0
  4  5  1  0
  5  6  2  0
  5  7  1  0
  7  8  1  0
  8  9  1  0
  9 10  2  0
  9 11  1  0
 11 12  2  0
 12 13  1  0
 13 14  2  0
 14 15  1  0
 15 16  2  0
 16 17  1  0
 17 18  2  0
 18 19  1  0
 19 20  2  0
 20 11  1  0
 19 14  1  0
  1 21  1  0
  1 22  1  0
  1 23  1  0
  2 24  1  0
  3 25  1  0
  3 26  1  0
  3 27  1  0
  4 28  1  0
  7 29  1  0
  7 30  1  0
  8 31  1  0
 12 32  1  0
 13 33  1  0
 15 34  1  0
 16 35  1  0
 17 36  1  0
 18 37  1  0
M  END
>  <smiles>  (24) 
CC(C)NC(=O)CNC(=O)c1ccc2ccccc2n1

>  <score_type>  (24) 
oracle

>  <origin>  (24) 
autodockgpu

>  <m_score__min__energy>  (24) 
-7.2300000000000004

>  <m_primary>  (24) 
energy

>  <rmsd>  (24) 
2.5849639140913565

>  <m_score__min__rmsd>  (24) 
2.5849639140913565

>  <meeko>  (24) 
{"free_energy": -6.44, "intermolecular_energy": -7.64, "internal_energy": -1.55, "cluster_size": 14, "cluster_id": 3, "rank_in_cluster": 6}

>  <energy>  (24) 
-6.75

>  <cluster_rmsd>  (24) 
0.43

>  <cluster>  (24) 
1

$$$$

     RDKit          3D

 37 38  0  0  0  0  0  0  0  0999 V2000
  141.7900   78.5670  223.6290 C   0  0  0  0  0  0  0  0  0  0  0  0
  140.8160   78.2160  222.5490 C   0  0  0  0  0  0  0  0  0  0  0  0
  140.8710   79.2460  221.4710 C   0  0  0  0  0  0  0  0  0  0  0  0
  140.9630   76.8680  222.0660 N   0  0  0  0  0  0  0  0  0  0  0  0
  139.8100   76.0750  221.7860 C   0  0  0  0  0  0  0  0  0  0  0  0
  138.6640   76.5590  221.9630 O   0  0  0  0  0  0  0  0  0  0  0  0
  140.0430   74.6890  221.2910 C   0  0  0  0  0  0  0  0  0  0  0  0
  139.8290   73.7230  222.3440 N   0  0  0  0  0  0  0  0  0  0  0  0
  140.5640   72.5060  222.4550 C   0  0  0  0  0  0  0  0  0  0  0  0
  141.4380   72.2780  221.5810 O   0  0  0  0  0  0  0  0  0  0  0  0
  140.2810   71.5830  223.5560 C   0  0  0  0  0  0  0  0  0  0  0  0
  139.5860   70.4330  223.2460 C   0  0  0  0  0  0  0  0  0  0  0  0
  139.3220   69.5600  224.2930 C   0  0  0  0  0  0  0  0  0  0  0  0
  139.7450   69.8510  225.5740 C   0  0  0  0  0  0  0  0  0  0  0  0
  139.5090   69.0180  226.6460 C   0  0  0  0  0  0  0  0  0  0  0  0
  139.9310   69.3070  227.9320 C   0  0  0  0  0  0  0  0  0  0  0  0
  140.6230   70.4760  228.1720 C   0  0  0  0  0  0  0  0  0  0  0  0
  140.8730   71.3290  227.1060 C   0  0  0  0  0  0  0  0  0  0  0  0
  140.4420   71.0250  225.8270 C   0  0  0  0  0  0  0  0  0  0  0  0
  140.6990   71.8780  224.7970 N   0  0  0  0  0  0  0  0  0  0  0  0
  141.3244   78.3992  224.6114 H   0  0  0  0  0  0  0  0  0  0  0  0
  142.6854   77.9350  223.5348 H   0  0  0  0  0  0  0  0  0  0  0  0
  142.0764   79.6249  223.5348 H   0  0  0  0  0  0  0  0  0  0  0  0
  139.8039   78.2307  222.9797 H   0  0  0  0  0  0  0  0  0  0  0  0
  140.9245   80.2474  221.9231 H   0  0  0  0  0  0  0  0  0  0  0  0
  141.7614   79.0771  220.8476 H   0  0  0  0  0  0  0  0  0  0  0  0
  139.9677   79.1729  220.8476 H   0  0  0  0  0  0  0  0  0  0  0  0
  141.9450   76.5080  221.9350 H   0  0  0  0  0  0  0  0  0  0  0  0
  139.3483   74.4803  220.4641 H   0  0  0  0  0  0  0  0  0  0  0  0
  141.0847   74.6090  220.9469 H   0  0  0  0  0  0  0  0  0  0  0  0
  139.1060   73.9000  223.0760 H   0  0  0  0  0  0  0  0  0  0  0  0
  139.2566   70.2176  222.2188 H   0  0  0  0  0  0  0  0  0  0  0  0
  138.7707   68.6280  224.0996 H   0  0  0  0  0  0  0  0  0  0  0  0
  138.9603   68.0807  226.4717 H   0  0  0  0  0  0  0  0  0  0  0  0
  139.7164   68.6104  228.7558 H   0  0  0  0  0  0  0  0  0  0  0  0
  140.9690   70.7266  229.1857 H   0  0  0  0  0  0  0  0  0  0  0  0
  141.4243   72.2646  227.2814 H   0  0  0  0  0  0  0  0  0  0  0  0
  1  2  1  0
  2  3  1  0
  2  4  1  0
  4  5  1  0
  5  6  2  0
  5  7  1  0
  7  8  1  0
  8  9  1  0
  9 10  2  0
  9 11  1  0
 11 12  2  0
 12 13  1  0
 13 14  2  0
 14 15  1  0
 15 16  2  0
 16 17  1  0
 17 18  2  0
 18 19  1  0
 19 20  2  0
 20 11  1  0
 19 14  1  0
  1 21  1  0
  1 22  1  0
  1 23  1  0
  2 24  1  0
  3 25  1  0
  3 26  1  0
  3 27  1  0
  4 28  1  0
  7 29  1  0
  7 30  1  0
  8 31  1  0
 12 32  1  0
 13 33  1  0
 15 34  1  0
 16 35  1  0
 17 36  1  0
 18 37  1  0
M  END
>  <smiles>  (25) 
CC(C)NC(=O)CNC(=O)c1ccc2ccccc2n1

>  <score_type>  (25) 
oracle

>  <origin>  (25) 
autodockgpu

>  <m_score__min__energy>  (25) 
-7.2300000000000004

>  <m_primary>  (25) 
energy

>  <rmsd>  (25) 
2.542613302200796

>  <m_score__min__rmsd>  (25) 
2.542613302200796

>  <meeko>  (25) 
{"free_energy": -7.21, "intermolecular_energy": -8.4, "internal_energy": -0.74, "cluster_size": 31, "cluster_id": 1, "rank_in_cluster": 4}

>  <energy>  (25) 
-6.74

>  <cluster_rmsd>  (25) 
0.46

>  <cluster>  (25) 
1

$$$$

     RDKit          3D

 37 38  0  0  0  0  0  0  0  0999 V2000
  136.2730   75.6640  223.4510 C   0  0  0  0  0  0  0  0  0  0  0  0
  137.2590   75.8870  222.3480 C   0  0  0  0  0  0  0  0  0  0  0  0
  138.1280   77.0520  222.6800 C   0  0  0  0  0  0  0  0  0  0  0  0
  137.9950   74.7010  221.9940 N   0  0  0  0  0  0  0  0  0  0  0  0
  137.8360   74.1150  220.7020 C   0  0  0  0  0  0  0  0  0  0  0  0
  137.0500   74.6400  219.8740 O   0  0  0  0  0  0  0  0  0  0  0  0
  138.6300   72.8890  220.4100 C   0  0  0  0  0  0  0  0  0  0  0  0
  138.7730   72.0740  221.5950 N   0  0  0  0  0  0  0  0  0  0  0  0
  139.7580   72.3120  222.5980 C   0  0  0  0  0  0  0  0  0  0  0  0
  140.5340   73.2840  222.4250 O   0  0  0  0  0  0  0  0  0  0  0  0
  139.8320   71.4340  223.7680 C   0  0  0  0  0  0  0  0  0  0  0  0
  139.3150   70.1630  223.6310 C   0  0  0  0  0  0  0  0  0  0  0  0
  139.3890   69.3340  224.7420 C   0  0  0  0  0  0  0  0  0  0  0  0
  139.9580   69.7840  225.9170 C   0  0  0  0  0  0  0  0  0  0  0  0
  140.0560   69.0000  227.0470 C   0  0  0  0  0  0  0  0  0  0  0  0
  140.6250   69.4480  228.2270 C   0  0  0  0  0  0  0  0  0  0  0  0
  141.1240   70.7330  228.2950 C   0  0  0  0  0  0  0  0  0  0  0  0
  141.0360   71.5380  227.1670 C   0  0  0  0  0  0  0  0  0  0  0  0
  140.4630   71.0740  225.9970 C   0  0  0  0  0  0  0  0  0  0  0  0
  140.3880   71.8830  224.9040 N   0  0  0  0  0  0  0  0  0  0  0  0
  136.7771   75.7780  224.4220 H   0  0  0  0  0  0  0  0  0  0  0  0
  135.4604   76.4010  223.3710 H   0  0  0  0  0  0  0  0  0  0  0  0
  135.8566   74.6490  223.3710 H   0  0  0  0  0  0  0  0  0  0  0  0
  136.7011   76.1322  221.4322 H   0  0  0  0  0  0  0  0  0  0  0  0
  138.2036   77.1534  223.7727 H   0  0  0  0  0  0  0  0  0  0  0  0
  139.1307   76.8941  222.2561 H   0  0  0  0  0  0  0  0  0  0  0  0
  137.6909   77.9681  222.2561 H   0  0  0  0  0  0  0  0  0  0  0  0
  138.6410   74.3000  222.7240 H   0  0  0  0  0  0  0  0  0  0  0  0
  138.1181   72.3052  219.6308 H   0  0  0  0  0  0  0  0  0  0  0  0
  139.6308   73.1911  220.0678 H   0  0  0  0  0  0  0  0  0  0  0  0
  138.1350   71.2630  221.7510 H   0  0  0  0  0  0  0  0  0  0  0  0
  138.8655   69.8223  222.6866 H   0  0  0  0  0  0  0  0  0  0  0  0
  138.9911   68.3100  224.6859 H   0  0  0  0  0  0  0  0  0  0  0  0
  139.6646   67.9727  227.0093 H   0  0  0  0  0  0  0  0  0  0  0  0
  140.6789   68.7852  229.1032 H   0  0  0  0  0  0  0  0  0  0  0  0
  141.5809   71.1108  229.2215 H   0  0  0  0  0  0  0  0  0  0  0  0
  141.4296   72.5645  227.2048 H   0  0  0  0  0  0  0  0  0  0  0  0
  1  2  1  0
  2  3  1  0
  2  4  1  0
  4  5  1  0
  5  6  2  0
  5  7  1  0
  7  8  1  0
  8  9  1  0
  9 10  2  0
  9 11  1  0
 11 12  2  0
 12 13  1  0
 13 14  2  0
 14 15  1  0
 15 16  2  0
 16 17  1  0
 17 18  2  0
 18 19  1  0
 19 20  2  0
 20 11  1  0
 19 14  1  0
  1 21  1  0
  1 22  1  0
  1 23  1  0
  2 24  1  0
  3 25  1  0
  3 26  1  0
  3 27  1  0
  4 28  1  0
  7 29  1  0
  7 30  1  0
  8 31  1  0
 12 32  1  0
 13 33  1  0
 15 34  1  0
 16 35  1  0
 17 36  1  0
 18 37  1  0
M  END
>  <smiles>  (26) 
CC(C)NC(=O)CNC(=O)c1ccc2ccccc2n1

>  <score_type>  (26) 
oracle

>  <origin>  (26) 
autodockgpu

>  <m_score__min__energy>  (26) 
-7.2300000000000004

>  <m_primary>  (26) 
energy

>  <rmsd>  (26) 
3.056698328034146

>  <m_score__min__rmsd>  (26) 
3.056698328034146

>  <meeko>  (26) 
{"free_energy": -6.14, "intermolecular_energy": -7.33, "internal_energy": -1.42, "cluster_size": 31, "cluster_id": 1, "rank_in_cluster": 29}

>  <energy>  (26) 
-6.51

>  <cluster_rmsd>  (26) 
1.99

>  <cluster>  (26) 
1

$$$$

     RDKit          3D

 37 38  0  0  0  0  0  0  0  0999 V2000
  140.3570   79.0140  221.4580 C   0  0  0  0  0  0  0  0  0  0  0  0
  141.4370   78.1460  222.0230 C   0  0  0  0  0  0  0  0  0  0  0  0
  141.4630   78.2820  223.5080 C   0  0  0  0  0  0  0  0  0  0  0  0
  141.3680   76.7820  221.5690 N   0  0  0  0  0  0  0  0  0  0  0  0
  140.1760   76.0210  221.7590 C   0  0  0  0  0  0  0  0  0  0  0  0
  139.1850   76.5470  222.3260 O   0  0  0  0  0  0  0  0  0  0  0  0
  140.1810   74.6160  221.2630 C   0  0  0  0  0  0  0  0  0  0  0  0
  139.9390   73.6880  222.3430 N   0  0  0  0  0  0  0  0  0  0  0  0
  140.6140   72.4380  222.4710 C   0  0  0  0  0  0  0  0  0  0  0  0
  141.4580   72.1460  221.5880 O   0  0  0  0  0  0  0  0  0  0  0  0
  140.3070   71.5570  223.5990 C   0  0  0  0  0  0  0  0  0  0  0  0
  139.5670   70.4260  223.3270 C   0  0  0  0  0  0  0  0  0  0  0  0
  139.2790   69.5920  224.3990 C   0  0  0  0  0  0  0  0  0  0  0  0
  139.7240   69.9030  225.6690 C   0  0  0  0  0  0  0  0  0  0  0  0
  139.4660   69.1080  226.7650 C   0  0  0  0  0  0  0  0  0  0  0  0
  139.9100   69.4170  228.0400 C   0  0  0  0  0  0  0  0  0  0  0  0
  140.6470   70.5660  228.2420 C   0  0  0  0  0  0  0  0  0  0  0  0
  140.9190   71.3790  227.1510 C   0  0  0  0  0  0  0  0  0  0  0  0
  140.4660   71.0560  225.8840 C   0  0  0  0  0  0  0  0  0  0  0  0
  140.7450   71.8700  224.8290 N   0  0  0  0  0  0  0  0  0  0  0  0
  139.7871   79.4720  222.2799 H   0  0  0  0  0  0  0  0  0  0  0  0
  140.8076   79.8041  220.8394 H   0  0  0  0  0  0  0  0  0  0  0  0
  139.6823   78.4040  220.8394 H   0  0  0  0  0  0  0  0  0  0  0  0
  142.4029   78.5010  221.6344 H   0  0  0  0  0  0  0  0  0  0  0  0
  141.2755   77.3012  223.9694 H   0  0  0  0  0  0  0  0  0  0  0  0
  142.4485   78.6539  223.8249 H   0  0  0  0  0  0  0  0  0  0  0  0
  140.6842   78.9912  223.8249 H   0  0  0  0  0  0  0  0  0  0  0  0
  142.2250   76.3870  221.1000 H   0  0  0  0  0  0  0  0  0  0  0  0
  139.3933   74.4990  220.5042 H   0  0  0  0  0  0  0  0  0  0  0  0
  141.1680   74.4000  220.8282 H   0  0  0  0  0  0  0  0  0  0  0  0
  139.2400   73.9180  223.0830 H   0  0  0  0  0  0  0  0  0  0  0  0
  139.2210   70.1952  222.3086 H   0  0  0  0  0  0  0  0  0  0  0  0
  138.6918   68.6763  224.2356 H   0  0  0  0  0  0  0  0  0  0  0  0
  138.8816   68.1873  226.6207 H   0  0  0  0  0  0  0  0  0  0  0  0
  139.6771   68.7520  228.8847 H   0  0  0  0  0  0  0  0  0  0  0  0
  141.0108   70.8315  229.2456 H   0  0  0  0  0  0  0  0  0  0  0  0
  141.5060   72.2979  227.2960 H   0  0  0  0  0  0  0  0  0  0  0  0
  1  2  1  0
  2  3  1  0
  2  4  1  0
  4  5  1  0
  5  6  2  0
  5  7  1  0
  7  8  1  0
  8  9  1  0
  9 10  2  0
  9 11  1  0
 11 12  2  0
 12 13  1  0
 13 14  2  0
 14 15  1  0
 15 16  2  0
 16 17  1  0
 17 18  2  0
 18 19  1  0
 19 20  2  0
 20 11  1  0
 19 14  1  0
  1 21  1  0
  1 22  1  0
  1 23  1  0
  2 24  1  0
  3 25  1  0
  3 26  1  0
  3 27  1  0
  4 28  1  0
  7 29  1  0
  7 30  1  0
  8 31  1  0
 12 32  1  0
 13 33  1  0
 15 34  1  0
 16 35  1  0
 17 36  1  0
 18 37  1  0
M  END
>  <smiles>  (27) 
CC(C)NC(=O)CNC(=O)c1ccc2ccccc2n1

>  <score_type>  (27) 
oracle

>  <origin>  (27) 
autodockgpu

>  <m_score__min__energy>  (27) 
-7.2300000000000004

>  <m_primary>  (27) 
energy

>  <rmsd>  (27) 
2.1064967286836302

>  <m_score__min__rmsd>  (27) 
2.1064967286836302

>  <meeko>  (27) 
{"free_energy": -6.9, "intermolecular_energy": -8.09, "internal_energy": -0.76, "cluster_size": 31, "cluster_id": 1, "rank_in_cluster": 23}

>  <energy>  (27) 
-6.41

>  <cluster_rmsd>  (27) 
1.3

>  <cluster>  (27) 
1

$$$$

     RDKit          3D

 37 38  0  0  0  0  0  0  0  0999 V2000
  143.6280   74.7960  218.6590 C   0  0  0  0  0  0  0  0  0  0  0  0
  143.3660   73.5480  219.4410 C   0  0  0  0  0  0  0  0  0  0  0  0
  144.3630   73.4300  220.5450 C   0  0  0  0  0  0  0  0  0  0  0  0
  142.0010   73.4270  219.8810 N   0  0  0  0  0  0  0  0  0  0  0  0
  141.4250   74.4250  220.7220 C   0  0  0  0  0  0  0  0  0  0  0  0
  142.1160   75.4130  221.0780 O   0  0  0  0  0  0  0  0  0  0  0  0
  140.0070   74.2300  221.1350 C   0  0  0  0  0  0  0  0  0  0  0  0
  139.9270   73.4270  222.3340 N   0  0  0  0  0  0  0  0  0  0  0  0
  140.3120   72.0550  222.3870 C   0  0  0  0  0  0  0  0  0  0  0  0
  140.7400   71.5340  221.3270 O   0  0  0  0  0  0  0  0  0  0  0  0
  140.1970   71.3150  223.6460 C   0  0  0  0  0  0  0  0  0  0  0  0
  139.5860   70.0800  223.5930 C   0  0  0  0  0  0  0  0  0  0  0  0
  139.4810   69.3820  224.7880 C   0  0  0  0  0  0  0  0  0  0  0  0
  139.9720   69.9190  225.9610 C   0  0  0  0  0  0  0  0  0  0  0  0
  139.8920   69.2660  227.1720 C   0  0  0  0  0  0  0  0  0  0  0  0
  140.3830   69.8020  228.3500 C   0  0  0  0  0  0  0  0  0  0  0  0
  140.9840   71.0440  228.3320 C   0  0  0  0  0  0  0  0  0  0  0  0
  141.0750   71.7180  227.1220 C   0  0  0  0  0  0  0  0  0  0  0  0
  140.5780   71.1680  225.9540 C   0  0  0  0  0  0  0  0  0  0  0  0
  140.6790   71.8480  224.7790 N   0  0  0  0  0  0  0  0  0  0  0  0
  143.8036   75.6325  219.3514 H   0  0  0  0  0  0  0  0  0  0  0  0
  144.5155   74.6521  218.0253 H   0  0  0  0  0  0  0  0  0  0  0  0
  142.7575   75.0211  218.0253 H   0  0  0  0  0  0  0  0  0  0  0  0
  143.5009   72.6867  218.7701 H   0  0  0  0  0  0  0  0  0  0  0  0
  143.8460   73.4912  221.5140 H   0  0  0  0  0  0  0  0  0  0  0  0
  144.8834   72.4640  220.4674 H   0  0  0  0  0  0  0  0  0  0  0  0
  145.0945   74.2478  220.4674 H   0  0  0  0  0  0  0  0  0  0  0  0
  141.4640   72.5800  219.5540 H   0  0  0  0  0  0  0  0  0  0  0  0
  139.5492   75.2116  221.3272 H   0  0  0  0  0  0  0  0  0  0  0  0
  139.4728   73.7099  220.3262 H   0  0  0  0  0  0  0  0  0  0  0  0
  139.5720   73.8460  223.2210 H   0  0  0  0  0  0  0  0  0  0  0  0
  139.2003   69.6678  222.6489 H   0  0  0  0  0  0  0  0  0  0  0  0
  139.0021   68.3918  224.8005 H   0  0  0  0  0  0  0  0  0  0  0  0
  139.4167   68.2745  227.2039 H   0  0  0  0  0  0  0  0  0  0  0  0
  140.2948   69.2424  229.2929 H   0  0  0  0  0  0  0  0  0  0  0  0
  141.3819   71.4898  229.2555 H   0  0  0  0  0  0  0  0  0  0  0  0
  141.5516   72.7089  227.0912 H   0  0  0  0  0  0  0  0  0  0  0  0
  1  2  1  0
  2  3  1  0
  2  4  1  0
  4  5  1  0
  5  6  2  0
  5  7  1  0
  7  8  1  0
  8  9  1  0
  9 10  2  0
  9 11  1  0
 11 12  2  0
 12 13  1  0
 13 14  2  0
 14 15  1  0
 15 16  2  0
 16 17  1  0
 17 18  2  0
 18 19  1  0
 19 20  2  0
 20 11  1  0
 19 14  1  0
  1 21  1  0
  1 22  1  0
  1 23  1  0
  2 24  1  0
  3 25  1  0
  3 26  1  0
  3 27  1  0
  4 28  1  0
  7 29  1  0
  7 30  1  0
  8 31  1  0
 12 32  1  0
 13 33  1  0
 15 34  1  0
 16 35  1  0
 17 36  1  0
 18 37  1  0
M  END
>  <smiles>  (28) 
CC(C)NC(=O)CNC(=O)c1ccc2ccccc2n1

>  <score_type>  (28) 
oracle

>  <origin>  (28) 
autodockgpu

>  <m_score__min__energy>  (28) 
-7.2300000000000004

>  <m_primary>  (28) 
energy

>  <rmsd>  (28) 
2.347180155899688

>  <m_score__min__rmsd>  (28) 
2.347180155899688

>  <meeko>  (28) 
{"free_energy": -6.07, "intermolecular_energy": -7.27, "internal_energy": -1.49, "cluster_size": 14, "cluster_id": 3, "rank_in_cluster": 13}

>  <energy>  (28) 
-6.28

>  <cluster_rmsd>  (28) 
2.0

>  <cluster>  (28) 
1

$$$$

     RDKit          3D

 37 38  0  0  0  0  0  0  0  0999 V2000
  141.8230   78.4430  223.7390 C   0  0  0  0  0  0  0  0  0  0  0  0
  141.1010   78.3560  222.4310 C   0  0  0  0  0  0  0  0  0  0  0  0
  141.6110   79.4090  221.5060 C   0  0  0  0  0  0  0  0  0  0  0  0
  141.1110   77.0340  221.8620 N   0  0  0  0  0  0  0  0  0  0  0  0
  139.9620   76.1960  221.9700 C   0  0  0  0  0  0  0  0  0  0  0  0
  138.9380   76.6170  222.5660 O   0  0  0  0  0  0  0  0  0  0  0  0
  140.0490   74.8410  221.3560 C   0  0  0  0  0  0  0  0  0  0  0  0
  139.8010   73.8130  222.3410 N   0  0  0  0  0  0  0  0  0  0  0  0
  140.6160   72.6520  222.4860 C   0  0  0  0  0  0  0  0  0  0  0  0
  141.5950   72.5340  221.7070 O   0  0  0  0  0  0  0  0  0  0  0  0
  140.2910   71.6590  223.5120 C   0  0  0  0  0  0  0  0  0  0  0  0
  139.5410   70.5710  223.1160 C   0  0  0  0  0  0  0  0  0  0  0  0
  139.2380   69.6310  224.0910 C   0  0  0  0  0  0  0  0  0  0  0  0
  139.6770   69.8000  225.3890 C   0  0  0  0  0  0  0  0  0  0  0  0
  139.4020   68.8960  226.3930 C   0  0  0  0  0  0  0  0  0  0  0  0
  139.8410   69.0610  227.6960 C   0  0  0  0  0  0  0  0  0  0  0  0
  140.5880   70.1740  228.0240 C   0  0  0  0  0  0  0  0  0  0  0  0
  140.8770   71.0960  227.0270 C   0  0  0  0  0  0  0  0  0  0  0  0
  140.4290   70.9150  225.7300 C   0  0  0  0  0  0  0  0  0  0  0  0
  140.7250   71.8340  224.7700 N   0  0  0  0  0  0  0  0  0  0  0  0
  141.1000   78.3559  224.5634 H   0  0  0  0  0  0  0  0  0  0  0  0
  142.5573   77.6268  223.8075 H   0  0  0  0  0  0  0  0  0  0  0  0
  142.3424   79.4102  223.8075 H   0  0  0  0  0  0  0  0  0  0  0  0
  140.0343   78.5541  222.6126 H   0  0  0  0  0  0  0  0  0  0  0  0
  142.0167   80.2467  222.0921 H   0  0  0  0  0  0  0  0  0  0  0  0
  142.4045   78.9869  220.8718 H   0  0  0  0  0  0  0  0  0  0  0  0
  140.7879   79.7699  220.8718 H   0  0  0  0  0  0  0  0  0  0  0  0
  141.9930   76.7280  221.3730 H   0  0  0  0  0  0  0  0  0  0  0  0
  139.3003   74.7599  220.5542 H   0  0  0  0  0  0  0  0  0  0  0  0
  141.0621   74.7027  220.9503 H   0  0  0  0  0  0  0  0  0  0  0  0
  138.9910   73.8990  222.9930 H   0  0  0  0  0  0  0  0  0  0  0  0
  139.1994   70.4541  222.0769 H   0  0  0  0  0  0  0  0  0  0  0  0
  138.6432   68.7440  223.8275 H   0  0  0  0  0  0  0  0  0  0  0  0
  138.8072   68.0037  226.1481 H   0  0  0  0  0  0  0  0  0  0  0  0
  139.5964   68.3113  228.4629 H   0  0  0  0  0  0  0  0  0  0  0  0
  140.9465   70.3273  229.0526 H   0  0  0  0  0  0  0  0  0  0  0  0
  141.4733   71.9872  227.2725 H   0  0  0  0  0  0  0  0  0  0  0  0
  1  2  1  0
  2  3  1  0
  2  4  1  0
  4  5  1  0
  5  6  2  0
  5  7  1  0
  7  8  1  0
  8  9  1  0
  9 10  2  0
  9 11  1  0
 11 12  2  0
 12 13  1  0
 13 14  2  0
 14 15  1  0
 15 16  2  0
 16 17  1  0
 17 18  2  0
 18 19  1  0
 19 20  2  0
 20 11  1  0
 19 14  1  0
  1 21  1  0
  1 22  1  0
  1 23  1  0
  2 24  1  0
  3 25  1  0
  3 26  1  0
  3 27  1  0
  4 28  1  0
  7 29  1  0
  7 30  1  0
  8 31  1  0
 12 32  1  0
 13 33  1  0
 15 34  1  0
 16 35  1  0
 17 36  1  0
 18 37  1  0
M  END
>  <smiles>  (29) 
CC(C)NC(=O)CNC(=O)c1ccc2ccccc2n1

>  <score_type>  (29) 
oracle

>  <origin>  (29) 
autodockgpu

>  <m_score__min__energy>  (29) 
-7.2300000000000004

>  <m_primary>  (29) 
energy

>  <rmsd>  (29) 
2.599016183174286

>  <m_score__min__rmsd>  (29) 
2.599016183174286

>  <meeko>  (29) 
{"free_energy": -7.08, "intermolecular_energy": -8.27, "internal_energy": -0.78, "cluster_size": 31, "cluster_id": 1, "rank_in_cluster": 18}

>  <energy>  (29) 
-6.14

>  <cluster_rmsd>  (29) 
1.88

>  <cluster>  (29) 
1

$$$$

     RDKit          3D

 37 38  0  0  0  0  0  0  0  0999 V2000
  141.0470   77.5160  222.4370 C   0  0  0  0  0  0  0  0  0  0  0  0
  139.5930   77.1970  222.5890 C   0  0  0  0  0  0  0  0  0  0  0  0
  138.7860   78.1210  221.7420 C   0  0  0  0  0  0  0  0  0  0  0  0
  139.2900   75.8060  222.3780 N   0  0  0  0  0  0  0  0  0  0  0  0
  139.5970   75.1850  221.1300 C   0  0  0  0  0  0  0  0  0  0  0  0
  140.1330   75.8590  220.2140 O   0  0  0  0  0  0  0  0  0  0  0  0
  139.2530   73.7420  220.9860 C   0  0  0  0  0  0  0  0  0  0  0  0
  139.4630   73.0370  222.2300 N   0  0  0  0  0  0  0  0  0  0  0  0
  139.5040   71.6150  222.3290 C   0  0  0  0  0  0  0  0  0  0  0  0
  139.3460   70.9580  221.2700 O   0  0  0  0  0  0  0  0  0  0  0  0
  139.7210   70.9830  223.6320 C   0  0  0  0  0  0  0  0  0  0  0  0
  139.4100   69.6430  223.7380 C   0  0  0  0  0  0  0  0  0  0  0  0
  139.6200   69.0480  224.9740 C   0  0  0  0  0  0  0  0  0  0  0  0
  140.1160   69.7820  226.0320 C   0  0  0  0  0  0  0  0  0  0  0  0
  140.3420   69.2370  227.2780 C   0  0  0  0  0  0  0  0  0  0  0  0
  140.8400   69.9710  228.3410 C   0  0  0  0  0  0  0  0  0  0  0  0
  141.1310   71.3080  228.1660 C   0  0  0  0  0  0  0  0  0  0  0  0
  140.9120   71.8760  226.9190 C   0  0  0  0  0  0  0  0  0  0  0  0
  140.4130   71.1280  225.8670 C   0  0  0  0  0  0  0  0  0  0  0  0
  140.2050   71.7080  224.6530 N   0  0  0  0  0  0  0  0  0  0  0  0
  141.5062   77.6167  223.4315 H   0  0  0  0  0  0  0  0  0  0  0  0
  141.5443   76.7056  221.8839 H   0  0  0  0  0  0  0  0  0  0  0  0
  141.1594   78.4602  221.8839 H   0  0  0  0  0  0  0  0  0  0  0  0
  139.3105   77.3686  223.6382 H   0  0  0  0  0  0  0  0  0  0  0  0
  138.1999   78.7921  222.3871 H   0  0  0  0  0  0  0  0  0  0  0  0
  139.4578   78.7172  221.1070 H   0  0  0  0  0  0  0  0  0  0  0  0
  138.1048   77.5356  221.1070 H   0  0  0  0  0  0  0  0  0  0  0  0
  138.8410   75.2850  223.1760 H   0  0  0  0  0  0  0  0  0  0  0  0
  138.1965   73.6507  220.6938 H   0  0  0  0  0  0  0  0  0  0  0  0
  139.9030   73.3000  220.2165 H   0  0  0  0  0  0  0  0  0  0  0  0
  139.5940   73.5710  223.1170 H   0  0  0  0  0  0  0  0  0  0  0  0
  139.0146   69.0737  222.8839 H   0  0  0  0  0  0  0  0  0  0  0  0
  139.3889   67.9814  225.1116 H   0  0  0  0  0  0  0  0  0  0  0  0
  140.1167   68.1718  227.4345 H   0  0  0  0  0  0  0  0  0  0  0  0
  141.0024   69.4917  229.3177 H   0  0  0  0  0  0  0  0  0  0  0  0
  141.5278   71.9105  228.9964 H   0  0  0  0  0  0  0  0  0  0  0  0
  141.1393   72.9410  226.7637 H   0  0  0  0  0  0  0  0  0  0  0  0
  1  2  1  0
  2  3  1  0
  2  4  1  0
  4  5  1  0
  5  6  2  0
  5  7  1  0
  7  8  1  0
  8  9  1  0
  9 10  2  0
  9 11  1  0
 11 12  2  0
 12 13  1  0
 13 14  2  0
 14 15  1  0
 15 16  2  0
 16 17  1  0
 17 18  2  0
 18 19  1  0
 19 20  2  0
 20 11  1  0
 19 14  1  0
  1 21  1  0
  1 22  1  0
  1 23  1  0
  2 24  1  0
  3 25  1  0
  3 26  1  0
  3 27  1  0
  4 28  1  0
  7 29  1  0
  7 30  1  0
  8 31  1  0
 12 32  1  0
 13 33  1  0
 15 34  1  0
 16 35  1  0
 17 36  1  0
 18 37  1  0
M  END
>  <smiles>  (30) 
CC(C)NC(=O)CNC(=O)c1ccc2ccccc2n1

>  <score_type>  (30) 
oracle

>  <origin>  (30) 
autodockgpu

>  <m_score__min__energy>  (30) 
-7.2300000000000004

>  <m_primary>  (30) 
energy

>  <rmsd>  (30) 
2.039943549403551

>  <m_score__min__rmsd>  (30) 
2.039943549403551

>  <meeko>  (30) 
{"free_energy": -6.41, "intermolecular_energy": -7.61, "internal_energy": -0.97, "cluster_size": 31, "cluster_id": 1, "rank_in_cluster": 27}

>  <energy>  (30) 
-6.13

>  <cluster_rmsd>  (30) 
1.78

>  <cluster>  (30) 
1

$$$$

     RDKit          3D

 37 38  0  0  0  0  0  0  0  0999 V2000
  143.6010   75.3050  219.0750 C   0  0  0  0  0  0  0  0  0  0  0  0
  143.4170   73.9510  219.6850 C   0  0  0  0  0  0  0  0  0  0  0  0
  144.3580   73.7840  220.8290 C   0  0  0  0  0  0  0  0  0  0  0  0
  142.0470   73.6570  220.0160 N   0  0  0  0  0  0  0  0  0  0  0  0
  141.2720   74.5920  220.7660 C   0  0  0  0  0  0  0  0  0  0  0  0
  141.7910   75.6750  221.1360 O   0  0  0  0  0  0  0  0  0  0  0  0
  139.8630   74.2160  221.0700 C   0  0  0  0  0  0  0  0  0  0  0  0
  139.7910   73.4210  222.2740 N   0  0  0  0  0  0  0  0  0  0  0  0
  140.3020   72.0930  222.3700 C   0  0  0  0  0  0  0  0  0  0  0  0
  140.8370   71.6050  221.3440 O   0  0  0  0  0  0  0  0  0  0  0  0
  140.1860   71.3580  223.6320 C   0  0  0  0  0  0  0  0  0  0  0  0
  139.5750   70.1230  223.5830 C   0  0  0  0  0  0  0  0  0  0  0  0
  139.4690   69.4290  224.7810 C   0  0  0  0  0  0  0  0  0  0  0  0
  139.9590   69.9710  225.9520 C   0  0  0  0  0  0  0  0  0  0  0  0
  139.8780   69.3230  227.1660 C   0  0  0  0  0  0  0  0  0  0  0  0
  140.3680   69.8630  228.3420 C   0  0  0  0  0  0  0  0  0  0  0  0
  140.9690   71.1050  228.3190 C   0  0  0  0  0  0  0  0  0  0  0  0
  141.0610   71.7750  227.1070 C   0  0  0  0  0  0  0  0  0  0  0  0
  140.5650   71.2200  225.9410 C   0  0  0  0  0  0  0  0  0  0  0  0
  140.6670   71.8960  224.7630 N   0  0  0  0  0  0  0  0  0  0  0  0
  143.7030   76.0557  219.8725 H   0  0  0  0  0  0  0  0  0  0  0  0
  144.5076   75.3064  218.4520 H   0  0  0  0  0  0  0  0  0  0  0  0
  142.7277   75.5483  218.4520 H   0  0  0  0  0  0  0  0  0  0  0  0
  143.6705   73.1948  218.9274 H   0  0  0  0  0  0  0  0  0  0  0  0
  143.8058   73.8820  221.7753 H   0  0  0  0  0  0  0  0  0  0  0  0
  144.8244   72.7891  220.7779 H   0  0  0  0  0  0  0  0  0  0  0  0
  145.1382   74.5577  220.7779 H   0  0  0  0  0  0  0  0  0  0  0  0
  141.6590   72.7360  219.6820 H   0  0  0  0  0  0  0  0  0  0  0  0
  139.2673   75.1307  221.2060 H   0  0  0  0  0  0  0  0  0  0  0  0
  139.4686   73.6223  220.2322 H   0  0  0  0  0  0  0  0  0  0  0  0
  139.3480   73.8130  223.1340 H   0  0  0  0  0  0  0  0  0  0  0  0
  139.1900   69.7074  222.6401 H   0  0  0  0  0  0  0  0  0  0  0  0
  138.9904   68.4387  224.7970 H   0  0  0  0  0  0  0  0  0  0  0  0
  139.4023   68.3318  227.2015 H   0  0  0  0  0  0  0  0  0  0  0  0
  140.2792   69.3071  229.2870 H   0  0  0  0  0  0  0  0  0  0  0  0
  141.3665   71.5542  229.2411 H   0  0  0  0  0  0  0  0  0  0  0  0
  141.5373   72.7660  227.0730 H   0  0  0  0  0  0  0  0  0  0  0  0
  1  2  1  0
  2  3  1  0
  2  4  1  0
  4  5  1  0
  5  6  2  0
  5  7  1  0
  7  8  1  0
  8  9  1  0
  9 10  2  0
  9 11  1  0
 11 12  2  0
 12 13  1  0
 13 14  2  0
 14 15  1  0
 15 16  2  0
 16 17  1  0
 17 18  2  0
 18 19  1  0
 19 20  2  0
 20 11  1  0
 19 14  1  0
  1 21  1  0
  1 22  1  0
  1 23  1  0
  2 24  1  0
  3 25  1  0
  3 26  1  0
  3 27  1  0
  4 28  1  0
  7 29  1  0
  7 30  1  0
  8 31  1  0
 12 32  1  0
 13 33  1  0
 15 34  1  0
 16 35  1  0
 17 36  1  0
 18 37  1  0
M  END
>  <smiles>  (31) 
CC(C)NC(=O)CNC(=O)c1ccc2ccccc2n1

>  <score_type>  (31) 
oracle

>  <origin>  (31) 
autodockgpu

>  <m_score__min__energy>  (31) 
-7.2300000000000004

>  <m_primary>  (31) 
energy

>  <rmsd>  (31) 
2.225618516876143

>  <m_score__min__rmsd>  (31) 
2.225618516876143

>  <meeko>  (31) 
{"free_energy": -6.28, "intermolecular_energy": -7.47, "internal_energy": -1.43, "cluster_size": 14, "cluster_id": 3, "rank_in_cluster": 8}

>  <energy>  (31) 
-6.0

>  <cluster_rmsd>  (31) 
1.86

>  <cluster>  (31) 
1

$$$$

     RDKit          3D

 37 38  0  0  0  0  0  0  0  0999 V2000
  141.8040   78.3690  223.8060 C   0  0  0  0  0  0  0  0  0  0  0  0
  141.1090   78.2950  222.4830 C   0  0  0  0  0  0  0  0  0  0  0  0
  141.6630   79.3320  221.5660 C   0  0  0  0  0  0  0  0  0  0  0  0
  141.0990   76.9710  221.9180 N   0  0  0  0  0  0  0  0  0  0  0  0
  139.9180   76.1720  221.9760 C   0  0  0  0  0  0  0  0  0  0  0  0
  138.8830   76.6310  222.5230 O   0  0  0  0  0  0  0  0  0  0  0  0
  139.9870   74.8130  221.3700 C   0  0  0  0  0  0  0  0  0  0  0  0
  139.7510   73.7930  222.3660 N   0  0  0  0  0  0  0  0  0  0  0  0
  140.5630   72.6290  222.5050 C   0  0  0  0  0  0  0  0  0  0  0  0
  141.5270   72.5000  221.7100 O   0  0  0  0  0  0  0  0  0  0  0  0
  140.2510   71.6440  223.5430 C   0  0  0  0  0  0  0  0  0  0  0  0
  139.4850   70.5600  223.1690 C   0  0  0  0  0  0  0  0  0  0  0  0
  139.1940   69.6290  224.1560 C   0  0  0  0  0  0  0  0  0  0  0  0
  139.6600   69.8020  225.4440 C   0  0  0  0  0  0  0  0  0  0  0  0
  139.3990   68.9060  226.4590 C   0  0  0  0  0  0  0  0  0  0  0  0
  139.8640   69.0760  227.7510 C   0  0  0  0  0  0  0  0  0  0  0  0
  140.6270   70.1850  228.0580 C   0  0  0  0  0  0  0  0  0  0  0  0
  140.9020   71.0980  227.0500 C   0  0  0  0  0  0  0  0  0  0  0  0
  140.4280   70.9130  225.7630 C   0  0  0  0  0  0  0  0  0  0  0  0
  140.7110   71.8240  224.7910 N   0  0  0  0  0  0  0  0  0  0  0  0
  141.0625   78.2900  224.6146 H   0  0  0  0  0  0  0  0  0  0  0  0
  142.5253   77.5426  223.8880 H   0  0  0  0  0  0  0  0  0  0  0  0
  142.3351   79.3288  223.8880 H   0  0  0  0  0  0  0  0  0  0  0  0
  140.0439   78.5195  222.6414 H   0  0  0  0  0  0  0  0  0  0  0  0
  142.0998   80.1496  222.1583 H   0  0  0  0  0  0  0  0  0  0  0  0
  142.4411   78.8825  220.9316 H   0  0  0  0  0  0  0  0  0  0  0  0
  140.8568   79.7289  220.9316 H   0  0  0  0  0  0  0  0  0  0  0  0
  141.9920   76.6330  221.4710 H   0  0  0  0  0  0  0  0  0  0  0  0
  139.2239   74.7306  220.5820 H   0  0  0  0  0  0  0  0  0  0  0  0
  140.9920   74.6666  220.9475 H   0  0  0  0  0  0  0  0  0  0  0  0
  138.9530   73.8870  223.0310 H   0  0  0  0  0  0  0  0  0  0  0  0
  139.1220   70.4391  222.1377 H   0  0  0  0  0  0  0  0  0  0  0  0
  138.5867   68.7454  223.9100 H   0  0  0  0  0  0  0  0  0  0  0  0
  138.7939   68.0160  226.2313 H   0  0  0  0  0  0  0  0  0  0  0  0
  139.6277   68.3335  228.5274 H   0  0  0  0  0  0  0  0  0  0  0  0
  141.0080   70.3411  229.0780 H   0  0  0  0  0  0  0  0  0  0  0  0
  141.5089   71.9866  227.2784 H   0  0  0  0  0  0  0  0  0  0  0  0
  1  2  1  0
  2  3  1  0
  2  4  1  0
  4  5  1  0
  5  6  2  0
  5  7  1  0
  7  8  1  0
  8  9  1  0
  9 10  2  0
  9 11  1  0
 11 12  2  0
 12 13  1  0
 13 14  2  0
 14 15  1  0
 15 16  2  0
 16 17  1  0
 17 18  2  0
 18 19  1  0
 19 20  2  0
 20 11  1  0
 19 14  1  0
  1 21  1  0
  1 22  1  0
  1 23  1  0
  2 24  1  0
  3 25  1  0
  3 26  1  0
  3 27  1  0
  4 28  1  0
  7 29  1  0
  7 30  1  0
  8 31  1  0
 12 32  1  0
 13 33  1  0
 15 34  1  0
 16 35  1  0
 17 36  1  0
 18 37  1  0
M  END
>  <smiles>  (32) 
CC(C)NC(=O)CNC(=O)c1ccc2ccccc2n1

>  <score_type>  (32) 
oracle

>  <origin>  (32) 
autodockgpu

>  <m_score__min__energy>  (32) 
-7.2300000000000004

>  <m_primary>  (32) 
energy

>  <rmsd>  (32) 
2.5953732110739267

>  <m_score__min__rmsd>  (32) 
2.5953732110739267

>  <meeko>  (32) 
{"free_energy": -7.12, "intermolecular_energy": -8.31, "internal_energy": -0.77, "cluster_size": 31, "cluster_id": 1, "rank_in_cluster": 13}

>  <energy>  (32) 
-6.53

>  <cluster_rmsd>  (32) 
0.0

>  <cluster>  (32) 
2

$$$$

     RDKit          3D

 37 38  0  0  0  0  0  0  0  0999 V2000
  141.8110   78.6320  223.6450 C   0  0  0  0  0  0  0  0  0  0  0  0
  141.0660   78.4360  222.3620 C   0  0  0  0  0  0  0  0  0  0  0  0
  141.4710   79.4850  221.3820 C   0  0  0  0  0  0  0  0  0  0  0  0
  141.1620   77.0960  221.8460 N   0  0  0  0  0  0  0  0  0  0  0  0
  140.0320   76.2260  221.8900 C   0  0  0  0  0  0  0  0  0  0  0  0
  138.9500   76.6350  222.3810 O   0  0  0  0  0  0  0  0  0  0  0  0
  140.2100   74.8530  221.3370 C   0  0  0  0  0  0  0  0  0  0  0  0
  139.9440   73.8540  222.3460 N   0  0  0  0  0  0  0  0  0  0  0  0
  140.6540   72.6200  222.4360 C   0  0  0  0  0  0  0  0  0  0  0  0
  141.5520   72.4090  221.5840 O   0  0  0  0  0  0  0  0  0  0  0  0
  140.3180   71.6630  223.4920 C   0  0  0  0  0  0  0  0  0  0  0  0
  139.6020   70.5450  223.1200 C   0  0  0  0  0  0  0  0  0  0  0  0
  139.2880   69.6390  224.1240 C   0  0  0  0  0  0  0  0  0  0  0  0
  139.6850   69.8690  225.4260 C   0  0  0  0  0  0  0  0  0  0  0  0
  139.3990   69.0010  226.4580 C   0  0  0  0  0  0  0  0  0  0  0  0
  139.7940   69.2290  227.7650 C   0  0  0  0  0  0  0  0  0  0  0  0
  140.5100   70.3690  228.0680 C   0  0  0  0  0  0  0  0  0  0  0  0
  140.8090   71.2550  227.0430 C   0  0  0  0  0  0  0  0  0  0  0  0
  140.4050   71.0130  225.7430 C   0  0  0  0  0  0  0  0  0  0  0  0
  140.7100   71.8980  224.7540 N   0  0  0  0  0  0  0  0  0  0  0  0
  141.1337   78.4538  224.4932 H   0  0  0  0  0  0  0  0  0  0  0  0
  142.6520   77.9246  223.6924 H   0  0  0  0  0  0  0  0  0  0  0  0
  142.1950   79.6617  223.6924 H   0  0  0  0  0  0  0  0  0  0  0  0
  139.9921   78.5604  222.5653 H   0  0  0  0  0  0  0  0  0  0  0  0
  141.8160   80.3785  221.9229 H   0  0  0  0  0  0  0  0  0  0  0  0
  142.2857   79.1016  220.7502 H   0  0  0  0  0  0  0  0  0  0  0  0
  140.6100   79.7485  220.7502 H   0  0  0  0  0  0  0  0  0  0  0  0
  142.0910   76.8010  221.4450 H   0  0  0  0  0  0  0  0  0  0  0  0
  139.5151   74.7101  220.4963 H   0  0  0  0  0  0  0  0  0  0  0  0
  141.2504   74.7423  220.9975 H   0  0  0  0  0  0  0  0  0  0  0  0
  139.2000   74.0170  223.0600 H   0  0  0  0  0  0  0  0  0  0  0  0
  139.2942   70.3787  222.0771 H   0  0  0  0  0  0  0  0  0  0  0  0
  138.7181   68.7303  223.8800 H   0  0  0  0  0  0  0  0  0  0  0  0
  138.8314   68.0861  226.2328 H   0  0  0  0  0  0  0  0  0  0  0  0
  139.5393   68.5075  228.5553 H   0  0  0  0  0  0  0  0  0  0  0  0
  140.8363   70.5708  229.0989 H   0  0  0  0  0  0  0  0  0  0  0  0
  141.3789   72.1683  227.2691 H   0  0  0  0  0  0  0  0  0  0  0  0
  1  2  1  0
  2  3  1  0
  2  4  1  0
  4  5  1  0
  5  6  2  0
  5  7  1  0
  7  8  1  0
  8  9  1  0
  9 10  2  0
  9 11  1  0
 11 12  2  0
 12 13  1  0
 13 14  2  0
 14 15  1  0
 15 16  2  0
 16 17  1  0
 17 18  2  0
 18 19  1  0
 19 20  2  0
 20 11  1  0
 19 14  1  0
  1 21  1  0
  1 22  1  0
  1 23  1  0
  2 24  1  0
  3 25  1  0
  3 26  1  0
  3 27  1  0
  4 28  1  0
  7 29  1  0
  7 30  1  0
  8 31  1  0
 12 32  1  0
 13 33  1  0
 15 34  1  0
 16 35  1  0
 17 36  1  0
 18 37  1  0
M  END
>  <smiles>  (33) 
CC(C)NC(=O)CNC(=O)c1ccc2ccccc2n1

>  <score_type>  (33) 
oracle

>  <origin>  (33) 
autodockgpu

>  <m_score__min__energy>  (33) 
-7.2300000000000004

>  <m_primary>  (33) 
energy

>  <rmsd>  (33) 
2.5984710984798567

>  <m_score__min__rmsd>  (33) 
2.5984710984798567

>  <meeko>  (33) 
{"free_energy": -7.13, "intermolecular_energy": -8.32, "internal_energy": -0.79, "cluster_size": 31, "cluster_id": 1, "rank_in_cluster": 11}

>  <energy>  (33) 
-6.52

>  <cluster_rmsd>  (33) 
0.27

>  <cluster>  (33) 
2

$$$$

     RDKit          3D

 37 38  0  0  0  0  0  0  0  0999 V2000
  140.2580   78.9960  221.4350 C   0  0  0  0  0  0  0  0  0  0  0  0
  141.3740   78.1770  222.0020 C   0  0  0  0  0  0  0  0  0  0  0  0
  141.4120   78.3390  223.4840 C   0  0  0  0  0  0  0  0  0  0  0  0
  141.3470   76.8030  221.5720 N   0  0  0  0  0  0  0  0  0  0  0  0
  140.1600   76.0260  221.7210 C   0  0  0  0  0  0  0  0  0  0  0  0
  139.1350   76.5470  222.2300 O   0  0  0  0  0  0  0  0  0  0  0  0
  140.2100   74.6120  221.2540 C   0  0  0  0  0  0  0  0  0  0  0  0
  139.9510   73.7000  222.3440 N   0  0  0  0  0  0  0  0  0  0  0  0
  140.6110   72.4450  222.4910 C   0  0  0  0  0  0  0  0  0  0  0  0
  141.4580   72.1320  221.6170 O   0  0  0  0  0  0  0  0  0  0  0  0
  140.2860   71.5810  223.6280 C   0  0  0  0  0  0  0  0  0  0  0  0
  139.5200   70.4640  223.3680 C   0  0  0  0  0  0  0  0  0  0  0  0
  139.2170   69.6470  224.4480 C   0  0  0  0  0  0  0  0  0  0  0  0
  139.6710   69.9600  225.7140 C   0  0  0  0  0  0  0  0  0  0  0  0
  139.3970   69.1810  226.8180 C   0  0  0  0  0  0  0  0  0  0  0  0
  139.8510   69.4910  228.0890 C   0  0  0  0  0  0  0  0  0  0  0  0
  140.6140   70.6250  228.2790 C   0  0  0  0  0  0  0  0  0  0  0  0
  140.9020   71.4220  227.1800 C   0  0  0  0  0  0  0  0  0  0  0  0
  140.4390   71.0970  225.9170 C   0  0  0  0  0  0  0  0  0  0  0  0
  140.7340   71.8950  224.8540 N   0  0  0  0  0  0  0  0  0  0  0  0
  139.6675   79.4293  222.2557 H   0  0  0  0  0  0  0  0  0  0  0  0
  140.6743   79.8045  220.8162 H   0  0  0  0  0  0  0  0  0  0  0  0
  139.6115   78.3564  220.8162 H   0  0  0  0  0  0  0  0  0  0  0  0
  142.3224   78.5594  221.5965 H   0  0  0  0  0  0  0  0  0  0  0  0
  141.1859   77.3755  223.9641 H   0  0  0  0  0  0  0  0  0  0  0  0
  142.4135   78.6753  223.7905 H   0  0  0  0  0  0  0  0  0  0  0  0
  140.6647   79.0857  223.7905 H   0  0  0  0  0  0  0  0  0  0  0  0
  142.2320   76.4140  221.1520 H   0  0  0  0  0  0  0  0  0  0  0  0
  139.4506   74.4638  220.4721 H   0  0  0  0  0  0  0  0  0  0  0  0
  141.2152   74.4084  220.8565 H   0  0  0  0  0  0  0  0  0  0  0  0
  139.2500   73.9470  223.0760 H   0  0  0  0  0  0  0  0  0  0  0  0
  139.1661   70.2317  222.3527 H   0  0  0  0  0  0  0  0  0  0  0  0
  138.6101   68.7425  224.2943 H   0  0  0  0  0  0  0  0  0  0  0  0
  138.7909   68.2730  226.6833 H   0  0  0  0  0  0  0  0  0  0  0  0
  139.6055   68.8387  228.9400 H   0  0  0  0  0  0  0  0  0  0  0  0
  140.9857   70.8913  229.2794 H   0  0  0  0  0  0  0  0  0  0  0  0
  141.5096   72.3289  227.3153 H   0  0  0  0  0  0  0  0  0  0  0  0
  1  2  1  0
  2  3  1  0
  2  4  1  0
  4  5  1  0
  5  6  2  0
  5  7  1  0
  7  8  1  0
  8  9  1  0
  9 10  2  0
  9 11  1  0
 11 12  2  0
 12 13  1  0
 13 14  2  0
 14 15  1  0
 15 16  2  0
 16 17  1  0
 17 18  2  0
 18 19  1  0
 19 20  2  0
 20 11  1  0
 19 14  1  0
  1 21  1  0
  1 22  1  0
  1 23  1  0
  2 24  1  0
  3 25  1  0
  3 26  1  0
  3 27  1  0
  4 28  1  0
  7 29  1  0
  7 30  1  0
  8 31  1  0
 12 32  1  0
 13 33  1  0
 15 34  1  0
 16 35  1  0
 17 36  1  0
 18 37  1  0
M  END
>  <smiles>  (34) 
CC(C)NC(=O)CNC(=O)c1ccc2ccccc2n1

>  <score_type>  (34) 
oracle

>  <origin>  (34) 
autodockgpu

>  <m_score__min__energy>  (34) 
-7.2300000000000004

>  <m_primary>  (34) 
energy

>  <rmsd>  (34) 
2.118970719656198

>  <m_score__min__rmsd>  (34) 
2.118970719656198

>  <meeko>  (34) 
{"free_energy": -6.92, "intermolecular_energy": -8.11, "internal_energy": -0.74, "cluster_size": 31, "cluster_id": 1, "rank_in_cluster": 22}

>  <energy>  (34) 
-6.52

>  <cluster_rmsd>  (34) 
0.0

>  <cluster>  (34) 
3

$$$$

     RDKit          3D

 37 38  0  0  0  0  0  0  0  0999 V2000
  141.8230   78.4790  223.7820 C   0  0  0  0  0  0  0  0  0  0  0  0
  141.0110   78.3140  222.5360 C   0  0  0  0  0  0  0  0  0  0  0  0
  141.3810   79.3720  221.5520 C   0  0  0  0  0  0  0  0  0  0  0  0
  141.0620   76.9800  221.9960 N   0  0  0  0  0  0  0  0  0  0  0  0
  139.8690   76.2050  221.8810 C   0  0  0  0  0  0  0  0  0  0  0  0
  138.7720   76.6910  222.2540 O   0  0  0  0  0  0  0  0  0  0  0  0
  140.0030   74.8340  221.3130 C   0  0  0  0  0  0  0  0  0  0  0  0
  139.7770   73.8320  222.3290 N   0  0  0  0  0  0  0  0  0  0  0  0
  140.5470   72.6370  222.4390 C   0  0  0  0  0  0  0  0  0  0  0  0
  141.4650   72.4630  221.5990 O   0  0  0  0  0  0  0  0  0  0  0  0
  140.2480   71.6730  223.5010 C   0  0  0  0  0  0  0  0  0  0  0  0
  139.5030   70.5670  223.1510 C   0  0  0  0  0  0  0  0  0  0  0  0
  139.2240   69.6560  224.1610 C   0  0  0  0  0  0  0  0  0  0  0  0
  139.6810   69.8690  225.4450 C   0  0  0  0  0  0  0  0  0  0  0  0
  139.4320   68.9950  226.4810 C   0  0  0  0  0  0  0  0  0  0  0  0
  139.8890   69.2060  227.7710 C   0  0  0  0  0  0  0  0  0  0  0  0
  140.6300   70.3350  228.0520 C   0  0  0  0  0  0  0  0  0  0  0  0
  140.8940   71.2280  227.0230 C   0  0  0  0  0  0  0  0  0  0  0  0
  140.4280   71.0020  225.7390 C   0  0  0  0  0  0  0  0  0  0  0  0
  140.6990   71.8920  224.7460 N   0  0  0  0  0  0  0  0  0  0  0  0
  141.1757   78.3475  224.6616 H   0  0  0  0  0  0  0  0  0  0  0  0
  142.6240   77.7252  223.8002 H   0  0  0  0  0  0  0  0  0  0  0  0
  142.2663   79.4856  223.8002 H   0  0  0  0  0  0  0  0  0  0  0  0
  139.9508   78.4510  222.7953 H   0  0  0  0  0  0  0  0  0  0  0  0
  141.6978   80.2780  222.0895 H   0  0  0  0  0  0  0  0  0  0  0  0
  142.2068   79.0127  220.9204 H   0  0  0  0  0  0  0  0  0  0  0  0
  140.5112   79.6057  220.9204 H   0  0  0  0  0  0  0  0  0  0  0  0
  142.0050   76.6180  221.6980 H   0  0  0  0  0  0  0  0  0  0  0  0
  139.2649   74.7037  220.5079 H   0  0  0  0  0  0  0  0  0  0  0  0
  141.0237   74.7137  220.9208 H   0  0  0  0  0  0  0  0  0  0  0  0
  139.0170   73.9630  223.0320 H   0  0  0  0  0  0  0  0  0  0  0  0
  139.1469   70.4137  222.1216 H   0  0  0  0  0  0  0  0  0  0  0  0
  138.6331   68.7561  223.9352 H   0  0  0  0  0  0  0  0  0  0  0  0
  138.8437   68.0889  226.2738 H   0  0  0  0  0  0  0  0  0  0  0  0
  139.6630   68.4792  228.5652 H   0  0  0  0  0  0  0  0  0  0  0  0
  141.0035   70.5234  229.0694 H   0  0  0  0  0  0  0  0  0  0  0  0
  141.4846   72.1323  227.2314 H   0  0  0  0  0  0  0  0  0  0  0  0
  1  2  1  0
  2  3  1  0
  2  4  1  0
  4  5  1  0
  5  6  2  0
  5  7  1  0
  7  8  1  0
  8  9  1  0
  9 10  2  0
  9 11  1  0
 11 12  2  0
 12 13  1  0
 13 14  2  0
 14 15  1  0
 15 16  2  0
 16 17  1  0
 17 18  2  0
 18 19  1  0
 19 20  2  0
 20 11  1  0
 19 14  1  0
  1 21  1  0
  1 22  1  0
  1 23  1  0
  2 24  1  0
  3 25  1  0
  3 26  1  0
  3 27  1  0
  4 28  1  0
  7 29  1  0
  7 30  1  0
  8 31  1  0
 12 32  1  0
 13 33  1  0
 15 34  1  0
 16 35  1  0
 17 36  1  0
 18 37  1  0
M  END
>  <smiles>  (35) 
CC(C)NC(=O)CNC(=O)c1ccc2ccccc2n1

>  <score_type>  (35) 
oracle

>  <origin>  (35) 
autodockgpu

>  <m_score__min__energy>  (35) 
-7.2300000000000004

>  <m_primary>  (35) 
energy

>  <rmsd>  (35) 
2.601441581700805

>  <m_score__min__rmsd>  (35) 
2.601441581700805

>  <meeko>  (35) 
{"free_energy": -7.23, "intermolecular_energy": -8.42, "internal_energy": -0.75, "cluster_size": 31, "cluster_id": 1, "rank_in_cluster": 1}

>  <energy>  (35) 
-6.5

>  <cluster_rmsd>  (35) 
0.13

>  <cluster>  (35) 
3

$$$$

     RDKit          3D

 37 38  0  0  0  0  0  0  0  0999 V2000
  143.5270   74.5320  218.6470 C   0  0  0  0  0  0  0  0  0  0  0  0
  143.3920   73.4930  219.7160 C   0  0  0  0  0  0  0  0  0  0  0  0
  144.3470   73.7870  220.8230 C   0  0  0  0  0  0  0  0  0  0  0  0
  142.0350   73.3050  220.1590 N   0  0  0  0  0  0  0  0  0  0  0  0
  141.2670   74.4170  220.6170 C   0  0  0  0  0  0  0  0  0  0  0  0
  141.7810   75.5640  220.6330 O   0  0  0  0  0  0  0  0  0  0  0  0
  139.8710   74.1420  221.0600 C   0  0  0  0  0  0  0  0  0  0  0  0
  139.8610   73.3670  222.2790 N   0  0  0  0  0  0  0  0  0  0  0  0
  140.1480   71.9710  222.3260 C   0  0  0  0  0  0  0  0  0  0  0  0
  140.4200   71.4020  221.2390 O   0  0  0  0  0  0  0  0  0  0  0  0
  140.1140   71.2630  223.6070 C   0  0  0  0  0  0  0  0  0  0  0  0
  139.5790   69.9920  223.6070 C   0  0  0  0  0  0  0  0  0  0  0  0
  139.5510   69.3250  224.8240 C   0  0  0  0  0  0  0  0  0  0  0  0
  140.0410   69.9260  225.9660 C   0  0  0  0  0  0  0  0  0  0  0  0
  140.0360   69.3050  227.1970 C   0  0  0  0  0  0  0  0  0  0  0  0
  140.5260   69.9050  228.3440 C   0  0  0  0  0  0  0  0  0  0  0  0
  141.0490   71.1800  228.2730 C   0  0  0  0  0  0  0  0  0  0  0  0
  141.0640   71.8220  227.0430 C   0  0  0  0  0  0  0  0  0  0  0  0
  140.5690   71.2080  225.9060 C   0  0  0  0  0  0  0  0  0  0  0  0
  140.5940   71.8590  224.7100 N   0  0  0  0  0  0  0  0  0  0  0  0
  143.6555   75.5210  219.1111 H   0  0  0  0  0  0  0  0  0  0  0  0
  144.4030   74.3035  218.0222 H   0  0  0  0  0  0  0  0  0  0  0  0
  142.6217   74.5350  218.0222 H   0  0  0  0  0  0  0  0  0  0  0  0
  143.6636   72.5179  219.2855 H   0  0  0  0  0  0  0  0  0  0  0  0
  143.8460   73.6328  221.7901 H   0  0  0  0  0  0  0  0  0  0  0  0
  145.2140   73.1142  220.7477 H   0  0  0  0  0  0  0  0  0  0  0  0
  144.6854   74.8309  220.7477 H   0  0  0  0  0  0  0  0  0  0  0  0
  141.6510   72.3240  220.1260 H   0  0  0  0  0  0  0  0  0  0  0  0
  139.3541   75.0969  221.2359 H   0  0  0  0  0  0  0  0  0  0  0  0
  139.3592   73.5676  220.2738 H   0  0  0  0  0  0  0  0  0  0  0  0
  139.6360   73.8270  223.1880 H   0  0  0  0  0  0  0  0  0  0  0  0
  139.1930   69.5290  222.6869 H   0  0  0  0  0  0  0  0  0  0  0  0
  139.1346   68.3083  224.8789 H   0  0  0  0  0  0  0  0  0  0  0  0
  139.6243   68.2876  227.2708 H   0  0  0  0  0  0  0  0  0  0  0  0
  140.4987   69.3697  229.3046 H   0  0  0  0  0  0  0  0  0  0  0  0
  141.4451   71.6762  229.1713 H   0  0  0  0  0  0  0  0  0  0  0  0
  141.4774   72.8388  226.9703 H   0  0  0  0  0  0  0  0  0  0  0  0
  1  2  1  0
  2  3  1  0
  2  4  1  0
  4  5  1  0
  5  6  2  0
  5  7  1  0
  7  8  1  0
  8  9  1  0
  9 10  2  0
  9 11  1  0
 11 12  2  0
 12 13  1  0
 13 14  2  0
 14 15  1  0
 15 16  2  0
 16 17  1  0
 17 18  2  0
 18 19  1  0
 19 20  2  0
 20 11  1  0
 19 14  1  0
  1 21  1  0
  1 22  1  0
  1 23  1  0
  2 24  1  0
  3 25  1  0
  3 26  1  0
  3 27  1  0
  4 28  1  0
  7 29  1  0
  7 30  1  0
  8 31  1  0
 12 32  1  0
 13 33  1  0
 15 34  1  0
 16 35  1  0
 17 36  1  0
 18 37  1  0
M  END
>  <smiles>  (36) 
CC(C)NC(=O)CNC(=O)c1ccc2ccccc2n1

>  <score_type>  (36) 
oracle

>  <origin>  (36) 
autodockgpu

>  <m_score__min__energy>  (36) 
-7.2300000000000004

>  <m_primary>  (36) 
energy

>  <rmsd>  (36) 
2.3134512590921985

>  <m_score__min__rmsd>  (36) 
2.3134512590921985

>  <meeko>  (36) 
{"free_energy": -6.03, "intermolecular_energy": -7.23, "internal_energy": -1.55, "cluster_size": 14, "cluster_id": 3, "rank_in_cluster": 14}

>  <energy>  (36) 
-6.49

>  <cluster_rmsd>  (36) 
0.1

>  <cluster>  (36) 
3

$$$$

     RDKit          3D

 37 38  0  0  0  0  0  0  0  0999 V2000
  141.8120   78.6250  223.6150 C   0  0  0  0  0  0  0  0  0  0  0  0
  141.0790   78.4480  222.3220 C   0  0  0  0  0  0  0  0  0  0  0  0
  141.5110   79.4970  221.3540 C   0  0  0  0  0  0  0  0  0  0  0  0
  141.1630   77.1100  221.7980 N   0  0  0  0  0  0  0  0  0  0  0  0
  140.0490   76.2250  221.9050 C   0  0  0  0  0  0  0  0  0  0  0  0
  138.9920   76.6190  222.4590 O   0  0  0  0  0  0  0  0  0  0  0  0
  140.2120   74.8560  221.3400 C   0  0  0  0  0  0  0  0  0  0  0  0
  139.9380   73.8500  222.3400 N   0  0  0  0  0  0  0  0  0  0  0  0
  140.6520   72.6190  222.4320 C   0  0  0  0  0  0  0  0  0  0  0  0
  141.5620   72.4150  221.5910 O   0  0  0  0  0  0  0  0  0  0  0  0
  140.3070   71.6540  223.4790 C   0  0  0  0  0  0  0  0  0  0  0  0
  139.5860   70.5440  223.0940 C   0  0  0  0  0  0  0  0  0  0  0  0
  139.2630   69.6310  224.0900 C   0  0  0  0  0  0  0  0  0  0  0  0
  139.6560   69.8480  225.3950 C   0  0  0  0  0  0  0  0  0  0  0  0
  139.3610   68.9730  226.4180 C   0  0  0  0  0  0  0  0  0  0  0  0
  139.7530   69.1870  227.7290 C   0  0  0  0  0  0  0  0  0  0  0  0
  140.4730   70.3210  228.0450 C   0  0  0  0  0  0  0  0  0  0  0  0
  140.7820   71.2140  227.0280 C   0  0  0  0  0  0  0  0  0  0  0  0
  140.3810   70.9850  225.7240 C   0  0  0  0  0  0  0  0  0  0  0  0
  140.6950   71.8770  224.7440 N   0  0  0  0  0  0  0  0  0  0  0  0
  141.1207   78.4581  224.4542 H   0  0  0  0  0  0  0  0  0  0  0  0
  142.6378   77.9005  223.6705 H   0  0  0  0  0  0  0  0  0  0  0  0
  142.2162   79.6466  223.6705 H   0  0  0  0  0  0  0  0  0  0  0  0
  140.0047   78.5864  222.5135 H   0  0  0  0  0  0  0  0  0  0  0  0
  141.8736   80.3774  221.9049 H   0  0  0  0  0  0  0  0  0  0  0  0
  142.3195   79.1017  220.7215 H   0  0  0  0  0  0  0  0  0  0  0  0
  140.6586   79.7857  220.7215 H   0  0  0  0  0  0  0  0  0  0  0  0
  142.0710   76.8270  221.3430 H   0  0  0  0  0  0  0  0  0  0  0  0
  139.5142   74.7278  220.4994 H   0  0  0  0  0  0  0  0  0  0  0  0
  141.2509   74.7381  220.9981 H   0  0  0  0  0  0  0  0  0  0  0  0
  139.1840   74.0060  223.0440 H   0  0  0  0  0  0  0  0  0  0  0  0
  139.2811   70.3887  222.0486 H   0  0  0  0  0  0  0  0  0  0  0  0
  138.6892   68.7275  223.8363 H   0  0  0  0  0  0  0  0  0  0  0  0
  138.7884   68.0637  226.1827 H   0  0  0  0  0  0  0  0  0  0  0  0
  139.4926   68.4592  228.5117 H   0  0  0  0  0  0  0  0  0  0  0  0
  140.7948   70.5130  229.0792 H   0  0  0  0  0  0  0  0  0  0  0  0
  141.3571   72.1216  227.2637 H   0  0  0  0  0  0  0  0  0  0  0  0
  1  2  1  0
  2  3  1  0
  2  4  1  0
  4  5  1  0
  5  6  2  0
  5  7  1  0
  7  8  1  0
  8  9  1  0
  9 10  2  0
  9 11  1  0
 11 12  2  0
 12 13  1  0
 13 14  2  0
 14 15  1  0
 15 16  2  0
 16 17  1  0
 17 18  2  0
 18 19  1  0
 19 20  2  0
 20 11  1  0
 19 14  1  0
  1 21  1  0
  1 22  1  0
  1 23  1  0
  2 24  1  0
  3 25  1  0
  3 26  1  0
  3 27  1  0
  4 28  1  0
  7 29  1  0
  7 30  1  0
  8 31  1  0
 12 32  1  0
 13 33  1  0
 15 34  1  0
 16 35  1  0
 17 36  1  0
 18 37  1  0
M  END
>  <smiles>  (37) 
CC(C)NC(=O)CNC(=O)c1ccc2ccccc2n1

>  <score_type>  (37) 
oracle

>  <origin>  (37) 
autodockgpu

>  <m_score__min__energy>  (37) 
-7.2300000000000004

>  <m_primary>  (37) 
energy

>  <rmsd>  (37) 
2.5899811059661637

>  <m_score__min__rmsd>  (37) 
2.5899811059661637

>  <meeko>  (37) 
{"free_energy": -7.1, "intermolecular_energy": -8.29, "internal_energy": -0.81, "cluster_size": 31, "cluster_id": 1, "rank_in_cluster": 16}

>  <energy>  (37) 
-6.47

>  <cluster_rmsd>  (37) 
0.13

>  <cluster>  (37) 
3

$$$$

     RDKit          3D

 37 38  0  0  0  0  0  0  0  0999 V2000
  141.7950   78.6480  223.6450 C   0  0  0  0  0  0  0  0  0  0  0  0
  141.0190   78.4400  222.3820 C   0  0  0  0  0  0  0  0  0  0  0  0
  141.3770   79.4980  221.3940 C   0  0  0  0  0  0  0  0  0  0  0  0
  141.1260   77.1030  221.8610 N   0  0  0  0  0  0  0  0  0  0  0  0
  140.0040   76.2220  221.9040 C   0  0  0  0  0  0  0  0  0  0  0  0
  138.9200   76.6200  222.4000 O   0  0  0  0  0  0  0  0  0  0  0  0
  140.1930   74.8540  221.3460 C   0  0  0  0  0  0  0  0  0  0  0  0
  139.9240   73.8480  222.3470 N   0  0  0  0  0  0  0  0  0  0  0  0
  140.6420   72.6190  222.4390 C   0  0  0  0  0  0  0  0  0  0  0  0
  141.5510   72.4180  221.5950 O   0  0  0  0  0  0  0  0  0  0  0  0
  140.3020   71.6540  223.4870 C   0  0  0  0  0  0  0  0  0  0  0  0
  139.5940   70.5350  223.1020 C   0  0  0  0  0  0  0  0  0  0  0  0
  139.2760   69.6220  224.0990 C   0  0  0  0  0  0  0  0  0  0  0  0
  139.6610   69.8470  225.4050 C   0  0  0  0  0  0  0  0  0  0  0  0
  139.3700   68.9710  226.4300 C   0  0  0  0  0  0  0  0  0  0  0  0
  139.7540   69.1930  227.7410 C   0  0  0  0  0  0  0  0  0  0  0  0
  140.4620   70.3350  228.0570 C   0  0  0  0  0  0  0  0  0  0  0  0
  140.7660   71.2290  227.0400 C   0  0  0  0  0  0  0  0  0  0  0  0
  140.3730   70.9920  225.7340 C   0  0  0  0  0  0  0  0  0  0  0  0
  140.6830   71.8840  224.7530 N   0  0  0  0  0  0  0  0  0  0  0  0
  141.1399   78.4724  224.5110 H   0  0  0  0  0  0  0  0  0  0  0  0
  142.6402   77.9447  223.6761 H   0  0  0  0  0  0  0  0  0  0  0  0
  142.1752   79.6798  223.6761 H   0  0  0  0  0  0  0  0  0  0  0  0
  139.9488   78.5437  222.6144 H   0  0  0  0  0  0  0  0  0  0  0  0
  141.6853   80.4090  221.9279 H   0  0  0  0  0  0  0  0  0  0  0  0
  142.2057   79.1448  220.7627 H   0  0  0  0  0  0  0  0  0  0  0  0
  140.5041   79.7206  220.7627 H   0  0  0  0  0  0  0  0  0  0  0  0
  142.0560   76.8180  221.4560 H   0  0  0  0  0  0  0  0  0  0  0  0
  139.5056   74.7123  220.4990 H   0  0  0  0  0  0  0  0  0  0  0  0
  141.2368   74.7503  221.0148 H   0  0  0  0  0  0  0  0  0  0  0  0
  139.1710   74.0020  223.0530 H   0  0  0  0  0  0  0  0  0  0  0  0
  139.2955   70.3734  222.0557 H   0  0  0  0  0  0  0  0  0  0  0  0
  138.7125   68.7119  223.8456 H   0  0  0  0  0  0  0  0  0  0  0  0
  138.8077   68.0552  226.1950 H   0  0  0  0  0  0  0  0  0  0  0  0
  139.4971   68.4653  228.5248 H   0  0  0  0  0  0  0  0  0  0  0  0
  140.7782   70.5321  229.0920 H   0  0  0  0  0  0  0  0  0  0  0  0
  141.3300   72.1434  227.2762 H   0  0  0  0  0  0  0  0  0  0  0  0
  1  2  1  0
  2  3  1  0
  2  4  1  0
  4  5  1  0
  5  6  2  0
  5  7  1  0
  7  8  1  0
  8  9  1  0
  9 10  2  0
  9 11  1  0
 11 12  2  0
 12 13  1  0
 13 14  2  0
 14 15  1  0
 15 16  2  0
 16 17  1  0
 17 18  2  0
 18 19  1  0
 19 20  2  0
 20 11  1  0
 19 14  1  0
  1 21  1  0
  1 22  1  0
  1 23  1  0
  2 24  1  0
  3 25  1  0
  3 26  1  0
  3 27  1  0
  4 28  1  0
  7 29  1  0
  7 30  1  0
  8 31  1  0
 12 32  1  0
 13 33  1  0
 15 34  1  0
 16 35  1  0
 17 36  1  0
 18 37  1  0
M  END
>  <smiles>  (38) 
CC(C)NC(=O)CNC(=O)c1ccc2ccccc2n1

>  <score_type>  (38) 
oracle

>  <origin>  (38) 
autodockgpu

>  <m_score__min__energy>  (38) 
-7.2300000000000004

>  <m_primary>  (38) 
energy

>  <rmsd>  (38) 
2.5987190010897523

>  <m_score__min__rmsd>  (38) 
2.5987190010897523

>  <meeko>  (38) 
{"free_energy": -7.13, "intermolecular_energy": -8.32, "internal_energy": -0.8, "cluster_size": 31, "cluster_id": 1, "rank_in_cluster": 12}

>  <energy>  (38) 
-6.45

>  <cluster_rmsd>  (38) 
0.15

>  <cluster>  (38) 
3

$$$$

     RDKit          3D

 37 38  0  0  0  0  0  0  0  0999 V2000
  141.7210   78.5590  223.4740 C   0  0  0  0  0  0  0  0  0  0  0  0
  141.0650   78.3520  222.1450 C   0  0  0  0  0  0  0  0  0  0  0  0
  141.5140   79.4100  221.1940 C   0  0  0  0  0  0  0  0  0  0  0  0
  141.2190   77.0150  221.6360 N   0  0  0  0  0  0  0  0  0  0  0  0
  140.2500   76.0130  221.9400 C   0  0  0  0  0  0  0  0  0  0  0  0
  139.2590   76.3030  222.6570 O   0  0  0  0  0  0  0  0  0  0  0  0
  140.4790   74.6520  221.3770 C   0  0  0  0  0  0  0  0  0  0  0  0
  140.1450   73.6320  222.3440 N   0  0  0  0  0  0  0  0  0  0  0  0
  140.7290   72.3310  222.3470 C   0  0  0  0  0  0  0  0  0  0  0  0
  141.5750   72.0770  221.4530 O   0  0  0  0  0  0  0  0  0  0  0  0
  140.3300   71.3570  223.3650 C   0  0  0  0  0  0  0  0  0  0  0  0
  139.5770   70.2820  222.9420 C   0  0  0  0  0  0  0  0  0  0  0  0
  139.2030   69.3600  223.9110 C   0  0  0  0  0  0  0  0  0  0  0  0
  139.5800   69.5340  225.2270 C   0  0  0  0  0  0  0  0  0  0  0  0
  139.2350   68.6470  226.2250 C   0  0  0  0  0  0  0  0  0  0  0  0
  139.6110   68.8180  227.5470 C   0  0  0  0  0  0  0  0  0  0  0  0
  140.3660   69.9170  227.9010 C   0  0  0  0  0  0  0  0  0  0  0  0
  140.7250   70.8210  226.9110 C   0  0  0  0  0  0  0  0  0  0  0  0
  140.3400   70.6350  225.5950 C   0  0  0  0  0  0  0  0  0  0  0  0
  140.7040   71.5370  224.6410 N   0  0  0  0  0  0  0  0  0  0  0  0
  141.0034   78.3326  224.2763 H   0  0  0  0  0  0  0  0  0  0  0  0
  142.5912   77.8918  223.5613 H   0  0  0  0  0  0  0  0  0  0  0  0
  142.0506   79.6048  223.5613 H   0  0  0  0  0  0  0  0  0  0  0  0
  139.9781   78.4568  222.2775 H   0  0  0  0  0  0  0  0  0  0  0  0
  141.8827   80.2787  221.7593 H   0  0  0  0  0  0  0  0  0  0  0  0
  142.3220   79.0149  220.5607 H   0  0  0  0  0  0  0  0  0  0  0  0
  140.6685   79.7166  220.5607 H   0  0  0  0  0  0  0  0  0  0  0  0
  142.0670   76.8220  221.0400 H   0  0  0  0  0  0  0  0  0  0  0  0
  139.8506   74.5212  220.4837 H   0  0  0  0  0  0  0  0  0  0  0  0
  141.5430   74.5539  221.1155 H   0  0  0  0  0  0  0  0  0  0  0  0
  139.4430   73.8300  223.0900 H   0  0  0  0  0  0  0  0  0  0  0  0
  139.2866   70.1606  221.8880 H   0  0  0  0  0  0  0  0  0  0  0  0
  138.6014   68.4839  223.6271 H   0  0  0  0  0  0  0  0  0  0  0  0
  138.6345   67.7645  225.9593 H   0  0  0  0  0  0  0  0  0  0  0  0
  139.3100   68.0835  228.3085 H   0  0  0  0  0  0  0  0  0  0  0  0
  140.6765   70.0733  228.9446 H   0  0  0  0  0  0  0  0  0  0  0  0
  141.3271   71.7021  227.1776 H   0  0  0  0  0  0  0  0  0  0  0  0
  1  2  1  0
  2  3  1  0
  2  4  1  0
  4  5  1  0
  5  6  2  0
  5  7  1  0
  7  8  1  0
  8  9  1  0
  9 10  2  0
  9 11  1  0
 11 12  2  0
 12 13  1  0
 13 14  2  0
 14 15  1  0
 15 16  2  0
 16 17  1  0
 17 18  2  0
 18 19  1  0
 19 20  2  0
 20 11  1  0
 19 14  1  0
  1 21  1  0
  1 22  1  0
  1 23  1  0
  2 24  1  0
  3 25  1  0
  3 26  1  0
  3 27  1  0
  4 28  1  0
  7 29  1  0
  7 30  1  0
  8 31  1  0
 12 32  1  0
 13 33  1  0
 15 34  1  0
 16 35  1  0
 17 36  1  0
 18 37  1  0
M  END
>  <smiles>  (39) 
CC(C)NC(=O)CNC(=O)c1ccc2ccccc2n1

>  <score_type>  (39) 
oracle

>  <origin>  (39) 
autodockgpu

>  <m_score__min__energy>  (39) 
-7.2300000000000004

>  <m_primary>  (39) 
energy

>  <rmsd>  (39) 
2.5208487986933337

>  <m_score__min__rmsd>  (39) 
2.5208487986933337

>  <meeko>  (39) 
{"free_energy": -6.74, "intermolecular_energy": -7.94, "internal_energy": -0.92, "cluster_size": 31, "cluster_id": 1, "rank_in_cluster": 25}

>  <energy>  (39) 
-6.44

>  <cluster_rmsd>  (39) 
0.21

>  <cluster>  (39) 
3

$$$$

     RDKit          3D

 37 38  0  0  0  0  0  0  0  0999 V2000
  141.8080   78.3870  223.8260 C   0  0  0  0  0  0  0  0  0  0  0  0
  140.9690   78.2240  222.5970 C   0  0  0  0  0  0  0  0  0  0  0  0
  141.3240   79.2790  221.6050 C   0  0  0  0  0  0  0  0  0  0  0  0
  141.0040   76.8900  222.0570 N   0  0  0  0  0  0  0  0  0  0  0  0
  139.7940   76.1510  221.8880 C   0  0  0  0  0  0  0  0  0  0  0  0
  138.6970   76.6710  222.2130 O   0  0  0  0  0  0  0  0  0  0  0  0
  139.9110   74.7770  221.3240 C   0  0  0  0  0  0  0  0  0  0  0  0
  139.7240   73.7810  222.3540 N   0  0  0  0  0  0  0  0  0  0  0  0
  140.5200   72.6020  222.4600 C   0  0  0  0  0  0  0  0  0  0  0  0
  141.4250   72.4390  221.6040 O   0  0  0  0  0  0  0  0  0  0  0  0
  140.2620   71.6440  223.5360 C   0  0  0  0  0  0  0  0  0  0  0  0
  139.5540   70.5070  223.2060 C   0  0  0  0  0  0  0  0  0  0  0  0
  139.3130   69.6000  224.2290 C   0  0  0  0  0  0  0  0  0  0  0  0
  139.7690   69.8480  225.5080 C   0  0  0  0  0  0  0  0  0  0  0  0
  139.5560   68.9790  226.5580 C   0  0  0  0  0  0  0  0  0  0  0  0
  140.0120   69.2240  227.8420 C   0  0  0  0  0  0  0  0  0  0  0  0
  140.7150   70.3820  228.1030 C   0  0  0  0  0  0  0  0  0  0  0  0
  140.9410   71.2700  227.0600 C   0  0  0  0  0  0  0  0  0  0  0  0
  140.4770   71.0100  225.7820 C   0  0  0  0  0  0  0  0  0  0  0  0
  140.7110   71.8960  224.7760 N   0  0  0  0  0  0  0  0  0  0  0  0
  141.1777   78.2645  224.7192 H   0  0  0  0  0  0  0  0  0  0  0  0
  142.6027   77.6265  223.8310 H   0  0  0  0  0  0  0  0  0  0  0  0
  142.2601   79.3898  223.8310 H   0  0  0  0  0  0  0  0  0  0  0  0
  139.9149   78.3652  222.8781 H   0  0  0  0  0  0  0  0  0  0  0  0
  141.6314   80.1924  222.1353 H   0  0  0  0  0  0  0  0  0  0  0  0
  142.1525   78.9250  220.9739 H   0  0  0  0  0  0  0  0  0  0  0  0
  140.4500   79.4979  220.9739 H   0  0  0  0  0  0  0  0  0  0  0  0
  141.9480   76.4990  221.8000 H   0  0  0  0  0  0  0  0  0  0  0  0
  139.1448   74.6400  220.5467 H   0  0  0  0  0  0  0  0  0  0  0  0
  140.9171   74.6565  220.8960 H   0  0  0  0  0  0  0  0  0  0  0  0
  138.9760   73.9040  223.0700 H   0  0  0  0  0  0  0  0  0  0  0  0
  139.1974   70.3276  222.1810 H   0  0  0  0  0  0  0  0  0  0  0  0
  138.7541   68.6762  224.0186 H   0  0  0  0  0  0  0  0  0  0  0  0
  138.9990   68.0500  226.3665 H   0  0  0  0  0  0  0  0  0  0  0  0
  139.8154   68.5012  228.6476 H   0  0  0  0  0  0  0  0  0  0  0  0
  141.0882   70.5970  229.1152 H   0  0  0  0  0  0  0  0  0  0  0  0
  141.4994   72.1979  227.2529 H   0  0  0  0  0  0  0  0  0  0  0  0
  1  2  1  0
  2  3  1  0
  2  4  1  0
  4  5  1  0
  5  6  2  0
  5  7  1  0
  7  8  1  0
  8  9  1  0
  9 10  2  0
  9 11  1  0
 11 12  2  0
 12 13  1  0
 13 14  2  0
 14 15  1  0
 15 16  2  0
 16 17  1  0
 17 18  2  0
 18 19  1  0
 19 20  2  0
 20 11  1  0
 19 14  1  0
  1 21  1  0
  1 22  1  0
  1 23  1  0
  2 24  1  0
  3 25  1  0
  3 26  1  0
  3 27  1  0
  4 28  1  0
  7 29  1  0
  7 30  1  0
  8 31  1  0
 12 32  1  0
 13 33  1  0
 15 34  1  0
 16 35  1  0
 17 36  1  0
 18 37  1  0
M  END
>  <smiles>  (40) 
CC(C)NC(=O)CNC(=O)c1ccc2ccccc2n1

>  <score_type>  (40) 
oracle

>  <origin>  (40) 
autodockgpu

>  <m_score__min__energy>  (40) 
-7.2300000000000004

>  <m_primary>  (40) 
energy

>  <rmsd>  (40) 
2.5835168648882267

>  <m_score__min__rmsd>  (40) 
2.5835168648882267

>  <meeko>  (40) 
{"free_energy": -7.22, "intermolecular_energy": -8.41, "internal_energy": -0.75, "cluster_size": 31, "cluster_id": 1, "rank_in_cluster": 2}

>  <energy>  (40) 
-6.38

>  <cluster_rmsd>  (40) 
0.22

>  <cluster>  (40) 
3

$$$$

     RDKit          3D

 37 38  0  0  0  0  0  0  0  0999 V2000
  144.6240   73.6600  220.4280 C   0  0  0  0  0  0  0  0  0  0  0  0
  143.5320   74.6820  220.4600 C   0  0  0  0  0  0  0  0  0  0  0  0
  143.6910   75.6220  219.3130 C   0  0  0  0  0  0  0  0  0  0  0  0
  142.2160   74.1070  220.5570 N   0  0  0  0  0  0  0  0  0  0  0  0
  141.1200   74.8940  221.0200 C   0  0  0  0  0  0  0  0  0  0  0  0
  141.3080   76.0950  221.3430 O   0  0  0  0  0  0  0  0  0  0  0  0
  139.7890   74.2290  221.0940 C   0  0  0  0  0  0  0  0  0  0  0  0
  139.6880   73.4090  222.2790 N   0  0  0  0  0  0  0  0  0  0  0  0
  140.3510   72.1550  222.4260 C   0  0  0  0  0  0  0  0  0  0  0  0
  141.0530   71.7580  221.4620 O   0  0  0  0  0  0  0  0  0  0  0  0
  140.1930   71.3880  223.6630 C   0  0  0  0  0  0  0  0  0  0  0  0
  139.5360   70.1790  223.5720 C   0  0  0  0  0  0  0  0  0  0  0  0
  139.3900   69.4560  224.7480 C   0  0  0  0  0  0  0  0  0  0  0  0
  139.8880   69.9440  225.9390 C   0  0  0  0  0  0  0  0  0  0  0  0
  139.7690   69.2640  227.1320 C   0  0  0  0  0  0  0  0  0  0  0  0
  140.2670   69.7510  228.3290 C   0  0  0  0  0  0  0  0  0  0  0  0
  140.9150   70.9690  228.3490 C   0  0  0  0  0  0  0  0  0  0  0  0
  141.0460   71.6690  227.1580 C   0  0  0  0  0  0  0  0  0  0  0  0
  140.5410   71.1680  225.9710 C   0  0  0  0  0  0  0  0  0  0  0  0
  140.6820   71.8740  224.8150 N   0  0  0  0  0  0  0  0  0  0  0  0
  144.9078   73.3943  221.4570 H   0  0  0  0  0  0  0  0  0  0  0  0
  144.2698   72.7613  219.9017 H   0  0  0  0  0  0  0  0  0  0  0  0
  145.4973   74.0728  219.9017 H   0  0  0  0  0  0  0  0  0  0  0  0
  143.6318   75.2630  221.3887 H   0  0  0  0  0  0  0  0  0  0  0  0
  143.8631   76.6395  219.6939 H   0  0  0  0  0  0  0  0  0  0  0  0
  144.5491   75.3101  218.6996 H   0  0  0  0  0  0  0  0  0  0  0  0
  142.7780   75.6097  218.6996 H   0  0  0  0  0  0  0  0  0  0  0  0
  142.1110   73.0970  220.2750 H   0  0  0  0  0  0  0  0  0  0  0  0
  139.0030   74.9981  221.1201 H   0  0  0  0  0  0  0  0  0  0  0  0
  139.6677   73.5858  220.2099 H   0  0  0  0  0  0  0  0  0  0  0  0
  139.1080   73.7270  223.0860 H   0  0  0  0  0  0  0  0  0  0  0  0
  139.1463   69.8054  222.6136 H   0  0  0  0  0  0  0  0  0  0  0  0
  138.8727   68.4854  224.7304 H   0  0  0  0  0  0  0  0  0  0  0  0
  139.2556   68.2912  227.1334 H   0  0  0  0  0  0  0  0  0  0  0  0
  140.1469   69.1715  229.2562 H   0  0  0  0  0  0  0  0  0  0  0  0
  141.3186   71.3760  229.2879 H   0  0  0  0  0  0  0  0  0  0  0  0
  141.5612   72.6409  227.1574 H   0  0  0  0  0  0  0  0  0  0  0  0
  1  2  1  0
  2  3  1  0
  2  4  1  0
  4  5  1  0
  5  6  2  0
  5  7  1  0
  7  8  1  0
  8  9  1  0
  9 10  2  0
  9 11  1  0
 11 12  2  0
 12 13  1  0
 13 14  2  0
 14 15  1  0
 15 16  2  0
 16 17  1  0
 17 18  2  0
 18 19  1  0
 19 20  2  0
 20 11  1  0
 19 14  1  0
  1 21  1  0
  1 22  1  0
  1 23  1  0
  2 24  1  0
  3 25  1  0
  3 26  1  0
  3 27  1  0
  4 28  1  0
  7 29  1  0
  7 30  1  0
  8 31  1  0
 12 32  1  0
 13 33  1  0
 15 34  1  0
 16 35  1  0
 17 36  1  0
 18 37  1  0
M  END
>  <smiles>  (41) 
CC(C)NC(=O)CNC(=O)c1ccc2ccccc2n1

>  <score_type>  (41) 
oracle

>  <origin>  (41) 
autodockgpu

>  <m_score__min__energy>  (41) 
-7.2300000000000004

>  <m_primary>  (41) 
energy

>  <rmsd>  (41) 
2.5448190625369937

>  <m_score__min__rmsd>  (41) 
2.5448190625369937

>  <meeko>  (41) 
{"free_energy": -6.52, "intermolecular_energy": -7.71, "internal_energy": -1.47, "cluster_size": 14, "cluster_id": 3, "rank_in_cluster": 1}

>  <energy>  (41) 
-6.28

>  <cluster_rmsd>  (41) 
0.41

>  <cluster>  (41) 
3

$$$$

     RDKit          3D

 37 38  0  0  0  0  0  0  0  0999 V2000
  141.8040   78.5890  223.6080 C   0  0  0  0  0  0  0  0  0  0  0  0
  141.0790   78.4190  222.3100 C   0  0  0  0  0  0  0  0  0  0  0  0
  141.5270   79.4630  221.3450 C   0  0  0  0  0  0  0  0  0  0  0  0
  141.1550   77.0790  221.7870 N   0  0  0  0  0  0  0  0  0  0  0  0
  140.0400   76.1970  221.9070 C   0  0  0  0  0  0  0  0  0  0  0  0
  138.9890   76.5940  222.4720 O   0  0  0  0  0  0  0  0  0  0  0  0
  140.1940   74.8270  221.3420 C   0  0  0  0  0  0  0  0  0  0  0  0
  139.9240   73.8230  222.3450 N   0  0  0  0  0  0  0  0  0  0  0  0
  140.6300   72.5870  222.4300 C   0  0  0  0  0  0  0  0  0  0  0  0
  141.5300   72.3780  221.5790 O   0  0  0  0  0  0  0  0  0  0  0  0
  140.2900   71.6250  223.4800 C   0  0  0  0  0  0  0  0  0  0  0  0
  139.5700   70.5120  223.1000 C   0  0  0  0  0  0  0  0  0  0  0  0
  139.2510   69.6020  224.0990 C   0  0  0  0  0  0  0  0  0  0  0  0
  139.6470   69.8230  225.4030 C   0  0  0  0  0  0  0  0  0  0  0  0
  139.3560   68.9500  226.4290 C   0  0  0  0  0  0  0  0  0  0  0  0
  139.7510   69.1690  227.7380 C   0  0  0  0  0  0  0  0  0  0  0  0
  140.4700   70.3050  228.0490 C   0  0  0  0  0  0  0  0  0  0  0  0
  140.7740   71.1960  227.0300 C   0  0  0  0  0  0  0  0  0  0  0  0
  140.3710   70.9620  225.7270 C   0  0  0  0  0  0  0  0  0  0  0  0
  140.6810   71.8510  224.7440 N   0  0  0  0  0  0  0  0  0  0  0  0
  141.1058   78.4253  224.4421 H   0  0  0  0  0  0  0  0  0  0  0  0
  142.6246   77.8589  223.6680 H   0  0  0  0  0  0  0  0  0  0  0  0
  142.2145   79.6078  223.6680 H   0  0  0  0  0  0  0  0  0  0  0  0
  140.0047   78.5681  222.4935 H   0  0  0  0  0  0  0  0  0  0  0  0
  141.9020   80.3368  221.8981 H   0  0  0  0  0  0  0  0  0  0  0  0
  142.3302   79.0571  220.7124 H   0  0  0  0  0  0  0  0  0  0  0  0
  140.6795   79.7655  220.7124 H   0  0  0  0  0  0  0  0  0  0  0  0
  142.0570   76.7950  221.3220 H   0  0  0  0  0  0  0  0  0  0  0  0
  139.4894   74.7005  220.5068 H   0  0  0  0  0  0  0  0  0  0  0  0
  141.2298   74.7052  220.9923 H   0  0  0  0  0  0  0  0  0  0  0  0
  139.1780   73.9840  223.0570 H   0  0  0  0  0  0  0  0  0  0  0  0
  139.2632   70.3528  222.0557 H   0  0  0  0  0  0  0  0  0  0  0  0
  138.6777   68.6970  223.8493 H   0  0  0  0  0  0  0  0  0  0  0  0
  138.7847   68.0389  226.1978 H   0  0  0  0  0  0  0  0  0  0  0  0
  139.4937   68.4433  228.5236 H   0  0  0  0  0  0  0  0  0  0  0  0
  140.7948   70.4997  229.0817 H   0  0  0  0  0  0  0  0  0  0  0  0
  141.3465   72.1061  227.2623 H   0  0  0  0  0  0  0  0  0  0  0  0
  1  2  1  0
  2  3  1  0
  2  4  1  0
  4  5  1  0
  5  6  2  0
  5  7  1  0
  7  8  1  0
  8  9  1  0
  9 10  2  0
  9 11  1  0
 11 12  2  0
 12 13  1  0
 13 14  2  0
 14 15  1  0
 15 16  2  0
 16 17  1  0
 17 18  2  0
 18 19  1  0
 19 20  2  0
 20 11  1  0
 19 14  1  0
  1 21  1  0
  1 22  1  0
  1 23  1  0
  2 24  1  0
  3 25  1  0
  3 26  1  0
  3 27  1  0
  4 28  1  0
  7 29  1  0
  7 30  1  0
  8 31  1  0
 12 32  1  0
 13 33  1  0
 15 34  1  0
 16 35  1  0
 17 36  1  0
 18 37  1  0
M  END
>  <smiles>  (42) 
CC(C)NC(=O)CNC(=O)c1ccc2ccccc2n1

>  <score_type>  (42) 
oracle

>  <origin>  (42) 
autodockgpu

>  <m_score__min__energy>  (42) 
-7.2300000000000004

>  <m_primary>  (42) 
energy

>  <rmsd>  (42) 
2.5712027677649494

>  <m_score__min__rmsd>  (42) 
2.5712027677649494

>  <meeko>  (42) 
{"free_energy": -7.09, "intermolecular_energy": -8.28, "internal_energy": -0.81, "cluster_size": 31, "cluster_id": 1, "rank_in_cluster": 17}

>  <energy>  (42) 
-6.27

>  <cluster_rmsd>  (42) 
0.44

>  <cluster>  (42) 
3

$$$$

     RDKit          3D

 37 38  0  0  0  0  0  0  0  0999 V2000
  141.0200   71.5390  226.9520 C   0  0  0  0  0  0  0  0  0  0  0  0
  141.3750   70.5760  225.8630 C   0  0  0  0  0  0  0  0  0  0  0  0
  141.0870   69.1840  226.3120 C   0  0  0  0  0  0  0  0  0  0  0  0
  140.7820   70.9080  224.5940 N   0  0  0  0  0  0  0  0  0  0  0  0
  139.3740   70.7810  224.4030 C   0  0  0  0  0  0  0  0  0  0  0  0
  138.6510   70.3780  225.3490 O   0  0  0  0  0  0  0  0  0  0  0  0
  138.8350   71.1430  223.0620 C   0  0  0  0  0  0  0  0  0  0  0  0
  139.2670   72.4660  222.6730 N   0  0  0  0  0  0  0  0  0  0  0  0
  140.4970   72.7250  222.0010 C   0  0  0  0  0  0  0  0  0  0  0  0
  141.2320   71.7380  221.7420 O   0  0  0  0  0  0  0  0  0  0  0  0
  140.8570   74.0990  221.6450 C   0  0  0  0  0  0  0  0  0  0  0  0
  141.8510   74.2620  220.7020 C   0  0  0  0  0  0  0  0  0  0  0  0
  142.1870   75.5660  220.3660 C   0  0  0  0  0  0  0  0  0  0  0  0
  141.5430   76.6320  220.9620 C   0  0  0  0  0  0  0  0  0  0  0  0
  141.8400   77.9450  220.6620 C   0  0  0  0  0  0  0  0  0  0  0  0
  141.1970   79.0170  221.2570 C   0  0  0  0  0  0  0  0  0  0  0  0
  140.2100   78.7820  222.1930 C   0  0  0  0  0  0  0  0  0  0  0  0
  139.8960   77.4680  222.5080 C   0  0  0  0  0  0  0  0  0  0  0  0
  140.5490   76.4080  221.9040 C   0  0  0  0  0  0  0  0  0  0  0  0
  140.2230   75.1270  222.2300 N   0  0  0  0  0  0  0  0  0  0  0  0
  141.1941   71.0668  227.9301 H   0  0  0  0  0  0  0  0  0  0  0  0
  141.6452   72.4397  226.8632 H   0  0  0  0  0  0  0  0  0  0  0  0
  139.9598   71.8184  226.8632 H   0  0  0  0  0  0  0  0  0  0  0  0
  142.4559   70.6525  225.6739 H   0  0  0  0  0  0  0  0  0  0  0  0
  141.0795   69.1475  227.4114 H   0  0  0  0  0  0  0  0  0  0  0  0
  140.1050   68.8706  225.9280 H   0  0  0  0  0  0  0  0  0  0  0  0
  141.8640   68.5067  225.9280 H   0  0  0  0  0  0  0  0  0  0  0  0
  141.4310   71.2410  223.8330 H   0  0  0  0  0  0  0  0  0  0  0  0
  139.1944   70.4142  222.3206 H   0  0  0  0  0  0  0  0  0  0  0  0
  137.7361   71.1319  223.1100 H   0  0  0  0  0  0  0  0  0  0  0  0
  138.6670   73.2930  222.8830 H   0  0  0  0  0  0  0  0  0  0  0  0
  142.3530   73.3998  220.2388 H   0  0  0  0  0  0  0  0  0  0  0  0
  142.9727   75.7517  219.6189 H   0  0  0  0  0  0  0  0  0  0  0  0
  142.6227   78.1496  219.9167 H   0  0  0  0  0  0  0  0  0  0  0  0
  141.4704   80.0475  220.9861 H   0  0  0  0  0  0  0  0  0  0  0  0
  139.6844   79.6177  222.6781 H   0  0  0  0  0  0  0  0  0  0  0  0
  139.1124   77.2647  223.2527 H   0  0  0  0  0  0  0  0  0  0  0  0
  1  2  1  0
  2  3  1  0
  2  4  1  0
  4  5  1  0
  5  6  2  0
  5  7  1  0
  7  8  1  0
  8  9  1  0
  9 10  2  0
  9 11  1  0
 11 12  2  0
 12 13  1  0
 13 14  2  0
 14 15  1  0
 15 16  2  0
 16 17  1  0
 17 18  2  0
 18 19  1  0
 19 20  2  0
 20 11  1  0
 19 14  1  0
  1 21  1  0
  1 22  1  0
  1 23  1  0
  2 24  1  0
  3 25  1  0
  3 26  1  0
  3 27  1  0
  4 28  1  0
  7 29  1  0
  7 30  1  0
  8 31  1  0
 12 32  1  0
 13 33  1  0
 15 34  1  0
 16 35  1  0
 17 36  1  0
 18 37  1  0
M  END
>  <smiles>  (43) 
CC(C)NC(=O)CNC(=O)c1ccc2ccccc2n1

>  <score_type>  (43) 
oracle

>  <origin>  (43) 
autodockgpu

>  <m_score__min__energy>  (43) 
-7.2300000000000004

>  <m_primary>  (43) 
energy

>  <rmsd>  (43) 
7.834186920653624

>  <m_score__min__rmsd>  (43) 
7.834186920653624

>  <meeko>  (43) 
{"free_energy": -5.64, "intermolecular_energy": -6.83, "internal_energy": -1.7, "cluster_size": 1, "cluster_id": 5, "rank_in_cluster": 1}

>  <energy>  (43) 
-6.2

>  <cluster_rmsd>  (43) 
0.56

>  <cluster>  (43) 
3

$$$$

     RDKit          3D

 37 38  0  0  0  0  0  0  0  0999 V2000
  144.5390   73.5980  220.5270 C   0  0  0  0  0  0  0  0  0  0  0  0
  143.4720   74.5890  220.1800 C   0  0  0  0  0  0  0  0  0  0  0  0
  143.7090   75.1180  218.8060 C   0  0  0  0  0  0  0  0  0  0  0  0
  142.1390   74.0850  220.3820 N   0  0  0  0  0  0  0  0  0  0  0  0
  141.1470   74.9040  220.9990 C   0  0  0  0  0  0  0  0  0  0  0  0
  141.4420   76.0700  221.3660 O   0  0  0  0  0  0  0  0  0  0  0  0
  139.7910   74.3120  221.1760 C   0  0  0  0  0  0  0  0  0  0  0  0
  139.7440   73.4760  222.3520 N   0  0  0  0  0  0  0  0  0  0  0  0
  140.3170   72.1710  222.4120 C   0  0  0  0  0  0  0  0  0  0  0  0
  140.8880   71.7440  221.3780 O   0  0  0  0  0  0  0  0  0  0  0  0
  140.2220   71.3910  223.6470 C   0  0  0  0  0  0  0  0  0  0  0  0
  139.6540   70.1380  223.5550 C   0  0  0  0  0  0  0  0  0  0  0  0
  139.5680   69.4000  224.7280 C   0  0  0  0  0  0  0  0  0  0  0  0
  140.0350   69.9190  225.9180 C   0  0  0  0  0  0  0  0  0  0  0  0
  139.9730   69.2270  227.1090 C   0  0  0  0  0  0  0  0  0  0  0  0
  140.4410   69.7440  228.3050 C   0  0  0  0  0  0  0  0  0  0  0  0
  140.9990   71.0060  228.3270 C   0  0  0  0  0  0  0  0  0  0  0  0
  141.0720   71.7180  227.1390 C   0  0  0  0  0  0  0  0  0  0  0  0
  140.5990   71.1870  225.9520 C   0  0  0  0  0  0  0  0  0  0  0  0
  140.6810   71.9060  224.7990 N   0  0  0  0  0  0  0  0  0  0  0  0
  144.6242   73.5189  221.6208 H   0  0  0  0  0  0  0  0  0  0  0  0
  144.2772   72.6154  220.1076 H   0  0  0  0  0  0  0  0  0  0  0  0
  145.4996   73.9316  220.1076 H   0  0  0  0  0  0  0  0  0  0  0  0
  143.5417   75.4315  220.8838 H   0  0  0  0  0  0  0  0  0  0  0  0
  144.1579   76.1201  218.8713 H   0  0  0  0  0  0  0  0  0  0  0  0
  144.3916   74.4448  218.2666 H   0  0  0  0  0  0  0  0  0  0  0  0
  142.7523   75.1793  218.2666 H   0  0  0  0  0  0  0  0  0  0  0  0
  141.9420   73.1020  220.0580 H   0  0  0  0  0  0  0  0  0  0  0  0
  139.0549   75.1226  221.2806 H   0  0  0  0  0  0  0  0  0  0  0  0
  139.5593   73.6942  220.2958 H   0  0  0  0  0  0  0  0  0  0  0  0
  139.2720   73.8170  223.2180 H   0  0  0  0  0  0  0  0  0  0  0  0
  139.2862   69.7416  222.5971 H   0  0  0  0  0  0  0  0  0  0  0  0
  139.1241   68.3937  224.7084 H   0  0  0  0  0  0  0  0  0  0  0  0
  139.5321   68.2192  227.1089 H   0  0  0  0  0  0  0  0  0  0  0  0
  140.3686   69.1536  229.2303 H   0  0  0  0  0  0  0  0  0  0  0  0
  141.3773   71.4374  229.2655 H   0  0  0  0  0  0  0  0  0  0  0  0
  141.5148   72.7250  227.1404 H   0  0  0  0  0  0  0  0  0  0  0  0
  1  2  1  0
  2  3  1  0
  2  4  1  0
  4  5  1  0
  5  6  2  0
  5  7  1  0
  7  8  1  0
  8  9  1  0
  9 10  2  0
  9 11  1  0
 11 12  2  0
 12 13  1  0
 13 14  2  0
 14 15  1  0
 15 16  2  0
 16 17  1  0
 17 18  2  0
 18 19  1  0
 19 20  2  0
 20 11  1  0
 19 14  1  0
  1 21  1  0
  1 22  1  0
  1 23  1  0
  2 24  1  0
  3 25  1  0
  3 26  1  0
  3 27  1  0
  4 28  1  0
  7 29  1  0
  7 30  1  0
  8 31  1  0
 12 32  1  0
 13 33  1  0
 15 34  1  0
 16 35  1  0
 17 36  1  0
 18 37  1  0
M  END
>  <smiles>  (44) 
CC(C)NC(=O)CNC(=O)c1ccc2ccccc2n1

>  <score_type>  (44) 
oracle

>  <origin>  (44) 
autodockgpu

>  <m_score__min__energy>  (44) 
-7.2300000000000004

>  <m_primary>  (44) 
energy

>  <rmsd>  (44) 
2.5550311707944573

>  <m_score__min__rmsd>  (44) 
2.5550311707944573

>  <meeko>  (44) 
{"free_energy": -6.38, "intermolecular_energy": -7.57, "internal_energy": -1.52, "cluster_size": 14, "cluster_id": 3, "rank_in_cluster": 7}

>  <energy>  (44) 
-6.12

>  <cluster_rmsd>  (44) 
0.62

>  <cluster>  (44) 
3

$$$$

     RDKit          3D

 37 38  0  0  0  0  0  0  0  0999 V2000
  140.8300   77.7390  220.6240 C   0  0  0  0  0  0  0  0  0  0  0  0
  141.1590   76.6400  219.6630 C   0  0  0  0  0  0  0  0  0  0  0  0
  142.6110   76.3100  219.7570 C   0  0  0  0  0  0  0  0  0  0  0  0
  140.2970   75.4950  219.7910 N   0  0  0  0  0  0  0  0  0  0  0  0
  140.1350   74.8540  221.0560 C   0  0  0  0  0  0  0  0  0  0  0  0
  140.7490   75.2950  222.0600 O   0  0  0  0  0  0  0  0  0  0  0  0
  139.2270   73.6740  221.1080 C   0  0  0  0  0  0  0  0  0  0  0  0
  139.4230   72.9280  222.3290 N   0  0  0  0  0  0  0  0  0  0  0  0
  139.3520   71.5050  222.4000 C   0  0  0  0  0  0  0  0  0  0  0  0
  139.1050   70.8860  221.3350 O   0  0  0  0  0  0  0  0  0  0  0  0
  139.5640   70.8290  223.6820 C   0  0  0  0  0  0  0  0  0  0  0  0
  139.1970   69.5020  223.7580 C   0  0  0  0  0  0  0  0  0  0  0  0
  139.4010   68.8650  224.9750 C   0  0  0  0  0  0  0  0  0  0  0  0
  139.9460   69.5490  226.0420 C   0  0  0  0  0  0  0  0  0  0  0  0
  140.1690   68.9620  227.2700 C   0  0  0  0  0  0  0  0  0  0  0  0
  140.7150   69.6440  228.3430 C   0  0  0  0  0  0  0  0  0  0  0  0
  141.0600   70.9720  228.1980 C   0  0  0  0  0  0  0  0  0  0  0  0
  140.8450   71.5820  226.9700 C   0  0  0  0  0  0  0  0  0  0  0  0
  140.2970   70.8850  225.9080 C   0  0  0  0  0  0  0  0  0  0  0  0
  140.0950   71.5050  224.7130 N   0  0  0  0  0  0  0  0  0  0  0  0
  140.9404   77.3703  221.6545 H   0  0  0  0  0  0  0  0  0  0  0  0
  141.5143   78.5848  220.4619 H   0  0  0  0  0  0  0  0  0  0  0  0
  139.7935   78.0697  220.4619 H   0  0  0  0  0  0  0  0  0  0  0  0
  140.9609   77.0027  218.6436 H   0  0  0  0  0  0  0  0  0  0  0  0
  142.9041   76.2434  220.8151 H   0  0  0  0  0  0  0  0  0  0  0  0
  142.8006   75.3458  219.2626 H   0  0  0  0  0  0  0  0  0  0  0  0
  143.1987   77.0975  219.2626 H   0  0  0  0  0  0  0  0  0  0  0  0
  139.8050   75.1640  218.9200 H   0  0  0  0  0  0  0  0  0  0  0  0
  138.1838   74.0196  221.0603 H   0  0  0  0  0  0  0  0  0  0  0  0
  139.4531   73.0180  220.2545 H   0  0  0  0  0  0  0  0  0  0  0  0
  139.6280   73.4300  223.2210 H   0  0  0  0  0  0  0  0  0  0  0  0
  138.7636   68.9735  222.8962 H   0  0  0  0  0  0  0  0  0  0  0  0
  139.1257   67.8061  225.0892 H   0  0  0  0  0  0  0  0  0  0  0  0
  139.9006   67.9035  227.4024 H   0  0  0  0  0  0  0  0  0  0  0  0
  140.8727   69.1317  229.3036 H   0  0  0  0  0  0  0  0  0  0  0  0
  141.4957   71.5347  229.0368 H   0  0  0  0  0  0  0  0  0  0  0  0
  141.1156   72.6401  226.8386 H   0  0  0  0  0  0  0  0  0  0  0  0
  1  2  1  0
  2  3  1  0
  2  4  1  0
  4  5  1  0
  5  6  2  0
  5  7  1  0
  7  8  1  0
  8  9  1  0
  9 10  2  0
  9 11  1  0
 11 12  2  0
 12 13  1  0
 13 14  2  0
 14 15  1  0
 15 16  2  0
 16 17  1  0
 17 18  2  0
 18 19  1  0
 19 20  2  0
 20 11  1  0
 19 14  1  0
  1 21  1  0
  1 22  1  0
  1 23  1  0
  2 24  1  0
  3 25  1  0
  3 26  1  0
  3 27  1  0
  4 28  1  0
  7 29  1  0
  7 30  1  0
  8 31  1  0
 12 32  1  0
 13 33  1  0
 15 34  1  0
 16 35  1  0
 17 36  1  0
 18 37  1  0
M  END
>  <smiles>  (45) 
CC(C)NC(=O)CNC(=O)c1ccc2ccccc2n1

>  <score_type>  (45) 
oracle

>  <origin>  (45) 
autodockgpu

>  <m_score__min__energy>  (45) 
-7.2300000000000004

>  <m_primary>  (45) 
energy

>  <rmsd>  (45) 
1.3394614450532338

>  <m_score__min__rmsd>  (45) 
1.3394614450532338

>  <meeko>  (45) 
{"free_energy": -6.13, "intermolecular_energy": -7.32, "internal_energy": -1.21, "cluster_size": 31, "cluster_id": 1, "rank_in_cluster": 30}

>  <energy>  (45) 
-6.09

>  <cluster_rmsd>  (45) 
0.57

>  <cluster>  (45) 
3

$$$$

     RDKit          3D

 37 38  0  0  0  0  0  0  0  0999 V2000
  145.9670   73.2550  221.5340 C   0  0  0  0  0  0  0  0  0  0  0  0
  145.2380   73.8780  220.3860 C   0  0  0  0  0  0  0  0  0  0  0  0
  145.4050   73.0340  219.1680 C   0  0  0  0  0  0  0  0  0  0  0  0
  143.8650   74.1930  220.6860 N   0  0  0  0  0  0  0  0  0  0  0  0
  142.9010   73.1500  220.8210 C   0  0  0  0  0  0  0  0  0  0  0  0
  143.2560   71.9520  220.6770 O   0  0  0  0  0  0  0  0  0  0  0  0
  141.5020   73.5540  221.1310 C   0  0  0  0  0  0  0  0  0  0  0  0
  141.4510   74.9250  221.5840 N   0  0  0  0  0  0  0  0  0  0  0  0
  140.2440   75.5810  221.9690 C   0  0  0  0  0  0  0  0  0  0  0  0
  139.1800   74.9160  221.9030 O   0  0  0  0  0  0  0  0  0  0  0  0
  140.2840   76.9750  222.4150 C   0  0  0  0  0  0  0  0  0  0  0  0
  139.0740   77.5910  222.6560 C   0  0  0  0  0  0  0  0  0  0  0  0
  139.1170   78.9120  223.0810 C   0  0  0  0  0  0  0  0  0  0  0  0
  140.3260   79.5570  223.2460 C   0  0  0  0  0  0  0  0  0  0  0  0
  140.4220   80.8670  223.6660 C   0  0  0  0  0  0  0  0  0  0  0  0
  141.6320   81.5170  223.8330 C   0  0  0  0  0  0  0  0  0  0  0  0
  142.8070   80.8410  223.5740 C   0  0  0  0  0  0  0  0  0  0  0  0
  142.7330   79.5210  223.1510 C   0  0  0  0  0  0  0  0  0  0  0  0
  141.5140   78.8870  222.9890 C   0  0  0  0  0  0  0  0  0  0  0  0
  141.4660   77.5910  222.5730 N   0  0  0  0  0  0  0  0  0  0  0  0
  145.5406   73.6194  222.4803 H   0  0  0  0  0  0  0  0  0  0  0  0
  145.8647   72.1610  221.4830 H   0  0  0  0  0  0  0  0  0  0  0  0
  147.0317   73.5265  221.4830 H   0  0  0  0  0  0  0  0  0  0  0  0
  145.6925   74.8587  220.1819 H   0  0  0  0  0  0  0  0  0  0  0  0
  145.6105   71.9955  219.4669 H   0  0  0  0  0  0  0  0  0  0  0  0
  144.4828   73.0676  218.5693 H   0  0  0  0  0  0  0  0  0  0  0  0
  146.2449   73.4163  218.5693 H   0  0  0  0  0  0  0  0  0  0  0  0
  143.6190   75.2120  220.7970 H   0  0  0  0  0  0  0  0  0  0  0  0
  140.8878   73.4510  220.2243 H   0  0  0  0  0  0  0  0  0  0  0  0
  141.1170   72.9044  221.9309 H   0  0  0  0  0  0  0  0  0  0  0  0
  142.3270   75.4890  221.6420 H   0  0  0  0  0  0  0  0  0  0  0  0
  138.1201   77.0609  222.5181 H   0  0  0  0  0  0  0  0  0  0  0  0
  138.1796   79.4491  223.2879 H   0  0  0  0  0  0  0  0  0  0  0  0
  139.4950   81.4200  223.8778 H   0  0  0  0  0  0  0  0  0  0  0  0
  141.6572   82.5640  224.1694 H   0  0  0  0  0  0  0  0  0  0  0  0
  143.7806   81.3372  223.7000 H   0  0  0  0  0  0  0  0  0  0  0  0
  143.6608   78.9688  222.9407 H   0  0  0  0  0  0  0  0  0  0  0  0
  1  2  1  0
  2  3  1  0
  2  4  1  0
  4  5  1  0
  5  6  2  0
  5  7  1  0
  7  8  1  0
  8  9  1  0
  9 10  2  0
  9 11  1  0
 11 12  2  0
 12 13  1  0
 13 14  2  0
 14 15  1  0
 15 16  2  0
 16 17  1  0
 17 18  2  0
 18 19  1  0
 19 20  2  0
 20 11  1  0
 19 14  1  0
  1 21  1  0
  1 22  1  0
  1 23  1  0
  2 24  1  0
  3 25  1  0
  3 26  1  0
  3 27  1  0
  4 28  1  0
  7 29  1  0
  7 30  1  0
  8 31  1  0
 12 32  1  0
 13 33  1  0
 15 34  1  0
 16 35  1  0
 17 36  1  0
 18 37  1  0
M  END
>  <smiles>  (46) 
CC(C)NC(=O)CNC(=O)c1ccc2ccccc2n1

>  <score_type>  (46) 
oracle

>  <origin>  (46) 
autodockgpu

>  <m_score__min__energy>  (46) 
-7.2300000000000004

>  <m_primary>  (46) 
energy

>  <rmsd>  (46) 
8.117550510912992

>  <m_score__min__rmsd>  (46) 
8.117550510912992

>  <meeko>  (46) 
{"free_energy": -6.52, "intermolecular_energy": -7.71, "internal_energy": -1.0, "cluster_size": 2, "cluster_id": 2, "rank_in_cluster": 2}

>  <energy>  (46) 
-6.07

>  <cluster_rmsd>  (46) 
0.6

>  <cluster>  (46) 
3

$$$$

     RDKit          3D

 37 38  0  0  0  0  0  0  0  0999 V2000
  141.7130   78.4970  223.5280 C   0  0  0  0  0  0  0  0  0  0  0  0
  140.8210   78.0620  222.4070 C   0  0  0  0  0  0  0  0  0  0  0  0
  140.9450   79.0180  221.2690 C   0  0  0  0  0  0  0  0  0  0  0  0
  141.0120   76.6860  222.0290 N   0  0  0  0  0  0  0  0  0  0  0  0
  139.9060   75.9050  221.5780 C   0  0  0  0  0  0  0  0  0  0  0  0
  138.7630   76.4240  221.5110 O   0  0  0  0  0  0  0  0  0  0  0  0
  140.1820   74.4890  221.2050 C   0  0  0  0  0  0  0  0  0  0  0  0
  139.9630   73.6090  222.3300 N   0  0  0  0  0  0  0  0  0  0  0  0
  140.5500   72.3140  222.4400 C   0  0  0  0  0  0  0  0  0  0  0  0
  141.2930   71.9360  221.5000 O   0  0  0  0  0  0  0  0  0  0  0  0
  140.2730   71.4880  223.6160 C   0  0  0  0  0  0  0  0  0  0  0  0
  139.5780   70.3150  223.4080 C   0  0  0  0  0  0  0  0  0  0  0  0
  139.3190   69.5330  224.5260 C   0  0  0  0  0  0  0  0  0  0  0  0
  139.7480   69.9330  225.7760 C   0  0  0  0  0  0  0  0  0  0  0  0
  139.5160   69.1920  226.9160 C   0  0  0  0  0  0  0  0  0  0  0  0
  139.9440   69.5900  228.1710 C   0  0  0  0  0  0  0  0  0  0  0  0
  140.6360   70.7760  228.3080 C   0  0  0  0  0  0  0  0  0  0  0  0
  140.8800   71.5350  227.1730 C   0  0  0  0  0  0  0  0  0  0  0  0
  140.4440   71.1240  225.9260 C   0  0  0  0  0  0  0  0  0  0  0  0
  140.6950   71.8870  224.8260 N   0  0  0  0  0  0  0  0  0  0  0  0
  141.2335   78.2632  224.4900 H   0  0  0  0  0  0  0  0  0  0  0  0
  142.6741   77.9665  223.4588 H   0  0  0  0  0  0  0  0  0  0  0  0
  141.8867   79.5810  223.4588 H   0  0  0  0  0  0  0  0  0  0  0  0
  139.7803   78.0930  222.7620 H   0  0  0  0  0  0  0  0  0  0  0  0
  141.0773   80.0378  221.6596 H   0  0  0  0  0  0  0  0  0  0  0  0
  141.8153   78.7451  220.6540 H   0  0  0  0  0  0  0  0  0  0  0  0
  140.0339   78.9762  220.6540 H   0  0  0  0  0  0  0  0  0  0  0  0
  141.9880   76.2980  222.1030 H   0  0  0  0  0  0  0  0  0  0  0  0
  139.5129   74.1959  220.3825 H   0  0  0  0  0  0  0  0  0  0  0  0
  141.2333   74.4057  220.8922 H   0  0  0  0  0  0  0  0  0  0  0  0
  139.3480   73.9110  223.1170 H   0  0  0  0  0  0  0  0  0  0  0  0
  139.2447   70.0132  222.4041 H   0  0  0  0  0  0  0  0  0  0  0  0
  138.7678   68.5876  224.4149 H   0  0  0  0  0  0  0  0  0  0  0  0
  138.9669   68.2433  226.8239 H   0  0  0  0  0  0  0  0  0  0  0  0
  139.7341   68.9657  229.0520 H   0  0  0  0  0  0  0  0  0  0  0  0
  140.9862   71.1119  229.2952 H   0  0  0  0  0  0  0  0  0  0  0  0
  141.4311   72.4824  227.2662 H   0  0  0  0  0  0  0  0  0  0  0  0
  1  2  1  0
  2  3  1  0
  2  4  1  0
  4  5  1  0
  5  6  2  0
  5  7  1  0
  7  8  1  0
  8  9  1  0
  9 10  2  0
  9 11  1  0
 11 12  2  0
 12 13  1  0
 13 14  2  0
 14 15  1  0
 15 16  2  0
 16 17  1  0
 17 18  2  0
 18 19  1  0
 19 20  2  0
 20 11  1  0
 19 14  1  0
  1 21  1  0
  1 22  1  0
  1 23  1  0
  2 24  1  0
  3 25  1  0
  3 26  1  0
  3 27  1  0
  4 28  1  0
  7 29  1  0
  7 30  1  0
  8 31  1  0
 12 32  1  0
 13 33  1  0
 15 34  1  0
 16 35  1  0
 17 36  1  0
 18 37  1  0
M  END
>  <smiles>  (47) 
CC(C)NC(=O)CNC(=O)c1ccc2ccccc2n1

>  <score_type>  (47) 
oracle

>  <origin>  (47) 
autodockgpu

>  <m_score__min__energy>  (47) 
-7.2300000000000004

>  <m_primary>  (47) 
energy

>  <rmsd>  (47) 
2.478643963447214

>  <m_score__min__rmsd>  (47) 
2.478643963447214

>  <meeko>  (47) 
{"free_energy": -7.17, "intermolecular_energy": -8.36, "internal_energy": -0.74, "cluster_size": 31, "cluster_id": 1, "rank_in_cluster": 7}

>  <energy>  (47) 
-6.03

>  <cluster_rmsd>  (47) 
0.62

>  <cluster>  (47) 
3

$$$$

     RDKit          3D

 37 38  0  0  0  0  0  0  0  0999 V2000
  144.5040   73.4950  220.8090 C   0  0  0  0  0  0  0  0  0  0  0  0
  143.5130   74.2430  219.9730 C   0  0  0  0  0  0  0  0  0  0  0  0
  143.9180   74.1790  218.5390 C   0  0  0  0  0  0  0  0  0  0  0  0
  142.1510   73.8380  220.2070 N   0  0  0  0  0  0  0  0  0  0  0  0
  141.2520   74.7030  220.8990 C   0  0  0  0  0  0  0  0  0  0  0  0
  141.6550   75.8230  221.3060 O   0  0  0  0  0  0  0  0  0  0  0  0
  139.8600   74.2140  221.1030 C   0  0  0  0  0  0  0  0  0  0  0  0
  139.7700   73.3990  222.2920 N   0  0  0  0  0  0  0  0  0  0  0  0
  140.3570   72.1050  222.4040 C   0  0  0  0  0  0  0  0  0  0  0  0
  140.9820   71.6670  221.4060 O   0  0  0  0  0  0  0  0  0  0  0  0
  140.2160   71.3460  223.6490 C   0  0  0  0  0  0  0  0  0  0  0  0
  139.5700   70.1310  223.5720 C   0  0  0  0  0  0  0  0  0  0  0  0
  139.4400   69.4140  224.7540 C   0  0  0  0  0  0  0  0  0  0  0  0
  139.9420   69.9160  225.9370 C   0  0  0  0  0  0  0  0  0  0  0  0
  139.8380   69.2440  227.1360 C   0  0  0  0  0  0  0  0  0  0  0  0
  140.3400   69.7440  228.3260 C   0  0  0  0  0  0  0  0  0  0  0  0
  140.9770   70.9690  228.3320 C   0  0  0  0  0  0  0  0  0  0  0  0
  141.0920   71.6610  227.1350 C   0  0  0  0  0  0  0  0  0  0  0  0
  140.5840   71.1470  225.9550 C   0  0  0  0  0  0  0  0  0  0  0  0
  140.7090   71.8450  224.7940 N   0  0  0  0  0  0  0  0  0  0  0  0
  144.2844   73.6607  221.8741 H   0  0  0  0  0  0  0  0  0  0  0  0
  144.4368   72.4204  220.5837 H   0  0  0  0  0  0  0  0  0  0  0  0
  145.5190   73.8542  220.5837 H   0  0  0  0  0  0  0  0  0  0  0  0
  143.5286   75.2988  220.2812 H   0  0  0  0  0  0  0  0  0  0  0  0
  145.0025   74.0076  218.4716 H   0  0  0  0  0  0  0  0  0  0  0  0
  143.3849   73.3539  218.0439 H   0  0  0  0  0  0  0  0  0  0  0  0
  143.6653   75.1282  218.0439 H   0  0  0  0  0  0  0  0  0  0  0  0
  141.8620   72.8910  219.8460 H   0  0  0  0  0  0  0  0  0  0  0  0
  139.1863   75.0774  221.2061 H   0  0  0  0  0  0  0  0  0  0  0  0
  139.5709   73.6032  220.2351 H   0  0  0  0  0  0  0  0  0  0  0  0
  139.2530   73.7510  223.1290 H   0  0  0  0  0  0  0  0  0  0  0  0
  139.1761   69.7474  222.6193 H   0  0  0  0  0  0  0  0  0  0  0  0
  138.9327   68.4380  224.7471 H   0  0  0  0  0  0  0  0  0  0  0  0
  139.3336   68.2666  227.1482 H   0  0  0  0  0  0  0  0  0  0  0  0
  140.2322   69.1702  229.2583 H   0  0  0  0  0  0  0  0  0  0  0  0
  141.3841   71.3868  229.2646 H   0  0  0  0  0  0  0  0  0  0  0  0
  141.5972   72.6380  227.1238 H   0  0  0  0  0  0  0  0  0  0  0  0
  1  2  1  0
  2  3  1  0
  2  4  1  0
  4  5  1  0
  5  6  2  0
  5  7  1  0
  7  8  1  0
  8  9  1  0
  9 10  2  0
  9 11  1  0
 11 12  2  0
 12 13  1  0
 13 14  2  0
 14 15  1  0
 15 16  2  0
 16 17  1  0
 17 18  2  0
 18 19  1  0
 19 20  2  0
 20 11  1  0
 19 14  1  0
  1 21  1  0
  1 22  1  0
  1 23  1  0
  2 24  1  0
  3 25  1  0
  3 26  1  0
  3 27  1  0
  4 28  1  0
  7 29  1  0
  7 30  1  0
  8 31  1  0
 12 32  1  0
 13 33  1  0
 15 34  1  0
 16 35  1  0
 17 36  1  0
 18 37  1  0
M  END
>  <smiles>  (48) 
CC(C)NC(=O)CNC(=O)c1ccc2ccccc2n1

>  <score_type>  (48) 
oracle

>  <origin>  (48) 
autodockgpu

>  <m_score__min__energy>  (48) 
-7.2300000000000004

>  <m_primary>  (48) 
energy

>  <rmsd>  (48) 
2.6452282365096194

>  <m_score__min__rmsd>  (48) 
2.6452282365096194

>  <meeko>  (48) 
{"free_energy": -6.27, "intermolecular_energy": -7.46, "internal_energy": -1.5, "cluster_size": 14, "cluster_id": 3, "rank_in_cluster": 9}

>  <energy>  (48) 
-5.81

>  <cluster_rmsd>  (48) 
0.0

>  <cluster>  (48) 
4

$$$$

     RDKit          3D

 37 38  0  0  0  0  0  0  0  0999 V2000
  144.4810   73.5920  220.8460 C   0  0  0  0  0  0  0  0  0  0  0  0
  143.5060   73.8860  219.7490 C   0  0  0  0  0  0  0  0  0  0  0  0
  143.9500   73.2170  218.4930 C   0  0  0  0  0  0  0  0  0  0  0  0
  142.1420   73.5960  220.1070 N   0  0  0  0  0  0  0  0  0  0  0  0
  141.3370   74.5910  220.7370 C   0  0  0  0  0  0  0  0  0  0  0  0
  141.8240   75.7240  220.9800 O   0  0  0  0  0  0  0  0  0  0  0  0
  139.9360   74.2160  221.0770 C   0  0  0  0  0  0  0  0  0  0  0  0
  139.8930   73.4300  222.2890 N   0  0  0  0  0  0  0  0  0  0  0  0
  140.2630   72.0540  222.3460 C   0  0  0  0  0  0  0  0  0  0  0  0
  140.6410   71.5140  221.2770 O   0  0  0  0  0  0  0  0  0  0  0  0
  140.1880   71.3320  223.6180 C   0  0  0  0  0  0  0  0  0  0  0  0
  139.6190   70.0770  223.5940 C   0  0  0  0  0  0  0  0  0  0  0  0
  139.5530   69.3960  224.8020 C   0  0  0  0  0  0  0  0  0  0  0  0
  140.0400   69.9700  225.9590 C   0  0  0  0  0  0  0  0  0  0  0  0
  139.9980   69.3350  227.1820 C   0  0  0  0  0  0  0  0  0  0  0  0
  140.4850   69.9080  228.3440 C   0  0  0  0  0  0  0  0  0  0  0  0
  141.0430   71.1690  228.2980 C   0  0  0  0  0  0  0  0  0  0  0  0
  141.0960   71.8250  227.0750 C   0  0  0  0  0  0  0  0  0  0  0  0
  140.6040   71.2380  225.9230 C   0  0  0  0  0  0  0  0  0  0  0  0
  140.6660   71.9010  224.7360 N   0  0  0  0  0  0  0  0  0  0  0  0
  143.9921   73.7394  221.8203 H   0  0  0  0  0  0  0  0  0  0  0  0
  144.8244   72.5504  220.7619 H   0  0  0  0  0  0  0  0  0  0  0  0
  145.3430   74.2702  220.7619 H   0  0  0  0  0  0  0  0  0  0  0  0
  143.5037   74.9715  219.5708 H   0  0  0  0  0  0  0  0  0  0  0  0
  144.5424   72.3244  218.7427 H   0  0  0  0  0  0  0  0  0  0  0  0
  143.0693   72.9198  217.9048 H   0  0  0  0  0  0  0  0  0  0  0  0
  144.5659   73.9131  217.9048 H   0  0  0  0  0  0  0  0  0  0  0  0
  141.7810   72.6320  219.8830 H   0  0  0  0  0  0  0  0  0  0  0  0
  139.3426   75.1312  221.2198 H   0  0  0  0  0  0  0  0  0  0  0  0
  139.5228   73.6153  220.2533 H   0  0  0  0  0  0  0  0  0  0  0  0
  139.5790   73.8660  223.1840 H   0  0  0  0  0  0  0  0  0  0  0  0
  139.2354   69.6359  222.6621 H   0  0  0  0  0  0  0  0  0  0  0  0
  139.1088   68.3903  224.8374 H   0  0  0  0  0  0  0  0  0  0  0  0
  139.5580   68.3283  227.2367 H   0  0  0  0  0  0  0  0  0  0  0  0
  140.4276   69.3620  229.2972 H   0  0  0  0  0  0  0  0  0  0  0  0
  141.4367   71.6437  229.2088 H   0  0  0  0  0  0  0  0  0  0  0  0
  141.5378   72.8309  227.0213 H   0  0  0  0  0  0  0  0  0  0  0  0
  1  2  1  0
  2  3  1  0
  2  4  1  0
  4  5  1  0
  5  6  2  0
  5  7  1  0
  7  8  1  0
  8  9  1  0
  9 10  2  0
  9 11  1  0
 11 12  2  0
 12 13  1  0
 13 14  2  0
 14 15  1  0
 15 16  2  0
 16 17  1  0
 17 18  2  0
 18 19  1  0
 19 20  2  0
 20 11  1  0
 19 14  1  0
  1 21  1  0
  1 22  1  0
  1 23  1  0
  2 24  1  0
  3 25  1  0
  3 26  1  0
  3 27  1  0
  4 28  1  0
  7 29  1  0
  7 30  1  0
  8 31  1  0
 12 32  1  0
 13 33  1  0
 15 34  1  0
 16 35  1  0
 17 36  1  0
 18 37  1  0
M  END
>  <smiles>  (49) 
CC(C)NC(=O)CNC(=O)c1ccc2ccccc2n1

>  <score_type>  (49) 
oracle

>  <origin>  (49) 
autodockgpu

>  <m_score__min__energy>  (49) 
-7.2300000000000004

>  <m_primary>  (49) 
energy

>  <rmsd>  (49) 
2.712426482534841

>  <m_score__min__rmsd>  (49) 
2.712426482534841

>  <meeko>  (49) 
{"free_energy": -6.12, "intermolecular_energy": -7.31, "internal_energy": -1.59, "cluster_size": 14, "cluster_id": 3, "rank_in_cluster": 11}

>  <energy>  (49) 
-5.69

>  <cluster_rmsd>  (49) 
0.66

>  <cluster>  (49) 
4

$$$$

     RDKit          3D

 37 38  0  0  0  0  0  0  0  0999 V2000
  144.5600   73.5770  220.4790 C   0  0  0  0  0  0  0  0  0  0  0  0
  143.4830   74.5990  220.2970 C   0  0  0  0  0  0  0  0  0  0  0  0
  143.6770   75.3050  218.9980 C   0  0  0  0  0  0  0  0  0  0  0  0
  142.1570   74.0660  220.4720 N   0  0  0  0  0  0  0  0  0  0  0  0
  141.1180   74.8850  221.0080 C   0  0  0  0  0  0  0  0  0  0  0  0
  141.3660   76.0750  221.3270 O   0  0  0  0  0  0  0  0  0  0  0  0
  139.7730   74.2630  221.1590 C   0  0  0  0  0  0  0  0  0  0  0  0
  139.7170   73.4410  222.3460 N   0  0  0  0  0  0  0  0  0  0  0  0
  140.2840   72.1350  222.4250 C   0  0  0  0  0  0  0  0  0  0  0  0
  140.8560   71.6920  221.3980 O   0  0  0  0  0  0  0  0  0  0  0  0
  140.1800   71.3700  223.6690 C   0  0  0  0  0  0  0  0  0  0  0  0
  139.5860   70.1280  223.5940 C   0  0  0  0  0  0  0  0  0  0  0  0
  139.4920   69.4060  224.7760 C   0  0  0  0  0  0  0  0  0  0  0  0
  139.9770   69.9280  225.9580 C   0  0  0  0  0  0  0  0  0  0  0  0
  139.9080   69.2510  227.1570 C   0  0  0  0  0  0  0  0  0  0  0  0
  140.3930   69.7720  228.3440 C   0  0  0  0  0  0  0  0  0  0  0  0
  140.9770   71.0220  228.3490 C   0  0  0  0  0  0  0  0  0  0  0  0
  141.0570   71.7200  227.1520 C   0  0  0  0  0  0  0  0  0  0  0  0
  140.5660   71.1850  225.9740 C   0  0  0  0  0  0  0  0  0  0  0  0
  140.6560   71.8890  224.8120 N   0  0  0  0  0  0  0  0  0  0  0  0
  144.7325   73.4134  221.5530 H   0  0  0  0  0  0  0  0  0  0  0  0
  144.2515   72.6316  220.0089 H   0  0  0  0  0  0  0  0  0  0  0  0
  145.4880   73.9346  220.0089 H   0  0  0  0  0  0  0  0  0  0  0  0
  143.5739   75.3428  221.1023 H   0  0  0  0  0  0  0  0  0  0  0  0
  143.9641   76.3498  219.1878 H   0  0  0  0  0  0  0  0  0  0  0  0
  144.4711   74.8050  218.4240 H   0  0  0  0  0  0  0  0  0  0  0  0
  142.7390   75.2810  218.4240 H   0  0  0  0  0  0  0  0  0  0  0  0
  142.0000   73.0630  220.1890 H   0  0  0  0  0  0  0  0  0  0  0  0
  139.0152   75.0568  221.2342 H   0  0  0  0  0  0  0  0  0  0  0  0
  139.5780   73.6285  220.2818 H   0  0  0  0  0  0  0  0  0  0  0  0
  139.2430   73.7960  223.2060 H   0  0  0  0  0  0  0  0  0  0  0  0
  139.2047   69.7282  222.6428 H   0  0  0  0  0  0  0  0  0  0  0  0
  139.0269   68.4092  224.7705 H   0  0  0  0  0  0  0  0  0  0  0  0
  139.4470   68.2524  227.1709 H   0  0  0  0  0  0  0  0  0  0  0  0
  140.3135   69.1938  229.2764 H   0  0  0  0  0  0  0  0  0  0  0  0
  141.3702   71.4555  229.2804 H   0  0  0  0  0  0  0  0  0  0  0  0
  141.5197   72.7179  227.1395 H   0  0  0  0  0  0  0  0  0  0  0  0
  1  2  1  0
  2  3  1  0
  2  4  1  0
  4  5  1  0
  5  6  2  0
  5  7  1  0
  7  8  1  0
  8  9  1  0
  9 10  2  0
  9 11  1  0
 11 12  2  0
 12 13  1  0
 13 14  2  0
 14 15  1  0
 15 16  2  0
 16 17  1  0
 17 18  2  0
 18 19  1  0
 19 20  2  0
 20 11  1  0
 19 14  1  0
  1 21  1  0
  1 22  1  0
  1 23  1  0
  2 24  1  0
  3 25  1  0
  3 26  1  0
  3 27  1  0
  4 28  1  0
  7 29  1  0
  7 30  1  0
  8 31  1  0
 12 32  1  0
 13 33  1  0
 15 34  1  0
 16 35  1  0
 17 36  1  0
 18 37  1  0
M  END
>  <smiles>  (50) 
CC(C)NC(=O)CNC(=O)c1ccc2ccccc2n1

>  <score_type>  (50) 
oracle

>  <origin>  (50) 
autodockgpu

>  <m_score__min__energy>  (50) 
-7.2300000000000004

>  <m_primary>  (50) 
energy

>  <rmsd>  (50) 
2.5487054939441234

>  <m_score__min__rmsd>  (50) 
2.5487054939441234

>  <meeko>  (50) 
{"free_energy": -6.45, "intermolecular_energy": -7.64, "internal_energy": -1.52, "cluster_size": 14, "cluster_id": 3, "rank_in_cluster": 5}

>  <energy>  (50) 
-5.64

>  <cluster_rmsd>  (50) 
0.0

>  <cluster>  (50) 
5

$$$$
