
     RDKit          3D

 49 52  0  0  0  0  0  0  0  0999 V2000
  139.1650   72.6190  220.6960 O   0  0  0  0  0  0  0  0  0  0  0  0
  139.3550   72.9120  221.8960 C   0  0  0  0  0  0  0  0  0  0  0  0
  139.3470   74.2720  222.3140 N   0  0  0  0  0  0  0  0  0  0  0  0
  139.1180   75.2810  221.3310 C   0  0  0  0  0  0  0  0  0  0  0  0
  138.0620   76.2560  221.7140 C   0  0  0  0  0  0  0  0  0  0  0  0
  136.9400   75.8730  222.1640 O   0  0  0  0  0  0  0  0  0  0  0  0
  138.3710   77.6350  221.5540 N   0  0  0  0  0  0  0  0  0  0  0  0
  138.7540   78.3560  220.3480 C   0  0  0  0  0  0  0  0  0  0  0  0
  138.0920   79.7090  220.5360 C   0  0  0  0  0  0  0  0  0  0  0  0
  137.4820   79.6860  221.9290 C   0  0  0  0  0  0  0  0  0  0  0  0
  138.3750   78.6710  222.6010 C   0  0  2  0  0  0  0  0  0  0  0  0
  139.7810   79.1130  222.7070 C   0  0  0  0  0  0  0  0  0  0  0  0
  140.0650   80.4750  222.8370 C   0  0  0  0  0  0  0  0  0  0  0  0
  141.3830   80.8950  222.9380 C   0  0  0  0  0  0  0  0  0  0  0  0
  142.4400   80.0100  222.9130 C   0  0  0  0  0  0  0  0  0  0  0  0
  143.7630   80.3970  223.0110 O   0  0  0  0  0  0  0  0  0  0  0  0
  142.1380   78.6720  222.7850 C   0  0  0  0  0  0  0  0  0  0  0  0
  140.8360   78.2010  222.6800 C   0  0  0  0  0  0  0  0  0  0  0  0
  139.5950   71.8900  222.9360 C   0  0  0  0  0  0  0  0  0  0  0  0
  139.2860   70.5540  222.6600 C   0  0  0  0  0  0  0  0  0  0  0  0
  139.5130   69.5900  223.6420 C   0  0  0  0  0  0  0  0  0  0  0  0
  140.0290   69.9340  224.8600 C   0  0  0  0  0  0  0  0  0  0  0  0
  140.2520   68.9790  225.8280 C   0  0  0  0  0  0  0  0  0  0  0  0
  140.7750   69.4100  227.0290 C   0  0  0  0  0  0  0  0  0  0  0  0
  141.0570   68.1860  228.2640 Cl  0  0  0  0  0  0  0  0  0  0  0  0
  141.0780   70.7070  227.3070 C   0  0  0  0  0  0  0  0  0  0  0  0
  140.8480   71.6650  226.3190 C   0  0  0  0  0  0  0  0  0  0  0  0
  140.3210   71.2800  225.0880 C   0  0  0  0  0  0  0  0  0  0  0  0
  140.1000   72.2000  224.1390 N   0  0  0  0  0  0  0  0  0  0  0  0
  139.5070   74.5130  223.3270 H   0  0  0  0  0  0  0  0  0  0  0  0
  140.0574   75.8305  221.1712 H   0  0  0  0  0  0  0  0  0  0  0  0
  138.7716   74.7713  220.4198 H   0  0  0  0  0  0  0  0  0  0  0  0
  139.8471   78.4568  220.2777 H   0  0  0  0  0  0  0  0  0  0  0  0
  138.4468   77.8474  219.4223 H   0  0  0  0  0  0  0  0  0  0  0  0
  138.8379   80.5138  220.4584 H   0  0  0  0  0  0  0  0  0  0  0  0
  137.3300   79.8958  219.7650 H   0  0  0  0  0  0  0  0  0  0  0  0
  137.5457   80.6698  222.4170 H   0  0  0  0  0  0  0  0  0  0  0  0
  136.4093   79.4438  221.9568 H   0  0  0  0  0  0  0  0  0  0  0  0
  138.0398   78.4195  223.6181 H   0  0  0  0  0  0  0  0  0  0  0  0
  139.2473   81.2104  222.8591 H   0  0  0  0  0  0  0  0  0  0  0  0
  141.5920   81.9700  223.0415 H   0  0  0  0  0  0  0  0  0  0  0  0
  144.4700   80.0710  222.3650 H   0  0  0  0  0  0  0  0  0  0  0  0
  142.9638   77.9456  222.7651 H   0  0  0  0  0  0  0  0  0  0  0  0
  140.6393   77.1236  222.5769 H   0  0  0  0  0  0  0  0  0  0  0  0
  138.8700   70.2679  221.6827 H   0  0  0  0  0  0  0  0  0  0  0  0
  139.2731   68.5370  223.4331 H   0  0  0  0  0  0  0  0  0  0  0  0
  140.0226   67.9180  225.6503 H   0  0  0  0  0  0  0  0  0  0  0  0
  141.4933   70.9927  228.2847 H   0  0  0  0  0  0  0  0  0  0  0  0
  141.0823   72.7224  226.5116 H   0  0  0  0  0  0  0  0  0  0  0  0
  1  2  2  0
  2  3  1  0
  3  4  1  0
  4  5  1  0
  5  6  2  0
  5  7  1  0
  7  8  1  0
  8  9  1  0
  9 10  1  0
 10 11  1  0
 11 12  1  0
 12 13  2  0
 13 14  1  0
 14 15  2  0
 15 16  1  0
 15 17  1  0
 17 18  2  0
  2 19  1  0
 19 20  2  0
 20 21  1  0
 21 22  2  0
 22 23  1  0
 23 24  2  0
 24 25  1  0
 24 26  1  0
 26 27  2  0
 27 28  1  0
 28 29  2  0
 11  7  1  0
 18 12  1  0
 29 19  1  0
 28 22  1  0
  3 30  1  0
  4 31  1  0
  4 32  1  0
  8 33  1  0
  8 34  1  0
  9 35  1  0
  9 36  1  0
 10 37  1  0
 10 38  1  0
 11 39  1  1
 13 40  1  0
 14 41  1  0
 16 42  1  0
 17 43  1  0
 18 44  1  0
 20 45  1  0
 21 46  1  0
 23 47  1  0
 26 48  1  0
 27 49  1  0
M  END
>  <smiles>  (1) 
O=C(NCC(=O)N1CCCC1c1ccc(O)cc1)c1ccc2cc(Cl)ccc2n1

>  <score_type>  (1) 
oracle

>  <origin>  (1) 
autodockgpu

>  <m_score__min__energy>  (1) 
-8.3200000000000003

>  <m_primary>  (1) 
energy

>  <rmsd>  (1) 
3.1100278273861774

>  <m_score__min__rmsd>  (1) 
3.1100278273861774

>  <meeko>  (1) 
{"free_energy": -7.74, "intermolecular_energy": -9.53, "internal_energy": -1.32, "cluster_size": 24, "cluster_id": 2, "rank_in_cluster": 19}

>  <energy>  (1) 
-8.32

>  <cluster_rmsd>  (1) 
0.0

>  <cluster>  (1) 
1

$$$$

     RDKit          3D

 49 52  0  0  0  0  0  0  0  0999 V2000
  139.4330   72.0490  220.8430 O   0  0  0  0  0  0  0  0  0  0  0  0
  139.5300   72.4290  222.0290 C   0  0  0  0  0  0  0  0  0  0  0  0
  139.4600   73.8140  222.3480 N   0  0  0  0  0  0  0  0  0  0  0  0
  139.2770   74.7470  221.2830 C   0  0  0  0  0  0  0  0  0  0  0  0
  140.4990   75.5310  220.9640 C   0  0  0  0  0  0  0  0  0  0  0  0
  141.5750   74.9640  220.6070 O   0  0  0  0  0  0  0  0  0  0  0  0
  140.4020   76.9460  221.0780 N   0  0  0  0  0  0  0  0  0  0  0  0
  139.2840   77.8190  220.7520 C   0  0  0  0  0  0  0  0  0  0  0  0
  139.3660   78.8920  221.8240 C   0  0  0  0  0  0  0  0  0  0  0  0
  140.6350   78.6010  222.6100 C   0  0  0  0  0  0  0  0  0  0  0  0
  141.4420   77.8700  221.5640 C   0  0  2  0  0  0  0  0  0  0  0  0
  141.7880   78.7140  220.4020 C   0  0  0  0  0  0  0  0  0  0  0  0
  141.8210   80.1040  220.5460 C   0  0  0  0  0  0  0  0  0  0  0  0
  142.1450   80.9000  219.4580 C   0  0  0  0  0  0  0  0  0  0  0  0
  142.4410   80.3680  218.2210 C   0  0  0  0  0  0  0  0  0  0  0  0
  142.7680   81.1340  217.1180 O   0  0  0  0  0  0  0  0  0  0  0  0
  142.4030   78.9960  218.1000 C   0  0  0  0  0  0  0  0  0  0  0  0
  142.0840   78.1560  219.1580 C   0  0  0  0  0  0  0  0  0  0  0  0
  139.7200   71.4880  223.1530 C   0  0  0  0  0  0  0  0  0  0  0  0
  139.3690   70.1460  222.9810 C   0  0  0  0  0  0  0  0  0  0  0  0
  139.5480   69.2580  224.0420 C   0  0  0  0  0  0  0  0  0  0  0  0
  140.0590   69.6830  225.2370 C   0  0  0  0  0  0  0  0  0  0  0  0
  140.2350   68.8040  226.2830 C   0  0  0  0  0  0  0  0  0  0  0  0
  140.7560   69.3150  227.4530 C   0  0  0  0  0  0  0  0  0  0  0  0
  140.9790   68.1870  228.7880 Cl  0  0  0  0  0  0  0  0  0  0  0  0
  141.1010   70.6190  227.6300 C   0  0  0  0  0  0  0  0  0  0  0  0
  140.9170   71.5000  226.5630 C   0  0  0  0  0  0  0  0  0  0  0  0
  140.3940   71.0330  225.3590 C   0  0  0  0  0  0  0  0  0  0  0  0
  140.2190   71.8790  224.3350 N   0  0  0  0  0  0  0  0  0  0  0  0
  139.5420   74.1290  223.3500 H   0  0  0  0  0  0  0  0  0  0  0  0
  138.9744   74.1924  220.3826 H   0  0  0  0  0  0  0  0  0  0  0  0
  138.5092   75.4638  221.6096 H   0  0  0  0  0  0  0  0  0  0  0  0
  139.4008   78.2531  219.7481 H   0  0  0  0  0  0  0  0  0  0  0  0
  138.3162   77.2964  220.7342 H   0  0  0  0  0  0  0  0  0  0  0  0
  139.4216   79.8894  221.3634 H   0  0  0  0  0  0  0  0  0  0  0  0
  138.4781   78.8824  222.4733 H   0  0  0  0  0  0  0  0  0  0  0  0
  141.1333   79.5264  222.9346 H   0  0  0  0  0  0  0  0  0  0  0  0
  140.4787   78.0410  223.5438 H   0  0  0  0  0  0  0  0  0  0  0  0
  142.3857   77.4681  221.9614 H   0  0  0  0  0  0  0  0  0  0  0  0
  141.5909   80.5643  221.5182 H   0  0  0  0  0  0  0  0  0  0  0  0
  142.1666   81.9923  219.5860 H   0  0  0  0  0  0  0  0  0  0  0  0
  143.6020   80.9660  216.5720 H   0  0  0  0  0  0  0  0  0  0  0  0
  142.6354   78.5471  217.1231 H   0  0  0  0  0  0  0  0  0  0  0  0
  142.0648   77.0652  219.0175 H   0  0  0  0  0  0  0  0  0  0  0  0
  138.9576   69.7952  222.0230 H   0  0  0  0  0  0  0  0  0  0  0  0
  139.2740   68.2002  223.9154 H   0  0  0  0  0  0  0  0  0  0  0  0
  139.9713   67.7402  226.1890 H   0  0  0  0  0  0  0  0  0  0  0  0
  141.5136   70.9695  228.5876 H   0  0  0  0  0  0  0  0  0  0  0  0
  141.1845   72.5613  226.6726 H   0  0  0  0  0  0  0  0  0  0  0  0
  1  2  2  0
  2  3  1  0
  3  4  1  0
  4  5  1  0
  5  6  2  0
  5  7  1  0
  7  8  1  0
  8  9  1  0
  9 10  1  0
 10 11  1  0
 11 12  1  0
 12 13  2  0
 13 14  1  0
 14 15  2  0
 15 16  1  0
 15 17  1  0
 17 18  2  0
  2 19  1  0
 19 20  2  0
 20 21  1  0
 21 22  2  0
 22 23  1  0
 23 24  2  0
 24 25  1  0
 24 26  1  0
 26 27  2  0
 27 28  1  0
 28 29  2  0
 11  7  1  0
 18 12  1  0
 29 19  1  0
 28 22  1  0
  3 30  1  0
  4 31  1  0
  4 32  1  0
  8 33  1  0
  8 34  1  0
  9 35  1  0
  9 36  1  0
 10 37  1  0
 10 38  1  0
 11 39  1  1
 13 40  1  0
 14 41  1  0
 16 42  1  0
 17 43  1  0
 18 44  1  0
 20 45  1  0
 21 46  1  0
 23 47  1  0
 26 48  1  0
 27 49  1  0
M  END
>  <smiles>  (2) 
O=C(NCC(=O)N1CCCC1c1ccc(O)cc1)c1ccc2cc(Cl)ccc2n1

>  <score_type>  (2) 
oracle

>  <origin>  (2) 
autodockgpu

>  <m_score__min__energy>  (2) 
-8.3200000000000003

>  <m_primary>  (2) 
energy

>  <rmsd>  (2) 
2.5221548221708865

>  <m_score__min__rmsd>  (2) 
2.5221548221708865

>  <meeko>  (2) 
{"free_energy": -8.13, "intermolecular_energy": -9.92, "internal_energy": -1.24, "cluster_size": 6, "cluster_id": 1, "rank_in_cluster": 4}

>  <energy>  (2) 
-8.21

>  <cluster_rmsd>  (2) 
1.03

>  <cluster>  (2) 
1

$$$$

     RDKit          3D

 49 52  0  0  0  0  0  0  0  0999 V2000
  140.1430   72.3860  220.6780 O   0  0  0  0  0  0  0  0  0  0  0  0
  139.9530   72.7560  221.8560 C   0  0  0  0  0  0  0  0  0  0  0  0
  139.7250   74.1290  222.1500 N   0  0  0  0  0  0  0  0  0  0  0  0
  139.7190   75.0620  221.0690 C   0  0  0  0  0  0  0  0  0  0  0  0
  141.0740   75.3670  220.5390 C   0  0  0  0  0  0  0  0  0  0  0  0
  141.9420   74.4560  220.3780 O   0  0  0  0  0  0  0  0  0  0  0  0
  141.3500   76.7260  220.2220 N   0  0  0  0  0  0  0  0  0  0  0  0
  142.5690   77.3150  219.6890 C   0  0  0  0  0  0  0  0  0  0  0  0
  142.0470   78.4080  218.7730 C   0  0  0  0  0  0  0  0  0  0  0  0
  140.5390   78.4320  218.9690 C   0  0  0  0  0  0  0  0  0  0  0  0
  140.4380   77.8740  220.3680 C   0  0  2  0  0  0  0  0  0  0  0  0
  141.0620   78.7410  221.3880 C   0  0  0  0  0  0  0  0  0  0  0  0
  141.2680   80.0940  221.1070 C   0  0  0  0  0  0  0  0  0  0  0  0
  141.8540   80.9120  222.0610 C   0  0  0  0  0  0  0  0  0  0  0  0
  142.2470   80.4370  223.2940 C   0  0  0  0  0  0  0  0  0  0  0  0
  142.8330   81.2270  224.2660 O   0  0  0  0  0  0  0  0  0  0  0  0
  142.0340   79.1010  223.5510 C   0  0  0  0  0  0  0  0  0  0  0  0
  141.4530   78.2400  222.6300 C   0  0  0  0  0  0  0  0  0  0  0  0
  139.9530   71.8160  222.9960 C   0  0  0  0  0  0  0  0  0  0  0  0
  139.3870   70.5480  222.8300 C   0  0  0  0  0  0  0  0  0  0  0  0
  139.3880   69.6610  223.9070 C   0  0  0  0  0  0  0  0  0  0  0  0
  139.9310   70.0140  225.1100 C   0  0  0  0  0  0  0  0  0  0  0  0
  139.9300   69.1350  226.1720 C   0  0  0  0  0  0  0  0  0  0  0  0
  140.4980   69.5710  227.3500 C   0  0  0  0  0  0  0  0  0  0  0  0
  140.4950   68.4440  228.7040 Cl  0  0  0  0  0  0  0  0  0  0  0  0
  141.0520   70.8030  227.5210 C   0  0  0  0  0  0  0  0  0  0  0  0
  141.0460   71.6840  226.4390 C   0  0  0  0  0  0  0  0  0  0  0  0
  140.4840   71.2910  225.2260 C   0  0  0  0  0  0  0  0  0  0  0  0
  140.4800   72.1370  224.1870 N   0  0  0  0  0  0  0  0  0  0  0  0
  139.5660   74.4370  223.1450 H   0  0  0  0  0  0  0  0  0  0  0  0
  139.1120   74.6442  220.2523 H   0  0  0  0  0  0  0  0  0  0  0  0
  139.3050   76.0040  221.4580 H   0  0  0  0  0  0  0  0  0  0  0  0
  143.1894   77.7362  220.4938 H   0  0  0  0  0  0  0  0  0  0  0  0
  143.2128   76.5874  219.1732 H   0  0  0  0  0  0  0  0  0  0  0  0
  142.4840   79.3791  219.0485 H   0  0  0  0  0  0  0  0  0  0  0  0
  142.3146   78.2169  217.7233 H   0  0  0  0  0  0  0  0  0  0  0  0
  140.1373   79.4543  218.9089 H   0  0  0  0  0  0  0  0  0  0  0  0
  139.9679   77.8768  218.2103 H   0  0  0  0  0  0  0  0  0  0  0  0
  139.3973   77.7073  220.6828 H   0  0  0  0  0  0  0  0  0  0  0  0
  140.9668   80.5083  220.1336 H   0  0  0  0  0  0  0  0  0  0  0  0
  142.0105   81.9752  221.8262 H   0  0  0  0  0  0  0  0  0  0  0  0
  143.2790   80.8340  225.0840 H   0  0  0  0  0  0  0  0  0  0  0  0
  142.3375   78.6985  224.5287 H   0  0  0  0  0  0  0  0  0  0  0  0
  141.3031   77.1784  222.8759 H   0  0  0  0  0  0  0  0  0  0  0  0
  138.9478   70.2544  221.8652 H   0  0  0  0  0  0  0  0  0  0  0  0
  138.9446   68.6617  223.7856 H   0  0  0  0  0  0  0  0  0  0  0  0
  139.4946   68.1288  226.0832 H   0  0  0  0  0  0  0  0  0  0  0  0
  141.4922   71.0957  228.4856 H   0  0  0  0  0  0  0  0  0  0  0  0
  141.4844   72.6875  226.5434 H   0  0  0  0  0  0  0  0  0  0  0  0
  1  2  2  0
  2  3  1  0
  3  4  1  0
  4  5  1  0
  5  6  2  0
  5  7  1  0
  7  8  1  0
  8  9  1  0
  9 10  1  0
 10 11  1  0
 11 12  1  0
 12 13  2  0
 13 14  1  0
 14 15  2  0
 15 16  1  0
 15 17  1  0
 17 18  2  0
  2 19  1  0
 19 20  2  0
 20 21  1  0
 21 22  2  0
 22 23  1  0
 23 24  2  0
 24 25  1  0
 24 26  1  0
 26 27  2  0
 27 28  1  0
 28 29  2  0
 11  7  1  0
 18 12  1  0
 29 19  1  0
 28 22  1  0
  3 30  1  0
  4 31  1  0
  4 32  1  0
  8 33  1  0
  8 34  1  0
  9 35  1  0
  9 36  1  0
 10 37  1  0
 10 38  1  0
 11 39  1  1
 13 40  1  0
 14 41  1  0
 16 42  1  0
 17 43  1  0
 18 44  1  0
 20 45  1  0
 21 46  1  0
 23 47  1  0
 26 48  1  0
 27 49  1  0
M  END
>  <smiles>  (3) 
O=C(NCC(=O)N1CCCC1c1ccc(O)cc1)c1ccc2cc(Cl)ccc2n1

>  <score_type>  (3) 
oracle

>  <origin>  (3) 
autodockgpu

>  <m_score__min__energy>  (3) 
-8.3200000000000003

>  <m_primary>  (3) 
energy

>  <rmsd>  (3) 
2.2695163556260427

>  <m_score__min__rmsd>  (3) 
2.2695163556260427

>  <meeko>  (3) 
{"free_energy": -8.07, "intermolecular_energy": -9.86, "internal_energy": -1.12, "cluster_size": 24, "cluster_id": 2, "rank_in_cluster": 7}

>  <energy>  (3) 
-8.19

>  <cluster_rmsd>  (3) 
0.33

>  <cluster>  (3) 
1

$$$$

     RDKit          3D

 49 52  0  0  0  0  0  0  0  0999 V2000
  140.9370   72.7220  220.9270 O   0  0  0  0  0  0  0  0  0  0  0  0
  140.2700   72.9300  221.9640 C   0  0  0  0  0  0  0  0  0  0  0  0
  139.5320   74.1370  222.1130 N   0  0  0  0  0  0  0  0  0  0  0  0
  139.5760   75.0940  221.0540 C   0  0  0  0  0  0  0  0  0  0  0  0
  138.7130   76.2810  221.2900 C   0  0  0  0  0  0  0  0  0  0  0  0
  137.4480   76.1990  221.2480 O   0  0  0  0  0  0  0  0  0  0  0  0
  139.3730   77.5110  221.5650 N   0  0  0  0  0  0  0  0  0  0  0  0
  138.8100   78.8480  221.6850 C   0  0  0  0  0  0  0  0  0  0  0  0
  139.6560   79.4770  222.7780 C   0  0  0  0  0  0  0  0  0  0  0  0
  140.7390   78.4610  223.1040 C   0  0  0  0  0  0  0  0  0  0  0  0
  140.8140   77.7130  221.7960 C   0  0  2  0  0  0  0  0  0  0  0  0
  141.2750   78.5520  220.6710 C   0  0  0  0  0  0  0  0  0  0  0  0
  141.2060   78.0530  219.3670 C   0  0  0  0  0  0  0  0  0  0  0  0
  141.6380   78.8380  218.3080 C   0  0  0  0  0  0  0  0  0  0  0  0
  142.1410   80.1080  218.4930 C   0  0  0  0  0  0  0  0  0  0  0  0
  142.5790   80.9140  217.4580 O   0  0  0  0  0  0  0  0  0  0  0  0
  142.2000   80.5800  219.7850 C   0  0  0  0  0  0  0  0  0  0  0  0
  141.7810   79.8350  220.8790 C   0  0  0  0  0  0  0  0  0  0  0  0
  140.2060   71.9600  223.0770 C   0  0  0  0  0  0  0  0  0  0  0  0
  139.6420   70.7010  222.8470 C   0  0  0  0  0  0  0  0  0  0  0  0
  139.5820   69.7850  223.8990 C   0  0  0  0  0  0  0  0  0  0  0  0
  140.0630   70.1040  225.1380 C   0  0  0  0  0  0  0  0  0  0  0  0
  140.0020   69.1970  226.1740 C   0  0  0  0  0  0  0  0  0  0  0  0
  140.5100   69.5980  227.3910 C   0  0  0  0  0  0  0  0  0  0  0  0
  140.4290   68.4360  228.7130 Cl  0  0  0  0  0  0  0  0  0  0  0  0
  141.0600   70.8210  227.6240 C   0  0  0  0  0  0  0  0  0  0  0  0
  141.1160   71.7310  226.5670 C   0  0  0  0  0  0  0  0  0  0  0  0
  140.6160   71.3730  225.3160 C   0  0  0  0  0  0  0  0  0  0  0  0
  140.6700   72.2460  224.3010 N   0  0  0  0  0  0  0  0  0  0  0  0
  138.9720   74.3080  222.9890 H   0  0  0  0  0  0  0  0  0  0  0  0
  140.6148   75.4366  220.9375 H   0  0  0  0  0  0  0  0  0  0  0  0
  139.1974   74.5937  220.1505 H   0  0  0  0  0  0  0  0  0  0  0  0
  138.9065   79.4040  220.7408 H   0  0  0  0  0  0  0  0  0  0  0  0
  137.7344   78.8468  221.9155 H   0  0  0  0  0  0  0  0  0  0  0  0
  140.1064   80.4150  222.4211 H   0  0  0  0  0  0  0  0  0  0  0  0
  139.0528   79.7225  223.6645 H   0  0  0  0  0  0  0  0  0  0  0  0
  141.6940   78.9492  223.3484 H   0  0  0  0  0  0  0  0  0  0  0  0
  140.5291   77.8317  223.9815 H   0  0  0  0  0  0  0  0  0  0  0  0
  141.4857   76.8433  221.8442 H   0  0  0  0  0  0  0  0  0  0  0  0
  140.8112   77.0432  219.1816 H   0  0  0  0  0  0  0  0  0  0  0  0
  141.5772   78.4336  217.2868 H   0  0  0  0  0  0  0  0  0  0  0  0
  143.3370   80.6430  216.8460 H   0  0  0  0  0  0  0  0  0  0  0  0
  142.5964   81.5914  219.9580 H   0  0  0  0  0  0  0  0  0  0  0  0
  141.8472   80.2506  221.8953 H   0  0  0  0  0  0  0  0  0  0  0  0
  139.2519   70.4367  221.8531 H   0  0  0  0  0  0  0  0  0  0  0  0
  139.1411   68.7918  223.7282 H   0  0  0  0  0  0  0  0  0  0  0  0
  139.5667   68.1963  226.0356 H   0  0  0  0  0  0  0  0  0  0  0  0
  141.4498   71.0851  228.6181 H   0  0  0  0  0  0  0  0  0  0  0  0
  141.5537   72.7284  226.7209 H   0  0  0  0  0  0  0  0  0  0  0  0
  1  2  2  0
  2  3  1  0
  3  4  1  0
  4  5  1  0
  5  6  2  0
  5  7  1  0
  7  8  1  0
  8  9  1  0
  9 10  1  0
 10 11  1  0
 11 12  1  0
 12 13  2  0
 13 14  1  0
 14 15  2  0
 15 16  1  0
 15 17  1  0
 17 18  2  0
  2 19  1  0
 19 20  2  0
 20 21  1  0
 21 22  2  0
 22 23  1  0
 23 24  2  0
 24 25  1  0
 24 26  1  0
 26 27  2  0
 27 28  1  0
 28 29  2  0
 11  7  1  0
 18 12  1  0
 29 19  1  0
 28 22  1  0
  3 30  1  0
  4 31  1  0
  4 32  1  0
  8 33  1  0
  8 34  1  0
  9 35  1  0
  9 36  1  0
 10 37  1  0
 10 38  1  0
 11 39  1  1
 13 40  1  0
 14 41  1  0
 16 42  1  0
 17 43  1  0
 18 44  1  0
 20 45  1  0
 21 46  1  0
 23 47  1  0
 26 48  1  0
 27 49  1  0
M  END
>  <smiles>  (4) 
O=C(NCC(=O)N1CCCC1c1ccc(O)cc1)c1ccc2cc(Cl)ccc2n1

>  <score_type>  (4) 
oracle

>  <origin>  (4) 
autodockgpu

>  <m_score__min__energy>  (4) 
-8.3200000000000003

>  <m_primary>  (4) 
energy

>  <rmsd>  (4) 
3.138686640896079

>  <m_score__min__rmsd>  (4) 
3.138686640896079

>  <meeko>  (4) 
{"free_energy": -8.21, "intermolecular_energy": -10.0, "internal_energy": -0.95, "cluster_size": 6, "cluster_id": 1, "rank_in_cluster": 2}

>  <energy>  (4) 
-8.13

>  <cluster_rmsd>  (4) 
0.33

>  <cluster>  (4) 
1

$$$$

     RDKit          3D

 49 52  0  0  0  0  0  0  0  0999 V2000
  139.2930   72.0660  220.6850 O   0  0  0  0  0  0  0  0  0  0  0  0
  139.4430   72.4770  221.8560 C   0  0  0  0  0  0  0  0  0  0  0  0
  139.4450   73.8720  222.1320 N   0  0  0  0  0  0  0  0  0  0  0  0
  139.2730   74.7790  221.0430 C   0  0  0  0  0  0  0  0  0  0  0  0
  137.9770   75.5060  221.0740 C   0  0  0  0  0  0  0  0  0  0  0  0
  136.8850   74.9220  220.8040 O   0  0  0  0  0  0  0  0  0  0  0  0
  138.0210   76.8850  221.4200 N   0  0  0  0  0  0  0  0  0  0  0  0
  137.9460   78.0530  220.5540 C   0  0  0  0  0  0  0  0  0  0  0  0
  137.1670   79.0500  221.3930 C   0  0  0  0  0  0  0  0  0  0  0  0
  136.9730   78.3930  222.7510 C   0  0  0  0  0  0  0  0  0  0  0  0
  138.1570   77.4560  222.7720 C   0  0  2  0  0  0  0  0  0  0  0  0
  139.4550   78.1610  222.7690 C   0  0  0  0  0  0  0  0  0  0  0  0
  140.5290   77.6200  222.0560 C   0  0  0  0  0  0  0  0  0  0  0  0
  141.7500   78.2780  222.0500 C   0  0  0  0  0  0  0  0  0  0  0  0
  141.9500   79.4610  222.7290 C   0  0  0  0  0  0  0  0  0  0  0  0
  143.1540   80.1400  222.7430 O   0  0  0  0  0  0  0  0  0  0  0  0
  140.8790   79.9770  223.4250 C   0  0  0  0  0  0  0  0  0  0  0  0
  139.6370   79.3570  223.4630 C   0  0  0  0  0  0  0  0  0  0  0  0
  139.6230   71.5630  223.0030 C   0  0  0  0  0  0  0  0  0  0  0  0
  139.2120   70.2320  222.8820 C   0  0  0  0  0  0  0  0  0  0  0  0
  139.3830   69.3700  223.9660 C   0  0  0  0  0  0  0  0  0  0  0  0
  139.9420   69.8090  225.1330 C   0  0  0  0  0  0  0  0  0  0  0  0
  140.1090   68.9550  226.2020 C   0  0  0  0  0  0  0  0  0  0  0  0
  140.6810   69.4780  227.3410 C   0  0  0  0  0  0  0  0  0  0  0  0
  140.8930   68.3830  228.7050 Cl  0  0  0  0  0  0  0  0  0  0  0  0
  141.0840   70.7720  227.4690 C   0  0  0  0  0  0  0  0  0  0  0  0
  140.9100   71.6280  226.3800 C   0  0  0  0  0  0  0  0  0  0  0  0
  140.3360   71.1460  225.2050 C   0  0  0  0  0  0  0  0  0  0  0  0
  140.1690   71.9680  224.1590 N   0  0  0  0  0  0  0  0  0  0  0  0
  139.5720   74.2140  223.1210 H   0  0  0  0  0  0  0  0  0  0  0  0
  140.0872   75.5180  221.0738 H   0  0  0  0  0  0  0  0  0  0  0  0
  139.2858   74.1811  220.1198 H   0  0  0  0  0  0  0  0  0  0  0  0
  138.9501   78.4347  220.3171 H   0  0  0  0  0  0  0  0  0  0  0  0
  137.4756   77.8429  219.5821 H   0  0  0  0  0  0  0  0  0  0  0  0
  137.7344   79.9864  221.4989 H   0  0  0  0  0  0  0  0  0  0  0  0
  136.2036   79.3037  220.9266 H   0  0  0  0  0  0  0  0  0  0  0  0
  137.0212   79.1274  223.5685 H   0  0  0  0  0  0  0  0  0  0  0  0
  135.9975   77.9039  222.8896 H   0  0  0  0  0  0  0  0  0  0  0  0
  138.1547   76.7897  223.6473 H   0  0  0  0  0  0  0  0  0  0  0  0
  140.4063   76.6773  221.5026 H   0  0  0  0  0  0  0  0  0  0  0  0
  142.5865   77.8414  221.4847 H   0  0  0  0  0  0  0  0  0  0  0  0
  143.9810   79.7830  222.2830 H   0  0  0  0  0  0  0  0  0  0  0  0
  141.0134   80.9206  223.9742 H   0  0  0  0  0  0  0  0  0  0  0  0
  138.8083   79.8030  224.0325 H   0  0  0  0  0  0  0  0  0  0  0  0
  138.7607   69.8699  221.9465 H   0  0  0  0  0  0  0  0  0  0  0  0
  139.0629   68.3212  223.8797 H   0  0  0  0  0  0  0  0  0  0  0  0
  139.7988   67.9010  226.1480 H   0  0  0  0  0  0  0  0  0  0  0  0
  141.5346   71.1333  228.4052 H   0  0  0  0  0  0  0  0  0  0  0  0
  141.2250   72.6797  226.4491 H   0  0  0  0  0  0  0  0  0  0  0  0
  1  2  2  0
  2  3  1  0
  3  4  1  0
  4  5  1  0
  5  6  2  0
  5  7  1  0
  7  8  1  0
  8  9  1  0
  9 10  1  0
 10 11  1  0
 11 12  1  0
 12 13  2  0
 13 14  1  0
 14 15  2  0
 15 16  1  0
 15 17  1  0
 17 18  2  0
  2 19  1  0
 19 20  2  0
 20 21  1  0
 21 22  2  0
 22 23  1  0
 23 24  2  0
 24 25  1  0
 24 26  1  0
 26 27  2  0
 27 28  1  0
 28 29  2  0
 11  7  1  0
 18 12  1  0
 29 19  1  0
 28 22  1  0
  3 30  1  0
  4 31  1  0
  4 32  1  0
  8 33  1  0
  8 34  1  0
  9 35  1  0
  9 36  1  0
 10 37  1  0
 10 38  1  0
 11 39  1  1
 13 40  1  0
 14 41  1  0
 16 42  1  0
 17 43  1  0
 18 44  1  0
 20 45  1  0
 21 46  1  0
 23 47  1  0
 26 48  1  0
 27 49  1  0
M  END
>  <smiles>  (5) 
O=C(NCC(=O)N1CCCC1c1ccc(O)cc1)c1ccc2cc(Cl)ccc2n1

>  <score_type>  (5) 
oracle

>  <origin>  (5) 
autodockgpu

>  <m_score__min__energy>  (5) 
-8.3200000000000003

>  <m_primary>  (5) 
energy

>  <rmsd>  (5) 
3.1608881680537366

>  <m_score__min__rmsd>  (5) 
3.1608881680537366

>  <meeko>  (5) 
{"free_energy": -7.93, "intermolecular_energy": -9.72, "internal_energy": -1.29, "cluster_size": 24, "cluster_id": 2, "rank_in_cluster": 17}

>  <energy>  (5) 
-8.13

>  <cluster_rmsd>  (5) 
1.06

>  <cluster>  (5) 
1

$$$$

     RDKit          3D

 49 52  0  0  0  0  0  0  0  0999 V2000
  141.8600   73.3460  221.0640 O   0  0  0  0  0  0  0  0  0  0  0  0
  141.0570   74.1570  221.5720 C   0  0  0  0  0  0  0  0  0  0  0  0
  139.9280   73.6900  222.3000 N   0  0  0  0  0  0  0  0  0  0  0  0
  139.7420   72.2810  222.4330 C   0  0  0  0  0  0  0  0  0  0  0  0
  138.3580   71.8970  222.8150 C   0  0  0  0  0  0  0  0  0  0  0  0
  137.3930   72.7130  222.7120 O   0  0  0  0  0  0  0  0  0  0  0  0
  138.1680   70.5740  223.3000 N   0  0  0  0  0  0  0  0  0  0  0  0
  137.0200   70.0040  223.9900 C   0  0  0  0  0  0  0  0  0  0  0  0
  136.9740   68.5830  223.4580 C   0  0  0  0  0  0  0  0  0  0  0  0
  138.2090   68.4220  222.5860 C   0  0  0  0  0  0  0  0  0  0  0  0
  139.1200   69.4520  223.2120 C   0  0  2  0  0  0  0  0  0  0  0  0
  139.4810   69.1360  224.6080 C   0  0  0  0  0  0  0  0  0  0  0  0
  139.7910   70.1750  225.4900 C   0  0  0  0  0  0  0  0  0  0  0  0
  140.1310   69.8830  226.8030 C   0  0  0  0  0  0  0  0  0  0  0  0
  140.1780   68.5900  227.2790 C   0  0  0  0  0  0  0  0  0  0  0  0
  140.5130   68.2670  228.5810 O   0  0  0  0  0  0  0  0  0  0  0  0
  139.8690   67.5810  226.3940 C   0  0  0  0  0  0  0  0  0  0  0  0
  139.5230   67.8200  225.0710 C   0  0  0  0  0  0  0  0  0  0  0  0
  141.2220   75.6210  221.4520 C   0  0  0  0  0  0  0  0  0  0  0  0
  141.8410   76.1430  220.3110 C   0  0  0  0  0  0  0  0  0  0  0  0
  141.9960   77.5250  220.1990 C   0  0  0  0  0  0  0  0  0  0  0  0
  141.5540   78.3660  221.1820 C   0  0  0  0  0  0  0  0  0  0  0  0
  141.7090   79.7300  221.0670 C   0  0  0  0  0  0  0  0  0  0  0  0
  141.2350   80.5060  222.1030 C   0  0  0  0  0  0  0  0  0  0  0  0
  141.4360   82.2500  221.9530 Cl  0  0  0  0  0  0  0  0  0  0  0  0
  140.6320   80.0080  223.2170 C   0  0  0  0  0  0  0  0  0  0  0  0
  140.4810   78.6240  223.3220 C   0  0  0  0  0  0  0  0  0  0  0  0
  140.9430   77.7960  222.3000 C   0  0  0  0  0  0  0  0  0  0  0  0
  140.7970   76.4680  222.4010 N   0  0  0  0  0  0  0  0  0  0  0  0
  139.2530   74.3790  222.7260 H   0  0  0  0  0  0  0  0  0  0  0  0
  139.9814   71.8062  221.4701 H   0  0  0  0  0  0  0  0  0  0  0  0
  140.4056   71.9430  223.2425 H   0  0  0  0  0  0  0  0  0  0  0  0
  137.1688   70.0137  225.0799 H   0  0  0  0  0  0  0  0  0  0  0  0
  136.0884   70.5625  223.8166 H   0  0  0  0  0  0  0  0  0  0  0  0
  136.9964   67.8628  224.2891 H   0  0  0  0  0  0  0  0  0  0  0  0
  136.0516   68.3955  222.8888 H   0  0  0  0  0  0  0  0  0  0  0  0
  138.6298   67.4083  222.6600 H   0  0  0  0  0  0  0  0  0  0  0  0
  138.0322   68.5586  221.5089 H   0  0  0  0  0  0  0  0  0  0  0  0
  140.0617   69.5783  222.6577 H   0  0  0  0  0  0  0  0  0  0  0  0
  139.7655   71.2191  225.1448 H   0  0  0  0  0  0  0  0  0  0  0  0
  140.3710   70.7105  227.4868 H   0  0  0  0  0  0  0  0  0  0  0  0
  140.6950   67.3160  228.8720 H   0  0  0  0  0  0  0  0  0  0  0  0
  139.8976   66.5409  226.7508 H   0  0  0  0  0  0  0  0  0  0  0  0
  139.2852   66.9838  224.3970 H   0  0  0  0  0  0  0  0  0  0  0  0
  142.1998   75.4743  219.5147 H   0  0  0  0  0  0  0  0  0  0  0  0
  142.4816   77.9446  219.3056 H   0  0  0  0  0  0  0  0  0  0  0  0
  142.1903   80.1805  220.1864 H   0  0  0  0  0  0  0  0  0  0  0  0
  140.2735   80.6776  224.0127 H   0  0  0  0  0  0  0  0  0  0  0  0
  139.9986   78.1879  224.2092 H   0  0  0  0  0  0  0  0  0  0  0  0
  1  2  2  0
  2  3  1  0
  3  4  1  0
  4  5  1  0
  5  6  2  0
  5  7  1  0
  7  8  1  0
  8  9  1  0
  9 10  1  0
 10 11  1  0
 11 12  1  0
 12 13  2  0
 13 14  1  0
 14 15  2  0
 15 16  1  0
 15 17  1  0
 17 18  2  0
  2 19  1  0
 19 20  2  0
 20 21  1  0
 21 22  2  0
 22 23  1  0
 23 24  2  0
 24 25  1  0
 24 26  1  0
 26 27  2  0
 27 28  1  0
 28 29  2  0
 11  7  1  0
 18 12  1  0
 29 19  1  0
 28 22  1  0
  3 30  1  0
  4 31  1  0
  4 32  1  0
  8 33  1  0
  8 34  1  0
  9 35  1  0
  9 36  1  0
 10 37  1  0
 10 38  1  0
 11 39  1  6
 13 40  1  0
 14 41  1  0
 16 42  1  0
 17 43  1  0
 18 44  1  0
 20 45  1  0
 21 46  1  0
 23 47  1  0
 26 48  1  0
 27 49  1  0
M  END
>  <smiles>  (6) 
O=C(NCC(=O)N1CCCC1c1ccc(O)cc1)c1ccc2cc(Cl)ccc2n1

>  <score_type>  (6) 
oracle

>  <origin>  (6) 
autodockgpu

>  <m_score__min__energy>  (6) 
-8.3200000000000003

>  <m_primary>  (6) 
energy

>  <rmsd>  (6) 
8.429679591497397

>  <m_score__min__rmsd>  (6) 
8.429679591497397

>  <meeko>  (6) 
{"free_energy": -7.44, "intermolecular_energy": -9.23, "internal_energy": -1.46, "cluster_size": 3, "cluster_id": 4, "rank_in_cluster": 1}

>  <energy>  (6) 
-7.47

>  <cluster_rmsd>  (6) 
0.93

>  <cluster>  (6) 
1

$$$$

     RDKit          3D

 49 52  0  0  0  0  0  0  0  0999 V2000
  139.2770   72.0900  220.6670 O   0  0  0  0  0  0  0  0  0  0  0  0
  139.4570   72.4990  221.8340 C   0  0  0  0  0  0  0  0  0  0  0  0
  139.5260   73.8940  222.1040 N   0  0  0  0  0  0  0  0  0  0  0  0
  139.3850   74.8030  221.0130 C   0  0  0  0  0  0  0  0  0  0  0  0
  140.5070   74.7410  220.0390 C   0  0  0  0  0  0  0  0  0  0  0  0
  140.7590   73.6840  219.3860 O   0  0  0  0  0  0  0  0  0  0  0  0
  141.2820   75.9230  219.8750 N   0  0  0  0  0  0  0  0  0  0  0  0
  142.7290   76.0820  219.8940 C   0  0  0  0  0  0  0  0  0  0  0  0
  142.9660   77.1630  218.8540 C   0  0  0  0  0  0  0  0  0  0  0  0
  141.5870   77.6300  218.4150 C   0  0  0  0  0  0  0  0  0  0  0  0
  140.7790   77.2880  219.6440 C   0  0  2  0  0  0  0  0  0  0  0  0
  141.1820   78.0590  220.8380 C   0  0  0  0  0  0  0  0  0  0  0  0
  141.6860   79.3540  220.6830 C   0  0  0  0  0  0  0  0  0  0  0  0
  142.0660   80.0810  221.8010 C   0  0  0  0  0  0  0  0  0  0  0  0
  141.9650   79.5710  223.0780 C   0  0  0  0  0  0  0  0  0  0  0  0
  142.3350   80.2710  224.2110 O   0  0  0  0  0  0  0  0  0  0  0  0
  141.4660   78.2950  223.2090 C   0  0  0  0  0  0  0  0  0  0  0  0
  141.0730   77.5250  222.1220 C   0  0  0  0  0  0  0  0  0  0  0  0
  139.6060   71.5830  222.9840 C   0  0  0  0  0  0  0  0  0  0  0  0
  139.1100   70.2790  222.8830 C   0  0  0  0  0  0  0  0  0  0  0  0
  139.2510   69.4150  223.9690 C   0  0  0  0  0  0  0  0  0  0  0  0
  139.8630   69.8250  225.1200 C   0  0  0  0  0  0  0  0  0  0  0  0
  140.0010   68.9690  226.1910 C   0  0  0  0  0  0  0  0  0  0  0  0
  140.6310   69.4620  227.3140 C   0  0  0  0  0  0  0  0  0  0  0  0
  140.8040   68.3640  228.6810 Cl  0  0  0  0  0  0  0  0  0  0  0  0
  141.1160   70.7290  227.4230 C   0  0  0  0  0  0  0  0  0  0  0  0
  140.9700   71.5870  226.3320 C   0  0  0  0  0  0  0  0  0  0  0  0
  140.3410   71.1350  225.1730 C   0  0  0  0  0  0  0  0  0  0  0  0
  140.2020   71.9590  224.1250 N   0  0  0  0  0  0  0  0  0  0  0  0
  139.6770   74.2330  223.0900 H   0  0  0  0  0  0  0  0  0  0  0  0
  138.4504   74.5678  220.4827 H   0  0  0  0  0  0  0  0  0  0  0  0
  139.3808   75.8181  221.4367 H   0  0  0  0  0  0  0  0  0  0  0  0
  143.0786   76.4040  220.8860 H   0  0  0  0  0  0  0  0  0  0  0  0
  143.2711   75.1488  219.6814 H   0  0  0  0  0  0  0  0  0  0  0  0
  143.5310   77.9986  219.2928 H   0  0  0  0  0  0  0  0  0  0  0  0
  143.5529   76.7838  218.0045 H   0  0  0  0  0  0  0  0  0  0  0  0
  141.5711   78.7098  218.2056 H   0  0  0  0  0  0  0  0  0  0  0  0
  141.2222   77.1725  217.4835 H   0  0  0  0  0  0  0  0  0  0  0  0
  139.7011   77.4553  219.5022 H   0  0  0  0  0  0  0  0  0  0  0  0
  141.7806   79.7939  219.6792 H   0  0  0  0  0  0  0  0  0  0  0  0
  142.4612   81.0985  221.6645 H   0  0  0  0  0  0  0  0  0  0  0  0
  142.6670   81.2250  224.1720 H   0  0  0  0  0  0  0  0  0  0  0  0
  141.3745   77.8666  224.2180 H   0  0  0  0  0  0  0  0  0  0  0  0
  140.6812   76.5081  222.2716 H   0  0  0  0  0  0  0  0  0  0  0  0
  138.6159   69.9398  221.9606 H   0  0  0  0  0  0  0  0  0  0  0  0
  138.8636   68.3879  223.8978 H   0  0  0  0  0  0  0  0  0  0  0  0
  139.6245   67.9362  226.1517 H   0  0  0  0  0  0  0  0  0  0  0  0
  141.6096   71.0675  228.3459 H   0  0  0  0  0  0  0  0  0  0  0  0
  141.3504   72.6177  226.3865 H   0  0  0  0  0  0  0  0  0  0  0  0
  1  2  2  0
  2  3  1  0
  3  4  1  0
  4  5  1  0
  5  6  2  0
  5  7  1  0
  7  8  1  0
  8  9  1  0
  9 10  1  0
 10 11  1  0
 11 12  1  0
 12 13  2  0
 13 14  1  0
 14 15  2  0
 15 16  1  0
 15 17  1  0
 17 18  2  0
  2 19  1  0
 19 20  2  0
 20 21  1  0
 21 22  2  0
 22 23  1  0
 23 24  2  0
 24 25  1  0
 24 26  1  0
 26 27  2  0
 27 28  1  0
 28 29  2  0
 11  7  1  0
 18 12  1  0
 29 19  1  0
 28 22  1  0
  3 30  1  0
  4 31  1  0
  4 32  1  0
  8 33  1  0
  8 34  1  0
  9 35  1  0
  9 36  1  0
 10 37  1  0
 10 38  1  0
 11 39  1  6
 13 40  1  0
 14 41  1  0
 16 42  1  0
 17 43  1  0
 18 44  1  0
 20 45  1  0
 21 46  1  0
 23 47  1  0
 26 48  1  0
 27 49  1  0
M  END
>  <smiles>  (7) 
O=C(NCC(=O)N1CCCC1c1ccc(O)cc1)c1ccc2cc(Cl)ccc2n1

>  <score_type>  (7) 
oracle

>  <origin>  (7) 
autodockgpu

>  <m_score__min__energy>  (7) 
-8.3200000000000003

>  <m_primary>  (7) 
energy

>  <rmsd>  (7) 
2.0669656077974343

>  <m_score__min__rmsd>  (7) 
2.0669656077974343

>  <meeko>  (7) 
{"free_energy": -7.67, "intermolecular_energy": -9.46, "internal_energy": -1.23, "cluster_size": 24, "cluster_id": 2, "rank_in_cluster": 20}

>  <energy>  (7) 
-8.3

>  <cluster_rmsd>  (7) 
0.0

>  <cluster>  (7) 
2

$$$$

     RDKit          3D

 49 52  0  0  0  0  0  0  0  0999 V2000
  140.7430   72.8450  221.0570 O   0  0  0  0  0  0  0  0  0  0  0  0
  140.0180   72.9220  222.0720 C   0  0  0  0  0  0  0  0  0  0  0  0
  139.1210   74.0130  222.2330 N   0  0  0  0  0  0  0  0  0  0  0  0
  139.0740   75.0090  221.2110 C   0  0  0  0  0  0  0  0  0  0  0  0
  137.8360   75.8310  221.2390 C   0  0  0  0  0  0  0  0  0  0  0  0
  136.6910   75.3100  221.0780 O   0  0  0  0  0  0  0  0  0  0  0  0
  137.9970   77.2280  221.4560 N   0  0  0  0  0  0  0  0  0  0  0  0
  138.1150   78.3020  220.4800 C   0  0  0  0  0  0  0  0  0  0  0  0
  137.3800   79.4510  221.1470 C   0  0  0  0  0  0  0  0  0  0  0  0
  137.0100   78.9590  222.5370 C   0  0  0  0  0  0  0  0  0  0  0  0
  138.0830   77.9200  222.7540 C   0  0  2  0  0  0  0  0  0  0  0  0
  139.4450   78.4920  222.8010 C   0  0  0  0  0  0  0  0  0  0  0  0
  140.5130   77.7690  222.2630 C   0  0  0  0  0  0  0  0  0  0  0  0
  141.7930   78.3010  222.3050 C   0  0  0  0  0  0  0  0  0  0  0  0
  142.0580   79.5330  222.8650 C   0  0  0  0  0  0  0  0  0  0  0  0
  143.3220   80.0900  222.9220 O   0  0  0  0  0  0  0  0  0  0  0  0
  140.9910   80.2290  223.3900 C   0  0  0  0  0  0  0  0  0  0  0  0
  139.6920   79.7400  223.3730 C   0  0  0  0  0  0  0  0  0  0  0  0
  140.0450   71.9080  223.1470 C   0  0  0  0  0  0  0  0  0  0  0  0
  139.5600   70.6230  222.8810 C   0  0  0  0  0  0  0  0  0  0  0  0
  139.5850   69.6670  223.8960 C   0  0  0  0  0  0  0  0  0  0  0  0
  140.0750   69.9690  225.1360 C   0  0  0  0  0  0  0  0  0  0  0  0
  140.0980   69.0220  226.1370 C   0  0  0  0  0  0  0  0  0  0  0  0
  140.6080   69.4100  227.3580 C   0  0  0  0  0  0  0  0  0  0  0  0
  140.6360   68.1960  228.6340 Cl  0  0  0  0  0  0  0  0  0  0  0  0
  141.0820   70.6570  227.6260 C   0  0  0  0  0  0  0  0  0  0  0  0
  141.0530   71.6080  226.6050 C   0  0  0  0  0  0  0  0  0  0  0  0
  140.5470   71.2650  225.3520 C   0  0  0  0  0  0  0  0  0  0  0  0
  140.5200   72.1780  224.3710 N   0  0  0  0  0  0  0  0  0  0  0  0
  138.5120   74.0740  223.0910 H   0  0  0  0  0  0  0  0  0  0  0  0
  139.9385   75.6775  221.3367 H   0  0  0  0  0  0  0  0  0  0  0  0
  139.0901   74.4821  220.2455 H   0  0  0  0  0  0  0  0  0  0  0  0
  139.1694   78.5585  220.2998 H   0  0  0  0  0  0  0  0  0  0  0  0
  137.7048   78.0389  219.4938 H   0  0  0  0  0  0  0  0  0  0  0  0
  138.0322   80.3342  221.2149 H   0  0  0  0  0  0  0  0  0  0  0  0
  136.4894   79.7475  220.5735 H   0  0  0  0  0  0  0  0  0  0  0  0
  137.0687   79.7656  223.2826 H   0  0  0  0  0  0  0  0  0  0  0  0
  135.9808   78.5826  222.6318 H   0  0  0  0  0  0  0  0  0  0  0  0
  137.9402   77.3519  223.6851 H   0  0  0  0  0  0  0  0  0  0  0  0
  140.3392   76.7825  221.8083 H   0  0  0  0  0  0  0  0  0  0  0  0
  142.6243   77.7212  221.8775 H   0  0  0  0  0  0  0  0  0  0  0  0
  144.0800   79.7710  222.3350 H   0  0  0  0  0  0  0  0  0  0  0  0
  141.1765   81.2145  223.8420 H   0  0  0  0  0  0  0  0  0  0  0  0
  138.8689   80.3284  223.8046 H   0  0  0  0  0  0  0  0  0  0  0  0
  139.1648   70.3705  221.8860 H   0  0  0  0  0  0  0  0  0  0  0  0
  139.2047   68.6545  223.6958 H   0  0  0  0  0  0  0  0  0  0  0  0
  139.7256   68.0007  225.9692 H   0  0  0  0  0  0  0  0  0  0  0  0
  141.4776   70.9088  228.6210 H   0  0  0  0  0  0  0  0  0  0  0  0
  141.4284   72.6256  226.7884 H   0  0  0  0  0  0  0  0  0  0  0  0
  1  2  2  0
  2  3  1  0
  3  4  1  0
  4  5  1  0
  5  6  2  0
  5  7  1  0
  7  8  1  0
  8  9  1  0
  9 10  1  0
 10 11  1  0
 11 12  1  0
 12 13  2  0
 13 14  1  0
 14 15  2  0
 15 16  1  0
 15 17  1  0
 17 18  2  0
  2 19  1  0
 19 20  2  0
 20 21  1  0
 21 22  2  0
 22 23  1  0
 23 24  2  0
 24 25  1  0
 24 26  1  0
 26 27  2  0
 27 28  1  0
 28 29  2  0
 11  7  1  0
 18 12  1  0
 29 19  1  0
 28 22  1  0
  3 30  1  0
  4 31  1  0
  4 32  1  0
  8 33  1  0
  8 34  1  0
  9 35  1  0
  9 36  1  0
 10 37  1  0
 10 38  1  0
 11 39  1  1
 13 40  1  0
 14 41  1  0
 16 42  1  0
 17 43  1  0
 18 44  1  0
 20 45  1  0
 21 46  1  0
 23 47  1  0
 26 48  1  0
 27 49  1  0
M  END
>  <smiles>  (8) 
O=C(NCC(=O)N1CCCC1c1ccc(O)cc1)c1ccc2cc(Cl)ccc2n1

>  <score_type>  (8) 
oracle

>  <origin>  (8) 
autodockgpu

>  <m_score__min__energy>  (8) 
-8.3200000000000003

>  <m_primary>  (8) 
energy

>  <rmsd>  (8) 
3.2513443837680427

>  <m_score__min__rmsd>  (8) 
3.2513443837680427

>  <meeko>  (8) 
{"free_energy": -8.08, "intermolecular_energy": -9.87, "internal_energy": -1.11, "cluster_size": 24, "cluster_id": 2, "rank_in_cluster": 6}

>  <energy>  (8) 
-8.21

>  <cluster_rmsd>  (8) 
0.44

>  <cluster>  (8) 
2

$$$$

     RDKit          3D

 49 52  0  0  0  0  0  0  0  0999 V2000
  139.0440   71.8520  220.7960 O   0  0  0  0  0  0  0  0  0  0  0  0
  139.2820   72.2640  221.9520 C   0  0  0  0  0  0  0  0  0  0  0  0
  139.3260   73.6600  222.2220 N   0  0  0  0  0  0  0  0  0  0  0  0
  139.0940   74.5670  221.1450 C   0  0  0  0  0  0  0  0  0  0  0  0
  139.0210   75.9890  221.5710 C   0  0  0  0  0  0  0  0  0  0  0  0
  138.0900   76.4080  222.3230 O   0  0  0  0  0  0  0  0  0  0  0  0
  140.0430   76.8560  221.0940 N   0  0  0  0  0  0  0  0  0  0  0  0
  141.4590   76.5850  220.8970 C   0  0  0  0  0  0  0  0  0  0  0  0
  141.7920   77.3930  219.6550 C   0  0  0  0  0  0  0  0  0  0  0  0
  140.5340   78.1790  219.3190 C   0  0  0  0  0  0  0  0  0  0  0  0
  139.8930   78.2640  220.6840 C   0  0  2  0  0  0  0  0  0  0  0  0
  140.6920   79.0400  221.6540 C   0  0  0  0  0  0  0  0  0  0  0  0
  140.6940   78.6640  223.0000 C   0  0  0  0  0  0  0  0  0  0  0  0
  141.4430   79.3900  223.9140 C   0  0  0  0  0  0  0  0  0  0  0  0
  142.1950   80.4840  223.5440 C   0  0  0  0  0  0  0  0  0  0  0  0
  142.9510   81.2280  224.4310 O   0  0  0  0  0  0  0  0  0  0  0  0
  142.1790   80.8380  222.2130 C   0  0  0  0  0  0  0  0  0  0  0  0
  141.4460   80.1450  221.2580 C   0  0  0  0  0  0  0  0  0  0  0  0
  139.5270   71.3500  223.0870 C   0  0  0  0  0  0  0  0  0  0  0  0
  139.1880   69.9990  222.9570 C   0  0  0  0  0  0  0  0  0  0  0  0
  139.4200   69.1380  224.0290 C   0  0  0  0  0  0  0  0  0  0  0  0
  139.9690   69.5950  225.1940 C   0  0  0  0  0  0  0  0  0  0  0  0
  140.1970   68.7410  226.2520 C   0  0  0  0  0  0  0  0  0  0  0  0
  140.7540   69.2840  227.3900 C   0  0  0  0  0  0  0  0  0  0  0  0
  141.0430   68.1880  228.7390 Cl  0  0  0  0  0  0  0  0  0  0  0  0
  141.0870   70.5960  227.5260 C   0  0  0  0  0  0  0  0  0  0  0  0
  140.8510   71.4520  226.4490 C   0  0  0  0  0  0  0  0  0  0  0  0
  140.2900   70.9510  225.2750 C   0  0  0  0  0  0  0  0  0  0  0  0
  140.0640   71.7720  224.2410 N   0  0  0  0  0  0  0  0  0  0  0  0
  139.5280   74.0020  223.1980 H   0  0  0  0  0  0  0  0  0  0  0  0
  139.9143   74.4628  220.4196 H   0  0  0  0  0  0  0  0  0  0  0  0
  138.1167   74.3094  220.7107 H   0  0  0  0  0  0  0  0  0  0  0  0
  142.0504   76.9248  221.7600 H   0  0  0  0  0  0  0  0  0  0  0  0
  141.6845   75.5137  220.7905 H   0  0  0  0  0  0  0  0  0  0  0  0
  142.6286   78.0781  219.8572 H   0  0  0  0  0  0  0  0  0  0  0  0
  142.0974   76.7440  218.8210 H   0  0  0  0  0  0  0  0  0  0  0  0
  140.7720   79.1756  218.9189 H   0  0  0  0  0  0  0  0  0  0  0  0
  139.9019   77.7241  218.5421 H   0  0  0  0  0  0  0  0  0  0  0  0
  138.8923   78.7198  220.6548 H   0  0  0  0  0  0  0  0  0  0  0  0
  140.1047   77.7968  223.3327 H   0  0  0  0  0  0  0  0  0  0  0  0
  141.4366   79.0822  224.9700 H   0  0  0  0  0  0  0  0  0  0  0  0
  143.2660   82.1650  224.2180 H   0  0  0  0  0  0  0  0  0  0  0  0
  142.7723   81.7070  221.8924 H   0  0  0  0  0  0  0  0  0  0  0  0
  141.4598   80.4628  220.2050 H   0  0  0  0  0  0  0  0  0  0  0  0
  138.7452   69.6217  222.0234 H   0  0  0  0  0  0  0  0  0  0  0  0
  139.1569   68.0740  223.9354 H   0  0  0  0  0  0  0  0  0  0  0  0
  139.9452   67.6720  226.1907 H   0  0  0  0  0  0  0  0  0  0  0  0
  141.5304   70.9722  228.4597 H   0  0  0  0  0  0  0  0  0  0  0  0
  141.1069   72.5190  226.5263 H   0  0  0  0  0  0  0  0  0  0  0  0
  1  2  2  0
  2  3  1  0
  3  4  1  0
  4  5  1  0
  5  6  2  0
  5  7  1  0
  7  8  1  0
  8  9  1  0
  9 10  1  0
 10 11  1  0
 11 12  1  0
 12 13  2  0
 13 14  1  0
 14 15  2  0
 15 16  1  0
 15 17  1  0
 17 18  2  0
  2 19  1  0
 19 20  2  0
 20 21  1  0
 21 22  2  0
 22 23  1  0
 23 24  2  0
 24 25  1  0
 24 26  1  0
 26 27  2  0
 27 28  1  0
 28 29  2  0
 11  7  1  0
 18 12  1  0
 29 19  1  0
 28 22  1  0
  3 30  1  0
  4 31  1  0
  4 32  1  0
  8 33  1  0
  8 34  1  0
  9 35  1  0
  9 36  1  0
 10 37  1  0
 10 38  1  0
 11 39  1  6
 13 40  1  0
 14 41  1  0
 16 42  1  0
 17 43  1  0
 18 44  1  0
 20 45  1  0
 21 46  1  0
 23 47  1  0
 26 48  1  0
 27 49  1  0
M  END
>  <smiles>  (9) 
O=C(NCC(=O)N1CCCC1c1ccc(O)cc1)c1ccc2cc(Cl)ccc2n1

>  <score_type>  (9) 
oracle

>  <origin>  (9) 
autodockgpu

>  <m_score__min__energy>  (9) 
-8.3200000000000003

>  <m_primary>  (9) 
energy

>  <rmsd>  (9) 
2.023614015736125

>  <m_score__min__rmsd>  (9) 
2.023614015736125

>  <meeko>  (9) 
{"free_energy": -8.01, "intermolecular_energy": -9.8, "internal_energy": -1.31, "cluster_size": 24, "cluster_id": 2, "rank_in_cluster": 12}

>  <energy>  (9) 
-8.11

>  <cluster_rmsd>  (9) 
0.65

>  <cluster>  (9) 
2

$$$$

     RDKit          3D

 49 52  0  0  0  0  0  0  0  0999 V2000
  139.8220   72.4100  220.7810 O   0  0  0  0  0  0  0  0  0  0  0  0
  139.7330   72.7490  221.9810 C   0  0  0  0  0  0  0  0  0  0  0  0
  139.5100   74.1100  222.3280 N   0  0  0  0  0  0  0  0  0  0  0  0
  139.3910   75.0680  221.2760 C   0  0  0  0  0  0  0  0  0  0  0  0
  140.6570   75.7880  220.9810 C   0  0  0  0  0  0  0  0  0  0  0  0
  141.0740   76.7260  221.7260 O   0  0  0  0  0  0  0  0  0  0  0  0
  141.3780   75.3750  219.8260 N   0  0  0  0  0  0  0  0  0  0  0  0
  141.0400   74.3490  218.8510 C   0  0  0  0  0  0  0  0  0  0  0  0
  141.5520   74.9360  217.5470 C   0  0  0  0  0  0  0  0  0  0  0  0
  142.2720   76.2220  217.9230 C   0  0  0  0  0  0  0  0  0  0  0  0
  142.6650   75.9090  219.3460 C   0  0  2  0  0  0  0  0  0  0  0  0
  143.6170   74.7840  219.4530 C   0  0  0  0  0  0  0  0  0  0  0  0
  144.3610   74.4040  218.3320 C   0  0  0  0  0  0  0  0  0  0  0  0
  145.2570   73.3490  218.4270 C   0  0  0  0  0  0  0  0  0  0  0  0
  145.4440   72.6500  219.6000 C   0  0  0  0  0  0  0  0  0  0  0  0
  146.3280   71.5940  219.7270 O   0  0  0  0  0  0  0  0  0  0  0  0
  144.7020   73.0400  220.6920 C   0  0  0  0  0  0  0  0  0  0  0  0
  143.7930   74.0890  220.6490 C   0  0  0  0  0  0  0  0  0  0  0  0
  139.8520   71.7820  223.0920 C   0  0  0  0  0  0  0  0  0  0  0  0
  139.4400   70.4610  222.8890 C   0  0  0  0  0  0  0  0  0  0  0  0
  139.5530   69.5490  223.9380 C   0  0  0  0  0  0  0  0  0  0  0  0
  140.0570   69.9290  225.1510 C   0  0  0  0  0  0  0  0  0  0  0  0
  140.1670   69.0250  226.1850 C   0  0  0  0  0  0  0  0  0  0  0  0
  140.6860   69.4910  227.3750 C   0  0  0  0  0  0  0  0  0  0  0  0
  140.8240   68.3320  228.6950 Cl  0  0  0  0  0  0  0  0  0  0  0  0
  141.0890   70.7740  227.5820 C   0  0  0  0  0  0  0  0  0  0  0  0
  140.9720   71.6810  226.5270 C   0  0  0  0  0  0  0  0  0  0  0  0
  140.4540   71.2580  225.3030 C   0  0  0  0  0  0  0  0  0  0  0  0
  140.3430   72.1280  224.2900 N   0  0  0  0  0  0  0  0  0  0  0  0
  139.4360   74.3910  223.3410 H   0  0  0  0  0  0  0  0  0  0  0  0
  139.0680   74.5447  220.3640 H   0  0  0  0  0  0  0  0  0  0  0  0
  138.6610   75.8214  221.6069 H   0  0  0  0  0  0  0  0  0  0  0  0
  141.5462   73.4004  219.0834 H   0  0  0  0  0  0  0  0  0  0  0  0
  139.9665   74.1100  218.8272 H   0  0  0  0  0  0  0  0  0  0  0  0
  142.2473   74.2367  217.0595 H   0  0  0  0  0  0  0  0  0  0  0  0
  140.7313   75.1247  216.8393 H   0  0  0  0  0  0  0  0  0  0  0  0
  143.1526   76.3956  217.2870 H   0  0  0  0  0  0  0  0  0  0  0  0
  141.6719   77.1361  217.8029 H   0  0  0  0  0  0  0  0  0  0  0  0
  143.1240   76.7683  219.8569 H   0  0  0  0  0  0  0  0  0  0  0  0
  144.2365   74.9390  217.3790 H   0  0  0  0  0  0  0  0  0  0  0  0
  145.8368   73.0612  217.5376 H   0  0  0  0  0  0  0  0  0  0  0  0
  146.6990   71.3050  220.6220 H   0  0  0  0  0  0  0  0  0  0  0  0
  144.8349   72.4973  221.6395 H   0  0  0  0  0  0  0  0  0  0  0  0
  143.2200   74.3677  221.5456 H   0  0  0  0  0  0  0  0  0  0  0  0
  139.0330   70.1462  221.9168 H   0  0  0  0  0  0  0  0  0  0  0  0
  139.2317   68.5078  223.7873 H   0  0  0  0  0  0  0  0  0  0  0  0
  139.8545   67.9770  226.0666 H   0  0  0  0  0  0  0  0  0  0  0  0
  141.4961   71.0882  228.5544 H   0  0  0  0  0  0  0  0  0  0  0  0
  141.2875   72.7263  226.6607 H   0  0  0  0  0  0  0  0  0  0  0  0
  1  2  2  0
  2  3  1  0
  3  4  1  0
  4  5  1  0
  5  6  2  0
  5  7  1  0
  7  8  1  0
  8  9  1  0
  9 10  1  0
 10 11  1  0
 11 12  1  0
 12 13  2  0
 13 14  1  0
 14 15  2  0
 15 16  1  0
 15 17  1  0
 17 18  2  0
  2 19  1  0
 19 20  2  0
 20 21  1  0
 21 22  2  0
 22 23  1  0
 23 24  2  0
 24 25  1  0
 24 26  1  0
 26 27  2  0
 27 28  1  0
 28 29  2  0
 11  7  1  0
 18 12  1  0
 29 19  1  0
 28 22  1  0
  3 30  1  0
  4 31  1  0
  4 32  1  0
  8 33  1  0
  8 34  1  0
  9 35  1  0
  9 36  1  0
 10 37  1  0
 10 38  1  0
 11 39  1  1
 13 40  1  0
 14 41  1  0
 16 42  1  0
 17 43  1  0
 18 44  1  0
 20 45  1  0
 21 46  1  0
 23 47  1  0
 26 48  1  0
 27 49  1  0
M  END
>  <smiles>  (10) 
O=C(NCC(=O)N1CCCC1c1ccc(O)cc1)c1ccc2cc(Cl)ccc2n1

>  <score_type>  (10) 
oracle

>  <origin>  (10) 
autodockgpu

>  <m_score__min__energy>  (10) 
-8.3200000000000003

>  <m_primary>  (10) 
energy

>  <rmsd>  (10) 
1.7497497308553134

>  <m_score__min__rmsd>  (10) 
1.7497497308553134

>  <meeko>  (10) 
{"free_energy": -7.99, "intermolecular_energy": -9.78, "internal_energy": -1.47, "cluster_size": 12, "cluster_id": 3, "rank_in_cluster": 7}

>  <energy>  (10) 
-8.09

>  <cluster_rmsd>  (10) 
0.65

>  <cluster>  (10) 
2

$$$$

     RDKit          3D

 49 52  0  0  0  0  0  0  0  0999 V2000
  139.7530   72.0880  220.5080 O   0  0  0  0  0  0  0  0  0  0  0  0
  139.6620   72.5040  221.6830 C   0  0  0  0  0  0  0  0  0  0  0  0
  139.4540   73.8880  221.9400 N   0  0  0  0  0  0  0  0  0  0  0  0
  139.3530   74.7770  220.8280 C   0  0  0  0  0  0  0  0  0  0  0  0
  138.0710   75.5280  220.7820 C   0  0  0  0  0  0  0  0  0  0  0  0
  137.0220   75.0170  220.2870 O   0  0  0  0  0  0  0  0  0  0  0  0
  138.0790   76.8460  221.3190 N   0  0  0  0  0  0  0  0  0  0  0  0
  137.8710   78.1160  220.6400 C   0  0  0  0  0  0  0  0  0  0  0  0
  137.1210   78.9370  221.6740 C   0  0  0  0  0  0  0  0  0  0  0  0
  137.0810   78.0860  222.9330 C   0  0  0  0  0  0  0  0  0  0  0  0
  138.3070   77.2300  222.7230 C   0  0  2  0  0  0  0  0  0  0  0  0
  139.5640   78.0060  222.7160 C   0  0  0  0  0  0  0  0  0  0  0  0
  140.6330   77.5760  221.9250 C   0  0  0  0  0  0  0  0  0  0  0  0
  141.8150   78.3020  221.9150 C   0  0  0  0  0  0  0  0  0  0  0  0
  141.9810   79.4460  222.6660 C   0  0  0  0  0  0  0  0  0  0  0  0
  143.1460   80.1900  222.6770 O   0  0  0  0  0  0  0  0  0  0  0  0
  140.9150   79.8520  223.4380 C   0  0  0  0  0  0  0  0  0  0  0  0
  139.7110   79.1620  223.4840 C   0  0  0  0  0  0  0  0  0  0  0  0
  139.7630   71.6090  222.8540 C   0  0  0  0  0  0  0  0  0  0  0  0
  139.2780   70.3010  222.7520 C   0  0  0  0  0  0  0  0  0  0  0  0
  139.3740   69.4560  223.8590 C   0  0  0  0  0  0  0  0  0  0  0  0
  139.9300   69.8900  225.0290 C   0  0  0  0  0  0  0  0  0  0  0  0
  140.0230   69.0530  226.1210 C   0  0  0  0  0  0  0  0  0  0  0  0
  140.5970   69.5700  227.2620 C   0  0  0  0  0  0  0  0  0  0  0  0
  140.7130   68.4960  228.6550 Cl  0  0  0  0  0  0  0  0  0  0  0  0
  141.0710   70.8410  227.3710 C   0  0  0  0  0  0  0  0  0  0  0  0
  140.9710   71.6790  226.2600 C   0  0  0  0  0  0  0  0  0  0  0  0
  140.3980   71.2040  225.0810 C   0  0  0  0  0  0  0  0  0  0  0  0
  140.3030   72.0090  224.0140 N   0  0  0  0  0  0  0  0  0  0  0  0
  139.3790   74.2340  222.9330 H   0  0  0  0  0  0  0  0  0  0  0  0
  140.1787   75.5015  220.8857 H   0  0  0  0  0  0  0  0  0  0  0  0
  139.3997   74.1617  219.9174 H   0  0  0  0  0  0  0  0  0  0  0  0
  138.8304   78.5876  220.3808 H   0  0  0  0  0  0  0  0  0  0  0  0
  137.3275   78.0153  219.6890 H   0  0  0  0  0  0  0  0  0  0  0  0
  137.6488   79.8824  221.8679 H   0  0  0  0  0  0  0  0  0  0  0  0
  136.1089   79.1944  221.3284 H   0  0  0  0  0  0  0  0  0  0  0  0
  137.1649   78.7003  223.8416 H   0  0  0  0  0  0  0  0  0  0  0  0
  136.1471   77.5230  223.0772 H   0  0  0  0  0  0  0  0  0  0  0  0
  138.4156   76.4499  223.4909 H   0  0  0  0  0  0  0  0  0  0  0  0
  140.5376   76.6666  221.3136 H   0  0  0  0  0  0  0  0  0  0  0  0
  142.6478   77.9531  221.2867 H   0  0  0  0  0  0  0  0  0  0  0  0
  143.9430   79.9540  222.1020 H   0  0  0  0  0  0  0  0  0  0  0  0
  141.0223   80.7631  224.0449 H   0  0  0  0  0  0  0  0  0  0  0  0
  138.8855   79.5211  224.1162 H   0  0  0  0  0  0  0  0  0  0  0  0
  138.8279   69.9438  221.8140 H   0  0  0  0  0  0  0  0  0  0  0  0
  138.9963   68.4253  223.7882 H   0  0  0  0  0  0  0  0  0  0  0  0
  139.6548   68.0172  226.0828 H   0  0  0  0  0  0  0  0  0  0  0  0
  141.5207   71.1979  228.3093 H   0  0  0  0  0  0  0  0  0  0  0  0
  141.3435   72.7126  226.3141 H   0  0  0  0  0  0  0  0  0  0  0  0
  1  2  2  0
  2  3  1  0
  3  4  1  0
  4  5  1  0
  5  6  2  0
  5  7  1  0
  7  8  1  0
  8  9  1  0
  9 10  1  0
 10 11  1  0
 11 12  1  0
 12 13  2  0
 13 14  1  0
 14 15  2  0
 15 16  1  0
 15 17  1  0
 17 18  2  0
  2 19  1  0
 19 20  2  0
 20 21  1  0
 21 22  2  0
 22 23  1  0
 23 24  2  0
 24 25  1  0
 24 26  1  0
 26 27  2  0
 27 28  1  0
 28 29  2  0
 11  7  1  0
 18 12  1  0
 29 19  1  0
 28 22  1  0
  3 30  1  0
  4 31  1  0
  4 32  1  0
  8 33  1  0
  8 34  1  0
  9 35  1  0
  9 36  1  0
 10 37  1  0
 10 38  1  0
 11 39  1  1
 13 40  1  0
 14 41  1  0
 16 42  1  0
 17 43  1  0
 18 44  1  0
 20 45  1  0
 21 46  1  0
 23 47  1  0
 26 48  1  0
 27 49  1  0
M  END
>  <smiles>  (11) 
O=C(NCC(=O)N1CCCC1c1ccc(O)cc1)c1ccc2cc(Cl)ccc2n1

>  <score_type>  (11) 
oracle

>  <origin>  (11) 
autodockgpu

>  <m_score__min__energy>  (11) 
-8.3200000000000003

>  <m_primary>  (11) 
energy

>  <rmsd>  (11) 
3.203606539191086

>  <m_score__min__rmsd>  (11) 
3.203606539191086

>  <meeko>  (11) 
{"free_energy": -7.85, "intermolecular_energy": -9.64, "internal_energy": -1.27, "cluster_size": 24, "cluster_id": 2, "rank_in_cluster": 18}

>  <energy>  (11) 
-8.09

>  <cluster_rmsd>  (11) 
0.61

>  <cluster>  (11) 
2

$$$$

     RDKit          3D

 49 52  0  0  0  0  0  0  0  0999 V2000
  138.4520   71.8950  220.9030 O   0  0  0  0  0  0  0  0  0  0  0  0
  138.9190   72.3070  221.9870 C   0  0  0  0  0  0  0  0  0  0  0  0
  139.1770   73.6930  222.1770 N   0  0  0  0  0  0  0  0  0  0  0  0
  138.8910   74.5900  221.1040 C   0  0  0  0  0  0  0  0  0  0  0  0
  139.5900   74.2450  219.8380 C   0  0  0  0  0  0  0  0  0  0  0  0
  139.0600   73.4830  218.9760 O   0  0  0  0  0  0  0  0  0  0  0  0
  140.8800   74.8120  219.6420 N   0  0  0  0  0  0  0  0  0  0  0  0
  141.5660   75.1260  218.3970 C   0  0  0  0  0  0  0  0  0  0  0  0
  142.3240   76.3970  218.7360 C   0  0  0  0  0  0  0  0  0  0  0  0
  142.1020   76.6310  220.2220 C   0  0  0  0  0  0  0  0  0  0  0  0
  141.8390   75.2190  220.6850 C   0  0  2  0  0  0  0  0  0  0  0  0
  143.0020   74.3250  220.5150 C   0  0  0  0  0  0  0  0  0  0  0  0
  144.2880   74.8700  220.4730 C   0  0  0  0  0  0  0  0  0  0  0  0
  145.3840   74.0340  220.3140 C   0  0  0  0  0  0  0  0  0  0  0  0
  145.2530   72.6670  220.1940 C   0  0  0  0  0  0  0  0  0  0  0  0
  146.3250   71.8080  220.0350 O   0  0  0  0  0  0  0  0  0  0  0  0
  143.9770   72.1500  220.2390 C   0  0  0  0  0  0  0  0  0  0  0  0
  142.8480   72.9440  220.3950 C   0  0  0  0  0  0  0  0  0  0  0  0
  139.2260   71.4040  223.1150 C   0  0  0  0  0  0  0  0  0  0  0  0
  138.8890   70.0500  223.0120 C   0  0  0  0  0  0  0  0  0  0  0  0
  139.1800   69.1980  224.0780 C   0  0  0  0  0  0  0  0  0  0  0  0
  139.7840   69.6680  225.2110 C   0  0  0  0  0  0  0  0  0  0  0  0
  140.0690   68.8240  226.2620 C   0  0  0  0  0  0  0  0  0  0  0  0
  140.6790   69.3780  227.3670 C   0  0  0  0  0  0  0  0  0  0  0  0
  141.0410   68.2950  228.7080 Cl  0  0  0  0  0  0  0  0  0  0  0  0
  141.0100   70.6940  227.4760 C   0  0  0  0  0  0  0  0  0  0  0  0
  140.7160   71.5390  226.4060 C   0  0  0  0  0  0  0  0  0  0  0  0
  140.0990   71.0270  225.2650 C   0  0  0  0  0  0  0  0  0  0  0  0
  139.8180   71.8380  224.2370 N   0  0  0  0  0  0  0  0  0  0  0  0
  139.5710   74.0350  223.0930 H   0  0  0  0  0  0  0  0  0  0  0  0
  137.8070   74.5753  220.9179 H   0  0  0  0  0  0  0  0  0  0  0  0
  139.2493   75.5840  221.4100 H   0  0  0  0  0  0  0  0  0  0  0  0
  142.2560   74.3184  218.1112 H   0  0  0  0  0  0  0  0  0  0  0  0
  140.8825   75.2435  217.5432 H   0  0  0  0  0  0  0  0  0  0  0  0
  143.3961   76.2710  218.5245 H   0  0  0  0  0  0  0  0  0  0  0  0
  141.9722   77.2492  218.1360 H   0  0  0  0  0  0  0  0  0  0  0  0
  142.9943   77.0571  220.7040 H   0  0  0  0  0  0  0  0  0  0  0  0
  141.3024   77.3482  220.4592 H   0  0  0  0  0  0  0  0  0  0  0  0
  141.5470   75.1682  221.7443 H   0  0  0  0  0  0  0  0  0  0  0  0
  144.4308   75.9568  220.5656 H   0  0  0  0  0  0  0  0  0  0  0  0
  146.3905   74.4767  220.2827 H   0  0  0  0  0  0  0  0  0  0  0  0
  146.7000   71.2650  220.8010 H   0  0  0  0  0  0  0  0  0  0  0  0
  143.8465   71.0616  220.1475 H   0  0  0  0  0  0  0  0  0  0  0  0
  141.8465   72.4900  220.4235 H   0  0  0  0  0  0  0  0  0  0  0  0
  138.4022   69.6631  222.1046 H   0  0  0  0  0  0  0  0  0  0  0  0
  138.9194   68.1317  224.0057 H   0  0  0  0  0  0  0  0  0  0  0  0
  139.8203   67.7533  226.2210 H   0  0  0  0  0  0  0  0  0  0  0  0
  141.4963   71.0806  228.3837 H   0  0  0  0  0  0  0  0  0  0  0  0
  140.9705   72.6077  226.4621 H   0  0  0  0  0  0  0  0  0  0  0  0
  1  2  2  0
  2  3  1  0
  3  4  1  0
  4  5  1  0
  5  6  2  0
  5  7  1  0
  7  8  1  0
  8  9  1  0
  9 10  1  0
 10 11  1  0
 11 12  1  0
 12 13  2  0
 13 14  1  0
 14 15  2  0
 15 16  1  0
 15 17  1  0
 17 18  2  0
  2 19  1  0
 19 20  2  0
 20 21  1  0
 21 22  2  0
 22 23  1  0
 23 24  2  0
 24 25  1  0
 24 26  1  0
 26 27  2  0
 27 28  1  0
 28 29  2  0
 11  7  1  0
 18 12  1  0
 29 19  1  0
 28 22  1  0
  3 30  1  0
  4 31  1  0
  4 32  1  0
  8 33  1  0
  8 34  1  0
  9 35  1  0
  9 36  1  0
 10 37  1  0
 10 38  1  0
 11 39  1  1
 13 40  1  0
 14 41  1  0
 16 42  1  0
 17 43  1  0
 18 44  1  0
 20 45  1  0
 21 46  1  0
 23 47  1  0
 26 48  1  0
 27 49  1  0
M  END
>  <smiles>  (12) 
O=C(NCC(=O)N1CCCC1c1ccc(O)cc1)c1ccc2cc(Cl)ccc2n1

>  <score_type>  (12) 
oracle

>  <origin>  (12) 
autodockgpu

>  <m_score__min__energy>  (12) 
-8.3200000000000003

>  <m_primary>  (12) 
energy

>  <rmsd>  (12) 
1.8966735996367738

>  <m_score__min__rmsd>  (12) 
1.8966735996367738

>  <meeko>  (12) 
{"free_energy": -8.08, "intermolecular_energy": -9.87, "internal_energy": -1.5, "cluster_size": 12, "cluster_id": 3, "rank_in_cluster": 5}

>  <energy>  (12) 
-8.08

>  <cluster_rmsd>  (12) 
1.44

>  <cluster>  (12) 
2

$$$$

     RDKit          3D

 49 52  0  0  0  0  0  0  0  0999 V2000
  139.1370   71.9800  220.7250 O   0  0  0  0  0  0  0  0  0  0  0  0
  139.3810   72.3970  221.8770 C   0  0  0  0  0  0  0  0  0  0  0  0
  139.5120   73.7920  222.1230 N   0  0  0  0  0  0  0  0  0  0  0  0
  139.3590   74.6910  221.0250 C   0  0  0  0  0  0  0  0  0  0  0  0
  140.4490   74.5920  220.0190 C   0  0  0  0  0  0  0  0  0  0  0  0
  140.5970   73.5560  219.3040 O   0  0  0  0  0  0  0  0  0  0  0  0
  141.3160   75.7140  219.8960 N   0  0  0  0  0  0  0  0  0  0  0  0
  142.7590   75.7820  220.0680 C   0  0  0  0  0  0  0  0  0  0  0  0
  143.1800   76.7980  219.0210 C   0  0  0  0  0  0  0  0  0  0  0  0
  141.8910   77.3310  218.4160 C   0  0  0  0  0  0  0  0  0  0  0  0
  140.9350   77.0970  219.5600 C   0  0  2  0  0  0  0  0  0  0  0  0
  141.2590   77.8930  220.7610 C   0  0  0  0  0  0  0  0  0  0  0  0
  140.9920   77.3670  222.0280 C   0  0  0  0  0  0  0  0  0  0  0  0
  141.2950   78.1110  223.1590 C   0  0  0  0  0  0  0  0  0  0  0  0
  141.8560   79.3680  223.0820 C   0  0  0  0  0  0  0  0  0  0  0  0
  142.1690   80.1340  224.1900 O   0  0  0  0  0  0  0  0  0  0  0  0
  142.1110   79.8680  221.8240 C   0  0  0  0  0  0  0  0  0  0  0  0
  141.8260   79.1640  220.6620 C   0  0  0  0  0  0  0  0  0  0  0  0
  139.5450   71.4910  223.0340 C   0  0  0  0  0  0  0  0  0  0  0  0
  139.0750   70.1770  222.9390 C   0  0  0  0  0  0  0  0  0  0  0  0
  139.2310   69.3230  224.0310 C   0  0  0  0  0  0  0  0  0  0  0  0
  139.8310   69.7530  225.1810 C   0  0  0  0  0  0  0  0  0  0  0  0
  139.9830   68.9060  226.2580 C   0  0  0  0  0  0  0  0  0  0  0  0
  140.5990   69.4190  227.3790 C   0  0  0  0  0  0  0  0  0  0  0  0
  140.7900   68.3340  228.7530 Cl  0  0  0  0  0  0  0  0  0  0  0  0
  141.0590   70.6960  227.4810 C   0  0  0  0  0  0  0  0  0  0  0  0
  140.8990   71.5440  226.3840 C   0  0  0  0  0  0  0  0  0  0  0  0
  140.2830   71.0730  225.2260 C   0  0  0  0  0  0  0  0  0  0  0  0
  140.1300   71.8870  224.1730 N   0  0  0  0  0  0  0  0  0  0  0  0
  139.7180   74.1390  223.0970 H   0  0  0  0  0  0  0  0  0  0  0  0
  138.4038   74.4709  220.5257 H   0  0  0  0  0  0  0  0  0  0  0  0
  139.3907   75.7108  221.4360 H   0  0  0  0  0  0  0  0  0  0  0  0
  143.0209   76.1252  221.0798 H   0  0  0  0  0  0  0  0  0  0  0  0
  143.2560   74.8076  219.9512 H   0  0  0  0  0  0  0  0  0  0  0  0
  143.7500   77.6148  219.4878 H   0  0  0  0  0  0  0  0  0  0  0  0
  143.8282   76.3451  218.2563 H   0  0  0  0  0  0  0  0  0  0  0  0
  141.9710   78.3990  218.1652 H   0  0  0  0  0  0  0  0  0  0  0  0
  141.5979   76.8558  217.4683 H   0  0  0  0  0  0  0  0  0  0  0  0
  139.8925   77.3264  219.2943 H   0  0  0  0  0  0  0  0  0  0  0  0
  140.5436   76.3675  222.1280 H   0  0  0  0  0  0  0  0  0  0  0  0
  141.0806   77.6840  224.1498 H   0  0  0  0  0  0  0  0  0  0  0  0
  141.6410   80.9590  224.4420 H   0  0  0  0  0  0  0  0  0  0  0  0
  142.5599   80.8684  221.7364 H   0  0  0  0  0  0  0  0  0  0  0  0
  142.0442   79.6021  219.6769 H   0  0  0  0  0  0  0  0  0  0  0  0
  138.5899   69.8226  222.0176 H   0  0  0  0  0  0  0  0  0  0  0  0
  138.8654   68.2876  223.9654 H   0  0  0  0  0  0  0  0  0  0  0  0
  139.6279   67.8654  226.2241 H   0  0  0  0  0  0  0  0  0  0  0  0
  141.5436   71.0500  228.4028 H   0  0  0  0  0  0  0  0  0  0  0  0
  141.2585   72.5824  226.4334 H   0  0  0  0  0  0  0  0  0  0  0  0
  1  2  2  0
  2  3  1  0
  3  4  1  0
  4  5  1  0
  5  6  2  0
  5  7  1  0
  7  8  1  0
  8  9  1  0
  9 10  1  0
 10 11  1  0
 11 12  1  0
 12 13  2  0
 13 14  1  0
 14 15  2  0
 15 16  1  0
 15 17  1  0
 17 18  2  0
  2 19  1  0
 19 20  2  0
 20 21  1  0
 21 22  2  0
 22 23  1  0
 23 24  2  0
 24 25  1  0
 24 26  1  0
 26 27  2  0
 27 28  1  0
 28 29  2  0
 11  7  1  0
 18 12  1  0
 29 19  1  0
 28 22  1  0
  3 30  1  0
  4 31  1  0
  4 32  1  0
  8 33  1  0
  8 34  1  0
  9 35  1  0
  9 36  1  0
 10 37  1  0
 10 38  1  0
 11 39  1  6
 13 40  1  0
 14 41  1  0
 16 42  1  0
 17 43  1  0
 18 44  1  0
 20 45  1  0
 21 46  1  0
 23 47  1  0
 26 48  1  0
 27 49  1  0
M  END
>  <smiles>  (13) 
O=C(NCC(=O)N1CCCC1c1ccc(O)cc1)c1ccc2cc(Cl)ccc2n1

>  <score_type>  (13) 
oracle

>  <origin>  (13) 
autodockgpu

>  <m_score__min__energy>  (13) 
-8.3200000000000003

>  <m_primary>  (13) 
energy

>  <rmsd>  (13) 
2.060601107890704

>  <m_score__min__rmsd>  (13) 
2.060601107890704

>  <meeko>  (13) 
{"free_energy": -7.59, "intermolecular_energy": -9.38, "internal_energy": -1.27, "cluster_size": 24, "cluster_id": 2, "rank_in_cluster": 21}

>  <energy>  (13) 
-8.07

>  <cluster_rmsd>  (13) 
0.92

>  <cluster>  (13) 
2

$$$$

     RDKit          3D

 49 52  0  0  0  0  0  0  0  0999 V2000
  141.6650   79.1210  217.6650 O   0  0  0  0  0  0  0  0  0  0  0  0
  142.1750   78.5190  218.6340 C   0  0  0  0  0  0  0  0  0  0  0  0
  142.1930   79.1190  219.9230 N   0  0  0  0  0  0  0  0  0  0  0  0
  141.6180   80.4160  220.0760 C   0  0  0  0  0  0  0  0  0  0  0  0
  141.4240   80.8180  221.4940 C   0  0  0  0  0  0  0  0  0  0  0  0
  142.0820   81.7720  222.0070 O   0  0  0  0  0  0  0  0  0  0  0  0
  140.4670   80.0820  222.2450 N   0  0  0  0  0  0  0  0  0  0  0  0
  140.4800   79.7310  223.6580 C   0  0  0  0  0  0  0  0  0  0  0  0
  139.0140   79.8160  224.0440 C   0  0  0  0  0  0  0  0  0  0  0  0
  138.2570   80.0870  222.7540 C   0  0  0  0  0  0  0  0  0  0  0  0
  139.2120   79.4910  221.7470 C   0  0  2  0  0  0  0  0  0  0  0  0
  139.3800   78.0320  221.8990 C   0  0  0  0  0  0  0  0  0  0  0  0
  138.2760   77.2430  222.2320 C   0  0  0  0  0  0  0  0  0  0  0  0
  138.4290   75.8720  222.3750 C   0  0  0  0  0  0  0  0  0  0  0  0
  139.6450   75.2470  222.2010 C   0  0  0  0  0  0  0  0  0  0  0  0
  139.8300   73.8830  222.3370 O   0  0  0  0  0  0  0  0  0  0  0  0
  140.7200   76.0420  221.8730 C   0  0  0  0  0  0  0  0  0  0  0  0
  140.6200   77.4180  221.7180 C   0  0  0  0  0  0  0  0  0  0  0  0
  142.7780   77.1760  218.5080 C   0  0  0  0  0  0  0  0  0  0  0  0
  143.0000   76.6480  217.2310 C   0  0  0  0  0  0  0  0  0  0  0  0
  143.5700   75.3800  217.1130 C   0  0  0  0  0  0  0  0  0  0  0  0
  143.9100   74.6550  218.2210 C   0  0  0  0  0  0  0  0  0  0  0  0
  144.4720   73.4030  218.1000 C   0  0  0  0  0  0  0  0  0  0  0  0
  144.7850   72.7390  219.2670 C   0  0  0  0  0  0  0  0  0  0  0  0
  145.5040   71.1380  219.1090 Cl  0  0  0  0  0  0  0  0  0  0  0  0
  144.5720   73.2430  220.5140 C   0  0  0  0  0  0  0  0  0  0  0  0
  144.0020   74.5120  220.6230 C   0  0  0  0  0  0  0  0  0  0  0  0
  143.6680   75.2250  219.4720 C   0  0  0  0  0  0  0  0  0  0  0  0
  143.1210   76.4430  219.5770 N   0  0  0  0  0  0  0  0  0  0  0  0
  142.6250   78.6070  220.7370 H   0  0  0  0  0  0  0  0  0  0  0  0
  142.2814   81.1494  219.5944 H   0  0  0  0  0  0  0  0  0  0  0  0
  140.6217   80.3839  219.6109 H   0  0  0  0  0  0  0  0  0  0  0  0
  140.8704   78.7138  223.8092 H   0  0  0  0  0  0  0  0  0  0  0  0
  141.1260   80.3855  224.2615 H   0  0  0  0  0  0  0  0  0  0  0  0
  138.6807   78.8678  224.4909 H   0  0  0  0  0  0  0  0  0  0  0  0
  138.8382   80.6065  224.7884 H   0  0  0  0  0  0  0  0  0  0  0  0
  137.2819   79.5780  222.7403 H   0  0  0  0  0  0  0  0  0  0  0  0
  138.0080   81.1444  222.5810 H   0  0  0  0  0  0  0  0  0  0  0  0
  138.8996   79.6717  220.7079 H   0  0  0  0  0  0  0  0  0  0  0  0
  137.2898   77.7072  222.3801 H   0  0  0  0  0  0  0  0  0  0  0  0
  137.5507   75.2633  222.6359 H   0  0  0  0  0  0  0  0  0  0  0  0
  139.4010   73.3520  223.0820 H   0  0  0  0  0  0  0  0  0  0  0  0
  141.7010   75.5662  221.7274 H   0  0  0  0  0  0  0  0  0  0  0  0
  141.5056   78.0157  221.4563 H   0  0  0  0  0  0  0  0  0  0  0  0
  142.7292   77.2240  216.3339 H   0  0  0  0  0  0  0  0  0  0  0  0
  143.7485   74.9573  216.1133 H   0  0  0  0  0  0  0  0  0  0  0  0
  144.6628   72.9525  217.1148 H   0  0  0  0  0  0  0  0  0  0  0  0
  144.8418   72.6657  221.4106 H   0  0  0  0  0  0  0  0  0  0  0  0
  143.8164   74.9492  221.6152 H   0  0  0  0  0  0  0  0  0  0  0  0
  1  2  2  0
  2  3  1  0
  3  4  1  0
  4  5  1  0
  5  6  2  0
  5  7  1  0
  7  8  1  0
  8  9  1  0
  9 10  1  0
 10 11  1  0
 11 12  1  0
 12 13  2  0
 13 14  1  0
 14 15  2  0
 15 16  1  0
 15 17  1  0
 17 18  2  0
  2 19  1  0
 19 20  2  0
 20 21  1  0
 21 22  2  0
 22 23  1  0
 23 24  2  0
 24 25  1  0
 24 26  1  0
 26 27  2  0
 27 28  1  0
 28 29  2  0
 11  7  1  0
 18 12  1  0
 29 19  1  0
 28 22  1  0
  3 30  1  0
  4 31  1  0
  4 32  1  0
  8 33  1  0
  8 34  1  0
  9 35  1  0
  9 36  1  0
 10 37  1  0
 10 38  1  0
 11 39  1  6
 13 40  1  0
 14 41  1  0
 16 42  1  0
 17 43  1  0
 18 44  1  0
 20 45  1  0
 21 46  1  0
 23 47  1  0
 26 48  1  0
 27 49  1  0
M  END
>  <smiles>  (14) 
O=C(NCC(=O)N1CCCC1c1ccc(O)cc1)c1ccc2cc(Cl)ccc2n1

>  <score_type>  (14) 
oracle

>  <origin>  (14) 
autodockgpu

>  <m_score__min__energy>  (14) 
-8.3200000000000003

>  <m_primary>  (14) 
energy

>  <rmsd>  (14) 
8.23481482030219

>  <m_score__min__rmsd>  (14) 
8.23481482030219

>  <meeko>  (14) 
{"free_energy": -7.05, "intermolecular_energy": -8.84, "internal_energy": -1.94, "cluster_size": 3, "cluster_id": 7, "rank_in_cluster": 1}

>  <energy>  (14) 
-8.07

>  <cluster_rmsd>  (14) 
1.13

>  <cluster>  (14) 
2

$$$$

     RDKit          3D

 49 52  0  0  0  0  0  0  0  0999 V2000
  139.5310   71.9280  220.6690 O   0  0  0  0  0  0  0  0  0  0  0  0
  139.5940   72.3410  221.8470 C   0  0  0  0  0  0  0  0  0  0  0  0
  139.5220   73.7340  222.1240 N   0  0  0  0  0  0  0  0  0  0  0  0
  139.3760   74.6370  221.0280 C   0  0  0  0  0  0  0  0  0  0  0  0
  140.3110   75.7930  221.0820 C   0  0  0  0  0  0  0  0  0  0  0  0
  141.5520   75.6490  220.8710 O   0  0  0  0  0  0  0  0  0  0  0  0
  139.7450   77.0640  221.3780 N   0  0  0  0  0  0  0  0  0  0  0  0
  139.5360   78.2040  220.4980 C   0  0  0  0  0  0  0  0  0  0  0  0
  138.2280   78.7880  221.0020 C   0  0  0  0  0  0  0  0  0  0  0  0
  137.8620   77.9870  222.2410 C   0  0  0  0  0  0  0  0  0  0  0  0
  139.2300   77.5240  222.6800 C   0  0  2  0  0  0  0  0  0  0  0  0
  140.1190   78.6340  223.0810 C   0  0  0  0  0  0  0  0  0  0  0  0
  141.5030   78.4430  223.0780 C   0  0  0  0  0  0  0  0  0  0  0  0
  142.3410   79.4820  223.4520 C   0  0  0  0  0  0  0  0  0  0  0  0
  141.8560   80.7150  223.8340 C   0  0  0  0  0  0  0  0  0  0  0  0
  142.6650   81.7700  224.2130 O   0  0  0  0  0  0  0  0  0  0  0  0
  140.4890   80.8830  223.8300 C   0  0  0  0  0  0  0  0  0  0  0  0
  139.6080   79.8740  223.4640 C   0  0  0  0  0  0  0  0  0  0  0  0
  139.7460   71.4320  223.0020 C   0  0  0  0  0  0  0  0  0  0  0  0
  139.3400   70.0990  222.8740 C   0  0  0  0  0  0  0  0  0  0  0  0
  139.4830   69.2410  223.9650 C   0  0  0  0  0  0  0  0  0  0  0  0
  140.0100   69.6850  225.1450 C   0  0  0  0  0  0  0  0  0  0  0  0
  140.1500   68.8350  226.2210 C   0  0  0  0  0  0  0  0  0  0  0  0
  140.6910   69.3630  227.3740 C   0  0  0  0  0  0  0  0  0  0  0  0
  140.8670   68.2730  228.7470 Cl  0  0  0  0  0  0  0  0  0  0  0  0
  141.0890   70.6580  227.5080 C   0  0  0  0  0  0  0  0  0  0  0  0
  140.9420   71.5100  226.4120 C   0  0  0  0  0  0  0  0  0  0  0  0
  140.4000   71.0230  225.2230 C   0  0  0  0  0  0  0  0  0  0  0  0
  140.2600   71.8410  224.1700 N   0  0  0  0  0  0  0  0  0  0  0  0
  139.5760   74.0780  223.1190 H   0  0  0  0  0  0  0  0  0  0  0  0
  139.5595   74.0843  220.0948 H   0  0  0  0  0  0  0  0  0  0  0  0
  138.3554   75.0441  221.0784 H   0  0  0  0  0  0  0  0  0  0  0  0
  140.3559   78.9313  220.5914 H   0  0  0  0  0  0  0  0  0  0  0  0
  139.5072   77.9304  219.4330 H   0  0  0  0  0  0  0  0  0  0  0  0
  138.3569   79.8501  221.2577 H   0  0  0  0  0  0  0  0  0  0  0  0
  137.4395   78.7303  220.2372 H   0  0  0  0  0  0  0  0  0  0  0  0
  137.3813   78.6162  223.0046 H   0  0  0  0  0  0  0  0  0  0  0  0
  137.1370   77.1781  222.0675 H   0  0  0  0  0  0  0  0  0  0  0  0
  139.1879   76.8240  223.5274 H   0  0  0  0  0  0  0  0  0  0  0  0
  141.9259   77.4722  222.7801 H   0  0  0  0  0  0  0  0  0  0  0  0
  143.4286   79.3175  223.4438 H   0  0  0  0  0  0  0  0  0  0  0  0
  142.5720   82.6930  223.8110 H   0  0  0  0  0  0  0  0  0  0  0  0
  140.0775   81.8582  224.1295 H   0  0  0  0  0  0  0  0  0  0  0  0
  138.5223   80.0502  223.4760 H   0  0  0  0  0  0  0  0  0  0  0  0
  138.9146   69.7332  221.9278 H   0  0  0  0  0  0  0  0  0  0  0  0
  139.1668   68.1914  223.8738 H   0  0  0  0  0  0  0  0  0  0  0  0
  139.8432   67.7803  226.1623 H   0  0  0  0  0  0  0  0  0  0  0  0
  141.5149   71.0231  228.4542 H   0  0  0  0  0  0  0  0  0  0  0  0
  141.2528   72.5626  226.4861 H   0  0  0  0  0  0  0  0  0  0  0  0
  1  2  2  0
  2  3  1  0
  3  4  1  0
  4  5  1  0
  5  6  2  0
  5  7  1  0
  7  8  1  0
  8  9  1  0
  9 10  1  0
 10 11  1  0
 11 12  1  0
 12 13  2  0
 13 14  1  0
 14 15  2  0
 15 16  1  0
 15 17  1  0
 17 18  2  0
  2 19  1  0
 19 20  2  0
 20 21  1  0
 21 22  2  0
 22 23  1  0
 23 24  2  0
 24 25  1  0
 24 26  1  0
 26 27  2  0
 27 28  1  0
 28 29  2  0
 11  7  1  0
 18 12  1  0
 29 19  1  0
 28 22  1  0
  3 30  1  0
  4 31  1  0
  4 32  1  0
  8 33  1  0
  8 34  1  0
  9 35  1  0
  9 36  1  0
 10 37  1  0
 10 38  1  0
 11 39  1  1
 13 40  1  0
 14 41  1  0
 16 42  1  0
 17 43  1  0
 18 44  1  0
 20 45  1  0
 21 46  1  0
 23 47  1  0
 26 48  1  0
 27 49  1  0
M  END
>  <smiles>  (15) 
O=C(NCC(=O)N1CCCC1c1ccc(O)cc1)c1ccc2cc(Cl)ccc2n1

>  <score_type>  (15) 
oracle

>  <origin>  (15) 
autodockgpu

>  <m_score__min__energy>  (15) 
-8.3200000000000003

>  <m_primary>  (15) 
energy

>  <rmsd>  (15) 
2.7554049286331477

>  <m_score__min__rmsd>  (15) 
2.7554049286331477

>  <meeko>  (15) 
{"free_energy": -8.02, "intermolecular_energy": -9.81, "internal_energy": -1.25, "cluster_size": 24, "cluster_id": 2, "rank_in_cluster": 11}

>  <energy>  (15) 
-8.06

>  <cluster_rmsd>  (15) 
0.9

>  <cluster>  (15) 
2

$$$$

     RDKit          3D

 49 52  0  0  0  0  0  0  0  0999 V2000
  139.8470   72.1140  220.7160 O   0  0  0  0  0  0  0  0  0  0  0  0
  139.3870   72.3790  221.8470 C   0  0  0  0  0  0  0  0  0  0  0  0
  138.6730   73.5900  222.0670 N   0  0  0  0  0  0  0  0  0  0  0  0
  138.5000   74.4840  220.9670 C   0  0  0  0  0  0  0  0  0  0  0  0
  139.3290   75.7140  221.0640 C   0  0  0  0  0  0  0  0  0  0  0  0
  139.0280   76.6540  221.8590 O   0  0  0  0  0  0  0  0  0  0  0  0
  140.4760   75.7840  220.2240 N   0  0  0  0  0  0  0  0  0  0  0  0
  140.6130   75.4090  218.8250 C   0  0  0  0  0  0  0  0  0  0  0  0
  141.5780   76.4500  218.2860 C   0  0  0  0  0  0  0  0  0  0  0  0
  142.0200   77.2710  219.4870 C   0  0  0  0  0  0  0  0  0  0  0  0
  141.8180   76.2650  220.5940 C   0  0  2  0  0  0  0  0  0  0  0  0
  142.7010   75.0870  220.4770 C   0  0  0  0  0  0  0  0  0  0  0  0
  144.0070   75.2500  220.0060 C   0  0  0  0  0  0  0  0  0  0  0  0
  144.8390   74.1460  219.8940 C   0  0  0  0  0  0  0  0  0  0  0  0
  144.4240   72.8760  220.2330 C   0  0  0  0  0  0  0  0  0  0  0  0
  145.2300   71.7570  220.1330 O   0  0  0  0  0  0  0  0  0  0  0  0
  143.1340   72.7370  220.6950 C   0  0  0  0  0  0  0  0  0  0  0  0
  142.2620   73.8100  220.8250 C   0  0  0  0  0  0  0  0  0  0  0  0
  139.5500   71.4750  223.0050 C   0  0  0  0  0  0  0  0  0  0  0  0
  139.0910   70.1580  222.9070 C   0  0  0  0  0  0  0  0  0  0  0  0
  139.2460   69.3050  224.0000 C   0  0  0  0  0  0  0  0  0  0  0  0
  139.8350   69.7390  225.1550 C   0  0  0  0  0  0  0  0  0  0  0  0
  139.9860   68.8940  226.2330 C   0  0  0  0  0  0  0  0  0  0  0  0
  140.5910   69.4120  227.3580 C   0  0  0  0  0  0  0  0  0  0  0  0
  140.7810   68.3280  228.7340 Cl  0  0  0  0  0  0  0  0  0  0  0  0
  141.0400   70.6930  227.4630 C   0  0  0  0  0  0  0  0  0  0  0  0
  140.8810   71.5390  226.3650 C   0  0  0  0  0  0  0  0  0  0  0  0
  140.2760   71.0630  225.2030 C   0  0  0  0  0  0  0  0  0  0  0  0
  140.1240   71.8760  224.1480 N   0  0  0  0  0  0  0  0  0  0  0  0
  138.2880   73.8090  223.0220 H   0  0  0  0  0  0  0  0  0  0  0  0
  138.7711   73.9539  220.0421 H   0  0  0  0  0  0  0  0  0  0  0  0
  137.4473   74.8031  220.9730 H   0  0  0  0  0  0  0  0  0  0  0  0
  141.0289   74.3955  218.7261 H   0  0  0  0  0  0  0  0  0  0  0  0
  139.6543   75.3861  218.2862 H   0  0  0  0  0  0  0  0  0  0  0  0
  142.4447   75.9615  217.8167 H   0  0  0  0  0  0  0  0  0  0  0  0
  141.1046   77.0801  217.5186 H   0  0  0  0  0  0  0  0  0  0  0  0
  143.0730   77.5783  219.4041 H   0  0  0  0  0  0  0  0  0  0  0  0
  141.4761   78.2176  219.6216 H   0  0  0  0  0  0  0  0  0  0  0  0
  141.9864   76.6946  221.5925 H   0  0  0  0  0  0  0  0  0  0  0  0
  144.3730   76.2487  219.7256 H   0  0  0  0  0  0  0  0  0  0  0  0
  145.8644   74.2887  219.5222 H   0  0  0  0  0  0  0  0  0  0  0  0
  145.9410   71.5410  220.8180 H   0  0  0  0  0  0  0  0  0  0  0  0
  142.7794   71.7335  220.9728 H   0  0  0  0  0  0  0  0  0  0  0  0
  141.2387   73.6546  221.1975 H   0  0  0  0  0  0  0  0  0  0  0  0
  138.6150   69.7999  221.9823 H   0  0  0  0  0  0  0  0  0  0  0  0
  138.8887   68.2669  223.9315 H   0  0  0  0  0  0  0  0  0  0  0  0
  139.6386   67.8509  226.1973 H   0  0  0  0  0  0  0  0  0  0  0  0
  141.5151   71.0512  228.3882 H   0  0  0  0  0  0  0  0  0  0  0  0
  141.2325   72.5801  226.4163 H   0  0  0  0  0  0  0  0  0  0  0  0
  1  2  2  0
  2  3  1  0
  3  4  1  0
  4  5  1  0
  5  6  2  0
  5  7  1  0
  7  8  1  0
  8  9  1  0
  9 10  1  0
 10 11  1  0
 11 12  1  0
 12 13  2  0
 13 14  1  0
 14 15  2  0
 15 16  1  0
 15 17  1  0
 17 18  2  0
  2 19  1  0
 19 20  2  0
 20 21  1  0
 21 22  2  0
 22 23  1  0
 23 24  2  0
 24 25  1  0
 24 26  1  0
 26 27  2  0
 27 28  1  0
 28 29  2  0
 11  7  1  0
 18 12  1  0
 29 19  1  0
 28 22  1  0
  3 30  1  0
  4 31  1  0
  4 32  1  0
  8 33  1  0
  8 34  1  0
  9 35  1  0
  9 36  1  0
 10 37  1  0
 10 38  1  0
 11 39  1  1
 13 40  1  0
 14 41  1  0
 16 42  1  0
 17 43  1  0
 18 44  1  0
 20 45  1  0
 21 46  1  0
 23 47  1  0
 26 48  1  0
 27 49  1  0
M  END
>  <smiles>  (16) 
O=C(NCC(=O)N1CCCC1c1ccc(O)cc1)c1ccc2cc(Cl)ccc2n1

>  <score_type>  (16) 
oracle

>  <origin>  (16) 
autodockgpu

>  <m_score__min__energy>  (16) 
-8.3200000000000003

>  <m_primary>  (16) 
energy

>  <rmsd>  (16) 
1.399018035136623

>  <m_score__min__rmsd>  (16) 
1.399018035136623

>  <meeko>  (16) 
{"free_energy": -7.8, "intermolecular_energy": -9.59, "internal_energy": -1.56, "cluster_size": 12, "cluster_id": 3, "rank_in_cluster": 8}

>  <energy>  (16) 
-8.03

>  <cluster_rmsd>  (16) 
1.5

>  <cluster>  (16) 
2

$$$$

     RDKit          3D

 49 52  0  0  0  0  0  0  0  0999 V2000
  140.7160   72.7060  220.9350 O   0  0  0  0  0  0  0  0  0  0  0  0
  140.0560   72.8810  221.9820 C   0  0  0  0  0  0  0  0  0  0  0  0
  139.2680   74.0540  222.1470 N   0  0  0  0  0  0  0  0  0  0  0  0
  139.2540   75.0150  221.0920 C   0  0  0  0  0  0  0  0  0  0  0  0
  140.5490   75.7230  220.9140 C   0  0  0  0  0  0  0  0  0  0  0  0
  140.9480   76.5920  221.7460 O   0  0  0  0  0  0  0  0  0  0  0  0
  141.3180   75.3780  219.7680 N   0  0  0  0  0  0  0  0  0  0  0  0
  141.0360   74.3900  218.7370 C   0  0  0  0  0  0  0  0  0  0  0  0
  141.5790   75.0450  217.4800 C   0  0  0  0  0  0  0  0  0  0  0  0
  142.2580   76.3270  217.9370 C   0  0  0  0  0  0  0  0  0  0  0  0
  142.6090   75.9580  219.3580 C   0  0  2  0  0  0  0  0  0  0  0  0
  143.5810   74.8500  219.4480 C   0  0  0  0  0  0  0  0  0  0  0  0
  144.2450   74.4220  218.2950 C   0  0  0  0  0  0  0  0  0  0  0  0
  145.1590   73.3820  218.3750 C   0  0  0  0  0  0  0  0  0  0  0  0
  145.4420   72.7430  219.5630 C   0  0  0  0  0  0  0  0  0  0  0  0
  146.3470   71.7030  219.6740 O   0  0  0  0  0  0  0  0  0  0  0  0
  144.7770   73.1790  220.6870 C   0  0  0  0  0  0  0  0  0  0  0  0
  143.8530   74.2150  220.6600 C   0  0  0  0  0  0  0  0  0  0  0  0
  140.0510   71.9050  223.0920 C   0  0  0  0  0  0  0  0  0  0  0  0
  139.5230   70.6290  222.8720 C   0  0  0  0  0  0  0  0  0  0  0  0
  139.5190   69.7090  223.9200 C   0  0  0  0  0  0  0  0  0  0  0  0
  140.0210   70.0380  225.1480 C   0  0  0  0  0  0  0  0  0  0  0  0
  140.0150   69.1260  226.1810 C   0  0  0  0  0  0  0  0  0  0  0  0
  140.5400   69.5390  227.3870 C   0  0  0  0  0  0  0  0  0  0  0  0
  140.5300   68.3700  228.7060 Cl  0  0  0  0  0  0  0  0  0  0  0  0
  141.0550   70.7790  227.6120 C   0  0  0  0  0  0  0  0  0  0  0  0
  141.0550   71.6930  226.5580 C   0  0  0  0  0  0  0  0  0  0  0  0
  140.5360   71.3240  225.3180 C   0  0  0  0  0  0  0  0  0  0  0  0
  140.5370   72.2020  224.3060 N   0  0  0  0  0  0  0  0  0  0  0  0
  138.7140   74.1970  223.0320 H   0  0  0  0  0  0  0  0  0  0  0  0
  139.0091   74.4969  220.1530 H   0  0  0  0  0  0  0  0  0  0  0  0
  138.5049   75.7752  221.3584 H   0  0  0  0  0  0  0  0  0  0  0  0
  141.5546   73.4424  218.9448 H   0  0  0  0  0  0  0  0  0  0  0  0
  139.9695   74.1305  218.6649 H   0  0  0  0  0  0  0  0  0  0  0  0
  142.3053   74.3824  216.9866 H   0  0  0  0  0  0  0  0  0  0  0  0
  140.7788   75.2491  216.7534 H   0  0  0  0  0  0  0  0  0  0  0  0
  143.1557   76.5465  217.3404 H   0  0  0  0  0  0  0  0  0  0  0  0
  141.6431   77.2335  217.8364 H   0  0  0  0  0  0  0  0  0  0  0  0
  143.0316   76.8019  219.9230 H   0  0  0  0  0  0  0  0  0  0  0  0
  144.0436   74.9077  217.3288 H   0  0  0  0  0  0  0  0  0  0  0  0
  145.6753   73.0563  217.4599 H   0  0  0  0  0  0  0  0  0  0  0  0
  146.4490   71.1650  220.5240 H   0  0  0  0  0  0  0  0  0  0  0  0
  144.9867   72.6855  221.6474 H   0  0  0  0  0  0  0  0  0  0  0  0
  143.3424   74.5308  221.5817 H   0  0  0  0  0  0  0  0  0  0  0  0
  139.1169   70.3550  221.8871 H   0  0  0  0  0  0  0  0  0  0  0  0
  139.1055   68.7030  223.7559 H   0  0  0  0  0  0  0  0  0  0  0  0
  139.6089   68.1123  226.0491 H   0  0  0  0  0  0  0  0  0  0  0  0
  141.4599   71.0526  228.5975 H   0  0  0  0  0  0  0  0  0  0  0  0
  141.4640   72.7035  226.7053 H   0  0  0  0  0  0  0  0  0  0  0  0
  1  2  2  0
  2  3  1  0
  3  4  1  0
  4  5  1  0
  5  6  2  0
  5  7  1  0
  7  8  1  0
  8  9  1  0
  9 10  1  0
 10 11  1  0
 11 12  1  0
 12 13  2  0
 13 14  1  0
 14 15  2  0
 15 16  1  0
 15 17  1  0
 17 18  2  0
  2 19  1  0
 19 20  2  0
 20 21  1  0
 21 22  2  0
 22 23  1  0
 23 24  2  0
 24 25  1  0
 24 26  1  0
 26 27  2  0
 27 28  1  0
 28 29  2  0
 11  7  1  0
 18 12  1  0
 29 19  1  0
 28 22  1  0
  3 30  1  0
  4 31  1  0
  4 32  1  0
  8 33  1  0
  8 34  1  0
  9 35  1  0
  9 36  1  0
 10 37  1  0
 10 38  1  0
 11 39  1  1
 13 40  1  0
 14 41  1  0
 16 42  1  0
 17 43  1  0
 18 44  1  0
 20 45  1  0
 21 46  1  0
 23 47  1  0
 26 48  1  0
 27 49  1  0
M  END
>  <smiles>  (17) 
O=C(NCC(=O)N1CCCC1c1ccc(O)cc1)c1ccc2cc(Cl)ccc2n1

>  <score_type>  (17) 
oracle

>  <origin>  (17) 
autodockgpu

>  <m_score__min__energy>  (17) 
-8.3200000000000003

>  <m_primary>  (17) 
energy

>  <rmsd>  (17) 
1.7564150481837504

>  <m_score__min__rmsd>  (17) 
1.7564150481837504

>  <meeko>  (17) 
{"free_energy": -8.21, "intermolecular_energy": -10.0, "internal_energy": -1.2, "cluster_size": 12, "cluster_id": 3, "rank_in_cluster": 2}

>  <energy>  (17) 
-8.02

>  <cluster_rmsd>  (17) 
1.28

>  <cluster>  (17) 
2

$$$$

     RDKit          3D

 49 52  0  0  0  0  0  0  0  0999 V2000
  138.5280   73.4820  220.3040 O   0  0  0  0  0  0  0  0  0  0  0  0
  138.4000   74.1690  221.3400 C   0  0  0  0  0  0  0  0  0  0  0  0
  137.3920   73.8530  222.2920 N   0  0  0  0  0  0  0  0  0  0  0  0
  136.5400   72.7380  222.0320 C   0  0  0  0  0  0  0  0  0  0  0  0
  136.8630   71.5380  222.8480 C   0  0  0  0  0  0  0  0  0  0  0  0
  135.9620   70.8960  223.4660 O   0  0  0  0  0  0  0  0  0  0  0  0
  138.2300   71.1470  222.9010 N   0  0  0  0  0  0  0  0  0  0  0  0
  138.9510   70.2130  222.0490 C   0  0  0  0  0  0  0  0  0  0  0  0
  140.3290   70.8410  221.9440 C   0  0  0  0  0  0  0  0  0  0  0  0
  140.3120   72.0420  222.8770 C   0  0  0  0  0  0  0  0  0  0  0  0
  139.2500   71.6110  223.8580 C   0  0  2  0  0  0  0  0  0  0  0  0
  139.6280   70.4140  224.6360 C   0  0  0  0  0  0  0  0  0  0  0  0
  140.9220   70.3110  225.1540 C   0  0  0  0  0  0  0  0  0  0  0  0
  141.2820   69.1880  225.8850 C   0  0  0  0  0  0  0  0  0  0  0  0
  140.4020   68.1550  226.1250 C   0  0  0  0  0  0  0  0  0  0  0  0
  140.7300   67.0240  226.8490 O   0  0  0  0  0  0  0  0  0  0  0  0
  139.1320   68.2760  225.6060 C   0  0  0  0  0  0  0  0  0  0  0  0
  138.7220   69.3780  224.8670 C   0  0  0  0  0  0  0  0  0  0  0  0
  139.2670   75.3290  221.6370 C   0  0  0  0  0  0  0  0  0  0  0  0
  140.6040   75.3010  221.2260 C   0  0  0  0  0  0  0  0  0  0  0  0
  141.4210   76.3960  221.5070 C   0  0  0  0  0  0  0  0  0  0  0  0
  140.9340   77.4850  222.1740 C   0  0  0  0  0  0  0  0  0  0  0  0
  141.7440   78.5650  222.4500 C   0  0  0  0  0  0  0  0  0  0  0  0
  141.1740   79.6230  223.1260 C   0  0  0  0  0  0  0  0  0  0  0  0
  142.2140   81.0010  223.4770 Cl  0  0  0  0  0  0  0  0  0  0  0  0
  139.8750   79.6590  223.5310 C   0  0  0  0  0  0  0  0  0  0  0  0
  139.0640   78.5600  223.2450 C   0  0  0  0  0  0  0  0  0  0  0  0
  139.5940   77.4650  222.5640 C   0  0  0  0  0  0  0  0  0  0  0  0
  138.8150   76.4100  222.2890 N   0  0  0  0  0  0  0  0  0  0  0  0
  137.2890   74.4360  223.1640 H   0  0  0  0  0  0  0  0  0  0  0  0
  135.5030   73.0355  222.2467 H   0  0  0  0  0  0  0  0  0  0  0  0
  136.6862   72.4597  220.9779 H   0  0  0  0  0  0  0  0  0  0  0  0
  139.0048   69.2164  222.5116 H   0  0  0  0  0  0  0  0  0  0  0  0
  138.4700   70.0571  221.0721 H   0  0  0  0  0  0  0  0  0  0  0  0
  141.1014   70.1235  222.2580 H   0  0  0  0  0  0  0  0  0  0  0  0
  140.5605   71.1362  220.9100 H   0  0  0  0  0  0  0  0  0  0  0  0
  141.2848   72.1879  223.3693 H   0  0  0  0  0  0  0  0  0  0  0  0
  140.1163   73.0048  222.3823 H   0  0  0  0  0  0  0  0  0  0  0  0
  138.9988   72.3990  224.5833 H   0  0  0  0  0  0  0  0  0  0  0  0
  141.6515   71.1164  224.9830 H   0  0  0  0  0  0  0  0  0  0  0  0
  142.3039   69.1200  226.2863 H   0  0  0  0  0  0  0  0  0  0  0  0
  140.1200   66.6420  227.5600 H   0  0  0  0  0  0  0  0  0  0  0  0
  138.4111   67.4645  225.7846 H   0  0  0  0  0  0  0  0  0  0  0  0
  137.6978   69.4335  224.4695 H   0  0  0  0  0  0  0  0  0  0  0  0
  141.0049   74.4285  220.6893 H   0  0  0  0  0  0  0  0  0  0  0  0
  142.4733   76.3829  221.1869 H   0  0  0  0  0  0  0  0  0  0  0  0
  142.8005   78.5824  222.1440 H   0  0  0  0  0  0  0  0  0  0  0  0
  139.4752   80.5310  224.0693 H   0  0  0  0  0  0  0  0  0  0  0  0
  138.0089   78.5577  223.5562 H   0  0  0  0  0  0  0  0  0  0  0  0
  1  2  2  0
  2  3  1  0
  3  4  1  0
  4  5  1  0
  5  6  2  0
  5  7  1  0
  7  8  1  0
  8  9  1  0
  9 10  1  0
 10 11  1  0
 11 12  1  0
 12 13  2  0
 13 14  1  0
 14 15  2  0
 15 16  1  0
 15 17  1  0
 17 18  2  0
  2 19  1  0
 19 20  2  0
 20 21  1  0
 21 22  2  0
 22 23  1  0
 23 24  2  0
 24 25  1  0
 24 26  1  0
 26 27  2  0
 27 28  1  0
 28 29  2  0
 11  7  1  0
 18 12  1  0
 29 19  1  0
 28 22  1  0
  3 30  1  0
  4 31  1  0
  4 32  1  0
  8 33  1  0
  8 34  1  0
  9 35  1  0
  9 36  1  0
 10 37  1  0
 10 38  1  0
 11 39  1  1
 13 40  1  0
 14 41  1  0
 16 42  1  0
 17 43  1  0
 18 44  1  0
 20 45  1  0
 21 46  1  0
 23 47  1  0
 26 48  1  0
 27 49  1  0
M  END
>  <smiles>  (18) 
O=C(NCC(=O)N1CCCC1c1ccc(O)cc1)c1ccc2cc(Cl)ccc2n1

>  <score_type>  (18) 
oracle

>  <origin>  (18) 
autodockgpu

>  <m_score__min__energy>  (18) 
-8.3200000000000003

>  <m_primary>  (18) 
energy

>  <rmsd>  (18) 
7.175904450434907

>  <m_score__min__rmsd>  (18) 
7.175904450434907

>  <meeko>  (18) 
{"free_energy": -7.16, "intermolecular_energy": -8.95, "internal_energy": -1.68, "cluster_size": 3, "cluster_id": 4, "rank_in_cluster": 3}

>  <energy>  (18) 
-8.01

>  <cluster_rmsd>  (18) 
0.7

>  <cluster>  (18) 
2

$$$$

     RDKit          3D

 49 52  0  0  0  0  0  0  0  0999 V2000
  140.7460   73.3710  220.4000 O   0  0  0  0  0  0  0  0  0  0  0  0
  140.2250   74.1910  221.1860 C   0  0  0  0  0  0  0  0  0  0  0  0
  139.1810   73.7820  222.0620 N   0  0  0  0  0  0  0  0  0  0  0  0
  138.7510   72.4220  222.0170 C   0  0  0  0  0  0  0  0  0  0  0  0
  139.6380   71.4930  222.7650 C   0  0  0  0  0  0  0  0  0  0  0  0
  140.8990   71.5490  222.6530 O   0  0  0  0  0  0  0  0  0  0  0  0
  139.0040   70.5400  223.6100 N   0  0  0  0  0  0  0  0  0  0  0  0
  137.8900   70.7240  224.5280 C   0  0  0  0  0  0  0  0  0  0  0  0
  137.1320   69.4130  224.4130 C   0  0  0  0  0  0  0  0  0  0  0  0
  137.9740   68.5220  223.5130 C   0  0  0  0  0  0  0  0  0  0  0  0
  139.3440   69.1130  223.7490 C   0  0  2  0  0  0  0  0  0  0  0  0
  139.8120   68.9570  225.1410 C   0  0  0  0  0  0  0  0  0  0  0  0
  140.6240   69.9430  225.7080 C   0  0  0  0  0  0  0  0  0  0  0  0
  141.0660   69.8020  227.0150 C   0  0  0  0  0  0  0  0  0  0  0  0
  140.7320   68.7110  227.7890 C   0  0  0  0  0  0  0  0  0  0  0  0
  141.1570   68.5410  229.0930 O   0  0  0  0  0  0  0  0  0  0  0  0
  139.9310   67.7510  227.2120 C   0  0  0  0  0  0  0  0  0  0  0  0
  139.4630   67.8450  225.9080 C   0  0  0  0  0  0  0  0  0  0  0  0
  140.6480   75.6050  221.2570 C   0  0  0  0  0  0  0  0  0  0  0  0
  141.6350   76.0620  220.3780 C   0  0  0  0  0  0  0  0  0  0  0  0
  142.0340   77.3980  220.4450 C   0  0  0  0  0  0  0  0  0  0  0  0
  141.4750   78.2550  221.3510 C   0  0  0  0  0  0  0  0  0  0  0  0
  141.8710   79.5730  221.4150 C   0  0  0  0  0  0  0  0  0  0  0  0
  141.2570   80.3700  222.3570 C   0  0  0  0  0  0  0  0  0  0  0  0
  141.7670   82.0550  222.4350 Cl  0  0  0  0  0  0  0  0  0  0  0  0
  140.2950   79.9340  223.2160 C   0  0  0  0  0  0  0  0  0  0  0  0
  139.9030   78.5970  223.1430 C   0  0  0  0  0  0  0  0  0  0  0  0
  140.4940   77.7500  222.2060 C   0  0  0  0  0  0  0  0  0  0  0  0
  140.1160   76.4670  222.1350 N   0  0  0  0  0  0  0  0  0  0  0  0
  138.7440   74.4780  222.7230 H   0  0  0  0  0  0  0  0  0  0  0  0
  137.7411   72.3620  222.4488 H   0  0  0  0  0  0  0  0  0  0  0  0
  138.7738   72.1109  220.9621 H   0  0  0  0  0  0  0  0  0  0  0  0
  138.2472   70.8852  225.5558 H   0  0  0  0  0  0  0  0  0  0  0  0
  137.2734   71.6034  224.2904 H   0  0  0  0  0  0  0  0  0  0  0  0
  137.0127   68.9518  225.4045 H   0  0  0  0  0  0  0  0  0  0  0  0
  136.1232   69.5646  224.0014 H   0  0  0  0  0  0  0  0  0  0  0  0
  137.9266   67.4682  223.8249 H   0  0  0  0  0  0  0  0  0  0  0  0
  137.6573   68.5025  222.4598 H   0  0  0  0  0  0  0  0  0  0  0  0
  140.1140   68.6706  223.0998 H   0  0  0  0  0  0  0  0  0  0  0  0
  140.9114   70.8272  225.1201 H   0  0  0  0  0  0  0  0  0  0  0  0
  141.7040   70.5864  227.4483 H   0  0  0  0  0  0  0  0  0  0  0  0
  142.1360   68.5080  229.3420 H   0  0  0  0  0  0  0  0  0  0  0  0
  139.6497   66.8716  227.8099 H   0  0  0  0  0  0  0  0  0  0  0  0
  138.8260   67.0538  225.4857 H   0  0  0  0  0  0  0  0  0  0  0  0
  142.0899   75.3793  219.6452 H   0  0  0  0  0  0  0  0  0  0  0  0
  142.8101   77.7666  219.7582 H   0  0  0  0  0  0  0  0  0  0  0  0
  142.6446   79.9724  220.7426 H   0  0  0  0  0  0  0  0  0  0  0  0
  139.8392   80.6172  223.9477 H   0  0  0  0  0  0  0  0  0  0  0  0
  139.1292   78.2117  223.8233 H   0  0  0  0  0  0  0  0  0  0  0  0
  1  2  2  0
  2  3  1  0
  3  4  1  0
  4  5  1  0
  5  6  2  0
  5  7  1  0
  7  8  1  0
  8  9  1  0
  9 10  1  0
 10 11  1  0
 11 12  1  0
 12 13  2  0
 13 14  1  0
 14 15  2  0
 15 16  1  0
 15 17  1  0
 17 18  2  0
  2 19  1  0
 19 20  2  0
 20 21  1  0
 21 22  2  0
 22 23  1  0
 23 24  2  0
 24 25  1  0
 24 26  1  0
 26 27  2  0
 27 28  1  0
 28 29  2  0
 11  7  1  0
 18 12  1  0
 29 19  1  0
 28 22  1  0
  3 30  1  0
  4 31  1  0
  4 32  1  0
  8 33  1  0
  8 34  1  0
  9 35  1  0
  9 36  1  0
 10 37  1  0
 10 38  1  0
 11 39  1  6
 13 40  1  0
 14 41  1  0
 16 42  1  0
 17 43  1  0
 18 44  1  0
 20 45  1  0
 21 46  1  0
 23 47  1  0
 26 48  1  0
 27 49  1  0
M  END
>  <smiles>  (19) 
O=C(NCC(=O)N1CCCC1c1ccc(O)cc1)c1ccc2cc(Cl)ccc2n1

>  <score_type>  (19) 
oracle

>  <origin>  (19) 
autodockgpu

>  <m_score__min__energy>  (19) 
-8.3200000000000003

>  <m_primary>  (19) 
energy

>  <rmsd>  (19) 
8.408537632094134

>  <m_score__min__rmsd>  (19) 
8.408537632094134

>  <meeko>  (19) 
{"free_energy": -7.37, "intermolecular_energy": -9.16, "internal_energy": -1.33, "cluster_size": 3, "cluster_id": 4, "rank_in_cluster": 2}

>  <energy>  (19) 
-8.0

>  <cluster_rmsd>  (19) 
1.07

>  <cluster>  (19) 
2

$$$$

     RDKit          3D

 49 52  0  0  0  0  0  0  0  0999 V2000
  138.8330   71.7490  220.8280 O   0  0  0  0  0  0  0  0  0  0  0  0
  139.1530   72.1730  221.9600 C   0  0  0  0  0  0  0  0  0  0  0  0
  139.2730   73.5710  222.1950 N   0  0  0  0  0  0  0  0  0  0  0  0
  139.0190   74.4660  221.1130 C   0  0  0  0  0  0  0  0  0  0  0  0
  139.0530   75.8990  221.5050 C   0  0  0  0  0  0  0  0  0  0  0  0
  138.1500   76.4060  222.2370 O   0  0  0  0  0  0  0  0  0  0  0  0
  140.1450   76.6730  221.0220 N   0  0  0  0  0  0  0  0  0  0  0  0
  141.5380   76.2880  220.8520 C   0  0  0  0  0  0  0  0  0  0  0  0
  141.9470   77.0360  219.5950 C   0  0  0  0  0  0  0  0  0  0  0  0
  140.7580   77.9070  219.2220 C   0  0  0  0  0  0  0  0  0  0  0  0
  140.1090   78.0760  220.5740 C   0  0  2  0  0  0  0  0  0  0  0  0
  140.9530   78.8140  221.5360 C   0  0  0  0  0  0  0  0  0  0  0  0
  140.8980   78.4850  222.8930 C   0  0  0  0  0  0  0  0  0  0  0  0
  141.6890   79.1750  223.8000 C   0  0  0  0  0  0  0  0  0  0  0  0
  142.5380   80.1880  223.4110 C   0  0  0  0  0  0  0  0  0  0  0  0
  143.3380   80.8950  224.2900 O   0  0  0  0  0  0  0  0  0  0  0  0
  142.5770   80.4970  222.0690 C   0  0  0  0  0  0  0  0  0  0  0  0
  141.8060   79.8370  221.1220 C   0  0  0  0  0  0  0  0  0  0  0  0
  139.4230   71.2730  223.1000 C   0  0  0  0  0  0  0  0  0  0  0  0
  139.0840   69.9200  222.9920 C   0  0  0  0  0  0  0  0  0  0  0  0
  139.3390   69.0710  224.0690 C   0  0  0  0  0  0  0  0  0  0  0  0
  139.9110   69.5420  225.2170 C   0  0  0  0  0  0  0  0  0  0  0  0
  140.1610   68.7000  226.2790 C   0  0  0  0  0  0  0  0  0  0  0  0
  140.7400   69.2560  227.3990 C   0  0  0  0  0  0  0  0  0  0  0  0
  141.0580   68.1760  228.7550 Cl  0  0  0  0  0  0  0  0  0  0  0  0
  141.0730   70.5710  227.5140 C   0  0  0  0  0  0  0  0  0  0  0  0
  140.8150   71.4140  226.4330 C   0  0  0  0  0  0  0  0  0  0  0  0
  140.2310   70.8990  225.2760 C   0  0  0  0  0  0  0  0  0  0  0  0
  139.9830   71.7090  224.2370 N   0  0  0  0  0  0  0  0  0  0  0  0
  139.5440   73.9230  223.1510 H   0  0  0  0  0  0  0  0  0  0  0  0
  139.7814   74.2995  220.3378 H   0  0  0  0  0  0  0  0  0  0  0  0
  138.0017   74.2547  220.7519 H   0  0  0  0  0  0  0  0  0  0  0  0
  142.1436   76.6032  221.7145 H   0  0  0  0  0  0  0  0  0  0  0  0
  141.6813   75.2001  220.7756 H   0  0  0  0  0  0  0  0  0  0  0  0
  142.8313   77.6599  219.7918 H   0  0  0  0  0  0  0  0  0  0  0  0
  142.2113   76.3441  218.7817 H   0  0  0  0  0  0  0  0  0  0  0  0
  141.0771   78.8718  218.8008 H   0  0  0  0  0  0  0  0  0  0  0  0
  140.1023   77.4821  218.4477 H   0  0  0  0  0  0  0  0  0  0  0  0
  139.1466   78.6058  220.5183 H   0  0  0  0  0  0  0  0  0  0  0  0
  140.2306   77.6826  223.2404 H   0  0  0  0  0  0  0  0  0  0  0  0
  141.6367   78.9044  224.8649 H   0  0  0  0  0  0  0  0  0  0  0  0
  144.3180   81.0660  224.1090 H   0  0  0  0  0  0  0  0  0  0  0  0
  143.2480   81.3014  221.7335 H   0  0  0  0  0  0  0  0  0  0  0  0
  141.8669   80.1168  220.0599 H   0  0  0  0  0  0  0  0  0  0  0  0
  138.6233   69.5316  222.0717 H   0  0  0  0  0  0  0  0  0  0  0  0
  139.0755   68.0057  223.9929 H   0  0  0  0  0  0  0  0  0  0  0  0
  139.9092   67.6301  226.2345 H   0  0  0  0  0  0  0  0  0  0  0  0
  141.5333   70.9585  228.4349 H   0  0  0  0  0  0  0  0  0  0  0  0
  141.0715   72.4820  226.4930 H   0  0  0  0  0  0  0  0  0  0  0  0
  1  2  2  0
  2  3  1  0
  3  4  1  0
  4  5  1  0
  5  6  2  0
  5  7  1  0
  7  8  1  0
  8  9  1  0
  9 10  1  0
 10 11  1  0
 11 12  1  0
 12 13  2  0
 13 14  1  0
 14 15  2  0
 15 16  1  0
 15 17  1  0
 17 18  2  0
  2 19  1  0
 19 20  2  0
 20 21  1  0
 21 22  2  0
 22 23  1  0
 23 24  2  0
 24 25  1  0
 24 26  1  0
 26 27  2  0
 27 28  1  0
 28 29  2  0
 11  7  1  0
 18 12  1  0
 29 19  1  0
 28 22  1  0
  3 30  1  0
  4 31  1  0
  4 32  1  0
  8 33  1  0
  8 34  1  0
  9 35  1  0
  9 36  1  0
 10 37  1  0
 10 38  1  0
 11 39  1  6
 13 40  1  0
 14 41  1  0
 16 42  1  0
 17 43  1  0
 18 44  1  0
 20 45  1  0
 21 46  1  0
 23 47  1  0
 26 48  1  0
 27 49  1  0
M  END
>  <smiles>  (20) 
O=C(NCC(=O)N1CCCC1c1ccc(O)cc1)c1ccc2cc(Cl)ccc2n1

>  <score_type>  (20) 
oracle

>  <origin>  (20) 
autodockgpu

>  <m_score__min__energy>  (20) 
-8.3200000000000003

>  <m_primary>  (20) 
energy

>  <rmsd>  (20) 
1.9227760948159418

>  <m_score__min__rmsd>  (20) 
1.9227760948159418

>  <meeko>  (20) 
{"free_energy": -8.09, "intermolecular_energy": -9.88, "internal_energy": -1.32, "cluster_size": 24, "cluster_id": 2, "rank_in_cluster": 4}

>  <energy>  (20) 
-8.0

>  <cluster_rmsd>  (20) 
1.21

>  <cluster>  (20) 
2

$$$$

     RDKit          3D

 49 52  0  0  0  0  0  0  0  0999 V2000
  140.1040   72.3400  220.6740 O   0  0  0  0  0  0  0  0  0  0  0  0
  139.9300   72.7210  221.8520 C   0  0  0  0  0  0  0  0  0  0  0  0
  139.7200   74.0980  222.1380 N   0  0  0  0  0  0  0  0  0  0  0  0
  139.7130   75.0230  221.0510 C   0  0  0  0  0  0  0  0  0  0  0  0
  141.0660   75.3100  220.5050 C   0  0  0  0  0  0  0  0  0  0  0  0
  141.9160   74.3860  220.3250 O   0  0  0  0  0  0  0  0  0  0  0  0
  141.3600   76.6670  220.1940 N   0  0  0  0  0  0  0  0  0  0  0  0
  142.5900   77.2440  219.6730 C   0  0  0  0  0  0  0  0  0  0  0  0
  142.0880   78.3450  218.7550 C   0  0  0  0  0  0  0  0  0  0  0  0
  140.5790   78.3860  218.9390 C   0  0  0  0  0  0  0  0  0  0  0  0
  140.4590   77.8240  220.3350 C   0  0  2  0  0  0  0  0  0  0  0  0
  141.0840   78.6820  221.3630 C   0  0  0  0  0  0  0  0  0  0  0  0
  141.4390   78.1290  222.5960 C   0  0  0  0  0  0  0  0  0  0  0  0
  142.0260   78.9310  223.5640 C   0  0  0  0  0  0  0  0  0  0  0  0
  142.2770   80.2700  223.3550 C   0  0  0  0  0  0  0  0  0  0  0  0
  142.8600   81.0940  224.2990 O   0  0  0  0  0  0  0  0  0  0  0  0
  141.9200   80.7940  222.1330 C   0  0  0  0  0  0  0  0  0  0  0  0
  141.3290   80.0350  221.1310 C   0  0  0  0  0  0  0  0  0  0  0  0
  139.9330   71.7880  222.9980 C   0  0  0  0  0  0  0  0  0  0  0  0
  139.3480   70.5260  222.8480 C   0  0  0  0  0  0  0  0  0  0  0  0
  139.3510   69.6460  223.9300 C   0  0  0  0  0  0  0  0  0  0  0  0
  139.9130   70.0010  225.1240 C   0  0  0  0  0  0  0  0  0  0  0  0
  139.9140   69.1290  226.1920 C   0  0  0  0  0  0  0  0  0  0  0  0
  140.5020   69.5650  227.3600 C   0  0  0  0  0  0  0  0  0  0  0  0
  140.5010   68.4480  228.7220 Cl  0  0  0  0  0  0  0  0  0  0  0  0
  141.0730   70.7910  227.5160 C   0  0  0  0  0  0  0  0  0  0  0  0
  141.0660   71.6650  226.4280 C   0  0  0  0  0  0  0  0  0  0  0  0
  140.4840   71.2710  225.2250 C   0  0  0  0  0  0  0  0  0  0  0  0
  140.4780   72.1100  224.1800 N   0  0  0  0  0  0  0  0  0  0  0  0
  139.5750   74.4140  223.1330 H   0  0  0  0  0  0  0  0  0  0  0  0
  139.0934   74.6060  220.2434 H   0  0  0  0  0  0  0  0  0  0  0  0
  139.3131   75.9720  221.4375 H   0  0  0  0  0  0  0  0  0  0  0  0
  143.2079   77.6565  220.4842 H   0  0  0  0  0  0  0  0  0  0  0  0
  143.2303   76.5106  219.1610 H   0  0  0  0  0  0  0  0  0  0  0  0
  142.5340   79.3104  219.0361 H   0  0  0  0  0  0  0  0  0  0  0  0
  142.3618   78.1530  217.7071 H   0  0  0  0  0  0  0  0  0  0  0  0
  140.1900   79.4132  218.8795 H   0  0  0  0  0  0  0  0  0  0  0  0
  140.0080   77.8401  218.1735 H   0  0  0  0  0  0  0  0  0  0  0  0
  139.4138   77.6668  220.6397 H   0  0  0  0  0  0  0  0  0  0  0  0
  141.2541   77.0637  222.7981 H   0  0  0  0  0  0  0  0  0  0  0  0
  142.3003   78.4833  224.5306 H   0  0  0  0  0  0  0  0  0  0  0  0
  143.7110   80.8420  224.7850 H   0  0  0  0  0  0  0  0  0  0  0  0
  142.1111   81.8603  221.9418 H   0  0  0  0  0  0  0  0  0  0  0  0
  141.0583   80.4944  220.1689 H   0  0  0  0  0  0  0  0  0  0  0  0
  138.8924   70.2322  221.8909 H   0  0  0  0  0  0  0  0  0  0  0  0
  138.8942   68.6513  223.8206 H   0  0  0  0  0  0  0  0  0  0  0  0
  139.4647   68.1279  226.1153 H   0  0  0  0  0  0  0  0  0  0  0  0
  141.5276   71.0847  228.4737 H   0  0  0  0  0  0  0  0  0  0  0  0
  141.5191   72.6631  226.5200 H   0  0  0  0  0  0  0  0  0  0  0  0
  1  2  2  0
  2  3  1  0
  3  4  1  0
  4  5  1  0
  5  6  2  0
  5  7  1  0
  7  8  1  0
  8  9  1  0
  9 10  1  0
 10 11  1  0
 11 12  1  0
 12 13  2  0
 13 14  1  0
 14 15  2  0
 15 16  1  0
 15 17  1  0
 17 18  2  0
  2 19  1  0
 19 20  2  0
 20 21  1  0
 21 22  2  0
 22 23  1  0
 23 24  2  0
 24 25  1  0
 24 26  1  0
 26 27  2  0
 27 28  1  0
 28 29  2  0
 11  7  1  0
 18 12  1  0
 29 19  1  0
 28 22  1  0
  3 30  1  0
  4 31  1  0
  4 32  1  0
  8 33  1  0
  8 34  1  0
  9 35  1  0
  9 36  1  0
 10 37  1  0
 10 38  1  0
 11 39  1  1
 13 40  1  0
 14 41  1  0
 16 42  1  0
 17 43  1  0
 18 44  1  0
 20 45  1  0
 21 46  1  0
 23 47  1  0
 26 48  1  0
 27 49  1  0
M  END
>  <smiles>  (21) 
O=C(NCC(=O)N1CCCC1c1ccc(O)cc1)c1ccc2cc(Cl)ccc2n1

>  <score_type>  (21) 
oracle

>  <origin>  (21) 
autodockgpu

>  <m_score__min__energy>  (21) 
-8.3200000000000003

>  <m_primary>  (21) 
energy

>  <rmsd>  (21) 
2.2459215760580156

>  <m_score__min__rmsd>  (21) 
2.2459215760580156

>  <meeko>  (21) 
{"free_energy": -8.06, "intermolecular_energy": -9.85, "internal_energy": -1.15, "cluster_size": 24, "cluster_id": 2, "rank_in_cluster": 9}

>  <energy>  (21) 
-7.97

>  <cluster_rmsd>  (21) 
1.2

>  <cluster>  (21) 
2

$$$$

     RDKit          3D

 49 52  0  0  0  0  0  0  0  0999 V2000
  140.5080   72.8380  220.8170 O   0  0  0  0  0  0  0  0  0  0  0  0
  140.0950   73.0590  221.9760 C   0  0  0  0  0  0  0  0  0  0  0  0
  139.6090   74.3480  222.3310 N   0  0  0  0  0  0  0  0  0  0  0  0
  139.6060   75.3700  221.3350 C   0  0  0  0  0  0  0  0  0  0  0  0
  140.2010   76.6520  221.7970 C   0  0  0  0  0  0  0  0  0  0  0  0
  141.0900   76.6810  222.7000 O   0  0  0  0  0  0  0  0  0  0  0  0
  139.7270   77.8410  221.1770 N   0  0  0  0  0  0  0  0  0  0  0  0
  138.8540   77.9890  220.0210 C   0  0  0  0  0  0  0  0  0  0  0  0
  138.0290   79.2150  220.3720 C   0  0  0  0  0  0  0  0  0  0  0  0
  138.6080   79.7500  221.6720 C   0  0  0  0  0  0  0  0  0  0  0  0
  140.0220   79.2290  221.5760 C   0  0  2  0  0  0  0  0  0  0  0  0
  140.7800   79.8070  220.4480 C   0  0  0  0  0  0  0  0  0  0  0  0
  141.6890   79.0080  219.7500 C   0  0  0  0  0  0  0  0  0  0  0  0
  142.4030   79.5460  218.6890 C   0  0  0  0  0  0  0  0  0  0  0  0
  142.2500   80.8570  218.2910 C   0  0  0  0  0  0  0  0  0  0  0  0
  142.9460   81.4230  217.2390 O   0  0  0  0  0  0  0  0  0  0  0  0
  141.3490   81.6270  218.9930 C   0  0  0  0  0  0  0  0  0  0  0  0
  140.6100   81.1360  220.0610 C   0  0  0  0  0  0  0  0  0  0  0  0
  140.0860   72.0220  223.0290 C   0  0  0  0  0  0  0  0  0  0  0  0
  139.5570   70.7620  222.7350 C   0  0  0  0  0  0  0  0  0  0  0  0
  139.5490   69.7830  223.7290 C   0  0  0  0  0  0  0  0  0  0  0  0
  140.0480   70.0410  224.9750 C   0  0  0  0  0  0  0  0  0  0  0  0
  140.0380   69.0720  225.9550 C   0  0  0  0  0  0  0  0  0  0  0  0
  140.5610   69.4150  227.1840 C   0  0  0  0  0  0  0  0  0  0  0  0
  140.5460   68.1740  228.4340 Cl  0  0  0  0  0  0  0  0  0  0  0  0
  141.0780   70.6390  227.4790 C   0  0  0  0  0  0  0  0  0  0  0  0
  141.0820   71.6120  226.4790 C   0  0  0  0  0  0  0  0  0  0  0  0
  140.5650   71.3150  225.2190 C   0  0  0  0  0  0  0  0  0  0  0  0
  140.5700   72.2490  224.2580 N   0  0  0  0  0  0  0  0  0  0  0  0
  139.2620   74.5290  223.3100 H   0  0  0  0  0  0  0  0  0  0  0  0
  140.1805   75.0124  220.4678 H   0  0  0  0  0  0  0  0  0  0  0  0
  138.5545   75.5737  221.0845 H   0  0  0  0  0  0  0  0  0  0  0  0
  139.4375   78.1544  219.1033 H   0  0  0  0  0  0  0  0  0  0  0  0
  138.2422   77.0967  219.8222 H   0  0  0  0  0  0  0  0  0  0  0  0
  138.1105   79.9711  219.5773 H   0  0  0  0  0  0  0  0  0  0  0  0
  136.9625   78.9670  220.4773 H   0  0  0  0  0  0  0  0  0  0  0  0
  138.5813   80.8491  221.7069 H   0  0  0  0  0  0  0  0  0  0  0  0
  138.0654   79.4413  222.5777 H   0  0  0  0  0  0  0  0  0  0  0  0
  140.6071   79.4216  222.4874 H   0  0  0  0  0  0  0  0  0  0  0  0
  141.8379   77.9575  220.0402 H   0  0  0  0  0  0  0  0  0  0  0  0
  143.1146   78.9054  218.1475 H   0  0  0  0  0  0  0  0  0  0  0  0
  143.6430   80.9110  216.7160 H   0  0  0  0  0  0  0  0  0  0  0  0
  141.2089   82.6764  218.6945 H   0  0  0  0  0  0  0  0  0  0  0  0
  139.9006   81.7860  220.5942 H   0  0  0  0  0  0  0  0  0  0  0  0
  139.1531   70.5456  221.7350 H   0  0  0  0  0  0  0  0  0  0  0  0
  139.1348   68.7885  223.5066 H   0  0  0  0  0  0  0  0  0  0  0  0
  139.6303   68.0682  225.7650 H   0  0  0  0  0  0  0  0  0  0  0  0
  141.4819   70.8553  228.4790 H   0  0  0  0  0  0  0  0  0  0  0  0
  141.4924   72.6117  226.6845 H   0  0  0  0  0  0  0  0  0  0  0  0
  1  2  2  0
  2  3  1  0
  3  4  1  0
  4  5  1  0
  5  6  2  0
  5  7  1  0
  7  8  1  0
  8  9  1  0
  9 10  1  0
 10 11  1  0
 11 12  1  0
 12 13  2  0
 13 14  1  0
 14 15  2  0
 15 16  1  0
 15 17  1  0
 17 18  2  0
  2 19  1  0
 19 20  2  0
 20 21  1  0
 21 22  2  0
 22 23  1  0
 23 24  2  0
 24 25  1  0
 24 26  1  0
 26 27  2  0
 27 28  1  0
 28 29  2  0
 11  7  1  0
 18 12  1  0
 29 19  1  0
 28 22  1  0
  3 30  1  0
  4 31  1  0
  4 32  1  0
  8 33  1  0
  8 34  1  0
  9 35  1  0
  9 36  1  0
 10 37  1  0
 10 38  1  0
 11 39  1  1
 13 40  1  0
 14 41  1  0
 16 42  1  0
 17 43  1  0
 18 44  1  0
 20 45  1  0
 21 46  1  0
 23 47  1  0
 26 48  1  0
 27 49  1  0
M  END
>  <smiles>  (22) 
O=C(NCC(=O)N1CCCC1c1ccc(O)cc1)c1ccc2cc(Cl)ccc2n1

>  <score_type>  (22) 
oracle

>  <origin>  (22) 
autodockgpu

>  <m_score__min__energy>  (22) 
-8.3200000000000003

>  <m_primary>  (22) 
energy

>  <rmsd>  (22) 
2.7457161001978387

>  <m_score__min__rmsd>  (22) 
2.7457161001978387

>  <meeko>  (22) 
{"free_energy": -7.47, "intermolecular_energy": -9.26, "internal_energy": -1.14, "cluster_size": 6, "cluster_id": 1, "rank_in_cluster": 6}

>  <energy>  (22) 
-7.97

>  <cluster_rmsd>  (22) 
1.01

>  <cluster>  (22) 
2

$$$$

     RDKit          3D

 49 52  0  0  0  0  0  0  0  0999 V2000
  140.2600   72.0600  220.7090 O   0  0  0  0  0  0  0  0  0  0  0  0
  139.9360   72.4110  221.8640 C   0  0  0  0  0  0  0  0  0  0  0  0
  139.4920   73.7390  222.1130 N   0  0  0  0  0  0  0  0  0  0  0  0
  139.4290   74.6500  221.0160 C   0  0  0  0  0  0  0  0  0  0  0  0
  140.4180   75.7580  221.1050 C   0  0  0  0  0  0  0  0  0  0  0  0
  141.6640   75.5390  221.0340 O   0  0  0  0  0  0  0  0  0  0  0  0
  139.8980   77.0710  221.2730 N   0  0  0  0  0  0  0  0  0  0  0  0
  139.8780   78.1790  220.3300 C   0  0  0  0  0  0  0  0  0  0  0  0
  138.5540   78.8590  220.6300 C   0  0  0  0  0  0  0  0  0  0  0  0
  137.9780   78.1380  221.8380 C   0  0  0  0  0  0  0  0  0  0  0  0
  139.2450   77.6200  222.4760 C   0  0  2  0  0  0  0  0  0  0  0  0
  140.1400   78.6960  222.9480 C   0  0  0  0  0  0  0  0  0  0  0  0
  141.5190   78.4710  222.9990 C   0  0  0  0  0  0  0  0  0  0  0  0
  142.3630   79.4790  223.4410 C   0  0  0  0  0  0  0  0  0  0  0  0
  141.8900   80.7100  223.8410 C   0  0  0  0  0  0  0  0  0  0  0  0
  142.7050   81.7340  224.2870 O   0  0  0  0  0  0  0  0  0  0  0  0
  140.5290   80.9110  223.7830 C   0  0  0  0  0  0  0  0  0  0  0  0
  139.6410   79.9360  223.3480 C   0  0  0  0  0  0  0  0  0  0  0  0
  139.9900   71.4920  223.0200 C   0  0  0  0  0  0  0  0  0  0  0  0
  139.5330   70.1790  222.8650 C   0  0  0  0  0  0  0  0  0  0  0  0
  139.5850   69.3120  223.9570 C   0  0  0  0  0  0  0  0  0  0  0  0
  140.0730   69.7280  225.1640 C   0  0  0  0  0  0  0  0  0  0  0  0
  140.1220   68.8690  226.2400 C   0  0  0  0  0  0  0  0  0  0  0  0
  140.6290   69.3680  227.4210 C   0  0  0  0  0  0  0  0  0  0  0  0
  140.6900   68.2660  228.7940 Cl  0  0  0  0  0  0  0  0  0  0  0  0
  141.0760   70.6440  227.5810 C   0  0  0  0  0  0  0  0  0  0  0  0
  141.0210   71.5050  226.4840 C   0  0  0  0  0  0  0  0  0  0  0  0
  140.5170   71.0470  225.2670 C   0  0  0  0  0  0  0  0  0  0  0  0
  140.4640   71.8740  224.2140 N   0  0  0  0  0  0  0  0  0  0  0  0
  139.2200   74.0300  223.0880 H   0  0  0  0  0  0  0  0  0  0  0  0
  139.6163   74.0902  220.0878 H   0  0  0  0  0  0  0  0  0  0  0  0
  138.4289   75.1078  221.0336 H   0  0  0  0  0  0  0  0  0  0  0  0
  140.7220   78.8624  220.5050 H   0  0  0  0  0  0  0  0  0  0  0  0
  139.9729   77.8582  219.2821 H   0  0  0  0  0  0  0  0  0  0  0  0
  138.7139   79.9227  220.8600 H   0  0  0  0  0  0  0  0  0  0  0  0
  137.8717   78.8110  219.7685 H   0  0  0  0  0  0  0  0  0  0  0  0
  137.4398   78.8278  222.5047 H   0  0  0  0  0  0  0  0  0  0  0  0
  137.2341   77.3637  221.5992 H   0  0  0  0  0  0  0  0  0  0  0  0
  139.0484   76.9645  223.3372 H   0  0  0  0  0  0  0  0  0  0  0  0
  141.9324   77.4996  222.6902 H   0  0  0  0  0  0  0  0  0  0  0  0
  143.4461   79.2895  223.4733 H   0  0  0  0  0  0  0  0  0  0  0  0
  143.7130   81.6890  224.2220 H   0  0  0  0  0  0  0  0  0  0  0  0
  140.1276   81.8865  224.0949 H   0  0  0  0  0  0  0  0  0  0  0  0
  138.5602   80.1383  223.3192 H   0  0  0  0  0  0  0  0  0  0  0  0
  139.1388   69.8354  221.8973 H   0  0  0  0  0  0  0  0  0  0  0  0
  139.2277   68.2777  223.8447 H   0  0  0  0  0  0  0  0  0  0  0  0
  139.7715   67.8294  226.1603 H   0  0  0  0  0  0  0  0  0  0  0  0
  141.4700   70.9871  228.5490 H   0  0  0  0  0  0  0  0  0  0  0  0
  141.3743   72.5424  226.5791 H   0  0  0  0  0  0  0  0  0  0  0  0
  1  2  2  0
  2  3  1  0
  3  4  1  0
  4  5  1  0
  5  6  2  0
  5  7  1  0
  7  8  1  0
  8  9  1  0
  9 10  1  0
 10 11  1  0
 11 12  1  0
 12 13  2  0
 13 14  1  0
 14 15  2  0
 15 16  1  0
 15 17  1  0
 17 18  2  0
  2 19  1  0
 19 20  2  0
 20 21  1  0
 21 22  2  0
 22 23  1  0
 23 24  2  0
 24 25  1  0
 24 26  1  0
 26 27  2  0
 27 28  1  0
 28 29  2  0
 11  7  1  0
 18 12  1  0
 29 19  1  0
 28 22  1  0
  3 30  1  0
  4 31  1  0
  4 32  1  0
  8 33  1  0
  8 34  1  0
  9 35  1  0
  9 36  1  0
 10 37  1  0
 10 38  1  0
 11 39  1  1
 13 40  1  0
 14 41  1  0
 16 42  1  0
 17 43  1  0
 18 44  1  0
 20 45  1  0
 21 46  1  0
 23 47  1  0
 26 48  1  0
 27 49  1  0
M  END
>  <smiles>  (23) 
O=C(NCC(=O)N1CCCC1c1ccc(O)cc1)c1ccc2cc(Cl)ccc2n1

>  <score_type>  (23) 
oracle

>  <origin>  (23) 
autodockgpu

>  <m_score__min__energy>  (23) 
-8.3200000000000003

>  <m_primary>  (23) 
energy

>  <rmsd>  (23) 
2.665970188751722

>  <m_score__min__rmsd>  (23) 
2.665970188751722

>  <meeko>  (23) 
{"free_energy": -8.07, "intermolecular_energy": -9.86, "internal_energy": -1.18, "cluster_size": 24, "cluster_id": 2, "rank_in_cluster": 8}

>  <energy>  (23) 
-7.93

>  <cluster_rmsd>  (23) 
1.51

>  <cluster>  (23) 
2

$$$$

     RDKit          3D

 49 52  0  0  0  0  0  0  0  0999 V2000
  138.9840   71.5560  220.6120 O   0  0  0  0  0  0  0  0  0  0  0  0
  139.0840   72.0220  221.7670 C   0  0  0  0  0  0  0  0  0  0  0  0
  138.9280   73.4180  221.9940 N   0  0  0  0  0  0  0  0  0  0  0  0
  138.6580   74.2610  220.8740 C   0  0  0  0  0  0  0  0  0  0  0  0
  139.3210   75.5890  220.9560 C   0  0  0  0  0  0  0  0  0  0  0  0
  138.8450   76.5240  221.6670 O   0  0  0  0  0  0  0  0  0  0  0  0
  140.5150   75.7590  220.2000 N   0  0  0  0  0  0  0  0  0  0  0  0
  140.7420   75.5350  218.7800 C   0  0  0  0  0  0  0  0  0  0  0  0
  141.7200   76.6370  218.4130 C   0  0  0  0  0  0  0  0  0  0  0  0
  142.0750   77.3310  219.7180 C   0  0  0  0  0  0  0  0  0  0  0  0
  141.8250   76.2120  220.7000 C   0  0  2  0  0  0  0  0  0  0  0  0
  142.7320   75.0620  220.5140 C   0  0  0  0  0  0  0  0  0  0  0  0
  142.2700   73.7710  220.7820 C   0  0  0  0  0  0  0  0  0  0  0  0
  143.1180   72.6870  220.6090 C   0  0  0  0  0  0  0  0  0  0  0  0
  144.4190   72.8350  220.1780 C   0  0  0  0  0  0  0  0  0  0  0  0
  145.2890   71.7760  219.9960 O   0  0  0  0  0  0  0  0  0  0  0  0
  144.8550   74.1160  219.9190 C   0  0  0  0  0  0  0  0  0  0  0  0
  144.0460   75.2330  220.0770 C   0  0  0  0  0  0  0  0  0  0  0  0
  139.3630   71.1750  222.9450 C   0  0  0  0  0  0  0  0  0  0  0  0
  139.0120   69.8220  222.9080 C   0  0  0  0  0  0  0  0  0  0  0  0
  139.2760   69.0230  224.0210 C   0  0  0  0  0  0  0  0  0  0  0  0
  139.8690   69.5450  225.1360 C   0  0  0  0  0  0  0  0  0  0  0  0
  140.1280   68.7530  226.2340 C   0  0  0  0  0  0  0  0  0  0  0  0
  140.7290   69.3580  227.3180 C   0  0  0  0  0  0  0  0  0  0  0  0
  141.0580   68.3420  228.7190 Cl  0  0  0  0  0  0  0  0  0  0  0  0
  141.0740   70.6740  227.3640 C   0  0  0  0  0  0  0  0  0  0  0  0
  140.8060   71.4650  226.2470 C   0  0  0  0  0  0  0  0  0  0  0  0
  140.2000   70.9010  225.1250 C   0  0  0  0  0  0  0  0  0  0  0  0
  139.9440   71.6610  224.0520 N   0  0  0  0  0  0  0  0  0  0  0  0
  139.0130   73.8060  222.9700 H   0  0  0  0  0  0  0  0  0  0  0  0
  139.0085   73.7528  219.9636 H   0  0  0  0  0  0  0  0  0  0  0  0
  137.5731   74.4421  220.8603 H   0  0  0  0  0  0  0  0  0  0  0  0
  141.1800   74.5419  218.6014 H   0  0  0  0  0  0  0  0  0  0  0  0
  139.8178   75.5591  218.1840 H   0  0  0  0  0  0  0  0  0  0  0  0
  142.6214   76.2098  217.9494 H   0  0  0  0  0  0  0  0  0  0  0  0
  141.2832   77.3395  217.6879 H   0  0  0  0  0  0  0  0  0  0  0  0
  143.1255   77.6569  219.7322 H   0  0  0  0  0  0  0  0  0  0  0  0
  141.5072   78.2518  219.9173 H   0  0  0  0  0  0  0  0  0  0  0  0
  141.9273   76.5356  221.7463 H   0  0  0  0  0  0  0  0  0  0  0  0
  141.2379   73.6148  221.1288 H   0  0  0  0  0  0  0  0  0  0  0  0
  142.7400   71.6763  220.8227 H   0  0  0  0  0  0  0  0  0  0  0  0
  145.6170   71.2090  220.7660 H   0  0  0  0  0  0  0  0  0  0  0  0
  145.8889   74.2599  219.5720 H   0  0  0  0  0  0  0  0  0  0  0  0
  144.4354   76.2388  219.8607 H   0  0  0  0  0  0  0  0  0  0  0  0
  138.5346   69.3937  222.0143 H   0  0  0  0  0  0  0  0  0  0  0  0
  139.0029   67.9576  224.0006 H   0  0  0  0  0  0  0  0  0  0  0  0
  139.8667   67.6846  226.2452 H   0  0  0  0  0  0  0  0  0  0  0  0
  141.5512   71.1020  228.2579 H   0  0  0  0  0  0  0  0  0  0  0  0
  141.0723   72.5323  226.2511 H   0  0  0  0  0  0  0  0  0  0  0  0
  1  2  2  0
  2  3  1  0
  3  4  1  0
  4  5  1  0
  5  6  2  0
  5  7  1  0
  7  8  1  0
  8  9  1  0
  9 10  1  0
 10 11  1  0
 11 12  1  0
 12 13  2  0
 13 14  1  0
 14 15  2  0
 15 16  1  0
 15 17  1  0
 17 18  2  0
  2 19  1  0
 19 20  2  0
 20 21  1  0
 21 22  2  0
 22 23  1  0
 23 24  2  0
 24 25  1  0
 24 26  1  0
 26 27  2  0
 27 28  1  0
 28 29  2  0
 11  7  1  0
 18 12  1  0
 29 19  1  0
 28 22  1  0
  3 30  1  0
  4 31  1  0
  4 32  1  0
  8 33  1  0
  8 34  1  0
  9 35  1  0
  9 36  1  0
 10 37  1  0
 10 38  1  0
 11 39  1  1
 13 40  1  0
 14 41  1  0
 16 42  1  0
 17 43  1  0
 18 44  1  0
 20 45  1  0
 21 46  1  0
 23 47  1  0
 26 48  1  0
 27 49  1  0
M  END
>  <smiles>  (24) 
O=C(NCC(=O)N1CCCC1c1ccc(O)cc1)c1ccc2cc(Cl)ccc2n1

>  <score_type>  (24) 
oracle

>  <origin>  (24) 
autodockgpu

>  <m_score__min__energy>  (24) 
-8.3200000000000003

>  <m_primary>  (24) 
energy

>  <rmsd>  (24) 
1.411452373037839

>  <m_score__min__rmsd>  (24) 
1.411452373037839

>  <meeko>  (24) 
{"free_energy": -7.66, "intermolecular_energy": -9.45, "internal_energy": -1.63, "cluster_size": 12, "cluster_id": 3, "rank_in_cluster": 9}

>  <energy>  (24) 
-7.85

>  <cluster_rmsd>  (24) 
1.5

>  <cluster>  (24) 
2

$$$$

     RDKit          3D

 49 52  0  0  0  0  0  0  0  0999 V2000
  140.6220   72.8100  221.2300 O   0  0  0  0  0  0  0  0  0  0  0  0
  139.7790   72.7290  222.1480 C   0  0  0  0  0  0  0  0  0  0  0  0
  138.6630   73.6110  222.1790 N   0  0  0  0  0  0  0  0  0  0  0  0
  138.5360   74.5810  221.1390 C   0  0  0  0  0  0  0  0  0  0  0  0
  138.7480   75.9780  221.6010 C   0  0  0  0  0  0  0  0  0  0  0  0
  137.8900   76.5740  222.3190 O   0  0  0  0  0  0  0  0  0  0  0  0
  139.9560   76.6120  221.1980 N   0  0  0  0  0  0  0  0  0  0  0  0
  141.3250   76.1270  221.2960 C   0  0  0  0  0  0  0  0  0  0  0  0
  141.9700   76.6690  220.0330 C   0  0  0  0  0  0  0  0  0  0  0  0
  140.9210   77.5480  219.3720 C   0  0  0  0  0  0  0  0  0  0  0  0
  140.0960   77.9400  220.5750 C   0  0  2  0  0  0  0  0  0  0  0  0
  140.8460   78.7530  221.5540 C   0  0  0  0  0  0  0  0  0  0  0  0
  140.6100   78.5760  222.9200 C   0  0  0  0  0  0  0  0  0  0  0  0
  141.3120   79.3370  223.8430 C   0  0  0  0  0  0  0  0  0  0  0  0
  142.2470   80.2750  223.4610 C   0  0  0  0  0  0  0  0  0  0  0  0
  142.9620   81.0490  224.3560 O   0  0  0  0  0  0  0  0  0  0  0  0
  142.4650   80.4340  222.1110 C   0  0  0  0  0  0  0  0  0  0  0  0
  141.7890   79.6980  221.1470 C   0  0  0  0  0  0  0  0  0  0  0  0
  139.8830   71.7370  223.2380 C   0  0  0  0  0  0  0  0  0  0  0  0
  139.4810   70.4190  222.9970 C   0  0  0  0  0  0  0  0  0  0  0  0
  139.5790   69.4830  224.0270 C   0  0  0  0  0  0  0  0  0  0  0  0
  140.0590   69.8370  225.2570 C   0  0  0  0  0  0  0  0  0  0  0  0
  140.1550   68.9090  226.2720 C   0  0  0  0  0  0  0  0  0  0  0  0
  140.6490   69.3490  227.4810 C   0  0  0  0  0  0  0  0  0  0  0  0
  140.7690   68.1600  228.7760 Cl  0  0  0  0  0  0  0  0  0  0  0  0
  141.0420   70.6290  227.7260 C   0  0  0  0  0  0  0  0  0  0  0  0
  140.9400   71.5590  226.6900 C   0  0  0  0  0  0  0  0  0  0  0  0
  140.4470   71.1640  225.4480 C   0  0  0  0  0  0  0  0  0  0  0  0
  140.3500   72.0570  224.4540 N   0  0  0  0  0  0  0  0  0  0  0  0
  137.9550   73.5390  222.9560 H   0  0  0  0  0  0  0  0  0  0  0  0
  139.2792   74.3555  220.3601 H   0  0  0  0  0  0  0  0  0  0  0  0
  137.5043   74.5181  220.7626 H   0  0  0  0  0  0  0  0  0  0  0  0
  141.8213   76.5225  222.1945 H   0  0  0  0  0  0  0  0  0  0  0  0
  141.3922   75.0324  221.3819 H   0  0  0  0  0  0  0  0  0  0  0  0
  142.8625   77.2612  220.2833 H   0  0  0  0  0  0  0  0  0  0  0  0
  142.2945   75.8571  219.3656 H   0  0  0  0  0  0  0  0  0  0  0  0
  141.3733   78.4251  218.8860 H   0  0  0  0  0  0  0  0  0  0  0  0
  140.3542   77.0594  218.5658 H   0  0  0  0  0  0  0  0  0  0  0  0
  139.1967   78.5124  220.3038 H   0  0  0  0  0  0  0  0  0  0  0  0
  139.8708   77.8365  223.2617 H   0  0  0  0  0  0  0  0  0  0  0  0
  141.1162   79.1871  224.9150 H   0  0  0  0  0  0  0  0  0  0  0  0
  142.6470   81.9630  224.6520 H   0  0  0  0  0  0  0  0  0  0  0  0
  143.2069   81.1764  221.7817 H   0  0  0  0  0  0  0  0  0  0  0  0
  141.9937   79.8574  220.0780 H   0  0  0  0  0  0  0  0  0  0  0  0
  139.0935   70.1250  222.0104 H   0  0  0  0  0  0  0  0  0  0  0  0
  139.2652   68.4443  223.8465 H   0  0  0  0  0  0  0  0  0  0  0  0
  139.8504   67.8625  226.1233 H   0  0  0  0  0  0  0  0  0  0  0  0
  141.4292   70.9224  228.7129 H   0  0  0  0  0  0  0  0  0  0  0  0
  141.2483   72.6021  226.8538 H   0  0  0  0  0  0  0  0  0  0  0  0
  1  2  2  0
  2  3  1  0
  3  4  1  0
  4  5  1  0
  5  6  2  0
  5  7  1  0
  7  8  1  0
  8  9  1  0
  9 10  1  0
 10 11  1  0
 11 12  1  0
 12 13  2  0
 13 14  1  0
 14 15  2  0
 15 16  1  0
 15 17  1  0
 17 18  2  0
  2 19  1  0
 19 20  2  0
 20 21  1  0
 21 22  2  0
 22 23  1  0
 23 24  2  0
 24 25  1  0
 24 26  1  0
 26 27  2  0
 27 28  1  0
 28 29  2  0
 11  7  1  0
 18 12  1  0
 29 19  1  0
 28 22  1  0
  3 30  1  0
  4 31  1  0
  4 32  1  0
  8 33  1  0
  8 34  1  0
  9 35  1  0
  9 36  1  0
 10 37  1  0
 10 38  1  0
 11 39  1  6
 13 40  1  0
 14 41  1  0
 16 42  1  0
 17 43  1  0
 18 44  1  0
 20 45  1  0
 21 46  1  0
 23 47  1  0
 26 48  1  0
 27 49  1  0
M  END
>  <smiles>  (25) 
O=C(NCC(=O)N1CCCC1c1ccc(O)cc1)c1ccc2cc(Cl)ccc2n1

>  <score_type>  (25) 
oracle

>  <origin>  (25) 
autodockgpu

>  <m_score__min__energy>  (25) 
-8.3200000000000003

>  <m_primary>  (25) 
energy

>  <rmsd>  (25) 
2.0642346399941096

>  <m_score__min__rmsd>  (25) 
2.0642346399941096

>  <meeko>  (25) 
{"free_energy": -8.21, "intermolecular_energy": -10.0, "internal_energy": -1.19, "cluster_size": 24, "cluster_id": 2, "rank_in_cluster": 2}

>  <energy>  (25) 
-7.74

>  <cluster_rmsd>  (25) 
1.43

>  <cluster>  (25) 
2

$$$$

     RDKit          3D

 49 52  0  0  0  0  0  0  0  0999 V2000
  138.4790   71.1470  220.5460 O   0  0  0  0  0  0  0  0  0  0  0  0
  138.6490   71.6890  221.6590 C   0  0  0  0  0  0  0  0  0  0  0  0
  138.4890   73.0940  221.8060 N   0  0  0  0  0  0  0  0  0  0  0  0
  138.1310   73.8600  220.6560 C   0  0  0  0  0  0  0  0  0  0  0  0
  139.1810   73.8770  219.6030 C   0  0  0  0  0  0  0  0  0  0  0  0
  138.9730   73.3840  218.4540 O   0  0  0  0  0  0  0  0  0  0  0  0
  140.4260   74.4730  219.9460 N   0  0  0  0  0  0  0  0  0  0  0  0
  141.2480   75.3930  219.1740 C   0  0  0  0  0  0  0  0  0  0  0  0
  141.8270   76.3080  220.2380 C   0  0  0  0  0  0  0  0  0  0  0  0
  141.3760   75.7350  221.5720 C   0  0  0  0  0  0  0  0  0  0  0  0
  141.1850   74.2860  221.1960 C   0  0  2  0  0  0  0  0  0  0  0  0
  142.4400   73.6180  220.7940 C   0  0  0  0  0  0  0  0  0  0  0  0
  142.4010   72.3000  220.3330 C   0  0  0  0  0  0  0  0  0  0  0  0
  143.5760   71.6690  219.9540 C   0  0  0  0  0  0  0  0  0  0  0  0
  144.8010   72.3000  220.0160 C   0  0  0  0  0  0  0  0  0  0  0  0
  145.9890   71.6990  219.6460 O   0  0  0  0  0  0  0  0  0  0  0  0
  144.8170   73.5990  220.4720 C   0  0  0  0  0  0  0  0  0  0  0  0
  143.6690   74.2750  220.8640 C   0  0  0  0  0  0  0  0  0  0  0  0
  139.0200   70.9240  222.8680 C   0  0  0  0  0  0  0  0  0  0  0  0
  138.7470   69.5530  222.9140 C   0  0  0  0  0  0  0  0  0  0  0  0
  139.0970   68.8310  224.0560 C   0  0  0  0  0  0  0  0  0  0  0  0
  139.6990   69.4440  225.1190 C   0  0  0  0  0  0  0  0  0  0  0  0
  140.0440   68.7290  226.2450 C   0  0  0  0  0  0  0  0  0  0  0  0
  140.6470   69.4240  227.2720 C   0  0  0  0  0  0  0  0  0  0  0  0
  141.0850   68.5050  228.7100 Cl  0  0  0  0  0  0  0  0  0  0  0  0
  140.9160   70.7570  227.2360 C   0  0  0  0  0  0  0  0  0  0  0  0
  140.5620   71.4710  226.0910 C   0  0  0  0  0  0  0  0  0  0  0  0
  139.9500   70.8140  225.0250 C   0  0  0  0  0  0  0  0  0  0  0  0
  139.6110   71.5000  223.9250 N   0  0  0  0  0  0  0  0  0  0  0  0
  138.6340   73.5460  222.7470 H   0  0  0  0  0  0  0  0  0  0  0  0
  137.2132   73.4331  220.2254 H   0  0  0  0  0  0  0  0  0  0  0  0
  137.9917   74.8987  220.9902 H   0  0  0  0  0  0  0  0  0  0  0  0
  142.0446   74.8566  218.6376 H   0  0  0  0  0  0  0  0  0  0  0  0
  140.6841   75.9321  218.3985 H   0  0  0  0  0  0  0  0  0  0  0  0
  142.9253   76.3177  220.1776 H   0  0  0  0  0  0  0  0  0  0  0  0
  141.4846   77.3452  220.1080 H   0  0  0  0  0  0  0  0  0  0  0  0
  142.1467   75.8555  222.3475 H   0  0  0  0  0  0  0  0  0  0  0  0
  140.4868   76.2188  222.0025 H   0  0  0  0  0  0  0  0  0  0  0  0
  140.7522   73.6902  222.0132 H   0  0  0  0  0  0  0  0  0  0  0  0
  141.4420   71.7649  220.2709 H   0  0  0  0  0  0  0  0  0  0  0  0
  143.5298   70.6313  219.5920 H   0  0  0  0  0  0  0  0  0  0  0  0
  146.5280   71.1300  220.2850 H   0  0  0  0  0  0  0  0  0  0  0  0
  145.7817   74.1246  220.5283 H   0  0  0  0  0  0  0  0  0  0  0  0
  143.7277   75.3127  221.2242 H   0  0  0  0  0  0  0  0  0  0  0  0
  138.2636   69.0513  222.0628 H   0  0  0  0  0  0  0  0  0  0  0  0
  138.8852   67.7525  224.1012 H   0  0  0  0  0  0  0  0  0  0  0  0
  139.8468   67.6495  226.3215 H   0  0  0  0  0  0  0  0  0  0  0  0
  141.3998   71.2586  228.0871 H   0  0  0  0  0  0  0  0  0  0  0  0
  140.7654   72.5503  226.0296 H   0  0  0  0  0  0  0  0  0  0  0  0
  1  2  2  0
  2  3  1  0
  3  4  1  0
  4  5  1  0
  5  6  2  0
  5  7  1  0
  7  8  1  0
  8  9  1  0
  9 10  1  0
 10 11  1  0
 11 12  1  0
 12 13  2  0
 13 14  1  0
 14 15  2  0
 15 16  1  0
 15 17  1  0
 17 18  2  0
  2 19  1  0
 19 20  2  0
 20 21  1  0
 21 22  2  0
 22 23  1  0
 23 24  2  0
 24 25  1  0
 24 26  1  0
 26 27  2  0
 27 28  1  0
 28 29  2  0
 11  7  1  0
 18 12  1  0
 29 19  1  0
 28 22  1  0
  3 30  1  0
  4 31  1  0
  4 32  1  0
  8 33  1  0
  8 34  1  0
  9 35  1  0
  9 36  1  0
 10 37  1  0
 10 38  1  0
 11 39  1  1
 13 40  1  0
 14 41  1  0
 16 42  1  0
 17 43  1  0
 18 44  1  0
 20 45  1  0
 21 46  1  0
 23 47  1  0
 26 48  1  0
 27 49  1  0
M  END
>  <smiles>  (26) 
O=C(NCC(=O)N1CCCC1c1ccc(O)cc1)c1ccc2cc(Cl)ccc2n1

>  <score_type>  (26) 
oracle

>  <origin>  (26) 
autodockgpu

>  <m_score__min__energy>  (26) 
-8.3200000000000003

>  <m_primary>  (26) 
energy

>  <rmsd>  (26) 
2.1760672596348414

>  <m_score__min__rmsd>  (26) 
2.1760672596348414

>  <meeko>  (26) 
{"free_energy": -7.43, "intermolecular_energy": -9.22, "internal_energy": -1.48, "cluster_size": 12, "cluster_id": 3, "rank_in_cluster": 10}

>  <energy>  (26) 
-7.67

>  <cluster_rmsd>  (26) 
1.12

>  <cluster>  (26) 
2

$$$$

     RDKit          3D

 49 52  0  0  0  0  0  0  0  0999 V2000
  139.0510   71.6910  220.9330 O   0  0  0  0  0  0  0  0  0  0  0  0
  139.3050   72.1180  222.0800 C   0  0  0  0  0  0  0  0  0  0  0  0
  139.3640   73.5170  222.3280 N   0  0  0  0  0  0  0  0  0  0  0  0
  139.1280   74.4100  221.2400 C   0  0  0  0  0  0  0  0  0  0  0  0
  139.0940   75.8410  221.6410 C   0  0  0  0  0  0  0  0  0  0  0  0
  138.2000   76.2880  222.4210 O   0  0  0  0  0  0  0  0  0  0  0  0
  140.1100   76.6820  221.1090 N   0  0  0  0  0  0  0  0  0  0  0  0
  141.4960   76.3640  220.7980 C   0  0  0  0  0  0  0  0  0  0  0  0
  141.7650   77.1910  219.5530 C   0  0  0  0  0  0  0  0  0  0  0  0
  140.5170   78.0320  219.3330 C   0  0  0  0  0  0  0  0  0  0  0  0
  139.9840   78.1040  220.7440 C   0  0  2  0  0  0  0  0  0  0  0  0
  140.8830   78.8250  221.6690 C   0  0  0  0  0  0  0  0  0  0  0  0
  141.6640   79.8790  221.1870 C   0  0  0  0  0  0  0  0  0  0  0  0
  142.5090   80.5580  222.0510 C   0  0  0  0  0  0  0  0  0  0  0  0
  142.6120   80.2310  223.3860 C   0  0  0  0  0  0  0  0  0  0  0  0
  143.4450   80.8890  224.2730 O   0  0  0  0  0  0  0  0  0  0  0  0
  141.8340   79.1900  223.8410 C   0  0  0  0  0  0  0  0  0  0  0  0
  140.9730   78.4780  223.0170 C   0  0  0  0  0  0  0  0  0  0  0  0
  139.5550   71.2200  223.2270 C   0  0  0  0  0  0  0  0  0  0  0  0
  139.2450   69.8610  223.1040 C   0  0  0  0  0  0  0  0  0  0  0  0
  139.4810   69.0140  224.1870 C   0  0  0  0  0  0  0  0  0  0  0  0
  140.0070   69.4930  225.3550 C   0  0  0  0  0  0  0  0  0  0  0  0
  140.2390   68.6530  226.4220 C   0  0  0  0  0  0  0  0  0  0  0  0
  140.7710   69.2170  227.5620 C   0  0  0  0  0  0  0  0  0  0  0  0
  141.0650   68.1400  228.9250 Cl  0  0  0  0  0  0  0  0  0  0  0  0
  141.0750   70.5370  227.6910 C   0  0  0  0  0  0  0  0  0  0  0  0
  140.8350   71.3780  226.6030 C   0  0  0  0  0  0  0  0  0  0  0  0
  140.2990   70.8560  225.4270 C   0  0  0  0  0  0  0  0  0  0  0  0
  140.0690   71.6630  224.3820 N   0  0  0  0  0  0  0  0  0  0  0  0
  139.5790   73.8720  223.2970 H   0  0  0  0  0  0  0  0  0  0  0  0
  139.9301   74.2754  220.4994 H   0  0  0  0  0  0  0  0  0  0  0  0
  138.1362   74.1659  220.8317 H   0  0  0  0  0  0  0  0  0  0  0  0
  142.1636   76.6594  221.6208 H   0  0  0  0  0  0  0  0  0  0  0  0
  141.6713   75.2882  220.6501 H   0  0  0  0  0  0  0  0  0  0  0  0
  142.6408   77.8388  219.7059 H   0  0  0  0  0  0  0  0  0  0  0  0
  141.9803   76.5529  218.6832 H   0  0  0  0  0  0  0  0  0  0  0  0
  140.7631   79.0295  218.9401 H   0  0  0  0  0  0  0  0  0  0  0  0
  139.8110   77.6219  218.5958 H   0  0  0  0  0  0  0  0  0  0  0  0
  139.0020   78.5963  220.8010 H   0  0  0  0  0  0  0  0  0  0  0  0
  141.6084   80.1684  220.1272 H   0  0  0  0  0  0  0  0  0  0  0  0
  143.1178   81.3856  221.6580 H   0  0  0  0  0  0  0  0  0  0  0  0
  144.4480   80.7660  224.2630 H   0  0  0  0  0  0  0  0  0  0  0  0
  141.8974   78.9105  224.9030 H   0  0  0  0  0  0  0  0  0  0  0  0
  140.3701   77.6516  223.4215 H   0  0  0  0  0  0  0  0  0  0  0  0
  138.8219   69.4669  222.1682 H   0  0  0  0  0  0  0  0  0  0  0  0
  139.2403   67.9442  224.1002 H   0  0  0  0  0  0  0  0  0  0  0  0
  140.0097   67.5786  226.3668 H   0  0  0  0  0  0  0  0  0  0  0  0
  141.4982   70.9306  228.6269 H   0  0  0  0  0  0  0  0  0  0  0  0
  141.0685   72.4506  226.6736 H   0  0  0  0  0  0  0  0  0  0  0  0
  1  2  2  0
  2  3  1  0
  3  4  1  0
  4  5  1  0
  5  6  2  0
  5  7  1  0
  7  8  1  0
  8  9  1  0
  9 10  1  0
 10 11  1  0
 11 12  1  0
 12 13  2  0
 13 14  1  0
 14 15  2  0
 15 16  1  0
 15 17  1  0
 17 18  2  0
  2 19  1  0
 19 20  2  0
 20 21  1  0
 21 22  2  0
 22 23  1  0
 23 24  2  0
 24 25  1  0
 24 26  1  0
 26 27  2  0
 27 28  1  0
 28 29  2  0
 11  7  1  0
 18 12  1  0
 29 19  1  0
 28 22  1  0
  3 30  1  0
  4 31  1  0
  4 32  1  0
  8 33  1  0
  8 34  1  0
  9 35  1  0
  9 36  1  0
 10 37  1  0
 10 38  1  0
 11 39  1  6
 13 40  1  0
 14 41  1  0
 16 42  1  0
 17 43  1  0
 18 44  1  0
 20 45  1  0
 21 46  1  0
 23 47  1  0
 26 48  1  0
 27 49  1  0
M  END
>  <smiles>  (27) 
O=C(NCC(=O)N1CCCC1c1ccc(O)cc1)c1ccc2cc(Cl)ccc2n1

>  <score_type>  (27) 
oracle

>  <origin>  (27) 
autodockgpu

>  <m_score__min__energy>  (27) 
-8.3200000000000003

>  <m_primary>  (27) 
energy

>  <rmsd>  (27) 
1.9278666227184504

>  <m_score__min__rmsd>  (27) 
1.9278666227184504

>  <meeko>  (27) 
{"free_energy": -8.09, "intermolecular_energy": -9.88, "internal_energy": -1.33, "cluster_size": 24, "cluster_id": 2, "rank_in_cluster": 5}

>  <energy>  (27) 
-7.59

>  <cluster_rmsd>  (27) 
1.24

>  <cluster>  (27) 
2

$$$$

     RDKit          3D

 49 52  0  0  0  0  0  0  0  0999 V2000
  139.3080   72.0030  220.7520 O   0  0  0  0  0  0  0  0  0  0  0  0
  139.4430   72.4080  221.9270 C   0  0  0  0  0  0  0  0  0  0  0  0
  139.4200   73.8010  222.2140 N   0  0  0  0  0  0  0  0  0  0  0  0
  139.2380   74.7130  221.1320 C   0  0  0  0  0  0  0  0  0  0  0  0
  140.2530   75.7990  221.0930 C   0  0  0  0  0  0  0  0  0  0  0  0
  141.4790   75.5510  220.8850 O   0  0  0  0  0  0  0  0  0  0  0  0
  139.7840   77.1260  221.2980 N   0  0  0  0  0  0  0  0  0  0  0  0
  139.7600   78.2460  220.3690 C   0  0  0  0  0  0  0  0  0  0  0  0
  138.4720   78.9630  220.7330 C   0  0  0  0  0  0  0  0  0  0  0  0
  137.9250   78.2450  221.9570 C   0  0  0  0  0  0  0  0  0  0  0  0
  139.2010   77.6800  222.5330 C   0  0  2  0  0  0  0  0  0  0  0  0
  140.1490   78.7200  222.9800 C   0  0  0  0  0  0  0  0  0  0  0  0
  141.5200   78.4500  222.9730 C   0  0  0  0  0  0  0  0  0  0  0  0
  142.4150   79.4240  223.3910 C   0  0  0  0  0  0  0  0  0  0  0  0
  141.9990   80.6670  223.8200 C   0  0  0  0  0  0  0  0  0  0  0  0
  142.8650   81.6580  224.2420 O   0  0  0  0  0  0  0  0  0  0  0  0
  140.6440   80.9130  223.8190 C   0  0  0  0  0  0  0  0  0  0  0  0
  139.7080   79.9720  223.4110 C   0  0  0  0  0  0  0  0  0  0  0  0
  139.6330   71.4880  223.0680 C   0  0  0  0  0  0  0  0  0  0  0  0
  139.2480   70.1500  222.9330 C   0  0  0  0  0  0  0  0  0  0  0  0
  139.4280   69.2830  224.0110 C   0  0  0  0  0  0  0  0  0  0  0  0
  139.9710   69.7230  225.1860 C   0  0  0  0  0  0  0  0  0  0  0  0
  140.1460   68.8630  226.2490 C   0  0  0  0  0  0  0  0  0  0  0  0
  140.7000   69.3880  227.3970 C   0  0  0  0  0  0  0  0  0  0  0  0
  140.9230   68.2860  228.7530 Cl  0  0  0  0  0  0  0  0  0  0  0  0
  141.0780   70.6880  227.5380 C   0  0  0  0  0  0  0  0  0  0  0  0
  140.8940   71.5490  226.4550 C   0  0  0  0  0  0  0  0  0  0  0  0
  140.3380   71.0670  225.2710 C   0  0  0  0  0  0  0  0  0  0  0  0
  140.1630   71.8930  224.2310 N   0  0  0  0  0  0  0  0  0  0  0  0
  139.5340   74.1370  223.2060 H   0  0  0  0  0  0  0  0  0  0  0  0
  139.2947   74.1497  220.1889 H   0  0  0  0  0  0  0  0  0  0  0  0
  138.2580   75.1918  221.2745 H   0  0  0  0  0  0  0  0  0  0  0  0
  140.6320   78.9003  220.5157 H   0  0  0  0  0  0  0  0  0  0  0  0
  139.8007   77.9359  219.3144 H   0  0  0  0  0  0  0  0  0  0  0  0
  138.6751   80.0183  220.9677 H   0  0  0  0  0  0  0  0  0  0  0  0
  137.7526   78.9469  219.9010 H   0  0  0  0  0  0  0  0  0  0  0  0
  137.4381   78.9428  222.6541 H   0  0  0  0  0  0  0  0  0  0  0  0
  137.1470   77.4976  221.7422 H   0  0  0  0  0  0  0  0  0  0  0  0
  139.0203   77.0199  223.3942 H   0  0  0  0  0  0  0  0  0  0  0  0
  141.8880   77.4692  222.6375 H   0  0  0  0  0  0  0  0  0  0  0  0
  143.4914   79.1976  223.3799 H   0  0  0  0  0  0  0  0  0  0  0  0
  143.8700   81.5480  224.2090 H   0  0  0  0  0  0  0  0  0  0  0  0
  140.2877   81.8976  224.1560 H   0  0  0  0  0  0  0  0  0  0  0  0
  138.6342   80.2100  223.4273 H   0  0  0  0  0  0  0  0  0  0  0  0
  138.8101   69.7871  221.9914 H   0  0  0  0  0  0  0  0  0  0  0  0
  139.1284   68.2290  223.9141 H   0  0  0  0  0  0  0  0  0  0  0  0
  139.8562   67.8039  226.1840 H   0  0  0  0  0  0  0  0  0  0  0  0
  141.5165   71.0501  228.4796 H   0  0  0  0  0  0  0  0  0  0  0  0
  141.1872   72.6061  226.5356 H   0  0  0  0  0  0  0  0  0  0  0  0
  1  2  2  0
  2  3  1  0
  3  4  1  0
  4  5  1  0
  5  6  2  0
  5  7  1  0
  7  8  1  0
  8  9  1  0
  9 10  1  0
 10 11  1  0
 11 12  1  0
 12 13  2  0
 13 14  1  0
 14 15  2  0
 15 16  1  0
 15 17  1  0
 17 18  2  0
  2 19  1  0
 19 20  2  0
 20 21  1  0
 21 22  2  0
 22 23  1  0
 23 24  2  0
 24 25  1  0
 24 26  1  0
 26 27  2  0
 27 28  1  0
 28 29  2  0
 11  7  1  0
 18 12  1  0
 29 19  1  0
 28 22  1  0
  3 30  1  0
  4 31  1  0
  4 32  1  0
  8 33  1  0
  8 34  1  0
  9 35  1  0
  9 36  1  0
 10 37  1  0
 10 38  1  0
 11 39  1  1
 13 40  1  0
 14 41  1  0
 16 42  1  0
 17 43  1  0
 18 44  1  0
 20 45  1  0
 21 46  1  0
 23 47  1  0
 26 48  1  0
 27 49  1  0
M  END
>  <smiles>  (28) 
O=C(NCC(=O)N1CCCC1c1ccc(O)cc1)c1ccc2cc(Cl)ccc2n1

>  <score_type>  (28) 
oracle

>  <origin>  (28) 
autodockgpu

>  <m_score__min__energy>  (28) 
-8.3200000000000003

>  <m_primary>  (28) 
energy

>  <rmsd>  (28) 
2.693969869588316

>  <m_score__min__rmsd>  (28) 
2.693969869588316

>  <meeko>  (28) 
{"free_energy": -7.97, "intermolecular_energy": -9.76, "internal_energy": -1.28, "cluster_size": 24, "cluster_id": 2, "rank_in_cluster": 15}

>  <energy>  (28) 
-7.5

>  <cluster_rmsd>  (28) 
1.83

>  <cluster>  (28) 
2

$$$$

     RDKit          3D

 49 52  0  0  0  0  0  0  0  0999 V2000
  139.2790   71.8920  220.7850 O   0  0  0  0  0  0  0  0  0  0  0  0
  139.4270   72.2960  221.9580 C   0  0  0  0  0  0  0  0  0  0  0  0
  139.4220   73.6890  222.2440 N   0  0  0  0  0  0  0  0  0  0  0  0
  139.2440   74.6030  221.1620 C   0  0  0  0  0  0  0  0  0  0  0  0
  140.2240   75.7200  221.1600 C   0  0  0  0  0  0  0  0  0  0  0  0
  141.4610   75.5150  220.9710 O   0  0  0  0  0  0  0  0  0  0  0  0
  139.7090   77.0280  221.3800 N   0  0  0  0  0  0  0  0  0  0  0  0
  139.6130   78.1450  220.4520 C   0  0  0  0  0  0  0  0  0  0  0  0
  138.3090   78.8110  220.8540 C   0  0  0  0  0  0  0  0  0  0  0  0
  137.8280   78.0740  222.0940 C   0  0  0  0  0  0  0  0  0  0  0  0
  139.1420   77.5600  222.6320 C   0  0  2  0  0  0  0  0  0  0  0  0
  140.0610   78.6380  223.0490 C   0  0  0  0  0  0  0  0  0  0  0  0
  141.4380   78.3980  223.0700 C   0  0  0  0  0  0  0  0  0  0  0  0
  142.3050   79.4070  223.4610 C   0  0  0  0  0  0  0  0  0  0  0  0
  141.8570   80.6560  223.8370 C   0  0  0  0  0  0  0  0  0  0  0  0
  142.6950   81.6820  224.2310 O   0  0  0  0  0  0  0  0  0  0  0  0
  140.4970   80.8710  223.8090 C   0  0  0  0  0  0  0  0  0  0  0  0
  139.5870   79.8940  223.4260 C   0  0  0  0  0  0  0  0  0  0  0  0
  139.6140   71.3750  223.0990 C   0  0  0  0  0  0  0  0  0  0  0  0
  139.2160   70.0400  222.9670 C   0  0  0  0  0  0  0  0  0  0  0  0
  139.3930   69.1720  224.0450 C   0  0  0  0  0  0  0  0  0  0  0  0
  139.9450   69.6080  225.2170 C   0  0  0  0  0  0  0  0  0  0  0  0
  140.1180   68.7470  226.2790 C   0  0  0  0  0  0  0  0  0  0  0  0
  140.6820   69.2680  227.4240 C   0  0  0  0  0  0  0  0  0  0  0  0
  140.9010   68.1640  228.7800 Cl  0  0  0  0  0  0  0  0  0  0  0  0
  141.0710   70.5640  227.5630 C   0  0  0  0  0  0  0  0  0  0  0  0
  140.8910   71.4260  226.4800 C   0  0  0  0  0  0  0  0  0  0  0  0
  140.3250   70.9480  225.3000 C   0  0  0  0  0  0  0  0  0  0  0  0
  140.1520   71.7760  224.2600 N   0  0  0  0  0  0  0  0  0  0  0  0
  139.5480   74.0250  223.2350 H   0  0  0  0  0  0  0  0  0  0  0  0
  139.3469   74.0483  220.2177 H   0  0  0  0  0  0  0  0  0  0  0  0
  138.2456   75.0498  221.2779 H   0  0  0  0  0  0  0  0  0  0  0  0
  140.4624   78.8335  220.5727 H   0  0  0  0  0  0  0  0  0  0  0  0
  139.6346   77.8353  219.3967 H   0  0  0  0  0  0  0  0  0  0  0  0
  138.4769   79.8739  221.0820 H   0  0  0  0  0  0  0  0  0  0  0  0
  137.5662   78.7650  220.0440 H   0  0  0  0  0  0  0  0  0  0  0  0
  137.3353   78.7533  222.8052 H   0  0  0  0  0  0  0  0  0  0  0  0
  137.0740   77.2962  221.9027 H   0  0  0  0  0  0  0  0  0  0  0  0
  139.0136   76.8944  223.4983 H   0  0  0  0  0  0  0  0  0  0  0  0
  141.8319   77.4134  222.7778 H   0  0  0  0  0  0  0  0  0  0  0  0
  143.3861   79.2045  223.4716 H   0  0  0  0  0  0  0  0  0  0  0  0
  143.7030   81.5970  224.2030 H   0  0  0  0  0  0  0  0  0  0  0  0
  140.1147   81.8597  224.1028 H   0  0  0  0  0  0  0  0  0  0  0  0
  138.5080   80.1080  223.4202 H   0  0  0  0  0  0  0  0  0  0  0  0
  138.7704   69.6804  222.0278 H   0  0  0  0  0  0  0  0  0  0  0  0
  139.0836   68.1207  223.9502 H   0  0  0  0  0  0  0  0  0  0  0  0
  139.8191   67.6903  226.2159 H   0  0  0  0  0  0  0  0  0  0  0  0
  141.5152   70.9229  228.5031 H   0  0  0  0  0  0  0  0  0  0  0  0
  141.1953   72.4802  226.5579 H   0  0  0  0  0  0  0  0  0  0  0  0
  1  2  2  0
  2  3  1  0
  3  4  1  0
  4  5  1  0
  5  6  2  0
  5  7  1  0
  7  8  1  0
  8  9  1  0
  9 10  1  0
 10 11  1  0
 11 12  1  0
 12 13  2  0
 13 14  1  0
 14 15  2  0
 15 16  1  0
 15 17  1  0
 17 18  2  0
  2 19  1  0
 19 20  2  0
 20 21  1  0
 21 22  2  0
 22 23  1  0
 23 24  2  0
 24 25  1  0
 24 26  1  0
 26 27  2  0
 27 28  1  0
 28 29  2  0
 11  7  1  0
 18 12  1  0
 29 19  1  0
 28 22  1  0
  3 30  1  0
  4 31  1  0
  4 32  1  0
  8 33  1  0
  8 34  1  0
  9 35  1  0
  9 36  1  0
 10 37  1  0
 10 38  1  0
 11 39  1  1
 13 40  1  0
 14 41  1  0
 16 42  1  0
 17 43  1  0
 18 44  1  0
 20 45  1  0
 21 46  1  0
 23 47  1  0
 26 48  1  0
 27 49  1  0
M  END
>  <smiles>  (29) 
O=C(NCC(=O)N1CCCC1c1ccc(O)cc1)c1ccc2cc(Cl)ccc2n1

>  <score_type>  (29) 
oracle

>  <origin>  (29) 
autodockgpu

>  <m_score__min__energy>  (29) 
-8.3200000000000003

>  <m_primary>  (29) 
energy

>  <rmsd>  (29) 
2.696328035516719

>  <m_score__min__rmsd>  (29) 
2.696328035516719

>  <meeko>  (29) 
{"free_energy": -8.0, "intermolecular_energy": -9.79, "internal_energy": -1.28, "cluster_size": 24, "cluster_id": 2, "rank_in_cluster": 14}

>  <energy>  (29) 
-7.47

>  <cluster_rmsd>  (29) 
1.74

>  <cluster>  (29) 
2

$$$$

     RDKit          3D

 49 52  0  0  0  0  0  0  0  0999 V2000
  140.6680   72.3150  220.9110 O   0  0  0  0  0  0  0  0  0  0  0  0
  140.0830   72.5440  221.9920 C   0  0  0  0  0  0  0  0  0  0  0  0
  139.3790   73.7650  222.1820 N   0  0  0  0  0  0  0  0  0  0  0  0
  139.3610   74.7110  221.1140 C   0  0  0  0  0  0  0  0  0  0  0  0
  140.6010   75.5250  221.0190 C   0  0  0  0  0  0  0  0  0  0  0  0
  141.7380   74.9840  220.8750 O   0  0  0  0  0  0  0  0  0  0  0  0
  140.4510   76.9380  221.0980 N   0  0  0  0  0  0  0  0  0  0  0  0
  139.3180   77.7640  220.7070 C   0  0  0  0  0  0  0  0  0  0  0  0
  139.3170   78.8610  221.7570 C   0  0  0  0  0  0  0  0  0  0  0  0
  140.5610   78.6310  222.6010 C   0  0  0  0  0  0  0  0  0  0  0  0
  141.4360   77.9080  221.6060 C   0  0  2  0  0  0  0  0  0  0  0  0
  141.8020   78.7390  220.4410 C   0  0  0  0  0  0  0  0  0  0  0  0
  141.7930   80.1320  220.5600 C   0  0  0  0  0  0  0  0  0  0  0  0
  142.1350   80.9160  219.4690 C   0  0  0  0  0  0  0  0  0  0  0  0
  142.4890   80.3700  218.2540 C   0  0  0  0  0  0  0  0  0  0  0  0
  142.8350   81.1250  217.1480 O   0  0  0  0  0  0  0  0  0  0  0  0
  142.4920   78.9960  218.1580 C   0  0  0  0  0  0  0  0  0  0  0  0
  142.1560   78.1670  219.2200 C   0  0  0  0  0  0  0  0  0  0  0  0
  140.0840   71.5850  223.1160 C   0  0  0  0  0  0  0  0  0  0  0  0
  139.5710   70.3000  222.9120 C   0  0  0  0  0  0  0  0  0  0  0  0
  139.5720   69.3950  223.9750 C   0  0  0  0  0  0  0  0  0  0  0  0
  140.0650   69.7480  225.2000 C   0  0  0  0  0  0  0  0  0  0  0  0
  140.0640   68.8520  226.2470 C   0  0  0  0  0  0  0  0  0  0  0  0
  140.5790   69.2890  227.4490 C   0  0  0  0  0  0  0  0  0  0  0  0
  140.5760   68.1400  228.7840 Cl  0  0  0  0  0  0  0  0  0  0  0  0
  141.0800   70.5370  227.6560 C   0  0  0  0  0  0  0  0  0  0  0  0
  141.0740   71.4360  226.5890 C   0  0  0  0  0  0  0  0  0  0  0  0
  140.5650   71.0420  225.3530 C   0  0  0  0  0  0  0  0  0  0  0  0
  140.5600   71.9050  224.3270 N   0  0  0  0  0  0  0  0  0  0  0  0
  138.8870   73.9540  223.0950 H   0  0  0  0  0  0  0  0  0  0  0  0
  139.2301   74.1650  220.1681 H   0  0  0  0  0  0  0  0  0  0  0  0
  138.5328   75.4069  221.3135 H   0  0  0  0  0  0  0  0  0  0  0  0
  139.4619   78.1812  219.6994 H   0  0  0  0  0  0  0  0  0  0  0  0
  138.3706   77.2069  220.6610 H   0  0  0  0  0  0  0  0  0  0  0  0
  139.3576   79.8500  221.2772 H   0  0  0  0  0  0  0  0  0  0  0  0
  138.4032   78.8338  222.3687 H   0  0  0  0  0  0  0  0  0  0  0  0
  141.0130   79.5798  222.9257 H   0  0  0  0  0  0  0  0  0  0  0  0
  140.3847   78.0849  223.5394 H   0  0  0  0  0  0  0  0  0  0  0  0
  142.3754   77.5485  222.0514 H   0  0  0  0  0  0  0  0  0  0  0  0
  141.5160   80.6035  221.5144 H   0  0  0  0  0  0  0  0  0  0  0  0
  142.1234   82.0107  219.5766 H   0  0  0  0  0  0  0  0  0  0  0  0
  143.6140   80.8820  216.5510 H   0  0  0  0  0  0  0  0  0  0  0  0
  142.7726   78.5358  217.1991 H   0  0  0  0  0  0  0  0  0  0  0  0
  142.1690   77.0737  219.0995 H   0  0  0  0  0  0  0  0  0  0  0  0
  139.1729   70.0070  221.9293 H   0  0  0  0  0  0  0  0  0  0  0  0
  139.1699   68.3823  223.8244 H   0  0  0  0  0  0  0  0  0  0  0  0
  139.6693   67.8321  226.1289 H   0  0  0  0  0  0  0  0  0  0  0  0
  141.4791   70.8294  228.6384 H   0  0  0  0  0  0  0  0  0  0  0  0
  141.4701   72.4534  226.7231 H   0  0  0  0  0  0  0  0  0  0  0  0
  1  2  2  0
  2  3  1  0
  3  4  1  0
  4  5  1  0
  5  6  2  0
  5  7  1  0
  7  8  1  0
  8  9  1  0
  9 10  1  0
 10 11  1  0
 11 12  1  0
 12 13  2  0
 13 14  1  0
 14 15  2  0
 15 16  1  0
 15 17  1  0
 17 18  2  0
  2 19  1  0
 19 20  2  0
 20 21  1  0
 21 22  2  0
 22 23  1  0
 23 24  2  0
 24 25  1  0
 24 26  1  0
 26 27  2  0
 27 28  1  0
 28 29  2  0
 11  7  1  0
 18 12  1  0
 29 19  1  0
 28 22  1  0
  3 30  1  0
  4 31  1  0
  4 32  1  0
  8 33  1  0
  8 34  1  0
  9 35  1  0
  9 36  1  0
 10 37  1  0
 10 38  1  0
 11 39  1  1
 13 40  1  0
 14 41  1  0
 16 42  1  0
 17 43  1  0
 18 44  1  0
 20 45  1  0
 21 46  1  0
 23 47  1  0
 26 48  1  0
 27 49  1  0
M  END
>  <smiles>  (30) 
O=C(NCC(=O)N1CCCC1c1ccc(O)cc1)c1ccc2cc(Cl)ccc2n1

>  <score_type>  (30) 
oracle

>  <origin>  (30) 
autodockgpu

>  <m_score__min__energy>  (30) 
-8.3200000000000003

>  <m_primary>  (30) 
energy

>  <rmsd>  (30) 
2.542026394703878

>  <m_score__min__rmsd>  (30) 
2.542026394703878

>  <meeko>  (30) 
{"free_energy": -8.32, "intermolecular_energy": -10.11, "internal_energy": -1.08, "cluster_size": 6, "cluster_id": 1, "rank_in_cluster": 1}

>  <energy>  (30) 
-6.95

>  <cluster_rmsd>  (30) 
1.78

>  <cluster>  (30) 
2

$$$$

     RDKit          3D

 49 52  0  0  0  0  0  0  0  0999 V2000
  139.6500   72.7800  220.6590 O   0  0  0  0  0  0  0  0  0  0  0  0
  139.5790   73.0290  221.8820 C   0  0  0  0  0  0  0  0  0  0  0  0
  139.3360   74.3570  222.3310 N   0  0  0  0  0  0  0  0  0  0  0  0
  139.1790   75.3850  221.3540 C   0  0  0  0  0  0  0  0  0  0  0  0
  137.9880   76.2460  221.5820 C   0  0  0  0  0  0  0  0  0  0  0  0
  136.8200   75.7560  221.6400 O   0  0  0  0  0  0  0  0  0  0  0  0
  138.2220   77.6410  221.7330 N   0  0  0  0  0  0  0  0  0  0  0  0
  138.3770   78.6620  220.7070 C   0  0  0  0  0  0  0  0  0  0  0  0
  137.7120   79.8760  221.3310 C   0  0  0  0  0  0  0  0  0  0  0  0
  137.3410   79.4660  222.7480 C   0  0  0  0  0  0  0  0  0  0  0  0
  138.3650   78.3850  222.9960 C   0  0  2  0  0  0  0  0  0  0  0  0
  139.7530   78.8880  222.9980 C   0  0  0  0  0  0  0  0  0  0  0  0
  140.0260   80.1550  223.5230 C   0  0  0  0  0  0  0  0  0  0  0  0
  141.3280   80.6310  223.5260 C   0  0  0  0  0  0  0  0  0  0  0  0
  142.3800   79.8960  223.0240 C   0  0  0  0  0  0  0  0  0  0  0  0
  143.6890   80.3430  223.0130 O   0  0  0  0  0  0  0  0  0  0  0  0
  142.0910   78.6510  222.5120 C   0  0  0  0  0  0  0  0  0  0  0  0
  140.8050   78.1280  222.4840 C   0  0  0  0  0  0  0  0  0  0  0  0
  139.7380   71.9870  222.9170 C   0  0  0  0  0  0  0  0  0  0  0  0
  139.3710   70.6710  222.6170 C   0  0  0  0  0  0  0  0  0  0  0  0
  139.5210   69.6870  223.5950 C   0  0  0  0  0  0  0  0  0  0  0  0
  140.0180   69.9940  224.8310 C   0  0  0  0  0  0  0  0  0  0  0  0
  140.1650   69.0200  225.7950 C   0  0  0  0  0  0  0  0  0  0  0  0
  140.6740   69.4130  227.0140 C   0  0  0  0  0  0  0  0  0  0  0  0
  140.8600   68.1650  228.2440 Cl  0  0  0  0  0  0  0  0  0  0  0  0
  141.0340   70.6910  227.3150 C   0  0  0  0  0  0  0  0  0  0  0  0
  140.8800   71.6690  226.3310 C   0  0  0  0  0  0  0  0  0  0  0  0
  140.3700   71.3210  225.0820 C   0  0  0  0  0  0  0  0  0  0  0  0
  140.2230   72.2600  224.1370 N   0  0  0  0  0  0  0  0  0  0  0  0
  139.2770   74.5620  223.3630 H   0  0  0  0  0  0  0  0  0  0  0  0
  140.0763   76.0210  221.3711 H   0  0  0  0  0  0  0  0  0  0  0  0
  139.0368   74.8882  220.3829 H   0  0  0  0  0  0  0  0  0  0  0  0
  139.4397   78.8561  220.4996 H   0  0  0  0  0  0  0  0  0  0  0  0
  137.9374   78.3756  219.7402 H   0  0  0  0  0  0  0  0  0  0  0  0
  138.4088   80.7270  221.3490 H   0  0  0  0  0  0  0  0  0  0  0  0
  136.8280   80.1916  220.7574 H   0  0  0  0  0  0  0  0  0  0  0  0
  137.4522   80.3012  223.4551 H   0  0  0  0  0  0  0  0  0  0  0  0
  136.2961   79.1467  222.8751 H   0  0  0  0  0  0  0  0  0  0  0  0
  138.2104   77.8671  223.9540 H   0  0  0  0  0  0  0  0  0  0  0  0
  139.2115   80.7711  223.9317 H   0  0  0  0  0  0  0  0  0  0  0  0
  141.5281   81.6290  223.9431 H   0  0  0  0  0  0  0  0  0  0  0  0
  144.3850   79.9610  222.3870 H   0  0  0  0  0  0  0  0  0  0  0  0
  142.9146   78.0443  222.1076 H   0  0  0  0  0  0  0  0  0  0  0  0
  140.6179   77.1292  222.0628 H   0  0  0  0  0  0  0  0  0  0  0  0
  138.9702   70.4156  221.6250 H   0  0  0  0  0  0  0  0  0  0  0  0
  139.2352   68.6493  223.3681 H   0  0  0  0  0  0  0  0  0  0  0  0
  139.8879   67.9735  225.5998 H   0  0  0  0  0  0  0  0  0  0  0  0
  141.4354   70.9460  228.3069 H   0  0  0  0  0  0  0  0  0  0  0  0
  141.1606   72.7117  226.5411 H   0  0  0  0  0  0  0  0  0  0  0  0
  1  2  2  0
  2  3  1  0
  3  4  1  0
  4  5  1  0
  5  6  2  0
  5  7  1  0
  7  8  1  0
  8  9  1  0
  9 10  1  0
 10 11  1  0
 11 12  1  0
 12 13  2  0
 13 14  1  0
 14 15  2  0
 15 16  1  0
 15 17  1  0
 17 18  2  0
  2 19  1  0
 19 20  2  0
 20 21  1  0
 21 22  2  0
 22 23  1  0
 23 24  2  0
 24 25  1  0
 24 26  1  0
 26 27  2  0
 27 28  1  0
 28 29  2  0
 11  7  1  0
 18 12  1  0
 29 19  1  0
 28 22  1  0
  3 30  1  0
  4 31  1  0
  4 32  1  0
  8 33  1  0
  8 34  1  0
  9 35  1  0
  9 36  1  0
 10 37  1  0
 10 38  1  0
 11 39  1  1
 13 40  1  0
 14 41  1  0
 16 42  1  0
 17 43  1  0
 18 44  1  0
 20 45  1  0
 21 46  1  0
 23 47  1  0
 26 48  1  0
 27 49  1  0
M  END
>  <smiles>  (31) 
O=C(NCC(=O)N1CCCC1c1ccc(O)cc1)c1ccc2cc(Cl)ccc2n1

>  <score_type>  (31) 
oracle

>  <origin>  (31) 
autodockgpu

>  <m_score__min__energy>  (31) 
-8.3200000000000003

>  <m_primary>  (31) 
energy

>  <rmsd>  (31) 
3.3834547466051603

>  <m_score__min__rmsd>  (31) 
3.3834547466051603

>  <meeko>  (31) 
{"free_energy": -8.03, "intermolecular_energy": -9.82, "internal_energy": -1.25, "cluster_size": 24, "cluster_id": 2, "rank_in_cluster": 10}

>  <energy>  (31) 
-8.26

>  <cluster_rmsd>  (31) 
0.0

>  <cluster>  (31) 
3

$$$$

     RDKit          3D

 49 52  0  0  0  0  0  0  0  0999 V2000
  139.4360   74.5140  222.0940 O   0  0  0  0  0  0  0  0  0  0  0  0
  140.6110   74.7420  221.7360 C   0  0  0  0  0  0  0  0  0  0  0  0
  141.1450   76.0580  221.8210 N   0  0  0  0  0  0  0  0  0  0  0  0
  140.3070   77.0990  222.3230 C   0  0  0  0  0  0  0  0  0  0  0  0
  141.0600   78.2820  222.8160 C   0  0  0  0  0  0  0  0  0  0  0  0
  141.8690   78.1930  223.7880 O   0  0  0  0  0  0  0  0  0  0  0  0
  140.8290   79.5160  222.1460 N   0  0  0  0  0  0  0  0  0  0  0  0
  139.5930   80.0370  221.5810 C   0  0  0  0  0  0  0  0  0  0  0  0
  139.6950   81.5270  221.8540 C   0  0  0  0  0  0  0  0  0  0  0  0
  141.0760   81.7490  222.4510 C   0  0  0  0  0  0  0  0  0  0  0  0
  141.8180   80.5710  221.8660 C   0  0  2  0  0  0  0  0  0  0  0  0
  141.9240   80.6250  220.3930 C   0  0  0  0  0  0  0  0  0  0  0  0
  142.1480   79.4460  219.6770 C   0  0  0  0  0  0  0  0  0  0  0  0
  142.2480   79.4910  218.2940 C   0  0  0  0  0  0  0  0  0  0  0  0
  142.1350   80.6690  217.5880 C   0  0  0  0  0  0  0  0  0  0  0  0
  142.2300   80.7470  216.2110 O   0  0  0  0  0  0  0  0  0  0  0  0
  141.9150   81.8190  218.3130 C   0  0  0  0  0  0  0  0  0  0  0  0
  141.8070   81.8280  219.6970 C   0  0  0  0  0  0  0  0  0  0  0  0
  141.5030   73.6860  221.2120 C   0  0  0  0  0  0  0  0  0  0  0  0
  141.0010   72.3900  221.0560 C   0  0  0  0  0  0  0  0  0  0  0  0
  141.8430   71.3940  220.5610 C   0  0  0  0  0  0  0  0  0  0  0  0
  143.1410   71.6690  220.2300 C   0  0  0  0  0  0  0  0  0  0  0  0
  143.9700   70.6830  219.7420 C   0  0  0  0  0  0  0  0  0  0  0  0
  145.2640   71.0450  219.4330 C   0  0  0  0  0  0  0  0  0  0  0  0
  146.3210   69.7810  218.8090 Cl  0  0  0  0  0  0  0  0  0  0  0  0
  145.7610   72.3030  219.5810 C   0  0  0  0  0  0  0  0  0  0  0  0
  144.9120   73.2940  220.0770 C   0  0  0  0  0  0  0  0  0  0  0  0
  143.5940   72.9780  220.4040 C   0  0  0  0  0  0  0  0  0  0  0  0
  142.7790   73.9290  220.8790 N   0  0  0  0  0  0  0  0  0  0  0  0
  142.1370   76.2450  221.5170 H   0  0  0  0  0  0  0  0  0  0  0  0
  139.6360   77.4257  221.5149 H   0  0  0  0  0  0  0  0  0  0  0  0
  139.7571   76.6855  223.1812 H   0  0  0  0  0  0  0  0  0  0  0  0
  139.5362   79.8358  220.5010 H   0  0  0  0  0  0  0  0  0  0  0  0
  138.6914   79.5777  222.0124 H   0  0  0  0  0  0  0  0  0  0  0  0
  139.5869   82.0955  220.9185 H   0  0  0  0  0  0  0  0  0  0  0  0
  138.9015   81.8675  222.5355 H   0  0  0  0  0  0  0  0  0  0  0  0
  141.5107   82.7056  222.1256 H   0  0  0  0  0  0  0  0  0  0  0  0
  141.0980   81.8066  223.5493 H   0  0  0  0  0  0  0  0  0  0  0  0
  142.8410   80.4769  222.2591 H   0  0  0  0  0  0  0  0  0  0  0  0
  142.2445   78.4871  220.2073 H   0  0  0  0  0  0  0  0  0  0  0  0
  142.4233   78.5554  217.7428 H   0  0  0  0  0  0  0  0  0  0  0  0
  143.0820   80.5210  215.7150 H   0  0  0  0  0  0  0  0  0  0  0  0
  141.8207   82.7720  217.7718 H   0  0  0  0  0  0  0  0  0  0  0  0
  141.6317   82.7702  220.2369 H   0  0  0  0  0  0  0  0  0  0  0  0
  139.9582   72.1596  221.3196 H   0  0  0  0  0  0  0  0  0  0  0  0
  141.4569   70.3717  220.4350 H   0  0  0  0  0  0  0  0  0  0  0  0
  143.6148   69.6510  219.6047 H   0  0  0  0  0  0  0  0  0  0  0  0
  146.8038   72.5330  219.3169 H   0  0  0  0  0  0  0  0  0  0  0  0
  145.2819   74.3214  220.2095 H   0  0  0  0  0  0  0  0  0  0  0  0
  1  2  2  0
  2  3  1  0
  3  4  1  0
  4  5  1  0
  5  6  2  0
  5  7  1  0
  7  8  1  0
  8  9  1  0
  9 10  1  0
 10 11  1  0
 11 12  1  0
 12 13  2  0
 13 14  1  0
 14 15  2  0
 15 16  1  0
 15 17  1  0
 17 18  2  0
  2 19  1  0
 19 20  2  0
 20 21  1  0
 21 22  2  0
 22 23  1  0
 23 24  2  0
 24 25  1  0
 24 26  1  0
 26 27  2  0
 27 28  1  0
 28 29  2  0
 11  7  1  0
 18 12  1  0
 29 19  1  0
 28 22  1  0
  3 30  1  0
  4 31  1  0
  4 32  1  0
  8 33  1  0
  8 34  1  0
  9 35  1  0
  9 36  1  0
 10 37  1  0
 10 38  1  0
 11 39  1  1
 13 40  1  0
 14 41  1  0
 16 42  1  0
 17 43  1  0
 18 44  1  0
 20 45  1  0
 21 46  1  0
 23 47  1  0
 26 48  1  0
 27 49  1  0
M  END
>  <smiles>  (32) 
O=C(NCC(=O)N1CCCC1c1ccc(O)cc1)c1ccc2cc(Cl)ccc2n1

>  <score_type>  (32) 
oracle

>  <origin>  (32) 
autodockgpu

>  <m_score__min__energy>  (32) 
-8.3200000000000003

>  <m_primary>  (32) 
energy

>  <rmsd>  (32) 
6.1995112503082765

>  <m_score__min__rmsd>  (32) 
6.1995112503082765

>  <meeko>  (32) 
{"free_energy": -7.26, "intermolecular_energy": -9.05, "internal_energy": -1.37, "cluster_size": 1, "cluster_id": 6, "rank_in_cluster": 1}

>  <energy>  (32) 
-8.21

>  <cluster_rmsd>  (32) 
0.37

>  <cluster>  (32) 
3

$$$$

     RDKit          3D

 49 52  0  0  0  0  0  0  0  0999 V2000
  140.8690   73.7720  221.9800 O   0  0  0  0  0  0  0  0  0  0  0  0
  139.9410   72.9600  222.1830 C   0  0  0  0  0  0  0  0  0  0  0  0
  138.7700   72.9900  221.3750 N   0  0  0  0  0  0  0  0  0  0  0  0
  138.6880   73.9660  220.3360 C   0  0  0  0  0  0  0  0  0  0  0  0
  137.4250   74.7500  220.3560 C   0  0  0  0  0  0  0  0  0  0  0  0
  136.3830   74.3400  219.7620 O   0  0  0  0  0  0  0  0  0  0  0  0
  137.4430   75.9800  221.0710 N   0  0  0  0  0  0  0  0  0  0  0  0
  137.0660   77.3110  220.6180 C   0  0  0  0  0  0  0  0  0  0  0  0
  136.4390   77.9270  221.8560 C   0  0  0  0  0  0  0  0  0  0  0  0
  136.6360   76.9130  222.9730 C   0  0  0  0  0  0  0  0  0  0  0  0
  137.8600   76.1880  222.4690 C   0  0  2  0  0  0  0  0  0  0  0  0
  139.0580   77.0490  222.3940 C   0  0  0  0  0  0  0  0  0  0  0  0
  140.1460   76.6480  221.6150 C   0  0  0  0  0  0  0  0  0  0  0  0
  141.2730   77.4540  221.5420 C   0  0  0  0  0  0  0  0  0  0  0  0
  141.3640   78.6520  222.2180 C   0  0  0  0  0  0  0  0  0  0  0  0
  142.4720   79.4770  222.1660 O   0  0  0  0  0  0  0  0  0  0  0  0
  140.2800   79.0290  222.9800 C   0  0  0  0  0  0  0  0  0  0  0  0
  139.1300   78.2580  223.0870 C   0  0  0  0  0  0  0  0  0  0  0  0
  139.9960   71.9390  223.2500 C   0  0  0  0  0  0  0  0  0  0  0  0
  139.5330   70.6470  222.9780 C   0  0  0  0  0  0  0  0  0  0  0  0
  139.5860   69.6840  223.9860 C   0  0  0  0  0  0  0  0  0  0  0  0
  140.0800   69.9870  225.2240 C   0  0  0  0  0  0  0  0  0  0  0  0
  140.1300   69.0330  226.2180 C   0  0  0  0  0  0  0  0  0  0  0  0
  140.6430   69.4220  227.4370 C   0  0  0  0  0  0  0  0  0  0  0  0
  140.7050   68.1990  228.7040 Cl  0  0  0  0  0  0  0  0  0  0  0  0
  141.0950   70.6760  227.7110 C   0  0  0  0  0  0  0  0  0  0  0  0
  141.0390   71.6330  226.6970 C   0  0  0  0  0  0  0  0  0  0  0  0
  140.5290   71.2900  225.4460 C   0  0  0  0  0  0  0  0  0  0  0  0
  140.4760   72.2090  224.4720 N   0  0  0  0  0  0  0  0  0  0  0  0
  137.9910   72.3040  221.5500 H   0  0  0  0  0  0  0  0  0  0  0  0
  139.5320   74.6629  220.4458 H   0  0  0  0  0  0  0  0  0  0  0  0
  138.7163   73.4231  219.3797 H   0  0  0  0  0  0  0  0  0  0  0  0
  137.9480   77.8834  220.2948 H   0  0  0  0  0  0  0  0  0  0  0  0
  136.3906   77.2988  219.7498 H   0  0  0  0  0  0  0  0  0  0  0  0
  136.9388   78.8742  222.1068 H   0  0  0  0  0  0  0  0  0  0  0  0
  135.3739   78.1525  221.6991 H   0  0  0  0  0  0  0  0  0  0  0  0
  136.8233   77.4038  223.9394 H   0  0  0  0  0  0  0  0  0  0  0  0
  135.7666   76.2675  223.1665 H   0  0  0  0  0  0  0  0  0  0  0  0
  138.1256   75.3225  223.0937 H   0  0  0  0  0  0  0  0  0  0  0  0
  140.1094   75.6978  221.0621 H   0  0  0  0  0  0  0  0  0  0  0  0
  142.1221   77.1262  220.9242 H   0  0  0  0  0  0  0  0  0  0  0  0
  143.2920   79.2460  221.6200 H   0  0  0  0  0  0  0  0  0  0  0  0
  140.3274   79.9820  223.5273 H   0  0  0  0  0  0  0  0  0  0  0  0
  138.2879   78.5955  223.7091 H   0  0  0  0  0  0  0  0  0  0  0  0
  139.1334   70.3945  221.9847 H   0  0  0  0  0  0  0  0  0  0  0  0
  139.2248   68.6653  223.7814 H   0  0  0  0  0  0  0  0  0  0  0  0
  139.7759   68.0059  226.0459 H   0  0  0  0  0  0  0  0  0  0  0  0
  141.4936   70.9283  228.7047 H   0  0  0  0  0  0  0  0  0  0  0  0
  141.3967   72.6562  226.8846 H   0  0  0  0  0  0  0  0  0  0  0  0
  1  2  2  0
  2  3  1  0
  3  4  1  0
  4  5  1  0
  5  6  2  0
  5  7  1  0
  7  8  1  0
  8  9  1  0
  9 10  1  0
 10 11  1  0
 11 12  1  0
 12 13  2  0
 13 14  1  0
 14 15  2  0
 15 16  1  0
 15 17  1  0
 17 18  2  0
  2 19  1  0
 19 20  2  0
 20 21  1  0
 21 22  2  0
 22 23  1  0
 23 24  2  0
 24 25  1  0
 24 26  1  0
 26 27  2  0
 27 28  1  0
 28 29  2  0
 11  7  1  0
 18 12  1  0
 29 19  1  0
 28 22  1  0
  3 30  1  0
  4 31  1  0
  4 32  1  0
  8 33  1  0
  8 34  1  0
  9 35  1  0
  9 36  1  0
 10 37  1  0
 10 38  1  0
 11 39  1  1
 13 40  1  0
 14 41  1  0
 16 42  1  0
 17 43  1  0
 18 44  1  0
 20 45  1  0
 21 46  1  0
 23 47  1  0
 26 48  1  0
 27 49  1  0
M  END
>  <smiles>  (33) 
O=C(NCC(=O)N1CCCC1c1ccc(O)cc1)c1ccc2cc(Cl)ccc2n1

>  <score_type>  (33) 
oracle

>  <origin>  (33) 
autodockgpu

>  <m_score__min__energy>  (33) 
-8.3200000000000003

>  <m_primary>  (33) 
energy

>  <rmsd>  (33) 
3.314792509287869

>  <m_score__min__rmsd>  (33) 
3.314792509287869

>  <meeko>  (33) 
{"free_energy": -7.47, "intermolecular_energy": -9.26, "internal_energy": -1.33, "cluster_size": 24, "cluster_id": 2, "rank_in_cluster": 23}

>  <energy>  (33) 
-8.17

>  <cluster_rmsd>  (33) 
0.26

>  <cluster>  (33) 
3

$$$$

     RDKit          3D

 49 52  0  0  0  0  0  0  0  0999 V2000
  140.0980   72.5800  220.7110 O   0  0  0  0  0  0  0  0  0  0  0  0
  139.5630   72.7430  221.8280 C   0  0  0  0  0  0  0  0  0  0  0  0
  138.7790   73.9020  222.0860 N   0  0  0  0  0  0  0  0  0  0  0  0
  138.6220   74.8610  221.0410 C   0  0  0  0  0  0  0  0  0  0  0  0
  139.7110   75.8720  220.9940 C   0  0  0  0  0  0  0  0  0  0  0  0
  139.7640   76.8260  221.8280 O   0  0  0  0  0  0  0  0  0  0  0  0
  140.6880   75.7180  219.9720 N   0  0  0  0  0  0  0  0  0  0  0  0
  140.5750   75.0400  218.6890 C   0  0  0  0  0  0  0  0  0  0  0  0
  141.4210   75.9040  217.7710 C   0  0  0  0  0  0  0  0  0  0  0  0
  142.0650   76.9540  218.6620 C   0  0  0  0  0  0  0  0  0  0  0  0
  142.0720   76.2240  219.9830 C   0  0  2  0  0  0  0  0  0  0  0  0
  142.9270   75.0200  219.9770 C   0  0  0  0  0  0  0  0  0  0  0  0
  142.6220   73.9550  220.8300 C   0  0  0  0  0  0  0  0  0  0  0  0
  143.4230   72.8220  220.8270 C   0  0  0  0  0  0  0  0  0  0  0  0
  144.5230   72.7030  220.0060 C   0  0  0  0  0  0  0  0  0  0  0  0
  145.3400   71.5870  219.9810 O   0  0  0  0  0  0  0  0  0  0  0  0
  144.8060   73.7630  219.1740 C   0  0  0  0  0  0  0  0  0  0  0  0
  144.0380   74.9180  219.1390 C   0  0  0  0  0  0  0  0  0  0  0  0
  139.7070   71.7690  222.9300 C   0  0  0  0  0  0  0  0  0  0  0  0
  139.2500   70.4600  222.7430 C   0  0  0  0  0  0  0  0  0  0  0  0
  139.3860   69.5410  223.7840 C   0  0  0  0  0  0  0  0  0  0  0  0
  139.9560   69.9030  224.9720 C   0  0  0  0  0  0  0  0  0  0  0  0
  140.0890   68.9920  225.9980 C   0  0  0  0  0  0  0  0  0  0  0  0
  140.6740   69.4380  227.1640 C   0  0  0  0  0  0  0  0  0  0  0  0
  140.8420   68.2710  228.4730 Cl  0  0  0  0  0  0  0  0  0  0  0  0
  141.1220   70.7090  227.3550 C   0  0  0  0  0  0  0  0  0  0  0  0
  140.9820   71.6230  226.3090 C   0  0  0  0  0  0  0  0  0  0  0  0
  140.3960   71.2200  225.1100 C   0  0  0  0  0  0  0  0  0  0  0  0
  140.2620   72.0970  224.1060 N   0  0  0  0  0  0  0  0  0  0  0  0
  138.3300   74.0350  223.0300 H   0  0  0  0  0  0  0  0  0  0  0  0
  138.6008   74.3274  220.0793 H   0  0  0  0  0  0  0  0  0  0  0  0
  137.6857   75.4036  221.2384 H   0  0  0  0  0  0  0  0  0  0  0  0
  140.9732   74.0162  218.7463 H   0  0  0  0  0  0  0  0  0  0  0  0
  139.5355   74.9314  218.3460 H   0  0  0  0  0  0  0  0  0  0  0  0
  142.1931   75.2956  217.2774 H   0  0  0  0  0  0  0  0  0  0  0  0
  140.8138   76.3651  216.9781 H   0  0  0  0  0  0  0  0  0  0  0  0
  143.0838   77.2006  218.3285 H   0  0  0  0  0  0  0  0  0  0  0  0
  141.5470   77.9243  218.6763 H   0  0  0  0  0  0  0  0  0  0  0  0
  142.4142   76.8572  220.8148 H   0  0  0  0  0  0  0  0  0  0  0  0
  141.7516   74.0150  221.4999 H   0  0  0  0  0  0  0  0  0  0  0  0
  143.1714   71.9912  221.5026 H   0  0  0  0  0  0  0  0  0  0  0  0
  146.0630   71.4320  220.6710 H   0  0  0  0  0  0  0  0  0  0  0  0
  145.6787   73.6910  218.5083 H   0  0  0  0  0  0  0  0  0  0  0  0
  144.3014   75.7422  218.4598 H   0  0  0  0  0  0  0  0  0  0  0  0
  138.7904   70.1599  221.7897 H   0  0  0  0  0  0  0  0  0  0  0  0
  139.0291   68.5097  223.6463 H   0  0  0  0  0  0  0  0  0  0  0  0
  139.7431   67.9533  225.8909 H   0  0  0  0  0  0  0  0  0  0  0  0
  141.5822   71.0081  228.3083 H   0  0  0  0  0  0  0  0  0  0  0  0
  141.3331   72.6583  226.4306 H   0  0  0  0  0  0  0  0  0  0  0  0
  1  2  2  0
  2  3  1  0
  3  4  1  0
  4  5  1  0
  5  6  2  0
  5  7  1  0
  7  8  1  0
  8  9  1  0
  9 10  1  0
 10 11  1  0
 11 12  1  0
 12 13  2  0
 13 14  1  0
 14 15  2  0
 15 16  1  0
 15 17  1  0
 17 18  2  0
  2 19  1  0
 19 20  2  0
 20 21  1  0
 21 22  2  0
 22 23  1  0
 23 24  2  0
 24 25  1  0
 24 26  1  0
 26 27  2  0
 27 28  1  0
 28 29  2  0
 11  7  1  0
 18 12  1  0
 29 19  1  0
 28 22  1  0
  3 30  1  0
  4 31  1  0
  4 32  1  0
  8 33  1  0
  8 34  1  0
  9 35  1  0
  9 36  1  0
 10 37  1  0
 10 38  1  0
 11 39  1  1
 13 40  1  0
 14 41  1  0
 16 42  1  0
 17 43  1  0
 18 44  1  0
 20 45  1  0
 21 46  1  0
 23 47  1  0
 26 48  1  0
 27 49  1  0
M  END
>  <smiles>  (34) 
O=C(NCC(=O)N1CCCC1c1ccc(O)cc1)c1ccc2cc(Cl)ccc2n1

>  <score_type>  (34) 
oracle

>  <origin>  (34) 
autodockgpu

>  <m_score__min__energy>  (34) 
-8.3200000000000003

>  <m_primary>  (34) 
energy

>  <rmsd>  (34) 
1.4591337706233833

>  <m_score__min__rmsd>  (34) 
1.4591337706233833

>  <meeko>  (34) 
{"free_energy": -7.41, "intermolecular_energy": -9.2, "internal_energy": -1.6, "cluster_size": 12, "cluster_id": 3, "rank_in_cluster": 11}

>  <energy>  (34) 
-8.15

>  <cluster_rmsd>  (34) 
0.45

>  <cluster>  (34) 
3

$$$$

     RDKit          3D

 49 52  0  0  0  0  0  0  0  0999 V2000
  140.8810   72.4860  221.2560 O   0  0  0  0  0  0  0  0  0  0  0  0
  140.0790   72.5580  222.2110 C   0  0  0  0  0  0  0  0  0  0  0  0
  139.1000   73.5890  222.2500 N   0  0  0  0  0  0  0  0  0  0  0  0
  139.0620   74.5300  221.1780 C   0  0  0  0  0  0  0  0  0  0  0  0
  140.2840   75.3720  221.0820 C   0  0  0  0  0  0  0  0  0  0  0  0
  140.5790   76.2150  221.9810 O   0  0  0  0  0  0  0  0  0  0  0  0
  141.1060   75.1840  219.9350 N   0  0  0  0  0  0  0  0  0  0  0  0
  140.9050   74.3000  218.7970 C   0  0  0  0  0  0  0  0  0  0  0  0
  141.4560   75.1090  217.6360 C   0  0  0  0  0  0  0  0  0  0  0  0
  142.0570   76.3640  218.2490 C   0  0  0  0  0  0  0  0  0  0  0  0
  142.3790   75.8620  219.6360 C   0  0  2  0  0  0  0  0  0  0  0  0
  143.4010   74.7950  219.6460 C   0  0  0  0  0  0  0  0  0  0  0  0
  143.6580   74.1000  220.8300 C   0  0  0  0  0  0  0  0  0  0  0  0
  144.6160   73.0970  220.8440 C   0  0  0  0  0  0  0  0  0  0  0  0
  145.3360   72.7540  219.7200 C   0  0  0  0  0  0  0  0  0  0  0  0
  146.2970   71.7600  219.7010 O   0  0  0  0  0  0  0  0  0  0  0  0
  145.0670   73.4510  218.5630 C   0  0  0  0  0  0  0  0  0  0  0  0
  144.1190   74.4630  218.4970 C   0  0  0  0  0  0  0  0  0  0  0  0
  140.0920   71.5990  223.3350 C   0  0  0  0  0  0  0  0  0  0  0  0
  139.5840   70.3110  223.1360 C   0  0  0  0  0  0  0  0  0  0  0  0
  139.5980   69.4070  224.1990 C   0  0  0  0  0  0  0  0  0  0  0  0
  140.0980   69.7640  225.4200 C   0  0  0  0  0  0  0  0  0  0  0  0
  140.1090   68.8680  226.4670 C   0  0  0  0  0  0  0  0  0  0  0  0
  140.6300   69.3080  227.6650 C   0  0  0  0  0  0  0  0  0  0  0  0
  140.6430   68.1600  229.0020 Cl  0  0  0  0  0  0  0  0  0  0  0  0
  141.1270   70.5590  227.8690 C   0  0  0  0  0  0  0  0  0  0  0  0
  141.1090   71.4570  226.8010 C   0  0  0  0  0  0  0  0  0  0  0  0
  140.5930   71.0600  225.5690 C   0  0  0  0  0  0  0  0  0  0  0  0
  140.5760   71.9230  224.5430 N   0  0  0  0  0  0  0  0  0  0  0  0
  138.4250   73.6450  223.0580 H   0  0  0  0  0  0  0  0  0  0  0  0
  138.9453   73.9774  220.2341 H   0  0  0  0  0  0  0  0  0  0  0  0
  138.2176   75.2075  221.3730 H   0  0  0  0  0  0  0  0  0  0  0  0
  141.4617   73.3597  218.9234 H   0  0  0  0  0  0  0  0  0  0  0  0
  139.8551   74.0023  218.6589 H   0  0  0  0  0  0  0  0  0  0  0  0
  142.2290   74.5357  217.1032 H   0  0  0  0  0  0  0  0  0  0  0  0
  140.6704   75.3532  216.9058 H   0  0  0  0  0  0  0  0  0  0  0  0
  142.9620   76.6852  217.7126 H   0  0  0  0  0  0  0  0  0  0  0  0
  141.4029   77.2479  218.2205 H   0  0  0  0  0  0  0  0  0  0  0  0
  142.7411   76.6597  220.3013 H   0  0  0  0  0  0  0  0  0  0  0  0
  143.1032   74.3470  221.7472 H   0  0  0  0  0  0  0  0  0  0  0  0
  144.8074   72.5575  221.7833 H   0  0  0  0  0  0  0  0  0  0  0  0
  146.5020   71.1930  220.5130 H   0  0  0  0  0  0  0  0  0  0  0  0
  145.6275   73.1947  217.6519 H   0  0  0  0  0  0  0  0  0  0  0  0
  143.9366   74.9956  217.5520 H   0  0  0  0  0  0  0  0  0  0  0  0
  139.1797   70.0153  222.1567 H   0  0  0  0  0  0  0  0  0  0  0  0
  139.2007   68.3918  224.0521 H   0  0  0  0  0  0  0  0  0  0  0  0
  139.7189   67.8460  226.3517 H   0  0  0  0  0  0  0  0  0  0  0  0
  141.5315   70.8537  228.8485 H   0  0  0  0  0  0  0  0  0  0  0  0
  141.5014   72.4763  226.9314 H   0  0  0  0  0  0  0  0  0  0  0  0
  1  2  2  0
  2  3  1  0
  3  4  1  0
  4  5  1  0
  5  6  2  0
  5  7  1  0
  7  8  1  0
  8  9  1  0
  9 10  1  0
 10 11  1  0
 11 12  1  0
 12 13  2  0
 13 14  1  0
 14 15  2  0
 15 16  1  0
 15 17  1  0
 17 18  2  0
  2 19  1  0
 19 20  2  0
 20 21  1  0
 21 22  2  0
 22 23  1  0
 23 24  2  0
 24 25  1  0
 24 26  1  0
 26 27  2  0
 27 28  1  0
 28 29  2  0
 11  7  1  0
 18 12  1  0
 29 19  1  0
 28 22  1  0
  3 30  1  0
  4 31  1  0
  4 32  1  0
  8 33  1  0
  8 34  1  0
  9 35  1  0
  9 36  1  0
 10 37  1  0
 10 38  1  0
 11 39  1  1
 13 40  1  0
 14 41  1  0
 16 42  1  0
 17 43  1  0
 18 44  1  0
 20 45  1  0
 21 46  1  0
 23 47  1  0
 26 48  1  0
 27 49  1  0
M  END
>  <smiles>  (35) 
O=C(NCC(=O)N1CCCC1c1ccc(O)cc1)c1ccc2cc(Cl)ccc2n1

>  <score_type>  (35) 
oracle

>  <origin>  (35) 
autodockgpu

>  <m_score__min__energy>  (35) 
-8.3200000000000003

>  <m_primary>  (35) 
energy

>  <rmsd>  (35) 
1.5472973867935442

>  <m_score__min__rmsd>  (35) 
1.5472973867935442

>  <meeko>  (35) 
{"free_energy": -8.26, "intermolecular_energy": -10.05, "internal_energy": -1.25, "cluster_size": 12, "cluster_id": 3, "rank_in_cluster": 1}

>  <energy>  (35) 
-8.08

>  <cluster_rmsd>  (35) 
1.09

>  <cluster>  (35) 
3

$$$$

     RDKit          3D

 49 52  0  0  0  0  0  0  0  0999 V2000
  140.5620   72.5640  220.8660 O   0  0  0  0  0  0  0  0  0  0  0  0
  140.1160   72.8520  221.9970 C   0  0  0  0  0  0  0  0  0  0  0  0
  139.6000   74.1530  222.2550 N   0  0  0  0  0  0  0  0  0  0  0  0
  139.6070   75.1080  221.1950 C   0  0  0  0  0  0  0  0  0  0  0  0
  138.6700   76.2420  221.4100 C   0  0  0  0  0  0  0  0  0  0  0  0
  137.4140   76.0770  221.3790 O   0  0  0  0  0  0  0  0  0  0  0  0
  139.2510   77.5180  221.6520 N   0  0  0  0  0  0  0  0  0  0  0  0
  138.6270   78.8320  221.6190 C   0  0  0  0  0  0  0  0  0  0  0  0
  139.3370   79.5760  222.7360 C   0  0  0  0  0  0  0  0  0  0  0  0
  140.4240   78.6380  223.2360 C   0  0  0  0  0  0  0  0  0  0  0  0
  140.6540   77.8030  222.0000 C   0  0  2  0  0  0  0  0  0  0  0  0
  141.1880   78.5810  220.8630 C   0  0  0  0  0  0  0  0  0  0  0  0
  141.1810   78.0210  219.5830 C   0  0  0  0  0  0  0  0  0  0  0  0
  141.6800   78.7480  218.5130 C   0  0  0  0  0  0  0  0  0  0  0  0
  142.1910   80.0200  218.6630 C   0  0  0  0  0  0  0  0  0  0  0  0
  142.6960   80.7690  217.6170 O   0  0  0  0  0  0  0  0  0  0  0  0
  142.1880   80.5530  219.9330 C   0  0  0  0  0  0  0  0  0  0  0  0
  141.7010   79.8670  221.0370 C   0  0  0  0  0  0  0  0  0  0  0  0
  140.0960   71.8860  223.1150 C   0  0  0  0  0  0  0  0  0  0  0  0
  139.5820   70.6040  222.8950 C   0  0  0  0  0  0  0  0  0  0  0  0
  139.5630   69.6920  223.9510 C   0  0  0  0  0  0  0  0  0  0  0  0
  140.0380   70.0350  225.1860 C   0  0  0  0  0  0  0  0  0  0  0  0
  140.0180   69.1320  226.2260 C   0  0  0  0  0  0  0  0  0  0  0  0
  140.5150   69.5590  227.4390 C   0  0  0  0  0  0  0  0  0  0  0  0
  140.4870   68.4020  228.7670 Cl  0  0  0  0  0  0  0  0  0  0  0  0
  141.0170   70.8040  227.6630 C   0  0  0  0  0  0  0  0  0  0  0  0
  141.0320   71.7100  226.6020 C   0  0  0  0  0  0  0  0  0  0  0  0
  140.5400   71.3270  225.3550 C   0  0  0  0  0  0  0  0  0  0  0  0
  140.5550   72.1960  224.3360 N   0  0  0  0  0  0  0  0  0  0  0  0
  139.2260   74.3910  223.2110 H   0  0  0  0  0  0  0  0  0  0  0  0
  140.6255   75.5120  221.0975 H   0  0  0  0  0  0  0  0  0  0  0  0
  139.2763   74.5839  220.2862 H   0  0  0  0  0  0  0  0  0  0  0  0
  138.7923   79.3238  220.6491 H   0  0  0  0  0  0  0  0  0  0  0  0
  137.5351   78.7965  221.7477 H   0  0  0  0  0  0  0  0  0  0  0  0
  139.7810   80.5070  222.3538 H   0  0  0  0  0  0  0  0  0  0  0  0
  138.6417   79.8544  223.5416 H   0  0  0  0  0  0  0  0  0  0  0  0
  141.3307   79.1869  223.5302 H   0  0  0  0  0  0  0  0  0  0  0  0
  140.1567   78.0634  224.1351 H   0  0  0  0  0  0  0  0  0  0  0  0
  141.3518   76.9709  222.1753 H   0  0  0  0  0  0  0  0  0  0  0  0
  140.7816   77.0083  219.4249 H   0  0  0  0  0  0  0  0  0  0  0  0
  141.6678   78.2949  217.5107 H   0  0  0  0  0  0  0  0  0  0  0  0
  143.5120   80.4830  217.0920 H   0  0  0  0  0  0  0  0  0  0  0  0
  142.5892   81.5668  220.0788 H   0  0  0  0  0  0  0  0  0  0  0  0
  141.7192   80.3303  222.0345 H   0  0  0  0  0  0  0  0  0  0  0  0
  139.1984   70.3189  221.9043 H   0  0  0  0  0  0  0  0  0  0  0  0
  139.1597   68.6818  223.7871 H   0  0  0  0  0  0  0  0  0  0  0  0
  139.6225   68.1140  226.0943 H   0  0  0  0  0  0  0  0  0  0  0  0
  141.4006   71.0884  228.6539 H   0  0  0  0  0  0  0  0  0  0  0  0
  141.4312   72.7244  226.7491 H   0  0  0  0  0  0  0  0  0  0  0  0
  1  2  2  0
  2  3  1  0
  3  4  1  0
  4  5  1  0
  5  6  2  0
  5  7  1  0
  7  8  1  0
  8  9  1  0
  9 10  1  0
 10 11  1  0
 11 12  1  0
 12 13  2  0
 13 14  1  0
 14 15  2  0
 15 16  1  0
 15 17  1  0
 17 18  2  0
  2 19  1  0
 19 20  2  0
 20 21  1  0
 21 22  2  0
 22 23  1  0
 23 24  2  0
 24 25  1  0
 24 26  1  0
 26 27  2  0
 27 28  1  0
 28 29  2  0
 11  7  1  0
 18 12  1  0
 29 19  1  0
 28 22  1  0
  3 30  1  0
  4 31  1  0
  4 32  1  0
  8 33  1  0
  8 34  1  0
  9 35  1  0
  9 36  1  0
 10 37  1  0
 10 38  1  0
 11 39  1  1
 13 40  1  0
 14 41  1  0
 16 42  1  0
 17 43  1  0
 18 44  1  0
 20 45  1  0
 21 46  1  0
 23 47  1  0
 26 48  1  0
 27 49  1  0
M  END
>  <smiles>  (36) 
O=C(NCC(=O)N1CCCC1c1ccc(O)cc1)c1ccc2cc(Cl)ccc2n1

>  <score_type>  (36) 
oracle

>  <origin>  (36) 
autodockgpu

>  <m_score__min__energy>  (36) 
-8.3200000000000003

>  <m_primary>  (36) 
energy

>  <rmsd>  (36) 
3.1522275823129653

>  <m_score__min__rmsd>  (36) 
3.1522275823129653

>  <meeko>  (36) 
{"free_energy": -8.13, "intermolecular_energy": -9.92, "internal_energy": -1.05, "cluster_size": 6, "cluster_id": 1, "rank_in_cluster": 5}

>  <energy>  (36) 
-8.04

>  <cluster_rmsd>  (36) 
0.53

>  <cluster>  (36) 
3

$$$$

     RDKit          3D

 49 52  0  0  0  0  0  0  0  0999 V2000
  139.6690   72.3580  220.6770 O   0  0  0  0  0  0  0  0  0  0  0  0
  139.6610   72.7490  221.8640 C   0  0  0  0  0  0  0  0  0  0  0  0
  139.5900   74.1380  222.1620 N   0  0  0  0  0  0  0  0  0  0  0  0
  139.5280   75.0620  221.0760 C   0  0  0  0  0  0  0  0  0  0  0  0
  140.7830   75.1300  220.2810 C   0  0  0  0  0  0  0  0  0  0  0  0
  141.3450   74.0810  219.8430 O   0  0  0  0  0  0  0  0  0  0  0  0
  141.3200   76.4240  220.0360 N   0  0  0  0  0  0  0  0  0  0  0  0
  142.6890   76.8060  219.7240 C   0  0  0  0  0  0  0  0  0  0  0  0
  142.5090   77.9580  218.7510 C   0  0  0  0  0  0  0  0  0  0  0  0
  141.0130   78.2240  218.6920 C   0  0  0  0  0  0  0  0  0  0  0  0
  140.5900   77.7040  220.0450 C   0  0  2  0  0  0  0  0  0  0  0  0
  141.1630   78.4720  221.1690 C   0  0  0  0  0  0  0  0  0  0  0  0
  141.2250   77.8920  222.4380 C   0  0  0  0  0  0  0  0  0  0  0  0
  141.7620   78.6100  223.4960 C   0  0  0  0  0  0  0  0  0  0  0  0
  142.2450   79.8920  223.3440 C   0  0  0  0  0  0  0  0  0  0  0  0
  142.7860   80.6330  224.3780 O   0  0  0  0  0  0  0  0  0  0  0  0
  142.1750   80.4450  222.0840 C   0  0  0  0  0  0  0  0  0  0  0  0
  141.6460   79.7690  220.9930 C   0  0  0  0  0  0  0  0  0  0  0  0
  139.7240   71.8170  223.0090 C   0  0  0  0  0  0  0  0  0  0  0  0
  139.1740   70.5380  222.8750 C   0  0  0  0  0  0  0  0  0  0  0  0
  139.2330   69.6590  223.9560 C   0  0  0  0  0  0  0  0  0  0  0  0
  139.8180   70.0310  225.1350 C   0  0  0  0  0  0  0  0  0  0  0  0
  139.8750   69.1600  226.2010 C   0  0  0  0  0  0  0  0  0  0  0  0
  140.4810   69.6150  227.3530 C   0  0  0  0  0  0  0  0  0  0  0  0
  140.5520   68.4980  228.7140 Cl  0  0  0  0  0  0  0  0  0  0  0  0
  141.0190   70.8570  227.4930 C   0  0  0  0  0  0  0  0  0  0  0  0
  140.9550   71.7300  226.4070 C   0  0  0  0  0  0  0  0  0  0  0  0
  140.3520   71.3180  225.2190 C   0  0  0  0  0  0  0  0  0  0  0  0
  140.2910   72.1560  224.1760 N   0  0  0  0  0  0  0  0  0  0  0  0
  139.5830   74.4620  223.1650 H   0  0  0  0  0  0  0  0  0  0  0  0
  138.7087   74.7588  220.4076 H   0  0  0  0  0  0  0  0  0  0  0  0
  139.3659   76.0598  221.5097 H   0  0  0  0  0  0  0  0  0  0  0  0
  143.2243   77.1320  220.6280 H   0  0  0  0  0  0  0  0  0  0  0  0
  143.2863   75.9795  219.3115 H   0  0  0  0  0  0  0  0  0  0  0  0
  143.0423   78.8500  219.1114 H   0  0  0  0  0  0  0  0  0  0  0  0
  142.9154   77.7152  217.7581 H   0  0  0  0  0  0  0  0  0  0  0  0
  140.7948   79.2966  218.5824 H   0  0  0  0  0  0  0  0  0  0  0  0
  140.4970   77.7587  217.8392 H   0  0  0  0  0  0  0  0  0  0  0  0
  139.4980   77.7080  220.1775 H   0  0  0  0  0  0  0  0  0  0  0  0
  140.8497   76.8704  222.5975 H   0  0  0  0  0  0  0  0  0  0  0  0
  141.8039   78.1406  224.4900 H   0  0  0  0  0  0  0  0  0  0  0  0
  142.2520   81.3300  224.8800 H   0  0  0  0  0  0  0  0  0  0  0  0
  142.5549   81.4667  221.9361 H   0  0  0  0  0  0  0  0  0  0  0  0
  141.6082   80.2490  220.0040 H   0  0  0  0  0  0  0  0  0  0  0  0
  138.7017   70.2299  221.9305 H   0  0  0  0  0  0  0  0  0  0  0  0
  138.8026   68.6513  223.8590 H   0  0  0  0  0  0  0  0  0  0  0  0
  139.4552   68.1454  226.1359 H   0  0  0  0  0  0  0  0  0  0  0  0
  141.4918   71.1644  228.4375 H   0  0  0  0  0  0  0  0  0  0  0  0
  141.3794   72.7416  226.4875 H   0  0  0  0  0  0  0  0  0  0  0  0
  1  2  2  0
  2  3  1  0
  3  4  1  0
  4  5  1  0
  5  6  2  0
  5  7  1  0
  7  8  1  0
  8  9  1  0
  9 10  1  0
 10 11  1  0
 11 12  1  0
 12 13  2  0
 13 14  1  0
 14 15  2  0
 15 16  1  0
 15 17  1  0
 17 18  2  0
  2 19  1  0
 19 20  2  0
 20 21  1  0
 21 22  2  0
 22 23  1  0
 23 24  2  0
 24 25  1  0
 24 26  1  0
 26 27  2  0
 27 28  1  0
 28 29  2  0
 11  7  1  0
 18 12  1  0
 29 19  1  0
 28 22  1  0
  3 30  1  0
  4 31  1  0
  4 32  1  0
  8 33  1  0
  8 34  1  0
  9 35  1  0
  9 36  1  0
 10 37  1  0
 10 38  1  0
 11 39  1  6
 13 40  1  0
 14 41  1  0
 16 42  1  0
 17 43  1  0
 18 44  1  0
 20 45  1  0
 21 46  1  0
 23 47  1  0
 26 48  1  0
 27 49  1  0
M  END
>  <smiles>  (37) 
O=C(NCC(=O)N1CCCC1c1ccc(O)cc1)c1ccc2cc(Cl)ccc2n1

>  <score_type>  (37) 
oracle

>  <origin>  (37) 
autodockgpu

>  <m_score__min__energy>  (37) 
-8.3200000000000003

>  <m_primary>  (37) 
energy

>  <rmsd>  (37) 
2.1882786212085232

>  <m_score__min__rmsd>  (37) 
2.1882786212085232

>  <meeko>  (37) 
{"free_energy": -7.97, "intermolecular_energy": -9.76, "internal_energy": -1.14, "cluster_size": 24, "cluster_id": 2, "rank_in_cluster": 16}

>  <energy>  (37) 
-7.99

>  <cluster_rmsd>  (37) 
0.49

>  <cluster>  (37) 
3

$$$$

     RDKit          3D

 49 52  0  0  0  0  0  0  0  0999 V2000
  140.4730   72.4450  220.7140 O   0  0  0  0  0  0  0  0  0  0  0  0
  140.1220   72.7850  221.8640 C   0  0  0  0  0  0  0  0  0  0  0  0
  139.7250   74.1260  222.1270 N   0  0  0  0  0  0  0  0  0  0  0  0
  139.7400   75.0610  221.0500 C   0  0  0  0  0  0  0  0  0  0  0  0
  141.0240   75.8010  220.9220 C   0  0  0  0  0  0  0  0  0  0  0  0
  142.1400   75.2140  221.0420 O   0  0  0  0  0  0  0  0  0  0  0  0
  140.9380   77.1970  220.6580 N   0  0  0  0  0  0  0  0  0  0  0  0
  141.8270   78.0390  219.8710 C   0  0  0  0  0  0  0  0  0  0  0  0
  140.8740   79.0270  219.2230 C   0  0  0  0  0  0  0  0  0  0  0  0
  139.5040   78.7360  219.8140 C   0  0  0  0  0  0  0  0  0  0  0  0
  139.9010   78.1280  221.1380 C   0  0  2  0  0  0  0  0  0  0  0  0
  140.6080   79.0750  222.0240 C   0  0  0  0  0  0  0  0  0  0  0  0
  140.3590   80.4450  221.9040 C   0  0  0  0  0  0  0  0  0  0  0  0
  141.0200   81.3380  222.7350 C   0  0  0  0  0  0  0  0  0  0  0  0
  141.9260   80.9230  223.6870 C   0  0  0  0  0  0  0  0  0  0  0  0
  142.6010   81.7880  224.5280 O   0  0  0  0  0  0  0  0  0  0  0  0
  142.1570   79.5690  223.7880 C   0  0  0  0  0  0  0  0  0  0  0  0
  141.5220   78.6340  222.9810 C   0  0  0  0  0  0  0  0  0  0  0  0
  140.0960   71.8400  223.0000 C   0  0  0  0  0  0  0  0  0  0  0  0
  139.5650   70.5610  222.8070 C   0  0  0  0  0  0  0  0  0  0  0  0
  139.5420   69.6690  223.8800 C   0  0  0  0  0  0  0  0  0  0  0  0
  140.0270   70.0300  225.1050 C   0  0  0  0  0  0  0  0  0  0  0  0
  140.0020   69.1470  226.1630 C   0  0  0  0  0  0  0  0  0  0  0  0
  140.5110   69.5900  227.3650 C   0  0  0  0  0  0  0  0  0  0  0  0
  140.4770   68.4580  228.7150 Cl  0  0  0  0  0  0  0  0  0  0  0  0
  141.0290   70.8330  227.5630 C   0  0  0  0  0  0  0  0  0  0  0  0
  141.0490   71.7190  226.4840 C   0  0  0  0  0  0  0  0  0  0  0  0
  140.5460   71.3180  225.2480 C   0  0  0  0  0  0  0  0  0  0  0  0
  140.5660   72.1680  224.2120 N   0  0  0  0  0  0  0  0  0  0  0  0
  139.4300   74.4070  223.0990 H   0  0  0  0  0  0  0  0  0  0  0  0
  139.5585   74.5147  220.1126 H   0  0  0  0  0  0  0  0  0  0  0  0
  138.9577   75.8057  221.2583 H   0  0  0  0  0  0  0  0  0  0  0  0
  142.5551   78.5552  220.5140 H   0  0  0  0  0  0  0  0  0  0  0  0
  142.4281   77.4744  219.1431 H   0  0  0  0  0  0  0  0  0  0  0  0
  141.1783   80.0587  219.4530 H   0  0  0  0  0  0  0  0  0  0  0  0
  140.8706   78.9248  218.1278 H   0  0  0  0  0  0  0  0  0  0  0  0
  138.9160   79.6558  219.9492 H   0  0  0  0  0  0  0  0  0  0  0  0
  138.8610   78.0978  219.1901 H   0  0  0  0  0  0  0  0  0  0  0  0
  139.0396   77.7418  221.7026 H   0  0  0  0  0  0  0  0  0  0  0  0
  139.6428   80.8133  221.1547 H   0  0  0  0  0  0  0  0  0  0  0  0
  140.8140   82.4135  222.6305 H   0  0  0  0  0  0  0  0  0  0  0  0
  142.9390   81.5020  225.4370 H   0  0  0  0  0  0  0  0  0  0  0  0
  142.8757   79.2127  224.5406 H   0  0  0  0  0  0  0  0  0  0  0  0
  141.7367   77.5612  223.0948 H   0  0  0  0  0  0  0  0  0  0  0  0
  139.1713   70.2624  221.8242 H   0  0  0  0  0  0  0  0  0  0  0  0
  139.1272   68.6603  223.7373 H   0  0  0  0  0  0  0  0  0  0  0  0
  139.5932   68.1318  226.0528 H   0  0  0  0  0  0  0  0  0  0  0  0
  141.4213   71.1315  228.5464 H   0  0  0  0  0  0  0  0  0  0  0  0
  141.4609   72.7312  226.6094 H   0  0  0  0  0  0  0  0  0  0  0  0
  1  2  2  0
  2  3  1  0
  3  4  1  0
  4  5  1  0
  5  6  2  0
  5  7  1  0
  7  8  1  0
  8  9  1  0
  9 10  1  0
 10 11  1  0
 11 12  1  0
 12 13  2  0
 13 14  1  0
 14 15  2  0
 15 16  1  0
 15 17  1  0
 17 18  2  0
  2 19  1  0
 19 20  2  0
 20 21  1  0
 21 22  2  0
 22 23  1  0
 23 24  2  0
 24 25  1  0
 24 26  1  0
 26 27  2  0
 27 28  1  0
 28 29  2  0
 11  7  1  0
 18 12  1  0
 29 19  1  0
 28 22  1  0
  3 30  1  0
  4 31  1  0
  4 32  1  0
  8 33  1  0
  8 34  1  0
  9 35  1  0
  9 36  1  0
 10 37  1  0
 10 38  1  0
 11 39  1  1
 13 40  1  0
 14 41  1  0
 16 42  1  0
 17 43  1  0
 18 44  1  0
 20 45  1  0
 21 46  1  0
 23 47  1  0
 26 48  1  0
 27 49  1  0
M  END
>  <smiles>  (38) 
O=C(NCC(=O)N1CCCC1c1ccc(O)cc1)c1ccc2cc(Cl)ccc2n1

>  <score_type>  (38) 
oracle

>  <origin>  (38) 
autodockgpu

>  <m_score__min__energy>  (38) 
-8.3200000000000003

>  <m_primary>  (38) 
energy

>  <rmsd>  (38) 
2.4329991924222107

>  <m_score__min__rmsd>  (38) 
2.4329991924222107

>  <meeko>  (38) 
{"free_energy": -8.0, "intermolecular_energy": -9.79, "internal_energy": -1.16, "cluster_size": 24, "cluster_id": 2, "rank_in_cluster": 13}

>  <energy>  (38) 
-7.8

>  <cluster_rmsd>  (38) 
0.9

>  <cluster>  (38) 
3

$$$$

     RDKit          3D

 49 52  0  0  0  0  0  0  0  0999 V2000
  141.2990   79.8370  218.1920 O   0  0  0  0  0  0  0  0  0  0  0  0
  141.9600   79.1870  219.0290 C   0  0  0  0  0  0  0  0  0  0  0  0
  142.1820   79.7090  220.3330 N   0  0  0  0  0  0  0  0  0  0  0  0
  141.6310   80.9860  220.6540 C   0  0  0  0  0  0  0  0  0  0  0  0
  141.2200   81.1160  222.0770 C   0  0  0  0  0  0  0  0  0  0  0  0
  141.8190   81.9050  222.8690 O   0  0  0  0  0  0  0  0  0  0  0  0
  140.1250   80.3160  222.5060 N   0  0  0  0  0  0  0  0  0  0  0  0
  139.7410   79.9310  223.8560 C   0  0  0  0  0  0  0  0  0  0  0  0
  138.2240   79.9350  223.7940 C   0  0  0  0  0  0  0  0  0  0  0  0
  137.8670   80.2010  222.3400 C   0  0  0  0  0  0  0  0  0  0  0  0
  139.1060   79.6780  221.6540 C   0  0  2  0  0  0  0  0  0  0  0  0
  139.3000   78.2250  221.8350 C   0  0  0  0  0  0  0  0  0  0  0  0
  140.5960   77.7130  221.9450 C   0  0  0  0  0  0  0  0  0  0  0  0
  140.7840   76.3490  222.1160 C   0  0  0  0  0  0  0  0  0  0  0  0
  139.7280   75.4650  222.1810 C   0  0  0  0  0  0  0  0  0  0  0  0
  139.8830   74.1020  222.3500 O   0  0  0  0  0  0  0  0  0  0  0  0
  138.4600   75.9900  222.0700 C   0  0  0  0  0  0  0  0  0  0  0  0
  138.2180   77.3470  221.8980 C   0  0  0  0  0  0  0  0  0  0  0  0
  142.5430   77.8620  218.7270 C   0  0  0  0  0  0  0  0  0  0  0  0
  142.8230   77.5320  217.3970 C   0  0  0  0  0  0  0  0  0  0  0  0
  143.3730   76.2820  217.1120 C   0  0  0  0  0  0  0  0  0  0  0  0
  143.6390   75.3860  218.1100 C   0  0  0  0  0  0  0  0  0  0  0  0
  144.1820   74.1520  217.8250 C   0  0  0  0  0  0  0  0  0  0  0  0
  144.4190   73.3080  218.8900 C   0  0  0  0  0  0  0  0  0  0  0  0
  145.1140   71.7310  218.5210 Cl  0  0  0  0  0  0  0  0  0  0  0  0
  144.1500   73.6210  220.1870 C   0  0  0  0  0  0  0  0  0  0  0  0
  143.5990   74.8730  220.4630 C   0  0  0  0  0  0  0  0  0  0  0  0
  143.3420   75.7630  219.4210 C   0  0  0  0  0  0  0  0  0  0  0  0
  142.8140   76.9650  219.6860 N   0  0  0  0  0  0  0  0  0  0  0  0
  142.7400   79.1570  221.0350 H   0  0  0  0  0  0  0  0  0  0  0  0
  142.3873   81.7552  220.4388 H   0  0  0  0  0  0  0  0  0  0  0  0
  140.7241   81.1088  220.0437 H   0  0  0  0  0  0  0  0  0  0  0  0
  140.1238   78.9305  224.1057 H   0  0  0  0  0  0  0  0  0  0  0  0
  140.1449   80.6010  224.6292 H   0  0  0  0  0  0  0  0  0  0  0  0
  137.8254   78.9609  224.1138 H   0  0  0  0  0  0  0  0  0  0  0  0
  137.7945   80.6969  224.4612 H   0  0  0  0  0  0  0  0  0  0  0  0
  136.9681   79.6456  222.0341 H   0  0  0  0  0  0  0  0  0  0  0  0
  137.6237   81.2491  222.1115 H   0  0  0  0  0  0  0  0  0  0  0  0
  139.1039   79.8696  220.5708 H   0  0  0  0  0  0  0  0  0  0  0  0
  141.4629   78.3884  221.8962 H   0  0  0  0  0  0  0  0  0  0  0  0
  141.8093   75.9601  222.2025 H   0  0  0  0  0  0  0  0  0  0  0  0
  139.3430   73.5770  223.0250 H   0  0  0  0  0  0  0  0  0  0  0  0
  137.6009   75.3048  222.1197 H   0  0  0  0  0  0  0  0  0  0  0  0
  137.1880   77.7237  221.8127 H   0  0  0  0  0  0  0  0  0  0  0  0
  142.6128   78.2471  216.5881 H   0  0  0  0  0  0  0  0  0  0  0  0
  143.5960   76.0132  216.0689 H   0  0  0  0  0  0  0  0  0  0  0  0
  144.4164   73.8529  216.7927 H   0  0  0  0  0  0  0  0  0  0  0  0
  144.3613   72.9062  220.9960 H   0  0  0  0  0  0  0  0  0  0  0  0
  143.3680   75.1571  221.5003 H   0  0  0  0  0  0  0  0  0  0  0  0
  1  2  2  0
  2  3  1  0
  3  4  1  0
  4  5  1  0
  5  6  2  0
  5  7  1  0
  7  8  1  0
  8  9  1  0
  9 10  1  0
 10 11  1  0
 11 12  1  0
 12 13  2  0
 13 14  1  0
 14 15  2  0
 15 16  1  0
 15 17  1  0
 17 18  2  0
  2 19  1  0
 19 20  2  0
 20 21  1  0
 21 22  2  0
 22 23  1  0
 23 24  2  0
 24 25  1  0
 24 26  1  0
 26 27  2  0
 27 28  1  0
 28 29  2  0
 11  7  1  0
 18 12  1  0
 29 19  1  0
 28 22  1  0
  3 30  1  0
  4 31  1  0
  4 32  1  0
  8 33  1  0
  8 34  1  0
  9 35  1  0
  9 36  1  0
 10 37  1  0
 10 38  1  0
 11 39  1  6
 13 40  1  0
 14 41  1  0
 16 42  1  0
 17 43  1  0
 18 44  1  0
 20 45  1  0
 21 46  1  0
 23 47  1  0
 26 48  1  0
 27 49  1  0
M  END
>  <smiles>  (39) 
O=C(NCC(=O)N1CCCC1c1ccc(O)cc1)c1ccc2cc(Cl)ccc2n1

>  <score_type>  (39) 
oracle

>  <origin>  (39) 
autodockgpu

>  <m_score__min__energy>  (39) 
-8.3200000000000003

>  <m_primary>  (39) 
energy

>  <rmsd>  (39) 
8.534604686300007

>  <m_score__min__rmsd>  (39) 
8.534604686300007

>  <meeko>  (39) 
{"free_energy": -6.93, "intermolecular_energy": -8.72, "internal_energy": -2.09, "cluster_size": 3, "cluster_id": 7, "rank_in_cluster": 2}

>  <energy>  (39) 
-7.66

>  <cluster_rmsd>  (39) 
1.03

>  <cluster>  (39) 
3

$$$$

     RDKit          3D

 49 52  0  0  0  0  0  0  0  0999 V2000
  139.3170   73.5040  222.4480 O   0  0  0  0  0  0  0  0  0  0  0  0
  139.1510   72.2680  222.3590 C   0  0  0  0  0  0  0  0  0  0  0  0
  138.6660   71.6940  221.1520 N   0  0  0  0  0  0  0  0  0  0  0  0
  138.3770   72.5620  220.0560 C   0  0  0  0  0  0  0  0  0  0  0  0
  139.4980   72.6910  219.0880 C   0  0  0  0  0  0  0  0  0  0  0  0
  139.6330   71.8830  218.1210 O   0  0  0  0  0  0  0  0  0  0  0  0
  140.4080   73.7640  219.2980 N   0  0  0  0  0  0  0  0  0  0  0  0
  140.8580   74.7840  218.3620 C   0  0  0  0  0  0  0  0  0  0  0  0
  140.9970   76.0150  219.2400 C   0  0  0  0  0  0  0  0  0  0  0  0
  140.7330   75.5450  220.6620 C   0  0  0  0  0  0  0  0  0  0  0  0
  141.1210   74.0910  220.5460 C   0  0  2  0  0  0  0  0  0  0  0  0
  142.5530   73.8940  220.2400 C   0  0  0  0  0  0  0  0  0  0  0  0
  142.9680   72.7100  219.6240 C   0  0  0  0  0  0  0  0  0  0  0  0
  144.3110   72.5200  219.3350 C   0  0  0  0  0  0  0  0  0  0  0  0
  145.2670   73.4660  219.6360 C   0  0  0  0  0  0  0  0  0  0  0  0
  146.6130   73.3070  219.3610 O   0  0  0  0  0  0  0  0  0  0  0  0
  144.8370   74.6250  220.2420 C   0  0  0  0  0  0  0  0  0  0  0  0
  143.5050   74.8640  220.5530 C   0  0  0  0  0  0  0  0  0  0  0  0
  139.4410   71.3440  223.4760 C   0  0  0  0  0  0  0  0  0  0  0  0
  139.1620   69.9830  223.3200 C   0  0  0  0  0  0  0  0  0  0  0  0
  139.4360   69.1110  224.3740 C   0  0  0  0  0  0  0  0  0  0  0  0
  139.9690   69.5690  225.5460 C   0  0  0  0  0  0  0  0  0  0  0  0
  140.2380   68.7060  226.5860 C   0  0  0  0  0  0  0  0  0  0  0  0
  140.7750   69.2500  227.7330 C   0  0  0  0  0  0  0  0  0  0  0  0
  141.1170   68.1420  229.0590 Cl  0  0  0  0  0  0  0  0  0  0  0  0
  141.0500   70.5740  227.8940 C   0  0  0  0  0  0  0  0  0  0  0  0
  140.7720   71.4380  226.8350 C   0  0  0  0  0  0  0  0  0  0  0  0
  140.2290   70.9370  225.6530 C   0  0  0  0  0  0  0  0  0  0  0  0
  139.9640   71.7670  224.6360 N   0  0  0  0  0  0  0  0  0  0  0  0
  138.5280   70.6510  221.0820 H   0  0  0  0  0  0  0  0  0  0  0  0
  137.4999   72.1678  219.5219 H   0  0  0  0  0  0  0  0  0  0  0  0
  138.1961   73.5626  220.4756 H   0  0  0  0  0  0  0  0  0  0  0  0
  141.8229   74.5089  217.9111 H   0  0  0  0  0  0  0  0  0  0  0  0
  140.1703   74.9301  217.5160 H   0  0  0  0  0  0  0  0  0  0  0  0
  142.0117   76.4316  219.1569 H   0  0  0  0  0  0  0  0  0  0  0  0
  140.2948   76.8066  218.9395 H   0  0  0  0  0  0  0  0  0  0  0  0
  141.3636   76.0771  221.3895 H   0  0  0  0  0  0  0  0  0  0  0  0
  139.7076   75.7192  221.0201 H   0  0  0  0  0  0  0  0  0  0  0  0
  140.9068   73.5208  221.4620 H   0  0  0  0  0  0  0  0  0  0  0  0
  142.2327   71.9324  219.3696 H   0  0  0  0  0  0  0  0  0  0  0  0
  144.6235   71.5836  218.8497 H   0  0  0  0  0  0  0  0  0  0  0  0
  147.2000   74.0780  219.0720 H   0  0  0  0  0  0  0  0  0  0  0  0
  145.5815   75.3957  220.4908 H   0  0  0  0  0  0  0  0  0  0  0  0
  143.2052   75.8042  221.0389 H   0  0  0  0  0  0  0  0  0  0  0  0
  138.7328   69.6053  222.3802 H   0  0  0  0  0  0  0  0  0  0  0  0
  139.2197   68.0385  224.2599 H   0  0  0  0  0  0  0  0  0  0  0  0
  140.0329   67.6284  226.5043 H   0  0  0  0  0  0  0  0  0  0  0  0
  141.4796   70.9517  228.8335 H   0  0  0  0  0  0  0  0  0  0  0  0
  140.9810   72.5136  226.9325 H   0  0  0  0  0  0  0  0  0  0  0  0
  1  2  2  0
  2  3  1  0
  3  4  1  0
  4  5  1  0
  5  6  2  0
  5  7  1  0
  7  8  1  0
  8  9  1  0
  9 10  1  0
 10 11  1  0
 11 12  1  0
 12 13  2  0
 13 14  1  0
 14 15  2  0
 15 16  1  0
 15 17  1  0
 17 18  2  0
  2 19  1  0
 19 20  2  0
 20 21  1  0
 21 22  2  0
 22 23  1  0
 23 24  2  0
 24 25  1  0
 24 26  1  0
 26 27  2  0
 27 28  1  0
 28 29  2  0
 11  7  1  0
 18 12  1  0
 29 19  1  0
 28 22  1  0
  3 30  1  0
  4 31  1  0
  4 32  1  0
  8 33  1  0
  8 34  1  0
  9 35  1  0
  9 36  1  0
 10 37  1  0
 10 38  1  0
 11 39  1  1
 13 40  1  0
 14 41  1  0
 16 42  1  0
 17 43  1  0
 18 44  1  0
 20 45  1  0
 21 46  1  0
 23 47  1  0
 26 48  1  0
 27 49  1  0
M  END
>  <smiles>  (40) 
O=C(NCC(=O)N1CCCC1c1ccc(O)cc1)c1ccc2cc(Cl)ccc2n1

>  <score_type>  (40) 
oracle

>  <origin>  (40) 
autodockgpu

>  <m_score__min__energy>  (40) 
-8.3200000000000003

>  <m_primary>  (40) 
energy

>  <rmsd>  (40) 
2.1556808944972117

>  <m_score__min__rmsd>  (40) 
2.1556808944972117

>  <meeko>  (40) 
{"free_energy": -7.36, "intermolecular_energy": -9.15, "internal_energy": -1.24, "cluster_size": 12, "cluster_id": 3, "rank_in_cluster": 12}

>  <energy>  (40) 
-7.43

>  <cluster_rmsd>  (40) 
1.33

>  <cluster>  (40) 
3

$$$$

     RDKit          3D

 49 52  0  0  0  0  0  0  0  0999 V2000
  139.5120   72.5900  220.0530 O   0  0  0  0  0  0  0  0  0  0  0  0
  140.2600   72.6880  221.0500 C   0  0  0  0  0  0  0  0  0  0  0  0
  141.4020   73.5360  221.0110 N   0  0  0  0  0  0  0  0  0  0  0  0
  141.6650   74.2640  219.8110 C   0  0  0  0  0  0  0  0  0  0  0  0
  141.9430   75.7060  220.0400 C   0  0  0  0  0  0  0  0  0  0  0  0
  142.9940   76.2560  219.5920 O   0  0  0  0  0  0  0  0  0  0  0  0
  140.9760   76.4380  220.7840 N   0  0  0  0  0  0  0  0  0  0  0  0
  139.8610   77.2390  220.3020 C   0  0  0  0  0  0  0  0  0  0  0  0
  138.7850   76.9880  221.3440 C   0  0  0  0  0  0  0  0  0  0  0  0
  139.4420   76.1470  222.4270 C   0  0  0  0  0  0  0  0  0  0  0  0
  140.8850   76.5520  222.2500 C   0  0  2  0  0  0  0  0  0  0  0  0
  141.1290   77.9790  222.5460 C   0  0  0  0  0  0  0  0  0  0  0  0
  142.1890   78.6400  221.9190 C   0  0  0  0  0  0  0  0  0  0  0  0
  142.4220   79.9790  222.1930 C   0  0  0  0  0  0  0  0  0  0  0  0
  141.6380   80.6950  223.0720 C   0  0  0  0  0  0  0  0  0  0  0  0
  141.8450   82.0310  223.3670 O   0  0  0  0  0  0  0  0  0  0  0  0
  140.5990   80.0260  223.6790 C   0  0  0  0  0  0  0  0  0  0  0  0
  140.3250   78.6860  223.4390 C   0  0  0  0  0  0  0  0  0  0  0  0
  140.0150   71.9470  222.3050 C   0  0  0  0  0  0  0  0  0  0  0  0
  139.0210   70.9630  222.3290 C   0  0  0  0  0  0  0  0  0  0  0  0
  138.7900   70.2640  223.5140 C   0  0  0  0  0  0  0  0  0  0  0  0
  139.5170   70.5290  224.6410 C   0  0  0  0  0  0  0  0  0  0  0  0
  139.2860   69.8370  225.8100 C   0  0  0  0  0  0  0  0  0  0  0  0
  140.0640   70.1660  226.9000 C   0  0  0  0  0  0  0  0  0  0  0  0
  139.7650   69.2790  228.3920 Cl  0  0  0  0  0  0  0  0  0  0  0  0
  141.0320   71.1220  226.8860 C   0  0  0  0  0  0  0  0  0  0  0  0
  141.2570   71.8170  225.6970 C   0  0  0  0  0  0  0  0  0  0  0  0
  140.4970   71.5210  224.5660 C   0  0  0  0  0  0  0  0  0  0  0  0
  140.7130   72.1870  223.4240 N   0  0  0  0  0  0  0  0  0  0  0  0
  142.0290   73.6150  221.8530 H   0  0  0  0  0  0  0  0  0  0  0  0
  142.5391   73.8154  219.3163 H   0  0  0  0  0  0  0  0  0  0  0  0
  140.7580   74.2042  219.1915 H   0  0  0  0  0  0  0  0  0  0  0  0
  140.1292   78.3050  220.2594 H   0  0  0  0  0  0  0  0  0  0  0  0
  139.5465   76.9749  219.2816 H   0  0  0  0  0  0  0  0  0  0  0  0
  138.4283   77.9405  221.7628 H   0  0  0  0  0  0  0  0  0  0  0  0
  137.9131   76.4773  220.9093 H   0  0  0  0  0  0  0  0  0  0  0  0
  139.0666   76.4076  223.4276 H   0  0  0  0  0  0  0  0  0  0  0  0
  139.2553   75.0660  222.3452 H   0  0  0  0  0  0  0  0  0  0  0  0
  141.5691   75.9704  222.8855 H   0  0  0  0  0  0  0  0  0  0  0  0
  142.8355   78.1003  221.2113 H   0  0  0  0  0  0  0  0  0  0  0  0
  143.2599   80.4865  221.6926 H   0  0  0  0  0  0  0  0  0  0  0  0
  141.8530   82.7460  222.6520 H   0  0  0  0  0  0  0  0  0  0  0  0
  139.9587   80.5764  224.3841 H   0  0  0  0  0  0  0  0  0  0  0  0
  139.4850   78.1891  223.9465 H   0  0  0  0  0  0  0  0  0  0  0  0
  138.4305   70.7437  221.4272 H   0  0  0  0  0  0  0  0  0  0  0  0
  138.0110   69.4878  223.5420 H   0  0  0  0  0  0  0  0  0  0  0  0
  138.5141   69.0557  225.8711 H   0  0  0  0  0  0  0  0  0  0  0  0
  141.6218   71.3413  227.7883 H   0  0  0  0  0  0  0  0  0  0  0  0
  142.0320   72.5964  225.6521 H   0  0  0  0  0  0  0  0  0  0  0  0
  1  2  2  0
  2  3  1  0
  3  4  1  0
  4  5  1  0
  5  6  2  0
  5  7  1  0
  7  8  1  0
  8  9  1  0
  9 10  1  0
 10 11  1  0
 11 12  1  0
 12 13  2  0
 13 14  1  0
 14 15  2  0
 15 16  1  0
 15 17  1  0
 17 18  2  0
  2 19  1  0
 19 20  2  0
 20 21  1  0
 21 22  2  0
 22 23  1  0
 23 24  2  0
 24 25  1  0
 24 26  1  0
 26 27  2  0
 27 28  1  0
 28 29  2  0
 11  7  1  0
 18 12  1  0
 29 19  1  0
 28 22  1  0
  3 30  1  0
  4 31  1  0
  4 32  1  0
  8 33  1  0
  8 34  1  0
  9 35  1  0
  9 36  1  0
 10 37  1  0
 10 38  1  0
 11 39  1  1
 13 40  1  0
 14 41  1  0
 16 42  1  0
 17 43  1  0
 18 44  1  0
 20 45  1  0
 21 46  1  0
 23 47  1  0
 26 48  1  0
 27 49  1  0
M  END
>  <smiles>  (41) 
O=C(NCC(=O)N1CCCC1c1ccc(O)cc1)c1ccc2cc(Cl)ccc2n1

>  <score_type>  (41) 
oracle

>  <origin>  (41) 
autodockgpu

>  <m_score__min__energy>  (41) 
-8.3200000000000003

>  <m_primary>  (41) 
energy

>  <rmsd>  (41) 
3.007951802840543

>  <m_score__min__rmsd>  (41) 
3.007951802840543

>  <meeko>  (41) 
{"free_energy": -6.95, "intermolecular_energy": -8.74, "internal_energy": -1.73, "cluster_size": 24, "cluster_id": 2, "rank_in_cluster": 24}

>  <energy>  (41) 
-7.41

>  <cluster_rmsd>  (41) 
0.71

>  <cluster>  (41) 
3

$$$$

     RDKit          3D

 49 52  0  0  0  0  0  0  0  0999 V2000
  139.6890   71.9980  220.6420 O   0  0  0  0  0  0  0  0  0  0  0  0
  139.4300   72.3480  221.8140 C   0  0  0  0  0  0  0  0  0  0  0  0
  138.9170   73.6480  222.0790 N   0  0  0  0  0  0  0  0  0  0  0  0
  138.7080   74.5320  220.9780 C   0  0  0  0  0  0  0  0  0  0  0  0
  138.8510   75.9690  221.3330 C   0  0  0  0  0  0  0  0  0  0  0  0
  137.9030   76.6130  221.8750 O   0  0  0  0  0  0  0  0  0  0  0  0
  140.0990   76.5830  221.0370 N   0  0  0  0  0  0  0  0  0  0  0  0
  141.4460   76.0660  221.2280 C   0  0  0  0  0  0  0  0  0  0  0  0
  142.1970   76.6180  220.0300 C   0  0  0  0  0  0  0  0  0  0  0  0
  141.2190   77.5340  219.3100 C   0  0  0  0  0  0  0  0  0  0  0  0
  140.3140   77.9200  220.4550 C   0  0  2  0  0  0  0  0  0  0  0  0
  141.0040   78.6960  221.5060 C   0  0  0  0  0  0  0  0  0  0  0  0
  140.6910   78.4660  222.8480 C   0  0  0  0  0  0  0  0  0  0  0  0
  141.3360   79.1920  223.8380 C   0  0  0  0  0  0  0  0  0  0  0  0
  142.2870   80.1470  223.5470 C   0  0  0  0  0  0  0  0  0  0  0  0
  142.9470   80.8870  224.5100 O   0  0  0  0  0  0  0  0  0  0  0  0
  142.5810   80.3580  222.2180 C   0  0  0  0  0  0  0  0  0  0  0  0
  141.9630   79.6580  221.1900 C   0  0  0  0  0  0  0  0  0  0  0  0
  139.6350   71.4560  222.9740 C   0  0  0  0  0  0  0  0  0  0  0  0
  139.2870   70.1060  222.8630 C   0  0  0  0  0  0  0  0  0  0  0  0
  139.4820   69.2650  223.9590 C   0  0  0  0  0  0  0  0  0  0  0  0
  140.0040   69.7420  225.1290 C   0  0  0  0  0  0  0  0  0  0  0  0
  140.1940   68.9090  226.2100 C   0  0  0  0  0  0  0  0  0  0  0  0
  140.7250   69.4700  227.3510 C   0  0  0  0  0  0  0  0  0  0  0  0
  140.9670   68.4010  228.7300 Cl  0  0  0  0  0  0  0  0  0  0  0  0
  141.0670   70.7820  227.4690 C   0  0  0  0  0  0  0  0  0  0  0  0
  140.8690   71.6170  226.3680 C   0  0  0  0  0  0  0  0  0  0  0  0
  140.3350   71.0970  225.1900 C   0  0  0  0  0  0  0  0  0  0  0  0
  140.1450   71.8980  224.1330 N   0  0  0  0  0  0  0  0  0  0  0  0
  138.7000   73.9380  223.0680 H   0  0  0  0  0  0  0  0  0  0  0  0
  139.4427   74.2923  220.1952 H   0  0  0  0  0  0  0  0  0  0  0  0
  137.6721   74.3851  220.6384 H   0  0  0  0  0  0  0  0  0  0  0  0
  141.8802   76.4325  222.1699 H   0  0  0  0  0  0  0  0  0  0  0  0
  141.4836   74.9687  221.2950 H   0  0  0  0  0  0  0  0  0  0  0  0
  143.0800   77.1849  220.3601 H   0  0  0  0  0  0  0  0  0  0  0  0
  142.5549   75.8126  219.3719 H   0  0  0  0  0  0  0  0  0  0  0  0
  141.7250   78.4102  218.8785 H   0  0  0  0  0  0  0  0  0  0  0  0
  140.7050   77.0745  218.4529 H   0  0  0  0  0  0  0  0  0  0  0  0
  139.4504   78.5181  220.1288 H   0  0  0  0  0  0  0  0  0  0  0  0
  139.9364   77.7126  223.1181 H   0  0  0  0  0  0  0  0  0  0  0  0
  141.0804   78.9996  224.8904 H   0  0  0  0  0  0  0  0  0  0  0  0
  142.5270   81.6920  224.9550 H   0  0  0  0  0  0  0  0  0  0  0  0
  143.3378   81.1134  221.9598 H   0  0  0  0  0  0  0  0  0  0  0  0
  142.2262   79.8595  220.1411 H   0  0  0  0  0  0  0  0  0  0  0  0
  138.8659   69.7132  221.9258 H   0  0  0  0  0  0  0  0  0  0  0  0
  139.2115   68.2017  223.8805 H   0  0  0  0  0  0  0  0  0  0  0  0
  139.9329   67.8414  226.1641 H   0  0  0  0  0  0  0  0  0  0  0  0
  141.4881   71.1739  228.4066 H   0  0  0  0  0  0  0  0  0  0  0  0
  141.1338   72.6829  226.4298 H   0  0  0  0  0  0  0  0  0  0  0  0
  1  2  2  0
  2  3  1  0
  3  4  1  0
  4  5  1  0
  5  6  2  0
  5  7  1  0
  7  8  1  0
  8  9  1  0
  9 10  1  0
 10 11  1  0
 11 12  1  0
 12 13  2  0
 13 14  1  0
 14 15  2  0
 15 16  1  0
 15 17  1  0
 17 18  2  0
  2 19  1  0
 19 20  2  0
 20 21  1  0
 21 22  2  0
 22 23  1  0
 23 24  2  0
 24 25  1  0
 24 26  1  0
 26 27  2  0
 27 28  1  0
 28 29  2  0
 11  7  1  0
 18 12  1  0
 29 19  1  0
 28 22  1  0
  3 30  1  0
  4 31  1  0
  4 32  1  0
  8 33  1  0
  8 34  1  0
  9 35  1  0
  9 36  1  0
 10 37  1  0
 10 38  1  0
 11 39  1  6
 13 40  1  0
 14 41  1  0
 16 42  1  0
 17 43  1  0
 18 44  1  0
 20 45  1  0
 21 46  1  0
 23 47  1  0
 26 48  1  0
 27 49  1  0
M  END
>  <smiles>  (42) 
O=C(NCC(=O)N1CCCC1c1ccc(O)cc1)c1ccc2cc(Cl)ccc2n1

>  <score_type>  (42) 
oracle

>  <origin>  (42) 
autodockgpu

>  <m_score__min__energy>  (42) 
-8.3200000000000003

>  <m_primary>  (42) 
energy

>  <rmsd>  (42) 
2.0001500050899312

>  <m_score__min__rmsd>  (42) 
2.0001500050899312

>  <meeko>  (42) 
{"free_energy": -8.11, "intermolecular_energy": -9.9, "internal_energy": -1.22, "cluster_size": 24, "cluster_id": 2, "rank_in_cluster": 3}

>  <energy>  (42) 
-7.36

>  <cluster_rmsd>  (42) 
1.6

>  <cluster>  (42) 
3

$$$$

     RDKit          3D

 49 52  0  0  0  0  0  0  0  0999 V2000
  139.7710   72.4620  220.7590 O   0  0  0  0  0  0  0  0  0  0  0  0
  139.7050   72.8040  221.9600 C   0  0  0  0  0  0  0  0  0  0  0  0
  139.5000   74.1680  222.3080 N   0  0  0  0  0  0  0  0  0  0  0  0
  139.3730   75.1250  221.2570 C   0  0  0  0  0  0  0  0  0  0  0  0
  140.6430   75.8270  220.9350 C   0  0  0  0  0  0  0  0  0  0  0  0
  141.0740   76.7780  221.6560 O   0  0  0  0  0  0  0  0  0  0  0  0
  141.3500   75.3830  219.7840 N   0  0  0  0  0  0  0  0  0  0  0  0
  141.0290   74.2950  218.8720 C   0  0  0  0  0  0  0  0  0  0  0  0
  141.4830   74.8330  217.5260 C   0  0  0  0  0  0  0  0  0  0  0  0
  142.1610   76.1630  217.8160 C   0  0  0  0  0  0  0  0  0  0  0  0
  142.6030   75.9390  219.2420 C   0  0  2  0  0  0  0  0  0  0  0  0
  143.6010   74.8600  219.3800 C   0  0  0  0  0  0  0  0  0  0  0  0
  143.8890   74.3470  220.6470 C   0  0  0  0  0  0  0  0  0  0  0  0
  144.8260   73.3330  220.7820 C   0  0  0  0  0  0  0  0  0  0  0  0
  145.4940   72.8030  219.6990 C   0  0  0  0  0  0  0  0  0  0  0  0
  146.4320   71.7920  219.8000 O   0  0  0  0  0  0  0  0  0  0  0  0
  145.1950   73.3220  218.4590 C   0  0  0  0  0  0  0  0  0  0  0  0
  144.2670   74.3370  218.2710 C   0  0  0  0  0  0  0  0  0  0  0  0
  139.8330   71.8370  223.0700 C   0  0  0  0  0  0  0  0  0  0  0  0
  139.4360   70.5120  222.8660 C   0  0  0  0  0  0  0  0  0  0  0  0
  139.5580   69.6000  223.9150 C   0  0  0  0  0  0  0  0  0  0  0  0
  140.0560   69.9850  225.1280 C   0  0  0  0  0  0  0  0  0  0  0  0
  140.1740   69.0820  226.1620 C   0  0  0  0  0  0  0  0  0  0  0  0
  140.6860   69.5520  227.3530 C   0  0  0  0  0  0  0  0  0  0  0  0
  140.8350   68.3940  228.6720 Cl  0  0  0  0  0  0  0  0  0  0  0  0
  141.0750   70.8400  227.5610 C   0  0  0  0  0  0  0  0  0  0  0  0
  140.9500   71.7450  226.5070 C   0  0  0  0  0  0  0  0  0  0  0  0
  140.4380   71.3190  225.2820 C   0  0  0  0  0  0  0  0  0  0  0  0
  140.3190   72.1880  224.2700 N   0  0  0  0  0  0  0  0  0  0  0  0
  139.4450   74.4510  223.3220 H   0  0  0  0  0  0  0  0  0  0  0  0
  139.0245   74.6044  220.3528 H   0  0  0  0  0  0  0  0  0  0  0  0
  138.6602   75.8890  221.6007 H   0  0  0  0  0  0  0  0  0  0  0  0
  141.5792   73.3804  219.1383 H   0  0  0  0  0  0  0  0  0  0  0  0
  139.9659   74.0132  218.8902 H   0  0  0  0  0  0  0  0  0  0  0  0
  142.1924   74.1366  217.0551 H   0  0  0  0  0  0  0  0  0  0  0  0
  140.6372   74.9534  216.8331 H   0  0  0  0  0  0  0  0  0  0  0  0
  143.0172   76.3370  217.1477 H   0  0  0  0  0  0  0  0  0  0  0  0
  141.5224   77.0461  217.6666 H   0  0  0  0  0  0  0  0  0  0  0  0
  143.0412   76.8401  219.6959 H   0  0  0  0  0  0  0  0  0  0  0  0
  143.3749   74.7455  221.5341 H   0  0  0  0  0  0  0  0  0  0  0  0
  145.0430   72.9391  221.7859 H   0  0  0  0  0  0  0  0  0  0  0  0
  146.4990   71.1970  220.6140 H   0  0  0  0  0  0  0  0  0  0  0  0
  145.7143   72.9144  217.5791 H   0  0  0  0  0  0  0  0  0  0  0  0
  144.0596   74.7235  217.2622 H   0  0  0  0  0  0  0  0  0  0  0  0
  139.0335   70.1933  221.8931 H   0  0  0  0  0  0  0  0  0  0  0  0
  139.2486   68.5554  223.7633 H   0  0  0  0  0  0  0  0  0  0  0  0
  139.8726   68.0309  226.0425 H   0  0  0  0  0  0  0  0  0  0  0  0
  141.4771   71.1584  228.5341 H   0  0  0  0  0  0  0  0  0  0  0  0
  141.2549   72.7933  226.6420 H   0  0  0  0  0  0  0  0  0  0  0  0
  1  2  2  0
  2  3  1  0
  3  4  1  0
  4  5  1  0
  5  6  2  0
  5  7  1  0
  7  8  1  0
  8  9  1  0
  9 10  1  0
 10 11  1  0
 11 12  1  0
 12 13  2  0
 13 14  1  0
 14 15  2  0
 15 16  1  0
 15 17  1  0
 17 18  2  0
  2 19  1  0
 19 20  2  0
 20 21  1  0
 21 22  2  0
 22 23  1  0
 23 24  2  0
 24 25  1  0
 24 26  1  0
 26 27  2  0
 27 28  1  0
 28 29  2  0
 11  7  1  0
 18 12  1  0
 29 19  1  0
 28 22  1  0
  3 30  1  0
  4 31  1  0
  4 32  1  0
  8 33  1  0
  8 34  1  0
  9 35  1  0
  9 36  1  0
 10 37  1  0
 10 38  1  0
 11 39  1  1
 13 40  1  0
 14 41  1  0
 16 42  1  0
 17 43  1  0
 18 44  1  0
 20 45  1  0
 21 46  1  0
 23 47  1  0
 26 48  1  0
 27 49  1  0
M  END
>  <smiles>  (43) 
O=C(NCC(=O)N1CCCC1c1ccc(O)cc1)c1ccc2cc(Cl)ccc2n1

>  <score_type>  (43) 
oracle

>  <origin>  (43) 
autodockgpu

>  <m_score__min__energy>  (43) 
-8.3200000000000003

>  <m_primary>  (43) 
energy

>  <rmsd>  (43) 
1.7693969947829917

>  <m_score__min__rmsd>  (43) 
1.7693969947829917

>  <meeko>  (43) 
{"free_energy": -8.04, "intermolecular_energy": -9.83, "internal_energy": -1.39, "cluster_size": 12, "cluster_id": 3, "rank_in_cluster": 6}

>  <energy>  (43) 
-7.44

>  <cluster_rmsd>  (43) 
0.0

>  <cluster>  (43) 
4

$$$$

     RDKit          3D

 49 52  0  0  0  0  0  0  0  0999 V2000
  140.1050   73.7260  220.4170 O   0  0  0  0  0  0  0  0  0  0  0  0
  139.4890   73.7800  221.5030 C   0  0  0  0  0  0  0  0  0  0  0  0
  138.8140   74.9720  221.8870 N   0  0  0  0  0  0  0  0  0  0  0  0
  138.8610   76.0920  221.0050 C   0  0  0  0  0  0  0  0  0  0  0  0
  137.7540   77.0620  221.2150 C   0  0  0  0  0  0  0  0  0  0  0  0
  136.5550   76.7700  220.9210 O   0  0  0  0  0  0  0  0  0  0  0  0
  138.1030   78.3280  221.7590 N   0  0  0  0  0  0  0  0  0  0  0  0
  138.1430   79.6290  221.1070 C   0  0  0  0  0  0  0  0  0  0  0  0
  137.6800   80.5740  222.2030 C   0  0  0  0  0  0  0  0  0  0  0  0
  137.5380   79.7230  223.4550 C   0  0  0  0  0  0  0  0  0  0  0  0
  138.5150   78.6150  223.1450 C   0  0  2  0  0  0  0  0  0  0  0  0
  139.9130   79.0830  223.0470 C   0  0  0  0  0  0  0  0  0  0  0  0
  140.8210   78.3770  222.2530 C   0  0  0  0  0  0  0  0  0  0  0  0
  142.1340   78.8130  222.1580 C   0  0  0  0  0  0  0  0  0  0  0  0
  142.5870   79.9310  222.8250 C   0  0  0  0  0  0  0  0  0  0  0  0
  143.8890   80.3900  222.7500 O   0  0  0  0  0  0  0  0  0  0  0  0
  141.6760   80.6130  223.6010 C   0  0  0  0  0  0  0  0  0  0  0  0
  140.3510   80.2180  223.7300 C   0  0  0  0  0  0  0  0  0  0  0  0
  139.4230   72.6370  222.4380 C   0  0  0  0  0  0  0  0  0  0  0  0
  138.4580   71.6460  222.2310 C   0  0  0  0  0  0  0  0  0  0  0  0
  138.3960   70.5680  223.1140 C   0  0  0  0  0  0  0  0  0  0  0  0
  139.2600   70.4710  224.1690 C   0  0  0  0  0  0  0  0  0  0  0  0
  139.1960   69.4040  225.0390 C   0  0  0  0  0  0  0  0  0  0  0  0
  140.1040   69.3840  226.0760 C   0  0  0  0  0  0  0  0  0  0  0  0
  140.0180   68.0190  227.1870 Cl  0  0  0  0  0  0  0  0  0  0  0  0
  141.0460   70.3430  226.2860 C   0  0  0  0  0  0  0  0  0  0  0  0
  141.1010   71.4190  225.3980 C   0  0  0  0  0  0  0  0  0  0  0  0
  140.2040   71.4860  224.3330 C   0  0  0  0  0  0  0  0  0  0  0  0
  140.2580   72.5180  223.4800 N   0  0  0  0  0  0  0  0  0  0  0  0
  138.2970   75.0120  222.8040 H   0  0  0  0  0  0  0  0  0  0  0  0
  139.8160   76.6157  221.1586 H   0  0  0  0  0  0  0  0  0  0  0  0
  138.7578   75.7014  219.9819 H   0  0  0  0  0  0  0  0  0  0  0  0
  139.1633   79.8751  220.7775 H   0  0  0  0  0  0  0  0  0  0  0  0
  137.5223   79.6791  220.2002 H   0  0  0  0  0  0  0  0  0  0  0  0
  138.4240   81.3684  222.3627 H   0  0  0  0  0  0  0  0  0  0  0  0
  136.7317   81.0649  221.9388 H   0  0  0  0  0  0  0  0  0  0  0  0
  137.8274   80.2788  224.3591 H   0  0  0  0  0  0  0  0  0  0  0  0
  136.5128   79.3850  223.6663 H   0  0  0  0  0  0  0  0  0  0  0  0
  138.4968   77.8119  223.8965 H   0  0  0  0  0  0  0  0  0  0  0  0
  140.4957   77.4798  221.7061 H   0  0  0  0  0  0  0  0  0  0  0  0
  142.8376   78.2477  221.5293 H   0  0  0  0  0  0  0  0  0  0  0  0
  144.6340   79.8370  222.3490 H   0  0  0  0  0  0  0  0  0  0  0  0
  142.0127   81.5096  224.1421 H   0  0  0  0  0  0  0  0  0  0  0  0
  139.6567   80.7917  224.3616 H   0  0  0  0  0  0  0  0  0  0  0  0
  137.7586   71.7157  221.3848 H   0  0  0  0  0  0  0  0  0  0  0  0
  137.6403   69.7839  222.9591 H   0  0  0  0  0  0  0  0  0  0  0  0
  138.4527   68.6032  224.9114 H   0  0  0  0  0  0  0  0  0  0  0  0
  141.7452   70.2725  227.1323 H   0  0  0  0  0  0  0  0  0  0  0  0
  141.8503   72.2120  225.5384 H   0  0  0  0  0  0  0  0  0  0  0  0
  1  2  2  0
  2  3  1  0
  3  4  1  0
  4  5  1  0
  5  6  2  0
  5  7  1  0
  7  8  1  0
  8  9  1  0
  9 10  1  0
 10 11  1  0
 11 12  1  0
 12 13  2  0
 13 14  1  0
 14 15  2  0
 15 16  1  0
 15 17  1  0
 17 18  2  0
  2 19  1  0
 19 20  2  0
 20 21  1  0
 21 22  2  0
 22 23  1  0
 23 24  2  0
 24 25  1  0
 24 26  1  0
 26 27  2  0
 27 28  1  0
 28 29  2  0
 11  7  1  0
 18 12  1  0
 29 19  1  0
 28 22  1  0
  3 30  1  0
  4 31  1  0
  4 32  1  0
  8 33  1  0
  8 34  1  0
  9 35  1  0
  9 36  1  0
 10 37  1  0
 10 38  1  0
 11 39  1  1
 13 40  1  0
 14 41  1  0
 16 42  1  0
 17 43  1  0
 18 44  1  0
 20 45  1  0
 21 46  1  0
 23 47  1  0
 26 48  1  0
 27 49  1  0
M  END
>  <smiles>  (44) 
O=C(NCC(=O)N1CCCC1c1ccc(O)cc1)c1ccc2cc(Cl)ccc2n1

>  <score_type>  (44) 
oracle

>  <origin>  (44) 
autodockgpu

>  <m_score__min__energy>  (44) 
-8.3200000000000003

>  <m_primary>  (44) 
energy

>  <rmsd>  (44) 
4.0019192760205495

>  <m_score__min__rmsd>  (44) 
4.0019192760205495

>  <meeko>  (44) 
{"free_energy": -7.5, "intermolecular_energy": -9.29, "internal_energy": -1.08, "cluster_size": 24, "cluster_id": 2, "rank_in_cluster": 22}

>  <energy>  (44) 
-7.37

>  <cluster_rmsd>  (44) 
0.93

>  <cluster>  (44) 
4

$$$$

     RDKit          3D

 49 52  0  0  0  0  0  0  0  0999 V2000
  139.4900   71.9810  220.8550 O   0  0  0  0  0  0  0  0  0  0  0  0
  139.5700   72.3710  222.0400 C   0  0  0  0  0  0  0  0  0  0  0  0
  139.5000   73.7580  222.3460 N   0  0  0  0  0  0  0  0  0  0  0  0
  139.3370   74.6820  221.2700 C   0  0  0  0  0  0  0  0  0  0  0  0
  140.5480   75.5020  221.0030 C   0  0  0  0  0  0  0  0  0  0  0  0
  141.6510   74.9680  220.6780 O   0  0  0  0  0  0  0  0  0  0  0  0
  140.4100   76.9130  221.1280 N   0  0  0  0  0  0  0  0  0  0  0  0
  139.2930   77.7640  220.7430 C   0  0  0  0  0  0  0  0  0  0  0  0
  139.2820   78.8230  221.8300 C   0  0  0  0  0  0  0  0  0  0  0  0
  140.5050   78.5520  222.6910 C   0  0  0  0  0  0  0  0  0  0  0  0
  141.3940   77.8540  221.6890 C   0  0  2  0  0  0  0  0  0  0  0  0
  141.7920   78.7220  220.5620 C   0  0  0  0  0  0  0  0  0  0  0  0
  142.1690   78.1420  219.3480 C   0  0  0  0  0  0  0  0  0  0  0  0
  142.5430   78.9520  218.2860 C   0  0  0  0  0  0  0  0  0  0  0  0
  142.5580   80.3270  218.3820 C   0  0  0  0  0  0  0  0  0  0  0  0
  142.9260   81.1620  217.3430 O   0  0  0  0  0  0  0  0  0  0  0  0
  142.1830   80.8790  219.5870 C   0  0  0  0  0  0  0  0  0  0  0  0
  141.8010   80.1120  220.6800 C   0  0  0  0  0  0  0  0  0  0  0  0
  139.7390   71.4390  223.1750 C   0  0  0  0  0  0  0  0  0  0  0  0
  139.3760   70.0980  223.0120 C   0  0  0  0  0  0  0  0  0  0  0  0
  139.5360   69.2190  224.0830 C   0  0  0  0  0  0  0  0  0  0  0  0
  140.0380   69.6510  225.2790 C   0  0  0  0  0  0  0  0  0  0  0  0
  140.1950   68.7800  226.3350 C   0  0  0  0  0  0  0  0  0  0  0  0
  140.7080   69.2970  227.5060 C   0  0  0  0  0  0  0  0  0  0  0  0
  140.9060   68.1800  228.8540 Cl  0  0  0  0  0  0  0  0  0  0  0  0
  141.0640   70.6000  227.6740 C   0  0  0  0  0  0  0  0  0  0  0  0
  140.9000   71.4720  226.5970 C   0  0  0  0  0  0  0  0  0  0  0  0
  140.3850   70.9980  225.3920 C   0  0  0  0  0  0  0  0  0  0  0  0
  140.2290   71.8360  224.3580 N   0  0  0  0  0  0  0  0  0  0  0  0
  139.5680   74.0820  223.3460 H   0  0  0  0  0  0  0  0  0  0  0  0
  139.0922   74.1159  220.3592 H   0  0  0  0  0  0  0  0  0  0  0  0
  138.5339   75.3760  221.5588 H   0  0  0  0  0  0  0  0  0  0  0  0
  139.4614   78.2144  219.7536 H   0  0  0  0  0  0  0  0  0  0  0  0
  138.3412   77.2191  220.6583 H   0  0  0  0  0  0  0  0  0  0  0  0
  139.3423   79.8275  221.3857 H   0  0  0  0  0  0  0  0  0  0  0  0
  138.3557   78.7834  222.4219 H   0  0  0  0  0  0  0  0  0  0  0  0
  140.9591   79.4845  223.0573 H   0  0  0  0  0  0  0  0  0  0  0  0
  140.3041   77.9763  223.6065 H   0  0  0  0  0  0  0  0  0  0  0  0
  142.3204   77.4686  222.1399 H   0  0  0  0  0  0  0  0  0  0  0  0
  142.1692   77.0478  219.2350 H   0  0  0  0  0  0  0  0  0  0  0  0
  142.8372   78.4818  217.3361 H   0  0  0  0  0  0  0  0  0  0  0  0
  143.6330   80.9040  216.6680 H   0  0  0  0  0  0  0  0  0  0  0  0
  142.1862   81.9744  219.6879 H   0  0  0  0  0  0  0  0  0  0  0  0
  141.5097   80.5936  221.6251 H   0  0  0  0  0  0  0  0  0  0  0  0
  138.9704   69.7420  222.0535 H   0  0  0  0  0  0  0  0  0  0  0  0
  139.2541   68.1625  223.9636 H   0  0  0  0  0  0  0  0  0  0  0  0
  139.9228   67.7178  226.2477 H   0  0  0  0  0  0  0  0  0  0  0  0
  141.4698   70.9558  228.6325 H   0  0  0  0  0  0  0  0  0  0  0  0
  141.1768   72.5317  226.6990 H   0  0  0  0  0  0  0  0  0  0  0  0
  1  2  2  0
  2  3  1  0
  3  4  1  0
  4  5  1  0
  5  6  2  0
  5  7  1  0
  7  8  1  0
  8  9  1  0
  9 10  1  0
 10 11  1  0
 11 12  1  0
 12 13  2  0
 13 14  1  0
 14 15  2  0
 15 16  1  0
 15 17  1  0
 17 18  2  0
  2 19  1  0
 19 20  2  0
 20 21  1  0
 21 22  2  0
 22 23  1  0
 23 24  2  0
 24 25  1  0
 24 26  1  0
 26 27  2  0
 27 28  1  0
 28 29  2  0
 11  7  1  0
 18 12  1  0
 29 19  1  0
 28 22  1  0
  3 30  1  0
  4 31  1  0
  4 32  1  0
  8 33  1  0
  8 34  1  0
  9 35  1  0
  9 36  1  0
 10 37  1  0
 10 38  1  0
 11 39  1  1
 13 40  1  0
 14 41  1  0
 16 42  1  0
 17 43  1  0
 18 44  1  0
 20 45  1  0
 21 46  1  0
 23 47  1  0
 26 48  1  0
 27 49  1  0
M  END
>  <smiles>  (45) 
O=C(NCC(=O)N1CCCC1c1ccc(O)cc1)c1ccc2cc(Cl)ccc2n1

>  <score_type>  (45) 
oracle

>  <origin>  (45) 
autodockgpu

>  <m_score__min__energy>  (45) 
-8.3200000000000003

>  <m_primary>  (45) 
energy

>  <rmsd>  (45) 
2.5223925669809546

>  <m_score__min__rmsd>  (45) 
2.5223925669809546

>  <meeko>  (45) 
{"free_energy": -8.19, "intermolecular_energy": -9.98, "internal_energy": -1.26, "cluster_size": 6, "cluster_id": 1, "rank_in_cluster": 3}

>  <energy>  (45) 
-7.16

>  <cluster_rmsd>  (45) 
1.6

>  <cluster>  (45) 
4

$$$$

     RDKit          3D

 49 52  0  0  0  0  0  0  0  0999 V2000
  140.9230   72.7660  221.4600 O   0  0  0  0  0  0  0  0  0  0  0  0
  140.0150   72.6750  222.3150 C   0  0  0  0  0  0  0  0  0  0  0  0
  138.8840   73.5360  222.2550 N   0  0  0  0  0  0  0  0  0  0  0  0
  138.8180   74.4960  221.2020 C   0  0  0  0  0  0  0  0  0  0  0  0
  138.9490   75.9020  221.6690 C   0  0  0  0  0  0  0  0  0  0  0  0
  138.1150   76.4100  222.4780 O   0  0  0  0  0  0  0  0  0  0  0  0
  140.0520   76.6460  221.1670 N   0  0  0  0  0  0  0  0  0  0  0  0
  141.4390   76.2350  221.0040 C   0  0  0  0  0  0  0  0  0  0  0  0
  141.8580   76.9470  219.7290 C   0  0  0  0  0  0  0  0  0  0  0  0
  140.6820   77.8280  219.3380 C   0  0  0  0  0  0  0  0  0  0  0  0
  140.0380   78.0390  220.6870 C   0  0  2  0  0  0  0  0  0  0  0  0
  140.8950   78.7850  221.6300 C   0  0  0  0  0  0  0  0  0  0  0  0
  140.8390   78.4870  222.9940 C   0  0  0  0  0  0  0  0  0  0  0  0
  141.6420   79.1850  223.8840 C   0  0  0  0  0  0  0  0  0  0  0  0
  142.5060   80.1770  223.4700 C   0  0  0  0  0  0  0  0  0  0  0  0
  143.3180   80.8900  224.3320 O   0  0  0  0  0  0  0  0  0  0  0  0
  142.5460   80.4550  222.1220 C   0  0  0  0  0  0  0  0  0  0  0  0
  141.7630   79.7860  221.1910 C   0  0  0  0  0  0  0  0  0  0  0  0
  140.0560   71.6910  223.4170 C   0  0  0  0  0  0  0  0  0  0  0  0
  139.5950   70.3920  223.1840 C   0  0  0  0  0  0  0  0  0  0  0  0
  139.6330   69.4640  224.2250 C   0  0  0  0  0  0  0  0  0  0  0  0
  140.1120   69.8090  225.4580 C   0  0  0  0  0  0  0  0  0  0  0  0
  140.1490   68.8900  226.4850 C   0  0  0  0  0  0  0  0  0  0  0  0
  140.6470   69.3200  227.6960 C   0  0  0  0  0  0  0  0  0  0  0  0
  140.6910   68.1410  229.0060 Cl  0  0  0  0  0  0  0  0  0  0  0  0
  141.0970   70.5820  227.9320 C   0  0  0  0  0  0  0  0  0  0  0  0
  141.0550   71.5040  226.8850 C   0  0  0  0  0  0  0  0  0  0  0  0
  140.5600   71.1180  225.6410 C   0  0  0  0  0  0  0  0  0  0  0  0
  140.5200   72.0030  224.6350 N   0  0  0  0  0  0  0  0  0  0  0  0
  138.1220   73.4550  222.9780 H   0  0  0  0  0  0  0  0  0  0  0  0
  139.6312   74.2886  220.4908 H   0  0  0  0  0  0  0  0  0  0  0  0
  137.8241   74.4007  220.7404 H   0  0  0  0  0  0  0  0  0  0  0  0
  142.0509   76.5605  221.8581 H   0  0  0  0  0  0  0  0  0  0  0  0
  141.5648   75.1434  220.9527 H   0  0  0  0  0  0  0  0  0  0  0  0
  142.7526   77.5610  219.9099 H   0  0  0  0  0  0  0  0  0  0  0  0
  142.1101   76.2325  218.9316 H   0  0  0  0  0  0  0  0  0  0  0  0
  141.0155   78.7775  218.8939 H   0  0  0  0  0  0  0  0  0  0  0  0
  140.0181   77.3954  218.5750 H   0  0  0  0  0  0  0  0  0  0  0  0
  139.0843   78.5831  220.6205 H   0  0  0  0  0  0  0  0  0  0  0  0
  140.1610   77.7022  223.3605 H   0  0  0  0  0  0  0  0  0  0  0  0
  141.5879   78.9393  224.9548 H   0  0  0  0  0  0  0  0  0  0  0  0
  144.3020   81.0350  224.1500 H   0  0  0  0  0  0  0  0  0  0  0  0
  143.2282   81.2416  221.7672 H   0  0  0  0  0  0  0  0  0  0  0  0
  141.8258   80.0411  220.1228 H   0  0  0  0  0  0  0  0  0  0  0  0
  139.2081   70.1059  222.1948 H   0  0  0  0  0  0  0  0  0  0  0  0
  139.2722   68.4395  224.0511 H   0  0  0  0  0  0  0  0  0  0  0  0
  139.7962   67.8577  226.3439 H   0  0  0  0  0  0  0  0  0  0  0  0
  141.4835   70.8680  228.9213 H   0  0  0  0  0  0  0  0  0  0  0  0
  141.4117   72.5327  227.0415 H   0  0  0  0  0  0  0  0  0  0  0  0
  1  2  2  0
  2  3  1  0
  3  4  1  0
  4  5  1  0
  5  6  2  0
  5  7  1  0
  7  8  1  0
  8  9  1  0
  9 10  1  0
 10 11  1  0
 11 12  1  0
 12 13  2  0
 13 14  1  0
 14 15  2  0
 15 16  1  0
 15 17  1  0
 17 18  2  0
  2 19  1  0
 19 20  2  0
 20 21  1  0
 21 22  2  0
 22 23  1  0
 23 24  2  0
 24 25  1  0
 24 26  1  0
 26 27  2  0
 27 28  1  0
 28 29  2  0
 11  7  1  0
 18 12  1  0
 29 19  1  0
 28 22  1  0
  3 30  1  0
  4 31  1  0
  4 32  1  0
  8 33  1  0
  8 34  1  0
  9 35  1  0
  9 36  1  0
 10 37  1  0
 10 38  1  0
 11 39  1  6
 13 40  1  0
 14 41  1  0
 16 42  1  0
 17 43  1  0
 18 44  1  0
 20 45  1  0
 21 46  1  0
 23 47  1  0
 26 48  1  0
 27 49  1  0
M  END
>  <smiles>  (46) 
O=C(NCC(=O)N1CCCC1c1ccc(O)cc1)c1ccc2cc(Cl)ccc2n1

>  <score_type>  (46) 
oracle

>  <origin>  (46) 
autodockgpu

>  <m_score__min__energy>  (46) 
-8.3200000000000003

>  <m_primary>  (46) 
energy

>  <rmsd>  (46) 
2.040348618673226

>  <m_score__min__rmsd>  (46) 
2.040348618673226

>  <meeko>  (46) 
{"free_energy": -8.3, "intermolecular_energy": -10.09, "internal_energy": -1.17, "cluster_size": 24, "cluster_id": 2, "rank_in_cluster": 1}

>  <energy>  (46) 
-7.32

>  <cluster_rmsd>  (46) 
0.0

>  <cluster>  (46) 
5

$$$$

     RDKit          3D

 49 52  0  0  0  0  0  0  0  0999 V2000
  139.6730   72.2030  220.7830 O   0  0  0  0  0  0  0  0  0  0  0  0
  139.6550   72.5590  221.9810 C   0  0  0  0  0  0  0  0  0  0  0  0
  139.4970   73.9310  222.3200 N   0  0  0  0  0  0  0  0  0  0  0  0
  139.3620   74.8800  221.2620 C   0  0  0  0  0  0  0  0  0  0  0  0
  140.5830   75.6980  221.0370 C   0  0  0  0  0  0  0  0  0  0  0  0
  140.9160   76.6230  221.8380 O   0  0  0  0  0  0  0  0  0  0  0  0
  141.3580   75.3930  219.8840 N   0  0  0  0  0  0  0  0  0  0  0  0
  141.0730   74.4570  218.8070 C   0  0  0  0  0  0  0  0  0  0  0  0
  141.6370   75.1600  217.5850 C   0  0  0  0  0  0  0  0  0  0  0  0
  142.3290   76.4100  218.1060 C   0  0  0  0  0  0  0  0  0  0  0  0
  142.6610   75.9730  219.5120 C   0  0  2  0  0  0  0  0  0  0  0  0
  143.6170   74.8480  219.5610 C   0  0  0  0  0  0  0  0  0  0  0  0
  143.8470   74.1930  220.7740 C   0  0  0  0  0  0  0  0  0  0  0  0
  144.7430   73.1360  220.8250 C   0  0  0  0  0  0  0  0  0  0  0  0
  145.4270   72.6990  219.7100 C   0  0  0  0  0  0  0  0  0  0  0  0
  146.3260   71.6490  219.7290 O   0  0  0  0  0  0  0  0  0  0  0  0
  145.1850   73.3570  218.5250 C   0  0  0  0  0  0  0  0  0  0  0  0
  144.2990   74.4210  218.4210 C   0  0  0  0  0  0  0  0  0  0  0  0
  139.7920   71.6010  223.0980 C   0  0  0  0  0  0  0  0  0  0  0  0
  139.4070   70.2710  222.9030 C   0  0  0  0  0  0  0  0  0  0  0  0
  139.5380   69.3680  223.9590 C   0  0  0  0  0  0  0  0  0  0  0  0
  140.0330   69.7660  225.1690 C   0  0  0  0  0  0  0  0  0  0  0  0
  140.1600   68.8710  226.2090 C   0  0  0  0  0  0  0  0  0  0  0  0
  140.6680   69.3540  227.3960 C   0  0  0  0  0  0  0  0  0  0  0  0
  140.8280   68.2070  228.7240 Cl  0  0  0  0  0  0  0  0  0  0  0  0
  141.0440   70.6470  227.5960 C   0  0  0  0  0  0  0  0  0  0  0  0
  140.9110   71.5440  226.5350 C   0  0  0  0  0  0  0  0  0  0  0  0
  140.4020   71.1040  225.3140 C   0  0  0  0  0  0  0  0  0  0  0  0
  140.2750   71.9650  224.2950 N   0  0  0  0  0  0  0  0  0  0  0  0
  139.4820   74.2270  223.3310 H   0  0  0  0  0  0  0  0  0  0  0  0
  139.1320   74.3359  220.3340 H   0  0  0  0  0  0  0  0  0  0  0  0
  138.5580   75.5730  221.5508 H   0  0  0  0  0  0  0  0  0  0  0  0
  141.5767   73.4939  218.9766 H   0  0  0  0  0  0  0  0  0  0  0  0
  140.0037   74.2164  218.7136 H   0  0  0  0  0  0  0  0  0  0  0  0
  142.3588   74.5100  217.0687 H   0  0  0  0  0  0  0  0  0  0  0  0
  140.8469   75.4077  216.8609 H   0  0  0  0  0  0  0  0  0  0  0  0
  143.2355   76.6433  217.5283 H   0  0  0  0  0  0  0  0  0  0  0  0
  141.7274   77.3286  218.0409 H   0  0  0  0  0  0  0  0  0  0  0  0
  143.0895   76.7849  220.1180 H   0  0  0  0  0  0  0  0  0  0  0  0
  143.3196   74.5146  221.6842 H   0  0  0  0  0  0  0  0  0  0  0  0
  144.9138   72.6294  221.7863 H   0  0  0  0  0  0  0  0  0  0  0  0
  146.6400   71.2220  220.5900 H   0  0  0  0  0  0  0  0  0  0  0  0
  145.7169   73.0252  217.6211 H   0  0  0  0  0  0  0  0  0  0  0  0
  144.1371   74.9200  217.4541 H   0  0  0  0  0  0  0  0  0  0  0  0
  139.0072   69.9417  221.9326 H   0  0  0  0  0  0  0  0  0  0  0  0
  139.2381   68.3195  223.8151 H   0  0  0  0  0  0  0  0  0  0  0  0
  139.8685   67.8163  226.0968 H   0  0  0  0  0  0  0  0  0  0  0  0
  141.4418   70.9759  228.5674 H   0  0  0  0  0  0  0  0  0  0  0  0
  141.2071   72.5958  226.6619 H   0  0  0  0  0  0  0  0  0  0  0  0
  1  2  2  0
  2  3  1  0
  3  4  1  0
  4  5  1  0
  5  6  2  0
  5  7  1  0
  7  8  1  0
  8  9  1  0
  9 10  1  0
 10 11  1  0
 11 12  1  0
 12 13  2  0
 13 14  1  0
 14 15  2  0
 15 16  1  0
 15 17  1  0
 17 18  2  0
  2 19  1  0
 19 20  2  0
 20 21  1  0
 21 22  2  0
 22 23  1  0
 23 24  2  0
 24 25  1  0
 24 26  1  0
 26 27  2  0
 27 28  1  0
 28 29  2  0
 11  7  1  0
 18 12  1  0
 29 19  1  0
 28 22  1  0
  3 30  1  0
  4 31  1  0
  4 32  1  0
  8 33  1  0
  8 34  1  0
  9 35  1  0
  9 36  1  0
 10 37  1  0
 10 38  1  0
 11 39  1  1
 13 40  1  0
 14 41  1  0
 16 42  1  0
 17 43  1  0
 18 44  1  0
 20 45  1  0
 21 46  1  0
 23 47  1  0
 26 48  1  0
 27 49  1  0
M  END
>  <smiles>  (47) 
O=C(NCC(=O)N1CCCC1c1ccc(O)cc1)c1ccc2cc(Cl)ccc2n1

>  <score_type>  (47) 
oracle

>  <origin>  (47) 
autodockgpu

>  <m_score__min__energy>  (47) 
-8.3200000000000003

>  <m_primary>  (47) 
energy

>  <rmsd>  (47) 
1.6515715201734522

>  <m_score__min__rmsd>  (47) 
1.6515715201734522

>  <meeko>  (47) 
{"free_energy": -8.15, "intermolecular_energy": -9.94, "internal_energy": -1.37, "cluster_size": 12, "cluster_id": 3, "rank_in_cluster": 4}

>  <energy>  (47) 
-7.26

>  <cluster_rmsd>  (47) 
0.0

>  <cluster>  (47) 
6

$$$$

     RDKit          3D

 49 52  0  0  0  0  0  0  0  0999 V2000
  140.6120   72.5170  220.9930 O   0  0  0  0  0  0  0  0  0  0  0  0
  139.9320   72.6400  222.0340 C   0  0  0  0  0  0  0  0  0  0  0  0
  139.0560   73.7490  222.1940 N   0  0  0  0  0  0  0  0  0  0  0  0
  138.9780   74.7080  221.1390 C   0  0  0  0  0  0  0  0  0  0  0  0
  140.1590   75.6070  221.0640 C   0  0  0  0  0  0  0  0  0  0  0  0
  140.3930   76.4690  221.9650 O   0  0  0  0  0  0  0  0  0  0  0  0
  141.0130   75.4550  219.9370 N   0  0  0  0  0  0  0  0  0  0  0  0
  140.8250   74.6370  218.7470 C   0  0  0  0  0  0  0  0  0  0  0  0
  141.4390   75.4880  217.6490 C   0  0  0  0  0  0  0  0  0  0  0  0
  142.0550   76.6900  218.3470 C   0  0  0  0  0  0  0  0  0  0  0  0
  142.3150   76.1070  219.7150 C   0  0  2  0  0  0  0  0  0  0  0  0
  143.3040   75.0100  219.7010 C   0  0  0  0  0  0  0  0  0  0  0  0
  143.4740   74.2230  220.8430 C   0  0  0  0  0  0  0  0  0  0  0  0
  144.4010   73.1910  220.8350 C   0  0  0  0  0  0  0  0  0  0  0  0
  145.1730   72.9070  219.7290 C   0  0  0  0  0  0  0  0  0  0  0  0
  146.1050   71.8860  219.6890 O   0  0  0  0  0  0  0  0  0  0  0  0
  144.9900   73.6940  218.6140 C   0  0  0  0  0  0  0  0  0  0  0  0
  144.0760   74.7380  218.5710 C   0  0  0  0  0  0  0  0  0  0  0  0
  139.9910   71.6650  223.1430 C   0  0  0  0  0  0  0  0  0  0  0  0
  139.5240   70.3640  222.9290 C   0  0  0  0  0  0  0  0  0  0  0  0
  139.5800   69.4440  223.9770 C   0  0  0  0  0  0  0  0  0  0  0  0
  140.0830   69.7970  225.1970 C   0  0  0  0  0  0  0  0  0  0  0  0
  140.1370   68.8860  226.2300 C   0  0  0  0  0  0  0  0  0  0  0  0
  140.6590   69.3240  227.4290 C   0  0  0  0  0  0  0  0  0  0  0  0
  140.7260   68.1560  228.7460 Cl  0  0  0  0  0  0  0  0  0  0  0  0
  141.1160   70.5870  227.6470 C   0  0  0  0  0  0  0  0  0  0  0  0
  141.0550   71.5010  226.5940 C   0  0  0  0  0  0  0  0  0  0  0  0
  140.5370   71.1070  225.3610 C   0  0  0  0  0  0  0  0  0  0  0  0
  140.4800   71.9850  224.3500 N   0  0  0  0  0  0  0  0  0  0  0  0
  138.4850   73.8480  223.0740 H   0  0  0  0  0  0  0  0  0  0  0  0
  138.8903   74.1685  220.1844 H   0  0  0  0  0  0  0  0  0  0  0  0
  138.1024   75.3418  221.3432 H   0  0  0  0  0  0  0  0  0  0  0  0
  141.3493   73.6746  218.8416 H   0  0  0  0  0  0  0  0  0  0  0  0
  139.7722   74.3794  218.5591 H   0  0  0  0  0  0  0  0  0  0  0  0
  142.2127   74.9196  217.1121 H   0  0  0  0  0  0  0  0  0  0  0  0
  140.6864   75.7941  216.9074 H   0  0  0  0  0  0  0  0  0  0  0  0
  142.9867   77.0107  217.8580 H   0  0  0  0  0  0  0  0  0  0  0  0
  141.4281   77.5938  218.3444 H   0  0  0  0  0  0  0  0  0  0  0  0
  142.6779   76.8571  220.4330 H   0  0  0  0  0  0  0  0  0  0  0  0
  142.8754   74.4209  221.7444 H   0  0  0  0  0  0  0  0  0  0  0  0
  144.5240   72.5793  221.7409 H   0  0  0  0  0  0  0  0  0  0  0  0
  146.4290   71.4180  220.5250 H   0  0  0  0  0  0  0  0  0  0  0  0
  145.5942   73.4865  217.7185 H   0  0  0  0  0  0  0  0  0  0  0  0
  143.9620   75.3423  217.6589 H   0  0  0  0  0  0  0  0  0  0  0  0
  139.1187   70.0704  221.9494 H   0  0  0  0  0  0  0  0  0  0  0  0
  139.2135   68.4191  223.8182 H   0  0  0  0  0  0  0  0  0  0  0  0
  139.7790   67.8536  226.1034 H   0  0  0  0  0  0  0  0  0  0  0  0
  141.5224   70.8796  228.6264 H   0  0  0  0  0  0  0  0  0  0  0  0
  141.4150   72.5306  226.7367 H   0  0  0  0  0  0  0  0  0  0  0  0
  1  2  2  0
  2  3  1  0
  3  4  1  0
  4  5  1  0
  5  6  2  0
  5  7  1  0
  7  8  1  0
  8  9  1  0
  9 10  1  0
 10 11  1  0
 11 12  1  0
 12 13  2  0
 13 14  1  0
 14 15  2  0
 15 16  1  0
 15 17  1  0
 17 18  2  0
  2 19  1  0
 19 20  2  0
 20 21  1  0
 21 22  2  0
 22 23  1  0
 23 24  2  0
 24 25  1  0
 24 26  1  0
 26 27  2  0
 27 28  1  0
 28 29  2  0
 11  7  1  0
 18 12  1  0
 29 19  1  0
 28 22  1  0
  3 30  1  0
  4 31  1  0
  4 32  1  0
  8 33  1  0
  8 34  1  0
  9 35  1  0
  9 36  1  0
 10 37  1  0
 10 38  1  0
 11 39  1  1
 13 40  1  0
 14 41  1  0
 16 42  1  0
 17 43  1  0
 18 44  1  0
 20 45  1  0
 21 46  1  0
 23 47  1  0
 26 48  1  0
 27 49  1  0
M  END
>  <smiles>  (48) 
O=C(NCC(=O)N1CCCC1c1ccc(O)cc1)c1ccc2cc(Cl)ccc2n1

>  <score_type>  (48) 
oracle

>  <origin>  (48) 
autodockgpu

>  <m_score__min__energy>  (48) 
-8.3200000000000003

>  <m_primary>  (48) 
energy

>  <rmsd>  (48) 
1.4973643904700564

>  <m_score__min__rmsd>  (48) 
1.4973643904700564

>  <meeko>  (48) 
{"free_energy": -8.17, "intermolecular_energy": -9.96, "internal_energy": -1.34, "cluster_size": 12, "cluster_id": 3, "rank_in_cluster": 3}

>  <energy>  (48) 
-7.05

>  <cluster_rmsd>  (48) 
0.0

>  <cluster>  (48) 
7

$$$$

     RDKit          3D

 49 52  0  0  0  0  0  0  0  0999 V2000
  141.2960   79.9260  218.3650 O   0  0  0  0  0  0  0  0  0  0  0  0
  141.9600   79.2370  219.1700 C   0  0  0  0  0  0  0  0  0  0  0  0
  142.2050   79.7100  220.4890 N   0  0  0  0  0  0  0  0  0  0  0  0
  141.6750   80.9820  220.8620 C   0  0  0  0  0  0  0  0  0  0  0  0
  141.2080   81.0410  222.2720 C   0  0  0  0  0  0  0  0  0  0  0  0
  141.7890   81.7700  223.1310 O   0  0  0  0  0  0  0  0  0  0  0  0
  140.0810   80.2420  222.6100 N   0  0  0  0  0  0  0  0  0  0  0  0
  139.5990   79.8420  223.9240 C   0  0  0  0  0  0  0  0  0  0  0  0
  138.0900   79.8570  223.7530 C   0  0  0  0  0  0  0  0  0  0  0  0
  137.8400   80.1440  222.2810 C   0  0  0  0  0  0  0  0  0  0  0  0
  139.1220   79.6220  221.6790 C   0  0  2  0  0  0  0  0  0  0  0  0
  139.2950   78.1650  221.8540 C   0  0  0  0  0  0  0  0  0  0  0  0
  138.1680   77.3410  221.9120 C   0  0  0  0  0  0  0  0  0  0  0  0
  138.3250   75.9730  222.0760 C   0  0  0  0  0  0  0  0  0  0  0  0
  139.5670   75.3850  222.1860 C   0  0  0  0  0  0  0  0  0  0  0  0
  139.7570   74.0250  222.3500 O   0  0  0  0  0  0  0  0  0  0  0  0
  140.6650   76.2140  222.1260 C   0  0  0  0  0  0  0  0  0  0  0  0
  140.5610   77.5900  221.9640 C   0  0  0  0  0  0  0  0  0  0  0  0
  142.5210   77.9170  218.8130 C   0  0  0  0  0  0  0  0  0  0  0  0
  142.7000   77.5980  217.4630 C   0  0  0  0  0  0  0  0  0  0  0  0
  143.2300   76.3520  217.1270 C   0  0  0  0  0  0  0  0  0  0  0  0
  143.5720   75.4490  218.0940 C   0  0  0  0  0  0  0  0  0  0  0  0
  144.0950   74.2190  217.7580 C   0  0  0  0  0  0  0  0  0  0  0  0
  144.4140   73.3670  218.7940 C   0  0  0  0  0  0  0  0  0  0  0  0
  145.0820   71.7950  218.3610 Cl  0  0  0  0  0  0  0  0  0  0  0  0
  144.2420   73.6680  220.1110 C   0  0  0  0  0  0  0  0  0  0  0  0
  143.7120   74.9160  220.4380 C   0  0  0  0  0  0  0  0  0  0  0  0
  143.3740   75.8140  219.4260 C   0  0  0  0  0  0  0  0  0  0  0  0
  142.8650   77.0130  219.7410 N   0  0  0  0  0  0  0  0  0  0  0  0
  142.7650   79.1250  221.1630 H   0  0  0  0  0  0  0  0  0  0  0  0
  142.4599   81.7401  220.7235 H   0  0  0  0  0  0  0  0  0  0  0  0
  140.7985   81.1664  220.2235 H   0  0  0  0  0  0  0  0  0  0  0  0
  139.9572   78.8358  224.1871 H   0  0  0  0  0  0  0  0  0  0  0  0
  139.9503   80.4990  224.7333 H   0  0  0  0  0  0  0  0  0  0  0  0
  137.6638   78.8816  224.0304 H   0  0  0  0  0  0  0  0  0  0  0  0
  137.6181   80.6132  224.3976 H   0  0  0  0  0  0  0  0  0  0  0  0
  136.9624   79.5985  221.9040 H   0  0  0  0  0  0  0  0  0  0  0  0
  137.6195   81.1965  222.0496 H   0  0  0  0  0  0  0  0  0  0  0  0
  139.1983   79.8278  220.6011 H   0  0  0  0  0  0  0  0  0  0  0  0
  137.1609   77.7755  221.8280 H   0  0  0  0  0  0  0  0  0  0  0  0
  137.4292   75.3362  222.1198 H   0  0  0  0  0  0  0  0  0  0  0  0
  139.1280   73.4540  222.8990 H   0  0  0  0  0  0  0  0  0  0  0  0
  141.6669   75.7678  222.2099 H   0  0  0  0  0  0  0  0  0  0  0  0
  141.4640   78.2168  221.9231 H   0  0  0  0  0  0  0  0  0  0  0  0
  142.4270   78.3187  216.6781 H   0  0  0  0  0  0  0  0  0  0  0  0
  143.3747   76.0926  216.0679 H   0  0  0  0  0  0  0  0  0  0  0  0
  144.2512   73.9294  216.7084 H   0  0  0  0  0  0  0  0  0  0  0  0
  144.5137   72.9464  220.8956 H   0  0  0  0  0  0  0  0  0  0  0  0
  143.5609   75.1914  221.4922 H   0  0  0  0  0  0  0  0  0  0  0  0
  1  2  2  0
  2  3  1  0
  3  4  1  0
  4  5  1  0
  5  6  2  0
  5  7  1  0
  7  8  1  0
  8  9  1  0
  9 10  1  0
 10 11  1  0
 11 12  1  0
 12 13  2  0
 13 14  1  0
 14 15  2  0
 15 16  1  0
 15 17  1  0
 17 18  2  0
  2 19  1  0
 19 20  2  0
 20 21  1  0
 21 22  2  0
 22 23  1  0
 23 24  2  0
 24 25  1  0
 24 26  1  0
 26 27  2  0
 27 28  1  0
 28 29  2  0
 11  7  1  0
 18 12  1  0
 29 19  1  0
 28 22  1  0
  3 30  1  0
  4 31  1  0
  4 32  1  0
  8 33  1  0
  8 34  1  0
  9 35  1  0
  9 36  1  0
 10 37  1  0
 10 38  1  0
 11 39  1  6
 13 40  1  0
 14 41  1  0
 16 42  1  0
 17 43  1  0
 18 44  1  0
 20 45  1  0
 21 46  1  0
 23 47  1  0
 26 48  1  0
 27 49  1  0
M  END
>  <smiles>  (49) 
O=C(NCC(=O)N1CCCC1c1ccc(O)cc1)c1ccc2cc(Cl)ccc2n1

>  <score_type>  (49) 
oracle

>  <origin>  (49) 
autodockgpu

>  <m_score__min__energy>  (49) 
-8.3200000000000003

>  <m_primary>  (49) 
energy

>  <rmsd>  (49) 
8.540051658688775

>  <m_score__min__rmsd>  (49) 
8.540051658688775

>  <meeko>  (49) 
{"free_energy": -6.84, "intermolecular_energy": -8.63, "internal_energy": -2.12, "cluster_size": 3, "cluster_id": 7, "rank_in_cluster": 3}

>  <energy>  (49) 
-6.93

>  <cluster_rmsd>  (49) 
0.64

>  <cluster>  (49) 
7

$$$$

     RDKit          3D

 49 52  0  0  0  0  0  0  0  0999 V2000
  136.4010   74.9880  221.4300 O   0  0  0  0  0  0  0  0  0  0  0  0
  137.5280   75.0770  221.9620 C   0  0  0  0  0  0  0  0  0  0  0  0
  138.2620   73.9030  222.2910 N   0  0  0  0  0  0  0  0  0  0  0  0
  137.6780   72.6340  221.9970 C   0  0  0  0  0  0  0  0  0  0  0  0
  138.6380   71.5020  222.0880 C   0  0  0  0  0  0  0  0  0  0  0  0
  139.5140   71.3040  221.1930 O   0  0  0  0  0  0  0  0  0  0  0  0
  138.5270   70.6550  223.2250 N   0  0  0  0  0  0  0  0  0  0  0  0
  137.4540   70.5690  224.2050 C   0  0  0  0  0  0  0  0  0  0  0  0
  137.4080   69.0870  224.5310 C   0  0  0  0  0  0  0  0  0  0  0  0
  138.5760   68.4600  223.7870 C   0  0  0  0  0  0  0  0  0  0  0  0
  139.5010   69.6480  223.6800 C   0  0  2  0  0  0  0  0  0  0  0  0
  139.9800   70.1320  224.9910 C   0  0  0  0  0  0  0  0  0  0  0  0
  140.4330   71.4480  225.1140 C   0  0  0  0  0  0  0  0  0  0  0  0
  140.8830   71.9070  226.3430 C   0  0  0  0  0  0  0  0  0  0  0  0
  140.9040   71.1050  227.4640 C   0  0  0  0  0  0  0  0  0  0  0  0
  141.3470   71.5330  228.7020 O   0  0  0  0  0  0  0  0  0  0  0  0
  140.4530   69.8120  227.3210 C   0  0  0  0  0  0  0  0  0  0  0  0
  139.9930   69.3040  226.1130 C   0  0  0  0  0  0  0  0  0  0  0  0
  138.1590   76.3750  222.2790 C   0  0  0  0  0  0  0  0  0  0  0  0
  137.3530   77.5140  222.3790 C   0  0  0  0  0  0  0  0  0  0  0  0
  137.9490   78.7400  222.6780 C   0  0  0  0  0  0  0  0  0  0  0  0
  139.2990   78.8380  222.8730 C   0  0  0  0  0  0  0  0  0  0  0  0
  139.8840   80.0500  223.1680 C   0  0  0  0  0  0  0  0  0  0  0  0
  141.2510   80.0610  223.3500 C   0  0  0  0  0  0  0  0  0  0  0  0
  141.9950   81.6120  223.7270 Cl  0  0  0  0  0  0  0  0  0  0  0  0
  142.0430   78.9580  223.2540 C   0  0  0  0  0  0  0  0  0  0  0  0
  141.4390   77.7360  222.9540 C   0  0  0  0  0  0  0  0  0  0  0  0
  140.0590   77.6720  222.7620 C   0  0  0  0  0  0  0  0  0  0  0  0
  139.4790   76.4990  222.4750 N   0  0  0  0  0  0  0  0  0  0  0  0
  139.2120   73.9830  222.7400 H   0  0  0  0  0  0  0  0  0  0  0  0
  136.8596   72.4542  222.7097 H   0  0  0  0  0  0  0  0  0  0  0  0
  137.3246   72.6747  220.9561 H   0  0  0  0  0  0  0  0  0  0  0  0
  137.6876   71.1638  225.1004 H   0  0  0  0  0  0  0  0  0  0  0  0
  136.4956   70.9615  223.8343 H   0  0  0  0  0  0  0  0  0  0  0  0
  137.5160   68.9301  225.6144 H   0  0  0  0  0  0  0  0  0  0  0  0
  136.4500   68.6372  224.2311 H   0  0  0  0  0  0  0  0  0  0  0  0
  139.0316   67.6407  224.3624 H   0  0  0  0  0  0  0  0  0  0  0  0
  138.3118   67.9957  222.8254 H   0  0  0  0  0  0  0  0  0  0  0  0
  140.3923   69.4376  223.0706 H   0  0  0  0  0  0  0  0  0  0  0  0
  140.4327   72.1166  224.2405 H   0  0  0  0  0  0  0  0  0  0  0  0
  141.2349   72.9459  226.4260 H   0  0  0  0  0  0  0  0  0  0  0  0
  140.8940   72.2820  229.2080 H   0  0  0  0  0  0  0  0  0  0  0  0
  140.4572   69.1528  228.2016 H   0  0  0  0  0  0  0  0  0  0  0  0
  139.6439   68.2633  226.0423 H   0  0  0  0  0  0  0  0  0  0  0  0
  136.2662   77.4444  222.2243 H   0  0  0  0  0  0  0  0  0  0  0  0
  137.3234   79.6412  222.7580 H   0  0  0  0  0  0  0  0  0  0  0  0
  139.2864   80.9694  223.2546 H   0  0  0  0  0  0  0  0  0  0  0  0
  143.1298   79.0279  223.4087 H   0  0  0  0  0  0  0  0  0  0  0  0
  142.0501   76.8253  222.8692 H   0  0  0  0  0  0  0  0  0  0  0  0
  1  2  2  0
  2  3  1  0
  3  4  1  0
  4  5  1  0
  5  6  2  0
  5  7  1  0
  7  8  1  0
  8  9  1  0
  9 10  1  0
 10 11  1  0
 11 12  1  0
 12 13  2  0
 13 14  1  0
 14 15  2  0
 15 16  1  0
 15 17  1  0
 17 18  2  0
  2 19  1  0
 19 20  2  0
 20 21  1  0
 21 22  2  0
 22 23  1  0
 23 24  2  0
 24 25  1  0
 24 26  1  0
 26 27  2  0
 27 28  1  0
 28 29  2  0
 11  7  1  0
 18 12  1  0
 29 19  1  0
 28 22  1  0
  3 30  1  0
  4 31  1  0
  4 32  1  0
  8 33  1  0
  8 34  1  0
  9 35  1  0
  9 36  1  0
 10 37  1  0
 10 38  1  0
 11 39  1  6
 13 40  1  0
 14 41  1  0
 16 42  1  0
 17 43  1  0
 18 44  1  0
 20 45  1  0
 21 46  1  0
 23 47  1  0
 26 48  1  0
 27 49  1  0
M  END
>  <smiles>  (50) 
O=C(NCC(=O)N1CCCC1c1ccc(O)cc1)c1ccc2cc(Cl)ccc2n1

>  <score_type>  (50) 
oracle

>  <origin>  (50) 
autodockgpu

>  <m_score__min__energy>  (50) 
-8.3200000000000003

>  <m_primary>  (50) 
energy

>  <rmsd>  (50) 
8.299416184815152

>  <m_score__min__rmsd>  (50) 
8.299416184815152

>  <meeko>  (50) 
{"free_energy": -7.32, "intermolecular_energy": -9.11, "internal_energy": -1.31, "cluster_size": 1, "cluster_id": 5, "rank_in_cluster": 1}

>  <energy>  (50) 
-6.84

>  <cluster_rmsd>  (50) 
0.69

>  <cluster>  (50) 
7

$$$$

     RDKit          3D

 49 52  0  0  0  0  0  0  0  0999 V2000
  138.7760   70.5860  221.3620 O   0  0  0  0  0  0  0  0  0  0  0  0
  139.1350   71.4290  222.2390 C   0  0  0  0  0  0  0  0  0  0  0  0
  139.0390   72.8230  221.9730 N   0  0  0  0  0  0  0  0  0  0  0  0
  138.5440   73.3250  220.7310 C   0  0  0  0  0  0  0  0  0  0  0  0
  138.4270   74.8070  220.7220 C   0  0  0  0  0  0  0  0  0  0  0  0
  137.2960   75.2830  220.4420 O   0  0  0  0  0  0  0  0  0  0  0  0
  139.5650   75.6000  221.0210 N   0  0  0  0  0  0  0  0  0  0  0  0
  139.9280   76.1360  222.3170 C   0  0  0  0  0  0  0  0  0  0  0  0
  141.0360   77.1050  222.0700 C   0  0  0  0  0  0  0  0  0  0  0  0
  140.8910   77.4220  220.5980 C   0  0  0  0  0  0  0  0  0  0  0  0
  140.5830   76.0220  220.0620 C   0  0  1  0  0  0  0  0  0  0  0  0
  141.7460   75.1240  220.2420 C   0  0  0  0  0  0  0  0  0  0  0  0
  141.6670   73.8320  220.6910 C   0  0  0  0  0  0  0  0  0  0  0  0
  142.7650   73.0040  220.8520 C   0  0  0  0  0  0  0  0  0  0  0  0
  144.0270   73.4740  220.5540 C   0  0  0  0  0  0  0  0  0  0  0  0
  145.1540   72.6780  220.7010 O   0  0  0  0  0  0  0  0  0  0  0  0
  144.1390   74.7710  220.1000 C   0  0  0  0  0  0  0  0  0  0  0  0
  143.0280   75.5920  219.9420 C   0  0  0  0  0  0  0  0  0  0  0  0
  139.6560   70.9820  223.5490 C   0  0  0  0  0  0  0  0  0  0  0  0
  140.3720   71.8810  224.3170 C   0  0  0  0  0  0  0  0  0  0  0  0
  140.8430   71.4260  225.5380 C   0  0  0  0  0  0  0  0  0  0  0  0
  140.6290   70.1490  225.9930 C   0  0  0  0  0  0  0  0  0  0  0  0
  141.1000   69.7120  227.2000 C   0  0  0  0  0  0  0  0  0  0  0  0
  140.8530   68.4230  227.6000 C   0  0  0  0  0  0  0  0  0  0  0  0
  141.4350   67.8120  229.1370 Cl  0  0  0  0  0  0  0  0  0  0  0  0
  140.1350   67.5480  226.8090 C   0  0  0  0  0  0  0  0  0  0  0  0
  139.6590   68.0050  225.5820 C   0  0  0  0  0  0  0  0  0  0  0  0
  139.9080   69.3030  225.1780 C   0  0  0  0  0  0  0  0  0  0  0  0
  139.4230   69.7050  223.9670 N   0  0  0  0  0  0  0  0  0  0  0  0
  139.3530   73.4790  222.7430 H   0  0  0  0  0  0  0  0  0  0  0  0
  139.2317   73.0206  219.9283 H   0  0  0  0  0  0  0  0  0  0  0  0
  137.5368   72.9093  220.5801 H   0  0  0  0  0  0  0  0  0  0  0  0
  139.0677   76.6482  222.7726 H   0  0  0  0  0  0  0  0  0  0  0  0
  140.2387   75.3388  223.0083 H   0  0  0  0  0  0  0  0  0  0  0  0
  140.9133   78.0101  222.6830 H   0  0  0  0  0  0  0  0  0  0  0  0
  142.0269   76.7053  222.3312 H   0  0  0  0  0  0  0  0  0  0  0  0
  140.0650   78.1235  220.4096 H   0  0  0  0  0  0  0  0  0  0  0  0
  141.7604   77.9160  220.1396 H   0  0  0  0  0  0  0  0  0  0  0  0
  140.3092   76.0038  218.9968 H   0  0  0  0  0  0  0  0  0  0  0  0
  140.6737   73.4291  220.9379 H   0  0  0  0  0  0  0  0  0  0  0  0
  142.6313   71.9748  221.2164 H   0  0  0  0  0  0  0  0  0  0  0  0
  145.1500   71.8690  221.3250 H   0  0  0  0  0  0  0  0  0  0  0  0
  145.1356   75.1675  219.8559 H   0  0  0  0  0  0  0  0  0  0  0  0
  143.1597   76.6212  219.5768 H   0  0  0  0  0  0  0  0  0  0  0  0
  140.5591   72.9095  223.9748 H   0  0  0  0  0  0  0  0  0  0  0  0
  141.4146   72.1200  226.1717 H   0  0  0  0  0  0  0  0  0  0  0  0
  141.6744   70.3909  227.8474 H   0  0  0  0  0  0  0  0  0  0  0  0
  139.9437   66.5163  227.1393 H   0  0  0  0  0  0  0  0  0  0  0  0
  139.0827   67.3300  224.9322 H   0  0  0  0  0  0  0  0  0  0  0  0
  1  2  2  0
  2  3  1  0
  3  4  1  0
  4  5  1  0
  5  6  2  0
  5  7  1  0
  7  8  1  0
  8  9  1  0
  9 10  1  0
 10 11  1  0
 11 12  1  0
 12 13  2  0
 13 14  1  0
 14 15  2  0
 15 16  1  0
 15 17  1  0
 17 18  2  0
  2 19  1  0
 19 20  2  0
 20 21  1  0
 21 22  2  0
 22 23  1  0
 23 24  2  0
 24 25  1  0
 24 26  1  0
 26 27  2  0
 27 28  1  0
 28 29  2  0
 11  7  1  0
 18 12  1  0
 29 19  1  0
 28 22  1  0
  3 30  1  0
  4 31  1  0
  4 32  1  0
  8 33  1  0
  8 34  1  0
  9 35  1  0
  9 36  1  0
 10 37  1  0
 10 38  1  0
 11 39  1  6
 13 40  1  0
 14 41  1  0
 16 42  1  0
 17 43  1  0
 18 44  1  0
 20 45  1  0
 21 46  1  0
 23 47  1  0
 26 48  1  0
 27 49  1  0
M  END
>  <smiles>  (51) 
O=C(NCC(=O)N1CCCC1c1ccc(O)cc1)c1ccc2cc(Cl)ccc2n1

>  <score_type>  (51) 
oracle

>  <origin>  (51) 
autodockgpu

>  <m_score__min__energy>  (51) 
-8.5700000000000003

>  <m_primary>  (51) 
energy

>  <rmsd>  (51) 
3.127272845576423

>  <m_score__min__rmsd>  (51) 
3.127272845576423

>  <meeko>  (51) 
{"free_energy": -7.56, "intermolecular_energy": -9.35, "internal_energy": -1.39, "cluster_size": 15, "cluster_id": 1, "rank_in_cluster": 12}

>  <energy>  (51) 
-8.57

>  <cluster_rmsd>  (51) 
0.0

>  <cluster>  (51) 
1

$$$$

     RDKit          3D

 49 52  0  0  0  0  0  0  0  0999 V2000
  136.7330   77.3650  222.5230 O   0  0  0  0  0  0  0  0  0  0  0  0
  137.0190   76.1800  222.8720 C   0  0  0  0  0  0  0  0  0  0  0  0
  138.2950   75.6310  222.5670 N   0  0  0  0  0  0  0  0  0  0  0  0
  139.2920   76.3760  221.8660 C   0  0  0  0  0  0  0  0  0  0  0  0
  140.5030   75.5670  221.5680 C   0  0  0  0  0  0  0  0  0  0  0  0
  140.7290   74.5890  222.3260 O   0  0  0  0  0  0  0  0  0  0  0  0
  141.3300   75.9240  220.4710 N   0  0  0  0  0  0  0  0  0  0  0  0
  142.1690   77.1000  220.3700 C   0  0  0  0  0  0  0  0  0  0  0  0
  142.6230   77.1660  218.9500 C   0  0  0  0  0  0  0  0  0  0  0  0
  141.6100   76.3050  218.2280 C   0  0  0  0  0  0  0  0  0  0  0  0
  141.4800   75.1610  219.2350 C   0  0  1  0  0  0  0  0  0  0  0  0
  142.7510   74.4090  219.3430 C   0  0  0  0  0  0  0  0  0  0  0  0
  143.5140   74.0190  218.2740 C   0  0  0  0  0  0  0  0  0  0  0  0
  144.7020   73.3170  218.3920 C   0  0  0  0  0  0  0  0  0  0  0  0
  145.1750   72.9740  219.6410 C   0  0  0  0  0  0  0  0  0  0  0  0
  146.3590   72.2710  219.8040 O   0  0  0  0  0  0  0  0  0  0  0  0
  144.4280   73.3530  220.7360 C   0  0  0  0  0  0  0  0  0  0  0  0
  143.2370   74.0580  220.6050 C   0  0  0  0  0  0  0  0  0  0  0  0
  136.0370   75.3490  223.6020 C   0  0  0  0  0  0  0  0  0  0  0  0
  135.8400   74.0440  223.1910 C   0  0  0  0  0  0  0  0  0  0  0  0
  134.9120   73.2970  223.8990 C   0  0  0  0  0  0  0  0  0  0  0  0
  134.2040   73.7990  224.9630 C   0  0  0  0  0  0  0  0  0  0  0  0
  133.2910   73.0510  225.6540 C   0  0  0  0  0  0  0  0  0  0  0  0
  132.6140   73.6090  226.7090 C   0  0  0  0  0  0  0  0  0  0  0  0
  131.4330   72.6950  227.6280 Cl  0  0  0  0  0  0  0  0  0  0  0  0
  132.8330   74.9170  227.0950 C   0  0  0  0  0  0  0  0  0  0  0  0
  133.7660   75.6680  226.3840 C   0  0  0  0  0  0  0  0  0  0  0  0
  134.4480   75.1080  225.3210 C   0  0  0  0  0  0  0  0  0  0  0  0
  135.3520   75.8830  224.6540 N   0  0  0  0  0  0  0  0  0  0  0  0
  138.4760   74.6370  222.8840 H   0  0  0  0  0  0  0  0  0  0  0  0
  138.8639   76.7327  220.9176 H   0  0  0  0  0  0  0  0  0  0  0  0
  139.5993   77.2123  222.5111 H   0  0  0  0  0  0  0  0  0  0  0  0
  141.5947   78.0017  220.6291 H   0  0  0  0  0  0  0  0  0  0  0  0
  143.0224   77.0445  221.0618 H   0  0  0  0  0  0  0  0  0  0  0  0
  142.6012   78.2001  218.5757 H   0  0  0  0  0  0  0  0  0  0  0  0
  143.6595   76.8252  218.8102 H   0  0  0  0  0  0  0  0  0  0  0  0
  140.6555   76.8317  218.0810 H   0  0  0  0  0  0  0  0  0  0  0  0
  141.8974   76.0005  217.2108 H   0  0  0  0  0  0  0  0  0  0  0  0
  140.6860   74.4407  218.9885 H   0  0  0  0  0  0  0  0  0  0  0  0
  143.1630   74.2783  217.2643 H   0  0  0  0  0  0  0  0  0  0  0  0
  145.2668   73.0338  217.4916 H   0  0  0  0  0  0  0  0  0  0  0  0
  146.4410   71.5310  220.5040 H   0  0  0  0  0  0  0  0  0  0  0  0
  144.7848   73.0899  221.7427 H   0  0  0  0  0  0  0  0  0  0  0  0
  142.6713   74.3425  221.5044 H   0  0  0  0  0  0  0  0  0  0  0  0
  136.3941   73.6183  222.3414 H   0  0  0  0  0  0  0  0  0  0  0  0
  134.7346   72.2549  223.5949 H   0  0  0  0  0  0  0  0  0  0  0  0
  133.1003   72.0068  225.3653 H   0  0  0  0  0  0  0  0  0  0  0  0
  132.2846   75.3544  227.9423 H   0  0  0  0  0  0  0  0  0  0  0  0
  133.9608   76.7121  226.6703 H   0  0  0  0  0  0  0  0  0  0  0  0
  1  2  2  0
  2  3  1  0
  3  4  1  0
  4  5  1  0
  5  6  2  0
  5  7  1  0
  7  8  1  0
  8  9  1  0
  9 10  1  0
 10 11  1  0
 11 12  1  0
 12 13  2  0
 13 14  1  0
 14 15  2  0
 15 16  1  0
 15 17  1  0
 17 18  2  0
  2 19  1  0
 19 20  2  0
 20 21  1  0
 21 22  2  0
 22 23  1  0
 23 24  2  0
 24 25  1  0
 24 26  1  0
 26 27  2  0
 27 28  1  0
 28 29  2  0
 11  7  1  0
 18 12  1  0
 29 19  1  0
 28 22  1  0
  3 30  1  0
  4 31  1  0
  4 32  1  0
  8 33  1  0
  8 34  1  0
  9 35  1  0
  9 36  1  0
 10 37  1  0
 10 38  1  0
 11 39  1  6
 13 40  1  0
 14 41  1  0
 16 42  1  0
 17 43  1  0
 18 44  1  0
 20 45  1  0
 21 46  1  0
 23 47  1  0
 26 48  1  0
 27 49  1  0
M  END
>  <smiles>  (52) 
O=C(NCC(=O)N1CCCC1c1ccc(O)cc1)c1ccc2cc(Cl)ccc2n1

>  <score_type>  (52) 
oracle

>  <origin>  (52) 
autodockgpu

>  <m_score__min__energy>  (52) 
-8.5700000000000003

>  <m_primary>  (52) 
energy

>  <rmsd>  (52) 
5.57546017013395

>  <m_score__min__rmsd>  (52) 
5.57546017013395

>  <meeko>  (52) 
{"free_energy": -7.32, "intermolecular_energy": -9.11, "internal_energy": -1.48, "cluster_size": 1, "cluster_id": 7, "rank_in_cluster": 1}

>  <energy>  (52) 
-8.55

>  <cluster_rmsd>  (52) 
0.32

>  <cluster>  (52) 
1

$$$$

     RDKit          3D

 49 52  0  0  0  0  0  0  0  0999 V2000
  139.2950   71.5030  220.8620 O   0  0  0  0  0  0  0  0  0  0  0  0
  139.4550   71.9830  222.0250 C   0  0  0  0  0  0  0  0  0  0  0  0
  139.4670   73.3910  222.2240 N   0  0  0  0  0  0  0  0  0  0  0  0
  139.3030   74.3100  221.1430 C   0  0  0  0  0  0  0  0  0  0  0  0
  139.7090   75.6930  221.5040 C   0  0  0  0  0  0  0  0  0  0  0  0
  139.5990   76.0160  222.7150 O   0  0  0  0  0  0  0  0  0  0  0  0
  140.1910   76.5660  220.4950 N   0  0  0  0  0  0  0  0  0  0  0  0
  139.4280   77.1160  219.3930 C   0  0  0  0  0  0  0  0  0  0  0  0
  140.4210   77.7460  218.4740 C   0  0  0  0  0  0  0  0  0  0  0  0
  141.7200   77.0770  218.8640 C   0  0  0  0  0  0  0  0  0  0  0  0
  141.5580   77.0680  220.3860 C   0  0  1  0  0  0  0  0  0  0  0  0
  141.5550   78.4500  220.9210 C   0  0  0  0  0  0  0  0  0  0  0  0
  141.8420   79.5680  220.1830 C   0  0  0  0  0  0  0  0  0  0  0  0
  141.8340   80.8530  220.6980 C   0  0  0  0  0  0  0  0  0  0  0  0
  141.5250   81.0570  222.0270 C   0  0  0  0  0  0  0  0  0  0  0  0
  141.5060   82.3270  222.5830 O   0  0  0  0  0  0  0  0  0  0  0  0
  141.2320   79.9500  222.7950 C   0  0  0  0  0  0  0  0  0  0  0  0
  141.2430   78.6640  222.2650 C   0  0  0  0  0  0  0  0  0  0  0  0
  139.6300   71.0920  223.1930 C   0  0  0  0  0  0  0  0  0  0  0  0
  139.2320   69.7730  223.0840 C   0  0  0  0  0  0  0  0  0  0  0  0
  139.4130   68.9690  224.1980 C   0  0  0  0  0  0  0  0  0  0  0  0
  139.9580   69.4280  225.3700 C   0  0  0  0  0  0  0  0  0  0  0  0
  140.1320   68.6240  226.4630 C   0  0  0  0  0  0  0  0  0  0  0  0
  140.6840   69.1430  227.6070 C   0  0  0  0  0  0  0  0  0  0  0  0
  140.9280   68.1560  229.0370 Cl  0  0  0  0  0  0  0  0  0  0  0  0
  141.0730   70.4650  227.6850 C   0  0  0  0  0  0  0  0  0  0  0  0
  140.8920   71.2740  226.5660 C   0  0  0  0  0  0  0  0  0  0  0  0
  140.3360   70.7540  225.4130 C   0  0  0  0  0  0  0  0  0  0  0  0
  140.1770   71.5850  224.3410 N   0  0  0  0  0  0  0  0  0  0  0  0
  139.6050   73.7320  223.2170 H   0  0  0  0  0  0  0  0  0  0  0  0
  139.9182   73.9716  220.2962 H   0  0  0  0  0  0  0  0  0  0  0  0
  138.2343   74.3329  220.8836 H   0  0  0  0  0  0  0  0  0  0  0  0
  138.8796   76.3171  218.8724 H   0  0  0  0  0  0  0  0  0  0  0  0
  138.6858   77.8478  219.7445 H   0  0  0  0  0  0  0  0  0  0  0  0
  140.1714   77.5414  217.4224 H   0  0  0  0  0  0  0  0  0  0  0  0
  140.4557   78.8421  218.5599 H   0  0  0  0  0  0  0  0  0  0  0  0
  141.7956   76.0590  218.4541 H   0  0  0  0  0  0  0  0  0  0  0  0
  142.6295   77.5733  218.4947 H   0  0  0  0  0  0  0  0  0  0  0  0
  142.3435   76.5068  220.9133 H   0  0  0  0  0  0  0  0  0  0  0  0
  142.0932   79.4371  219.1201 H   0  0  0  0  0  0  0  0  0  0  0  0
  142.0733   81.7087  220.0496 H   0  0  0  0  0  0  0  0  0  0  0  0
  140.9200   83.0660  222.1890 H   0  0  0  0  0  0  0  0  0  0  0  0
  140.9824   80.0878  223.8574 H   0  0  0  0  0  0  0  0  0  0  0  0
  141.0034   77.8068  222.9114 H   0  0  0  0  0  0  0  0  0  0  0  0
  138.7919   69.3796  222.1558 H   0  0  0  0  0  0  0  0  0  0  0  0
  139.1055   67.9145  224.1397 H   0  0  0  0  0  0  0  0  0  0  0  0
  139.8309   67.5667  226.4250 H   0  0  0  0  0  0  0  0  0  0  0  0
  141.5148   70.8693  228.6077 H   0  0  0  0  0  0  0  0  0  0  0  0
  141.1930   72.3315  226.6002 H   0  0  0  0  0  0  0  0  0  0  0  0
  1  2  2  0
  2  3  1  0
  3  4  1  0
  4  5  1  0
  5  6  2  0
  5  7  1  0
  7  8  1  0
  8  9  1  0
  9 10  1  0
 10 11  1  0
 11 12  1  0
 12 13  2  0
 13 14  1  0
 14 15  2  0
 15 16  1  0
 15 17  1  0
 17 18  2  0
  2 19  1  0
 19 20  2  0
 20 21  1  0
 21 22  2  0
 22 23  1  0
 23 24  2  0
 24 25  1  0
 24 26  1  0
 26 27  2  0
 27 28  1  0
 28 29  2  0
 11  7  1  0
 18 12  1  0
 29 19  1  0
 28 22  1  0
  3 30  1  0
  4 31  1  0
  4 32  1  0
  8 33  1  0
  8 34  1  0
  9 35  1  0
  9 36  1  0
 10 37  1  0
 10 38  1  0
 11 39  1  1
 13 40  1  0
 14 41  1  0
 16 42  1  0
 17 43  1  0
 18 44  1  0
 20 45  1  0
 21 46  1  0
 23 47  1  0
 26 48  1  0
 27 49  1  0
M  END
>  <smiles>  (53) 
O=C(NCC(=O)N1CCCC1c1ccc(O)cc1)c1ccc2cc(Cl)ccc2n1

>  <score_type>  (53) 
oracle

>  <origin>  (53) 
autodockgpu

>  <m_score__min__energy>  (53) 
-8.5700000000000003

>  <m_primary>  (53) 
energy

>  <rmsd>  (53) 
1.260467903420683

>  <m_score__min__rmsd>  (53) 
1.260467903420683

>  <meeko>  (53) 
{"free_energy": -7.46, "intermolecular_energy": -9.25, "internal_energy": -1.56, "cluster_size": 10, "cluster_id": 3, "rank_in_cluster": 8}

>  <energy>  (53) 
-8.5

>  <cluster_rmsd>  (53) 
0.35

>  <cluster>  (53) 
1

$$$$

     RDKit          3D

 49 52  0  0  0  0  0  0  0  0999 V2000
  138.4710   70.7280  221.3780 O   0  0  0  0  0  0  0  0  0  0  0  0
  138.8190   71.5620  222.2680 C   0  0  0  0  0  0  0  0  0  0  0  0
  138.6310   72.9560  222.0550 N   0  0  0  0  0  0  0  0  0  0  0  0
  138.0510   73.4670  220.8540 C   0  0  0  0  0  0  0  0  0  0  0  0
  139.0520   74.1240  219.9740 C   0  0  0  0  0  0  0  0  0  0  0  0
  139.0220   73.8140  218.7550 O   0  0  0  0  0  0  0  0  0  0  0  0
  139.9760   75.0460  220.5310 N   0  0  0  0  0  0  0  0  0  0  0  0
  140.0180   75.5020  221.9050 C   0  0  0  0  0  0  0  0  0  0  0  0
  140.9770   76.6450  221.9350 C   0  0  0  0  0  0  0  0  0  0  0  0
  141.0350   77.0790  220.4870 C   0  0  0  0  0  0  0  0  0  0  0  0
  141.0580   75.7080  219.8080 C   0  0  1  0  0  0  0  0  0  0  0  0
  142.3060   74.9810  220.1370 C   0  0  0  0  0  0  0  0  0  0  0  0
  143.5600   75.5300  220.0840 C   0  0  0  0  0  0  0  0  0  0  0  0
  144.7170   74.8370  220.3960 C   0  0  0  0  0  0  0  0  0  0  0  0
  144.6410   73.5160  220.7860 C   0  0  0  0  0  0  0  0  0  0  0  0
  145.7760   72.7850  221.1070 O   0  0  0  0  0  0  0  0  0  0  0  0
  143.3920   72.9360  220.8480 C   0  0  0  0  0  0  0  0  0  0  0  0
  142.2370   73.6430  220.5320 C   0  0  0  0  0  0  0  0  0  0  0  0
  139.4260   71.1050  223.5370 C   0  0  0  0  0  0  0  0  0  0  0  0
  140.3680   71.9120  224.1480 C   0  0  0  0  0  0  0  0  0  0  0  0
  140.9120   71.4500  225.3350 C   0  0  0  0  0  0  0  0  0  0  0  0
  140.5570   70.2540  225.9060 C   0  0  0  0  0  0  0  0  0  0  0  0
  141.1020   69.8090  227.0790 C   0  0  0  0  0  0  0  0  0  0  0  0
  140.7040   68.6030  227.5990 C   0  0  0  0  0  0  0  0  0  0  0  0
  141.3720   67.9870  229.0990 Cl  0  0  0  0  0  0  0  0  0  0  0  0
  139.7610   67.8200  226.9650 C   0  0  0  0  0  0  0  0  0  0  0  0
  139.2120   68.2840  225.7710 C   0  0  0  0  0  0  0  0  0  0  0  0
  139.6110   69.4970  225.2450 C   0  0  0  0  0  0  0  0  0  0  0  0
  139.0460   69.9100  224.0730 N   0  0  0  0  0  0  0  0  0  0  0  0
  138.9410   73.6040  222.8330 H   0  0  0  0  0  0  0  0  0  0  0  0
  137.5893   72.6343  220.3030 H   0  0  0  0  0  0  0  0  0  0  0  0
  137.3067   74.2254  221.1384 H   0  0  0  0  0  0  0  0  0  0  0  0
  139.0199   75.8331  222.2276 H   0  0  0  0  0  0  0  0  0  0  0  0
  140.3326   74.6968  222.5852 H   0  0  0  0  0  0  0  0  0  0  0  0
  140.6042   77.4571  222.5765 H   0  0  0  0  0  0  0  0  0  0  0  0
  141.9608   76.3746  222.3461 H   0  0  0  0  0  0  0  0  0  0  0  0
  140.1490   77.6639  220.1990 H   0  0  0  0  0  0  0  0  0  0  0  0
  141.8763   77.7401  220.2316 H   0  0  0  0  0  0  0  0  0  0  0  0
  140.9764   75.7535  218.7120 H   0  0  0  0  0  0  0  0  0  0  0  0
  143.6528   76.5819  219.7758 H   0  0  0  0  0  0  0  0  0  0  0  0
  145.6941   75.3382  220.3331 H   0  0  0  0  0  0  0  0  0  0  0  0
  145.7080   71.9100  221.6310 H   0  0  0  0  0  0  0  0  0  0  0  0
  143.3065   71.8836  221.1564 H   0  0  0  0  0  0  0  0  0  0  0  0
  141.2589   73.1434  220.5937 H   0  0  0  0  0  0  0  0  0  0  0  0
  140.6710   72.8754  223.7120 H   0  0  0  0  0  0  0  0  0  0  0  0
  141.6639   72.0711  225.8438 H   0  0  0  0  0  0  0  0  0  0  0  0
  141.8558   70.4150  227.6030 H   0  0  0  0  0  0  0  0  0  0  0  0
  139.4506   66.8545  227.3910 H   0  0  0  0  0  0  0  0  0  0  0  0
  138.4572   67.6811  225.2450 H   0  0  0  0  0  0  0  0  0  0  0  0
  1  2  2  0
  2  3  1  0
  3  4  1  0
  4  5  1  0
  5  6  2  0
  5  7  1  0
  7  8  1  0
  8  9  1  0
  9 10  1  0
 10 11  1  0
 11 12  1  0
 12 13  2  0
 13 14  1  0
 14 15  2  0
 15 16  1  0
 15 17  1  0
 17 18  2  0
  2 19  1  0
 19 20  2  0
 20 21  1  0
 21 22  2  0
 22 23  1  0
 23 24  2  0
 24 25  1  0
 24 26  1  0
 26 27  2  0
 27 28  1  0
 28 29  2  0
 11  7  1  0
 18 12  1  0
 29 19  1  0
 28 22  1  0
  3 30  1  0
  4 31  1  0
  4 32  1  0
  8 33  1  0
  8 34  1  0
  9 35  1  0
  9 36  1  0
 10 37  1  0
 10 38  1  0
 11 39  1  6
 13 40  1  0
 14 41  1  0
 16 42  1  0
 17 43  1  0
 18 44  1  0
 20 45  1  0
 21 46  1  0
 23 47  1  0
 26 48  1  0
 27 49  1  0
M  END
>  <smiles>  (54) 
O=C(NCC(=O)N1CCCC1c1ccc(O)cc1)c1ccc2cc(Cl)ccc2n1

>  <score_type>  (54) 
oracle

>  <origin>  (54) 
autodockgpu

>  <m_score__min__energy>  (54) 
-8.5700000000000003

>  <m_primary>  (54) 
energy

>  <rmsd>  (54) 
3.0032688682311366

>  <m_score__min__rmsd>  (54) 
3.0032688682311366

>  <meeko>  (54) 
{"free_energy": -7.88, "intermolecular_energy": -9.67, "internal_energy": -1.36, "cluster_size": 15, "cluster_id": 1, "rank_in_cluster": 7}

>  <energy>  (54) 
-8.29

>  <cluster_rmsd>  (54) 
0.46

>  <cluster>  (54) 
1

$$$$

     RDKit          3D

 49 52  0  0  0  0  0  0  0  0999 V2000
  139.8180   72.6790  220.6810 O   0  0  0  0  0  0  0  0  0  0  0  0
  139.7440   72.9850  221.9100 C   0  0  0  0  0  0  0  0  0  0  0  0
  139.5640   74.3400  222.3020 N   0  0  0  0  0  0  0  0  0  0  0  0
  139.4610   75.3970  221.3470 C   0  0  0  0  0  0  0  0  0  0  0  0
  140.7800   76.0000  221.0210 C   0  0  0  0  0  0  0  0  0  0  0  0
  141.6350   75.2390  220.4980 O   0  0  0  0  0  0  0  0  0  0  0  0
  141.0120   77.3710  221.3060 N   0  0  0  0  0  0  0  0  0  0  0  0
  141.2040   78.4330  220.3400 C   0  0  0  0  0  0  0  0  0  0  0  0
  141.6710   79.6200  221.1160 C   0  0  0  0  0  0  0  0  0  0  0  0
  142.1880   79.0070  222.3980 C   0  0  0  0  0  0  0  0  0  0  0  0
  141.1010   77.9580  222.6400 C   0  0  1  0  0  0  0  0  0  0  0  0
  139.7990   78.6070  222.9160 C   0  0  0  0  0  0  0  0  0  0  0  0
  138.6020   78.2010  222.3850 C   0  0  0  0  0  0  0  0  0  0  0  0
  137.3920   78.8180  222.6550 C   0  0  0  0  0  0  0  0  0  0  0  0
  137.3520   79.9070  223.5010 C   0  0  0  0  0  0  0  0  0  0  0  0
  136.1610   80.5550  223.7970 O   0  0  0  0  0  0  0  0  0  0  0  0
  138.5400   80.3380  224.0500 C   0  0  0  0  0  0  0  0  0  0  0  0
  139.7490   79.7100  223.7720 C   0  0  0  0  0  0  0  0  0  0  0  0
  139.8410   71.9420  222.9550 C   0  0  0  0  0  0  0  0  0  0  0  0
  139.4280   70.6590  222.6490 C   0  0  0  0  0  0  0  0  0  0  0  0
  139.5360   69.7100  223.6530 C   0  0  0  0  0  0  0  0  0  0  0  0
  140.0230   69.9970  224.9030 C   0  0  0  0  0  0  0  0  0  0  0  0
  140.1240   69.0510  225.8860 C   0  0  0  0  0  0  0  0  0  0  0  0
  140.6210   69.3990  227.1170 C   0  0  0  0  0  0  0  0  0  0  0  0
  140.7700   68.2260  228.4110 Cl  0  0  0  0  0  0  0  0  0  0  0  0
  141.0250   70.6910  227.3920 C   0  0  0  0  0  0  0  0  0  0  0  0
  140.9180   71.6450  226.3830 C   0  0  0  0  0  0  0  0  0  0  0  0
  140.4180   71.2960  225.1430 C   0  0  0  0  0  0  0  0  0  0  0  0
  140.3320   72.2650  224.1850 N   0  0  0  0  0  0  0  0  0  0  0  0
  139.5090   74.5330  223.3410 H   0  0  0  0  0  0  0  0  0  0  0  0
  139.0184   74.9960  220.4233 H   0  0  0  0  0  0  0  0  0  0  0  0
  138.8327   76.1853  221.7873 H   0  0  0  0  0  0  0  0  0  0  0  0
  141.9608   78.1409  219.5971 H   0  0  0  0  0  0  0  0  0  0  0  0
  140.2749   78.6510  219.7929 H   0  0  0  0  0  0  0  0  0  0  0  0
  142.4717   80.1518  220.5812 H   0  0  0  0  0  0  0  0  0  0  0  0
  140.8814   80.3678  221.2810 H   0  0  0  0  0  0  0  0  0  0  0  0
  143.1778   78.5469  222.2616 H   0  0  0  0  0  0  0  0  0  0  0  0
  142.3430   79.7165  223.2242 H   0  0  0  0  0  0  0  0  0  0  0  0
  141.3179   77.2765  223.4758 H   0  0  0  0  0  0  0  0  0  0  0  0
  138.6028   77.3358  221.7057 H   0  0  0  0  0  0  0  0  0  0  0  0
  136.4659   78.4411  222.1965 H   0  0  0  0  0  0  0  0  0  0  0  0
  135.3100   80.3630  223.2640 H   0  0  0  0  0  0  0  0  0  0  0  0
  138.5317   81.2042  224.7280 H   0  0  0  0  0  0  0  0  0  0  0  0
  140.6756   80.0855  224.2308 H   0  0  0  0  0  0  0  0  0  0  0  0
  139.0321   70.4032  221.6551 H   0  0  0  0  0  0  0  0  0  0  0  0
  139.2167   68.6796  223.4379 H   0  0  0  0  0  0  0  0  0  0  0  0
  139.8081   68.0156  225.6906 H   0  0  0  0  0  0  0  0  0  0  0  0
  141.4210   70.9595  228.3825 H   0  0  0  0  0  0  0  0  0  0  0  0
  141.2331   72.6814  226.5741 H   0  0  0  0  0  0  0  0  0  0  0  0
  1  2  2  0
  2  3  1  0
  3  4  1  0
  4  5  1  0
  5  6  2  0
  5  7  1  0
  7  8  1  0
  8  9  1  0
  9 10  1  0
 10 11  1  0
 11 12  1  0
 12 13  2  0
 13 14  1  0
 14 15  2  0
 15 16  1  0
 15 17  1  0
 17 18  2  0
  2 19  1  0
 19 20  2  0
 20 21  1  0
 21 22  2  0
 22 23  1  0
 23 24  2  0
 24 25  1  0
 24 26  1  0
 26 27  2  0
 27 28  1  0
 28 29  2  0
 11  7  1  0
 18 12  1  0
 29 19  1  0
 28 22  1  0
  3 30  1  0
  4 31  1  0
  4 32  1  0
  8 33  1  0
  8 34  1  0
  9 35  1  0
  9 36  1  0
 10 37  1  0
 10 38  1  0
 11 39  1  1
 13 40  1  0
 14 41  1  0
 16 42  1  0
 17 43  1  0
 18 44  1  0
 20 45  1  0
 21 46  1  0
 23 47  1  0
 26 48  1  0
 27 49  1  0
M  END
>  <smiles>  (55) 
O=C(NCC(=O)N1CCCC1c1ccc(O)cc1)c1ccc2cc(Cl)ccc2n1

>  <score_type>  (55) 
oracle

>  <origin>  (55) 
autodockgpu

>  <m_score__min__energy>  (55) 
-8.5700000000000003

>  <m_primary>  (55) 
energy

>  <rmsd>  (55) 
2.882100757653843

>  <m_score__min__rmsd>  (55) 
2.882100757653843

>  <meeko>  (55) 
{"free_energy": -7.85, "intermolecular_energy": -9.64, "internal_energy": -1.33, "cluster_size": 4, "cluster_id": 4, "rank_in_cluster": 4}

>  <energy>  (55) 
-8.18

>  <cluster_rmsd>  (55) 
0.65

>  <cluster>  (55) 
1

$$$$

     RDKit          3D

 49 52  0  0  0  0  0  0  0  0999 V2000
  138.4940   71.7610  220.7250 O   0  0  0  0  0  0  0  0  0  0  0  0
  138.7350   72.2480  221.8710 C   0  0  0  0  0  0  0  0  0  0  0  0
  138.7020   73.6560  222.0720 N   0  0  0  0  0  0  0  0  0  0  0  0
  138.4020   74.5660  221.0130 C   0  0  0  0  0  0  0  0  0  0  0  0
  139.5980   75.3210  220.5560 C   0  0  0  0  0  0  0  0  0  0  0  0
  140.1760   74.8930  219.5230 O   0  0  0  0  0  0  0  0  0  0  0  0
  140.0260   76.4610  221.2850 N   0  0  0  0  0  0  0  0  0  0  0  0
  141.0730   76.5030  222.2850 C   0  0  0  0  0  0  0  0  0  0  0  0
  140.9670   77.8390  222.9410 C   0  0  0  0  0  0  0  0  0  0  0  0
  139.5550   78.2700  222.6120 C   0  0  0  0  0  0  0  0  0  0  0  0
  139.4780   77.8080  221.1550 C   0  0  1  0  0  0  0  0  0  0  0  0
  140.4190   78.5790  220.3100 C   0  0  0  0  0  0  0  0  0  0  0  0
  140.5490   79.9430  220.3390 C   0  0  0  0  0  0  0  0  0  0  0  0
  141.4350   80.6480  219.5430 C   0  0  0  0  0  0  0  0  0  0  0  0
  142.2480   79.9720  218.6570 C   0  0  0  0  0  0  0  0  0  0  0  0
  143.1490   80.6400  217.8410 O   0  0  0  0  0  0  0  0  0  0  0  0
  142.1400   78.5990  218.6060 C   0  0  0  0  0  0  0  0  0  0  0  0
  141.2460   77.9020  219.4110 C   0  0  0  0  0  0  0  0  0  0  0  0
  139.0520   71.3670  223.0160 C   0  0  0  0  0  0  0  0  0  0  0  0
  138.6760   70.0380  222.9510 C   0  0  0  0  0  0  0  0  0  0  0  0
  138.9910   69.2440  224.0420 C   0  0  0  0  0  0  0  0  0  0  0  0
  139.6450   69.7210  225.1500 C   0  0  0  0  0  0  0  0  0  0  0  0
  139.9500   68.9260  226.2200 C   0  0  0  0  0  0  0  0  0  0  0  0
  140.6060   69.4620  227.3000 C   0  0  0  0  0  0  0  0  0  0  0  0
  141.0210   68.4870  228.6980 Cl  0  0  0  0  0  0  0  0  0  0  0  0
  140.9700   70.7940  227.3340 C   0  0  0  0  0  0  0  0  0  0  0  0
  140.6540   71.5930  226.2380 C   0  0  0  0  0  0  0  0  0  0  0  0
  139.9930   71.0550  225.1500 C   0  0  0  0  0  0  0  0  0  0  0  0
  139.7040   71.8770  224.0990 N   0  0  0  0  0  0  0  0  0  0  0  0
  138.9120   74.0030  223.0510 H   0  0  0  0  0  0  0  0  0  0  0  0
  137.9978   73.9971  220.1628 H   0  0  0  0  0  0  0  0  0  0  0  0
  137.6722   75.2950  221.3951 H   0  0  0  0  0  0  0  0  0  0  0  0
  140.9265   75.7021  223.0246 H   0  0  0  0  0  0  0  0  0  0  0  0
  142.0652   76.3550  221.8337 H   0  0  0  0  0  0  0  0  0  0  0  0
  141.1121   77.7579  224.0284 H   0  0  0  0  0  0  0  0  0  0  0  0
  141.7292   78.5528  222.5953 H   0  0  0  0  0  0  0  0  0  0  0  0
  138.8132   77.7591  223.2434 H   0  0  0  0  0  0  0  0  0  0  0  0
  139.3430   79.3370  222.7749 H   0  0  0  0  0  0  0  0  0  0  0  0
  138.4762   77.9026  220.7107 H   0  0  0  0  0  0  0  0  0  0  0  0
  139.9128   80.5099  221.0347 H   0  0  0  0  0  0  0  0  0  0  0  0
  141.4907   81.7441  219.6167 H   0  0  0  0  0  0  0  0  0  0  0  0
  143.6650   80.1460  217.1100 H   0  0  0  0  0  0  0  0  0  0  0  0
  142.7795   78.0384  217.9083 H   0  0  0  0  0  0  0  0  0  0  0  0
  141.1895   76.8058  219.3390 H   0  0  0  0  0  0  0  0  0  0  0  0
  138.1514   69.6302  222.0743 H   0  0  0  0  0  0  0  0  0  0  0  0
  138.7036   68.1825  224.0188 H   0  0  0  0  0  0  0  0  0  0  0  0
  139.6709   67.8620  226.2152 H   0  0  0  0  0  0  0  0  0  0  0  0
  141.4960   71.2130  228.2045 H   0  0  0  0  0  0  0  0  0  0  0  0
  140.9318   72.6573  226.2383 H   0  0  0  0  0  0  0  0  0  0  0  0
  1  2  2  0
  2  3  1  0
  3  4  1  0
  4  5  1  0
  5  6  2  0
  5  7  1  0
  7  8  1  0
  8  9  1  0
  9 10  1  0
 10 11  1  0
 11 12  1  0
 12 13  2  0
 13 14  1  0
 14 15  2  0
 15 16  1  0
 15 17  1  0
 17 18  2  0
  2 19  1  0
 19 20  2  0
 20 21  1  0
 21 22  2  0
 22 23  1  0
 23 24  2  0
 24 25  1  0
 24 26  1  0
 26 27  2  0
 27 28  1  0
 28 29  2  0
 11  7  1  0
 18 12  1  0
 29 19  1  0
 28 22  1  0
  3 30  1  0
  4 31  1  0
  4 32  1  0
  8 33  1  0
  8 34  1  0
  9 35  1  0
  9 36  1  0
 10 37  1  0
 10 38  1  0
 11 39  1  6
 13 40  1  0
 14 41  1  0
 16 42  1  0
 17 43  1  0
 18 44  1  0
 20 45  1  0
 21 46  1  0
 23 47  1  0
 26 48  1  0
 27 49  1  0
M  END
>  <smiles>  (56) 
O=C(NCC(=O)N1CCCC1c1ccc(O)cc1)c1ccc2cc(Cl)ccc2n1

>  <score_type>  (56) 
oracle

>  <origin>  (56) 
autodockgpu

>  <m_score__min__energy>  (56) 
-8.5700000000000003

>  <m_primary>  (56) 
energy

>  <rmsd>  (56) 
2.815001851325245

>  <m_score__min__rmsd>  (56) 
2.815001851325245

>  <meeko>  (56) 
{"free_energy": -7.58, "intermolecular_energy": -9.37, "internal_energy": -1.45, "cluster_size": 12, "cluster_id": 2, "rank_in_cluster": 12}

>  <energy>  (56) 
-7.98

>  <cluster_rmsd>  (56) 
1.26

>  <cluster>  (56) 
1

$$$$

     RDKit          3D

 49 52  0  0  0  0  0  0  0  0999 V2000
  140.1460   72.4260  220.6260 O   0  0  0  0  0  0  0  0  0  0  0  0
  139.9440   72.8140  221.8170 C   0  0  0  0  0  0  0  0  0  0  0  0
  139.6980   74.1880  222.0910 N   0  0  0  0  0  0  0  0  0  0  0  0
  139.6690   75.1730  221.0580 C   0  0  0  0  0  0  0  0  0  0  0  0
  139.0650   76.4530  221.5090 C   0  0  0  0  0  0  0  0  0  0  0  0
  137.8210   76.5750  221.3610 O   0  0  0  0  0  0  0  0  0  0  0  0
  139.8950   77.4580  222.0710 N   0  0  0  0  0  0  0  0  0  0  0  0
  141.1130   77.2490  222.8250 C   0  0  0  0  0  0  0  0  0  0  0  0
  141.4670   78.5720  223.4180 C   0  0  0  0  0  0  0  0  0  0  0  0
  140.1590   79.3290  223.3700 C   0  0  0  0  0  0  0  0  0  0  0  0
  139.6620   78.8970  221.9880 C   0  0  1  0  0  0  0  0  0  0  0  0
  140.5520   79.4190  220.9250 C   0  0  0  0  0  0  0  0  0  0  0  0
  140.9100   80.7350  220.7890 C   0  0  0  0  0  0  0  0  0  0  0  0
  141.7440   81.2060  219.7900 C   0  0  0  0  0  0  0  0  0  0  0  0
  142.2630   80.3290  218.8600 C   0  0  0  0  0  0  0  0  0  0  0  0
  143.1020   80.7600  217.8420 O   0  0  0  0  0  0  0  0  0  0  0  0
  141.9200   78.9990  218.9710 C   0  0  0  0  0  0  0  0  0  0  0  0
  141.0820   78.5380  219.9790 C   0  0  0  0  0  0  0  0  0  0  0  0
  139.9590   71.8500  222.9380 C   0  0  0  0  0  0  0  0  0  0  0  0
  139.4510   70.5810  222.7270 C   0  0  0  0  0  0  0  0  0  0  0  0
  139.4830   69.7060  223.8000 C   0  0  0  0  0  0  0  0  0  0  0  0
  139.9880   70.0490  225.0300 C   0  0  0  0  0  0  0  0  0  0  0  0
  140.0130   69.1760  226.0820 C   0  0  0  0  0  0  0  0  0  0  0  0
  140.5320   69.5780  227.2870 C   0  0  0  0  0  0  0  0  0  0  0  0
  140.5880   68.4990  228.6680 Cl  0  0  0  0  0  0  0  0  0  0  0  0
  141.0330   70.8520  227.4670 C   0  0  0  0  0  0  0  0  0  0  0  0
  141.0020   71.7330  226.3880 C   0  0  0  0  0  0  0  0  0  0  0  0
  140.4800   71.3300  225.1740 C   0  0  0  0  0  0  0  0  0  0  0  0
  140.4690   72.2270  224.1450 N   0  0  0  0  0  0  0  0  0  0  0  0
  139.5370   74.4510  223.1040 H   0  0  0  0  0  0  0  0  0  0  0  0
  140.6998   75.3669  220.7265 H   0  0  0  0  0  0  0  0  0  0  0  0
  139.0478   74.7805  220.2394 H   0  0  0  0  0  0  0  0  0  0  0  0
  140.9470   76.5069  223.6198 H   0  0  0  0  0  0  0  0  0  0  0  0
  141.9213   76.8677  222.1837 H   0  0  0  0  0  0  0  0  0  0  0  0
  141.8203   78.4590  224.4536 H   0  0  0  0  0  0  0  0  0  0  0  0
  142.2820   79.0818  222.8834 H   0  0  0  0  0  0  0  0  0  0  0  0
  139.4729   79.0123  224.1694 H   0  0  0  0  0  0  0  0  0  0  0  0
  140.2435   80.4159  223.5165 H   0  0  0  0  0  0  0  0  0  0  0  0
  138.6382   79.2282  221.7596 H   0  0  0  0  0  0  0  0  0  0  0  0
  140.5116   81.4584  221.5156 H   0  0  0  0  0  0  0  0  0  0  0  0
  141.9923   82.2763  219.7376 H   0  0  0  0  0  0  0  0  0  0  0  0
  143.4760   80.1030  217.1550 H   0  0  0  0  0  0  0  0  0  0  0  0
  142.3213   78.2813  218.2403 H   0  0  0  0  0  0  0  0  0  0  0  0
  140.8332   77.4679  220.0327 H   0  0  0  0  0  0  0  0  0  0  0  0
  139.0404   70.2805  221.7517 H   0  0  0  0  0  0  0  0  0  0  0  0
  139.0857   68.6898  223.6606 H   0  0  0  0  0  0  0  0  0  0  0  0
  139.6188   68.1560  225.9629 H   0  0  0  0  0  0  0  0  0  0  0  0
  141.4462   71.1635  228.4377 H   0  0  0  0  0  0  0  0  0  0  0  0
  141.3949   72.7540  226.5033 H   0  0  0  0  0  0  0  0  0  0  0  0
  1  2  2  0
  2  3  1  0
  3  4  1  0
  4  5  1  0
  5  6  2  0
  5  7  1  0
  7  8  1  0
  8  9  1  0
  9 10  1  0
 10 11  1  0
 11 12  1  0
 12 13  2  0
 13 14  1  0
 14 15  2  0
 15 16  1  0
 15 17  1  0
 17 18  2  0
  2 19  1  0
 19 20  2  0
 20 21  1  0
 21 22  2  0
 22 23  1  0
 23 24  2  0
 24 25  1  0
 24 26  1  0
 26 27  2  0
 27 28  1  0
 28 29  2  0
 11  7  1  0
 18 12  1  0
 29 19  1  0
 28 22  1  0
  3 30  1  0
  4 31  1  0
  4 32  1  0
  8 33  1  0
  8 34  1  0
  9 35  1  0
  9 36  1  0
 10 37  1  0
 10 38  1  0
 11 39  1  6
 13 40  1  0
 14 41  1  0
 16 42  1  0
 17 43  1  0
 18 44  1  0
 20 45  1  0
 21 46  1  0
 23 47  1  0
 26 48  1  0
 27 49  1  0
M  END
>  <smiles>  (57) 
O=C(NCC(=O)N1CCCC1c1ccc(O)cc1)c1ccc2cc(Cl)ccc2n1

>  <score_type>  (57) 
oracle

>  <origin>  (57) 
autodockgpu

>  <m_score__min__energy>  (57) 
-8.5700000000000003

>  <m_primary>  (57) 
energy

>  <rmsd>  (57) 
3.4105504424531468

>  <m_score__min__rmsd>  (57) 
3.4105504424531468

>  <meeko>  (57) 
{"free_energy": -8.37, "intermolecular_energy": -10.16, "internal_energy": -1.28, "cluster_size": 12, "cluster_id": 2, "rank_in_cluster": 5}

>  <energy>  (57) 
-7.88

>  <cluster_rmsd>  (57) 
1.47

>  <cluster>  (57) 
1

$$$$

     RDKit          3D

 49 52  0  0  0  0  0  0  0  0999 V2000
  138.2490   71.2340  221.1560 O   0  0  0  0  0  0  0  0  0  0  0  0
  138.7130   71.7390  222.2230 C   0  0  0  0  0  0  0  0  0  0  0  0
  138.8960   73.1460  222.3290 N   0  0  0  0  0  0  0  0  0  0  0  0
  138.5720   74.0350  221.2590 C   0  0  0  0  0  0  0  0  0  0  0  0
  139.7650   74.4320  220.4670 C   0  0  0  0  0  0  0  0  0  0  0  0
  140.0190   75.6620  220.4050 O   0  0  0  0  0  0  0  0  0  0  0  0
  140.5460   73.4320  219.8300 N   0  0  0  0  0  0  0  0  0  0  0  0
  140.7050   73.2400  218.4040 C   0  0  0  0  0  0  0  0  0  0  0  0
  141.3910   71.9240  218.2360 C   0  0  0  0  0  0  0  0  0  0  0  0
  141.1260   71.2310  219.5540 C   0  0  0  0  0  0  0  0  0  0  0  0
  141.3350   72.4080  220.5100 C   0  0  1  0  0  0  0  0  0  0  0  0
  142.7450   72.8600  220.4850 C   0  0  0  0  0  0  0  0  0  0  0  0
  143.1390   74.1720  220.4540 C   0  0  0  0  0  0  0  0  0  0  0  0
  144.4630   74.5780  220.4330 C   0  0  0  0  0  0  0  0  0  0  0  0
  145.4690   73.6340  220.4420 C   0  0  0  0  0  0  0  0  0  0  0  0
  146.8080   73.9980  220.4200 O   0  0  0  0  0  0  0  0  0  0  0  0
  145.1030   72.3060  220.4720 C   0  0  0  0  0  0  0  0  0  0  0  0
  143.7700   71.9110  220.4940 C   0  0  0  0  0  0  0  0  0  0  0  0
  139.0710   70.8800  223.3720 C   0  0  0  0  0  0  0  0  0  0  0  0
  138.7350   69.5400  223.3250 C   0  0  0  0  0  0  0  0  0  0  0  0
  139.0870   68.7670  224.4200 C   0  0  0  0  0  0  0  0  0  0  0  0
  139.7380   69.2760  225.5160 C   0  0  0  0  0  0  0  0  0  0  0  0
  140.0800   68.5020  226.5910 C   0  0  0  0  0  0  0  0  0  0  0  0
  140.7310   69.0690  227.6570 C   0  0  0  0  0  0  0  0  0  0  0  0
  141.1910   68.1230  229.0600 Cl  0  0  0  0  0  0  0  0  0  0  0  0
  141.0530   70.4120  227.6740 C   0  0  0  0  0  0  0  0  0  0  0  0
  140.7000   71.1900  226.5740 C   0  0  0  0  0  0  0  0  0  0  0  0
  140.0440   70.6200  225.4990 C   0  0  0  0  0  0  0  0  0  0  0  0
  139.7180   71.4220  224.4430 N   0  0  0  0  0  0  0  0  0  0  0  0
  139.2880   73.5090  223.2440 H   0  0  0  0  0  0  0  0  0  0  0  0
  137.8551   73.5357  220.5905 H   0  0  0  0  0  0  0  0  0  0  0  0
  138.1456   74.9477  221.7007 H   0  0  0  0  0  0  0  0  0  0  0  0
  139.7227   73.2241  217.9093 H   0  0  0  0  0  0  0  0  0  0  0  0
  141.2868   74.0566  217.9515 H   0  0  0  0  0  0  0  0  0  0  0  0
  140.9594   71.3574  217.3977 H   0  0  0  0  0  0  0  0  0  0  0  0
  142.4621   72.0201  218.0046 H   0  0  0  0  0  0  0  0  0  0  0  0
  140.1013   70.8350  219.6098 H   0  0  0  0  0  0  0  0  0  0  0  0
  141.7551   70.3509  219.7531 H   0  0  0  0  0  0  0  0  0  0  0  0
  141.0750   72.1839  221.5551 H   0  0  0  0  0  0  0  0  0  0  0  0
  142.3589   74.9474  220.4453 H   0  0  0  0  0  0  0  0  0  0  0  0
  144.7115   75.6493  220.4092 H   0  0  0  0  0  0  0  0  0  0  0  0
  147.1500   74.7110  219.7720 H   0  0  0  0  0  0  0  0  0  0  0  0
  145.8883   71.5358  220.4787 H   0  0  0  0  0  0  0  0  0  0  0  0
  143.5200   70.8401  220.5188 H   0  0  0  0  0  0  0  0  0  0  0  0
  138.2126   69.1075  222.4589 H   0  0  0  0  0  0  0  0  0  0  0  0
  138.8331   67.6967  224.4104 H   0  0  0  0  0  0  0  0  0  0  0  0
  139.8341   67.4299  226.6005 H   0  0  0  0  0  0  0  0  0  0  0  0
  141.5750   70.8559  228.5345 H   0  0  0  0  0  0  0  0  0  0  0  0
  140.9442   72.2625  226.5606 H   0  0  0  0  0  0  0  0  0  0  0  0
  1  2  2  0
  2  3  1  0
  3  4  1  0
  4  5  1  0
  5  6  2  0
  5  7  1  0
  7  8  1  0
  8  9  1  0
  9 10  1  0
 10 11  1  0
 11 12  1  0
 12 13  2  0
 13 14  1  0
 14 15  2  0
 15 16  1  0
 15 17  1  0
 17 18  2  0
  2 19  1  0
 19 20  2  0
 20 21  1  0
 21 22  2  0
 22 23  1  0
 23 24  2  0
 24 25  1  0
 24 26  1  0
 26 27  2  0
 27 28  1  0
 28 29  2  0
 11  7  1  0
 18 12  1  0
 29 19  1  0
 28 22  1  0
  3 30  1  0
  4 31  1  0
  4 32  1  0
  8 33  1  0
  8 34  1  0
  9 35  1  0
  9 36  1  0
 10 37  1  0
 10 38  1  0
 11 39  1  1
 13 40  1  0
 14 41  1  0
 16 42  1  0
 17 43  1  0
 18 44  1  0
 20 45  1  0
 21 46  1  0
 23 47  1  0
 26 48  1  0
 27 49  1  0
M  END
>  <smiles>  (58) 
O=C(NCC(=O)N1CCCC1c1ccc(O)cc1)c1ccc2cc(Cl)ccc2n1

>  <score_type>  (58) 
oracle

>  <origin>  (58) 
autodockgpu

>  <m_score__min__energy>  (58) 
-8.5700000000000003

>  <m_primary>  (58) 
energy

>  <rmsd>  (58) 
2.7547675372644562

>  <m_score__min__rmsd>  (58) 
2.7547675372644562

>  <meeko>  (58) 
{"free_energy": -7.36, "intermolecular_energy": -9.15, "internal_energy": -1.94, "cluster_size": 15, "cluster_id": 1, "rank_in_cluster": 14}

>  <energy>  (58) 
-7.87

>  <cluster_rmsd>  (58) 
1.41

>  <cluster>  (58) 
1

$$$$

     RDKit          3D

 49 52  0  0  0  0  0  0  0  0999 V2000
  139.5030   74.3360  222.1870 O   0  0  0  0  0  0  0  0  0  0  0  0
  140.6870   74.5860  221.8060 C   0  0  0  0  0  0  0  0  0  0  0  0
  141.2170   75.8990  221.9310 N   0  0  0  0  0  0  0  0  0  0  0  0
  140.4550   76.9750  222.4810 C   0  0  0  0  0  0  0  0  0  0  0  0
  140.3090   78.1110  221.5350 C   0  0  0  0  0  0  0  0  0  0  0  0
  139.5110   77.9490  220.5750 O   0  0  0  0  0  0  0  0  0  0  0  0
  141.0560   79.2990  221.7470 N   0  0  0  0  0  0  0  0  0  0  0  0
  142.3480   79.4010  222.3950 C   0  0  0  0  0  0  0  0  0  0  0  0
  142.5890   80.8580  222.6120 C   0  0  0  0  0  0  0  0  0  0  0  0
  141.1990   81.4510  222.5250 C   0  0  0  0  0  0  0  0  0  0  0  0
  140.6480   80.6430  221.3490 C   0  0  1  0  0  0  0  0  0  0  0  0
  141.3810   80.9660  220.1020 C   0  0  0  0  0  0  0  0  0  0  0  0
  142.0110   80.0420  219.3110 C   0  0  0  0  0  0  0  0  0  0  0  0
  142.6900   80.3600  218.1480 C   0  0  0  0  0  0  0  0  0  0  0  0
  142.7580   81.6730  217.7310 C   0  0  0  0  0  0  0  0  0  0  0  0
  143.4290   82.0360  216.5720 O   0  0  0  0  0  0  0  0  0  0  0  0
  142.1340   82.6260  218.5070 C   0  0  0  0  0  0  0  0  0  0  0  0
  141.4540   82.2940  219.6740 C   0  0  0  0  0  0  0  0  0  0  0  0
  141.5350   73.5210  221.2270 C   0  0  0  0  0  0  0  0  0  0  0  0
  140.9660   72.2870  220.9740 C   0  0  0  0  0  0  0  0  0  0  0  0
  141.7920   71.3160  220.4320 C   0  0  0  0  0  0  0  0  0  0  0  0
  143.1170   71.5350  220.1470 C   0  0  0  0  0  0  0  0  0  0  0  0
  143.9220   70.5670  219.6120 C   0  0  0  0  0  0  0  0  0  0  0  0
  145.2390   70.8480  219.3490 C   0  0  0  0  0  0  0  0  0  0  0  0
  146.3140   69.6440  218.6630 Cl  0  0  0  0  0  0  0  0  0  0  0  0
  145.7780   72.0920  219.6120 C   0  0  0  0  0  0  0  0  0  0  0  0
  144.9480   73.0690  220.1580 C   0  0  0  0  0  0  0  0  0  0  0  0
  143.6220   72.7880  220.4230 C   0  0  0  0  0  0  0  0  0  0  0  0
  142.8470   73.7770  220.9580 N   0  0  0  0  0  0  0  0  0  0  0  0
  142.2110   76.0470  221.5960 H   0  0  0  0  0  0  0  0  0  0  0  0
  139.4535   76.6013  222.7406 H   0  0  0  0  0  0  0  0  0  0  0  0
  140.9911   77.3452  223.3673 H   0  0  0  0  0  0  0  0  0  0  0  0
  142.3353   78.8687  223.3576 H   0  0  0  0  0  0  0  0  0  0  0  0
  143.1417   78.9496  221.7816 H   0  0  0  0  0  0  0  0  0  0  0  0
  143.0358   81.0417  223.6002 H   0  0  0  0  0  0  0  0  0  0  0  0
  143.2917   81.2934  221.8863 H   0  0  0  0  0  0  0  0  0  0  0  0
  140.6222   81.2796  223.4458 H   0  0  0  0  0  0  0  0  0  0  0  0
  141.1649   82.5430  222.3974 H   0  0  0  0  0  0  0  0  0  0  0  0
  139.5769   80.8077  221.1600 H   0  0  0  0  0  0  0  0  0  0  0  0
  141.9751   78.9863  219.6180 H   0  0  0  0  0  0  0  0  0  0  0  0
  143.1741   79.5680  217.5578 H   0  0  0  0  0  0  0  0  0  0  0  0
  143.9270   81.3400  216.0120 H   0  0  0  0  0  0  0  0  0  0  0  0
  142.1750   83.6798  218.1943 H   0  0  0  0  0  0  0  0  0  0  0  0
  140.9691   83.0845  220.2656 H   0  0  0  0  0  0  0  0  0  0  0  0
  139.9070   72.0855  221.1928 H   0  0  0  0  0  0  0  0  0  0  0  0
  141.3668   70.3239  220.2202 H   0  0  0  0  0  0  0  0  0  0  0  0
  143.5155   69.5684  219.3937 H   0  0  0  0  0  0  0  0  0  0  0  0
  146.8351   72.3060  219.3960 H   0  0  0  0  0  0  0  0  0  0  0  0
  145.3507   74.0685  220.3790 H   0  0  0  0  0  0  0  0  0  0  0  0
  1  2  2  0
  2  3  1  0
  3  4  1  0
  4  5  1  0
  5  6  2  0
  5  7  1  0
  7  8  1  0
  8  9  1  0
  9 10  1  0
 10 11  1  0
 11 12  1  0
 12 13  2  0
 13 14  1  0
 14 15  2  0
 15 16  1  0
 15 17  1  0
 17 18  2  0
  2 19  1  0
 19 20  2  0
 20 21  1  0
 21 22  2  0
 22 23  1  0
 23 24  2  0
 24 25  1  0
 24 26  1  0
 26 27  2  0
 27 28  1  0
 28 29  2  0
 11  7  1  0
 18 12  1  0
 29 19  1  0
 28 22  1  0
  3 30  1  0
  4 31  1  0
  4 32  1  0
  8 33  1  0
  8 34  1  0
  9 35  1  0
  9 36  1  0
 10 37  1  0
 10 38  1  0
 11 39  1  6
 13 40  1  0
 14 41  1  0
 16 42  1  0
 17 43  1  0
 18 44  1  0
 20 45  1  0
 21 46  1  0
 23 47  1  0
 26 48  1  0
 27 49  1  0
M  END
>  <smiles>  (59) 
O=C(NCC(=O)N1CCCC1c1ccc(O)cc1)c1ccc2cc(Cl)ccc2n1

>  <score_type>  (59) 
oracle

>  <origin>  (59) 
autodockgpu

>  <m_score__min__energy>  (59) 
-8.5700000000000003

>  <m_primary>  (59) 
energy

>  <rmsd>  (59) 
6.32737985907545

>  <m_score__min__rmsd>  (59) 
6.32737985907545

>  <meeko>  (59) 
{"free_energy": -7.27, "intermolecular_energy": -9.06, "internal_energy": -1.45, "cluster_size": 4, "cluster_id": 6, "rank_in_cluster": 4}

>  <energy>  (59) 
-7.78

>  <cluster_rmsd>  (59) 
1.44

>  <cluster>  (59) 
1

$$$$

     RDKit          3D

 49 52  0  0  0  0  0  0  0  0999 V2000
  137.9130   75.5840  222.4360 O   0  0  0  0  0  0  0  0  0  0  0  0
  139.0780   76.0170  222.1810 C   0  0  0  0  0  0  0  0  0  0  0  0
  139.3740   77.4010  222.3210 N   0  0  0  0  0  0  0  0  0  0  0  0
  138.3920   78.3460  222.7450 C   0  0  0  0  0  0  0  0  0  0  0  0
  138.9970   79.5940  223.2810 C   0  0  0  0  0  0  0  0  0  0  0  0
  138.2190   80.3960  223.8590 O   0  0  0  0  0  0  0  0  0  0  0  0
  140.3880   79.8220  223.1190 N   0  0  0  0  0  0  0  0  0  0  0  0
  141.4630   79.0270  223.6770 C   0  0  0  0  0  0  0  0  0  0  0  0
  142.7160   79.8080  223.4530 C   0  0  0  0  0  0  0  0  0  0  0  0
  142.2060   81.2140  223.2300 C   0  0  0  0  0  0  0  0  0  0  0  0
  140.9880   80.9110  222.3540 C   0  0  1  0  0  0  0  0  0  0  0  0
  141.4080   80.3460  221.0510 C   0  0  0  0  0  0  0  0  0  0  0  0
  141.4290   79.0080  220.7560 C   0  0  0  0  0  0  0  0  0  0  0  0
  141.8230   78.4960  219.5320 C   0  0  0  0  0  0  0  0  0  0  0  0
  142.2240   79.3520  218.5280 C   0  0  0  0  0  0  0  0  0  0  0  0
  142.6260   78.8810  217.2860 O   0  0  0  0  0  0  0  0  0  0  0  0
  142.2130   80.7040  218.7950 C   0  0  0  0  0  0  0  0  0  0  0  0
  141.8150   81.2070  220.0290 C   0  0  0  0  0  0  0  0  0  0  0  0
  140.1460   75.0950  221.7370 C   0  0  0  0  0  0  0  0  0  0  0  0
  139.9710   73.7370  221.9300 C   0  0  0  0  0  0  0  0  0  0  0  0
  140.9920   72.9060  221.5000 C   0  0  0  0  0  0  0  0  0  0  0  0
  142.1380   73.3750  220.9080 C   0  0  0  0  0  0  0  0  0  0  0  0
  143.1390   72.5430  220.4880 C   0  0  0  0  0  0  0  0  0  0  0  0
  144.2620   73.0730  219.9010 C   0  0  0  0  0  0  0  0  0  0  0  0
  145.5750   72.0520  219.3460 Cl  0  0  0  0  0  0  0  0  0  0  0  0
  144.4070   74.4340  219.7220 C   0  0  0  0  0  0  0  0  0  0  0  0
  143.3800   75.2710  220.1540 C   0  0  0  0  0  0  0  0  0  0  0  0
  142.2500   74.7390  220.7450 C   0  0  0  0  0  0  0  0  0  0  0  0
  141.2700   75.5980  221.1520 N   0  0  0  0  0  0  0  0  0  0  0  0
  140.3630   77.7020  222.0930 H   0  0  0  0  0  0  0  0  0  0  0  0
  137.7557   78.6033  221.8854 H   0  0  0  0  0  0  0  0  0  0  0  0
  137.8095   77.8823  223.5548 H   0  0  0  0  0  0  0  0  0  0  0  0
  141.3003   78.8669  224.7531 H   0  0  0  0  0  0  0  0  0  0  0  0
  141.5174   78.0359  223.2028 H   0  0  0  0  0  0  0  0  0  0  0  0
  143.3737   79.7611  224.3335 H   0  0  0  0  0  0  0  0  0  0  0  0
  143.3194   79.4281  222.6154 H   0  0  0  0  0  0  0  0  0  0  0  0
  141.9203   81.7005  224.1743 H   0  0  0  0  0  0  0  0  0  0  0  0
  142.9352   81.9100  222.7897 H   0  0  0  0  0  0  0  0  0  0  0  0
  140.3570   81.7885  222.1496 H   0  0  0  0  0  0  0  0  0  0  0  0
  141.1146   78.3001  221.5370 H   0  0  0  0  0  0  0  0  0  0  0  0
  141.8163   77.4095  219.3606 H   0  0  0  0  0  0  0  0  0  0  0  0
  143.3350   79.3740  216.7400 H   0  0  0  0  0  0  0  0  0  0  0  0
  142.5283   81.4059  218.0089 H   0  0  0  0  0  0  0  0  0  0  0  0
  141.8208   82.2933  220.2020 H   0  0  0  0  0  0  0  0  0  0  0  0
  139.0628   73.3353  222.4032 H   0  0  0  0  0  0  0  0  0  0  0  0
  140.8794   71.8207  221.6393 H   0  0  0  0  0  0  0  0  0  0  0  0
  143.0452   71.4549  220.6197 H   0  0  0  0  0  0  0  0  0  0  0  0
  145.3106   74.8475  219.2502 H   0  0  0  0  0  0  0  0  0  0  0  0
  143.4693   76.3596  220.0240 H   0  0  0  0  0  0  0  0  0  0  0  0
  1  2  2  0
  2  3  1  0
  3  4  1  0
  4  5  1  0
  5  6  2  0
  5  7  1  0
  7  8  1  0
  8  9  1  0
  9 10  1  0
 10 11  1  0
 11 12  1  0
 12 13  2  0
 13 14  1  0
 14 15  2  0
 15 16  1  0
 15 17  1  0
 17 18  2  0
  2 19  1  0
 19 20  2  0
 20 21  1  0
 21 22  2  0
 22 23  1  0
 23 24  2  0
 24 25  1  0
 24 26  1  0
 26 27  2  0
 27 28  1  0
 28 29  2  0
 11  7  1  0
 18 12  1  0
 29 19  1  0
 28 22  1  0
  3 30  1  0
  4 31  1  0
  4 32  1  0
  8 33  1  0
  8 34  1  0
  9 35  1  0
  9 36  1  0
 10 37  1  0
 10 38  1  0
 11 39  1  6
 13 40  1  0
 14 41  1  0
 16 42  1  0
 17 43  1  0
 18 44  1  0
 20 45  1  0
 21 46  1  0
 23 47  1  0
 26 48  1  0
 27 49  1  0
M  END
>  <smiles>  (60) 
O=C(NCC(=O)N1CCCC1c1ccc(O)cc1)c1ccc2cc(Cl)ccc2n1

>  <score_type>  (60) 
oracle

>  <origin>  (60) 
autodockgpu

>  <m_score__min__energy>  (60) 
-8.5700000000000003

>  <m_primary>  (60) 
energy

>  <rmsd>  (60) 
6.636865090732641

>  <m_score__min__rmsd>  (60) 
6.636865090732641

>  <meeko>  (60) 
{"free_energy": -7.52, "intermolecular_energy": -9.31, "internal_energy": -1.77, "cluster_size": 4, "cluster_id": 6, "rank_in_cluster": 3}

>  <energy>  (60) 
-7.74

>  <cluster_rmsd>  (60) 
1.31

>  <cluster>  (60) 
1

$$$$

     RDKit          3D

 49 52  0  0  0  0  0  0  0  0999 V2000
  139.3220   71.6630  220.5550 O   0  0  0  0  0  0  0  0  0  0  0  0
  139.1680   72.1080  221.7330 C   0  0  0  0  0  0  0  0  0  0  0  0
  138.7600   73.4540  221.9420 N   0  0  0  0  0  0  0  0  0  0  0  0
  138.5100   74.3480  220.8560 C   0  0  0  0  0  0  0  0  0  0  0  0
  138.5430   75.7740  221.2730 C   0  0  0  0  0  0  0  0  0  0  0  0
  137.4450   76.2910  221.6040 O   0  0  0  0  0  0  0  0  0  0  0  0
  139.7780   76.4730  221.2780 N   0  0  0  0  0  0  0  0  0  0  0  0
  140.3880   77.1390  222.4100 C   0  0  0  0  0  0  0  0  0  0  0  0
  141.5220   77.9390  221.8590 C   0  0  0  0  0  0  0  0  0  0  0  0
  141.1700   78.0650  220.3940 C   0  0  0  0  0  0  0  0  0  0  0  0
  140.6610   76.6470  220.1280 C   0  0  1  0  0  0  0  0  0  0  0  0
  141.7570   75.6610  220.2700 C   0  0  0  0  0  0  0  0  0  0  0  0
  143.0570   75.8860  219.8990 C   0  0  0  0  0  0  0  0  0  0  0  0
  144.0700   74.9530  220.0400 C   0  0  0  0  0  0  0  0  0  0  0  0
  143.7920   73.7150  220.5810 C   0  0  0  0  0  0  0  0  0  0  0  0
  144.7770   72.7520  220.7400 O   0  0  0  0  0  0  0  0  0  0  0  0
  142.4920   73.4590  220.9640 C   0  0  0  0  0  0  0  0  0  0  0  0
  141.4830   74.4050  220.8170 C   0  0  0  0  0  0  0  0  0  0  0  0
  139.4080   71.2400  222.9060 C   0  0  0  0  0  0  0  0  0  0  0  0
  139.0260   69.9140  222.8370 C   0  0  0  0  0  0  0  0  0  0  0  0
  139.2680   69.1320  223.9550 C   0  0  0  0  0  0  0  0  0  0  0  0
  139.8570   69.6200  225.0940 C   0  0  0  0  0  0  0  0  0  0  0  0
  140.0900   68.8380  226.1920 C   0  0  0  0  0  0  0  0  0  0  0  0
  140.6840   69.3840  227.3020 C   0  0  0  0  0  0  0  0  0  0  0  0
  141.0050   68.4260  228.7360 Cl  0  0  0  0  0  0  0  0  0  0  0  0
  141.0550   70.7130  227.3410 C   0  0  0  0  0  0  0  0  0  0  0  0
  140.8130   71.5000  226.2170 C   0  0  0  0  0  0  0  0  0  0  0  0
  140.2150   70.9520  225.0980 C   0  0  0  0  0  0  0  0  0  0  0  0
  139.9970   71.7610  224.0210 N   0  0  0  0  0  0  0  0  0  0  0  0
  138.6480   73.7690  222.9470 H   0  0  0  0  0  0  0  0  0  0  0  0
  139.2772   74.1884  220.0841 H   0  0  0  0  0  0  0  0  0  0  0  0
  137.5008   74.1351  220.4736 H   0  0  0  0  0  0  0  0  0  0  0  0
  139.6590   77.7993  222.9025 H   0  0  0  0  0  0  0  0  0  0  0  0
  140.7352   76.4154  223.1623 H   0  0  0  0  0  0  0  0  0  0  0  0
  141.5781   78.9274  222.3384 H   0  0  0  0  0  0  0  0  0  0  0  0
  142.5039   77.4736  222.0301 H   0  0  0  0  0  0  0  0  0  0  0  0
  140.3877   78.8194  220.2243 H   0  0  0  0  0  0  0  0  0  0  0  0
  141.9935   78.3943  219.7434 H   0  0  0  0  0  0  0  0  0  0  0  0
  140.2190   76.5129  219.1297 H   0  0  0  0  0  0  0  0  0  0  0  0
  143.3101   76.8642  219.4642 H   0  0  0  0  0  0  0  0  0  0  0  0
  145.0939   75.1983  219.7214 H   0  0  0  0  0  0  0  0  0  0  0  0
  144.7140   72.0510  221.4800 H   0  0  0  0  0  0  0  0  0  0  0  0
  142.2461   72.4787  221.3981 H   0  0  0  0  0  0  0  0  0  0  0  0
  140.4584   74.1616  221.1348 H   0  0  0  0  0  0  0  0  0  0  0  0
  138.5515   69.4982  221.9359 H   0  0  0  0  0  0  0  0  0  0  0  0
  138.9747   68.0722  223.9281 H   0  0  0  0  0  0  0  0  0  0  0  0
  139.8025   67.7763  226.1851 H   0  0  0  0  0  0  0  0  0  0  0  0
  141.5297   71.1399  228.2368 H   0  0  0  0  0  0  0  0  0  0  0  0
  141.0992   72.5621  226.2203 H   0  0  0  0  0  0  0  0  0  0  0  0
  1  2  2  0
  2  3  1  0
  3  4  1  0
  4  5  1  0
  5  6  2  0
  5  7  1  0
  7  8  1  0
  8  9  1  0
  9 10  1  0
 10 11  1  0
 11 12  1  0
 12 13  2  0
 13 14  1  0
 14 15  2  0
 15 16  1  0
 15 17  1  0
 17 18  2  0
  2 19  1  0
 19 20  2  0
 20 21  1  0
 21 22  2  0
 22 23  1  0
 23 24  2  0
 24 25  1  0
 24 26  1  0
 26 27  2  0
 27 28  1  0
 28 29  2  0
 11  7  1  0
 18 12  1  0
 29 19  1  0
 28 22  1  0
  3 30  1  0
  4 31  1  0
  4 32  1  0
  8 33  1  0
  8 34  1  0
  9 35  1  0
  9 36  1  0
 10 37  1  0
 10 38  1  0
 11 39  1  6
 13 40  1  0
 14 41  1  0
 16 42  1  0
 17 43  1  0
 18 44  1  0
 20 45  1  0
 21 46  1  0
 23 47  1  0
 26 48  1  0
 27 49  1  0
M  END
>  <smiles>  (61) 
O=C(NCC(=O)N1CCCC1c1ccc(O)cc1)c1ccc2cc(Cl)ccc2n1

>  <score_type>  (61) 
oracle

>  <origin>  (61) 
autodockgpu

>  <m_score__min__energy>  (61) 
-8.5700000000000003

>  <m_primary>  (61) 
energy

>  <rmsd>  (61) 
2.3688659430801633

>  <m_score__min__rmsd>  (61) 
2.3688659430801633

>  <meeko>  (61) 
{"free_energy": -7.64, "intermolecular_energy": -9.43, "internal_energy": -1.49, "cluster_size": 15, "cluster_id": 1, "rank_in_cluster": 11}

>  <energy>  (61) 
-7.64

>  <cluster_rmsd>  (61) 
1.37

>  <cluster>  (61) 
1

$$$$

     RDKit          3D

 49 52  0  0  0  0  0  0  0  0999 V2000
  139.3260   70.8210  221.1150 O   0  0  0  0  0  0  0  0  0  0  0  0
  139.2240   71.5550  222.1450 C   0  0  0  0  0  0  0  0  0  0  0  0
  138.6180   72.8390  222.0520 N   0  0  0  0  0  0  0  0  0  0  0  0
  138.1080   73.3480  220.8200 C   0  0  0  0  0  0  0  0  0  0  0  0
  139.1720   73.9250  219.9580 C   0  0  0  0  0  0  0  0  0  0  0  0
  139.2010   73.5410  218.7600 O   0  0  0  0  0  0  0  0  0  0  0  0
  140.0880   74.8600  220.5080 N   0  0  0  0  0  0  0  0  0  0  0  0
  140.1190   75.3340  221.8770 C   0  0  0  0  0  0  0  0  0  0  0  0
  141.0720   76.4820  221.8970 C   0  0  0  0  0  0  0  0  0  0  0  0
  141.1370   76.8970  220.4440 C   0  0  0  0  0  0  0  0  0  0  0  0
  141.1710   75.5180  219.7830 C   0  0  1  0  0  0  0  0  0  0  0  0
  142.4210   74.8020  220.1280 C   0  0  0  0  0  0  0  0  0  0  0  0
  143.6690   75.3650  220.1040 C   0  0  0  0  0  0  0  0  0  0  0  0
  144.8280   74.6820  220.4320 C   0  0  0  0  0  0  0  0  0  0  0  0
  144.7600   73.3570  220.8080 C   0  0  0  0  0  0  0  0  0  0  0  0
  145.8960   72.6360  221.1430 O   0  0  0  0  0  0  0  0  0  0  0  0
  143.5160   72.7620  220.8410 C   0  0  0  0  0  0  0  0  0  0  0  0
  142.3600   73.4590  220.5100 C   0  0  0  0  0  0  0  0  0  0  0  0
  139.7300   71.0930  223.4550 C   0  0  0  0  0  0  0  0  0  0  0  0
  140.5680   71.9270  224.1720 C   0  0  0  0  0  0  0  0  0  0  0  0
  141.0200   71.4590  225.3960 C   0  0  0  0  0  0  0  0  0  0  0  0
  140.6730   70.2320  225.9020 C   0  0  0  0  0  0  0  0  0  0  0  0
  141.1260   69.7820  227.1110 C   0  0  0  0  0  0  0  0  0  0  0  0
  140.7430   68.5440  227.5630 C   0  0  0  0  0  0  0  0  0  0  0  0
  141.2960   67.9190  229.1060 Cl  0  0  0  0  0  0  0  0  0  0  0  0
  139.9040   67.7340  226.8240 C   0  0  0  0  0  0  0  0  0  0  0  0
  139.4480   68.2040  225.5940 C   0  0  0  0  0  0  0  0  0  0  0  0
  139.8330   69.4490  225.1370 C   0  0  0  0  0  0  0  0  0  0  0  0
  139.3620   69.8670  223.9250 N   0  0  0  0  0  0  0  0  0  0  0  0
  138.5620   73.4060  222.9450 H   0  0  0  0  0  0  0  0  0  0  0  0
  137.6189   72.5273  220.2749 H   0  0  0  0  0  0  0  0  0  0  0  0
  137.3988   74.1539  221.0597 H   0  0  0  0  0  0  0  0  0  0  0  0
  139.1173   75.6642  222.1893 H   0  0  0  0  0  0  0  0  0  0  0  0
  140.4330   74.5395  222.5699 H   0  0  0  0  0  0  0  0  0  0  0  0
  140.6912   77.3008  222.5252 H   0  0  0  0  0  0  0  0  0  0  0  0
  142.0546   76.2218  222.3174 H   0  0  0  0  0  0  0  0  0  0  0  0
  140.2500   77.4736  220.1428 H   0  0  0  0  0  0  0  0  0  0  0  0
  141.9768   77.5587  220.1854 H   0  0  0  0  0  0  0  0  0  0  0  0
  141.0956   75.5487  218.6860 H   0  0  0  0  0  0  0  0  0  0  0  0
  143.7558   76.4206  219.8071 H   0  0  0  0  0  0  0  0  0  0  0  0
  145.8003   75.1949  220.3928 H   0  0  0  0  0  0  0  0  0  0  0  0
  145.8700   71.9200  221.8730 H   0  0  0  0  0  0  0  0  0  0  0  0
  143.4366   71.7058  221.1378 H   0  0  0  0  0  0  0  0  0  0  0  0
  141.3866   72.9481  220.5491 H   0  0  0  0  0  0  0  0  0  0  0  0
  140.8621   72.9154  223.7891 H   0  0  0  0  0  0  0  0  0  0  0  0
  141.6878   72.1012  225.9890 H   0  0  0  0  0  0  0  0  0  0  0  0
  141.7945   70.4095  227.7187 H   0  0  0  0  0  0  0  0  0  0  0  0
  139.6034   66.7436  227.1964 H   0  0  0  0  0  0  0  0  0  0  0  0
  138.7780   67.5802  224.9840 H   0  0  0  0  0  0  0  0  0  0  0  0
  1  2  2  0
  2  3  1  0
  3  4  1  0
  4  5  1  0
  5  6  2  0
  5  7  1  0
  7  8  1  0
  8  9  1  0
  9 10  1  0
 10 11  1  0
 11 12  1  0
 12 13  2  0
 13 14  1  0
 14 15  2  0
 15 16  1  0
 15 17  1  0
 17 18  2  0
  2 19  1  0
 19 20  2  0
 20 21  1  0
 21 22  2  0
 22 23  1  0
 23 24  2  0
 24 25  1  0
 24 26  1  0
 26 27  2  0
 27 28  1  0
 28 29  2  0
 11  7  1  0
 18 12  1  0
 29 19  1  0
 28 22  1  0
  3 30  1  0
  4 31  1  0
  4 32  1  0
  8 33  1  0
  8 34  1  0
  9 35  1  0
  9 36  1  0
 10 37  1  0
 10 38  1  0
 11 39  1  6
 13 40  1  0
 14 41  1  0
 16 42  1  0
 17 43  1  0
 18 44  1  0
 20 45  1  0
 21 46  1  0
 23 47  1  0
 26 48  1  0
 27 49  1  0
M  END
>  <smiles>  (62) 
O=C(NCC(=O)N1CCCC1c1ccc(O)cc1)c1ccc2cc(Cl)ccc2n1

>  <score_type>  (62) 
oracle

>  <origin>  (62) 
autodockgpu

>  <m_score__min__energy>  (62) 
-8.5700000000000003

>  <m_primary>  (62) 
energy

>  <rmsd>  (62) 
3.023738171216177

>  <m_score__min__rmsd>  (62) 
3.023738171216177

>  <meeko>  (62) 
{"free_energy": -7.87, "intermolecular_energy": -9.66, "internal_energy": -1.51, "cluster_size": 15, "cluster_id": 1, "rank_in_cluster": 8}

>  <energy>  (62) 
-7.56

>  <cluster_rmsd>  (62) 
1.61

>  <cluster>  (62) 
1

$$$$

     RDKit          3D

 49 52  0  0  0  0  0  0  0  0999 V2000
  138.2940   71.6080  221.1460 O   0  0  0  0  0  0  0  0  0  0  0  0
  138.8910   72.0380  222.1800 C   0  0  0  0  0  0  0  0  0  0  0  0
  139.2850   73.4020  222.2640 N   0  0  0  0  0  0  0  0  0  0  0  0
  139.0320   74.3300  221.2090 C   0  0  0  0  0  0  0  0  0  0  0  0
  139.8330   75.5750  221.3400 C   0  0  0  0  0  0  0  0  0  0  0  0
  141.0720   75.4720  221.1510 O   0  0  0  0  0  0  0  0  0  0  0  0
  139.1820   76.7940  221.6670 N   0  0  0  0  0  0  0  0  0  0  0  0
  138.2250   77.0020  222.7330 C   0  0  0  0  0  0  0  0  0  0  0  0
  137.6390   78.3560  222.5060 C   0  0  0  0  0  0  0  0  0  0  0  0
  137.9400   78.6180  221.0470 C   0  0  0  0  0  0  0  0  0  0  0  0
  139.3650   78.0670  220.9760 C   0  0  1  0  0  0  0  0  0  0  0  0
  140.2840   78.8810  221.8040 C   0  0  0  0  0  0  0  0  0  0  0  0
  140.3490   80.2490  221.7750 C   0  0  0  0  0  0  0  0  0  0  0  0
  141.2140   80.9960  222.5570 C   0  0  0  0  0  0  0  0  0  0  0  0
  142.0740   80.3590  223.4280 C   0  0  0  0  0  0  0  0  0  0  0  0
  142.9560   81.0690  224.2290 O   0  0  0  0  0  0  0  0  0  0  0  0
  142.0310   78.9820  223.4800 C   0  0  0  0  0  0  0  0  0  0  0  0
  141.1580   78.2430  222.6890 C   0  0  0  0  0  0  0  0  0  0  0  0
  139.1860   71.1350  223.3130 C   0  0  0  0  0  0  0  0  0  0  0  0
  138.8020   69.8100  223.2200 C   0  0  0  0  0  0  0  0  0  0  0  0
  139.0970   68.9940  224.3000 C   0  0  0  0  0  0  0  0  0  0  0  0
  139.7380   69.4470  225.4260 C   0  0  0  0  0  0  0  0  0  0  0  0
  140.0230   68.6320  226.4860 C   0  0  0  0  0  0  0  0  0  0  0  0
  140.6670   69.1440  227.5840 C   0  0  0  0  0  0  0  0  0  0  0  0
  141.0550   68.1430  228.9700 Cl  0  0  0  0  0  0  0  0  0  0  0  0
  141.0380   70.4730  227.6480 C   0  0  0  0  0  0  0  0  0  0  0  0
  140.7430   71.2940  226.5610 C   0  0  0  0  0  0  0  0  0  0  0  0
  140.0940   70.7790  225.4550 C   0  0  0  0  0  0  0  0  0  0  0  0
  139.8250   71.6210  224.4150 N   0  0  0  0  0  0  0  0  0  0  0  0
  139.7790   73.7030  223.1510 H   0  0  0  0  0  0  0  0  0  0  0  0
  139.2801   73.8504  220.2506 H   0  0  0  0  0  0  0  0  0  0  0  0
  137.9694   74.6101  221.2588 H   0  0  0  0  0  0  0  0  0  0  0  0
  137.4381   76.2343  222.6946 H   0  0  0  0  0  0  0  0  0  0  0  0
  138.7031   76.9319  223.7212 H   0  0  0  0  0  0  0  0  0  0  0  0
  136.5548   78.3535  222.6916 H   0  0  0  0  0  0  0  0  0  0  0  0
  138.0502   79.1240  223.1777 H   0  0  0  0  0  0  0  0  0  0  0  0
  137.2554   78.0703  220.3827 H   0  0  0  0  0  0  0  0  0  0  0  0
  137.8280   79.6648  220.7281 H   0  0  0  0  0  0  0  0  0  0  0  0
  139.7773   78.0311  219.9568 H   0  0  0  0  0  0  0  0  0  0  0  0
  139.6750   80.7853  221.0908 H   0  0  0  0  0  0  0  0  0  0  0  0
  141.2155   82.0936  222.4841 H   0  0  0  0  0  0  0  0  0  0  0  0
  143.0240   82.0870  224.1640 H   0  0  0  0  0  0  0  0  0  0  0  0
  142.7071   78.4523  224.1673 H   0  0  0  0  0  0  0  0  0  0  0  0
  141.1552   77.1453  222.7604 H   0  0  0  0  0  0  0  0  0  0  0  0
  138.2860   69.4217  222.3295 H   0  0  0  0  0  0  0  0  0  0  0  0
  138.8042   67.9347  224.2530 H   0  0  0  0  0  0  0  0  0  0  0  0
  139.7372   67.5701  226.4587 H   0  0  0  0  0  0  0  0  0  0  0  0
  141.5529   70.8730  228.5339 H   0  0  0  0  0  0  0  0  0  0  0  0
  141.0279   72.3562  226.5836 H   0  0  0  0  0  0  0  0  0  0  0  0
  1  2  2  0
  2  3  1  0
  3  4  1  0
  4  5  1  0
  5  6  2  0
  5  7  1  0
  7  8  1  0
  8  9  1  0
  9 10  1  0
 10 11  1  0
 11 12  1  0
 12 13  2  0
 13 14  1  0
 14 15  2  0
 15 16  1  0
 15 17  1  0
 17 18  2  0
  2 19  1  0
 19 20  2  0
 20 21  1  0
 21 22  2  0
 22 23  1  0
 23 24  2  0
 24 25  1  0
 24 26  1  0
 26 27  2  0
 27 28  1  0
 28 29  2  0
 11  7  1  0
 18 12  1  0
 29 19  1  0
 28 22  1  0
  3 30  1  0
  4 31  1  0
  4 32  1  0
  8 33  1  0
  8 34  1  0
  9 35  1  0
  9 36  1  0
 10 37  1  0
 10 38  1  0
 11 39  1  6
 13 40  1  0
 14 41  1  0
 16 42  1  0
 17 43  1  0
 18 44  1  0
 20 45  1  0
 21 46  1  0
 23 47  1  0
 26 48  1  0
 27 49  1  0
M  END
>  <smiles>  (63) 
O=C(NCC(=O)N1CCCC1c1ccc(O)cc1)c1ccc2cc(Cl)ccc2n1

>  <score_type>  (63) 
oracle

>  <origin>  (63) 
autodockgpu

>  <m_score__min__energy>  (63) 
-8.5700000000000003

>  <m_primary>  (63) 
energy

>  <rmsd>  (63) 
2.6881484313538557

>  <m_score__min__rmsd>  (63) 
2.6881484313538557

>  <meeko>  (63) 
{"free_energy": -7.67, "intermolecular_energy": -9.46, "internal_energy": -1.46, "cluster_size": 10, "cluster_id": 3, "rank_in_cluster": 7}

>  <energy>  (63) 
-7.41

>  <cluster_rmsd>  (63) 
1.92

>  <cluster>  (63) 
1

$$$$

     RDKit          3D

 49 52  0  0  0  0  0  0  0  0999 V2000
  140.9650   73.7740  220.7790 O   0  0  0  0  0  0  0  0  0  0  0  0
  140.2160   73.7980  221.8030 C   0  0  0  0  0  0  0  0  0  0  0  0
  139.6400   75.0220  222.2400 N   0  0  0  0  0  0  0  0  0  0  0  0
  139.8740   76.2560  221.5590 C   0  0  0  0  0  0  0  0  0  0  0  0
  139.4000   77.4320  222.3340 C   0  0  0  0  0  0  0  0  0  0  0  0
  138.2070   77.4040  222.7310 O   0  0  0  0  0  0  0  0  0  0  0  0
  140.2900   78.5090  222.5840 N   0  0  0  0  0  0  0  0  0  0  0  0
  141.5910   78.4250  223.2160 C   0  0  0  0  0  0  0  0  0  0  0  0
  142.0110   79.8310  223.4890 C   0  0  0  0  0  0  0  0  0  0  0  0
  140.7050   80.5920  223.4460 C   0  0  0  0  0  0  0  0  0  0  0  0
  140.0480   79.9090  222.2460 C   0  0  1  0  0  0  0  0  0  0  0  0
  140.8030   80.1910  221.0030 C   0  0  0  0  0  0  0  0  0  0  0  0
  141.1080   81.4470  220.5490 C   0  0  0  0  0  0  0  0  0  0  0  0
  141.8160   81.6940  219.3850 C   0  0  0  0  0  0  0  0  0  0  0  0
  142.2560   80.6380  218.6140 C   0  0  0  0  0  0  0  0  0  0  0  0
  142.9690   80.8410  217.4410 O   0  0  0  0  0  0  0  0  0  0  0  0
  141.9650   79.3620  219.0460 C   0  0  0  0  0  0  0  0  0  0  0  0
  141.2530   79.1270  220.2170 C   0  0  0  0  0  0  0  0  0  0  0  0
  139.9280   72.5590  222.5580 C   0  0  0  0  0  0  0  0  0  0  0  0
  138.9340   71.7180  222.0930 C   0  0  0  0  0  0  0  0  0  0  0  0
  138.6940   70.5670  222.8260 C   0  0  0  0  0  0  0  0  0  0  0  0
  139.3910   70.2470  223.9650 C   0  0  0  0  0  0  0  0  0  0  0  0
  139.1440   69.1070  224.6790 C   0  0  0  0  0  0  0  0  0  0  0  0
  139.8760   68.8420  225.8100 C   0  0  0  0  0  0  0  0  0  0  0  0
  139.5990   67.3960  226.7630 Cl  0  0  0  0  0  0  0  0  0  0  0  0
  140.8630   69.7030  226.2480 C   0  0  0  0  0  0  0  0  0  0  0  0
  141.1050   70.8600  225.5120 C   0  0  0  0  0  0  0  0  0  0  0  0
  140.3690   71.1280  224.3730 C   0  0  0  0  0  0  0  0  0  0  0  0
  140.6420   72.2750  223.6840 N   0  0  0  0  0  0  0  0  0  0  0  0
  139.0230   74.9800  223.1010 H   0  0  0  0  0  0  0  0  0  0  0  0
  140.9545   76.3621  221.3823 H   0  0  0  0  0  0  0  0  0  0  0  0
  139.3107   76.2288  220.6146 H   0  0  0  0  0  0  0  0  0  0  0  0
  141.5227   77.8578  224.1560 H   0  0  0  0  0  0  0  0  0  0  0  0
  142.3172   77.9067  222.5726 H   0  0  0  0  0  0  0  0  0  0  0  0
  142.4859   79.9167  224.4775 H   0  0  0  0  0  0  0  0  0  0  0  0
  142.7553   80.2075  222.7719 H   0  0  0  0  0  0  0  0  0  0  0  0
  140.1198   80.4534  224.3671 H   0  0  0  0  0  0  0  0  0  0  0  0
  140.8045   81.6844  223.3638 H   0  0  0  0  0  0  0  0  0  0  0  0
  139.0041   80.2128  222.0786 H   0  0  0  0  0  0  0  0  0  0  0  0
  140.7710   82.3090  221.1435 H   0  0  0  0  0  0  0  0  0  0  0  0
  142.0268   82.7285  219.0761 H   0  0  0  0  0  0  0  0  0  0  0  0
  143.6330   80.1430  217.1000 H   0  0  0  0  0  0  0  0  0  0  0  0
  142.3059   78.5046  218.4471 H   0  0  0  0  0  0  0  0  0  0  0  0
  141.0419   78.0931  220.5277 H   0  0  0  0  0  0  0  0  0  0  0  0
  138.3606   71.9517  221.1838 H   0  0  0  0  0  0  0  0  0  0  0  0
  137.9094   69.8782  222.4798 H   0  0  0  0  0  0  0  0  0  0  0  0
  138.3631   68.4061  224.3490 H   0  0  0  0  0  0  0  0  0  0  0  0
  141.4434   69.4804  227.1555 H   0  0  0  0  0  0  0  0  0  0  0  0
  141.8850   71.5636  225.8383 H   0  0  0  0  0  0  0  0  0  0  0  0
  1  2  2  0
  2  3  1  0
  3  4  1  0
  4  5  1  0
  5  6  2  0
  5  7  1  0
  7  8  1  0
  8  9  1  0
  9 10  1  0
 10 11  1  0
 11 12  1  0
 12 13  2  0
 13 14  1  0
 14 15  2  0
 15 16  1  0
 15 17  1  0
 17 18  2  0
  2 19  1  0
 19 20  2  0
 20 21  1  0
 21 22  2  0
 22 23  1  0
 23 24  2  0
 24 25  1  0
 24 26  1  0
 26 27  2  0
 27 28  1  0
 28 29  2  0
 11  7  1  0
 18 12  1  0
 29 19  1  0
 28 22  1  0
  3 30  1  0
  4 31  1  0
  4 32  1  0
  8 33  1  0
  8 34  1  0
  9 35  1  0
  9 36  1  0
 10 37  1  0
 10 38  1  0
 11 39  1  6
 13 40  1  0
 14 41  1  0
 16 42  1  0
 17 43  1  0
 18 44  1  0
 20 45  1  0
 21 46  1  0
 23 47  1  0
 26 48  1  0
 27 49  1  0
M  END
>  <smiles>  (64) 
O=C(NCC(=O)N1CCCC1c1ccc(O)cc1)c1ccc2cc(Cl)ccc2n1

>  <score_type>  (64) 
oracle

>  <origin>  (64) 
autodockgpu

>  <m_score__min__energy>  (64) 
-8.5700000000000003

>  <m_primary>  (64) 
energy

>  <rmsd>  (64) 
4.1711809396797745

>  <m_score__min__rmsd>  (64) 
4.1711809396797745

>  <meeko>  (64) 
{"free_energy": -8.46, "intermolecular_energy": -10.25, "internal_energy": -1.24, "cluster_size": 12, "cluster_id": 2, "rank_in_cluster": 1}

>  <energy>  (64) 
-7.36

>  <cluster_rmsd>  (64) 
1.71

>  <cluster>  (64) 
1

$$$$

     RDKit          3D

 49 52  0  0  0  0  0  0  0  0999 V2000
  138.7300   71.6400  221.1520 O   0  0  0  0  0  0  0  0  0  0  0  0
  139.2210   72.0750  222.2380 C   0  0  0  0  0  0  0  0  0  0  0  0
  139.5460   73.4530  222.3750 N   0  0  0  0  0  0  0  0  0  0  0  0
  139.3390   74.3890  221.3170 C   0  0  0  0  0  0  0  0  0  0  0  0
  140.1820   75.6050  221.4590 C   0  0  0  0  0  0  0  0  0  0  0  0
  141.4240   75.4250  221.5400 O   0  0  0  0  0  0  0  0  0  0  0  0
  139.5650   76.8830  221.4990 N   0  0  0  0  0  0  0  0  0  0  0  0
  138.4060   77.2580  222.2820 C   0  0  0  0  0  0  0  0  0  0  0  0
  137.9890   78.6030  221.7880 C   0  0  0  0  0  0  0  0  0  0  0  0
  138.6350   78.6800  220.4220 C   0  0  0  0  0  0  0  0  0  0  0  0
  139.9950   78.0570  220.7450 C   0  0  1  0  0  0  0  0  0  0  0  0
  140.7570   78.9170  221.6810 C   0  0  0  0  0  0  0  0  0  0  0  0
  141.2210   78.5110  222.9040 C   0  0  0  0  0  0  0  0  0  0  0  0
  141.9330   79.3280  223.7660 C   0  0  0  0  0  0  0  0  0  0  0  0
  142.2090   80.6300  223.4060 C   0  0  0  0  0  0  0  0  0  0  0  0
  142.9190   81.4810  224.2400 O   0  0  0  0  0  0  0  0  0  0  0  0
  141.7550   81.0670  222.1800 C   0  0  0  0  0  0  0  0  0  0  0  0
  141.0410   80.2370  221.3230 C   0  0  0  0  0  0  0  0  0  0  0  0
  139.4620   71.1630  223.3770 C   0  0  0  0  0  0  0  0  0  0  0  0
  139.0840   69.8390  223.2560 C   0  0  0  0  0  0  0  0  0  0  0  0
  139.3280   69.0160  224.3430 C   0  0  0  0  0  0  0  0  0  0  0  0
  139.9130   69.4610  225.5020 C   0  0  0  0  0  0  0  0  0  0  0  0
  140.1480   68.6380  226.5680 C   0  0  0  0  0  0  0  0  0  0  0  0
  140.7380   69.1430  227.7000 C   0  0  0  0  0  0  0  0  0  0  0  0
  141.0610   68.1310  229.0960 Cl  0  0  0  0  0  0  0  0  0  0  0  0
  141.1050   70.4710  227.7910 C   0  0  0  0  0  0  0  0  0  0  0  0
  140.8610   71.3000  226.6970 C   0  0  0  0  0  0  0  0  0  0  0  0
  140.2670   70.7930  225.5580 C   0  0  0  0  0  0  0  0  0  0  0  0
  140.0480   71.6430  224.5120 N   0  0  0  0  0  0  0  0  0  0  0  0
  139.9520   73.7570  223.3050 H   0  0  0  0  0  0  0  0  0  0  0  0
  139.5822   73.9009  220.3617 H   0  0  0  0  0  0  0  0  0  0  0  0
  138.2864   74.7063  221.3529 H   0  0  0  0  0  0  0  0  0  0  0  0
  137.5949   76.5295  222.1359 H   0  0  0  0  0  0  0  0  0  0  0  0
  138.6377   77.2793  223.3571 H   0  0  0  0  0  0  0  0  0  0  0  0
  136.8939   78.6740  221.7119 H   0  0  0  0  0  0  0  0  0  0  0  0
  138.2906   79.4227  222.4566 H   0  0  0  0  0  0  0  0  0  0  0  0
  138.0826   78.0924  219.6740 H   0  0  0  0  0  0  0  0  0  0  0  0
  138.6761   79.6871  219.9816 H   0  0  0  0  0  0  0  0  0  0  0  0
  140.6263   77.8841  219.8609 H   0  0  0  0  0  0  0  0  0  0  0  0
  141.0164   77.4772  223.2194 H   0  0  0  0  0  0  0  0  0  0  0  0
  142.2776   78.9392  224.7356 H   0  0  0  0  0  0  0  0  0  0  0  0
  142.6090   81.6620  225.1970 H   0  0  0  0  0  0  0  0  0  0  0  0
  141.9636   82.1019  221.8709 H   0  0  0  0  0  0  0  0  0  0  0  0
  140.6961   80.6239  220.3528 H   0  0  0  0  0  0  0  0  0  0  0  0
  138.6114   69.4568  222.3392 H   0  0  0  0  0  0  0  0  0  0  0  0
  139.0396   67.9567  224.2741 H   0  0  0  0  0  0  0  0  0  0  0  0
  139.8656   67.5760  226.5189 H   0  0  0  0  0  0  0  0  0  0  0  0
  141.5776   70.8646  228.7030 H   0  0  0  0  0  0  0  0  0  0  0  0
  141.1428   72.3624  226.7412 H   0  0  0  0  0  0  0  0  0  0  0  0
  1  2  2  0
  2  3  1  0
  3  4  1  0
  4  5  1  0
  5  6  2  0
  5  7  1  0
  7  8  1  0
  8  9  1  0
  9 10  1  0
 10 11  1  0
 11 12  1  0
 12 13  2  0
 13 14  1  0
 14 15  2  0
 15 16  1  0
 15 17  1  0
 17 18  2  0
  2 19  1  0
 19 20  2  0
 20 21  1  0
 21 22  2  0
 22 23  1  0
 23 24  2  0
 24 25  1  0
 24 26  1  0
 26 27  2  0
 27 28  1  0
 28 29  2  0
 11  7  1  0
 18 12  1  0
 29 19  1  0
 28 22  1  0
  3 30  1  0
  4 31  1  0
  4 32  1  0
  8 33  1  0
  8 34  1  0
  9 35  1  0
  9 36  1  0
 10 37  1  0
 10 38  1  0
 11 39  1  6
 13 40  1  0
 14 41  1  0
 16 42  1  0
 17 43  1  0
 18 44  1  0
 20 45  1  0
 21 46  1  0
 23 47  1  0
 26 48  1  0
 27 49  1  0
M  END
>  <smiles>  (65) 
O=C(NCC(=O)N1CCCC1c1ccc(O)cc1)c1ccc2cc(Cl)ccc2n1

>  <score_type>  (65) 
oracle

>  <origin>  (65) 
autodockgpu

>  <m_score__min__energy>  (65) 
-8.5700000000000003

>  <m_primary>  (65) 
energy

>  <rmsd>  (65) 
2.4115112561140353

>  <m_score__min__rmsd>  (65) 
2.4115112561140353

>  <meeko>  (65) 
{"free_energy": -7.76, "intermolecular_energy": -9.55, "internal_energy": -1.47, "cluster_size": 10, "cluster_id": 3, "rank_in_cluster": 6}

>  <energy>  (65) 
-7.21

>  <cluster_rmsd>  (65) 
1.65

>  <cluster>  (65) 
1

$$$$

     RDKit          3D

 49 52  0  0  0  0  0  0  0  0999 V2000
  140.0310   72.4560  220.6620 O   0  0  0  0  0  0  0  0  0  0  0  0
  139.8460   72.8430  221.8560 C   0  0  0  0  0  0  0  0  0  0  0  0
  139.5930   74.2150  222.1340 N   0  0  0  0  0  0  0  0  0  0  0  0
  139.5380   75.1990  221.1000 C   0  0  0  0  0  0  0  0  0  0  0  0
  138.9820   76.4930  221.5750 C   0  0  0  0  0  0  0  0  0  0  0  0
  137.7360   76.6420  221.4800 O   0  0  0  0  0  0  0  0  0  0  0  0
  139.8570   77.4790  222.1010 N   0  0  0  0  0  0  0  0  0  0  0  0
  141.0800   77.2420  222.8390 C   0  0  0  0  0  0  0  0  0  0  0  0
  141.4920   78.5640  223.3960 C   0  0  0  0  0  0  0  0  0  0  0  0
  140.2110   79.3660  223.3520 C   0  0  0  0  0  0  0  0  0  0  0  0
  139.6750   78.9230  221.9890 C   0  0  1  0  0  0  0  0  0  0  0  0
  140.5650   79.3890  220.9000 C   0  0  0  0  0  0  0  0  0  0  0  0
  141.1320   78.5720  219.9580 C   0  0  0  0  0  0  0  0  0  0  0  0
  141.9600   79.0240  218.9450 C   0  0  0  0  0  0  0  0  0  0  0  0
  142.2540   80.3680  218.8480 C   0  0  0  0  0  0  0  0  0  0  0  0
  143.0790   80.8630  217.8490 O   0  0  0  0  0  0  0  0  0  0  0  0
  141.6970   81.2160  219.7820 C   0  0  0  0  0  0  0  0  0  0  0  0
  140.8660   80.7490  220.7950 C   0  0  0  0  0  0  0  0  0  0  0  0
  139.8880   71.8800  222.9780 C   0  0  0  0  0  0  0  0  0  0  0  0
  139.4140   70.5980  222.7670 C   0  0  0  0  0  0  0  0  0  0  0  0
  139.4710   69.7250  223.8410 C   0  0  0  0  0  0  0  0  0  0  0  0
  139.9680   70.0810  225.0690 C   0  0  0  0  0  0  0  0  0  0  0  0
  140.0180   69.2090  226.1220 C   0  0  0  0  0  0  0  0  0  0  0  0
  140.5280   69.6260  227.3260 C   0  0  0  0  0  0  0  0  0  0  0  0
  140.6140   68.5480  228.7070 Cl  0  0  0  0  0  0  0  0  0  0  0  0
  140.9940   70.9130  227.5050 C   0  0  0  0  0  0  0  0  0  0  0  0
  140.9380   71.7920  226.4260 C   0  0  0  0  0  0  0  0  0  0  0  0
  140.4250   71.3740  225.2130 C   0  0  0  0  0  0  0  0  0  0  0  0
  140.3900   72.2710  224.1840 N   0  0  0  0  0  0  0  0  0  0  0  0
  139.4470   74.4780  223.1490 H   0  0  0  0  0  0  0  0  0  0  0  0
  140.5565   75.3703  220.7215 H   0  0  0  0  0  0  0  0  0  0  0  0
  138.8723   74.8184  220.3114 H   0  0  0  0  0  0  0  0  0  0  0  0
  140.9013   76.5240  223.6530 H   0  0  0  0  0  0  0  0  0  0  0  0
  141.8625   76.8173  222.1930 H   0  0  0  0  0  0  0  0  0  0  0  0
  141.8588   78.4612  224.4279 H   0  0  0  0  0  0  0  0  0  0  0  0
  142.3158   79.0320  222.8371 H   0  0  0  0  0  0  0  0  0  0  0  0
  139.5279   79.0915  224.1694 H   0  0  0  0  0  0  0  0  0  0  0  0
  140.3370   80.4521  223.4725 H   0  0  0  0  0  0  0  0  0  0  0  0
  138.6602   79.2864  221.7697 H   0  0  0  0  0  0  0  0  0  0  0  0
  140.9169   77.4945  220.0095 H   0  0  0  0  0  0  0  0  0  0  0  0
  142.3823   78.3133  218.2194 H   0  0  0  0  0  0  0  0  0  0  0  0
  143.5460   80.2340  217.1930 H   0  0  0  0  0  0  0  0  0  0  0  0
  141.9161   82.2924  219.7243 H   0  0  0  0  0  0  0  0  0  0  0  0
  140.4414   81.4580  221.5210 H   0  0  0  0  0  0  0  0  0  0  0  0
  139.0107   70.2863  221.7922 H   0  0  0  0  0  0  0  0  0  0  0  0
  139.1005   68.6986  223.7027 H   0  0  0  0  0  0  0  0  0  0  0  0
  139.6512   68.1787  226.0042 H   0  0  0  0  0  0  0  0  0  0  0  0
  141.3993   71.2362  228.4752 H   0  0  0  0  0  0  0  0  0  0  0  0
  141.3037   72.8232  226.5400 H   0  0  0  0  0  0  0  0  0  0  0  0
  1  2  2  0
  2  3  1  0
  3  4  1  0
  4  5  1  0
  5  6  2  0
  5  7  1  0
  7  8  1  0
  8  9  1  0
  9 10  1  0
 10 11  1  0
 11 12  1  0
 12 13  2  0
 13 14  1  0
 14 15  2  0
 15 16  1  0
 15 17  1  0
 17 18  2  0
  2 19  1  0
 19 20  2  0
 20 21  1  0
 21 22  2  0
 22 23  1  0
 23 24  2  0
 24 25  1  0
 24 26  1  0
 26 27  2  0
 27 28  1  0
 28 29  2  0
 11  7  1  0
 18 12  1  0
 29 19  1  0
 28 22  1  0
  3 30  1  0
  4 31  1  0
  4 32  1  0
  8 33  1  0
  8 34  1  0
  9 35  1  0
  9 36  1  0
 10 37  1  0
 10 38  1  0
 11 39  1  6
 13 40  1  0
 14 41  1  0
 16 42  1  0
 17 43  1  0
 18 44  1  0
 20 45  1  0
 21 46  1  0
 23 47  1  0
 26 48  1  0
 27 49  1  0
M  END
>  <smiles>  (66) 
O=C(NCC(=O)N1CCCC1c1ccc(O)cc1)c1ccc2cc(Cl)ccc2n1

>  <score_type>  (66) 
oracle

>  <origin>  (66) 
autodockgpu

>  <m_score__min__energy>  (66) 
-8.5700000000000003

>  <m_primary>  (66) 
energy

>  <rmsd>  (66) 
3.4024667505812625

>  <m_score__min__rmsd>  (66) 
3.4024667505812625

>  <meeko>  (66) 
{"free_energy": -8.42, "intermolecular_energy": -10.21, "internal_energy": -1.33, "cluster_size": 12, "cluster_id": 2, "rank_in_cluster": 4}

>  <energy>  (66) 
-8.46

>  <cluster_rmsd>  (66) 
0.0

>  <cluster>  (66) 
2

$$$$

     RDKit          3D

 49 52  0  0  0  0  0  0  0  0999 V2000
  138.0310   75.3810  221.8230 O   0  0  0  0  0  0  0  0  0  0  0  0
  137.3890   75.9760  222.7400 C   0  0  0  0  0  0  0  0  0  0  0  0
  137.7000   77.3230  223.0740 N   0  0  0  0  0  0  0  0  0  0  0  0
  138.7290   78.0510  222.4030 C   0  0  0  0  0  0  0  0  0  0  0  0
  139.1260   79.2820  223.1360 C   0  0  0  0  0  0  0  0  0  0  0  0
  138.2720   79.7740  223.9180 O   0  0  0  0  0  0  0  0  0  0  0  0
  140.4160   79.8350  222.9270 N   0  0  0  0  0  0  0  0  0  0  0  0
  141.6500   79.4080  223.5530 C   0  0  0  0  0  0  0  0  0  0  0  0
  142.6660   80.4500  223.2220 C   0  0  0  0  0  0  0  0  0  0  0  0
  141.8190   81.6460  222.8500 C   0  0  0  0  0  0  0  0  0  0  0  0
  140.7300   80.9470  222.0340 C   0  0  1  0  0  0  0  0  0  0  0  0
  141.2960   80.3620  220.7960 C   0  0  0  0  0  0  0  0  0  0  0  0
  141.8280   81.0920  219.7660 C   0  0  0  0  0  0  0  0  0  0  0  0
  142.3540   80.5290  218.6160 C   0  0  0  0  0  0  0  0  0  0  0  0
  142.3590   79.1580  218.4640 C   0  0  0  0  0  0  0  0  0  0  0  0
  142.8770   78.5540  217.3270 O   0  0  0  0  0  0  0  0  0  0  0  0
  141.8300   78.3970  219.4840 C   0  0  0  0  0  0  0  0  0  0  0  0
  141.3050   78.9740  220.6350 C   0  0  0  0  0  0  0  0  0  0  0  0
  136.3090   75.2850  223.4780 C   0  0  0  0  0  0  0  0  0  0  0  0
  135.9400   74.0150  223.0730 C   0  0  0  0  0  0  0  0  0  0  0  0
  134.9250   73.4000  223.7890 C   0  0  0  0  0  0  0  0  0  0  0  0
  134.2950   73.9940  224.8530 C   0  0  0  0  0  0  0  0  0  0  0  0
  133.2940   73.3760  225.5510 C   0  0  0  0  0  0  0  0  0  0  0  0
  132.7020   74.0220  226.6070 C   0  0  0  0  0  0  0  0  0  0  0  0
  131.4150   73.2750  227.5350 Cl  0  0  0  0  0  0  0  0  0  0  0  0
  133.0940   75.2900  226.9870 C   0  0  0  0  0  0  0  0  0  0  0  0
  134.1140   75.9100  226.2690 C   0  0  0  0  0  0  0  0  0  0  0  0
  134.7110   75.2610  225.2050 C   0  0  0  0  0  0  0  0  0  0  0  0
  135.7060   75.9070  224.5310 N   0  0  0  0  0  0  0  0  0  0  0  0
  137.1300   77.7670  223.8480 H   0  0  0  0  0  0  0  0  0  0  0  0
  139.6110   77.4017  222.3003 H   0  0  0  0  0  0  0  0  0  0  0  0
  138.3363   78.3579  221.4224 H   0  0  0  0  0  0  0  0  0  0  0  0
  141.5195   79.3349  224.6428 H   0  0  0  0  0  0  0  0  0  0  0  0
  141.9604   78.4161  223.1926 H   0  0  0  0  0  0  0  0  0  0  0  0
  143.3026   80.6715  224.0913 H   0  0  0  0  0  0  0  0  0  0  0  0
  143.3568   80.1430  222.4229 H   0  0  0  0  0  0  0  0  0  0  0  0
  141.4068   82.1479  223.7378 H   0  0  0  0  0  0  0  0  0  0  0  0
  142.3534   82.4497  222.3223 H   0  0  0  0  0  0  0  0  0  0  0  0
  139.9002   81.6074  221.7419 H   0  0  0  0  0  0  0  0  0  0  0  0
  141.8377   82.1881  219.8581 H   0  0  0  0  0  0  0  0  0  0  0  0
  142.7668   81.1731  217.8256 H   0  0  0  0  0  0  0  0  0  0  0  0
  143.6010   79.0120  216.7700 H   0  0  0  0  0  0  0  0  0  0  0  0
  141.8229   77.3015  219.3847 H   0  0  0  0  0  0  0  0  0  0  0  0
  140.8926   78.3314  221.4268 H   0  0  0  0  0  0  0  0  0  0  0  0
  136.4289   73.5167  222.2229 H   0  0  0  0  0  0  0  0  0  0  0  0
  134.6102   72.3892  223.4903 H   0  0  0  0  0  0  0  0  0  0  0  0
  132.9650   72.3655  225.2670 H   0  0  0  0  0  0  0  0  0  0  0  0
  132.6128   75.7981  227.8357 H   0  0  0  0  0  0  0  0  0  0  0  0
  134.4457   76.9204  226.5501 H   0  0  0  0  0  0  0  0  0  0  0  0
  1  2  2  0
  2  3  1  0
  3  4  1  0
  4  5  1  0
  5  6  2  0
  5  7  1  0
  7  8  1  0
  8  9  1  0
  9 10  1  0
 10 11  1  0
 11 12  1  0
 12 13  2  0
 13 14  1  0
 14 15  2  0
 15 16  1  0
 15 17  1  0
 17 18  2  0
  2 19  1  0
 19 20  2  0
 20 21  1  0
 21 22  2  0
 22 23  1  0
 23 24  2  0
 24 25  1  0
 24 26  1  0
 26 27  2  0
 27 28  1  0
 28 29  2  0
 11  7  1  0
 18 12  1  0
 29 19  1  0
 28 22  1  0
  3 30  1  0
  4 31  1  0
  4 32  1  0
  8 33  1  0
  8 34  1  0
  9 35  1  0
  9 36  1  0
 10 37  1  0
 10 38  1  0
 11 39  1  6
 13 40  1  0
 14 41  1  0
 16 42  1  0
 17 43  1  0
 18 44  1  0
 20 45  1  0
 21 46  1  0
 23 47  1  0
 26 48  1  0
 27 49  1  0
M  END
>  <smiles>  (67) 
O=C(NCC(=O)N1CCCC1c1ccc(O)cc1)c1ccc2cc(Cl)ccc2n1

>  <score_type>  (67) 
oracle

>  <origin>  (67) 
autodockgpu

>  <m_score__min__energy>  (67) 
-8.5700000000000003

>  <m_primary>  (67) 
energy

>  <rmsd>  (67) 
6.704882575632254

>  <m_score__min__rmsd>  (67) 
6.704882575632254

>  <meeko>  (67) 
{"free_energy": -6.99, "intermolecular_energy": -8.78, "internal_energy": -1.74, "cluster_size": 2, "cluster_id": 8, "rank_in_cluster": 2}

>  <energy>  (67) 
-8.45

>  <cluster_rmsd>  (67) 
1.01

>  <cluster>  (67) 
2

$$$$

     RDKit          3D

 49 52  0  0  0  0  0  0  0  0999 V2000
  137.9990   71.2460  221.3390 O   0  0  0  0  0  0  0  0  0  0  0  0
  138.6830   71.7130  222.3000 C   0  0  0  0  0  0  0  0  0  0  0  0
  139.0780   73.0790  222.3010 N   0  0  0  0  0  0  0  0  0  0  0  0
  138.7280   73.9690  221.2410 C   0  0  0  0  0  0  0  0  0  0  0  0
  138.7550   75.3940  221.6620 C   0  0  0  0  0  0  0  0  0  0  0  0
  137.7270   75.8320  222.2400 O   0  0  0  0  0  0  0  0  0  0  0  0
  139.9080   76.1800  221.4000 N   0  0  0  0  0  0  0  0  0  0  0  0
  140.5710   77.0750  222.3250 C   0  0  0  0  0  0  0  0  0  0  0  0
  141.5520   77.8560  221.5160 C   0  0  0  0  0  0  0  0  0  0  0  0
  141.0290   77.7040  220.1050 C   0  0  0  0  0  0  0  0  0  0  0  0
  140.6360   76.2250  220.1350 C   0  0  1  0  0  0  0  0  0  0  0  0
  141.8330   75.3680  220.2930 C   0  0  0  0  0  0  0  0  0  0  0  0
  143.1050   75.7400  219.9460 C   0  0  0  0  0  0  0  0  0  0  0  0
  144.2140   74.9260  220.1020 C   0  0  0  0  0  0  0  0  0  0  0  0
  144.0680   73.6610  220.6320 C   0  0  0  0  0  0  0  0  0  0  0  0
  145.1520   72.8140  220.8050 O   0  0  0  0  0  0  0  0  0  0  0  0
  142.7990   73.2590  220.9900 C   0  0  0  0  0  0  0  0  0  0  0  0
  141.6930   74.0860  220.8300 C   0  0  0  0  0  0  0  0  0  0  0  0
  139.0820   70.8490  223.4330 C   0  0  0  0  0  0  0  0  0  0  0  0
  138.8120   69.4950  223.3590 C   0  0  0  0  0  0  0  0  0  0  0  0
  139.2000   68.7190  224.4390 C   0  0  0  0  0  0  0  0  0  0  0  0
  139.8250   69.2370  225.5450 C   0  0  0  0  0  0  0  0  0  0  0  0
  140.2030   68.4600  226.6050 C   0  0  0  0  0  0  0  0  0  0  0  0
  140.8250   69.0370  227.6840 C   0  0  0  0  0  0  0  0  0  0  0  0
  141.3300   68.0860  229.0680 Cl  0  0  0  0  0  0  0  0  0  0  0  0
  141.0810   70.3930  227.7280 C   0  0  0  0  0  0  0  0  0  0  0  0
  140.6910   71.1750  226.6420 C   0  0  0  0  0  0  0  0  0  0  0  0
  140.0650   70.5950  225.5550 C   0  0  0  0  0  0  0  0  0  0  0  0
  139.7010   71.4000  224.5150 N   0  0  0  0  0  0  0  0  0  0  0  0
  139.6480   73.4100  223.1300 H   0  0  0  0  0  0  0  0  0  0  0  0
  139.4413   73.8316  220.4150 H   0  0  0  0  0  0  0  0  0  0  0  0
  137.6996   73.7315  220.9310 H   0  0  0  0  0  0  0  0  0  0  0  0
  139.8395   77.7500  222.7934 H   0  0  0  0  0  0  0  0  0  0  0  0
  141.0692   76.5197  223.1333 H   0  0  0  0  0  0  0  0  0  0  0  0
  141.5636   78.9127  221.8214 H   0  0  0  0  0  0  0  0  0  0  0  0
  142.5877   77.5046  221.6341 H   0  0  0  0  0  0  0  0  0  0  0  0
  140.1621   78.3546  219.9170 H   0  0  0  0  0  0  0  0  0  0  0  0
  141.7384   77.9824  219.3118 H   0  0  0  0  0  0  0  0  0  0  0  0
  140.1010   75.8883  219.2348 H   0  0  0  0  0  0  0  0  0  0  0  0
  143.2537   76.7428  219.5190 H   0  0  0  0  0  0  0  0  0  0  0  0
  145.2093   75.2873  219.8040 H   0  0  0  0  0  0  0  0  0  0  0  0
  145.0300   71.8720  221.1820 H   0  0  0  0  0  0  0  0  0  0  0  0
  142.6573   72.2543  221.4148 H   0  0  0  0  0  0  0  0  0  0  0  0
  140.6972   73.7271  221.1294 H   0  0  0  0  0  0  0  0  0  0  0  0
  138.3125   69.0546  222.4835 H   0  0  0  0  0  0  0  0  0  0  0  0
  138.9977   67.6382  224.4084 H   0  0  0  0  0  0  0  0  0  0  0  0
  140.0094   67.3772  226.5930 H   0  0  0  0  0  0  0  0  0  0  0  0
  141.5800   70.8448  228.5980 H   0  0  0  0  0  0  0  0  0  0  0  0
  140.8823   72.2582  226.6502 H   0  0  0  0  0  0  0  0  0  0  0  0
  1  2  2  0
  2  3  1  0
  3  4  1  0
  4  5  1  0
  5  6  2  0
  5  7  1  0
  7  8  1  0
  8  9  1  0
  9 10  1  0
 10 11  1  0
 11 12  1  0
 12 13  2  0
 13 14  1  0
 14 15  2  0
 15 16  1  0
 15 17  1  0
 17 18  2  0
  2 19  1  0
 19 20  2  0
 20 21  1  0
 21 22  2  0
 22 23  1  0
 23 24  2  0
 24 25  1  0
 24 26  1  0
 26 27  2  0
 27 28  1  0
 28 29  2  0
 11  7  1  0
 18 12  1  0
 29 19  1  0
 28 22  1  0
  3 30  1  0
  4 31  1  0
  4 32  1  0
  8 33  1  0
  8 34  1  0
  9 35  1  0
  9 36  1  0
 10 37  1  0
 10 38  1  0
 11 39  1  6
 13 40  1  0
 14 41  1  0
 16 42  1  0
 17 43  1  0
 18 44  1  0
 20 45  1  0
 21 46  1  0
 23 47  1  0
 26 48  1  0
 27 49  1  0
M  END
>  <smiles>  (68) 
O=C(NCC(=O)N1CCCC1c1ccc(O)cc1)c1ccc2cc(Cl)ccc2n1

>  <score_type>  (68) 
oracle

>  <origin>  (68) 
autodockgpu

>  <m_score__min__energy>  (68) 
-8.5700000000000003

>  <m_primary>  (68) 
energy

>  <rmsd>  (68) 
2.240619382493236

>  <m_score__min__rmsd>  (68) 
2.240619382493236

>  <meeko>  (68) 
{"free_energy": -7.78, "intermolecular_energy": -9.57, "internal_energy": -1.43, "cluster_size": 15, "cluster_id": 1, "rank_in_cluster": 9}

>  <energy>  (68) 
-8.44

>  <cluster_rmsd>  (68) 
1.04

>  <cluster>  (68) 
2

$$$$

     RDKit          3D

 49 52  0  0  0  0  0  0  0  0999 V2000
  140.1470   72.4580  220.5980 O   0  0  0  0  0  0  0  0  0  0  0  0
  139.9530   72.8370  221.7930 C   0  0  0  0  0  0  0  0  0  0  0  0
  139.7030   74.2070  222.0790 N   0  0  0  0  0  0  0  0  0  0  0  0
  139.6590   75.1990  221.0520 C   0  0  0  0  0  0  0  0  0  0  0  0
  139.9070   76.5690  221.5720 C   0  0  0  0  0  0  0  0  0  0  0  0
  139.4740   76.8220  222.7260 O   0  0  0  0  0  0  0  0  0  0  0  0
  140.6010   77.5080  220.7660 N   0  0  0  0  0  0  0  0  0  0  0  0
  141.5870   78.4690  221.2170 C   0  0  0  0  0  0  0  0  0  0  0  0
  141.8220   79.3910  220.0670 C   0  0  0  0  0  0  0  0  0  0  0  0
  140.5900   79.1930  219.2120 C   0  0  0  0  0  0  0  0  0  0  0  0
  140.4400   77.6740  219.3250 C   0  0  1  0  0  0  0  0  0  0  0  0
  141.5820   76.9860  218.6800 C   0  0  0  0  0  0  0  0  0  0  0  0
  142.2950   75.9650  219.2510 C   0  0  0  0  0  0  0  0  0  0  0  0
  143.3600   75.3300  218.6330 C   0  0  0  0  0  0  0  0  0  0  0  0
  143.7520   75.7230  217.3700 C   0  0  0  0  0  0  0  0  0  0  0  0
  144.8130   75.1140  216.7160 O   0  0  0  0  0  0  0  0  0  0  0  0
  143.0530   76.7480  216.7700 C   0  0  0  0  0  0  0  0  0  0  0  0
  141.9860   77.3770  217.4010 C   0  0  0  0  0  0  0  0  0  0  0  0
  139.9830   71.8650  222.9080 C   0  0  0  0  0  0  0  0  0  0  0  0
  139.5210   70.5820  222.6800 C   0  0  0  0  0  0  0  0  0  0  0  0
  139.5660   69.7010  223.7480 C   0  0  0  0  0  0  0  0  0  0  0  0
  140.0400   70.0520  224.9880 C   0  0  0  0  0  0  0  0  0  0  0  0
  140.0780   69.1720  226.0340 C   0  0  0  0  0  0  0  0  0  0  0  0
  140.5650   69.5820  227.2500 C   0  0  0  0  0  0  0  0  0  0  0  0
  140.6350   68.4950  228.6240 Cl  0  0  0  0  0  0  0  0  0  0  0  0
  141.0200   70.8710  227.4460 C   0  0  0  0  0  0  0  0  0  0  0  0
  140.9760   71.7580  226.3730 C   0  0  0  0  0  0  0  0  0  0  0  0
  140.4860   71.3460  225.1480 C   0  0  0  0  0  0  0  0  0  0  0  0
  140.4620   72.2510  224.1260 N   0  0  0  0  0  0  0  0  0  0  0  0
  139.5490   74.4630  223.0950 H   0  0  0  0  0  0  0  0  0  0  0  0
  140.4267   74.9628  220.3004 H   0  0  0  0  0  0  0  0  0  0  0  0
  138.6487   75.1847  220.6171 H   0  0  0  0  0  0  0  0  0  0  0  0
  141.2059   79.0290  222.0837 H   0  0  0  0  0  0  0  0  0  0  0  0
  142.5172   77.9732  221.5313 H   0  0  0  0  0  0  0  0  0  0  0  0
  141.9033   80.4339  220.4071 H   0  0  0  0  0  0  0  0  0  0  0  0
  142.7592   79.1828  219.5301 H   0  0  0  0  0  0  0  0  0  0  0  0
  139.7174   79.7224  219.6222 H   0  0  0  0  0  0  0  0  0  0  0  0
  140.6680   79.5790  218.1849 H   0  0  0  0  0  0  0  0  0  0  0  0
  139.5160   77.2832  218.8740 H   0  0  0  0  0  0  0  0  0  0  0  0
  142.0053   75.6302  220.2580 H   0  0  0  0  0  0  0  0  0  0  0  0
  143.8910   74.5155  219.1474 H   0  0  0  0  0  0  0  0  0  0  0  0
  145.7780   75.2750  217.0120 H   0  0  0  0  0  0  0  0  0  0  0  0
  143.3479   77.0779  215.7629 H   0  0  0  0  0  0  0  0  0  0  0  0
  141.4539   78.1915  216.8877 H   0  0  0  0  0  0  0  0  0  0  0  0
  139.1357   70.2752  221.6964 H   0  0  0  0  0  0  0  0  0  0  0  0
  139.2054   68.6730  223.5958 H   0  0  0  0  0  0  0  0  0  0  0  0
  139.7200   68.1404  225.9015 H   0  0  0  0  0  0  0  0  0  0  0  0
  141.4075   71.1893  228.4250 H   0  0  0  0  0  0  0  0  0  0  0  0
  141.3327   72.7907  226.5010 H   0  0  0  0  0  0  0  0  0  0  0  0
  1  2  2  0
  2  3  1  0
  3  4  1  0
  4  5  1  0
  5  6  2  0
  5  7  1  0
  7  8  1  0
  8  9  1  0
  9 10  1  0
 10 11  1  0
 11 12  1  0
 12 13  2  0
 13 14  1  0
 14 15  2  0
 15 16  1  0
 15 17  1  0
 17 18  2  0
  2 19  1  0
 19 20  2  0
 20 21  1  0
 21 22  2  0
 22 23  1  0
 23 24  2  0
 24 25  1  0
 24 26  1  0
 26 27  2  0
 27 28  1  0
 28 29  2  0
 11  7  1  0
 18 12  1  0
 29 19  1  0
 28 22  1  0
  3 30  1  0
  4 31  1  0
  4 32  1  0
  8 33  1  0
  8 34  1  0
  9 35  1  0
  9 36  1  0
 10 37  1  0
 10 38  1  0
 11 39  1  6
 13 40  1  0
 14 41  1  0
 16 42  1  0
 17 43  1  0
 18 44  1  0
 20 45  1  0
 21 46  1  0
 23 47  1  0
 26 48  1  0
 27 49  1  0
M  END
>  <smiles>  (69) 
O=C(NCC(=O)N1CCCC1c1ccc(O)cc1)c1ccc2cc(Cl)ccc2n1

>  <score_type>  (69) 
oracle

>  <origin>  (69) 
autodockgpu

>  <m_score__min__energy>  (69) 
-8.5700000000000003

>  <m_primary>  (69) 
energy

>  <rmsd>  (69) 
2.647549538134399

>  <m_score__min__rmsd>  (69) 
2.647549538134399

>  <meeko>  (69) 
{"free_energy": -7.41, "intermolecular_energy": -9.2, "internal_energy": -1.73, "cluster_size": 15, "cluster_id": 1, "rank_in_cluster": 13}

>  <energy>  (69) 
-8.42

>  <cluster_rmsd>  (69) 
1.05

>  <cluster>  (69) 
2

$$$$

     RDKit          3D

 49 52  0  0  0  0  0  0  0  0999 V2000
  140.0230   72.4650  220.6280 O   0  0  0  0  0  0  0  0  0  0  0  0
  139.8660   72.8490  221.8270 C   0  0  0  0  0  0  0  0  0  0  0  0
  139.6320   74.2210  222.1150 N   0  0  0  0  0  0  0  0  0  0  0  0
  139.5650   75.2110  221.0880 C   0  0  0  0  0  0  0  0  0  0  0  0
  138.9870   76.4930  221.5680 C   0  0  0  0  0  0  0  0  0  0  0  0
  137.7370   76.6130  221.4910 O   0  0  0  0  0  0  0  0  0  0  0  0
  139.8470   77.5000  222.0790 N   0  0  0  0  0  0  0  0  0  0  0  0
  141.0740   77.2920  222.8210 C   0  0  0  0  0  0  0  0  0  0  0  0
  141.4650   78.6280  223.3580 C   0  0  0  0  0  0  0  0  0  0  0  0
  140.1720   79.4110  223.3020 C   0  0  0  0  0  0  0  0  0  0  0  0
  139.6440   78.9390  221.9460 C   0  0  1  0  0  0  0  0  0  0  0  0
  140.5270   79.4020  220.8500 C   0  0  0  0  0  0  0  0  0  0  0  0
  140.9930   78.6030  219.8390 C   0  0  0  0  0  0  0  0  0  0  0  0
  141.8160   79.0530  218.8210 C   0  0  0  0  0  0  0  0  0  0  0  0
  142.2110   80.3740  218.7910 C   0  0  0  0  0  0  0  0  0  0  0  0
  143.0360   80.8640  217.7890 O   0  0  0  0  0  0  0  0  0  0  0  0
  141.7580   81.2020  219.7960 C   0  0  0  0  0  0  0  0  0  0  0  0
  140.9310   80.7390  220.8130 C   0  0  0  0  0  0  0  0  0  0  0  0
  139.9220   71.8800  222.9430 C   0  0  0  0  0  0  0  0  0  0  0  0
  139.4560   70.5960  222.7280 C   0  0  0  0  0  0  0  0  0  0  0  0
  139.5250   69.7170  223.7970 C   0  0  0  0  0  0  0  0  0  0  0  0
  140.0260   70.0710  225.0250 C   0  0  0  0  0  0  0  0  0  0  0  0
  140.0890   69.1940  226.0720 C   0  0  0  0  0  0  0  0  0  0  0  0
  140.6020   69.6080  227.2760 C   0  0  0  0  0  0  0  0  0  0  0  0
  140.7050   68.5240  228.6500 Cl  0  0  0  0  0  0  0  0  0  0  0  0
  141.0600   70.8970  227.4590 C   0  0  0  0  0  0  0  0  0  0  0  0
  140.9910   71.7820  226.3850 C   0  0  0  0  0  0  0  0  0  0  0  0
  140.4750   71.3670  225.1720 C   0  0  0  0  0  0  0  0  0  0  0  0
  140.4270   72.2680  224.1480 N   0  0  0  0  0  0  0  0  0  0  0  0
  139.5090   74.4810  223.1350 H   0  0  0  0  0  0  0  0  0  0  0  0
  140.5821   75.4009  220.7146 H   0  0  0  0  0  0  0  0  0  0  0  0
  138.9076   74.8250  220.2950 H   0  0  0  0  0  0  0  0  0  0  0  0
  140.9060   76.5835  223.6455 H   0  0  0  0  0  0  0  0  0  0  0  0
  141.8632   76.8694  222.1818 H   0  0  0  0  0  0  0  0  0  0  0  0
  141.8328   78.5461  224.3914 H   0  0  0  0  0  0  0  0  0  0  0  0
  142.2815   79.0999  222.7918 H   0  0  0  0  0  0  0  0  0  0  0  0
  139.4926   79.1391  224.1233 H   0  0  0  0  0  0  0  0  0  0  0  0
  140.2816   80.5005  223.4063 H   0  0  0  0  0  0  0  0  0  0  0  0
  138.6238   79.2838  221.7214 H   0  0  0  0  0  0  0  0  0  0  0  0
  140.6962   77.5438  219.8362 H   0  0  0  0  0  0  0  0  0  0  0  0
  142.1541   78.3586  218.0378 H   0  0  0  0  0  0  0  0  0  0  0  0
  143.6090   80.2350  217.2230 H   0  0  0  0  0  0  0  0  0  0  0  0
  142.0597   82.2598  219.7930 H   0  0  0  0  0  0  0  0  0  0  0  0
  140.5912   81.4323  221.5965 H   0  0  0  0  0  0  0  0  0  0  0  0
  139.0495   70.2868  221.7538 H   0  0  0  0  0  0  0  0  0  0  0  0
  139.1617   68.6885  223.6551 H   0  0  0  0  0  0  0  0  0  0  0  0
  139.7302   68.1613  225.9501 H   0  0  0  0  0  0  0  0  0  0  0  0
  141.4692   71.2177  228.4284 H   0  0  0  0  0  0  0  0  0  0  0  0
  141.3488   72.8155  226.5031 H   0  0  0  0  0  0  0  0  0  0  0  0
  1  2  2  0
  2  3  1  0
  3  4  1  0
  4  5  1  0
  5  6  2  0
  5  7  1  0
  7  8  1  0
  8  9  1  0
  9 10  1  0
 10 11  1  0
 11 12  1  0
 12 13  2  0
 13 14  1  0
 14 15  2  0
 15 16  1  0
 15 17  1  0
 17 18  2  0
  2 19  1  0
 19 20  2  0
 20 21  1  0
 21 22  2  0
 22 23  1  0
 23 24  2  0
 24 25  1  0
 24 26  1  0
 26 27  2  0
 27 28  1  0
 28 29  2  0
 11  7  1  0
 18 12  1  0
 29 19  1  0
 28 22  1  0
  3 30  1  0
  4 31  1  0
  4 32  1  0
  8 33  1  0
  8 34  1  0
  9 35  1  0
  9 36  1  0
 10 37  1  0
 10 38  1  0
 11 39  1  6
 13 40  1  0
 14 41  1  0
 16 42  1  0
 17 43  1  0
 18 44  1  0
 20 45  1  0
 21 46  1  0
 23 47  1  0
 26 48  1  0
 27 49  1  0
M  END
>  <smiles>  (70) 
O=C(NCC(=O)N1CCCC1c1ccc(O)cc1)c1ccc2cc(Cl)ccc2n1

>  <score_type>  (70) 
oracle

>  <origin>  (70) 
autodockgpu

>  <m_score__min__energy>  (70) 
-8.5700000000000003

>  <m_primary>  (70) 
energy

>  <rmsd>  (70) 
3.4047845972487663

>  <m_score__min__rmsd>  (70) 
3.4047845972487663

>  <meeko>  (70) 
{"free_energy": -8.44, "intermolecular_energy": -10.23, "internal_energy": -1.35, "cluster_size": 12, "cluster_id": 2, "rank_in_cluster": 3}

>  <energy>  (70) 
-8.37

>  <cluster_rmsd>  (70) 
1.05

>  <cluster>  (70) 
2

$$$$

     RDKit          3D

 49 52  0  0  0  0  0  0  0  0999 V2000
  139.9040   72.6220  220.6970 O   0  0  0  0  0  0  0  0  0  0  0  0
  139.7890   72.9510  221.9170 C   0  0  0  0  0  0  0  0  0  0  0  0
  139.5860   74.3110  222.2760 N   0  0  0  0  0  0  0  0  0  0  0  0
  139.5030   75.3490  221.2990 C   0  0  0  0  0  0  0  0  0  0  0  0
  138.9610   76.6150  221.8560 C   0  0  0  0  0  0  0  0  0  0  0  0
  137.7080   76.7240  221.8960 O   0  0  0  0  0  0  0  0  0  0  0  0
  139.8550   77.6210  222.3070 N   0  0  0  0  0  0  0  0  0  0  0  0
  141.1050   77.4130  223.0090 C   0  0  0  0  0  0  0  0  0  0  0  0
  141.5370   78.7570  223.4940 C   0  0  0  0  0  0  0  0  0  0  0  0
  140.2550   79.5590  223.4630 C   0  0  0  0  0  0  0  0  0  0  0  0
  139.6700   79.0590  222.1410 C   0  0  1  0  0  0  0  0  0  0  0  0
  140.5190   79.4770  221.0010 C   0  0  0  0  0  0  0  0  0  0  0  0
  140.9850   80.7500  220.8060 C   0  0  0  0  0  0  0  0  0  0  0  0
  141.7790   81.1240  219.7350 C   0  0  0  0  0  0  0  0  0  0  0  0
  142.1410   80.1860  218.7900 C   0  0  0  0  0  0  0  0  0  0  0  0
  142.9350   80.5180  217.7020 O   0  0  0  0  0  0  0  0  0  0  0  0
  141.6870   78.8960  218.9600 C   0  0  0  0  0  0  0  0  0  0  0  0
  140.8900   78.5330  220.0400 C   0  0  0  0  0  0  0  0  0  0  0  0
  139.8640   71.9290  222.9840 C   0  0  0  0  0  0  0  0  0  0  0  0
  139.4120   70.6520  222.7100 C   0  0  0  0  0  0  0  0  0  0  0  0
  139.4990   69.7230  223.7340 C   0  0  0  0  0  0  0  0  0  0  0  0
  140.0030   70.0230  224.9750 C   0  0  0  0  0  0  0  0  0  0  0  0
  140.0830   69.0970  225.9780 C   0  0  0  0  0  0  0  0  0  0  0  0
  140.5980   69.4580  227.1970 C   0  0  0  0  0  0  0  0  0  0  0  0
  140.7220   68.3100  228.5170 Cl  0  0  0  0  0  0  0  0  0  0  0  0
  141.0410   70.7430  227.4410 C   0  0  0  0  0  0  0  0  0  0  0  0
  140.9550   71.6780  226.4110 C   0  0  0  0  0  0  0  0  0  0  0  0
  140.4370   71.3150  225.1830 C   0  0  0  0  0  0  0  0  0  0  0  0
  140.3720   72.2650  224.2040 N   0  0  0  0  0  0  0  0  0  0  0  0
  139.4980   74.5240  223.3100 H   0  0  0  0  0  0  0  0  0  0  0  0
  140.5109   75.5414  220.9027 H   0  0  0  0  0  0  0  0  0  0  0  0
  138.8151   75.0103  220.5103 H   0  0  0  0  0  0  0  0  0  0  0  0
  140.9565   76.7303  223.8586 H   0  0  0  0  0  0  0  0  0  0  0  0
  141.8632   76.9600  222.3533 H   0  0  0  0  0  0  0  0  0  0  0  0
  141.9413   78.6975  224.5153 H   0  0  0  0  0  0  0  0  0  0  0  0
  142.3397   79.1996  222.8858 H   0  0  0  0  0  0  0  0  0  0  0  0
  139.6023   79.3208  224.3158 H   0  0  0  0  0  0  0  0  0  0  0  0
  140.3852   80.6490  223.5325 H   0  0  0  0  0  0  0  0  0  0  0  0
  138.6478   79.4145  221.9440 H   0  0  0  0  0  0  0  0  0  0  0  0
  140.7127   81.5200  221.5429 H   0  0  0  0  0  0  0  0  0  0  0  0
  142.1200   82.1653  219.6379 H   0  0  0  0  0  0  0  0  0  0  0  0
  143.5920   79.8440  217.3040 H   0  0  0  0  0  0  0  0  0  0  0  0
  141.9633   78.1309  218.2195 H   0  0  0  0  0  0  0  0  0  0  0  0
  140.5481   77.4922  220.1388 H   0  0  0  0  0  0  0  0  0  0  0  0
  139.0022   70.3856  221.7246 H   0  0  0  0  0  0  0  0  0  0  0  0
  139.1481   68.6980  223.5438 H   0  0  0  0  0  0  0  0  0  0  0  0
  139.7359   68.0671  225.8080 H   0  0  0  0  0  0  0  0  0  0  0  0
  141.4512   71.0215  228.4229 H   0  0  0  0  0  0  0  0  0  0  0  0
  141.3010   72.7090  226.5766 H   0  0  0  0  0  0  0  0  0  0  0  0
  1  2  2  0
  2  3  1  0
  3  4  1  0
  4  5  1  0
  5  6  2  0
  5  7  1  0
  7  8  1  0
  8  9  1  0
  9 10  1  0
 10 11  1  0
 11 12  1  0
 12 13  2  0
 13 14  1  0
 14 15  2  0
 15 16  1  0
 15 17  1  0
 17 18  2  0
  2 19  1  0
 19 20  2  0
 20 21  1  0
 21 22  2  0
 22 23  1  0
 23 24  2  0
 24 25  1  0
 24 26  1  0
 26 27  2  0
 27 28  1  0
 28 29  2  0
 11  7  1  0
 18 12  1  0
 29 19  1  0
 28 22  1  0
  3 30  1  0
  4 31  1  0
  4 32  1  0
  8 33  1  0
  8 34  1  0
  9 35  1  0
  9 36  1  0
 10 37  1  0
 10 38  1  0
 11 39  1  6
 13 40  1  0
 14 41  1  0
 16 42  1  0
 17 43  1  0
 18 44  1  0
 20 45  1  0
 21 46  1  0
 23 47  1  0
 26 48  1  0
 27 49  1  0
M  END
>  <smiles>  (71) 
O=C(NCC(=O)N1CCCC1c1ccc(O)cc1)c1ccc2cc(Cl)ccc2n1

>  <score_type>  (71) 
oracle

>  <origin>  (71) 
autodockgpu

>  <m_score__min__energy>  (71) 
-8.5700000000000003

>  <m_primary>  (71) 
energy

>  <rmsd>  (71) 
3.513609939382463

>  <m_score__min__rmsd>  (71) 
3.513609939382463

>  <meeko>  (71) 
{"free_energy": -8.34, "intermolecular_energy": -10.13, "internal_energy": -1.33, "cluster_size": 12, "cluster_id": 2, "rank_in_cluster": 6}

>  <energy>  (71) 
-8.34

>  <cluster_rmsd>  (71) 
0.98

>  <cluster>  (71) 
2

$$$$

     RDKit          3D

 49 52  0  0  0  0  0  0  0  0999 V2000
  140.1030   72.3840  220.8030 O   0  0  0  0  0  0  0  0  0  0  0  0
  139.8970   72.7290  222.0070 C   0  0  0  0  0  0  0  0  0  0  0  0
  139.6020   74.0840  222.3220 N   0  0  0  0  0  0  0  0  0  0  0  0
  139.5260   75.0970  221.3180 C   0  0  0  0  0  0  0  0  0  0  0  0
  140.7440   75.9460  221.2720 C   0  0  0  0  0  0  0  0  0  0  0  0
  141.7920   75.4080  220.8310 O   0  0  0  0  0  0  0  0  0  0  0  0
  140.6760   77.2920  221.7180 N   0  0  0  0  0  0  0  0  0  0  0  0
  141.4060   77.8720  222.8260 C   0  0  0  0  0  0  0  0  0  0  0  0
  140.8040   79.2180  223.0600 C   0  0  0  0  0  0  0  0  0  0  0  0
  139.4500   79.1060  222.3960 C   0  0  0  0  0  0  0  0  0  0  0  0
  139.8450   78.3400  221.1320 C   0  0  1  0  0  0  0  0  0  0  0  0
  140.7280   79.1640  220.2740 C   0  0  0  0  0  0  0  0  0  0  0  0
  140.7110   80.5330  220.2310 C   0  0  0  0  0  0  0  0  0  0  0  0
  141.5450   81.2880  219.4240 C   0  0  0  0  0  0  0  0  0  0  0  0
  142.4580   80.6600  218.6030 C   0  0  0  0  0  0  0  0  0  0  0  0
  143.3110   81.3790  217.7790 O   0  0  0  0  0  0  0  0  0  0  0  0
  142.4980   79.2820  218.6250 C   0  0  0  0  0  0  0  0  0  0  0  0
  141.6560   78.5350  219.4400 C   0  0  0  0  0  0  0  0  0  0  0  0
  139.9580   71.7350  223.1000 C   0  0  0  0  0  0  0  0  0  0  0  0
  139.5030   70.4530  222.8540 C   0  0  0  0  0  0  0  0  0  0  0  0
  139.5770   69.5500  223.9010 C   0  0  0  0  0  0  0  0  0  0  0  0
  140.0740   69.8780  225.1380 C   0  0  0  0  0  0  0  0  0  0  0  0
  140.1420   68.9770  226.1640 C   0  0  0  0  0  0  0  0  0  0  0  0
  140.6500   69.3660  227.3780 C   0  0  0  0  0  0  0  0  0  0  0  0
  140.7580   68.2510  228.7270 Cl  0  0  0  0  0  0  0  0  0  0  0  0
  141.0970   70.6540  227.5930 C   0  0  0  0  0  0  0  0  0  0  0  0
  141.0230   71.5640  226.5400 C   0  0  0  0  0  0  0  0  0  0  0  0
  140.5120   71.1730  225.3170 C   0  0  0  0  0  0  0  0  0  0  0  0
  140.4590   72.0990  224.3150 N   0  0  0  0  0  0  0  0  0  0  0  0
  139.4400   74.3120  223.3430 H   0  0  0  0  0  0  0  0  0  0  0  0
  139.3960   74.6136  220.3385 H   0  0  0  0  0  0  0  0  0  0  0  0
  138.6743   75.7481  221.5644 H   0  0  0  0  0  0  0  0  0  0  0  0
  141.2992   77.2449  223.7234 H   0  0  0  0  0  0  0  0  0  0  0  0
  142.4808   77.9459  222.6040 H   0  0  0  0  0  0  0  0  0  0  0  0
  140.7009   79.4232  224.1358 H   0  0  0  0  0  0  0  0  0  0  0  0
  141.4152   80.0411  222.6614 H   0  0  0  0  0  0  0  0  0  0  0  0
  138.7372   78.5387  223.0126 H   0  0  0  0  0  0  0  0  0  0  0  0
  138.9366   80.0628  222.2199 H   0  0  0  0  0  0  0  0  0  0  0  0
  138.9889   78.0198  220.5200 H   0  0  0  0  0  0  0  0  0  0  0  0
  139.9935   81.0630  220.8746 H   0  0  0  0  0  0  0  0  0  0  0  0
  141.4796   82.3860  219.4376 H   0  0  0  0  0  0  0  0  0  0  0  0
  143.9010   80.9060  217.0910 H   0  0  0  0  0  0  0  0  0  0  0  0
  143.2176   78.7585  217.9784 H   0  0  0  0  0  0  0  0  0  0  0  0
  141.7208   77.4370  219.4284 H   0  0  0  0  0  0  0  0  0  0  0  0
  139.1008   70.1637  221.8719 H   0  0  0  0  0  0  0  0  0  0  0  0
  139.2212   68.5226  223.7340 H   0  0  0  0  0  0  0  0  0  0  0  0
  139.7911   67.9449  226.0171 H   0  0  0  0  0  0  0  0  0  0  0  0
  141.5015   70.9547  228.5708 H   0  0  0  0  0  0  0  0  0  0  0  0
  141.3726   72.5971  226.6829 H   0  0  0  0  0  0  0  0  0  0  0  0
  1  2  2  0
  2  3  1  0
  3  4  1  0
  4  5  1  0
  5  6  2  0
  5  7  1  0
  7  8  1  0
  8  9  1  0
  9 10  1  0
 10 11  1  0
 11 12  1  0
 12 13  2  0
 13 14  1  0
 14 15  2  0
 15 16  1  0
 15 17  1  0
 17 18  2  0
  2 19  1  0
 19 20  2  0
 20 21  1  0
 21 22  2  0
 22 23  1  0
 23 24  2  0
 24 25  1  0
 24 26  1  0
 26 27  2  0
 27 28  1  0
 28 29  2  0
 11  7  1  0
 18 12  1  0
 29 19  1  0
 28 22  1  0
  3 30  1  0
  4 31  1  0
  4 32  1  0
  8 33  1  0
  8 34  1  0
  9 35  1  0
  9 36  1  0
 10 37  1  0
 10 38  1  0
 11 39  1  6
 13 40  1  0
 14 41  1  0
 16 42  1  0
 17 43  1  0
 18 44  1  0
 20 45  1  0
 21 46  1  0
 23 47  1  0
 26 48  1  0
 27 49  1  0
M  END
>  <smiles>  (72) 
O=C(NCC(=O)N1CCCC1c1ccc(O)cc1)c1ccc2cc(Cl)ccc2n1

>  <score_type>  (72) 
oracle

>  <origin>  (72) 
autodockgpu

>  <m_score__min__energy>  (72) 
-8.5700000000000003

>  <m_primary>  (72) 
energy

>  <rmsd>  (72) 
3.213105815786726

>  <m_score__min__rmsd>  (72) 
3.213105815786726

>  <meeko>  (72) 
{"free_energy": -8.22, "intermolecular_energy": -10.01, "internal_energy": -1.28, "cluster_size": 12, "cluster_id": 2, "rank_in_cluster": 7}

>  <energy>  (72) 
-8.22

>  <cluster_rmsd>  (72) 
1.13

>  <cluster>  (72) 
2

$$$$

     RDKit          3D

 49 52  0  0  0  0  0  0  0  0999 V2000
  137.6080   71.0480  220.8480 O   0  0  0  0  0  0  0  0  0  0  0  0
  138.0150   71.6360  221.8960 C   0  0  0  0  0  0  0  0  0  0  0  0
  138.0270   73.0570  221.9610 N   0  0  0  0  0  0  0  0  0  0  0  0
  137.5910   73.8690  220.8710 C   0  0  0  0  0  0  0  0  0  0  0  0
  137.8960   75.3090  221.0750 C   0  0  0  0  0  0  0  0  0  0  0  0
  136.9210   76.0620  221.3300 O   0  0  0  0  0  0  0  0  0  0  0  0
  139.2370   75.7600  220.9750 N   0  0  0  0  0  0  0  0  0  0  0  0
  139.8970   76.2480  219.7800 C   0  0  0  0  0  0  0  0  0  0  0  0
  141.3470   76.3460  220.1180 C   0  0  0  0  0  0  0  0  0  0  0  0
  141.4800   75.4360  221.3190 C   0  0  0  0  0  0  0  0  0  0  0  0
  140.2010   75.8120  222.0700 C   0  0  1  0  0  0  0  0  0  0  0  0
  140.2580   77.2190  222.5310 C   0  0  0  0  0  0  0  0  0  0  0  0
  141.4010   77.8570  222.9360 C   0  0  0  0  0  0  0  0  0  0  0  0
  141.4370   79.1730  223.3630 C   0  0  0  0  0  0  0  0  0  0  0  0
  140.2750   79.9150  223.3960 C   0  0  0  0  0  0  0  0  0  0  0  0
  140.2670   81.2370  223.8170 O   0  0  0  0  0  0  0  0  0  0  0  0
  139.1090   79.3000  222.9940 C   0  0  0  0  0  0  0  0  0  0  0  0
  139.0850   77.9770  222.5660 C   0  0  0  0  0  0  0  0  0  0  0  0
  138.4820   70.8600  223.0650 C   0  0  0  0  0  0  0  0  0  0  0  0
  138.1620   69.5170  223.1380 C   0  0  0  0  0  0  0  0  0  0  0  0
  138.6170   68.8230  224.2480 C   0  0  0  0  0  0  0  0  0  0  0  0
  139.3530   69.4100  225.2460 C   0  0  0  0  0  0  0  0  0  0  0  0
  139.7970   68.7140  226.3360 C   0  0  0  0  0  0  0  0  0  0  0  0
  140.5300   69.3580  227.3020 C   0  0  0  0  0  0  0  0  0  0  0  0
  141.1220   68.5130  228.7190 Cl  0  0  0  0  0  0  0  0  0  0  0  0
  140.8340   70.7010  227.2000 C   0  0  0  0  0  0  0  0  0  0  0  0
  140.3770   71.3990  226.0850 C   0  0  0  0  0  0  0  0  0  0  0  0
  139.6390   70.7530  225.1120 C   0  0  0  0  0  0  0  0  0  0  0  0
  139.2120   71.4780  224.0370 N   0  0  0  0  0  0  0  0  0  0  0  0
  138.3780   73.4910  222.8620 H   0  0  0  0  0  0  0  0  0  0  0  0
  138.0945   73.5284  219.9542 H   0  0  0  0  0  0  0  0  0  0  0  0
  136.4984   73.7668  220.7949 H   0  0  0  0  0  0  0  0  0  0  0  0
  139.7460   75.5458  218.9468 H   0  0  0  0  0  0  0  0  0  0  0  0
  139.4912   77.2210  219.4660 H   0  0  0  0  0  0  0  0  0  0  0  0
  141.9718   75.9936  219.2841 H   0  0  0  0  0  0  0  0  0  0  0  0
  141.6765   77.3765  220.3169 H   0  0  0  0  0  0  0  0  0  0  0  0
  141.4881   74.3747  221.0298 H   0  0  0  0  0  0  0  0  0  0  0  0
  142.4103   75.5553  221.8937 H   0  0  0  0  0  0  0  0  0  0  0  0
  139.9989   75.1810  222.9480 H   0  0  0  0  0  0  0  0  0  0  0  0
  142.3440   77.2908  222.9209 H   0  0  0  0  0  0  0  0  0  0  0  0
  142.3897   79.6258  223.6752 H   0  0  0  0  0  0  0  0  0  0  0  0
  139.9340   81.9840  223.2030 H   0  0  0  0  0  0  0  0  0  0  0  0
  138.1698   79.8723  223.0122 H   0  0  0  0  0  0  0  0  0  0  0  0
  138.1335   77.5231  222.2520 H   0  0  0  0  0  0  0  0  0  0  0  0
  137.5735   69.0221  222.3514 H   0  0  0  0  0  0  0  0  0  0  0  0
  138.3771   67.7528  224.3327 H   0  0  0  0  0  0  0  0  0  0  0  0
  139.5680   67.6430  226.4385 H   0  0  0  0  0  0  0  0  0  0  0  0
  141.4223   71.2068  227.9798 H   0  0  0  0  0  0  0  0  0  0  0  0
  140.6047   72.4699  225.9785 H   0  0  0  0  0  0  0  0  0  0  0  0
  1  2  2  0
  2  3  1  0
  3  4  1  0
  4  5  1  0
  5  6  2  0
  5  7  1  0
  7  8  1  0
  8  9  1  0
  9 10  1  0
 10 11  1  0
 11 12  1  0
 12 13  2  0
 13 14  1  0
 14 15  2  0
 15 16  1  0
 15 17  1  0
 17 18  2  0
  2 19  1  0
 19 20  2  0
 20 21  1  0
 21 22  2  0
 22 23  1  0
 23 24  2  0
 24 25  1  0
 24 26  1  0
 26 27  2  0
 27 28  1  0
 28 29  2  0
 11  7  1  0
 18 12  1  0
 29 19  1  0
 28 22  1  0
  3 30  1  0
  4 31  1  0
  4 32  1  0
  8 33  1  0
  8 34  1  0
  9 35  1  0
  9 36  1  0
 10 37  1  0
 10 38  1  0
 11 39  1  1
 13 40  1  0
 14 41  1  0
 16 42  1  0
 17 43  1  0
 18 44  1  0
 20 45  1  0
 21 46  1  0
 23 47  1  0
 26 48  1  0
 27 49  1  0
M  END
>  <smiles>  (73) 
O=C(NCC(=O)N1CCCC1c1ccc(O)cc1)c1ccc2cc(Cl)ccc2n1

>  <score_type>  (73) 
oracle

>  <origin>  (73) 
autodockgpu

>  <m_score__min__energy>  (73) 
-8.5700000000000003

>  <m_primary>  (73) 
energy

>  <rmsd>  (73) 
1.9369723673001065

>  <m_score__min__rmsd>  (73) 
1.9369723673001065

>  <meeko>  (73) 
{"free_energy": -7.07, "intermolecular_energy": -8.86, "internal_energy": -1.54, "cluster_size": 10, "cluster_id": 3, "rank_in_cluster": 10}

>  <energy>  (73) 
-8.19

>  <cluster_rmsd>  (73) 
1.13

>  <cluster>  (73) 
2

$$$$

     RDKit          3D

 49 52  0  0  0  0  0  0  0  0999 V2000
  139.6550   71.9080  220.6420 O   0  0  0  0  0  0  0  0  0  0  0  0
  139.6980   72.3500  221.8310 C   0  0  0  0  0  0  0  0  0  0  0  0
  139.6190   73.7480  222.0780 N   0  0  0  0  0  0  0  0  0  0  0  0
  139.4920   74.6980  221.0200 C   0  0  0  0  0  0  0  0  0  0  0  0
  140.3360   75.9030  221.2310 C   0  0  0  0  0  0  0  0  0  0  0  0
  140.1470   76.5450  222.2970 O   0  0  0  0  0  0  0  0  0  0  0  0
  141.2920   76.2680  220.2490 N   0  0  0  0  0  0  0  0  0  0  0  0
  142.1830   77.4100  220.2940 C   0  0  0  0  0  0  0  0  0  0  0  0
  142.7940   77.5140  218.9360 C   0  0  0  0  0  0  0  0  0  0  0  0
  141.8340   76.7290  218.0690 C   0  0  0  0  0  0  0  0  0  0  0  0
  141.5480   75.5510  219.0030 C   0  0  1  0  0  0  0  0  0  0  0  0
  142.7700   74.7400  219.2140 C   0  0  0  0  0  0  0  0  0  0  0  0
  143.6770   74.4340  218.2330 C   0  0  0  0  0  0  0  0  0  0  0  0
  144.8150   73.6760  218.4480 C   0  0  0  0  0  0  0  0  0  0  0  0
  145.0840   73.1830  219.7080 C   0  0  0  0  0  0  0  0  0  0  0  0
  146.2130   72.4190  219.9650 O   0  0  0  0  0  0  0  0  0  0  0  0
  144.1890   73.4750  220.7150 C   0  0  0  0  0  0  0  0  0  0  0  0
  143.0490   74.2380  220.4870 C   0  0  0  0  0  0  0  0  0  0  0  0
  139.8280   71.4240  222.9770 C   0  0  0  0  0  0  0  0  0  0  0  0
  139.4220   70.1120  222.8170 C   0  0  0  0  0  0  0  0  0  0  0  0
  139.5600   69.2750  223.9120 C   0  0  0  0  0  0  0  0  0  0  0  0
  140.0710   69.6960  225.1150 C   0  0  0  0  0  0  0  0  0  0  0  0
  140.2030   68.8600  226.1890 C   0  0  0  0  0  0  0  0  0  0  0  0
  140.7220   69.3400  227.3650 C   0  0  0  0  0  0  0  0  0  0  0  0
  140.9110   68.3110  228.7720 Cl  0  0  0  0  0  0  0  0  0  0  0  0
  141.1190   70.6560  227.4930 C   0  0  0  0  0  0  0  0  0  0  0  0
  140.9810   71.4980  226.3920 C   0  0  0  0  0  0  0  0  0  0  0  0
  140.4580   71.0160  225.2070 C   0  0  0  0  0  0  0  0  0  0  0  0
  140.3410   71.8790  224.1550 N   0  0  0  0  0  0  0  0  0  0  0  0
  139.6600   74.0570  223.0900 H   0  0  0  0  0  0  0  0  0  0  0  0
  139.7926   74.2178  220.0771 H   0  0  0  0  0  0  0  0  0  0  0  0
  138.4426   75.0266  220.9908 H   0  0  0  0  0  0  0  0  0  0  0  0
  141.6192   78.3247  220.5298 H   0  0  0  0  0  0  0  0  0  0  0  0
  142.9516   77.2889  221.0716 H   0  0  0  0  0  0  0  0  0  0  0  0
  142.8547   78.5626  218.6092 H   0  0  0  0  0  0  0  0  0  0  0  0
  143.8253   77.1335  218.8947 H   0  0  0  0  0  0  0  0  0  0  0  0
  140.9232   77.3030  217.8430 H   0  0  0  0  0  0  0  0  0  0  0  0
  142.2201   76.4541  217.0764 H   0  0  0  0  0  0  0  0  0  0  0  0
  140.7583   74.8773  218.6391 H   0  0  0  0  0  0  0  0  0  0  0  0
  143.4899   74.8123  217.2172 H   0  0  0  0  0  0  0  0  0  0  0  0
  145.5035   73.4672  217.6159 H   0  0  0  0  0  0  0  0  0  0  0  0
  146.3020   71.8870  220.8330 H   0  0  0  0  0  0  0  0  0  0  0  0
  144.3822   73.0933  221.7284 H   0  0  0  0  0  0  0  0  0  0  0  0
  142.3597   74.4484  221.3181 H   0  0  0  0  0  0  0  0  0  0  0  0
  139.0085   69.7497  221.8642 H   0  0  0  0  0  0  0  0  0  0  0  0
  139.2460   68.2254  223.8134 H   0  0  0  0  0  0  0  0  0  0  0  0
  139.8944   67.8071  226.1105 H   0  0  0  0  0  0  0  0  0  0  0  0
  141.5339   71.0302  228.4406 H   0  0  0  0  0  0  0  0  0  0  0  0
  141.2897   72.5512  226.4660 H   0  0  0  0  0  0  0  0  0  0  0  0
  1  2  2  0
  2  3  1  0
  3  4  1  0
  4  5  1  0
  5  6  2  0
  5  7  1  0
  7  8  1  0
  8  9  1  0
  9 10  1  0
 10 11  1  0
 11 12  1  0
 12 13  2  0
 13 14  1  0
 14 15  2  0
 15 16  1  0
 15 17  1  0
 17 18  2  0
  2 19  1  0
 19 20  2  0
 20 21  1  0
 21 22  2  0
 22 23  1  0
 23 24  2  0
 24 25  1  0
 24 26  1  0
 26 27  2  0
 27 28  1  0
 28 29  2  0
 11  7  1  0
 18 12  1  0
 29 19  1  0
 28 22  1  0
  3 30  1  0
  4 31  1  0
  4 32  1  0
  8 33  1  0
  8 34  1  0
  9 35  1  0
  9 36  1  0
 10 37  1  0
 10 38  1  0
 11 39  1  6
 13 40  1  0
 14 41  1  0
 16 42  1  0
 17 43  1  0
 18 44  1  0
 20 45  1  0
 21 46  1  0
 23 47  1  0
 26 48  1  0
 27 49  1  0
M  END
>  <smiles>  (74) 
O=C(NCC(=O)N1CCCC1c1ccc(O)cc1)c1ccc2cc(Cl)ccc2n1

>  <score_type>  (74) 
oracle

>  <origin>  (74) 
autodockgpu

>  <m_score__min__energy>  (74) 
-8.5700000000000003

>  <m_primary>  (74) 
energy

>  <rmsd>  (74) 
2.151944659756838

>  <m_score__min__rmsd>  (74) 
2.151944659756838

>  <meeko>  (74) 
{"free_energy": -8.29, "intermolecular_energy": -10.07, "internal_energy": -1.77, "cluster_size": 15, "cluster_id": 1, "rank_in_cluster": 4}

>  <energy>  (74) 
-8.18

>  <cluster_rmsd>  (74) 
1.16

>  <cluster>  (74) 
2

$$$$

     RDKit          3D

 49 52  0  0  0  0  0  0  0  0999 V2000
  139.6340   73.3260  220.4130 O   0  0  0  0  0  0  0  0  0  0  0  0
  139.6300   73.4910  221.6710 C   0  0  0  0  0  0  0  0  0  0  0  0
  139.5520   74.8000  222.2220 N   0  0  0  0  0  0  0  0  0  0  0  0
  139.4770   75.9640  221.3990 C   0  0  0  0  0  0  0  0  0  0  0  0
  139.1050   77.1810  222.1670 C   0  0  0  0  0  0  0  0  0  0  0  0
  137.8980   77.2890  222.5060 O   0  0  0  0  0  0  0  0  0  0  0  0
  140.1010   78.1440  222.4760 N   0  0  0  0  0  0  0  0  0  0  0  0
  141.4050   77.8840  223.0490 C   0  0  0  0  0  0  0  0  0  0  0  0
  141.9660   79.2140  223.4270 C   0  0  0  0  0  0  0  0  0  0  0  0
  140.7370   80.0940  223.5000 C   0  0  0  0  0  0  0  0  0  0  0  0
  139.9830   79.5850  222.2700 C   0  0  1  0  0  0  0  0  0  0  0  0
  140.7240   79.9070  221.0290 C   0  0  0  0  0  0  0  0  0  0  0  0
  141.1390   81.1650  220.6770 C   0  0  0  0  0  0  0  0  0  0  0  0
  141.8330   81.4490  219.5140 C   0  0  0  0  0  0  0  0  0  0  0  0
  142.1420   80.4320  218.6340 C   0  0  0  0  0  0  0  0  0  0  0  0
  142.8350   80.6740  217.4570 O   0  0  0  0  0  0  0  0  0  0  0  0
  141.7380   79.1560  218.9610 C   0  0  0  0  0  0  0  0  0  0  0  0
  141.0410   78.8830  220.1330 C   0  0  0  0  0  0  0  0  0  0  0  0
  139.7040   72.3300  222.5860 C   0  0  0  0  0  0  0  0  0  0  0  0
  139.1270   71.1380  222.1900 C   0  0  0  0  0  0  0  0  0  0  0  0
  139.2180   70.0740  223.0720 C   0  0  0  0  0  0  0  0  0  0  0  0
  139.8430   70.1650  224.2900 C   0  0  0  0  0  0  0  0  0  0  0  0
  139.9260   69.1070  225.1530 C   0  0  0  0  0  0  0  0  0  0  0  0
  140.5660   69.2600  226.3570 C   0  0  0  0  0  0  0  0  0  0  0  0
  140.7000   67.9360  227.5000 Cl  0  0  0  0  0  0  0  0  0  0  0  0
  141.1330   70.4640  226.7250 C   0  0  0  0  0  0  0  0  0  0  0  0
  141.0430   71.5350  225.8380 C   0  0  0  0  0  0  0  0  0  0  0  0
  140.3990   71.3820  224.6240 C   0  0  0  0  0  0  0  0  0  0  0  0
  140.3350   72.4590  223.7880 N   0  0  0  0  0  0  0  0  0  0  0  0
  139.5520   74.8740  223.2780 H   0  0  0  0  0  0  0  0  0  0  0  0
  140.4586   76.1287  220.9306 H   0  0  0  0  0  0  0  0  0  0  0  0
  138.6937   75.7913  220.6463 H   0  0  0  0  0  0  0  0  0  0  0  0
  141.3100   77.2435  223.9382 H   0  0  0  0  0  0  0  0  0  0  0  0
  142.0592   77.3609  222.3360 H   0  0  0  0  0  0  0  0  0  0  0  0
  142.4760   79.1657  224.4004 H   0  0  0  0  0  0  0  0  0  0  0  0
  142.7217   79.5830  222.7179 H   0  0  0  0  0  0  0  0  0  0  0  0
  140.1685   79.9276  224.4269 H   0  0  0  0  0  0  0  0  0  0  0  0
  140.9375   81.1755  223.5098 H   0  0  0  0  0  0  0  0  0  0  0  0
  138.9683   79.9974  222.1689 H   0  0  0  0  0  0  0  0  0  0  0  0
  140.9070   81.9968  221.3583 H   0  0  0  0  0  0  0  0  0  0  0  0
  142.1374   82.4824  219.2917 H   0  0  0  0  0  0  0  0  0  0  0  0
  143.6740   80.1390  217.2210 H   0  0  0  0  0  0  0  0  0  0  0  0
  141.9737   78.3291  218.2750 H   0  0  0  0  0  0  0  0  0  0  0  0
  140.7361   77.8501  220.3569 H   0  0  0  0  0  0  0  0  0  0  0  0
  138.6191   71.0390  221.2193 H   0  0  0  0  0  0  0  0  0  0  0  0
  138.7688   69.1124  222.7829 H   0  0  0  0  0  0  0  0  0  0  0  0
  139.4816   68.1377  224.8829 H   0  0  0  0  0  0  0  0  0  0  0  0
  141.6427   70.5749  227.6935 H   0  0  0  0  0  0  0  0  0  0  0  0
  141.4860   72.5059  226.1046 H   0  0  0  0  0  0  0  0  0  0  0  0
  1  2  2  0
  2  3  1  0
  3  4  1  0
  4  5  1  0
  5  6  2  0
  5  7  1  0
  7  8  1  0
  8  9  1  0
  9 10  1  0
 10 11  1  0
 11 12  1  0
 12 13  2  0
 13 14  1  0
 14 15  2  0
 15 16  1  0
 15 17  1  0
 17 18  2  0
  2 19  1  0
 19 20  2  0
 20 21  1  0
 21 22  2  0
 22 23  1  0
 23 24  2  0
 24 25  1  0
 24 26  1  0
 26 27  2  0
 27 28  1  0
 28 29  2  0
 11  7  1  0
 18 12  1  0
 29 19  1  0
 28 22  1  0
  3 30  1  0
  4 31  1  0
  4 32  1  0
  8 33  1  0
  8 34  1  0
  9 35  1  0
  9 36  1  0
 10 37  1  0
 10 38  1  0
 11 39  1  6
 13 40  1  0
 14 41  1  0
 16 42  1  0
 17 43  1  0
 18 44  1  0
 20 45  1  0
 21 46  1  0
 23 47  1  0
 26 48  1  0
 27 49  1  0
M  END
>  <smiles>  (75) 
O=C(NCC(=O)N1CCCC1c1ccc(O)cc1)c1ccc2cc(Cl)ccc2n1

>  <score_type>  (75) 
oracle

>  <origin>  (75) 
autodockgpu

>  <m_score__min__energy>  (75) 
-8.5700000000000003

>  <m_primary>  (75) 
energy

>  <rmsd>  (75) 
3.8211131718673936

>  <m_score__min__rmsd>  (75) 
3.8211131718673936

>  <meeko>  (75) 
{"free_energy": -8.16, "intermolecular_energy": -9.95, "internal_energy": -1.3, "cluster_size": 12, "cluster_id": 2, "rank_in_cluster": 10}

>  <energy>  (75) 
-8.16

>  <cluster_rmsd>  (75) 
0.61

>  <cluster>  (75) 
2

$$$$

     RDKit          3D

 49 52  0  0  0  0  0  0  0  0999 V2000
  139.1310   71.7480  220.6680 O   0  0  0  0  0  0  0  0  0  0  0  0
  138.7480   72.0620  221.8360 C   0  0  0  0  0  0  0  0  0  0  0  0
  137.9860   73.2450  222.0460 N   0  0  0  0  0  0  0  0  0  0  0  0
  137.6270   74.1150  220.9720 C   0  0  0  0  0  0  0  0  0  0  0  0
  138.7970   74.5200  220.1510 C   0  0  0  0  0  0  0  0  0  0  0  0
  138.8020   74.1450  218.9500 O   0  0  0  0  0  0  0  0  0  0  0  0
  139.8330   75.2900  220.7410 N   0  0  0  0  0  0  0  0  0  0  0  0
  139.9670   75.6240  222.1440 C   0  0  0  0  0  0  0  0  0  0  0  0
  141.0450   76.6540  222.2250 C   0  0  0  0  0  0  0  0  0  0  0  0
  141.1050   77.1960  220.8140 C   0  0  0  0  0  0  0  0  0  0  0  0
  140.9570   75.8910  220.0300 C   0  0  1  0  0  0  0  0  0  0  0  0
  142.1290   75.0110  220.2500 C   0  0  0  0  0  0  0  0  0  0  0  0
  142.0530   73.7030  220.6480 C   0  0  0  0  0  0  0  0  0  0  0  0
  143.1580   72.8940  220.8480 C   0  0  0  0  0  0  0  0  0  0  0  0
  144.4250   73.4010  220.6460 C   0  0  0  0  0  0  0  0  0  0  0  0
  145.5590   72.6250  220.8350 O   0  0  0  0  0  0  0  0  0  0  0  0
  144.5330   74.7150  220.2450 C   0  0  0  0  0  0  0  0  0  0  0  0
  143.4150   75.5180  220.0460 C   0  0  0  0  0  0  0  0  0  0  0  0
  139.0820   71.2080  222.9960 C   0  0  0  0  0  0  0  0  0  0  0  0
  138.7080   69.8770  222.9670 C   0  0  0  0  0  0  0  0  0  0  0  0
  139.0390   69.1090  224.0720 C   0  0  0  0  0  0  0  0  0  0  0  0
  139.7060   69.6130  225.1600 C   0  0  0  0  0  0  0  0  0  0  0  0
  140.0270   68.8440  226.2440 C   0  0  0  0  0  0  0  0  0  0  0  0
  140.6960   69.4070  227.3030 C   0  0  0  0  0  0  0  0  0  0  0  0
  141.1310   68.4660  228.7170 Cl  0  0  0  0  0  0  0  0  0  0  0  0
  141.0560   70.7400  227.3020 C   0  0  0  0  0  0  0  0  0  0  0  0
  140.7240   71.5130  226.1910 C   0  0  0  0  0  0  0  0  0  0  0  0
  140.0510   70.9480  225.1250 C   0  0  0  0  0  0  0  0  0  0  0  0
  139.7460   71.7450  224.0590 N   0  0  0  0  0  0  0  0  0  0  0  0
  137.6950   73.4540  223.0420 H   0  0  0  0  0  0  0  0  0  0  0  0
  136.9046   73.5963  220.3246 H   0  0  0  0  0  0  0  0  0  0  0  0
  137.1957   75.0267  221.4110 H   0  0  0  0  0  0  0  0  0  0  0  0
  139.0211   76.0305  222.5314 H   0  0  0  0  0  0  0  0  0  0  0  0
  140.2137   74.7369  222.7458 H   0  0  0  0  0  0  0  0  0  0  0  0
  140.7820   77.4459  222.9418 H   0  0  0  0  0  0  0  0  0  0  0  0
  142.0060   76.2489  222.5748 H   0  0  0  0  0  0  0  0  0  0  0  0
  140.2797   77.8934  220.6078 H   0  0  0  0  0  0  0  0  0  0  0  0
  142.0052   77.7823  220.5777 H   0  0  0  0  0  0  0  0  0  0  0  0
  140.8460   76.0350  218.9451 H   0  0  0  0  0  0  0  0  0  0  0  0
  141.0562   73.2703  220.8186 H   0  0  0  0  0  0  0  0  0  0  0  0
  143.0263   71.8496  221.1672 H   0  0  0  0  0  0  0  0  0  0  0  0
  145.6220   71.9650  221.6130 H   0  0  0  0  0  0  0  0  0  0  0  0
  145.5330   75.1414  220.0773 H   0  0  0  0  0  0  0  0  0  0  0  0
  143.5444   76.5621  219.7250 H   0  0  0  0  0  0  0  0  0  0  0  0
  138.1728   69.4479  222.1071 H   0  0  0  0  0  0  0  0  0  0  0  0
  138.7539   68.0466  224.0771 H   0  0  0  0  0  0  0  0  0  0  0  0
  139.7507   67.7795  226.2678 H   0  0  0  0  0  0  0  0  0  0  0  0
  141.5911   71.1805  228.1562 H   0  0  0  0  0  0  0  0  0  0  0  0
  140.9990   72.5777  226.1627 H   0  0  0  0  0  0  0  0  0  0  0  0
  1  2  2  0
  2  3  1  0
  3  4  1  0
  4  5  1  0
  5  6  2  0
  5  7  1  0
  7  8  1  0
  8  9  1  0
  9 10  1  0
 10 11  1  0
 11 12  1  0
 12 13  2  0
 13 14  1  0
 14 15  2  0
 15 16  1  0
 15 17  1  0
 17 18  2  0
  2 19  1  0
 19 20  2  0
 20 21  1  0
 21 22  2  0
 22 23  1  0
 23 24  2  0
 24 25  1  0
 24 26  1  0
 26 27  2  0
 27 28  1  0
 28 29  2  0
 11  7  1  0
 18 12  1  0
 29 19  1  0
 28 22  1  0
  3 30  1  0
  4 31  1  0
  4 32  1  0
  8 33  1  0
  8 34  1  0
  9 35  1  0
  9 36  1  0
 10 37  1  0
 10 38  1  0
 11 39  1  6
 13 40  1  0
 14 41  1  0
 16 42  1  0
 17 43  1  0
 18 44  1  0
 20 45  1  0
 21 46  1  0
 23 47  1  0
 26 48  1  0
 27 49  1  0
M  END
>  <smiles>  (76) 
O=C(NCC(=O)N1CCCC1c1ccc(O)cc1)c1ccc2cc(Cl)ccc2n1

>  <score_type>  (76) 
oracle

>  <origin>  (76) 
autodockgpu

>  <m_score__min__energy>  (76) 
-8.5700000000000003

>  <m_primary>  (76) 
energy

>  <rmsd>  (76) 
2.227832075022053

>  <m_score__min__rmsd>  (76) 
2.227832075022053

>  <meeko>  (76) 
{"free_energy": -7.74, "intermolecular_energy": -9.53, "internal_energy": -1.65, "cluster_size": 15, "cluster_id": 1, "rank_in_cluster": 10}

>  <energy>  (76) 
-7.74

>  <cluster_rmsd>  (76) 
1.36

>  <cluster>  (76) 
2

$$$$

     RDKit          3D

 49 52  0  0  0  0  0  0  0  0999 V2000
  138.5460   71.6930  220.8380 O   0  0  0  0  0  0  0  0  0  0  0  0
  138.9340   72.1470  221.9570 C   0  0  0  0  0  0  0  0  0  0  0  0
  139.0840   73.5480  222.1480 N   0  0  0  0  0  0  0  0  0  0  0  0
  138.8090   74.4890  221.1090 C   0  0  0  0  0  0  0  0  0  0  0  0
  139.9990   75.3040  220.7490 C   0  0  0  0  0  0  0  0  0  0  0  0
  140.7890   74.8090  219.9040 O   0  0  0  0  0  0  0  0  0  0  0  0
  140.1880   76.5710  221.3600 N   0  0  0  0  0  0  0  0  0  0  0  0
  141.0630   76.8700  222.4750 C   0  0  0  0  0  0  0  0  0  0  0  0
  140.7170   78.2540  222.9140 C   0  0  0  0  0  0  0  0  0  0  0  0
  139.3330   78.4590  222.3400 C   0  0  0  0  0  0  0  0  0  0  0  0
  139.5260   77.8110  220.9670 C   0  0  1  0  0  0  0  0  0  0  0  0
  140.4960   78.5820  220.1550 C   0  0  0  0  0  0  0  0  0  0  0  0
  141.4210   78.0230  219.3140 C   0  0  0  0  0  0  0  0  0  0  0  0
  142.3200   78.7590  218.5610 C   0  0  0  0  0  0  0  0  0  0  0  0
  142.3130   80.1360  218.6370 C   0  0  0  0  0  0  0  0  0  0  0  0
  143.1970   80.9100  217.8990 O   0  0  0  0  0  0  0  0  0  0  0  0
  141.3930   80.7280  219.4750 C   0  0  0  0  0  0  0  0  0  0  0  0
  140.4940   79.9780  220.2260 C   0  0  0  0  0  0  0  0  0  0  0  0
  139.2360   71.2330  223.0790 C   0  0  0  0  0  0  0  0  0  0  0  0
  138.8840   69.9010  222.9610 C   0  0  0  0  0  0  0  0  0  0  0  0
  139.1840   69.0760  224.0320 C   0  0  0  0  0  0  0  0  0  0  0  0
  139.8000   69.5260  225.1730 C   0  0  0  0  0  0  0  0  0  0  0  0
  140.0910   68.7010  226.2240 C   0  0  0  0  0  0  0  0  0  0  0  0
  140.7100   69.2110  227.3380 C   0  0  0  0  0  0  0  0  0  0  0  0
  141.1040   68.1970  228.7130 Cl  0  0  0  0  0  0  0  0  0  0  0  0
  141.0490   70.5460  227.4260 C   0  0  0  0  0  0  0  0  0  0  0  0
  140.7490   71.3770  226.3490 C   0  0  0  0  0  0  0  0  0  0  0  0
  140.1260   70.8650  225.2270 C   0  0  0  0  0  0  0  0  0  0  0  0
  139.8500   71.7170  224.1960 N   0  0  0  0  0  0  0  0  0  0  0  0
  139.4110   73.8680  223.1040 H   0  0  0  0  0  0  0  0  0  0  0  0
  138.4738   73.9407  220.2162 H   0  0  0  0  0  0  0  0  0  0  0  0
  138.0327   75.1758  221.4772 H   0  0  0  0  0  0  0  0  0  0  0  0
  140.8942   76.1562  223.2947 H   0  0  0  0  0  0  0  0  0  0  0  0
  142.1217   76.7931  222.1865 H   0  0  0  0  0  0  0  0  0  0  0  0
  140.7046   78.3288  224.0114 H   0  0  0  0  0  0  0  0  0  0  0  0
  141.4419   79.0091  222.5760 H   0  0  0  0  0  0  0  0  0  0  0  0
  138.5632   77.9425  222.9322 H   0  0  0  0  0  0  0  0  0  0  0  0
  138.9864   79.5028  222.3189 H   0  0  0  0  0  0  0  0  0  0  0  0
  138.5981   77.7219  220.3829 H   0  0  0  0  0  0  0  0  0  0  0  0
  141.4515   76.9265  219.2320 H   0  0  0  0  0  0  0  0  0  0  0  0
  143.0381   78.2467  217.9038 H   0  0  0  0  0  0  0  0  0  0  0  0
  143.6830   80.5260  217.0870 H   0  0  0  0  0  0  0  0  0  0  0  0
  141.3689   81.8250  219.5522 H   0  0  0  0  0  0  0  0  0  0  0  0
  139.7741   80.4887  220.8825 H   0  0  0  0  0  0  0  0  0  0  0  0
  138.3886   69.5146  222.0581 H   0  0  0  0  0  0  0  0  0  0  0  0
  138.9163   68.0111  223.9652 H   0  0  0  0  0  0  0  0  0  0  0  0
  139.8302   67.6334  226.1769 H   0  0  0  0  0  0  0  0  0  0  0  0
  141.5438   70.9439  228.3243 H   0  0  0  0  0  0  0  0  0  0  0  0
  141.0091   72.4449  226.3919 H   0  0  0  0  0  0  0  0  0  0  0  0
  1  2  2  0
  2  3  1  0
  3  4  1  0
  4  5  1  0
  5  6  2  0
  5  7  1  0
  7  8  1  0
  8  9  1  0
  9 10  1  0
 10 11  1  0
 11 12  1  0
 12 13  2  0
 13 14  1  0
 14 15  2  0
 15 16  1  0
 15 17  1  0
 17 18  2  0
  2 19  1  0
 19 20  2  0
 20 21  1  0
 21 22  2  0
 22 23  1  0
 23 24  2  0
 24 25  1  0
 24 26  1  0
 26 27  2  0
 27 28  1  0
 28 29  2  0
 11  7  1  0
 18 12  1  0
 29 19  1  0
 28 22  1  0
  3 30  1  0
  4 31  1  0
  4 32  1  0
  8 33  1  0
  8 34  1  0
  9 35  1  0
  9 36  1  0
 10 37  1  0
 10 38  1  0
 11 39  1  6
 13 40  1  0
 14 41  1  0
 16 42  1  0
 17 43  1  0
 18 44  1  0
 20 45  1  0
 21 46  1  0
 23 47  1  0
 26 48  1  0
 27 49  1  0
M  END
>  <smiles>  (77) 
O=C(NCC(=O)N1CCCC1c1ccc(O)cc1)c1ccc2cc(Cl)ccc2n1

>  <score_type>  (77) 
oracle

>  <origin>  (77) 
autodockgpu

>  <m_score__min__energy>  (77) 
-8.5700000000000003

>  <m_primary>  (77) 
energy

>  <rmsd>  (77) 
2.826669065787844

>  <m_score__min__rmsd>  (77) 
2.826669065787844

>  <meeko>  (77) 
{"free_energy": -7.74, "intermolecular_energy": -9.53, "internal_energy": -1.46, "cluster_size": 12, "cluster_id": 2, "rank_in_cluster": 11}

>  <energy>  (77) 
-7.58

>  <cluster_rmsd>  (77) 
1.39

>  <cluster>  (77) 
2

$$$$

     RDKit          3D

 49 52  0  0  0  0  0  0  0  0999 V2000
  138.9900   71.7960  220.7210 O   0  0  0  0  0  0  0  0  0  0  0  0
  139.2630   72.2450  221.8760 C   0  0  0  0  0  0  0  0  0  0  0  0
  139.3590   73.6470  222.0950 N   0  0  0  0  0  0  0  0  0  0  0  0
  139.1570   74.5930  221.0440 C   0  0  0  0  0  0  0  0  0  0  0  0
  139.9400   75.8400  221.2430 C   0  0  0  0  0  0  0  0  0  0  0  0
  141.1800   75.7660  221.0460 O   0  0  0  0  0  0  0  0  0  0  0  0
  139.2730   77.0300  221.6370 N   0  0  0  0  0  0  0  0  0  0  0  0
  138.3160   77.1650  222.7160 C   0  0  0  0  0  0  0  0  0  0  0  0
  137.7090   78.5200  222.5640 C   0  0  0  0  0  0  0  0  0  0  0  0
  138.0010   78.8660  221.1210 C   0  0  0  0  0  0  0  0  0  0  0  0
  139.4350   78.3410  221.0160 C   0  0  1  0  0  0  0  0  0  0  0  0
  140.3440   79.1220  221.8850 C   0  0  0  0  0  0  0  0  0  0  0  0
  140.3190   80.4870  222.0070 C   0  0  0  0  0  0  0  0  0  0  0  0
  141.1760   81.2020  222.8250 C   0  0  0  0  0  0  0  0  0  0  0  0
  142.1230   80.5370  223.5750 C   0  0  0  0  0  0  0  0  0  0  0  0
  143.0010   81.2150  224.4080 O   0  0  0  0  0  0  0  0  0  0  0  0
  142.1730   79.1630  223.4740 C   0  0  0  0  0  0  0  0  0  0  0  0
  141.3060   78.4550  222.6480 C   0  0  0  0  0  0  0  0  0  0  0  0
  139.4840   71.3240  223.0120 C   0  0  0  0  0  0  0  0  0  0  0  0
  139.0950   70.0040  222.8790 C   0  0  0  0  0  0  0  0  0  0  0  0
  139.3190   69.1720  223.9640 C   0  0  0  0  0  0  0  0  0  0  0  0
  139.8970   69.6050  225.1310 C   0  0  0  0  0  0  0  0  0  0  0  0
  140.1130   68.7730  226.1950 C   0  0  0  0  0  0  0  0  0  0  0  0
  140.6970   69.2650  227.3350 C   0  0  0  0  0  0  0  0  0  0  0  0
  140.9950   68.2430  228.7280 Cl  0  0  0  0  0  0  0  0  0  0  0  0
  141.0750   70.5900  227.4370 C   0  0  0  0  0  0  0  0  0  0  0  0
  140.8500   71.4270  226.3470 C   0  0  0  0  0  0  0  0  0  0  0  0
  140.2630   70.9330  225.1980 C   0  0  0  0  0  0  0  0  0  0  0  0
  140.0620   71.7910  224.1550 N   0  0  0  0  0  0  0  0  0  0  0  0
  139.5890   73.9620  223.0790 H   0  0  0  0  0  0  0  0  0  0  0  0
  139.4615   74.1333  220.0922 H   0  0  0  0  0  0  0  0  0  0  0  0
  138.0911   74.8647  221.0390 H   0  0  0  0  0  0  0  0  0  0  0  0
  137.5408   76.3885  222.6381 H   0  0  0  0  0  0  0  0  0  0  0  0
  138.7983   77.0486  223.6978 H   0  0  0  0  0  0  0  0  0  0  0  0
  136.6255   78.4908  222.7517 H   0  0  0  0  0  0  0  0  0  0  0  0
  138.1110   79.2564  223.2754 H   0  0  0  0  0  0  0  0  0  0  0  0
  137.3224   78.3452  220.4295 H   0  0  0  0  0  0  0  0  0  0  0  0
  137.8723   79.9269  220.8603 H   0  0  0  0  0  0  0  0  0  0  0  0
  139.8445   78.3671  219.9954 H   0  0  0  0  0  0  0  0  0  0  0  0
  139.5749   81.0463  221.4209 H   0  0  0  0  0  0  0  0  0  0  0  0
  141.1020   82.2983  222.8769 H   0  0  0  0  0  0  0  0  0  0  0  0
  142.7320   82.0960  224.8510 H   0  0  0  0  0  0  0  0  0  0  0  0
  142.9198   78.6108  224.0634 H   0  0  0  0  0  0  0  0  0  0  0  0
  141.3785   77.3587  222.5950 H   0  0  0  0  0  0  0  0  0  0  0  0
  138.6293   69.6316  221.9547 H   0  0  0  0  0  0  0  0  0  0  0  0
  139.0199   68.1163  223.8865 H   0  0  0  0  0  0  0  0  0  0  0  0
  139.8199   67.7144  226.1370 H   0  0  0  0  0  0  0  0  0  0  0  0
  141.5419   70.9741  228.3560 H   0  0  0  0  0  0  0  0  0  0  0  0
  141.1410   72.4864  226.4011 H   0  0  0  0  0  0  0  0  0  0  0  0
  1  2  2  0
  2  3  1  0
  3  4  1  0
  4  5  1  0
  5  6  2  0
  5  7  1  0
  7  8  1  0
  8  9  1  0
  9 10  1  0
 10 11  1  0
 11 12  1  0
 12 13  2  0
 13 14  1  0
 14 15  2  0
 15 16  1  0
 15 17  1  0
 17 18  2  0
  2 19  1  0
 19 20  2  0
 20 21  1  0
 21 22  2  0
 22 23  1  0
 23 24  2  0
 24 25  1  0
 24 26  1  0
 26 27  2  0
 27 28  1  0
 28 29  2  0
 11  7  1  0
 18 12  1  0
 29 19  1  0
 28 22  1  0
  3 30  1  0
  4 31  1  0
  4 32  1  0
  8 33  1  0
  8 34  1  0
  9 35  1  0
  9 36  1  0
 10 37  1  0
 10 38  1  0
 11 39  1  6
 13 40  1  0
 14 41  1  0
 16 42  1  0
 17 43  1  0
 18 44  1  0
 20 45  1  0
 21 46  1  0
 23 47  1  0
 26 48  1  0
 27 49  1  0
M  END
>  <smiles>  (78) 
O=C(NCC(=O)N1CCCC1c1ccc(O)cc1)c1ccc2cc(Cl)ccc2n1

>  <score_type>  (78) 
oracle

>  <origin>  (78) 
autodockgpu

>  <m_score__min__energy>  (78) 
-8.5700000000000003

>  <m_primary>  (78) 
energy

>  <rmsd>  (78) 
2.7677959300096644

>  <m_score__min__rmsd>  (78) 
2.7677959300096644

>  <meeko>  (78) 
{"free_energy": -7.77, "intermolecular_energy": -9.56, "internal_energy": -1.41, "cluster_size": 10, "cluster_id": 3, "rank_in_cluster": 5}

>  <energy>  (78) 
-8.15

>  <cluster_rmsd>  (78) 
0.0

>  <cluster>  (78) 
3

$$$$

     RDKit          3D

 49 52  0  0  0  0  0  0  0  0999 V2000
  136.6240   77.5830  222.3720 O   0  0  0  0  0  0  0  0  0  0  0  0
  136.6760   76.3810  222.7730 C   0  0  0  0  0  0  0  0  0  0  0  0
  137.7150   75.5200  222.3240 N   0  0  0  0  0  0  0  0  0  0  0  0
  138.7260   75.9610  221.4180 C   0  0  0  0  0  0  0  0  0  0  0  0
  140.0240   76.2180  222.0950 C   0  0  0  0  0  0  0  0  0  0  0  0
  140.7460   75.2150  222.3330 O   0  0  0  0  0  0  0  0  0  0  0  0
  140.3850   77.5480  222.4360 N   0  0  0  0  0  0  0  0  0  0  0  0
  141.4490   77.9500  223.3330 C   0  0  0  0  0  0  0  0  0  0  0  0
  141.2600   79.4120  223.5700 C   0  0  0  0  0  0  0  0  0  0  0  0
  139.8140   79.6360  223.1900 C   0  0  0  0  0  0  0  0  0  0  0  0
  139.7370   78.7580  221.9390 C   0  0  1  0  0  0  0  0  0  0  0  0
  140.6000   79.3010  220.8640 C   0  0  0  0  0  0  0  0  0  0  0  0
  141.3380   78.5350  220.0010 C   0  0  0  0  0  0  0  0  0  0  0  0
  142.1390   79.0580  219.0000 C   0  0  0  0  0  0  0  0  0  0  0  0
  142.2230   80.4250  218.8340 C   0  0  0  0  0  0  0  0  0  0  0  0
  143.0140   80.9900  217.8440 O   0  0  0  0  0  0  0  0  0  0  0  0
  141.4910   81.2220  219.6880 C   0  0  0  0  0  0  0  0  0  0  0  0
  140.6900   80.6840  220.6890 C   0  0  0  0  0  0  0  0  0  0  0  0
  135.6630   75.8540  223.7130 C   0  0  0  0  0  0  0  0  0  0  0  0
  134.8260   76.7490  224.3540 C   0  0  0  0  0  0  0  0  0  0  0  0
  133.8900   76.2180  225.2260 C   0  0  0  0  0  0  0  0  0  0  0  0
  133.7710   74.8710  225.4660 C   0  0  0  0  0  0  0  0  0  0  0  0
  132.8420   74.3600  226.3290 C   0  0  0  0  0  0  0  0  0  0  0  0
  132.7720   73.0030  226.5260 C   0  0  0  0  0  0  0  0  0  0  0  0
  131.6000   72.2950  227.6220 Cl  0  0  0  0  0  0  0  0  0  0  0  0
  133.6220   72.1340  225.8710 C   0  0  0  0  0  0  0  0  0  0  0  0
  134.5630   72.6680  224.9940 C   0  0  0  0  0  0  0  0  0  0  0  0
  134.6350   74.0330  224.7940 C   0  0  0  0  0  0  0  0  0  0  0  0
  135.5750   74.5100  223.9250 N   0  0  0  0  0  0  0  0  0  0  0  0
  137.7060   74.5270  222.6940 H   0  0  0  0  0  0  0  0  0  0  0  0
  138.8752   75.1862  220.6515 H   0  0  0  0  0  0  0  0  0  0  0  0
  138.3870   76.9087  220.9743 H   0  0  0  0  0  0  0  0  0  0  0  0
  141.3782   77.3972  224.2813 H   0  0  0  0  0  0  0  0  0  0  0  0
  142.4390   77.7371  222.9034 H   0  0  0  0  0  0  0  0  0  0  0  0
  141.4351   79.6669  224.6256 H   0  0  0  0  0  0  0  0  0  0  0  0
  141.9600   80.0374  222.9965 H   0  0  0  0  0  0  0  0  0  0  0  0
  139.1259   79.2906  223.9757 H   0  0  0  0  0  0  0  0  0  0  0  0
  139.5291   80.6878  223.0396 H   0  0  0  0  0  0  0  0  0  0  0  0
  138.7209   78.6529  221.5309 H   0  0  0  0  0  0  0  0  0  0  0  0
  141.2916   77.4413  220.1094 H   0  0  0  0  0  0  0  0  0  0  0  0
  142.7064   78.3859  218.3394 H   0  0  0  0  0  0  0  0  0  0  0  0
  143.5660   80.4060  217.2130 H   0  0  0  0  0  0  0  0  0  0  0  0
  141.5421   82.3149  219.5742 H   0  0  0  0  0  0  0  0  0  0  0  0
  140.1212   81.3544  221.3501 H   0  0  0  0  0  0  0  0  0  0  0  0
  134.9002   77.8325  224.1794 H   0  0  0  0  0  0  0  0  0  0  0  0
  133.2110   76.9066  225.7502 H   0  0  0  0  0  0  0  0  0  0  0  0
  132.1542   75.0324  226.8627 H   0  0  0  0  0  0  0  0  0  0  0  0
  133.5576   71.0486  226.0375 H   0  0  0  0  0  0  0  0  0  0  0  0
  135.2525   71.9994  224.4578 H   0  0  0  0  0  0  0  0  0  0  0  0
  1  2  2  0
  2  3  1  0
  3  4  1  0
  4  5  1  0
  5  6  2  0
  5  7  1  0
  7  8  1  0
  8  9  1  0
  9 10  1  0
 10 11  1  0
 11 12  1  0
 12 13  2  0
 13 14  1  0
 14 15  2  0
 15 16  1  0
 15 17  1  0
 17 18  2  0
  2 19  1  0
 19 20  2  0
 20 21  1  0
 21 22  2  0
 22 23  1  0
 23 24  2  0
 24 25  1  0
 24 26  1  0
 26 27  2  0
 27 28  1  0
 28 29  2  0
 11  7  1  0
 18 12  1  0
 29 19  1  0
 28 22  1  0
  3 30  1  0
  4 31  1  0
  4 32  1  0
  8 33  1  0
  8 34  1  0
  9 35  1  0
  9 36  1  0
 10 37  1  0
 10 38  1  0
 11 39  1  6
 13 40  1  0
 14 41  1  0
 16 42  1  0
 17 43  1  0
 18 44  1  0
 20 45  1  0
 21 46  1  0
 23 47  1  0
 26 48  1  0
 27 49  1  0
M  END
>  <smiles>  (79) 
O=C(NCC(=O)N1CCCC1c1ccc(O)cc1)c1ccc2cc(Cl)ccc2n1

>  <score_type>  (79) 
oracle

>  <origin>  (79) 
autodockgpu

>  <m_score__min__energy>  (79) 
-8.5700000000000003

>  <m_primary>  (79) 
energy

>  <rmsd>  (79) 
6.588042766258442

>  <m_score__min__rmsd>  (79) 
6.588042766258442

>  <meeko>  (79) 
{"free_energy": -7.11, "intermolecular_energy": -8.89, "internal_energy": -1.69, "cluster_size": 2, "cluster_id": 8, "rank_in_cluster": 1}

>  <energy>  (79) 
-8.07

>  <cluster_rmsd>  (79) 
0.8

>  <cluster>  (79) 
3

$$$$

     RDKit          3D

 49 52  0  0  0  0  0  0  0  0999 V2000
  137.8740   75.6370  222.4430 O   0  0  0  0  0  0  0  0  0  0  0  0
  139.0410   76.0710  222.1990 C   0  0  0  0  0  0  0  0  0  0  0  0
  139.3330   77.4560  222.3400 N   0  0  0  0  0  0  0  0  0  0  0  0
  138.3450   78.4000  222.7550 C   0  0  0  0  0  0  0  0  0  0  0  0
  138.9390   79.5920  223.4160 C   0  0  0  0  0  0  0  0  0  0  0  0
  138.1540   80.3220  224.0750 O   0  0  0  0  0  0  0  0  0  0  0  0
  140.3280   79.8500  223.2760 N   0  0  0  0  0  0  0  0  0  0  0  0
  141.4110   79.0600  223.8250 C   0  0  0  0  0  0  0  0  0  0  0  0
  142.6510   79.8700  223.6360 C   0  0  0  0  0  0  0  0  0  0  0  0
  142.1170   81.2720  223.4460 C   0  0  0  0  0  0  0  0  0  0  0  0
  140.9150   80.9710  222.5480 C   0  0  1  0  0  0  0  0  0  0  0  0
  141.3590   80.4490  221.2350 C   0  0  0  0  0  0  0  0  0  0  0  0
  141.3940   79.1220  220.8980 C   0  0  0  0  0  0  0  0  0  0  0  0
  141.8100   78.6510  219.6650 C   0  0  0  0  0  0  0  0  0  0  0  0
  142.2220   79.5410  218.6950 C   0  0  0  0  0  0  0  0  0  0  0  0
  142.6480   79.1110  217.4470 O   0  0  0  0  0  0  0  0  0  0  0  0
  142.1990   80.8840  219.0050 C   0  0  0  0  0  0  0  0  0  0  0  0
  141.7780   81.3440  220.2470 C   0  0  0  0  0  0  0  0  0  0  0  0
  140.1150   75.1510  221.7650 C   0  0  0  0  0  0  0  0  0  0  0  0
  139.9450   73.7950  221.9690 C   0  0  0  0  0  0  0  0  0  0  0  0
  140.9720   72.9650  221.5490 C   0  0  0  0  0  0  0  0  0  0  0  0
  142.1180   73.4340  220.9560 C   0  0  0  0  0  0  0  0  0  0  0  0
  143.1240   72.6040  220.5460 C   0  0  0  0  0  0  0  0  0  0  0  0
  144.2460   73.1340  219.9590 C   0  0  0  0  0  0  0  0  0  0  0  0
  145.5660   72.1160  219.4160 Cl  0  0  0  0  0  0  0  0  0  0  0  0
  144.3860   74.4950  219.7700 C   0  0  0  0  0  0  0  0  0  0  0  0
  143.3530   75.3300  220.1910 C   0  0  0  0  0  0  0  0  0  0  0  0
  142.2240   74.7980  220.7820 C   0  0  0  0  0  0  0  0  0  0  0  0
  141.2380   75.6550  221.1800 N   0  0  0  0  0  0  0  0  0  0  0  0
  140.3240   77.7600  222.1220 H   0  0  0  0  0  0  0  0  0  0  0  0
  137.7804   78.7314  221.8711 H   0  0  0  0  0  0  0  0  0  0  0  0
  137.6931   77.9016  223.4876 H   0  0  0  0  0  0  0  0  0  0  0  0
  141.2396   78.8681  224.8945 H   0  0  0  0  0  0  0  0  0  0  0  0
  141.4891   78.0829  223.3258 H   0  0  0  0  0  0  0  0  0  0  0  0
  143.3003   79.8111  224.5219 H   0  0  0  0  0  0  0  0  0  0  0  0
  143.2699   79.5246  222.7948 H   0  0  0  0  0  0  0  0  0  0  0  0
  141.8117   81.7266  224.4000 H   0  0  0  0  0  0  0  0  0  0  0  0
  142.8378   81.9934  223.0337 H   0  0  0  0  0  0  0  0  0  0  0  0
  140.2705   81.8424  222.3603 H   0  0  0  0  0  0  0  0  0  0  0  0
  141.0727   78.3877  221.6514 H   0  0  0  0  0  0  0  0  0  0  0  0
  141.8121   77.5704  219.4591 H   0  0  0  0  0  0  0  0  0  0  0  0
  143.5680   79.3720  217.0850 H   0  0  0  0  0  0  0  0  0  0  0  0
  142.5233   81.6126  218.2474 H   0  0  0  0  0  0  0  0  0  0  0  0
  141.7746   82.4242  220.4545 H   0  0  0  0  0  0  0  0  0  0  0  0
  139.0371   73.3933  222.4426 H   0  0  0  0  0  0  0  0  0  0  0  0
  140.8641   71.8804  221.6975 H   0  0  0  0  0  0  0  0  0  0  0  0
  143.0348   71.5166  220.6858 H   0  0  0  0  0  0  0  0  0  0  0  0
  145.2898   74.9091  219.2992 H   0  0  0  0  0  0  0  0  0  0  0  0
  143.4372   76.4179  220.0519 H   0  0  0  0  0  0  0  0  0  0  0  0
  1  2  2  0
  2  3  1  0
  3  4  1  0
  4  5  1  0
  5  6  2  0
  5  7  1  0
  7  8  1  0
  8  9  1  0
  9 10  1  0
 10 11  1  0
 11 12  1  0
 12 13  2  0
 13 14  1  0
 14 15  2  0
 15 16  1  0
 15 17  1  0
 17 18  2  0
  2 19  1  0
 19 20  2  0
 20 21  1  0
 21 22  2  0
 22 23  1  0
 23 24  2  0
 24 25  1  0
 24 26  1  0
 26 27  2  0
 27 28  1  0
 28 29  2  0
 11  7  1  0
 18 12  1  0
 29 19  1  0
 28 22  1  0
  3 30  1  0
  4 31  1  0
  4 32  1  0
  8 33  1  0
  8 34  1  0
  9 35  1  0
  9 36  1  0
 10 37  1  0
 10 38  1  0
 11 39  1  6
 13 40  1  0
 14 41  1  0
 16 42  1  0
 17 43  1  0
 18 44  1  0
 20 45  1  0
 21 46  1  0
 23 47  1  0
 26 48  1  0
 27 49  1  0
M  END
>  <smiles>  (80) 
O=C(NCC(=O)N1CCCC1c1ccc(O)cc1)c1ccc2cc(Cl)ccc2n1

>  <score_type>  (80) 
oracle

>  <origin>  (80) 
autodockgpu

>  <m_score__min__energy>  (80) 
-8.5700000000000003

>  <m_primary>  (80) 
energy

>  <rmsd>  (80) 
6.691701180406969

>  <m_score__min__rmsd>  (80) 
6.691701180406969

>  <meeko>  (80) 
{"free_energy": -7.53, "intermolecular_energy": -9.32, "internal_energy": -1.76, "cluster_size": 4, "cluster_id": 6, "rank_in_cluster": 2}

>  <energy>  (80) 
-8.01

>  <cluster_rmsd>  (80) 
0.9

>  <cluster>  (80) 
3

$$$$

     RDKit          3D

 49 52  0  0  0  0  0  0  0  0999 V2000
  140.2190   72.6940  220.7810 O   0  0  0  0  0  0  0  0  0  0  0  0
  139.9510   72.9870  221.9860 C   0  0  0  0  0  0  0  0  0  0  0  0
  139.6110   74.3210  222.3410 N   0  0  0  0  0  0  0  0  0  0  0  0
  139.5580   75.3720  221.3750 C   0  0  0  0  0  0  0  0  0  0  0  0
  140.8860   75.9940  221.1370 C   0  0  0  0  0  0  0  0  0  0  0  0
  141.7960   75.2380  220.7100 O   0  0  0  0  0  0  0  0  0  0  0  0
  141.0660   77.3780  221.3960 N   0  0  0  0  0  0  0  0  0  0  0  0
  141.2060   78.4300  220.4090 C   0  0  0  0  0  0  0  0  0  0  0  0
  141.6320   79.6480  221.1590 C   0  0  0  0  0  0  0  0  0  0  0  0
  142.1860   79.0800  222.4460 C   0  0  0  0  0  0  0  0  0  0  0  0
  141.1440   77.9930  222.7180 C   0  0  1  0  0  0  0  0  0  0  0  0
  139.8190   78.5940  222.9960 C   0  0  0  0  0  0  0  0  0  0  0  0
  139.6200   79.7100  223.7650 C   0  0  0  0  0  0  0  0  0  0  0  0
  138.3740   80.2600  224.0130 C   0  0  0  0  0  0  0  0  0  0  0  0
  137.2470   79.6780  223.4720 C   0  0  0  0  0  0  0  0  0  0  0  0
  135.9800   80.1970  223.6970 O   0  0  0  0  0  0  0  0  0  0  0  0
  137.4160   78.5530  222.6940 C   0  0  0  0  0  0  0  0  0  0  0  0
  138.6730   78.0100  222.4510 C   0  0  0  0  0  0  0  0  0  0  0  0
  139.9860   71.9500  223.0410 C   0  0  0  0  0  0  0  0  0  0  0  0
  139.5050   70.6880  222.7440 C   0  0  0  0  0  0  0  0  0  0  0  0
  139.5550   69.7440  223.7570 C   0  0  0  0  0  0  0  0  0  0  0  0
  140.0510   70.0150  225.0070 C   0  0  0  0  0  0  0  0  0  0  0  0
  140.0940   69.0740  225.9990 C   0  0  0  0  0  0  0  0  0  0  0  0
  140.6030   69.4060  227.2290 C   0  0  0  0  0  0  0  0  0  0  0  0
  140.6810   68.2380  228.5350 Cl  0  0  0  0  0  0  0  0  0  0  0  0
  141.0760   70.6750  227.4950 C   0  0  0  0  0  0  0  0  0  0  0  0
  141.0270   71.6250  226.4780 C   0  0  0  0  0  0  0  0  0  0  0  0
  140.5150   71.2930  225.2380 C   0  0  0  0  0  0  0  0  0  0  0  0
  140.4860   72.2570  224.2720 N   0  0  0  0  0  0  0  0  0  0  0  0
  139.3980   74.5040  223.3630 H   0  0  0  0  0  0  0  0  0  0  0  0
  139.1863   74.9597  220.4253 H   0  0  0  0  0  0  0  0  0  0  0  0
  138.8890   76.1524  221.7667 H   0  0  0  0  0  0  0  0  0  0  0  0
  141.9668   78.1552  219.6636 H   0  0  0  0  0  0  0  0  0  0  0  0
  140.2638   78.6008  219.8676 H   0  0  0  0  0  0  0  0  0  0  0  0
  142.4052   80.2020  220.6065 H   0  0  0  0  0  0  0  0  0  0  0  0
  140.8142   80.3660  221.3192 H   0  0  0  0  0  0  0  0  0  0  0  0
  143.1920   78.6573  222.3074 H   0  0  0  0  0  0  0  0  0  0  0  0
  142.3209   79.8100  223.2577 H   0  0  0  0  0  0  0  0  0  0  0  0
  141.3962   77.3366  223.5639 H   0  0  0  0  0  0  0  0  0  0  0  0
  140.5000   80.1967  224.2107 H   0  0  0  0  0  0  0  0  0  0  0  0
  138.2832   81.1592  224.6401 H   0  0  0  0  0  0  0  0  0  0  0  0
  135.4500   80.6380  222.9420 H   0  0  0  0  0  0  0  0  0  0  0  0
  136.5313   78.0708  222.2526 H   0  0  0  0  0  0  0  0  0  0  0  0
  138.7658   77.1115  221.8233 H   0  0  0  0  0  0  0  0  0  0  0  0
  139.1015   70.4449  221.7500 H   0  0  0  0  0  0  0  0  0  0  0  0
  139.1798   68.7310  223.5494 H   0  0  0  0  0  0  0  0  0  0  0  0
  139.7222   68.0559  225.8113 H   0  0  0  0  0  0  0  0  0  0  0  0
  141.4815   70.9296  228.4853 H   0  0  0  0  0  0  0  0  0  0  0  0
  141.3974   72.6442  226.6624 H   0  0  0  0  0  0  0  0  0  0  0  0
  1  2  2  0
  2  3  1  0
  3  4  1  0
  4  5  1  0
  5  6  2  0
  5  7  1  0
  7  8  1  0
  8  9  1  0
  9 10  1  0
 10 11  1  0
 11 12  1  0
 12 13  2  0
 13 14  1  0
 14 15  2  0
 15 16  1  0
 15 17  1  0
 17 18  2  0
  2 19  1  0
 19 20  2  0
 20 21  1  0
 21 22  2  0
 22 23  1  0
 23 24  2  0
 24 25  1  0
 24 26  1  0
 26 27  2  0
 27 28  1  0
 28 29  2  0
 11  7  1  0
 18 12  1  0
 29 19  1  0
 28 22  1  0
  3 30  1  0
  4 31  1  0
  4 32  1  0
  8 33  1  0
  8 34  1  0
  9 35  1  0
  9 36  1  0
 10 37  1  0
 10 38  1  0
 11 39  1  1
 13 40  1  0
 14 41  1  0
 16 42  1  0
 17 43  1  0
 18 44  1  0
 20 45  1  0
 21 46  1  0
 23 47  1  0
 26 48  1  0
 27 49  1  0
M  END
>  <smiles>  (81) 
O=C(NCC(=O)N1CCCC1c1ccc(O)cc1)c1ccc2cc(Cl)ccc2n1

>  <score_type>  (81) 
oracle

>  <origin>  (81) 
autodockgpu

>  <m_score__min__energy>  (81) 
-8.5700000000000003

>  <m_primary>  (81) 
energy

>  <rmsd>  (81) 
2.911916336118967

>  <m_score__min__rmsd>  (81) 
2.911916336118967

>  <meeko>  (81) 
{"free_energy": -7.97, "intermolecular_energy": -9.76, "internal_energy": -1.17, "cluster_size": 4, "cluster_id": 4, "rank_in_cluster": 2}

>  <energy>  (81) 
-7.99

>  <cluster_rmsd>  (81) 
0.2

>  <cluster>  (81) 
3

$$$$

     RDKit          3D

 49 52  0  0  0  0  0  0  0  0999 V2000
  139.8580   72.0190  220.6240 O   0  0  0  0  0  0  0  0  0  0  0  0
  139.7790   72.4360  221.8190 C   0  0  0  0  0  0  0  0  0  0  0  0
  139.6010   73.8220  222.0830 N   0  0  0  0  0  0  0  0  0  0  0  0
  139.5050   74.7870  221.0350 C   0  0  0  0  0  0  0  0  0  0  0  0
  140.4480   75.9210  221.2170 C   0  0  0  0  0  0  0  0  0  0  0  0
  140.3750   76.5480  222.3050 O   0  0  0  0  0  0  0  0  0  0  0  0
  141.3640   76.2420  220.1810 N   0  0  0  0  0  0  0  0  0  0  0  0
  142.2370   77.3970  220.1290 C   0  0  0  0  0  0  0  0  0  0  0  0
  142.7990   77.4290  218.7460 C   0  0  0  0  0  0  0  0  0  0  0  0
  141.8230   76.5820  217.9610 C   0  0  0  0  0  0  0  0  0  0  0  0
  141.5880   75.4570  218.9710 C   0  0  1  0  0  0  0  0  0  0  0  0
  142.8300   74.6770  219.1850 C   0  0  0  0  0  0  0  0  0  0  0  0
  143.6780   74.2790  218.1860 C   0  0  0  0  0  0  0  0  0  0  0  0
  144.8360   73.5520  218.4030 C   0  0  0  0  0  0  0  0  0  0  0  0
  145.1860   73.1880  219.6870 C   0  0  0  0  0  0  0  0  0  0  0  0
  146.3370   72.4590  219.9480 O   0  0  0  0  0  0  0  0  0  0  0  0
  144.3510   73.5740  220.7140 C   0  0  0  0  0  0  0  0  0  0  0  0
  143.1910   74.3050  220.4820 C   0  0  0  0  0  0  0  0  0  0  0  0
  139.8700   71.4950  222.9560 C   0  0  0  0  0  0  0  0  0  0  0  0
  139.4400   70.1930  222.7730 C   0  0  0  0  0  0  0  0  0  0  0  0
  139.5410   69.3410  223.8600 C   0  0  0  0  0  0  0  0  0  0  0  0
  140.0390   69.7360  225.0760 C   0  0  0  0  0  0  0  0  0  0  0  0
  140.1340   68.8850  226.1420 C   0  0  0  0  0  0  0  0  0  0  0  0
  140.6410   69.3400  227.3330 C   0  0  0  0  0  0  0  0  0  0  0  0
  140.7840   68.2900  228.7310 Cl  0  0  0  0  0  0  0  0  0  0  0  0
  141.0630   70.6460  227.4850 C   0  0  0  0  0  0  0  0  0  0  0  0
  140.9620   71.5040  226.3920 C   0  0  0  0  0  0  0  0  0  0  0  0
  140.4510   71.0470  225.1920 C   0  0  0  0  0  0  0  0  0  0  0  0
  140.3710   71.9240  224.1490 N   0  0  0  0  0  0  0  0  0  0  0  0
  139.5420   74.1110  223.1010 H   0  0  0  0  0  0  0  0  0  0  0  0
  139.7288   74.2922  220.0784 H   0  0  0  0  0  0  0  0  0  0  0  0
  138.4839   75.1959  221.0499 H   0  0  0  0  0  0  0  0  0  0  0  0
  141.6670   78.3159  220.3308 H   0  0  0  0  0  0  0  0  0  0  0  0
  143.0334   77.3333  220.8851 H   0  0  0  0  0  0  0  0  0  0  0  0
  142.8320   78.4572  218.3566 H   0  0  0  0  0  0  0  0  0  0  0  0
  143.8340   77.0605  218.6907 H   0  0  0  0  0  0  0  0  0  0  0  0
  140.8960   77.1291  217.7343 H   0  0  0  0  0  0  0  0  0  0  0  0
  142.1791   76.2548  216.9730 H   0  0  0  0  0  0  0  0  0  0  0  0
  140.7970   74.7521  218.6753 H   0  0  0  0  0  0  0  0  0  0  0  0
  143.4243   74.5528  217.1513 H   0  0  0  0  0  0  0  0  0  0  0  0
  145.4749   73.2655  217.5546 H   0  0  0  0  0  0  0  0  0  0  0  0
  146.4280   71.9070  220.8040 H   0  0  0  0  0  0  0  0  0  0  0  0
  144.6098   73.2958  221.7463 H   0  0  0  0  0  0  0  0  0  0  0  0
  142.5509   74.5933  221.3289 H   0  0  0  0  0  0  0  0  0  0  0  0
  139.0366   69.8503  221.8087 H   0  0  0  0  0  0  0  0  0  0  0  0
  139.2066   68.2996  223.7432 H   0  0  0  0  0  0  0  0  0  0  0  0
  139.8053   67.8398  226.0451 H   0  0  0  0  0  0  0  0  0  0  0  0
  141.4685   70.9998  228.4444 H   0  0  0  0  0  0  0  0  0  0  0  0
  141.2904   72.5497  226.4845 H   0  0  0  0  0  0  0  0  0  0  0  0
  1  2  2  0
  2  3  1  0
  3  4  1  0
  4  5  1  0
  5  6  2  0
  5  7  1  0
  7  8  1  0
  8  9  1  0
  9 10  1  0
 10 11  1  0
 11 12  1  0
 12 13  2  0
 13 14  1  0
 14 15  2  0
 15 16  1  0
 15 17  1  0
 17 18  2  0
  2 19  1  0
 19 20  2  0
 20 21  1  0
 21 22  2  0
 22 23  1  0
 23 24  2  0
 24 25  1  0
 24 26  1  0
 26 27  2  0
 27 28  1  0
 28 29  2  0
 11  7  1  0
 18 12  1  0
 29 19  1  0
 28 22  1  0
  3 30  1  0
  4 31  1  0
  4 32  1  0
  8 33  1  0
  8 34  1  0
  9 35  1  0
  9 36  1  0
 10 37  1  0
 10 38  1  0
 11 39  1  6
 13 40  1  0
 14 41  1  0
 16 42  1  0
 17 43  1  0
 18 44  1  0
 20 45  1  0
 21 46  1  0
 23 47  1  0
 26 48  1  0
 27 49  1  0
M  END
>  <smiles>  (82) 
O=C(NCC(=O)N1CCCC1c1ccc(O)cc1)c1ccc2cc(Cl)ccc2n1

>  <score_type>  (82) 
oracle

>  <origin>  (82) 
autodockgpu

>  <m_score__min__energy>  (82) 
-8.5700000000000003

>  <m_primary>  (82) 
energy

>  <rmsd>  (82) 
2.164907512303324

>  <m_score__min__rmsd>  (82) 
2.164907512303324

>  <meeko>  (82) 
{"free_energy": -8.5, "intermolecular_energy": -10.29, "internal_energy": -1.74, "cluster_size": 15, "cluster_id": 1, "rank_in_cluster": 3}

>  <energy>  (82) 
-7.77

>  <cluster_rmsd>  (82) 
1.07

>  <cluster>  (82) 
3

$$$$

     RDKit          3D

 49 52  0  0  0  0  0  0  0  0999 V2000
  139.7620   72.3070  220.8070 O   0  0  0  0  0  0  0  0  0  0  0  0
  139.6880   72.6710  222.0200 C   0  0  0  0  0  0  0  0  0  0  0  0
  139.4790   74.0400  222.3460 N   0  0  0  0  0  0  0  0  0  0  0  0
  139.3460   75.0460  221.3420 C   0  0  0  0  0  0  0  0  0  0  0  0
  140.6360   75.7150  221.0310 C   0  0  0  0  0  0  0  0  0  0  0  0
  141.6840   75.0550  221.2560 O   0  0  0  0  0  0  0  0  0  0  0  0
  140.6310   77.0360  220.5110 N   0  0  0  0  0  0  0  0  0  0  0  0
  139.4720   77.7880  220.0780 C   0  0  0  0  0  0  0  0  0  0  0  0
  139.9990   78.9950  219.3760 C   0  0  0  0  0  0  0  0  0  0  0  0
  141.4140   78.5940  219.0230 C   0  0  0  0  0  0  0  0  0  0  0  0
  141.8090   77.8770  220.3160 C   0  0  1  0  0  0  0  0  0  0  0  0
  141.8540   78.8280  221.4500 C   0  0  0  0  0  0  0  0  0  0  0  0
  141.6030   78.4930  222.7550 C   0  0  0  0  0  0  0  0  0  0  0  0
  141.6520   79.3950  223.8040 C   0  0  0  0  0  0  0  0  0  0  0  0
  141.9660   80.7150  223.5590 C   0  0  0  0  0  0  0  0  0  0  0  0
  142.0250   81.6510  224.5820 O   0  0  0  0  0  0  0  0  0  0  0  0
  142.2240   81.0830  222.2560 C   0  0  0  0  0  0  0  0  0  0  0  0
  142.1730   80.1670  221.2100 C   0  0  0  0  0  0  0  0  0  0  0  0
  139.8160   71.6840  223.1150 C   0  0  0  0  0  0  0  0  0  0  0  0
  139.4100   70.3830  222.8820 C   0  0  0  0  0  0  0  0  0  0  0  0
  139.5460   69.4880  223.9310 C   0  0  0  0  0  0  0  0  0  0  0  0
  140.0550   69.8420  225.1550 C   0  0  0  0  0  0  0  0  0  0  0  0
  140.1840   68.9480  226.1820 C   0  0  0  0  0  0  0  0  0  0  0  0
  140.7020   69.3630  227.3830 C   0  0  0  0  0  0  0  0  0  0  0  0
  140.8880   68.2580  228.7320 Cl  0  0  0  0  0  0  0  0  0  0  0  0
  141.0990   70.6700  227.5840 C   0  0  0  0  0  0  0  0  0  0  0  0
  140.9630   71.5710  226.5310 C   0  0  0  0  0  0  0  0  0  0  0  0
  140.4420   71.1550  225.3210 C   0  0  0  0  0  0  0  0  0  0  0  0
  140.3270   72.0740  224.3170 N   0  0  0  0  0  0  0  0  0  0  0  0
  139.4260   74.2830  223.3760 H   0  0  0  0  0  0  0  0  0  0  0  0
  138.9607   74.5789  220.4237 H   0  0  0  0  0  0  0  0  0  0  0  0
  138.6567   75.8122  221.7264 H   0  0  0  0  0  0  0  0  0  0  0  0
  138.8600   77.1843  219.3917 H   0  0  0  0  0  0  0  0  0  0  0  0
  138.8328   78.0657  220.9291 H   0  0  0  0  0  0  0  0  0  0  0  0
  139.4128   79.2133  218.4712 H   0  0  0  0  0  0  0  0  0  0  0  0
  139.9474   79.9083  219.9869 H   0  0  0  0  0  0  0  0  0  0  0  0
  141.4439   77.9190  218.1549 H   0  0  0  0  0  0  0  0  0  0  0  0
  142.0742   79.4234  218.7294 H   0  0  0  0  0  0  0  0  0  0  0  0
  142.7850   77.3722  220.2646 H   0  0  0  0  0  0  0  0  0  0  0  0
  141.3479   77.4473  222.9819 H   0  0  0  0  0  0  0  0  0  0  0  0
  141.4410   79.0596  224.8301 H   0  0  0  0  0  0  0  0  0  0  0  0
  141.1720   82.0270  225.0020 H   0  0  0  0  0  0  0  0  0  0  0  0
  142.4774   82.1307  222.0369 H   0  0  0  0  0  0  0  0  0  0  0  0
  142.3860   80.5003  220.1836 H   0  0  0  0  0  0  0  0  0  0  0  0
  138.9986   70.0732  221.9100 H   0  0  0  0  0  0  0  0  0  0  0  0
  139.2314   68.4455  223.7753 H   0  0  0  0  0  0  0  0  0  0  0  0
  139.8740   67.9014  226.0459 H   0  0  0  0  0  0  0  0  0  0  0  0
  141.5123   70.9914  228.5514 H   0  0  0  0  0  0  0  0  0  0  0  0
  141.2717   72.6185  226.6632 H   0  0  0  0  0  0  0  0  0  0  0  0
  1  2  2  0
  2  3  1  0
  3  4  1  0
  4  5  1  0
  5  6  2  0
  5  7  1  0
  7  8  1  0
  8  9  1  0
  9 10  1  0
 10 11  1  0
 11 12  1  0
 12 13  2  0
 13 14  1  0
 14 15  2  0
 15 16  1  0
 15 17  1  0
 17 18  2  0
  2 19  1  0
 19 20  2  0
 20 21  1  0
 21 22  2  0
 22 23  1  0
 23 24  2  0
 24 25  1  0
 24 26  1  0
 26 27  2  0
 27 28  1  0
 28 29  2  0
 11  7  1  0
 18 12  1  0
 29 19  1  0
 28 22  1  0
  3 30  1  0
  4 31  1  0
  4 32  1  0
  8 33  1  0
  8 34  1  0
  9 35  1  0
  9 36  1  0
 10 37  1  0
 10 38  1  0
 11 39  1  6
 13 40  1  0
 14 41  1  0
 16 42  1  0
 17 43  1  0
 18 44  1  0
 20 45  1  0
 21 46  1  0
 23 47  1  0
 26 48  1  0
 27 49  1  0
M  END
>  <smiles>  (83) 
O=C(NCC(=O)N1CCCC1c1ccc(O)cc1)c1ccc2cc(Cl)ccc2n1

>  <score_type>  (83) 
oracle

>  <origin>  (83) 
autodockgpu

>  <m_score__min__energy>  (83) 
-8.5700000000000003

>  <m_primary>  (83) 
energy

>  <rmsd>  (83) 
1.84164799974686

>  <m_score__min__rmsd>  (83) 
1.84164799974686

>  <meeko>  (83) 
{"free_energy": -8.01, "intermolecular_energy": -9.8, "internal_energy": -1.34, "cluster_size": 10, "cluster_id": 3, "rank_in_cluster": 3}

>  <energy>  (83) 
-7.76

>  <cluster_rmsd>  (83) 
0.95

>  <cluster>  (83) 
3

$$$$

     RDKit          3D

 49 52  0  0  0  0  0  0  0  0999 V2000
  140.0840   72.5090  220.8080 O   0  0  0  0  0  0  0  0  0  0  0  0
  139.8700   72.8430  222.0130 C   0  0  0  0  0  0  0  0  0  0  0  0
  139.5640   74.1930  222.3380 N   0  0  0  0  0  0  0  0  0  0  0  0
  139.4860   75.2130  221.3420 C   0  0  0  0  0  0  0  0  0  0  0  0
  140.7300   76.0210  221.2540 C   0  0  0  0  0  0  0  0  0  0  0  0
  141.7640   75.4240  220.8550 O   0  0  0  0  0  0  0  0  0  0  0  0
  140.7010   77.3930  221.6160 N   0  0  0  0  0  0  0  0  0  0  0  0
  141.4530   78.0200  222.6830 C   0  0  0  0  0  0  0  0  0  0  0  0
  140.8900   79.3940  222.8360 C   0  0  0  0  0  0  0  0  0  0  0  0
  139.5290   79.2790  222.1850 C   0  0  0  0  0  0  0  0  0  0  0  0
  139.8970   78.4250  220.9690 C   0  0  1  0  0  0  0  0  0  0  0  0
  140.7980   79.1700  220.0590 C   0  0  0  0  0  0  0  0  0  0  0  0
  141.7610   78.5900  219.2760 C   0  0  0  0  0  0  0  0  0  0  0  0
  142.5940   79.3010  218.4290 C   0  0  0  0  0  0  0  0  0  0  0  0
  142.4770   80.6720  218.3440 C   0  0  0  0  0  0  0  0  0  0  0  0
  143.2930   81.4220  217.5080 O   0  0  0  0  0  0  0  0  0  0  0  0
  141.5170   81.2840  219.1210 C   0  0  0  0  0  0  0  0  0  0  0  0
  140.6850   80.5590  219.9670 C   0  0  0  0  0  0  0  0  0  0  0  0
  139.9340   71.8400  223.0980 C   0  0  0  0  0  0  0  0  0  0  0  0
  139.4950   70.5550  222.8370 C   0  0  0  0  0  0  0  0  0  0  0  0
  139.5710   69.6440  223.8780 C   0  0  0  0  0  0  0  0  0  0  0  0
  140.0530   69.9670  225.1220 C   0  0  0  0  0  0  0  0  0  0  0  0
  140.1220   69.0580  226.1410 C   0  0  0  0  0  0  0  0  0  0  0  0
  140.6140   69.4430  227.3630 C   0  0  0  0  0  0  0  0  0  0  0  0
  140.7240   68.3170  228.7030 Cl  0  0  0  0  0  0  0  0  0  0  0  0
  141.0450   70.7350  227.5930 C   0  0  0  0  0  0  0  0  0  0  0  0
  140.9700   71.6520  226.5470 C   0  0  0  0  0  0  0  0  0  0  0  0
  140.4740   71.2660  225.3160 C   0  0  0  0  0  0  0  0  0  0  0  0
  140.4190   72.1990  224.3210 N   0  0  0  0  0  0  0  0  0  0  0  0
  139.3960   74.4120  223.3610 H   0  0  0  0  0  0  0  0  0  0  0  0
  139.3035   74.7394  220.3661 H   0  0  0  0  0  0  0  0  0  0  0  0
  138.6669   75.8914  221.6228 H   0  0  0  0  0  0  0  0  0  0  0  0
  141.3342   77.4527  223.6179 H   0  0  0  0  0  0  0  0  0  0  0  0
  142.5281   78.0502  222.4522 H   0  0  0  0  0  0  0  0  0  0  0  0
  140.7986   79.6678  223.8975 H   0  0  0  0  0  0  0  0  0  0  0  0
  141.5215   80.1737  222.3852 H   0  0  0  0  0  0  0  0  0  0  0  0
  138.8041   78.7710  222.8381 H   0  0  0  0  0  0  0  0  0  0  0  0
  139.0409   80.2368  221.9519 H   0  0  0  0  0  0  0  0  0  0  0  0
  139.0297   78.0912  220.3804 H   0  0  0  0  0  0  0  0  0  0  0  0
  141.8791   77.4974  219.3229 H   0  0  0  0  0  0  0  0  0  0  0  0
  143.3472   78.7734  217.8255 H   0  0  0  0  0  0  0  0  0  0  0  0
  143.6800   81.0210  216.6520 H   0  0  0  0  0  0  0  0  0  0  0  0
  141.4059   82.3772  219.0704 H   0  0  0  0  0  0  0  0  0  0  0  0
  139.9301   81.0849  220.5700 H   0  0  0  0  0  0  0  0  0  0  0  0
  139.1038   70.2695  221.8493 H   0  0  0  0  0  0  0  0  0  0  0  0
  139.2292   68.6138  223.6993 H   0  0  0  0  0  0  0  0  0  0  0  0
  139.7848   68.0231  225.9822 H   0  0  0  0  0  0  0  0  0  0  0  0
  141.4373   71.0322  228.5768 H   0  0  0  0  0  0  0  0  0  0  0  0
  141.3070   72.6877  226.7014 H   0  0  0  0  0  0  0  0  0  0  0  0
  1  2  2  0
  2  3  1  0
  3  4  1  0
  4  5  1  0
  5  6  2  0
  5  7  1  0
  7  8  1  0
  8  9  1  0
  9 10  1  0
 10 11  1  0
 11 12  1  0
 12 13  2  0
 13 14  1  0
 14 15  2  0
 15 16  1  0
 15 17  1  0
 17 18  2  0
  2 19  1  0
 19 20  2  0
 20 21  1  0
 21 22  2  0
 22 23  1  0
 23 24  2  0
 24 25  1  0
 24 26  1  0
 26 27  2  0
 27 28  1  0
 28 29  2  0
 11  7  1  0
 18 12  1  0
 29 19  1  0
 28 22  1  0
  3 30  1  0
  4 31  1  0
  4 32  1  0
  8 33  1  0
  8 34  1  0
  9 35  1  0
  9 36  1  0
 10 37  1  0
 10 38  1  0
 11 39  1  6
 13 40  1  0
 14 41  1  0
 16 42  1  0
 17 43  1  0
 18 44  1  0
 20 45  1  0
 21 46  1  0
 23 47  1  0
 26 48  1  0
 27 49  1  0
M  END
>  <smiles>  (84) 
O=C(NCC(=O)N1CCCC1c1ccc(O)cc1)c1ccc2cc(Cl)ccc2n1

>  <score_type>  (84) 
oracle

>  <origin>  (84) 
autodockgpu

>  <m_score__min__energy>  (84) 
-8.5700000000000003

>  <m_primary>  (84) 
energy

>  <rmsd>  (84) 
3.201839052986304

>  <m_score__min__rmsd>  (84) 
3.201839052986304

>  <meeko>  (84) 
{"free_energy": -8.19, "intermolecular_energy": -9.98, "internal_energy": -1.28, "cluster_size": 12, "cluster_id": 2, "rank_in_cluster": 8}

>  <energy>  (84) 
-7.67

>  <cluster_rmsd>  (84) 
1.12

>  <cluster>  (84) 
3

$$$$

     RDKit          3D

 49 52  0  0  0  0  0  0  0  0999 V2000
  138.0070   75.6490  222.4760 O   0  0  0  0  0  0  0  0  0  0  0  0
  139.1790   76.0400  222.1890 C   0  0  0  0  0  0  0  0  0  0  0  0
  139.5190   77.4170  222.2880 N   0  0  0  0  0  0  0  0  0  0  0  0
  138.5740   78.4030  222.7080 C   0  0  0  0  0  0  0  0  0  0  0  0
  139.1950   79.4730  223.5310 C   0  0  0  0  0  0  0  0  0  0  0  0
  138.4700   79.9980  224.4150 O   0  0  0  0  0  0  0  0  0  0  0  0
  140.5430   79.8470  223.2900 N   0  0  0  0  0  0  0  0  0  0  0  0
  141.7270   79.1680  223.7760 C   0  0  0  0  0  0  0  0  0  0  0  0
  142.8750   80.0780  223.4870 C   0  0  0  0  0  0  0  0  0  0  0  0
  142.2070   81.4230  223.3100 C   0  0  0  0  0  0  0  0  0  0  0  0
  140.9790   80.9970  222.5040 C   0  0  1  0  0  0  0  0  0  0  0  0
  141.3770   80.4850  221.1720 C   0  0  0  0  0  0  0  0  0  0  0  0
  141.4270   79.1590  220.8340 C   0  0  0  0  0  0  0  0  0  0  0  0
  141.8000   78.6970  219.5830 C   0  0  0  0  0  0  0  0  0  0  0  0
  142.1480   79.5960  218.5960 C   0  0  0  0  0  0  0  0  0  0  0  0
  142.5290   79.1750  217.3300 O   0  0  0  0  0  0  0  0  0  0  0  0
  142.1080   80.9380  218.9070 C   0  0  0  0  0  0  0  0  0  0  0  0
  141.7310   81.3900  220.1670 C   0  0  0  0  0  0  0  0  0  0  0  0
  140.2100   75.0760  221.7470 C   0  0  0  0  0  0  0  0  0  0  0  0
  139.9840   73.7270  221.9500 C   0  0  0  0  0  0  0  0  0  0  0  0
  140.9720   72.8550  221.5220 C   0  0  0  0  0  0  0  0  0  0  0  0
  142.1330   73.2760  220.9240 C   0  0  0  0  0  0  0  0  0  0  0  0
  143.1000   72.4040  220.5060 C   0  0  0  0  0  0  0  0  0  0  0  0
  144.2400   72.8870  219.9130 C   0  0  0  0  0  0  0  0  0  0  0  0
  145.5120   71.8140  219.3610 Cl  0  0  0  0  0  0  0  0  0  0  0  0
  144.4370   74.2410  219.7240 C   0  0  0  0  0  0  0  0  0  0  0  0
  143.4440   75.1190  220.1530 C   0  0  0  0  0  0  0  0  0  0  0  0
  142.2960   74.6340  220.7510 C   0  0  0  0  0  0  0  0  0  0  0  0
  141.3500   75.5320  221.1550 N   0  0  0  0  0  0  0  0  0  0  0  0
  140.5130   77.6830  222.0340 H   0  0  0  0  0  0  0  0  0  0  0  0
  138.1226   78.8615  221.8158 H   0  0  0  0  0  0  0  0  0  0  0  0
  137.8194   77.8989  223.3297 H   0  0  0  0  0  0  0  0  0  0  0  0
  141.6462   78.9873  224.8581 H   0  0  0  0  0  0  0  0  0  0  0  0
  141.8573   78.1901  223.2894 H   0  0  0  0  0  0  0  0  0  0  0  0
  143.5855   80.0969  224.3265 H   0  0  0  0  0  0  0  0  0  0  0  0
  143.4639   79.7680  222.6112 H   0  0  0  0  0  0  0  0  0  0  0  0
  141.9281   81.8718  224.2748 H   0  0  0  0  0  0  0  0  0  0  0  0
  142.8312   82.1947  222.8357 H   0  0  0  0  0  0  0  0  0  0  0  0
  140.2489   81.8046  222.3468 H   0  0  0  0  0  0  0  0  0  0  0  0
  141.1552   78.4181  221.6003 H   0  0  0  0  0  0  0  0  0  0  0  0
  141.8188   77.6167  219.3768 H   0  0  0  0  0  0  0  0  0  0  0  0
  143.4570   79.3910  216.9600 H   0  0  0  0  0  0  0  0  0  0  0  0
  142.3823   81.6731  218.1361 H   0  0  0  0  0  0  0  0  0  0  0  0
  141.7112   82.4700  220.3749 H   0  0  0  0  0  0  0  0  0  0  0  0
  139.0629   73.3632  222.4289 H   0  0  0  0  0  0  0  0  0  0  0  0
  140.8186   71.7756  221.6683 H   0  0  0  0  0  0  0  0  0  0  0  0
  142.9650   71.3211  220.6442 H   0  0  0  0  0  0  0  0  0  0  0  0
  145.3543   74.6164  219.2470 H   0  0  0  0  0  0  0  0  0  0  0  0
  143.5741   76.2026  220.0153 H   0  0  0  0  0  0  0  0  0  0  0  0
  1  2  2  0
  2  3  1  0
  3  4  1  0
  4  5  1  0
  5  6  2  0
  5  7  1  0
  7  8  1  0
  8  9  1  0
  9 10  1  0
 10 11  1  0
 11 12  1  0
 12 13  2  0
 13 14  1  0
 14 15  2  0
 15 16  1  0
 15 17  1  0
 17 18  2  0
  2 19  1  0
 19 20  2  0
 20 21  1  0
 21 22  2  0
 22 23  1  0
 23 24  2  0
 24 25  1  0
 24 26  1  0
 26 27  2  0
 27 28  1  0
 28 29  2  0
 11  7  1  0
 18 12  1  0
 29 19  1  0
 28 22  1  0
  3 30  1  0
  4 31  1  0
  4 32  1  0
  8 33  1  0
  8 34  1  0
  9 35  1  0
  9 36  1  0
 10 37  1  0
 10 38  1  0
 11 39  1  6
 13 40  1  0
 14 41  1  0
 16 42  1  0
 17 43  1  0
 18 44  1  0
 20 45  1  0
 21 46  1  0
 23 47  1  0
 26 48  1  0
 27 49  1  0
M  END
>  <smiles>  (85) 
O=C(NCC(=O)N1CCCC1c1ccc(O)cc1)c1ccc2cc(Cl)ccc2n1

>  <score_type>  (85) 
oracle

>  <origin>  (85) 
autodockgpu

>  <m_score__min__energy>  (85) 
-8.5700000000000003

>  <m_primary>  (85) 
energy

>  <rmsd>  (85) 
6.677428380931114

>  <m_score__min__rmsd>  (85) 
6.677428380931114

>  <meeko>  (85) 
{"free_energy": -7.53, "intermolecular_energy": -9.32, "internal_energy": -1.73, "cluster_size": 4, "cluster_id": 6, "rank_in_cluster": 1}

>  <energy>  (85) 
-7.46

>  <cluster_rmsd>  (85) 
1.07

>  <cluster>  (85) 
3

$$$$

     RDKit          3D

 49 52  0  0  0  0  0  0  0  0999 V2000
  139.6740   72.1650  220.7950 O   0  0  0  0  0  0  0  0  0  0  0  0
  139.6700   72.5420  222.0060 C   0  0  0  0  0  0  0  0  0  0  0  0
  139.5390   73.9220  222.3260 N   0  0  0  0  0  0  0  0  0  0  0  0
  139.4090   74.9240  221.3170 C   0  0  0  0  0  0  0  0  0  0  0  0
  140.6770   75.6610  221.0790 C   0  0  0  0  0  0  0  0  0  0  0  0
  141.7440   75.0580  221.3660 O   0  0  0  0  0  0  0  0  0  0  0  0
  140.6320   76.9780  220.5520 N   0  0  0  0  0  0  0  0  0  0  0  0
  139.4490   77.7000  220.1320 C   0  0  0  0  0  0  0  0  0  0  0  0
  139.9360   78.9160  219.4180 C   0  0  0  0  0  0  0  0  0  0  0  0
  141.3560   78.5480  219.0470 C   0  0  0  0  0  0  0  0  0  0  0  0
  141.7860   77.8470  220.3370 C   0  0  1  0  0  0  0  0  0  0  0  0
  141.8230   78.8050  221.4660 C   0  0  0  0  0  0  0  0  0  0  0  0
  141.5280   78.4850  222.7650 C   0  0  0  0  0  0  0  0  0  0  0  0
  141.5690   79.3930  223.8100 C   0  0  0  0  0  0  0  0  0  0  0  0
  141.9230   80.7030  223.5660 C   0  0  0  0  0  0  0  0  0  0  0  0
  141.9760   81.6440  224.5840 O   0  0  0  0  0  0  0  0  0  0  0  0
  142.2260   81.0550  222.2680 C   0  0  0  0  0  0  0  0  0  0  0  0
  142.1810   80.1340  221.2270 C   0  0  0  0  0  0  0  0  0  0  0  0
  139.8000   71.5600  223.1040 C   0  0  0  0  0  0  0  0  0  0  0  0
  139.4060   70.2550  222.8750 C   0  0  0  0  0  0  0  0  0  0  0  0
  139.5430   69.3640  223.9270 C   0  0  0  0  0  0  0  0  0  0  0  0
  140.0440   69.7270  225.1520 C   0  0  0  0  0  0  0  0  0  0  0  0
  140.1750   68.8370  226.1830 C   0  0  0  0  0  0  0  0  0  0  0  0
  140.6830   69.2600  227.3860 C   0  0  0  0  0  0  0  0  0  0  0  0
  140.8720   68.1620  228.7390 Cl  0  0  0  0  0  0  0  0  0  0  0  0
  141.0690   70.5710  227.5840 C   0  0  0  0  0  0  0  0  0  0  0  0
  140.9320   71.4680  226.5270 C   0  0  0  0  0  0  0  0  0  0  0  0
  140.4200   71.0430  225.3150 C   0  0  0  0  0  0  0  0  0  0  0  0
  140.3030   71.9580  224.3080 N   0  0  0  0  0  0  0  0  0  0  0  0
  139.5430   74.1760  223.3540 H   0  0  0  0  0  0  0  0  0  0  0  0
  139.1004   74.4410  220.3781 H   0  0  0  0  0  0  0  0  0  0  0  0
  138.6601   75.6514  221.6634 H   0  0  0  0  0  0  0  0  0  0  0  0
  138.8425   77.0785  219.4568 H   0  0  0  0  0  0  0  0  0  0  0  0
  138.8154   77.9660  220.9909 H   0  0  0  0  0  0  0  0  0  0  0  0
  139.3322   79.1157  218.5205 H   0  0  0  0  0  0  0  0  0  0  0  0
  139.8702   79.8306  220.0256 H   0  0  0  0  0  0  0  0  0  0  0  0
  141.3905   77.8700  218.1814 H   0  0  0  0  0  0  0  0  0  0  0  0
  141.9916   79.3920  218.7408 H   0  0  0  0  0  0  0  0  0  0  0  0
  142.7732   77.3658  220.2745 H   0  0  0  0  0  0  0  0  0  0  0  0
  141.2421   77.4471  222.9911 H   0  0  0  0  0  0  0  0  0  0  0  0
  141.3199   79.0700  224.8316 H   0  0  0  0  0  0  0  0  0  0  0  0
  142.8710   81.9520  224.9710 H   0  0  0  0  0  0  0  0  0  0  0  0
  142.5116   82.0945  222.0494 H   0  0  0  0  0  0  0  0  0  0  0  0
  142.4299   80.4553  220.2048 H   0  0  0  0  0  0  0  0  0  0  0  0
  139.0022   69.9384  221.9020 H   0  0  0  0  0  0  0  0  0  0  0  0
  139.2365   68.3188  223.7735 H   0  0  0  0  0  0  0  0  0  0  0  0
  139.8746   67.7874  226.0484 H   0  0  0  0  0  0  0  0  0  0  0  0
  141.4746   70.8989  228.5525 H   0  0  0  0  0  0  0  0  0  0  0  0
  141.2323   72.5182  226.6571 H   0  0  0  0  0  0  0  0  0  0  0  0
  1  2  2  0
  2  3  1  0
  3  4  1  0
  4  5  1  0
  5  6  2  0
  5  7  1  0
  7  8  1  0
  8  9  1  0
  9 10  1  0
 10 11  1  0
 11 12  1  0
 12 13  2  0
 13 14  1  0
 14 15  2  0
 15 16  1  0
 15 17  1  0
 17 18  2  0
  2 19  1  0
 19 20  2  0
 20 21  1  0
 21 22  2  0
 22 23  1  0
 23 24  2  0
 24 25  1  0
 24 26  1  0
 26 27  2  0
 27 28  1  0
 28 29  2  0
 11  7  1  0
 18 12  1  0
 29 19  1  0
 28 22  1  0
  3 30  1  0
  4 31  1  0
  4 32  1  0
  8 33  1  0
  8 34  1  0
  9 35  1  0
  9 36  1  0
 10 37  1  0
 10 38  1  0
 11 39  1  6
 13 40  1  0
 14 41  1  0
 16 42  1  0
 17 43  1  0
 18 44  1  0
 20 45  1  0
 21 46  1  0
 23 47  1  0
 26 48  1  0
 27 49  1  0
M  END
>  <smiles>  (86) 
O=C(NCC(=O)N1CCCC1c1ccc(O)cc1)c1ccc2cc(Cl)ccc2n1

>  <score_type>  (86) 
oracle

>  <origin>  (86) 
autodockgpu

>  <m_score__min__energy>  (86) 
-8.5700000000000003

>  <m_primary>  (86) 
energy

>  <rmsd>  (86) 
1.7877414339969004

>  <m_score__min__rmsd>  (86) 
1.7877414339969004

>  <meeko>  (86) 
{"free_energy": -8.07, "intermolecular_energy": -9.86, "internal_energy": -1.39, "cluster_size": 10, "cluster_id": 3, "rank_in_cluster": 2}

>  <energy>  (86) 
-7.35

>  <cluster_rmsd>  (86) 
1.52

>  <cluster>  (86) 
3

$$$$

     RDKit          3D

 49 52  0  0  0  0  0  0  0  0999 V2000
  139.9570   72.7020  220.6150 O   0  0  0  0  0  0  0  0  0  0  0  0
  139.8400   73.0070  221.8410 C   0  0  0  0  0  0  0  0  0  0  0  0
  139.6610   74.3630  222.2280 N   0  0  0  0  0  0  0  0  0  0  0  0
  139.6050   75.4230  221.2720 C   0  0  0  0  0  0  0  0  0  0  0  0
  140.9270   76.0690  221.0600 C   0  0  0  0  0  0  0  0  0  0  0  0
  141.8100   75.3760  220.4910 O   0  0  0  0  0  0  0  0  0  0  0  0
  141.1320   77.4030  221.4980 N   0  0  0  0  0  0  0  0  0  0  0  0
  141.4350   78.5480  220.6640 C   0  0  0  0  0  0  0  0  0  0  0  0
  141.8170   79.6500  221.5950 C   0  0  0  0  0  0  0  0  0  0  0  0
  142.1860   78.9120  222.8640 C   0  0  0  0  0  0  0  0  0  0  0  0
  141.0740   77.8610  222.8830 C   0  0  1  0  0  0  0  0  0  0  0  0
  139.7520   78.5010  223.0730 C   0  0  0  0  0  0  0  0  0  0  0  0
  138.5850   78.0520  222.5110 C   0  0  0  0  0  0  0  0  0  0  0  0
  137.3560   78.6610  222.7000 C   0  0  0  0  0  0  0  0  0  0  0  0
  137.2630   79.7870  223.4920 C   0  0  0  0  0  0  0  0  0  0  0  0
  136.0520   80.4280  223.7070 O   0  0  0  0  0  0  0  0  0  0  0  0
  138.4210   80.2620  224.0710 C   0  0  0  0  0  0  0  0  0  0  0  0
  139.6490   79.6410  223.8740 C   0  0  0  0  0  0  0  0  0  0  0  0
  139.8870   71.9620  222.8860 C   0  0  0  0  0  0  0  0  0  0  0  0
  139.3860   70.7080  222.5910 C   0  0  0  0  0  0  0  0  0  0  0  0
  139.4480   69.7560  223.5960 C   0  0  0  0  0  0  0  0  0  0  0  0
  139.9750   70.0120  224.8370 C   0  0  0  0  0  0  0  0  0  0  0  0
  140.0300   69.0630  225.8200 C   0  0  0  0  0  0  0  0  0  0  0  0
  140.5700   69.3800  227.0410 C   0  0  0  0  0  0  0  0  0  0  0  0
  140.6650   68.2020  228.3370 Cl  0  0  0  0  0  0  0  0  0  0  0  0
  141.0620   70.6430  227.3060 C   0  0  0  0  0  0  0  0  0  0  0  0
  141.0010   71.6010  226.2970 C   0  0  0  0  0  0  0  0  0  0  0  0
  140.4580   71.2830  225.0660 C   0  0  0  0  0  0  0  0  0  0  0  0
  140.4180   72.2540  224.1080 N   0  0  0  0  0  0  0  0  0  0  0  0
  139.5700   74.5560  223.2650 H   0  0  0  0  0  0  0  0  0  0  0  0
  139.2540   75.0147  220.3128 H   0  0  0  0  0  0  0  0  0  0  0  0
  138.9177   76.1884  221.6616 H   0  0  0  0  0  0  0  0  0  0  0  0
  142.2688   78.3157  219.9852 H   0  0  0  0  0  0  0  0  0  0  0  0
  140.5736   78.8297  220.0406 H   0  0  0  0  0  0  0  0  0  0  0  0
  142.6743   80.2179  221.2045 H   0  0  0  0  0  0  0  0  0  0  0  0
  141.0167   80.3903  221.7415 H   0  0  0  0  0  0  0  0  0  0  0  0
  143.1830   78.4523  222.7953 H   0  0  0  0  0  0  0  0  0  0  0  0
  142.2511   79.5385  223.7658 H   0  0  0  0  0  0  0  0  0  0  0  0
  141.1931   77.1009  223.6691 H   0  0  0  0  0  0  0  0  0  0  0  0
  138.6274   77.1566  221.8734 H   0  0  0  0  0  0  0  0  0  0  0  0
  136.4563   78.2483  222.2201 H   0  0  0  0  0  0  0  0  0  0  0  0
  135.3610   80.5140  222.9590 H   0  0  0  0  0  0  0  0  0  0  0  0
  138.3715   81.1581  224.7070 H   0  0  0  0  0  0  0  0  0  0  0  0
  140.5495   80.0517  224.3540 H   0  0  0  0  0  0  0  0  0  0  0  0
  138.9580   70.4766  221.6045 H   0  0  0  0  0  0  0  0  0  0  0  0
  139.0568   68.7488  223.3896 H   0  0  0  0  0  0  0  0  0  0  0  0
  139.6432   68.0504  225.6329 H   0  0  0  0  0  0  0  0  0  0  0  0
  141.4912   70.8861  228.2892 H   0  0  0  0  0  0  0  0  0  0  0  0
  141.3865   72.6148  226.4802 H   0  0  0  0  0  0  0  0  0  0  0  0
  1  2  2  0
  2  3  1  0
  3  4  1  0
  4  5  1  0
  5  6  2  0
  5  7  1  0
  7  8  1  0
  8  9  1  0
  9 10  1  0
 10 11  1  0
 11 12  1  0
 12 13  2  0
 13 14  1  0
 14 15  2  0
 15 16  1  0
 15 17  1  0
 17 18  2  0
  2 19  1  0
 19 20  2  0
 20 21  1  0
 21 22  2  0
 22 23  1  0
 23 24  2  0
 24 25  1  0
 24 26  1  0
 26 27  2  0
 27 28  1  0
 28 29  2  0
 11  7  1  0
 18 12  1  0
 29 19  1  0
 28 22  1  0
  3 30  1  0
  4 31  1  0
  4 32  1  0
  8 33  1  0
  8 34  1  0
  9 35  1  0
  9 36  1  0
 10 37  1  0
 10 38  1  0
 11 39  1  1
 13 40  1  0
 14 41  1  0
 16 42  1  0
 17 43  1  0
 18 44  1  0
 20 45  1  0
 21 46  1  0
 23 47  1  0
 26 48  1  0
 27 49  1  0
M  END
>  <smiles>  (87) 
O=C(NCC(=O)N1CCCC1c1ccc(O)cc1)c1ccc2cc(Cl)ccc2n1

>  <score_type>  (87) 
oracle

>  <origin>  (87) 
autodockgpu

>  <m_score__min__energy>  (87) 
-8.5700000000000003

>  <m_primary>  (87) 
energy

>  <rmsd>  (87) 
3.081808789574457

>  <m_score__min__rmsd>  (87) 
3.081808789574457

>  <meeko>  (87) 
{"free_energy": -7.89, "intermolecular_energy": -9.68, "internal_energy": -1.29, "cluster_size": 4, "cluster_id": 4, "rank_in_cluster": 3}

>  <energy>  (87) 
-7.07

>  <cluster_rmsd>  (87) 
1.66

>  <cluster>  (87) 
3

$$$$

     RDKit          3D

 49 52  0  0  0  0  0  0  0  0999 V2000
  140.6210   72.5040  220.8920 O   0  0  0  0  0  0  0  0  0  0  0  0
  140.0000   72.7280  221.9750 C   0  0  0  0  0  0  0  0  0  0  0  0
  139.2750   73.9390  222.1490 N   0  0  0  0  0  0  0  0  0  0  0  0
  139.2160   74.9390  221.1310 C   0  0  0  0  0  0  0  0  0  0  0  0
  140.4580   75.7530  221.0600 C   0  0  0  0  0  0  0  0  0  0  0  0
  141.4800   75.1840  220.5970 O   0  0  0  0  0  0  0  0  0  0  0  0
  140.4380   77.1000  221.5060 N   0  0  0  0  0  0  0  0  0  0  0  0
  141.1410   77.6400  222.6510 C   0  0  0  0  0  0  0  0  0  0  0  0
  140.5990   79.0160  222.8600 C   0  0  0  0  0  0  0  0  0  0  0  0
  139.2760   78.9760  222.1280 C   0  0  0  0  0  0  0  0  0  0  0  0
  139.6940   78.1910  220.8830 C   0  0  1  0  0  0  0  0  0  0  0  0
  140.6620   78.9680  220.0730 C   0  0  0  0  0  0  0  0  0  0  0  0
  141.6610   78.4140  219.3170 C   0  0  0  0  0  0  0  0  0  0  0  0
  142.5570   79.1550  218.5650 C   0  0  0  0  0  0  0  0  0  0  0  0
  142.4680   80.5320  218.5530 C   0  0  0  0  0  0  0  0  0  0  0  0
  143.3450   81.3110  217.8130 O   0  0  0  0  0  0  0  0  0  0  0  0
  141.4720   81.1170  219.3040 C   0  0  0  0  0  0  0  0  0  0  0  0
  140.5780   80.3620  220.0560 C   0  0  0  0  0  0  0  0  0  0  0  0
  140.0160   71.7370  223.0730 C   0  0  0  0  0  0  0  0  0  0  0  0
  139.5210   70.4700  222.8280 C   0  0  0  0  0  0  0  0  0  0  0  0
  139.5530   69.5690  223.8800 C   0  0  0  0  0  0  0  0  0  0  0  0
  140.0460   69.8880  225.1210 C   0  0  0  0  0  0  0  0  0  0  0  0
  140.0720   68.9890  226.1520 C   0  0  0  0  0  0  0  0  0  0  0  0
  140.5790   69.3680  227.3710 C   0  0  0  0  0  0  0  0  0  0  0  0
  140.6350   68.2560  228.7260 Cl  0  0  0  0  0  0  0  0  0  0  0  0
  141.0660   70.6420  227.5850 C   0  0  0  0  0  0  0  0  0  0  0  0
  141.0340   71.5480  226.5270 C   0  0  0  0  0  0  0  0  0  0  0  0
  140.5250   71.1680  225.3000 C   0  0  0  0  0  0  0  0  0  0  0  0
  140.5140   72.0900  224.2930 N   0  0  0  0  0  0  0  0  0  0  0  0
  138.7770   74.0690  223.0750 H   0  0  0  0  0  0  0  0  0  0  0  0
  139.0617   74.4454  220.1601 H   0  0  0  0  0  0  0  0  0  0  0  0
  138.3854   75.6172  221.3764 H   0  0  0  0  0  0  0  0  0  0  0  0
  140.9571   77.0184  223.5397 H   0  0  0  0  0  0  0  0  0  0  0  0
  142.2279   77.6579  222.4829 H   0  0  0  0  0  0  0  0  0  0  0  0
  140.4525   79.2248  223.9300 H   0  0  0  0  0  0  0  0  0  0  0  0
  141.2718   79.8066  222.4961 H   0  0  0  0  0  0  0  0  0  0  0  0
  138.5041   78.4466  222.7059 H   0  0  0  0  0  0  0  0  0  0  0  0
  138.8231   79.9586  221.9295 H   0  0  0  0  0  0  0  0  0  0  0  0
  138.8540   77.9171  220.2277 H   0  0  0  0  0  0  0  0  0  0  0  0
  141.7569   77.3182  219.3067 H   0  0  0  0  0  0  0  0  0  0  0  0
  143.3374   78.6475  217.9790 H   0  0  0  0  0  0  0  0  0  0  0  0
  143.9810   80.8880  217.1330 H   0  0  0  0  0  0  0  0  0  0  0  0
  141.3811   82.2132  219.3090 H   0  0  0  0  0  0  0  0  0  0  0  0
  139.7972   80.8678  220.6430 H   0  0  0  0  0  0  0  0  0  0  0  0
  139.1200   70.1898  221.8428 H   0  0  0  0  0  0  0  0  0  0  0  0
  139.1662   68.5528  223.7135 H   0  0  0  0  0  0  0  0  0  0  0  0
  139.6890   67.9683  226.0055 H   0  0  0  0  0  0  0  0  0  0  0  0
  141.4690   70.9343  228.5659 H   0  0  0  0  0  0  0  0  0  0  0  0
  141.4155   72.5699  226.6691 H   0  0  0  0  0  0  0  0  0  0  0  0
  1  2  2  0
  2  3  1  0
  3  4  1  0
  4  5  1  0
  5  6  2  0
  5  7  1  0
  7  8  1  0
  8  9  1  0
  9 10  1  0
 10 11  1  0
 11 12  1  0
 12 13  2  0
 13 14  1  0
 14 15  2  0
 15 16  1  0
 15 17  1  0
 17 18  2  0
  2 19  1  0
 19 20  2  0
 20 21  1  0
 21 22  2  0
 22 23  1  0
 23 24  2  0
 24 25  1  0
 24 26  1  0
 26 27  2  0
 27 28  1  0
 28 29  2  0
 11  7  1  0
 18 12  1  0
 29 19  1  0
 28 22  1  0
  3 30  1  0
  4 31  1  0
  4 32  1  0
  8 33  1  0
  8 34  1  0
  9 35  1  0
  9 36  1  0
 10 37  1  0
 10 38  1  0
 11 39  1  6
 13 40  1  0
 14 41  1  0
 16 42  1  0
 17 43  1  0
 18 44  1  0
 20 45  1  0
 21 46  1  0
 23 47  1  0
 26 48  1  0
 27 49  1  0
M  END
>  <smiles>  (88) 
O=C(NCC(=O)N1CCCC1c1ccc(O)cc1)c1ccc2cc(Cl)ccc2n1

>  <score_type>  (88) 
oracle

>  <origin>  (88) 
autodockgpu

>  <m_score__min__energy>  (88) 
-8.5700000000000003

>  <m_primary>  (88) 
energy

>  <rmsd>  (88) 
3.0588532325787265

>  <m_score__min__rmsd>  (88) 
3.0588532325787265

>  <meeko>  (88) 
{"free_energy": -8.18, "intermolecular_energy": -9.97, "internal_energy": -1.17, "cluster_size": 12, "cluster_id": 2, "rank_in_cluster": 9}

>  <energy>  (88) 
-7.97

>  <cluster_rmsd>  (88) 
0.0

>  <cluster>  (88) 
4

$$$$

     RDKit          3D

 49 52  0  0  0  0  0  0  0  0999 V2000
  139.9280   72.0600  220.7240 O   0  0  0  0  0  0  0  0  0  0  0  0
  139.8140   72.4540  221.9250 C   0  0  0  0  0  0  0  0  0  0  0  0
  139.6110   73.8320  222.2110 N   0  0  0  0  0  0  0  0  0  0  0  0
  139.5290   74.8160  221.1790 C   0  0  0  0  0  0  0  0  0  0  0  0
  139.3110   76.1850  221.7140 C   0  0  0  0  0  0  0  0  0  0  0  0
  138.7150   76.2720  222.8190 O   0  0  0  0  0  0  0  0  0  0  0  0
  139.7700   77.3060  220.9740 N   0  0  0  0  0  0  0  0  0  0  0  0
  138.9470   78.3020  220.3170 C   0  0  0  0  0  0  0  0  0  0  0  0
  139.8720   79.1070  219.4660 C   0  0  0  0  0  0  0  0  0  0  0  0
  141.0720   78.2000  219.3130 C   0  0  0  0  0  0  0  0  0  0  0  0
  141.1670   77.6560  220.7400 C   0  0  1  0  0  0  0  0  0  0  0  0
  141.5080   78.7380  221.6920 C   0  0  0  0  0  0  0  0  0  0  0  0
  142.1700   79.8890  221.3540 C   0  0  0  0  0  0  0  0  0  0  0  0
  142.4790   80.8920  222.2570 C   0  0  0  0  0  0  0  0  0  0  0  0
  142.1170   80.7590  223.5810 C   0  0  0  0  0  0  0  0  0  0  0  0
  142.4080   81.7400  224.5170 O   0  0  0  0  0  0  0  0  0  0  0  0
  141.4500   79.6110  223.9510 C   0  0  0  0  0  0  0  0  0  0  0  0
  141.1440   78.6110  223.0350 C   0  0  0  0  0  0  0  0  0  0  0  0
  139.8880   71.4910  223.0450 C   0  0  0  0  0  0  0  0  0  0  0  0
  139.4550   70.1950  222.8330 C   0  0  0  0  0  0  0  0  0  0  0  0
  139.5410   69.3230  223.9060 C   0  0  0  0  0  0  0  0  0  0  0  0
  140.0260   69.6940  225.1350 C   0  0  0  0  0  0  0  0  0  0  0  0
  140.1050   68.8230  226.1860 C   0  0  0  0  0  0  0  0  0  0  0  0
  140.6010   69.2550  227.3910 C   0  0  0  0  0  0  0  0  0  0  0  0
  140.7240   68.1790  228.7710 Cl  0  0  0  0  0  0  0  0  0  0  0  0
  141.0260   70.5560  227.5710 C   0  0  0  0  0  0  0  0  0  0  0  0
  140.9410   71.4340  226.4930 C   0  0  0  0  0  0  0  0  0  0  0  0
  140.4420   71.0010  225.2790 C   0  0  0  0  0  0  0  0  0  0  0  0
  140.3770   71.8970  224.2520 N   0  0  0  0  0  0  0  0  0  0  0  0
  139.5230   74.1000  223.2320 H   0  0  0  0  0  0  0  0  0  0  0  0
  140.4685   74.8063  220.6069 H   0  0  0  0  0  0  0  0  0  0  0  0
  138.6665   74.5639  220.5446 H   0  0  0  0  0  0  0  0  0  0  0  0
  138.1821   77.8149  219.6944 H   0  0  0  0  0  0  0  0  0  0  0  0
  138.4206   78.9338  221.0475 H   0  0  0  0  0  0  0  0  0  0  0  0
  139.4175   79.3291  218.4892 H   0  0  0  0  0  0  0  0  0  0  0  0
  140.1216   80.0850  219.9033 H   0  0  0  0  0  0  0  0  0  0  0  0
  140.8897   77.3996  218.5808 H   0  0  0  0  0  0  0  0  0  0  0  0
  141.9828   78.6906  218.9393 H   0  0  0  0  0  0  0  0  0  0  0  0
  141.9126   76.8566  220.8623 H   0  0  0  0  0  0  0  0  0  0  0  0
  142.4733   80.0239  220.3053 H   0  0  0  0  0  0  0  0  0  0  0  0
  143.0121   81.7929  221.9191 H   0  0  0  0  0  0  0  0  0  0  0  0
  143.3200   81.7750  224.9780 H   0  0  0  0  0  0  0  0  0  0  0  0
  141.1511   79.4823  225.0018 H   0  0  0  0  0  0  0  0  0  0  0  0
  140.6096   77.7102  223.3711 H   0  0  0  0  0  0  0  0  0  0  0  0
  139.0608   69.8717  221.8583 H   0  0  0  0  0  0  0  0  0  0  0  0
  139.2049   68.2849  223.7664 H   0  0  0  0  0  0  0  0  0  0  0  0
  139.7727   67.7812  226.0666 H   0  0  0  0  0  0  0  0  0  0  0  0
  141.4218   70.8908  228.5412 H   0  0  0  0  0  0  0  0  0  0  0  0
  141.2724   72.4765  226.6084 H   0  0  0  0  0  0  0  0  0  0  0  0
  1  2  2  0
  2  3  1  0
  3  4  1  0
  4  5  1  0
  5  6  2  0
  5  7  1  0
  7  8  1  0
  8  9  1  0
  9 10  1  0
 10 11  1  0
 11 12  1  0
 12 13  2  0
 13 14  1  0
 14 15  2  0
 15 16  1  0
 15 17  1  0
 17 18  2  0
  2 19  1  0
 19 20  2  0
 20 21  1  0
 21 22  2  0
 22 23  1  0
 23 24  2  0
 24 25  1  0
 24 26  1  0
 26 27  2  0
 27 28  1  0
 28 29  2  0
 11  7  1  0
 18 12  1  0
 29 19  1  0
 28 22  1  0
  3 30  1  0
  4 31  1  0
  4 32  1  0
  8 33  1  0
  8 34  1  0
  9 35  1  0
  9 36  1  0
 10 37  1  0
 10 38  1  0
 11 39  1  6
 13 40  1  0
 14 41  1  0
 16 42  1  0
 17 43  1  0
 18 44  1  0
 20 45  1  0
 21 46  1  0
 23 47  1  0
 26 48  1  0
 27 49  1  0
M  END
>  <smiles>  (89) 
O=C(NCC(=O)N1CCCC1c1ccc(O)cc1)c1ccc2cc(Cl)ccc2n1

>  <score_type>  (89) 
oracle

>  <origin>  (89) 
autodockgpu

>  <m_score__min__energy>  (89) 
-8.5700000000000003

>  <m_primary>  (89) 
energy

>  <rmsd>  (89) 
1.9444777206392763

>  <m_score__min__rmsd>  (89) 
1.9444777206392763

>  <meeko>  (89) 
{"free_energy": -7.99, "intermolecular_energy": -9.78, "internal_energy": -1.68, "cluster_size": 10, "cluster_id": 3, "rank_in_cluster": 4}

>  <energy>  (89) 
-7.97

>  <cluster_rmsd>  (89) 
0.29

>  <cluster>  (89) 
4

$$$$

     RDKit          3D

 49 52  0  0  0  0  0  0  0  0999 V2000
  140.8010   72.3500  220.7410 O   0  0  0  0  0  0  0  0  0  0  0  0
  140.1300   72.6250  221.7820 C   0  0  0  0  0  0  0  0  0  0  0  0
  139.4040   73.8450  221.8640 N   0  0  0  0  0  0  0  0  0  0  0  0
  139.3990   74.7970  220.8000 C   0  0  0  0  0  0  0  0  0  0  0  0
  140.3050   75.9460  221.0590 C   0  0  0  0  0  0  0  0  0  0  0  0
  140.1180   76.5830  222.1280 O   0  0  0  0  0  0  0  0  0  0  0  0
  141.3140   76.2690  220.1140 N   0  0  0  0  0  0  0  0  0  0  0  0
  142.2030   77.4120  220.1580 C   0  0  0  0  0  0  0  0  0  0  0  0
  142.8870   77.4560  218.8320 C   0  0  0  0  0  0  0  0  0  0  0  0
  141.9750   76.6320  217.9500 C   0  0  0  0  0  0  0  0  0  0  0  0
  141.6370   75.4970  218.9180 C   0  0  1  0  0  0  0  0  0  0  0  0
  142.8440   74.6970  219.2310 C   0  0  0  0  0  0  0  0  0  0  0  0
  143.2840   74.4200  220.4980 C   0  0  0  0  0  0  0  0  0  0  0  0
  144.4150   73.6690  220.7730 C   0  0  0  0  0  0  0  0  0  0  0  0
  145.1660   73.1560  219.7370 C   0  0  0  0  0  0  0  0  0  0  0  0
  146.3060   72.4000  219.9680 O   0  0  0  0  0  0  0  0  0  0  0  0
  144.7480   73.4190  218.4500 C   0  0  0  0  0  0  0  0  0  0  0  0
  143.6100   74.1740  218.1860 C   0  0  0  0  0  0  0  0  0  0  0  0
  140.0880   71.6860  222.9240 C   0  0  0  0  0  0  0  0  0  0  0  0
  139.5250   70.4380  222.7340 C   0  0  0  0  0  0  0  0  0  0  0  0
  139.5050   69.5860  223.8260 C   0  0  0  0  0  0  0  0  0  0  0  0
  140.0100   69.9340  225.0540 C   0  0  0  0  0  0  0  0  0  0  0  0
  139.9830   69.0840  226.1250 C   0  0  0  0  0  0  0  0  0  0  0  0
  140.5060   69.4890  227.3280 C   0  0  0  0  0  0  0  0  0  0  0  0
  140.4960   68.4390  228.7330 Cl  0  0  0  0  0  0  0  0  0  0  0  0
  141.0610   70.7430  227.4870 C   0  0  0  0  0  0  0  0  0  0  0  0
  141.0830   71.6000  226.3880 C   0  0  0  0  0  0  0  0  0  0  0  0
  140.5580   71.1930  225.1770 C   0  0  0  0  0  0  0  0  0  0  0  0
  140.6010   72.0670  224.1290 N   0  0  0  0  0  0  0  0  0  0  0  0
  138.8630   74.0190  222.7580 H   0  0  0  0  0  0  0  0  0  0  0  0
  139.7217   74.2948  219.8761 H   0  0  0  0  0  0  0  0  0  0  0  0
  138.3763   75.1919  220.7102 H   0  0  0  0  0  0  0  0  0  0  0  0
  141.6290   78.3359  220.3223 H   0  0  0  0  0  0  0  0  0  0  0  0
  142.9276   77.3260  220.9812 H   0  0  0  0  0  0  0  0  0  0  0  0
  142.9666   78.4890  218.4625 H   0  0  0  0  0  0  0  0  0  0  0  0
  143.9185   77.0753  218.8639 H   0  0  0  0  0  0  0  0  0  0  0  0
  141.0787   77.1942  217.6491 H   0  0  0  0  0  0  0  0  0  0  0  0
  142.4146   76.3135  216.9933 H   0  0  0  0  0  0  0  0  0  0  0  0
  140.8676   74.8065  218.5422 H   0  0  0  0  0  0  0  0  0  0  0  0
  142.7062   74.8166  221.3458 H   0  0  0  0  0  0  0  0  0  0  0  0
  144.7131   73.4825  221.8153 H   0  0  0  0  0  0  0  0  0  0  0  0
  146.3970   71.8290  220.8110 H   0  0  0  0  0  0  0  0  0  0  0  0
  145.3315   73.0201  217.6071 H   0  0  0  0  0  0  0  0  0  0  0  0
  143.3102   74.3612  217.1443 H   0  0  0  0  0  0  0  0  0  0  0  0
  139.1119   70.1354  221.7605 H   0  0  0  0  0  0  0  0  0  0  0  0
  139.0646   68.5855  223.7036 H   0  0  0  0  0  0  0  0  0  0  0  0
  139.5443   68.0804  226.0230 H   0  0  0  0  0  0  0  0  0  0  0  0
  141.4753   71.0578  228.4562 H   0  0  0  0  0  0  0  0  0  0  0  0
  141.5203   72.6046  226.4855 H   0  0  0  0  0  0  0  0  0  0  0  0
  1  2  2  0
  2  3  1  0
  3  4  1  0
  4  5  1  0
  5  6  2  0
  5  7  1  0
  7  8  1  0
  8  9  1  0
  9 10  1  0
 10 11  1  0
 11 12  1  0
 12 13  2  0
 13 14  1  0
 14 15  2  0
 15 16  1  0
 15 17  1  0
 17 18  2  0
  2 19  1  0
 19 20  2  0
 20 21  1  0
 21 22  2  0
 22 23  1  0
 23 24  2  0
 24 25  1  0
 24 26  1  0
 26 27  2  0
 27 28  1  0
 28 29  2  0
 11  7  1  0
 18 12  1  0
 29 19  1  0
 28 22  1  0
  3 30  1  0
  4 31  1  0
  4 32  1  0
  8 33  1  0
  8 34  1  0
  9 35  1  0
  9 36  1  0
 10 37  1  0
 10 38  1  0
 11 39  1  6
 13 40  1  0
 14 41  1  0
 16 42  1  0
 17 43  1  0
 18 44  1  0
 20 45  1  0
 21 46  1  0
 23 47  1  0
 26 48  1  0
 27 49  1  0
M  END
>  <smiles>  (90) 
O=C(NCC(=O)N1CCCC1c1ccc(O)cc1)c1ccc2cc(Cl)ccc2n1

>  <score_type>  (90) 
oracle

>  <origin>  (90) 
autodockgpu

>  <m_score__min__energy>  (90) 
-8.5700000000000003

>  <m_primary>  (90) 
energy

>  <rmsd>  (90) 
2.2307178170054596

>  <m_score__min__rmsd>  (90) 
2.2307178170054596

>  <meeko>  (90) 
{"free_energy": -8.55, "intermolecular_energy": -10.34, "internal_energy": -1.63, "cluster_size": 15, "cluster_id": 1, "rank_in_cluster": 2}

>  <energy>  (90) 
-7.89

>  <cluster_rmsd>  (90) 
0.27

>  <cluster>  (90) 
4

$$$$

     RDKit          3D

 49 52  0  0  0  0  0  0  0  0999 V2000
  142.9770   76.1120  220.0860 O   0  0  0  0  0  0  0  0  0  0  0  0
  142.4610   74.9530  220.0730 C   0  0  0  0  0  0  0  0  0  0  0  0
  141.0590   74.7910  220.2430 N   0  0  0  0  0  0  0  0  0  0  0  0
  140.1850   75.9040  220.4330 C   0  0  0  0  0  0  0  0  0  0  0  0
  140.0330   76.2710  221.8650 C   0  0  0  0  0  0  0  0  0  0  0  0
  139.5880   75.3790  222.6330 O   0  0  0  0  0  0  0  0  0  0  0  0
  140.3860   77.5770  222.2940 N   0  0  0  0  0  0  0  0  0  0  0  0
  141.4530   77.9260  223.2100 C   0  0  0  0  0  0  0  0  0  0  0  0
  141.2560   79.3670  223.5470 C   0  0  0  0  0  0  0  0  0  0  0  0
  139.8060   79.6060  223.1900 C   0  0  0  0  0  0  0  0  0  0  0  0
  139.7280   78.8140  221.8830 C   0  0  1  0  0  0  0  0  0  0  0  0
  140.5810   79.4340  220.8430 C   0  0  0  0  0  0  0  0  0  0  0  0
  140.6970   80.7840  220.6380 C   0  0  0  0  0  0  0  0  0  0  0  0
  141.5010   81.3470  219.6620 C   0  0  0  0  0  0  0  0  0  0  0  0
  142.2400   80.5340  218.8290 C   0  0  0  0  0  0  0  0  0  0  0  0
  143.0580   81.0580  217.8380 O   0  0  0  0  0  0  0  0  0  0  0  0
  142.1440   79.1710  219.0110 C   0  0  0  0  0  0  0  0  0  0  0  0
  141.3340   78.6170  219.9960 C   0  0  0  0  0  0  0  0  0  0  0  0
  143.3050   73.7530  219.8800 C   0  0  0  0  0  0  0  0  0  0  0  0
  144.6710   73.9190  219.7490 C   0  0  0  0  0  0  0  0  0  0  0  0
  145.4270   72.7720  219.5710 C   0  0  0  0  0  0  0  0  0  0  0  0
  144.8790   71.5150  219.5220 C   0  0  0  0  0  0  0  0  0  0  0  0
  145.6370   70.3910  219.3450 C   0  0  0  0  0  0  0  0  0  0  0  0
  145.0290   69.1610  219.3050 C   0  0  0  0  0  0  0  0  0  0  0  0
  145.9540   67.6880  219.0800 Cl  0  0  0  0  0  0  0  0  0  0  0  0
  143.6620   69.0270  219.4380 C   0  0  0  0  0  0  0  0  0  0  0  0
  142.9000   70.1800  219.6180 C   0  0  0  0  0  0  0  0  0  0  0  0
  143.5100   71.4190  219.6590 C   0  0  0  0  0  0  0  0  0  0  0  0
  142.7230   72.5200  219.8370 N   0  0  0  0  0  0  0  0  0  0  0  0
  140.6870   73.7990  220.2230 H   0  0  0  0  0  0  0  0  0  0  0  0
  140.5919   76.7689  219.8886 H   0  0  0  0  0  0  0  0  0  0  0  0
  139.1926   75.6178  220.0544 H   0  0  0  0  0  0  0  0  0  0  0  0
  141.3922   77.3098  224.1192 H   0  0  0  0  0  0  0  0  0  0  0  0
  142.4415   77.7504  222.7605 H   0  0  0  0  0  0  0  0  0  0  0  0
  141.4350   79.5507  224.6167 H   0  0  0  0  0  0  0  0  0  0  0  0
  141.9489   80.0349  223.0142 H   0  0  0  0  0  0  0  0  0  0  0  0
  139.1245   79.2035  223.9539 H   0  0  0  0  0  0  0  0  0  0  0  0
  139.5133   80.6635  223.1124 H   0  0  0  0  0  0  0  0  0  0  0  0
  138.7104   78.7299  221.4737 H   0  0  0  0  0  0  0  0  0  0  0  0
  140.1182   81.4586  221.2860 H   0  0  0  0  0  0  0  0  0  0  0  0
  141.5502   82.4403  219.5512 H   0  0  0  0  0  0  0  0  0  0  0  0
  143.5960   80.4460  217.2210 H   0  0  0  0  0  0  0  0  0  0  0  0
  142.7248   78.5026  218.3584 H   0  0  0  0  0  0  0  0  0  0  0  0
  141.2855   77.5240  220.1096 H   0  0  0  0  0  0  0  0  0  0  0  0
  145.1359   74.9153  219.7844 H   0  0  0  0  0  0  0  0  0  0  0  0
  146.5171   72.8736  219.4640 H   0  0  0  0  0  0  0  0  0  0  0  0
  146.7285   70.4720  219.2352 H   0  0  0  0  0  0  0  0  0  0  0  0
  143.1861   68.0359  219.4029 H   0  0  0  0  0  0  0  0  0  0  0  0
  141.8082   70.1032  219.7279 H   0  0  0  0  0  0  0  0  0  0  0  0
  1  2  2  0
  2  3  1  0
  3  4  1  0
  4  5  1  0
  5  6  2  0
  5  7  1  0
  7  8  1  0
  8  9  1  0
  9 10  1  0
 10 11  1  0
 11 12  1  0
 12 13  2  0
 13 14  1  0
 14 15  2  0
 15 16  1  0
 15 17  1  0
 17 18  2  0
  2 19  1  0
 19 20  2  0
 20 21  1  0
 21 22  2  0
 22 23  1  0
 23 24  2  0
 24 25  1  0
 24 26  1  0
 26 27  2  0
 27 28  1  0
 28 29  2  0
 11  7  1  0
 18 12  1  0
 29 19  1  0
 28 22  1  0
  3 30  1  0
  4 31  1  0
  4 32  1  0
  8 33  1  0
  8 34  1  0
  9 35  1  0
  9 36  1  0
 10 37  1  0
 10 38  1  0
 11 39  1  6
 13 40  1  0
 14 41  1  0
 16 42  1  0
 17 43  1  0
 18 44  1  0
 20 45  1  0
 21 46  1  0
 23 47  1  0
 26 48  1  0
 27 49  1  0
M  END
>  <smiles>  (91) 
O=C(NCC(=O)N1CCCC1c1ccc(O)cc1)c1ccc2cc(Cl)ccc2n1

>  <score_type>  (91) 
oracle

>  <origin>  (91) 
autodockgpu

>  <m_score__min__energy>  (91) 
-8.5700000000000003

>  <m_primary>  (91) 
energy

>  <rmsd>  (91) 
6.7435608117401955

>  <m_score__min__rmsd>  (91) 
6.7435608117401955

>  <meeko>  (91) 
{"free_energy": -6.8, "intermolecular_energy": -8.59, "internal_energy": -1.63, "cluster_size": 1, "cluster_id": 9, "rank_in_cluster": 1}

>  <energy>  (91) 
-7.85

>  <cluster_rmsd>  (91) 
0.28

>  <cluster>  (91) 
4

$$$$

     RDKit          3D

 49 52  0  0  0  0  0  0  0  0999 V2000
  140.3580   72.5130  220.7270 O   0  0  0  0  0  0  0  0  0  0  0  0
  139.9960   72.8540  221.8940 C   0  0  0  0  0  0  0  0  0  0  0  0
  139.5580   74.1830  222.1470 N   0  0  0  0  0  0  0  0  0  0  0  0
  139.5080   75.1730  221.1200 C   0  0  0  0  0  0  0  0  0  0  0  0
  140.6300   76.1440  221.2080 C   0  0  0  0  0  0  0  0  0  0  0  0
  140.7240   76.8030  222.2760 O   0  0  0  0  0  0  0  0  0  0  0  0
  141.5220   76.2840  220.1140 N   0  0  0  0  0  0  0  0  0  0  0  0
  142.4330   77.3850  219.8780 C   0  0  0  0  0  0  0  0  0  0  0  0
  142.9500   77.2060  218.4890 C   0  0  0  0  0  0  0  0  0  0  0  0
  141.9200   76.2970  217.8560 C   0  0  0  0  0  0  0  0  0  0  0  0
  141.6800   75.3310  219.0190 C   0  0  1  0  0  0  0  0  0  0  0  0
  142.9000   74.5410  219.3040 C   0  0  0  0  0  0  0  0  0  0  0  0
  143.4820   74.4310  220.5400 C   0  0  0  0  0  0  0  0  0  0  0  0
  144.6220   73.6870  220.7900 C   0  0  0  0  0  0  0  0  0  0  0  0
  145.2340   73.0040  219.7600 C   0  0  0  0  0  0  0  0  0  0  0  0
  146.3780   72.2470  219.9680 O   0  0  0  0  0  0  0  0  0  0  0  0
  144.6720   73.0960  218.5050 C   0  0  0  0  0  0  0  0  0  0  0  0
  143.5260   73.8460  218.2660 C   0  0  0  0  0  0  0  0  0  0  0  0
  140.0210   71.8820  223.0080 C   0  0  0  0  0  0  0  0  0  0  0  0
  139.5520   70.6020  222.7790 C   0  0  0  0  0  0  0  0  0  0  0  0
  139.5920   69.7190  223.8460 C   0  0  0  0  0  0  0  0  0  0  0  0
  140.0690   70.0660  225.0850 C   0  0  0  0  0  0  0  0  0  0  0  0
  140.1030   69.1850  226.1310 C   0  0  0  0  0  0  0  0  0  0  0  0
  140.5920   69.5920  227.3470 C   0  0  0  0  0  0  0  0  0  0  0  0
  140.6580   68.5030  228.7200 Cl  0  0  0  0  0  0  0  0  0  0  0  0
  141.0540   70.8780  227.5450 C   0  0  0  0  0  0  0  0  0  0  0  0
  141.0140   71.7660  226.4720 C   0  0  0  0  0  0  0  0  0  0  0  0
  140.5220   71.3580  225.2470 C   0  0  0  0  0  0  0  0  0  0  0  0
  140.5030   72.2630  224.2250 N   0  0  0  0  0  0  0  0  0  0  0  0
  139.2690   74.4090  223.1410 H   0  0  0  0  0  0  0  0  0  0  0  0
  139.5532   74.6698  220.1429 H   0  0  0  0  0  0  0  0  0  0  0  0
  138.5704   75.7347  221.2436 H   0  0  0  0  0  0  0  0  0  0  0  0
  141.9028   78.3447  219.9670 H   0  0  0  0  0  0  0  0  0  0  0  0
  143.2515   77.3932  220.6129 H   0  0  0  0  0  0  0  0  0  0  0  0
  143.0050   78.1692  217.9606 H   0  0  0  0  0  0  0  0  0  0  0  0
  143.9695   76.7944  218.4561 H   0  0  0  0  0  0  0  0  0  0  0  0
  141.0053   76.8429  217.5816 H   0  0  0  0  0  0  0  0  0  0  0  0
  142.2320   75.8237  216.9133 H   0  0  0  0  0  0  0  0  0  0  0  0
  140.8564   74.6225  218.8466 H   0  0  0  0  0  0  0  0  0  0  0  0
  143.0163   74.9647  221.3816 H   0  0  0  0  0  0  0  0  0  0  0  0
  145.0386   73.6406  221.8070 H   0  0  0  0  0  0  0  0  0  0  0  0
  146.4940   71.6880  220.8160 H   0  0  0  0  0  0  0  0  0  0  0  0
  145.1439   72.5604  217.6680 H   0  0  0  0  0  0  0  0  0  0  0  0
  143.1080   73.8927  217.2496 H   0  0  0  0  0  0  0  0  0  0  0  0
  139.1649   70.2985  221.7951 H   0  0  0  0  0  0  0  0  0  0  0  0
  139.2248   68.6935  223.6930 H   0  0  0  0  0  0  0  0  0  0  0  0
  139.7401   68.1551  225.9980 H   0  0  0  0  0  0  0  0  0  0  0  0
  141.4435   71.1932  228.5242 H   0  0  0  0  0  0  0  0  0  0  0  0
  141.3759   72.7968  226.6008 H   0  0  0  0  0  0  0  0  0  0  0  0
  1  2  2  0
  2  3  1  0
  3  4  1  0
  4  5  1  0
  5  6  2  0
  5  7  1  0
  7  8  1  0
  8  9  1  0
  9 10  1  0
 10 11  1  0
 11 12  1  0
 12 13  2  0
 13 14  1  0
 14 15  2  0
 15 16  1  0
 15 17  1  0
 17 18  2  0
  2 19  1  0
 19 20  2  0
 20 21  1  0
 21 22  2  0
 22 23  1  0
 23 24  2  0
 24 25  1  0
 24 26  1  0
 26 27  2  0
 27 28  1  0
 28 29  2  0
 11  7  1  0
 18 12  1  0
 29 19  1  0
 28 22  1  0
  3 30  1  0
  4 31  1  0
  4 32  1  0
  8 33  1  0
  8 34  1  0
  9 35  1  0
  9 36  1  0
 10 37  1  0
 10 38  1  0
 11 39  1  6
 13 40  1  0
 14 41  1  0
 16 42  1  0
 17 43  1  0
 18 44  1  0
 20 45  1  0
 21 46  1  0
 23 47  1  0
 26 48  1  0
 27 49  1  0
M  END
>  <smiles>  (92) 
O=C(NCC(=O)N1CCCC1c1ccc(O)cc1)c1ccc2cc(Cl)ccc2n1

>  <score_type>  (92) 
oracle

>  <origin>  (92) 
autodockgpu

>  <m_score__min__energy>  (92) 
-8.5700000000000003

>  <m_primary>  (92) 
energy

>  <rmsd>  (92) 
2.3055749145393927

>  <m_score__min__rmsd>  (92) 
2.3055749145393927

>  <meeko>  (92) 
{"free_energy": -8.57, "intermolecular_energy": -10.36, "internal_energy": -1.7, "cluster_size": 15, "cluster_id": 1, "rank_in_cluster": 1}

>  <energy>  (92) 
-7.61

>  <cluster_rmsd>  (92) 
0.0

>  <cluster>  (92) 
5

$$$$

     RDKit          3D

 49 52  0  0  0  0  0  0  0  0999 V2000
  139.9180   72.6120  220.7550 O   0  0  0  0  0  0  0  0  0  0  0  0
  139.7840   72.9300  221.9760 C   0  0  0  0  0  0  0  0  0  0  0  0
  139.5510   74.2840  222.3420 N   0  0  0  0  0  0  0  0  0  0  0  0
  139.4590   75.3260  221.3700 C   0  0  0  0  0  0  0  0  0  0  0  0
  139.5420   76.6800  221.9780 C   0  0  0  0  0  0  0  0  0  0  0  0
  138.8510   76.8790  223.0100 O   0  0  0  0  0  0  0  0  0  0  0  0
  140.3740   77.6640  221.3820 N   0  0  0  0  0  0  0  0  0  0  0  0
  141.4390   78.4000  222.0300 C   0  0  0  0  0  0  0  0  0  0  0  0
  141.8290   79.4860  221.0830 C   0  0  0  0  0  0  0  0  0  0  0  0
  140.6230   79.5980  220.1770 C   0  0  0  0  0  0  0  0  0  0  0  0
  140.2990   78.1140  219.9950 C   0  0  1  0  0  0  0  0  0  0  0  0
  141.3850   77.4260  219.2580 C   0  0  0  0  0  0  0  0  0  0  0  0
  141.9730   76.2550  219.6570 C   0  0  0  0  0  0  0  0  0  0  0  0
  142.9860   75.6250  218.9550 C   0  0  0  0  0  0  0  0  0  0  0  0
  143.4550   76.1790  217.7820 C   0  0  0  0  0  0  0  0  0  0  0  0
  144.4690   75.5810  217.0480 O   0  0  0  0  0  0  0  0  0  0  0  0
  142.8820   77.3580  217.3550 C   0  0  0  0  0  0  0  0  0  0  0  0
  141.8650   77.9820  218.0690 C   0  0  0  0  0  0  0  0  0  0  0  0
  139.8670   71.9030  223.0380 C   0  0  0  0  0  0  0  0  0  0  0  0
  139.4500   70.6170  222.7480 C   0  0  0  0  0  0  0  0  0  0  0  0
  139.5440   69.6830  223.7670 C   0  0  0  0  0  0  0  0  0  0  0  0
  140.0220   69.9860  225.0170 C   0  0  0  0  0  0  0  0  0  0  0  0
  140.1080   69.0550  226.0150 C   0  0  0  0  0  0  0  0  0  0  0  0
  140.5960   69.4200  227.2450 C   0  0  0  0  0  0  0  0  0  0  0  0
  140.7280   68.2660  228.5580 Cl  0  0  0  0  0  0  0  0  0  0  0  0
  141.0050   70.7130  227.5040 C   0  0  0  0  0  0  0  0  0  0  0  0
  140.9120   71.6530  226.4790 C   0  0  0  0  0  0  0  0  0  0  0  0
  140.4210   71.2870  225.2400 C   0  0  0  0  0  0  0  0  0  0  0  0
  140.3480   72.2420  224.2680 N   0  0  0  0  0  0  0  0  0  0  0  0
  139.4480   74.4880  223.3760 H   0  0  0  0  0  0  0  0  0  0  0  0
  140.2831   75.2112  220.6505 H   0  0  0  0  0  0  0  0  0  0  0  0
  138.4786   75.2395  220.8788 H   0  0  0  0  0  0  0  0  0  0  0  0
  141.0837   78.8299  222.9781 H   0  0  0  0  0  0  0  0  0  0  0  0
  142.2924   77.7472  222.2655 H   0  0  0  0  0  0  0  0  0  0  0  0
  142.0108   80.4301  221.6175 H   0  0  0  0  0  0  0  0  0  0  0  0
  142.7610   79.2724  220.5391 H   0  0  0  0  0  0  0  0  0  0  0  0
  139.7972   80.1413  220.6596 H   0  0  0  0  0  0  0  0  0  0  0  0
  140.7907   80.1565  219.2443 H   0  0  0  0  0  0  0  0  0  0  0  0
  139.3587   77.9275  219.4554 H   0  0  0  0  0  0  0  0  0  0  0  0
  141.6200   75.7886  220.5886 H   0  0  0  0  0  0  0  0  0  0  0  0
  143.4159   74.6851  219.3315 H   0  0  0  0  0  0  0  0  0  0  0  0
  145.3860   76.0230  216.9580 H   0  0  0  0  0  0  0  0  0  0  0  0
  143.2398   77.8185  216.4223 H   0  0  0  0  0  0  0  0  0  0  0  0
  141.4341   78.9222  217.6944 H   0  0  0  0  0  0  0  0  0  0  0  0
  139.0617   70.3480  221.7546 H   0  0  0  0  0  0  0  0  0  0  0  0
  139.2206   68.6513  223.5647 H   0  0  0  0  0  0  0  0  0  0  0  0
  139.7876   68.0186  225.8330 H   0  0  0  0  0  0  0  0  0  0  0  0
  141.3942   70.9941  228.4937 H   0  0  0  0  0  0  0  0  0  0  0  0
  141.2308   72.6906  226.6570 H   0  0  0  0  0  0  0  0  0  0  0  0
  1  2  2  0
  2  3  1  0
  3  4  1  0
  4  5  1  0
  5  6  2  0
  5  7  1  0
  7  8  1  0
  8  9  1  0
  9 10  1  0
 10 11  1  0
 11 12  1  0
 12 13  2  0
 13 14  1  0
 14 15  2  0
 15 16  1  0
 15 17  1  0
 17 18  2  0
  2 19  1  0
 19 20  2  0
 20 21  1  0
 21 22  2  0
 22 23  1  0
 23 24  2  0
 24 25  1  0
 24 26  1  0
 26 27  2  0
 27 28  1  0
 28 29  2  0
 11  7  1  0
 18 12  1  0
 29 19  1  0
 28 22  1  0
  3 30  1  0
  4 31  1  0
  4 32  1  0
  8 33  1  0
  8 34  1  0
  9 35  1  0
  9 36  1  0
 10 37  1  0
 10 38  1  0
 11 39  1  6
 13 40  1  0
 14 41  1  0
 16 42  1  0
 17 43  1  0
 18 44  1  0
 20 45  1  0
 21 46  1  0
 23 47  1  0
 26 48  1  0
 27 49  1  0
M  END
>  <smiles>  (93) 
O=C(NCC(=O)N1CCCC1c1ccc(O)cc1)c1ccc2cc(Cl)ccc2n1

>  <score_type>  (93) 
oracle

>  <origin>  (93) 
autodockgpu

>  <m_score__min__energy>  (93) 
-8.5700000000000003

>  <m_primary>  (93) 
energy

>  <rmsd>  (93) 
2.8759218006581992

>  <m_score__min__rmsd>  (93) 
2.8759218006581992

>  <meeko>  (93) 
{"free_energy": -7.61, "intermolecular_energy": -9.4, "internal_energy": -1.62, "cluster_size": 1, "cluster_id": 5, "rank_in_cluster": 1}

>  <energy>  (93) 
-7.53

>  <cluster_rmsd>  (93) 
0.0

>  <cluster>  (93) 
6

$$$$

     RDKit          3D

 49 52  0  0  0  0  0  0  0  0999 V2000
  139.2150   71.5620  220.8440 O   0  0  0  0  0  0  0  0  0  0  0  0
  139.4870   72.0300  221.9910 C   0  0  0  0  0  0  0  0  0  0  0  0
  139.6520   73.4310  222.1720 N   0  0  0  0  0  0  0  0  0  0  0  0
  139.5210   74.3550  221.0910 C   0  0  0  0  0  0  0  0  0  0  0  0
  140.3130   75.5950  221.3030 C   0  0  0  0  0  0  0  0  0  0  0  0
  140.0900   76.2340  222.3640 O   0  0  0  0  0  0  0  0  0  0  0  0
  141.2610   75.9940  220.3250 N   0  0  0  0  0  0  0  0  0  0  0  0
  142.1130   77.1650  220.3770 C   0  0  0  0  0  0  0  0  0  0  0  0
  142.7250   77.2930  219.0220 C   0  0  0  0  0  0  0  0  0  0  0  0
  141.7960   76.4780  218.1490 C   0  0  0  0  0  0  0  0  0  0  0  0
  141.5460   75.2890  219.0790 C   0  0  1  0  0  0  0  0  0  0  0  0
  142.7940   74.5190  219.2930 C   0  0  0  0  0  0  0  0  0  0  0  0
  143.6880   74.2010  218.3050 C   0  0  0  0  0  0  0  0  0  0  0  0
  144.8510   73.4820  218.5230 C   0  0  0  0  0  0  0  0  0  0  0  0
  145.1580   73.0440  219.7940 C   0  0  0  0  0  0  0  0  0  0  0  0
  146.3130   72.3200  220.0550 O   0  0  0  0  0  0  0  0  0  0  0  0
  144.2770   73.3480  220.8090 C   0  0  0  0  0  0  0  0  0  0  0  0
  143.1120   74.0720  220.5780 C   0  0  0  0  0  0  0  0  0  0  0  0
  139.6370   71.1330  223.1570 C   0  0  0  0  0  0  0  0  0  0  0  0
  139.2030   69.8250  223.0450 C   0  0  0  0  0  0  0  0  0  0  0  0
  139.3610   69.0140  224.1580 C   0  0  0  0  0  0  0  0  0  0  0  0
  139.9170   69.4570  225.3320 C   0  0  0  0  0  0  0  0  0  0  0  0
  140.0670   68.6470  226.4230 C   0  0  0  0  0  0  0  0  0  0  0  0
  140.6310   69.1480  227.5700 C   0  0  0  0  0  0  0  0  0  0  0  0
  140.8460   68.1530  228.9980 Cl  0  0  0  0  0  0  0  0  0  0  0  0
  141.0550   70.4600  227.6510 C   0  0  0  0  0  0  0  0  0  0  0  0
  140.8970   71.2760  226.5320 C   0  0  0  0  0  0  0  0  0  0  0  0
  140.3290   70.7720  225.3770 C   0  0  0  0  0  0  0  0  0  0  0  0
  140.1950   71.6090  224.3070 N   0  0  0  0  0  0  0  0  0  0  0  0
  139.8790   73.7620  223.1520 H   0  0  0  0  0  0  0  0  0  0  0  0
  139.8676   73.8687  220.1672 H   0  0  0  0  0  0  0  0  0  0  0  0
  138.4614   74.6426  221.0236 H   0  0  0  0  0  0  0  0  0  0  0  0
  141.5181   78.0596  220.6131 H   0  0  0  0  0  0  0  0  0  0  0  0
  142.8821   77.0677  221.1574 H   0  0  0  0  0  0  0  0  0  0  0  0
  142.7512   78.3439  218.6979 H   0  0  0  0  0  0  0  0  0  0  0  0
  143.7687   76.9477  218.9840 H   0  0  0  0  0  0  0  0  0  0  0  0
  140.8673   77.0213  217.9202 H   0  0  0  0  0  0  0  0  0  0  0  0
  142.1956   76.2187  217.1575 H   0  0  0  0  0  0  0  0  0  0  0  0
  140.7809   74.5898  218.7106 H   0  0  0  0  0  0  0  0  0  0  0  0
  143.4695   74.5359  217.2802 H   0  0  0  0  0  0  0  0  0  0  0  0
  145.5281   73.2608  217.6848 H   0  0  0  0  0  0  0  0  0  0  0  0
  146.4180   71.7910  220.9230 H   0  0  0  0  0  0  0  0  0  0  0  0
  144.5014   73.0085  221.8310 H   0  0  0  0  0  0  0  0  0  0  0  0
  142.4343   74.2949  221.4153 H   0  0  0  0  0  0  0  0  0  0  0  0
  138.7532   69.4455  222.1157 H   0  0  0  0  0  0  0  0  0  0  0  0
  139.0256   67.9681  224.0976 H   0  0  0  0  0  0  0  0  0  0  0  0
  139.7372   67.5984  226.3820 H   0  0  0  0  0  0  0  0  0  0  0  0
  141.5059   70.8510  228.5750 H   0  0  0  0  0  0  0  0  0  0  0  0
  141.2256   72.3251  226.5682 H   0  0  0  0  0  0  0  0  0  0  0  0
  1  2  2  0
  2  3  1  0
  3  4  1  0
  4  5  1  0
  5  6  2  0
  5  7  1  0
  7  8  1  0
  8  9  1  0
  9 10  1  0
 10 11  1  0
 11 12  1  0
 12 13  2  0
 13 14  1  0
 14 15  2  0
 15 16  1  0
 15 17  1  0
 17 18  2  0
  2 19  1  0
 19 20  2  0
 20 21  1  0
 21 22  2  0
 22 23  1  0
 23 24  2  0
 24 25  1  0
 24 26  1  0
 26 27  2  0
 27 28  1  0
 28 29  2  0
 11  7  1  0
 18 12  1  0
 29 19  1  0
 28 22  1  0
  3 30  1  0
  4 31  1  0
  4 32  1  0
  8 33  1  0
  8 34  1  0
  9 35  1  0
  9 36  1  0
 10 37  1  0
 10 38  1  0
 11 39  1  6
 13 40  1  0
 14 41  1  0
 16 42  1  0
 17 43  1  0
 18 44  1  0
 20 45  1  0
 21 46  1  0
 23 47  1  0
 26 48  1  0
 27 49  1  0
M  END
>  <smiles>  (94) 
O=C(NCC(=O)N1CCCC1c1ccc(O)cc1)c1ccc2cc(Cl)ccc2n1

>  <score_type>  (94) 
oracle

>  <origin>  (94) 
autodockgpu

>  <m_score__min__energy>  (94) 
-8.5700000000000003

>  <m_primary>  (94) 
energy

>  <rmsd>  (94) 
2.049602789852082

>  <m_score__min__rmsd>  (94) 
2.049602789852082

>  <meeko>  (94) 
{"free_energy": -8.18, "intermolecular_energy": -9.97, "internal_energy": -1.77, "cluster_size": 15, "cluster_id": 1, "rank_in_cluster": 5}

>  <energy>  (94) 
-7.53

>  <cluster_rmsd>  (94) 
0.22

>  <cluster>  (94) 
6

$$$$

     RDKit          3D

 49 52  0  0  0  0  0  0  0  0999 V2000
  139.8950   72.0890  220.6990 O   0  0  0  0  0  0  0  0  0  0  0  0
  139.8030   72.4940  221.8980 C   0  0  0  0  0  0  0  0  0  0  0  0
  139.6370   73.8780  222.1750 N   0  0  0  0  0  0  0  0  0  0  0  0
  139.5680   74.8560  221.1370 C   0  0  0  0  0  0  0  0  0  0  0  0
  140.3070   76.1000  221.4760 C   0  0  0  0  0  0  0  0  0  0  0  0
  140.5850   76.2790  222.6900 O   0  0  0  0  0  0  0  0  0  0  0  0
  140.6570   77.0090  220.4440 N   0  0  0  0  0  0  0  0  0  0  0  0
  139.9100   77.2650  219.2300 C   0  0  0  0  0  0  0  0  0  0  0  0
  140.8030   78.0840  218.3580 C   0  0  0  0  0  0  0  0  0  0  0  0
  142.1770   77.8160  218.9300 C   0  0  0  0  0  0  0  0  0  0  0  0
  141.8470   77.8550  220.4230 C   0  0  1  0  0  0  0  0  0  0  0  0
  141.4200   79.2140  220.8300 C   0  0  0  0  0  0  0  0  0  0  0  0
  140.5890   79.4820  221.8860 C   0  0  0  0  0  0  0  0  0  0  0  0
  140.2000   80.7590  222.2540 C   0  0  0  0  0  0  0  0  0  0  0  0
  140.6560   81.8470  221.5390 C   0  0  0  0  0  0  0  0  0  0  0  0
  140.2910   83.1430  221.8740 O   0  0  0  0  0  0  0  0  0  0  0  0
  141.4940   81.6080  220.4710 C   0  0  0  0  0  0  0  0  0  0  0  0
  141.8770   80.3210  220.1110 C   0  0  0  0  0  0  0  0  0  0  0  0
  139.8650   71.5380  223.0250 C   0  0  0  0  0  0  0  0  0  0  0  0
  139.3760   70.2590  222.8350 C   0  0  0  0  0  0  0  0  0  0  0  0
  139.4520   69.3920  223.9130 C   0  0  0  0  0  0  0  0  0  0  0  0
  139.9820   69.7530  225.1260 C   0  0  0  0  0  0  0  0  0  0  0  0
  140.0510   68.8880  226.1830 C   0  0  0  0  0  0  0  0  0  0  0  0
  140.5930   69.3090  227.3720 C   0  0  0  0  0  0  0  0  0  0  0  0
  140.7050   68.2400  228.7580 Cl  0  0  0  0  0  0  0  0  0  0  0  0
  141.0740   70.5930  227.5300 C   0  0  0  0  0  0  0  0  0  0  0  0
  140.9980   71.4660  226.4470 C   0  0  0  0  0  0  0  0  0  0  0  0
  140.4530   71.0440  225.2490 C   0  0  0  0  0  0  0  0  0  0  0  0
  140.3990   71.9330  224.2150 N   0  0  0  0  0  0  0  0  0  0  0  0
  139.5660   74.1560  223.1950 H   0  0  0  0  0  0  0  0  0  0  0  0
  139.9997   74.4282  220.2202 H   0  0  0  0  0  0  0  0  0  0  0  0
  138.5098   75.1232  220.9998 H   0  0  0  0  0  0  0  0  0  0  0  0
  139.6547   76.3179  218.7322 H   0  0  0  0  0  0  0  0  0  0  0  0
  138.9662   77.7885  219.4423 H   0  0  0  0  0  0  0  0  0  0  0  0
  140.7405   77.7565  217.3097 H   0  0  0  0  0  0  0  0  0  0  0  0
  140.5385   79.1517  218.3482 H   0  0  0  0  0  0  0  0  0  0  0  0
  142.5644   76.8337  218.6218 H   0  0  0  0  0  0  0  0  0  0  0  0
  142.9610   78.5169  218.6074 H   0  0  0  0  0  0  0  0  0  0  0  0
  142.6849   77.5600  221.0717 H   0  0  0  0  0  0  0  0  0  0  0  0
  140.2092   78.6342  222.4751 H   0  0  0  0  0  0  0  0  0  0  0  0
  139.5295   80.9054  223.1137 H   0  0  0  0  0  0  0  0  0  0  0  0
  139.4090   83.5430  221.5460 H   0  0  0  0  0  0  0  0  0  0  0  0
  141.8706   82.4604  219.8866 H   0  0  0  0  0  0  0  0  0  0  0  0
  142.5468   80.1729  219.2511 H   0  0  0  0  0  0  0  0  0  0  0  0
  138.9465   69.9442  221.8725 H   0  0  0  0  0  0  0  0  0  0  0  0
  139.0701   68.3677  223.7908 H   0  0  0  0  0  0  0  0  0  0  0  0
  139.6740   67.8597  226.0810 H   0  0  0  0  0  0  0  0  0  0  0  0
  141.5067   70.9189  228.4874 H   0  0  0  0  0  0  0  0  0  0  0  0
  141.3732   72.4953  226.5457 H   0  0  0  0  0  0  0  0  0  0  0  0
  1  2  2  0
  2  3  1  0
  3  4  1  0
  4  5  1  0
  5  6  2  0
  5  7  1  0
  7  8  1  0
  8  9  1  0
  9 10  1  0
 10 11  1  0
 11 12  1  0
 12 13  2  0
 13 14  1  0
 14 15  2  0
 15 16  1  0
 15 17  1  0
 17 18  2  0
  2 19  1  0
 19 20  2  0
 20 21  1  0
 21 22  2  0
 22 23  1  0
 23 24  2  0
 24 25  1  0
 24 26  1  0
 26 27  2  0
 27 28  1  0
 28 29  2  0
 11  7  1  0
 18 12  1  0
 29 19  1  0
 28 22  1  0
  3 30  1  0
  4 31  1  0
  4 32  1  0
  8 33  1  0
  8 34  1  0
  9 35  1  0
  9 36  1  0
 10 37  1  0
 10 38  1  0
 11 39  1  1
 13 40  1  0
 14 41  1  0
 16 42  1  0
 17 43  1  0
 18 44  1  0
 20 45  1  0
 21 46  1  0
 23 47  1  0
 26 48  1  0
 27 49  1  0
M  END
>  <smiles>  (95) 
O=C(NCC(=O)N1CCCC1c1ccc(O)cc1)c1ccc2cc(Cl)ccc2n1

>  <score_type>  (95) 
oracle

>  <origin>  (95) 
autodockgpu

>  <m_score__min__energy>  (95) 
-8.5700000000000003

>  <m_primary>  (95) 
energy

>  <rmsd>  (95) 
1.5853642314902212

>  <m_score__min__rmsd>  (95) 
1.5853642314902212

>  <meeko>  (95) 
{"free_energy": -7.35, "intermolecular_energy": -9.14, "internal_energy": -1.59, "cluster_size": 10, "cluster_id": 3, "rank_in_cluster": 9}

>  <energy>  (95) 
-7.52

>  <cluster_rmsd>  (95) 
0.24

>  <cluster>  (95) 
6

$$$$

     RDKit          3D

 49 52  0  0  0  0  0  0  0  0999 V2000
  140.2060   72.7110  220.7650 O   0  0  0  0  0  0  0  0  0  0  0  0
  139.9560   73.0140  221.9710 C   0  0  0  0  0  0  0  0  0  0  0  0
  139.6560   74.3580  222.3250 N   0  0  0  0  0  0  0  0  0  0  0  0
  139.6220   75.4070  221.3570 C   0  0  0  0  0  0  0  0  0  0  0  0
  140.9480   76.0510  221.1680 C   0  0  0  0  0  0  0  0  0  0  0  0
  141.8590   75.3370  220.6750 O   0  0  0  0  0  0  0  0  0  0  0  0
  141.1260   77.4080  221.5450 N   0  0  0  0  0  0  0  0  0  0  0  0
  141.3990   78.5210  220.6590 C   0  0  0  0  0  0  0  0  0  0  0  0
  141.7630   79.6710  221.5380 C   0  0  0  0  0  0  0  0  0  0  0  0
  142.1550   78.9990  222.8350 C   0  0  0  0  0  0  0  0  0  0  0  0
  141.0670   77.9260  222.9090 C   0  0  1  0  0  0  0  0  0  0  0  0
  139.7320   78.5450  223.0790 C   0  0  0  0  0  0  0  0  0  0  0  0
  138.5760   78.0600  222.5270 C   0  0  0  0  0  0  0  0  0  0  0  0
  137.3350   78.6500  222.6980 C   0  0  0  0  0  0  0  0  0  0  0  0
  137.2180   79.7930  223.4600 C   0  0  0  0  0  0  0  0  0  0  0  0
  135.9940   80.4160  223.6560 O   0  0  0  0  0  0  0  0  0  0  0  0
  138.3650   80.3050  224.0280 C   0  0  0  0  0  0  0  0  0  0  0  0
  139.6060   79.7030  223.8500 C   0  0  0  0  0  0  0  0  0  0  0  0
  139.9720   71.9790  223.0280 C   0  0  0  0  0  0  0  0  0  0  0  0
  139.4460   70.7330  222.7420 C   0  0  0  0  0  0  0  0  0  0  0  0
  139.4800   69.7910  223.7570 C   0  0  0  0  0  0  0  0  0  0  0  0
  140.0030   70.0490  225.0000 C   0  0  0  0  0  0  0  0  0  0  0  0
  140.0300   69.1090  225.9930 C   0  0  0  0  0  0  0  0  0  0  0  0
  140.5670   69.4270  227.2150 C   0  0  0  0  0  0  0  0  0  0  0  0
  140.6250   68.2610  228.5240 Cl  0  0  0  0  0  0  0  0  0  0  0  0
  141.0850   70.6820  227.4710 C   0  0  0  0  0  0  0  0  0  0  0  0
  141.0520   71.6300  226.4510 C   0  0  0  0  0  0  0  0  0  0  0  0
  140.5120   71.3110  225.2190 C   0  0  0  0  0  0  0  0  0  0  0  0
  140.5010   72.2730  224.2510 N   0  0  0  0  0  0  0  0  0  0  0  0
  139.4570   74.5490  223.3480 H   0  0  0  0  0  0  0  0  0  0  0  0
  139.2930   74.9882  220.3945 H   0  0  0  0  0  0  0  0  0  0  0  0
  138.9261   76.1764  221.7226 H   0  0  0  0  0  0  0  0  0  0  0  0
  142.2334   78.2766  219.9852 H   0  0  0  0  0  0  0  0  0  0  0  0
  140.5280   78.7564  220.0298 H   0  0  0  0  0  0  0  0  0  0  0  0
  142.6056   80.2390  221.1169 H   0  0  0  0  0  0  0  0  0  0  0  0
  140.9477   80.3998  221.6572 H   0  0  0  0  0  0  0  0  0  0  0  0
  143.1614   78.5585  222.7800 H   0  0  0  0  0  0  0  0  0  0  0  0
  142.2113   79.6666  223.7074 H   0  0  0  0  0  0  0  0  0  0  0  0
  141.2082   77.2048  223.7275 H   0  0  0  0  0  0  0  0  0  0  0  0
  138.6370   77.1496  221.9126 H   0  0  0  0  0  0  0  0  0  0  0  0
  136.4447   78.2078  222.2270 H   0  0  0  0  0  0  0  0  0  0  0  0
  135.2100   79.9150  224.0780 H   0  0  0  0  0  0  0  0  0  0  0  0
  138.2967   81.2165  224.6400 H   0  0  0  0  0  0  0  0  0  0  0  0
  140.4973   80.1431  224.3211 H   0  0  0  0  0  0  0  0  0  0  0  0
  139.0204   70.5005  221.7547 H   0  0  0  0  0  0  0  0  0  0  0  0
  139.0691   68.7902  223.5580 H   0  0  0  0  0  0  0  0  0  0  0  0
  139.6232   68.1030  225.8129 H   0  0  0  0  0  0  0  0  0  0  0  0
  141.5124   70.9262  228.4547 H   0  0  0  0  0  0  0  0  0  0  0  0
  141.4576   72.6373  226.6266 H   0  0  0  0  0  0  0  0  0  0  0  0
  1  2  2  0
  2  3  1  0
  3  4  1  0
  4  5  1  0
  5  6  2  0
  5  7  1  0
  7  8  1  0
  8  9  1  0
  9 10  1  0
 10 11  1  0
 11 12  1  0
 12 13  2  0
 13 14  1  0
 14 15  2  0
 15 16  1  0
 15 17  1  0
 17 18  2  0
  2 19  1  0
 19 20  2  0
 20 21  1  0
 21 22  2  0
 22 23  1  0
 23 24  2  0
 24 25  1  0
 24 26  1  0
 26 27  2  0
 27 28  1  0
 28 29  2  0
 11  7  1  0
 18 12  1  0
 29 19  1  0
 28 22  1  0
  3 30  1  0
  4 31  1  0
  4 32  1  0
  8 33  1  0
  8 34  1  0
  9 35  1  0
  9 36  1  0
 10 37  1  0
 10 38  1  0
 11 39  1  1
 13 40  1  0
 14 41  1  0
 16 42  1  0
 17 43  1  0
 18 44  1  0
 20 45  1  0
 21 46  1  0
 23 47  1  0
 26 48  1  0
 27 49  1  0
M  END
>  <smiles>  (96) 
O=C(NCC(=O)N1CCCC1c1ccc(O)cc1)c1ccc2cc(Cl)ccc2n1

>  <score_type>  (96) 
oracle

>  <origin>  (96) 
autodockgpu

>  <m_score__min__energy>  (96) 
-8.5700000000000003

>  <m_primary>  (96) 
energy

>  <rmsd>  (96) 
3.068126551829201

>  <m_score__min__rmsd>  (96) 
3.068126551829201

>  <meeko>  (96) 
{"free_energy": -7.97, "intermolecular_energy": -9.76, "internal_energy": -1.24, "cluster_size": 4, "cluster_id": 4, "rank_in_cluster": 1}

>  <energy>  (96) 
-7.27

>  <cluster_rmsd>  (96) 
1.79

>  <cluster>  (96) 
6

$$$$

     RDKit          3D

 49 52  0  0  0  0  0  0  0  0999 V2000
  140.0820   72.5590  220.6680 O   0  0  0  0  0  0  0  0  0  0  0  0
  139.8460   72.8950  221.8680 C   0  0  0  0  0  0  0  0  0  0  0  0
  139.5140   74.2420  222.1830 N   0  0  0  0  0  0  0  0  0  0  0  0
  139.4330   75.2560  221.1810 C   0  0  0  0  0  0  0  0  0  0  0  0
  138.9230   76.5450  221.7160 C   0  0  0  0  0  0  0  0  0  0  0  0
  137.6750   76.7020  221.7190 O   0  0  0  0  0  0  0  0  0  0  0  0
  139.8420   77.5190  222.1880 N   0  0  0  0  0  0  0  0  0  0  0  0
  141.0890   77.2660  222.8790 C   0  0  0  0  0  0  0  0  0  0  0  0
  141.5540   78.5870  223.3950 C   0  0  0  0  0  0  0  0  0  0  0  0
  140.2900   79.4180  223.3910 C   0  0  0  0  0  0  0  0  0  0  0  0
  139.6890   78.9650  222.0590 C   0  0  1  0  0  0  0  0  0  0  0  0
  140.5420   79.3930  220.9260 C   0  0  0  0  0  0  0  0  0  0  0  0
  140.9850   78.5600  219.9320 C   0  0  0  0  0  0  0  0  0  0  0  0
  141.7810   78.9760  218.8780 C   0  0  0  0  0  0  0  0  0  0  0  0
  142.1700   80.2970  218.7920 C   0  0  0  0  0  0  0  0  0  0  0  0
  142.9680   80.7550  217.7540 O   0  0  0  0  0  0  0  0  0  0  0  0
  141.7400   81.1580  219.7790 C   0  0  0  0  0  0  0  0  0  0  0  0
  140.9400   80.7290  220.8320 C   0  0  0  0  0  0  0  0  0  0  0  0
  139.9100   71.8980  222.9590 C   0  0  0  0  0  0  0  0  0  0  0  0
  139.4600   70.6150  222.7090 C   0  0  0  0  0  0  0  0  0  0  0  0
  139.5370   69.7090  223.7540 C   0  0  0  0  0  0  0  0  0  0  0  0
  140.0300   70.0360  224.9920 C   0  0  0  0  0  0  0  0  0  0  0  0
  140.1000   69.1320  226.0160 C   0  0  0  0  0  0  0  0  0  0  0  0
  140.6040   69.5200  227.2320 C   0  0  0  0  0  0  0  0  0  0  0  0
  140.7160   68.4010  228.5780 Cl  0  0  0  0  0  0  0  0  0  0  0  0
  141.0460   70.8100  227.4510 C   0  0  0  0  0  0  0  0  0  0  0  0
  140.9700   71.7220  226.4010 C   0  0  0  0  0  0  0  0  0  0  0  0
  140.4620   71.3330  225.1760 C   0  0  0  0  0  0  0  0  0  0  0  0
  140.4070   72.2610  224.1760 N   0  0  0  0  0  0  0  0  0  0  0  0
  139.3280   74.4620  223.2030 H   0  0  0  0  0  0  0  0  0  0  0  0
  140.4372   75.4201  220.7631 H   0  0  0  0  0  0  0  0  0  0  0  0
  138.7265   74.9103  220.4120 H   0  0  0  0  0  0  0  0  0  0  0  0
  140.9281   76.5662  223.7123 H   0  0  0  0  0  0  0  0  0  0  0  0
  141.8340   76.8125  222.2088 H   0  0  0  0  0  0  0  0  0  0  0  0
  141.9619   78.4927  224.4122 H   0  0  0  0  0  0  0  0  0  0  0  0
  142.3636   79.0265  222.7939 H   0  0  0  0  0  0  0  0  0  0  0  0
  139.6356   79.1723  224.2403 H   0  0  0  0  0  0  0  0  0  0  0  0
  140.4444   80.5027  223.4883 H   0  0  0  0  0  0  0  0  0  0  0  0
  138.6744   79.3483  221.8755 H   0  0  0  0  0  0  0  0  0  0  0  0
  140.6916   77.5007  219.9738 H   0  0  0  0  0  0  0  0  0  0  0  0
  142.1023   78.2554  218.1115 H   0  0  0  0  0  0  0  0  0  0  0  0
  143.6110   80.1270  217.2670 H   0  0  0  0  0  0  0  0  0  0  0  0
  142.0387   82.2156  219.7320 H   0  0  0  0  0  0  0  0  0  0  0  0
  140.6171   81.4486  221.5988 H   0  0  0  0  0  0  0  0  0  0  0  0
  139.0594   70.3269  221.7259 H   0  0  0  0  0  0  0  0  0  0  0  0
  139.1869   68.6802  223.5835 H   0  0  0  0  0  0  0  0  0  0  0  0
  139.7539   68.0988  225.8655 H   0  0  0  0  0  0  0  0  0  0  0  0
  141.4480   71.1097  228.4301 H   0  0  0  0  0  0  0  0  0  0  0  0
  141.3157   72.7560  226.5474 H   0  0  0  0  0  0  0  0  0  0  0  0
  1  2  2  0
  2  3  1  0
  3  4  1  0
  4  5  1  0
  5  6  2  0
  5  7  1  0
  7  8  1  0
  8  9  1  0
  9 10  1  0
 10 11  1  0
 11 12  1  0
 12 13  2  0
 13 14  1  0
 14 15  2  0
 15 16  1  0
 15 17  1  0
 17 18  2  0
  2 19  1  0
 19 20  2  0
 20 21  1  0
 21 22  2  0
 22 23  1  0
 23 24  2  0
 24 25  1  0
 24 26  1  0
 26 27  2  0
 27 28  1  0
 28 29  2  0
 11  7  1  0
 18 12  1  0
 29 19  1  0
 28 22  1  0
  3 30  1  0
  4 31  1  0
  4 32  1  0
  8 33  1  0
  8 34  1  0
  9 35  1  0
  9 36  1  0
 10 37  1  0
 10 38  1  0
 11 39  1  6
 13 40  1  0
 14 41  1  0
 16 42  1  0
 17 43  1  0
 18 44  1  0
 20 45  1  0
 21 46  1  0
 23 47  1  0
 26 48  1  0
 27 49  1  0
M  END
>  <smiles>  (97) 
O=C(NCC(=O)N1CCCC1c1ccc(O)cc1)c1ccc2cc(Cl)ccc2n1

>  <score_type>  (97) 
oracle

>  <origin>  (97) 
autodockgpu

>  <m_score__min__energy>  (97) 
-8.5700000000000003

>  <m_primary>  (97) 
energy

>  <rmsd>  (97) 
3.428746130712267

>  <m_score__min__rmsd>  (97) 
3.428746130712267

>  <meeko>  (97) 
{"free_energy": -8.45, "intermolecular_energy": -10.24, "internal_energy": -1.33, "cluster_size": 12, "cluster_id": 2, "rank_in_cluster": 2}

>  <energy>  (97) 
-7.32

>  <cluster_rmsd>  (97) 
0.0

>  <cluster>  (97) 
7

$$$$

     RDKit          3D

 49 52  0  0  0  0  0  0  0  0999 V2000
  138.6550   71.4200  220.8560 O   0  0  0  0  0  0  0  0  0  0  0  0
  138.9830   71.9100  221.9790 C   0  0  0  0  0  0  0  0  0  0  0  0
  139.0710   73.3200  222.1480 N   0  0  0  0  0  0  0  0  0  0  0  0
  138.8010   74.2290  221.0800 C   0  0  0  0  0  0  0  0  0  0  0  0
  138.9290   75.6500  221.4960 C   0  0  0  0  0  0  0  0  0  0  0  0
  137.9540   76.1480  222.1150 O   0  0  0  0  0  0  0  0  0  0  0  0
  140.1140   76.3650  221.1830 N   0  0  0  0  0  0  0  0  0  0  0  0
  140.8230   77.2820  222.0530 C   0  0  0  0  0  0  0  0  0  0  0  0
  141.8330   77.9700  221.1950 C   0  0  0  0  0  0  0  0  0  0  0  0
  141.2930   77.7600  219.7980 C   0  0  0  0  0  0  0  0  0  0  0  0
  140.8340   76.3050  219.9150 C   0  0  1  0  0  0  0  0  0  0  0  0
  141.9930   75.4050  220.1170 C   0  0  0  0  0  0  0  0  0  0  0  0
  143.2880   75.7250  219.8050 C   0  0  0  0  0  0  0  0  0  0  0  0
  144.3600   74.8720  220.0020 C   0  0  0  0  0  0  0  0  0  0  0  0
  144.1500   73.6190  220.5400 C   0  0  0  0  0  0  0  0  0  0  0  0
  145.1960   72.7340  220.7530 O   0  0  0  0  0  0  0  0  0  0  0  0
  142.8570   73.2690  220.8640 C   0  0  0  0  0  0  0  0  0  0  0  0
  141.7880   74.1350  220.6620 C   0  0  0  0  0  0  0  0  0  0  0  0
  139.2770   71.0300  223.1310 C   0  0  0  0  0  0  0  0  0  0  0  0
  138.9480   69.6900  223.0390 C   0  0  0  0  0  0  0  0  0  0  0  0
  139.2400   68.8970  224.1370 C   0  0  0  0  0  0  0  0  0  0  0  0
  139.8260   69.3860  225.2780 C   0  0  0  0  0  0  0  0  0  0  0  0
  140.1090   68.5920  226.3550 C   0  0  0  0  0  0  0  0  0  0  0  0
  140.6970   69.1400  227.4680 C   0  0  0  0  0  0  0  0  0  0  0  0
  141.0790   68.1670  228.8760 Cl  0  0  0  0  0  0  0  0  0  0  0  0
  141.0130   70.4820  227.5280 C   0  0  0  0  0  0  0  0  0  0  0  0
  140.7210   71.2810  226.4250 C   0  0  0  0  0  0  0  0  0  0  0  0
  140.1290   70.7310  225.3040 C   0  0  0  0  0  0  0  0  0  0  0  0
  139.8610   71.5520  224.2470 N   0  0  0  0  0  0  0  0  0  0  0  0
  139.3500   73.6690  223.1080 H   0  0  0  0  0  0  0  0  0  0  0  0
  139.5121   74.0351  220.2634 H   0  0  0  0  0  0  0  0  0  0  0  0
  137.7616   74.0673  220.7582 H   0  0  0  0  0  0  0  0  0  0  0  0
  140.1256   78.0152  222.4843 H   0  0  0  0  0  0  0  0  0  0  0  0
  141.3010   76.7528  222.8905 H   0  0  0  0  0  0  0  0  0  0  0  0
  141.8944   79.0410  221.4382 H   0  0  0  0  0  0  0  0  0  0  0  0
  142.8528   77.5798  221.3285 H   0  0  0  0  0  0  0  0  0  0  0  0
  140.4549   78.4373  219.5768 H   0  0  0  0  0  0  0  0  0  0  0  0
  142.0086   77.9593  218.9867 H   0  0  0  0  0  0  0  0  0  0  0  0
  140.2778   75.9421  219.0381 H   0  0  0  0  0  0  0  0  0  0  0  0
  143.4873   76.7168  219.3731 H   0  0  0  0  0  0  0  0  0  0  0  0
  145.3767   75.1922  219.7304 H   0  0  0  0  0  0  0  0  0  0  0  0
  145.0640   71.8840  221.3060 H   0  0  0  0  0  0  0  0  0  0  0  0
  142.6650   72.2754  221.2951 H   0  0  0  0  0  0  0  0  0  0  0  0
  140.7707   73.8170  220.9340 H   0  0  0  0  0  0  0  0  0  0  0  0
  138.4767   69.2733  222.1366 H   0  0  0  0  0  0  0  0  0  0  0  0
  138.9908   67.8265  224.0924 H   0  0  0  0  0  0  0  0  0  0  0  0
  139.8666   67.5193  226.3296 H   0  0  0  0  0  0  0  0  0  0  0  0
  141.4840   70.9103  228.4250 H   0  0  0  0  0  0  0  0  0  0  0  0
  140.9626   72.3539  226.4464 H   0  0  0  0  0  0  0  0  0  0  0  0
  1  2  2  0
  2  3  1  0
  3  4  1  0
  4  5  1  0
  5  6  2  0
  5  7  1  0
  7  8  1  0
  8  9  1  0
  9 10  1  0
 10 11  1  0
 11 12  1  0
 12 13  2  0
 13 14  1  0
 14 15  2  0
 15 16  1  0
 15 17  1  0
 17 18  2  0
  2 19  1  0
 19 20  2  0
 20 21  1  0
 21 22  2  0
 22 23  1  0
 23 24  2  0
 24 25  1  0
 24 26  1  0
 26 27  2  0
 27 28  1  0
 28 29  2  0
 11  7  1  0
 18 12  1  0
 29 19  1  0
 28 22  1  0
  3 30  1  0
  4 31  1  0
  4 32  1  0
  8 33  1  0
  8 34  1  0
  9 35  1  0
  9 36  1  0
 10 37  1  0
 10 38  1  0
 11 39  1  6
 13 40  1  0
 14 41  1  0
 16 42  1  0
 17 43  1  0
 18 44  1  0
 20 45  1  0
 21 46  1  0
 23 47  1  0
 26 48  1  0
 27 49  1  0
M  END
>  <smiles>  (98) 
O=C(NCC(=O)N1CCCC1c1ccc(O)cc1)c1ccc2cc(Cl)ccc2n1

>  <score_type>  (98) 
oracle

>  <origin>  (98) 
autodockgpu

>  <m_score__min__energy>  (98) 
-8.5700000000000003

>  <m_primary>  (98) 
energy

>  <rmsd>  (98) 
2.2041226024199445

>  <m_score__min__rmsd>  (98) 
2.2041226024199445

>  <meeko>  (98) 
{"free_energy": -7.98, "intermolecular_energy": -9.77, "internal_energy": -1.49, "cluster_size": 15, "cluster_id": 1, "rank_in_cluster": 6}

>  <energy>  (98) 
-7.11

>  <cluster_rmsd>  (98) 
0.0

>  <cluster>  (98) 
8

$$$$

     RDKit          3D

 49 52  0  0  0  0  0  0  0  0999 V2000
  139.6140   72.0410  220.7520 O   0  0  0  0  0  0  0  0  0  0  0  0
  139.6350   72.4400  221.9560 C   0  0  0  0  0  0  0  0  0  0  0  0
  139.5210   73.8260  222.2540 N   0  0  0  0  0  0  0  0  0  0  0  0
  139.3810   74.8110  221.2290 C   0  0  0  0  0  0  0  0  0  0  0  0
  139.2830   76.1900  221.7750 C   0  0  0  0  0  0  0  0  0  0  0  0
  138.7180   76.3160  222.8930 O   0  0  0  0  0  0  0  0  0  0  0  0
  139.8140   77.2760  221.0320 N   0  0  0  0  0  0  0  0  0  0  0  0
  139.0590   78.2970  220.3360 C   0  0  0  0  0  0  0  0  0  0  0  0
  140.0440   79.0440  219.4990 C   0  0  0  0  0  0  0  0  0  0  0  0
  141.2050   78.0800  219.3960 C   0  0  0  0  0  0  0  0  0  0  0  0
  141.2330   77.5570  220.8340 C   0  0  1  0  0  0  0  0  0  0  0  0
  141.5960   78.6380  221.7790 C   0  0  0  0  0  0  0  0  0  0  0  0
  142.2120   79.8080  221.4190 C   0  0  0  0  0  0  0  0  0  0  0  0
  142.5430   80.8110  222.3150 C   0  0  0  0  0  0  0  0  0  0  0  0
  142.2530   80.6560  223.6540 C   0  0  0  0  0  0  0  0  0  0  0  0
  142.5680   81.6350  224.5850 O   0  0  0  0  0  0  0  0  0  0  0  0
  141.6330   79.4890  224.0460 C   0  0  0  0  0  0  0  0  0  0  0  0
  141.3050   78.4900  223.1370 C   0  0  0  0  0  0  0  0  0  0  0  0
  139.7760   71.4760  223.0690 C   0  0  0  0  0  0  0  0  0  0  0  0
  139.3830   70.1660  222.8640 C   0  0  0  0  0  0  0  0  0  0  0  0
  139.5320   69.2930  223.9300 C   0  0  0  0  0  0  0  0  0  0  0  0
  140.0410   69.6770  225.1450 C   0  0  0  0  0  0  0  0  0  0  0  0
  140.1820   68.8050  226.1890 C   0  0  0  0  0  0  0  0  0  0  0  0
  140.6990   69.2490  227.3810 C   0  0  0  0  0  0  0  0  0  0  0  0
  140.9010   68.1730  228.7510 Cl  0  0  0  0  0  0  0  0  0  0  0  0
  141.0830   70.5640  227.5540 C   0  0  0  0  0  0  0  0  0  0  0  0
  140.9350   71.4430  226.4840 C   0  0  0  0  0  0  0  0  0  0  0  0
  140.4150   70.9970  225.2830 C   0  0  0  0  0  0  0  0  0  0  0  0
  140.2870   71.8940  224.2620 N   0  0  0  0  0  0  0  0  0  0  0  0
  139.5440   74.0980  223.2770 H   0  0  0  0  0  0  0  0  0  0  0  0
  140.2561   74.7558  220.5647 H   0  0  0  0  0  0  0  0  0  0  0  0
  138.4478   74.5989  220.6866 H   0  0  0  0  0  0  0  0  0  0  0  0
  138.2899   77.8353  219.6993 H   0  0  0  0  0  0  0  0  0  0  0  0
  138.5431   78.9653  221.0411 H   0  0  0  0  0  0  0  0  0  0  0  0
  139.6282   79.2693  218.5059 H   0  0  0  0  0  0  0  0  0  0  0  0
  140.3260   80.0173  219.9271 H   0  0  0  0  0  0  0  0  0  0  0  0
  141.0071   77.2763  218.6716 H   0  0  0  0  0  0  0  0  0  0  0  0
  142.1481   78.5216  219.0417 H   0  0  0  0  0  0  0  0  0  0  0  0
  141.9369   76.7264  220.9908 H   0  0  0  0  0  0  0  0  0  0  0  0
  142.4577   79.9593  220.3575 H   0  0  0  0  0  0  0  0  0  0  0  0
  143.0355   81.7281  221.9596 H   0  0  0  0  0  0  0  0  0  0  0  0
  143.3120   82.3130  224.4050 H   0  0  0  0  0  0  0  0  0  0  0  0
  141.3907   79.3441  225.1092 H   0  0  0  0  0  0  0  0  0  0  0  0
  140.8110   77.5731  223.4909 H   0  0  0  0  0  0  0  0  0  0  0  0
  138.9714   69.8325  221.8999 H   0  0  0  0  0  0  0  0  0  0  0  0
  139.2283   68.2443  223.7959 H   0  0  0  0  0  0  0  0  0  0  0  0
  139.8826   67.7528  226.0743 H   0  0  0  0  0  0  0  0  0  0  0  0
  141.4957   70.9089  228.5135 H   0  0  0  0  0  0  0  0  0  0  0  0
  141.2329   72.4961  226.5947 H   0  0  0  0  0  0  0  0  0  0  0  0
  1  2  2  0
  2  3  1  0
  3  4  1  0
  4  5  1  0
  5  6  2  0
  5  7  1  0
  7  8  1  0
  8  9  1  0
  9 10  1  0
 10 11  1  0
 11 12  1  0
 12 13  2  0
 13 14  1  0
 14 15  2  0
 15 16  1  0
 15 17  1  0
 17 18  2  0
  2 19  1  0
 19 20  2  0
 20 21  1  0
 21 22  2  0
 22 23  1  0
 23 24  2  0
 24 25  1  0
 24 26  1  0
 26 27  2  0
 27 28  1  0
 28 29  2  0
 11  7  1  0
 18 12  1  0
 29 19  1  0
 28 22  1  0
  3 30  1  0
  4 31  1  0
  4 32  1  0
  8 33  1  0
  8 34  1  0
  9 35  1  0
  9 36  1  0
 10 37  1  0
 10 38  1  0
 11 39  1  6
 13 40  1  0
 14 41  1  0
 16 42  1  0
 17 43  1  0
 18 44  1  0
 20 45  1  0
 21 46  1  0
 23 47  1  0
 26 48  1  0
 27 49  1  0
M  END
>  <smiles>  (99) 
O=C(NCC(=O)N1CCCC1c1ccc(O)cc1)c1ccc2cc(Cl)ccc2n1

>  <score_type>  (99) 
oracle

>  <origin>  (99) 
autodockgpu

>  <m_score__min__energy>  (99) 
-8.5700000000000003

>  <m_primary>  (99) 
energy

>  <rmsd>  (99) 
1.9189932496669035

>  <m_score__min__rmsd>  (99) 
1.9189932496669035

>  <meeko>  (99) 
{"free_energy": -8.15, "intermolecular_energy": -9.94, "internal_energy": -1.61, "cluster_size": 10, "cluster_id": 3, "rank_in_cluster": 1}

>  <energy>  (99) 
-6.99

>  <cluster_rmsd>  (99) 
1.61

>  <cluster>  (99) 
8

$$$$

     RDKit          3D

 49 52  0  0  0  0  0  0  0  0999 V2000
  137.8030   71.3160  221.7550 O   0  0  0  0  0  0  0  0  0  0  0  0
  139.0440   71.4030  222.0070 C   0  0  0  0  0  0  0  0  0  0  0  0
  139.9440   71.8800  221.0150 N   0  0  0  0  0  0  0  0  0  0  0  0
  139.5000   72.2760  219.7160 C   0  0  0  0  0  0  0  0  0  0  0  0
  139.2430   73.7370  219.6230 C   0  0  0  0  0  0  0  0  0  0  0  0
  138.2940   74.0970  218.8800 O   0  0  0  0  0  0  0  0  0  0  0  0
  140.0590   74.6390  220.3550 N   0  0  0  0  0  0  0  0  0  0  0  0
  139.9970   74.8980  221.7790 C   0  0  0  0  0  0  0  0  0  0  0  0
  140.8550   76.0950  222.0210 C   0  0  0  0  0  0  0  0  0  0  0  0
  140.9470   76.7310  220.6520 C   0  0  0  0  0  0  0  0  0  0  0  0
  141.1160   75.4750  219.7940 C   0  0  1  0  0  0  0  0  0  0  0  0
  142.4030   74.8050  220.0940 C   0  0  0  0  0  0  0  0  0  0  0  0
  143.6230   75.4290  220.0850 C   0  0  0  0  0  0  0  0  0  0  0  0
  144.8170   74.7880  220.3690 C   0  0  0  0  0  0  0  0  0  0  0  0
  144.8160   73.4450  220.6840 C   0  0  0  0  0  0  0  0  0  0  0  0
  145.9900   72.7650  220.9740 O   0  0  0  0  0  0  0  0  0  0  0  0
  143.6040   72.7900  220.7010 C   0  0  0  0  0  0  0  0  0  0  0  0
  142.4110   73.4450  220.4140 C   0  0  0  0  0  0  0  0  0  0  0  0
  139.5750   71.0110  223.3300 C   0  0  0  0  0  0  0  0  0  0  0  0
  140.3970   71.8980  224.0020 C   0  0  0  0  0  0  0  0  0  0  0  0
  140.8750   71.4970  225.2380 C   0  0  0  0  0  0  0  0  0  0  0  0
  140.5670   70.2830  225.8000 C   0  0  0  0  0  0  0  0  0  0  0  0
  141.0460   69.8980  227.0220 C   0  0  0  0  0  0  0  0  0  0  0  0
  140.7020   68.6710  227.5310 C   0  0  0  0  0  0  0  0  0  0  0  0
  141.2880   68.1280  229.0930 Cl  0  0  0  0  0  0  0  0  0  0  0  0
  139.8790   67.8070  226.8360 C   0  0  0  0  0  0  0  0  0  0  0  0
  139.3980   68.2100  225.5930 C   0  0  0  0  0  0  0  0  0  0  0  0
  139.7430   69.4450  225.0790 C   0  0  0  0  0  0  0  0  0  0  0  0
  139.2480   69.7970  223.8560 N   0  0  0  0  0  0  0  0  0  0  0  0
  140.9670   71.9300  221.2830 H   0  0  0  0  0  0  0  0  0  0  0  0
  140.2733   72.0064  218.9816 H   0  0  0  0  0  0  0  0  0  0  0  0
  138.5517   71.7564  219.5142 H   0  0  0  0  0  0  0  0  0  0  0  0
  138.9605   75.1035  222.0847 H   0  0  0  0  0  0  0  0  0  0  0  0
  140.3444   74.0311  222.3601 H   0  0  0  0  0  0  0  0  0  0  0  0
  140.3851   76.7785  222.7435 H   0  0  0  0  0  0  0  0  0  0  0  0
  141.8368   75.8448  222.4492 H   0  0  0  0  0  0  0  0  0  0  0  0
  140.0308   77.2825  220.3944 H   0  0  0  0  0  0  0  0  0  0  0  0
  141.7425   77.4824  220.5398 H   0  0  0  0  0  0  0  0  0  0  0  0
  141.0838   75.6677  218.7115 H   0  0  0  0  0  0  0  0  0  0  0  0
  143.6556   76.5004  219.8380 H   0  0  0  0  0  0  0  0  0  0  0  0
  145.7635   75.3480  220.3435 H   0  0  0  0  0  0  0  0  0  0  0  0
  145.9790   71.7690  221.2050 H   0  0  0  0  0  0  0  0  0  0  0  0
  143.5791   71.7185  220.9486 H   0  0  0  0  0  0  0  0  0  0  0  0
  141.4638   72.8863  220.4392 H   0  0  0  0  0  0  0  0  0  0  0  0
  140.6588   72.8769  223.5740 H   0  0  0  0  0  0  0  0  0  0  0  0
  141.5312   72.1821  225.7948 H   0  0  0  0  0  0  0  0  0  0  0  0
  141.7039   70.5688  227.5940 H   0  0  0  0  0  0  0  0  0  0  0  0
  139.6103   66.8255  227.2536 H   0  0  0  0  0  0  0  0  0  0  0  0
  138.7403   67.5419  225.0177 H   0  0  0  0  0  0  0  0  0  0  0  0
  1  2  2  0
  2  3  1  0
  3  4  1  0
  4  5  1  0
  5  6  2  0
  5  7  1  0
  7  8  1  0
  8  9  1  0
  9 10  1  0
 10 11  1  0
 11 12  1  0
 12 13  2  0
 13 14  1  0
 14 15  2  0
 15 16  1  0
 15 17  1  0
 17 18  2  0
  2 19  1  0
 19 20  2  0
 20 21  1  0
 21 22  2  0
 22 23  1  0
 23 24  2  0
 24 25  1  0
 24 26  1  0
 26 27  2  0
 27 28  1  0
 28 29  2  0
 11  7  1  0
 18 12  1  0
 29 19  1  0
 28 22  1  0
  3 30  1  0
  4 31  1  0
  4 32  1  0
  8 33  1  0
  8 34  1  0
  9 35  1  0
  9 36  1  0
 10 37  1  0
 10 38  1  0
 11 39  1  6
 13 40  1  0
 14 41  1  0
 16 42  1  0
 17 43  1  0
 18 44  1  0
 20 45  1  0
 21 46  1  0
 23 47  1  0
 26 48  1  0
 27 49  1  0
M  END
>  <smiles>  (100) 
O=C(NCC(=O)N1CCCC1c1ccc(O)cc1)c1ccc2cc(Cl)ccc2n1

>  <score_type>  (100) 
oracle

>  <origin>  (100) 
autodockgpu

>  <m_score__min__energy>  (100) 
-8.5700000000000003

>  <m_primary>  (100) 
energy

>  <rmsd>  (100) 
3.175881655309166

>  <m_score__min__rmsd>  (100) 
3.175881655309166

>  <meeko>  (100) 
{"free_energy": -7.21, "intermolecular_energy": -9.0, "internal_energy": -1.43, "cluster_size": 15, "cluster_id": 1, "rank_in_cluster": 15}

>  <energy>  (100) 
-6.8

>  <cluster_rmsd>  (100) 
0.0

>  <cluster>  (100) 
9

$$$$
