
     RDKit          3D

 67 70  0  0  0  0  0  0  0  0999 V2000
  138.0230   80.5400  224.4060 C   0  0  0  0  0  0  0  0  0  0  0  0
  137.9250   80.6140  222.8840 C   0  0  0  0  0  0  0  0  0  0  0  0
  137.9790   79.2440  222.3680 C   0  0  0  0  0  0  0  0  0  0  0  0
  136.8930   78.6250  222.1540 O   0  0  0  0  0  0  0  0  0  0  0  0
  139.1830   78.5380  222.0830 N   0  0  0  0  0  0  0  0  0  0  0  0
  140.4110   79.2000  222.3580 C   0  0  0  0  0  0  0  0  0  0  0  0
  141.0150   80.0490  221.4330 C   0  0  0  0  0  0  0  0  0  0  0  0
  142.2080   80.6790  221.7250 C   0  0  0  0  0  0  0  0  0  0  0  0
  142.7900   80.4470  222.9560 C   0  0  0  0  0  0  0  0  0  0  0  0
  142.2240   79.6130  223.8990 C   0  0  0  0  0  0  0  0  0  0  0  0
  141.0150   78.9850  223.5850 C   0  0  0  0  0  0  0  0  0  0  0  0
  139.0960   77.2030  221.5400 C   0  0  0  0  0  0  0  0  0  0  0  0
  138.6270   76.2990  222.6310 C   0  0  0  0  0  0  0  0  0  0  0  0
  138.6190   74.8690  222.0840 C   0  0  0  0  0  0  0  0  0  0  0  0
  140.0100   74.5250  221.8820 N   0  0  0  0  0  0  0  0  0  0  0  0
  140.5430   73.2410  221.7520 C   0  0  0  0  0  0  0  0  0  0  0  0
  141.8220   73.1360  221.5940 O   0  0  0  0  0  0  0  0  0  0  0  0
  139.8260   71.9490  221.7710 C   0  0  1  0  0  0  0  0  0  0  0  0
  140.5150   70.8220  221.3450 N   0  0  0  0  0  0  0  0  0  0  0  0
  139.0890   71.8720  223.0780 C   0  0  2  0  0  0  0  0  0  0  0  0
  139.7120   71.0810  224.1380 C   0  0  0  0  0  0  0  0  0  0  0  0
  140.6760   71.5910  225.0140 C   0  0  0  0  0  0  0  0  0  0  0  0
  141.2440   70.8270  226.0090 C   0  0  0  0  0  0  0  0  0  0  0  0
  140.8900   69.5200  226.1920 C   0  0  0  0  0  0  0  0  0  0  0  0
  139.9480   68.9850  225.3520 C   0  0  0  0  0  0  0  0  0  0  0  0
  139.3870   69.7360  224.3710 C   0  0  0  0  0  0  0  0  0  0  0  0
  137.6210   71.6960  222.9600 C   0  0  0  0  0  0  0  0  0  0  0  0
  136.9830   71.6830  221.7130 C   0  0  0  0  0  0  0  0  0  0  0  0
  135.6160   71.5180  221.6300 C   0  0  0  0  0  0  0  0  0  0  0  0
  134.8200   71.3600  222.7290 C   0  0  0  0  0  0  0  0  0  0  0  0
  135.4360   71.3690  223.9680 C   0  0  0  0  0  0  0  0  0  0  0  0
  134.6520   71.2120  225.0790 F   0  0  0  0  0  0  0  0  0  0  0  0
  136.7820   71.5330  224.0480 C   0  0  0  0  0  0  0  0  0  0  0  0
  140.9300   75.6610  221.8100 C   0  0  0  0  0  0  0  0  0  0  0  0
  140.3420   76.7330  220.8790 C   0  0  0  0  0  0  0  0  0  0  0  0
  137.2216   81.1452  224.8549 H   0  0  0  0  0  0  0  0  0  0  0  0
  137.9178   79.4940  224.7298 H   0  0  0  0  0  0  0  0  0  0  0  0
  139.0002   80.9275  224.7298 H   0  0  0  0  0  0  0  0  0  0  0  0
  136.9759   81.0873  222.5921 H   0  0  0  0  0  0  0  0  0  0  0  0
  138.7506   81.2137  222.4731 H   0  0  0  0  0  0  0  0  0  0  0  0
  140.5352   80.2194  220.4579 H   0  0  0  0  0  0  0  0  0  0  0  0
  142.6839   81.3499  220.9947 H   0  0  0  0  0  0  0  0  0  0  0  0
  143.7410   80.9460  223.1939 H   0  0  0  0  0  0  0  0  0  0  0  0
  142.7110   79.4469  224.8713 H   0  0  0  0  0  0  0  0  0  0  0  0
  140.5406   78.3157  224.3177 H   0  0  0  0  0  0  0  0  0  0  0  0
  138.3685   77.1995  220.7149 H   0  0  0  0  0  0  0  0  0  0  0  0
  139.3087   76.3665  223.4916 H   0  0  0  0  0  0  0  0  0  0  0  0
  137.6191   76.5887  222.9629 H   0  0  0  0  0  0  0  0  0  0  0  0
  138.1545   74.1831  222.8077 H   0  0  0  0  0  0  0  0  0  0  0  0
  138.0398   74.7916  221.1520 H   0  0  0  0  0  0  0  0  0  0  0  0
  139.0935   71.9325  220.9505 H   0  0  0  0  0  0  0  0  0  0  0  0
  141.5080   70.8980  221.1030 H   0  0  0  0  0  0  0  0  0  0  0  0
  140.2760   69.9310  221.7600 H   0  0  0  0  0  0  0  0  0  0  0  0
  139.2122   72.8975  223.4563 H   0  0  0  0  0  0  0  0  0  0  0  0
  140.9914   72.6391  224.9042 H   0  0  0  0  0  0  0  0  0  0  0  0
  141.9984   71.2783  226.6702 H   0  0  0  0  0  0  0  0  0  0  0  0
  141.3471   68.9154  226.9892 H   0  0  0  0  0  0  0  0  0  0  0  0
  139.6435   67.9351  225.4746 H   0  0  0  0  0  0  0  0  0  0  0  0
  138.6350   69.2638  223.7217 H   0  0  0  0  0  0  0  0  0  0  0  0
  137.5757   71.8051  220.7944 H   0  0  0  0  0  0  0  0  0  0  0  0
  135.1462   71.5134  220.6354 H   0  0  0  0  0  0  0  0  0  0  0  0
  133.7319   71.2307  222.6327 H   0  0  0  0  0  0  0  0  0  0  0  0
  137.2375   71.5365  225.0493 H   0  0  0  0  0  0  0  0  0  0  0  0
  141.0702   76.0845  222.8155 H   0  0  0  0  0  0  0  0  0  0  0  0
  141.9008   75.3244  221.4173 H   0  0  0  0  0  0  0  0  0  0  0  0
  141.0499   77.5664  220.7589 H   0  0  0  0  0  0  0  0  0  0  0  0
  140.1413   76.3316  219.8747 H   0  0  0  0  0  0  0  0  0  0  0  0
  1  2  1  0
  2  3  1  0
  3  4  2  0
  3  5  1  0
  5  6  1  0
  6  7  2  0
  7  8  1  0
  8  9  2  0
  9 10  1  0
 10 11  2  0
  5 12  1  0
 12 13  1  0
 13 14  1  0
 14 15  1  0
 15 16  1  0
 16 17  2  0
 16 18  1  0
 18 19  1  0
 18 20  1  0
 20 21  1  0
 21 22  2  0
 22 23  1  0
 23 24  2  0
 24 25  1  0
 25 26  2  0
 20 27  1  0
 27 28  2  0
 28 29  1  0
 29 30  2  0
 30 31  1  0
 31 32  1  0
 31 33  2  0
 15 34  1  0
 34 35  1  0
 11  6  1  0
 35 12  1  0
 26 21  1  0
 33 27  1  0
  1 36  1  0
  1 37  1  0
  1 38  1  0
  2 39  1  0
  2 40  1  0
  7 41  1  0
  8 42  1  0
  9 43  1  0
 10 44  1  0
 11 45  1  0
 12 46  1  0
 13 47  1  0
 13 48  1  0
 14 49  1  0
 14 50  1  0
 18 51  1  6
 19 52  1  0
 19 53  1  0
 20 54  1  1
 22 55  1  0
 23 56  1  0
 24 57  1  0
 25 58  1  0
 26 59  1  0
 28 60  1  0
 29 61  1  0
 30 62  1  0
 33 63  1  0
 34 64  1  0
 34 65  1  0
 35 66  1  0
 35 67  1  0
M  END
>  <smiles>  (1) 
CCC(=O)N(c1ccccc1)C1CCN(C(=O)[C@@H](N)C(c2ccccc2)c2cccc(F)c2)CC1

>  <score_type>  (1) 
oracle

>  <origin>  (1) 
autodockgpu

>  <m_score__min__energy>  (1) 
-8.0600000000000005

>  <m_primary>  (1) 
energy

>  <rmsd>  (1) 
8.295461038949528

>  <m_score__min__rmsd>  (1) 
8.295461038949528

>  <meeko>  (1) 
{"free_energy": -6.72, "intermolecular_energy": -9.4, "internal_energy": -3.08, "cluster_size": 2, "cluster_id": 11, "rank_in_cluster": 2}

>  <energy>  (1) 
-8.06

>  <cluster_rmsd>  (1) 
0.0

>  <cluster>  (1) 
1

$$$$

     RDKit          3D

 67 70  0  0  0  0  0  0  0  0999 V2000
  135.0680   70.7390  224.6220 C   0  0  0  0  0  0  0  0  0  0  0  0
  136.4870   71.1260  224.2170 C   0  0  0  0  0  0  0  0  0  0  0  0
  137.3620   69.9920  224.5270 C   0  0  0  0  0  0  0  0  0  0  0  0
  136.8390   68.8910  224.8760 O   0  0  0  0  0  0  0  0  0  0  0  0
  138.7840   70.0330  224.4670 N   0  0  0  0  0  0  0  0  0  0  0  0
  139.4970   69.8330  225.6820 C   0  0  0  0  0  0  0  0  0  0  0  0
  140.0040   70.8970  226.4230 C   0  0  0  0  0  0  0  0  0  0  0  0
  140.6940   70.6740  227.5990 C   0  0  0  0  0  0  0  0  0  0  0  0
  140.8690   69.3710  228.0210 C   0  0  0  0  0  0  0  0  0  0  0  0
  140.3830   68.2900  227.3140 C   0  0  0  0  0  0  0  0  0  0  0  0
  139.6870   68.5360  226.1270 C   0  0  0  0  0  0  0  0  0  0  0  0
  139.4210   70.2700  223.1940 C   0  0  0  0  0  0  0  0  0  0  0  0
  140.3470   71.4290  223.3590 C   0  0  0  0  0  0  0  0  0  0  0  0
  140.9590   71.7400  221.9900 C   0  0  0  0  0  0  0  0  0  0  0  0
  139.8660   72.2430  221.1850 N   0  0  0  0  0  0  0  0  0  0  0  0
  139.9690   72.9910  220.0110 C   0  0  0  0  0  0  0  0  0  0  0  0
  138.8710   73.3660  219.4400 O   0  0  0  0  0  0  0  0  0  0  0  0
  141.1950   73.4280  219.3110 C   0  0  1  0  0  0  0  0  0  0  0  0
  141.0470   74.0900  218.1000 N   0  0  0  0  0  0  0  0  0  0  0  0
  142.0980   74.0420  220.3430 C   0  0  2  0  0  0  0  0  0  0  0  0
  141.7750   75.4010  220.7750 C   0  0  0  0  0  0  0  0  0  0  0  0
  142.1980   76.5470  220.0930 C   0  0  0  0  0  0  0  0  0  0  0  0
  141.8750   77.8160  220.5170 C   0  0  0  0  0  0  0  0  0  0  0  0
  141.1180   78.0220  221.6360 C   0  0  0  0  0  0  0  0  0  0  0  0
  140.6840   76.9220  222.3310 C   0  0  0  0  0  0  0  0  0  0  0  0
  141.0020   75.6700  221.9140 C   0  0  0  0  0  0  0  0  0  0  0  0
  143.5460   73.7890  220.1400 C   0  0  0  0  0  0  0  0  0  0  0  0
  144.0800   73.5830  218.8610 C   0  0  0  0  0  0  0  0  0  0  0  0
  145.4300   73.3500  218.6980 C   0  0  0  0  0  0  0  0  0  0  0  0
  146.3060   73.3060  219.7460 C   0  0  0  0  0  0  0  0  0  0  0  0
  145.7940   73.5080  221.0140 C   0  0  0  0  0  0  0  0  0  0  0  0
  146.6590   73.4670  222.0740 F   0  0  0  0  0  0  0  0  0  0  0  0
  144.4630   73.7370  221.1730 C   0  0  0  0  0  0  0  0  0  0  0  0
  138.5270   71.9160  221.6760 C   0  0  0  0  0  0  0  0  0  0  0  0
  138.4740   70.4290  222.0590 C   0  0  0  0  0  0  0  0  0  0  0  0
  134.9926   70.7184  225.7192 H   0  0  0  0  0  0  0  0  0  0  0  0
  134.3578   71.4763  224.2194 H   0  0  0  0  0  0  0  0  0  0  0  0
  134.8304   69.7433  224.2194 H   0  0  0  0  0  0  0  0  0  0  0  0
  136.5231   71.3438  223.1394 H   0  0  0  0  0  0  0  0  0  0  0  0
  136.8123   72.0247  224.7616 H   0  0  0  0  0  0  0  0  0  0  0  0
  139.8535   71.9272  226.0680 H   0  0  0  0  0  0  0  0  0  0  0  0
  141.0944   71.5144  228.1851 H   0  0  0  0  0  0  0  0  0  0  0  0
  141.4170   69.1875  228.9569 H   0  0  0  0  0  0  0  0  0  0  0  0
  140.5391   67.2626  227.6748 H   0  0  0  0  0  0  0  0  0  0  0  0
  139.2878   67.6937  225.5429 H   0  0  0  0  0  0  0  0  0  0  0  0
  139.9916   69.3740  222.9084 H   0  0  0  0  0  0  0  0  0  0  0  0
  139.7899   72.3033  223.7268 H   0  0  0  0  0  0  0  0  0  0  0  0
  141.1364   71.1887  224.0864 H   0  0  0  0  0  0  0  0  0  0  0  0
  141.7484   72.5002  222.0852 H   0  0  0  0  0  0  0  0  0  0  0  0
  141.4240   70.8512  221.5386 H   0  0  0  0  0  0  0  0  0  0  0  0
  141.6953   72.5477  218.8811 H   0  0  0  0  0  0  0  0  0  0  0  0
  140.1070   74.3100  217.7570 H   0  0  0  0  0  0  0  0  0  0  0  0
  141.7330   74.7900  217.8510 H   0  0  0  0  0  0  0  0  0  0  0  0
  141.8385   73.4512  221.2338 H   0  0  0  0  0  0  0  0  0  0  0  0
  142.8100   76.4298  219.1865 H   0  0  0  0  0  0  0  0  0  0  0  0
  142.2339   78.6829  219.9429 H   0  0  0  0  0  0  0  0  0  0  0  0
  140.8644   79.0392  221.9692 H   0  0  0  0  0  0  0  0  0  0  0  0
  140.0722   77.0558  223.2353 H   0  0  0  0  0  0  0  0  0  0  0  0
  140.6323   74.8177  222.5030 H   0  0  0  0  0  0  0  0  0  0  0  0
  143.4191   73.6072  217.9820 H   0  0  0  0  0  0  0  0  0  0  0  0
  145.8180   73.1929  217.6807 H   0  0  0  0  0  0  0  0  0  0  0  0
  147.3778   73.1170  219.5866 H   0  0  0  0  0  0  0  0  0  0  0  0
  144.0897   73.8918  222.1961 H   0  0  0  0  0  0  0  0  0  0  0  0
  138.2994   72.5310  222.5592 H   0  0  0  0  0  0  0  0  0  0  0  0
  137.7865   72.1196  220.8884 H   0  0  0  0  0  0  0  0  0  0  0  0
  137.4559   70.1487  222.3672 H   0  0  0  0  0  0  0  0  0  0  0  0
  138.7451   69.7823  221.2115 H   0  0  0  0  0  0  0  0  0  0  0  0
  1  2  1  0
  2  3  1  0
  3  4  2  0
  3  5  1  0
  5  6  1  0
  6  7  2  0
  7  8  1  0
  8  9  2  0
  9 10  1  0
 10 11  2  0
  5 12  1  0
 12 13  1  0
 13 14  1  0
 14 15  1  0
 15 16  1  0
 16 17  2  0
 16 18  1  0
 18 19  1  0
 18 20  1  0
 20 21  1  0
 21 22  2  0
 22 23  1  0
 23 24  2  0
 24 25  1  0
 25 26  2  0
 20 27  1  0
 27 28  2  0
 28 29  1  0
 29 30  2  0
 30 31  1  0
 31 32  1  0
 31 33  2  0
 15 34  1  0
 34 35  1  0
 11  6  1  0
 35 12  1  0
 26 21  1  0
 33 27  1  0
  1 36  1  0
  1 37  1  0
  1 38  1  0
  2 39  1  0
  2 40  1  0
  7 41  1  0
  8 42  1  0
  9 43  1  0
 10 44  1  0
 11 45  1  0
 12 46  1  0
 13 47  1  0
 13 48  1  0
 14 49  1  0
 14 50  1  0
 18 51  1  6
 19 52  1  0
 19 53  1  0
 20 54  1  1
 22 55  1  0
 23 56  1  0
 24 57  1  0
 25 58  1  0
 26 59  1  0
 28 60  1  0
 29 61  1  0
 30 62  1  0
 33 63  1  0
 34 64  1  0
 34 65  1  0
 35 66  1  0
 35 67  1  0
M  END
>  <smiles>  (2) 
CCC(=O)N(c1ccccc1)C1CCN(C(=O)[C@@H](N)C(c2ccccc2)c2cccc(F)c2)CC1

>  <score_type>  (2) 
oracle

>  <origin>  (2) 
autodockgpu

>  <m_score__min__energy>  (2) 
-8.0600000000000005

>  <m_primary>  (2) 
energy

>  <rmsd>  (2) 
6.4476756072305035

>  <m_score__min__rmsd>  (2) 
6.4476756072305035

>  <meeko>  (2) 
{"free_energy": -7.35, "intermolecular_energy": -10.04, "internal_energy": -2.8, "cluster_size": 14, "cluster_id": 2, "rank_in_cluster": 5}

>  <energy>  (2) 
-8.05

>  <cluster_rmsd>  (2) 
0.08

>  <cluster>  (2) 
1

$$$$

     RDKit          3D

 67 70  0  0  0  0  0  0  0  0999 V2000
  137.9950   80.6750  224.5100 C   0  0  0  0  0  0  0  0  0  0  0  0
  138.0260   80.6830  222.9840 C   0  0  0  0  0  0  0  0  0  0  0  0
  138.0600   79.2890  222.5330 C   0  0  0  0  0  0  0  0  0  0  0  0
  136.9660   78.6670  222.3820 O   0  0  0  0  0  0  0  0  0  0  0  0
  139.2520   78.5650  222.2480 N   0  0  0  0  0  0  0  0  0  0  0  0
  140.4900   79.1880  222.5680 C   0  0  0  0  0  0  0  0  0  0  0  0
  141.2090   79.9250  221.6310 C   0  0  0  0  0  0  0  0  0  0  0  0
  142.4090   80.5190  221.9680 C   0  0  0  0  0  0  0  0  0  0  0  0
  142.8800   80.3630  223.2570 C   0  0  0  0  0  0  0  0  0  0  0  0
  142.1980   79.6400  224.2140 C   0  0  0  0  0  0  0  0  0  0  0  0
  140.9840   79.0470  223.8530 C   0  0  0  0  0  0  0  0  0  0  0  0
  139.1450   77.2520  221.6580 C   0  0  0  0  0  0  0  0  0  0  0  0
  138.6360   76.3220  222.7090 C   0  0  0  0  0  0  0  0  0  0  0  0
  138.6050   74.9120  222.1140 C   0  0  0  0  0  0  0  0  0  0  0  0
  139.9920   74.5420  221.9240 N   0  0  0  0  0  0  0  0  0  0  0  0
  140.4980   73.2520  221.7590 C   0  0  0  0  0  0  0  0  0  0  0  0
  141.7760   73.1230  221.6190 O   0  0  0  0  0  0  0  0  0  0  0  0
  139.7510   71.9770  221.7220 C   0  0  1  0  0  0  0  0  0  0  0  0
  140.4170   70.8520  221.2540 N   0  0  0  0  0  0  0  0  0  0  0  0
  139.0050   71.8640  223.0210 C   0  0  2  0  0  0  0  0  0  0  0  0
  139.6790   71.1560  224.1070 C   0  0  0  0  0  0  0  0  0  0  0  0
  140.6720   71.7350  224.9040 C   0  0  0  0  0  0  0  0  0  0  0  0
  141.2890   71.0480  225.9260 C   0  0  0  0  0  0  0  0  0  0  0  0
  140.9570   69.7540  226.2150 C   0  0  0  0  0  0  0  0  0  0  0  0
  139.9870   69.1530  225.4550 C   0  0  0  0  0  0  0  0  0  0  0  0
  139.3790   69.8280  224.4480 C   0  0  0  0  0  0  0  0  0  0  0  0
  137.5600   71.5560  222.8880 C   0  0  0  0  0  0  0  0  0  0  0  0
  137.0510   70.9030  221.7570 C   0  0  0  0  0  0  0  0  0  0  0  0
  135.7030   70.6270  221.6580 C   0  0  0  0  0  0  0  0  0  0  0  0
  134.8040   70.9650  222.6300 C   0  0  0  0  0  0  0  0  0  0  0  0
  135.2910   71.6090  223.7520 C   0  0  0  0  0  0  0  0  0  0  0  0
  134.4030   71.9530  224.7350 F   0  0  0  0  0  0  0  0  0  0  0  0
  136.6190   71.8800  223.8490 C   0  0  0  0  0  0  0  0  0  0  0  0
  140.9380   75.6590  221.9060 C   0  0  0  0  0  0  0  0  0  0  0  0
  140.3910   76.7750  221.0030 C   0  0  0  0  0  0  0  0  0  0  0  0
  138.9916   80.9320  224.8983 H   0  0  0  0  0  0  0  0  0  0  0  0
  137.2613   81.4133  224.8657 H   0  0  0  0  0  0  0  0  0  0  0  0
  137.7098   79.6739  224.8657 H   0  0  0  0  0  0  0  0  0  0  0  0
  137.1266   81.1816  222.5934 H   0  0  0  0  0  0  0  0  0  0  0  0
  138.9088   81.2283  222.6189 H   0  0  0  0  0  0  0  0  0  0  0  0
  140.8162   80.0355  220.6095 H   0  0  0  0  0  0  0  0  0  0  0  0
  142.9762   81.1024  221.2278 H   0  0  0  0  0  0  0  0  0  0  0  0
  143.8358   80.8334  223.5312 H   0  0  0  0  0  0  0  0  0  0  0  0
  142.5982   79.5330  225.2330 H   0  0  0  0  0  0  0  0  0  0  0  0
  140.4181   78.4648  224.5952 H   0  0  0  0  0  0  0  0  0  0  0  0
  138.4330   77.2947  220.8206 H   0  0  0  0  0  0  0  0  0  0  0  0
  139.3035   76.3443  223.5830 H   0  0  0  0  0  0  0  0  0  0  0  0
  137.6289   76.6237  223.0327 H   0  0  0  0  0  0  0  0  0  0  0  0
  138.1120   74.2134  222.8061 H   0  0  0  0  0  0  0  0  0  0  0  0
  138.0409   74.8795  221.1702 H   0  0  0  0  0  0  0  0  0  0  0  0
  139.0230   72.0110  220.8981 H   0  0  0  0  0  0  0  0  0  0  0  0
  141.4140   70.9150  221.0220 H   0  0  0  0  0  0  0  0  0  0  0  0
  140.1550   69.9510  221.6310 H   0  0  0  0  0  0  0  0  0  0  0  0
  139.0323   72.9044  223.3770 H   0  0  0  0  0  0  0  0  0  0  0  0
  140.9706   72.7754  224.7077 H   0  0  0  0  0  0  0  0  0  0  0  0
  142.0649   71.5510  226.5218 H   0  0  0  0  0  0  0  0  0  0  0  0
  141.4532   69.2110  227.0329 H   0  0  0  0  0  0  0  0  0  0  0  0
  139.6988   68.1122  225.6642 H   0  0  0  0  0  0  0  0  0  0  0  0
  138.6066   69.3048  223.8652 H   0  0  0  0  0  0  0  0  0  0  0  0
  137.7305   70.6089  220.9435 H   0  0  0  0  0  0  0  0  0  0  0  0
  135.3359   70.1126  220.7576 H   0  0  0  0  0  0  0  0  0  0  0  0
  133.7339   70.7335  222.5237 H   0  0  0  0  0  0  0  0  0  0  0  0
  136.9708   72.3934  224.7560 H   0  0  0  0  0  0  0  0  0  0  0  0
  141.0700   76.0449  222.9276 H   0  0  0  0  0  0  0  0  0  0  0  0
  141.9076   75.3137  221.5178 H   0  0  0  0  0  0  0  0  0  0  0  0
  141.1199   77.5950  220.9233 H   0  0  0  0  0  0  0  0  0  0  0  0
  140.1985   76.4122  219.9826 H   0  0  0  0  0  0  0  0  0  0  0  0
  1  2  1  0
  2  3  1  0
  3  4  2  0
  3  5  1  0
  5  6  1  0
  6  7  2  0
  7  8  1  0
  8  9  2  0
  9 10  1  0
 10 11  2  0
  5 12  1  0
 12 13  1  0
 13 14  1  0
 14 15  1  0
 15 16  1  0
 16 17  2  0
 16 18  1  0
 18 19  1  0
 18 20  1  0
 20 21  1  0
 21 22  2  0
 22 23  1  0
 23 24  2  0
 24 25  1  0
 25 26  2  0
 20 27  1  0
 27 28  2  0
 28 29  1  0
 29 30  2  0
 30 31  1  0
 31 32  1  0
 31 33  2  0
 15 34  1  0
 34 35  1  0
 11  6  1  0
 35 12  1  0
 26 21  1  0
 33 27  1  0
  1 36  1  0
  1 37  1  0
  1 38  1  0
  2 39  1  0
  2 40  1  0
  7 41  1  0
  8 42  1  0
  9 43  1  0
 10 44  1  0
 11 45  1  0
 12 46  1  0
 13 47  1  0
 13 48  1  0
 14 49  1  0
 14 50  1  0
 18 51  1  6
 19 52  1  0
 19 53  1  0
 20 54  1  1
 22 55  1  0
 23 56  1  0
 24 57  1  0
 25 58  1  0
 26 59  1  0
 28 60  1  0
 29 61  1  0
 30 62  1  0
 33 63  1  0
 34 64  1  0
 34 65  1  0
 35 66  1  0
 35 67  1  0
M  END
>  <smiles>  (3) 
CCC(=O)N(c1ccccc1)C1CCN(C(=O)[C@@H](N)C(c2ccccc2)c2cccc(F)c2)CC1

>  <score_type>  (3) 
oracle

>  <origin>  (3) 
autodockgpu

>  <m_score__min__energy>  (3) 
-8.0600000000000005

>  <m_primary>  (3) 
energy

>  <rmsd>  (3) 
8.217058486098825

>  <m_score__min__rmsd>  (3) 
8.217058486098825

>  <meeko>  (3) 
{"free_energy": -6.77, "intermolecular_energy": -9.45, "internal_energy": -3.08, "cluster_size": 2, "cluster_id": 11, "rank_in_cluster": 1}

>  <energy>  (3) 
-7.98

>  <cluster_rmsd>  (3) 
0.8

>  <cluster>  (3) 
1

$$$$

     RDKit          3D

 67 70  0  0  0  0  0  0  0  0999 V2000
  144.5210   75.5970  215.9470 C   0  0  0  0  0  0  0  0  0  0  0  0
  143.6830   76.4570  216.8890 C   0  0  0  0  0  0  0  0  0  0  0  0
  142.9080   75.5540  217.7430 C   0  0  0  0  0  0  0  0  0  0  0  0
  141.9060   74.9520  217.2510 O   0  0  0  0  0  0  0  0  0  0  0  0
  143.1990   75.2950  219.1130 N   0  0  0  0  0  0  0  0  0  0  0  0
  144.1510   74.2780  219.3990 C   0  0  0  0  0  0  0  0  0  0  0  0
  144.2540   73.1250  218.6250 C   0  0  0  0  0  0  0  0  0  0  0  0
  145.1880   72.1520  218.9250 C   0  0  0  0  0  0  0  0  0  0  0  0
  146.0150   72.3500  220.0130 C   0  0  0  0  0  0  0  0  0  0  0  0
  145.9440   73.4780  220.8050 C   0  0  0  0  0  0  0  0  0  0  0  0
  144.9930   74.4510  220.4830 C   0  0  0  0  0  0  0  0  0  0  0  0
  142.5240   76.0690  220.1270 C   0  0  0  0  0  0  0  0  0  0  0  0
  141.3880   75.2480  220.6420 C   0  0  0  0  0  0  0  0  0  0  0  0
  140.6160   76.0980  221.6550 C   0  0  0  0  0  0  0  0  0  0  0  0
  139.9960   77.1530  220.8800 N   0  0  0  0  0  0  0  0  0  0  0  0
  138.9190   77.9500  221.2670 C   0  0  0  0  0  0  0  0  0  0  0  0
  138.4940   78.8340  220.4240 O   0  0  0  0  0  0  0  0  0  0  0  0
  138.1740   77.9220  222.5430 C   0  0  1  0  0  0  0  0  0  0  0  0
  137.9170   76.6830  223.1140 N   0  0  0  0  0  0  0  0  0  0  0  0
  138.7570   78.9940  223.4200 C   0  0  2  0  0  0  0  0  0  0  0  0
  137.8630   80.0810  223.8110 C   0  0  0  0  0  0  0  0  0  0  0  0
  136.7200   80.4390  223.0860 C   0  0  0  0  0  0  0  0  0  0  0  0
  135.8900   81.4640  223.4800 C   0  0  0  0  0  0  0  0  0  0  0  0
  136.1430   82.1910  224.6090 C   0  0  0  0  0  0  0  0  0  0  0  0
  137.2540   81.8700  225.3460 C   0  0  0  0  0  0  0  0  0  0  0  0
  138.0730   80.8600  224.9600 C   0  0  0  0  0  0  0  0  0  0  0  0
  140.1280   79.4260  223.0530 C   0  0  0  0  0  0  0  0  0  0  0  0
  141.2570   78.7090  223.4680 C   0  0  0  0  0  0  0  0  0  0  0  0
  142.5220   79.1310  223.1130 C   0  0  0  0  0  0  0  0  0  0  0  0
  142.7450   80.2450  222.3550 C   0  0  0  0  0  0  0  0  0  0  0  0
  141.6400   80.9640  221.9360 C   0  0  0  0  0  0  0  0  0  0  0  0
  141.8470   82.0830  221.1760 F   0  0  0  0  0  0  0  0  0  0  0  0
  140.3950   80.5470  222.2870 C   0  0  0  0  0  0  0  0  0  0  0  0
  140.5840   77.3850  219.5600 C   0  0  0  0  0  0  0  0  0  0  0  0
  142.1150   77.4280  219.6850 C   0  0  0  0  0  0  0  0  0  0  0  0
  145.1691   74.9319  216.5367 H   0  0  0  0  0  0  0  0  0  0  0  0
  143.8557   74.9928  215.3127 H   0  0  0  0  0  0  0  0  0  0  0  0
  145.1422   76.2464  215.3127 H   0  0  0  0  0  0  0  0  0  0  0  0
  144.3405   77.0857  217.5074 H   0  0  0  0  0  0  0  0  0  0  0  0
  143.0137   77.1163  216.3169 H   0  0  0  0  0  0  0  0  0  0  0  0
  143.5834   72.9871  217.7640 H   0  0  0  0  0  0  0  0  0  0  0  0
  145.2708   71.2422  218.3123 H   0  0  0  0  0  0  0  0  0  0  0  0
  146.7596   71.5783  220.2581 H   0  0  0  0  0  0  0  0  0  0  0  0
  146.6168   73.6079  221.6655 H   0  0  0  0  0  0  0  0  0  0  0  0
  144.9137   75.3608  221.0961 H   0  0  0  0  0  0  0  0  0  0  0  0
  143.2310   76.2828  220.9421 H   0  0  0  0  0  0  0  0  0  0  0  0
  140.7258   74.9630  219.8112 H   0  0  0  0  0  0  0  0  0  0  0  0
  141.7629   74.3300  221.1181 H   0  0  0  0  0  0  0  0  0  0  0  0
  139.8504   75.4920  222.1615 H   0  0  0  0  0  0  0  0  0  0  0  0
  141.2756   76.4998  222.4383 H   0  0  0  0  0  0  0  0  0  0  0  0
  137.1184   78.1612  222.3467 H   0  0  0  0  0  0  0  0  0  0  0  0
  138.7000   76.0790  223.3850 H   0  0  0  0  0  0  0  0  0  0  0  0
  137.1200   76.5970  223.7310 H   0  0  0  0  0  0  0  0  0  0  0  0
  138.8848   78.4518  224.3685 H   0  0  0  0  0  0  0  0  0  0  0  0
  136.4767   79.8816  222.1694 H   0  0  0  0  0  0  0  0  0  0  0  0
  135.0042   81.7029  222.8731 H   0  0  0  0  0  0  0  0  0  0  0  0
  135.4755   83.0092  224.9174 H   0  0  0  0  0  0  0  0  0  0  0  0
  137.4834   82.4376  226.2599 H   0  0  0  0  0  0  0  0  0  0  0  0
  138.9521   80.6386  225.5830 H   0  0  0  0  0  0  0  0  0  0  0  0
  141.1347   77.8037  224.0808 H   0  0  0  0  0  0  0  0  0  0  0  0
  143.3878   78.5451  223.4552 H   0  0  0  0  0  0  0  0  0  0  0  0
  143.7649   80.5587  222.0877 H   0  0  0  0  0  0  0  0  0  0  0  0
  139.5390   81.1428  221.9374 H   0  0  0  0  0  0  0  0  0  0  0  0
  140.2938   76.5702  218.8804 H   0  0  0  0  0  0  0  0  0  0  0  0
  140.2206   78.3424  219.1584 H   0  0  0  0  0  0  0  0  0  0  0  0
  142.5719   77.6685  218.7137 H   0  0  0  0  0  0  0  0  0  0  0  0
  142.4414   78.2004  220.3969 H   0  0  0  0  0  0  0  0  0  0  0  0
  1  2  1  0
  2  3  1  0
  3  4  2  0
  3  5  1  0
  5  6  1  0
  6  7  2  0
  7  8  1  0
  8  9  2  0
  9 10  1  0
 10 11  2  0
  5 12  1  0
 12 13  1  0
 13 14  1  0
 14 15  1  0
 15 16  1  0
 16 17  2  0
 16 18  1  0
 18 19  1  0
 18 20  1  0
 20 21  1  0
 21 22  2  0
 22 23  1  0
 23 24  2  0
 24 25  1  0
 25 26  2  0
 20 27  1  0
 27 28  2  0
 28 29  1  0
 29 30  2  0
 30 31  1  0
 31 32  1  0
 31 33  2  0
 15 34  1  0
 34 35  1  0
 11  6  1  0
 35 12  1  0
 26 21  1  0
 33 27  1  0
  1 36  1  0
  1 37  1  0
  1 38  1  0
  2 39  1  0
  2 40  1  0
  7 41  1  0
  8 42  1  0
  9 43  1  0
 10 44  1  0
 11 45  1  0
 12 46  1  0
 13 47  1  0
 13 48  1  0
 14 49  1  0
 14 50  1  0
 18 51  1  6
 19 52  1  0
 19 53  1  0
 20 54  1  1
 22 55  1  0
 23 56  1  0
 24 57  1  0
 25 58  1  0
 26 59  1  0
 28 60  1  0
 29 61  1  0
 30 62  1  0
 33 63  1  0
 34 64  1  0
 34 65  1  0
 35 66  1  0
 35 67  1  0
M  END
>  <smiles>  (4) 
CCC(=O)N(c1ccccc1)C1CCN(C(=O)[C@@H](N)C(c2ccccc2)c2cccc(F)c2)CC1

>  <score_type>  (4) 
oracle

>  <origin>  (4) 
autodockgpu

>  <m_score__min__energy>  (4) 
-8.0600000000000005

>  <m_primary>  (4) 
energy

>  <rmsd>  (4) 
4.078366482251624

>  <m_score__min__rmsd>  (4) 
4.078366482251624

>  <meeko>  (4) 
{"free_energy": -7.0, "intermolecular_energy": -9.69, "internal_energy": -2.94, "cluster_size": 11, "cluster_id": 7, "rank_in_cluster": 7}

>  <energy>  (4) 
-7.97

>  <cluster_rmsd>  (4) 
0.33

>  <cluster>  (4) 
1

$$$$

     RDKit          3D

 67 70  0  0  0  0  0  0  0  0999 V2000
  142.5660   80.4000  218.3170 C   0  0  0  0  0  0  0  0  0  0  0  0
  141.5270   79.2820  218.3140 C   0  0  0  0  0  0  0  0  0  0  0  0
  141.9520   78.2790  219.2940 C   0  0  0  0  0  0  0  0  0  0  0  0
  142.9670   77.5630  219.0400 O   0  0  0  0  0  0  0  0  0  0  0  0
  141.2970   78.0400  220.5360 N   0  0  0  0  0  0  0  0  0  0  0  0
  141.4560   79.0170  221.5580 C   0  0  0  0  0  0  0  0  0  0  0  0
  142.5720   79.0390  222.3910 C   0  0  0  0  0  0  0  0  0  0  0  0
  142.7000   79.9980  223.3760 C   0  0  0  0  0  0  0  0  0  0  0  0
  141.6950   80.9340  223.5170 C   0  0  0  0  0  0  0  0  0  0  0  0
  140.5730   80.9450  222.7130 C   0  0  0  0  0  0  0  0  0  0  0  0
  140.4620   79.9660  221.7200 C   0  0  0  0  0  0  0  0  0  0  0  0
  140.5160   76.8370  220.6920 C   0  0  0  0  0  0  0  0  0  0  0  0
  140.2650   76.6450  222.1510 C   0  0  0  0  0  0  0  0  0  0  0  0
  139.5120   75.3230  222.3280 C   0  0  0  0  0  0  0  0  0  0  0  0
  140.4600   74.2880  221.9700 N   0  0  0  0  0  0  0  0  0  0  0  0
  140.3860   72.9360  222.3060 C   0  0  0  0  0  0  0  0  0  0  0  0
  141.3440   72.1660  221.9060 O   0  0  0  0  0  0  0  0  0  0  0  0
  139.3350   72.2440  223.0810 C   0  0  1  0  0  0  0  0  0  0  0  0
  138.0240   72.3620  222.6400 N   0  0  0  0  0  0  0  0  0  0  0  0
  139.8500   70.8680  223.3950 C   0  0  2  0  0  0  0  0  0  0  0  0
  139.1330   69.7450  222.7960 C   0  0  0  0  0  0  0  0  0  0  0  0
  139.6060   69.0320  221.6890 C   0  0  0  0  0  0  0  0  0  0  0  0
  138.9140   67.9720  221.1460 C   0  0  0  0  0  0  0  0  0  0  0  0
  137.7200   67.5610  221.6670 C   0  0  0  0  0  0  0  0  0  0  0  0
  137.2240   68.2350  222.7520 C   0  0  0  0  0  0  0  0  0  0  0  0
  137.9050   69.2800  223.2890 C   0  0  0  0  0  0  0  0  0  0  0  0
  140.2550   70.6580  224.8070 C   0  0  0  0  0  0  0  0  0  0  0  0
  140.2270   69.3870  225.3950 C   0  0  0  0  0  0  0  0  0  0  0  0
  140.6090   69.2180  226.7100 C   0  0  0  0  0  0  0  0  0  0  0  0
  141.0260   70.2520  227.4990 C   0  0  0  0  0  0  0  0  0  0  0  0
  141.0590   71.5130  226.9330 C   0  0  0  0  0  0  0  0  0  0  0  0
  141.4750   72.5600  227.7110 F   0  0  0  0  0  0  0  0  0  0  0  0
  140.6830   71.6780  225.6370 C   0  0  0  0  0  0  0  0  0  0  0  0
  141.6010   74.7370  221.1710 C   0  0  0  0  0  0  0  0  0  0  0  0
  141.1020   75.6400  220.0320 C   0  0  0  0  0  0  0  0  0  0  0  0
  142.8142   80.6671  219.3548 H   0  0  0  0  0  0  0  0  0  0  0  0
  143.4742   80.0579  217.7992 H   0  0  0  0  0  0  0  0  0  0  0  0
  142.1584   81.2808  217.7992 H   0  0  0  0  0  0  0  0  0  0  0  0
  140.5420   79.6847  218.5926 H   0  0  0  0  0  0  0  0  0  0  0  0
  141.4454   78.8334  217.3129 H   0  0  0  0  0  0  0  0  0  0  0  0
  143.3609   78.2833  222.2626 H   0  0  0  0  0  0  0  0  0  0  0  0
  143.5820   80.0158  224.0330 H   0  0  0  0  0  0  0  0  0  0  0  0
  141.7921   81.7004  224.3001 H   0  0  0  0  0  0  0  0  0  0  0  0
  139.7876   81.7030  222.8494 H   0  0  0  0  0  0  0  0  0  0  0  0
  139.5792   79.9505  221.0639 H   0  0  0  0  0  0  0  0  0  0  0  0
  139.5602   76.9611  220.1620 H   0  0  0  0  0  0  0  0  0  0  0  0
  141.2214   76.6061  222.6930 H   0  0  0  0  0  0  0  0  0  0  0  0
  139.6724   77.4807  222.5516 H   0  0  0  0  0  0  0  0  0  0  0  0
  139.1868   75.2024  223.3719 H   0  0  0  0  0  0  0  0  0  0  0  0
  138.6070   75.2816  221.7041 H   0  0  0  0  0  0  0  0  0  0  0  0
  139.1716   72.7847  224.0249 H   0  0  0  0  0  0  0  0  0  0  0  0
  137.3860   73.0060  223.1190 H   0  0  0  0  0  0  0  0  0  0  0  0
  137.8470   72.2960  221.6460 H   0  0  0  0  0  0  0  0  0  0  0  0
  140.7961   70.8585  222.8339 H   0  0  0  0  0  0  0  0  0  0  0  0
  140.5639   69.3283  221.2365 H   0  0  0  0  0  0  0  0  0  0  0  0
  139.3314   67.4457  220.2749 H   0  0  0  0  0  0  0  0  0  0  0  0
  137.1727   66.7137  221.2283 H   0  0  0  0  0  0  0  0  0  0  0  0
  136.2644   67.9265  223.1925 H   0  0  0  0  0  0  0  0  0  0  0  0
  137.4688   69.7908  224.1601 H   0  0  0  0  0  0  0  0  0  0  0  0
  139.8986   68.5186  224.8050 H   0  0  0  0  0  0  0  0  0  0  0  0
  140.5763   68.2068  227.1417 H   0  0  0  0  0  0  0  0  0  0  0  0
  141.3242   70.0877  228.5450 H   0  0  0  0  0  0  0  0  0  0  0  0
  140.7220   72.6947  225.2190 H   0  0  0  0  0  0  0  0  0  0  0  0
  142.2966   75.3016  221.8092 H   0  0  0  0  0  0  0  0  0  0  0  0
  142.1198   73.8642  220.7479 H   0  0  0  0  0  0  0  0  0  0  0  0
  141.9386   75.9327  219.3805 H   0  0  0  0  0  0  0  0  0  0  0  0
  140.3644   75.1242  219.3996 H   0  0  0  0  0  0  0  0  0  0  0  0
  1  2  1  0
  2  3  1  0
  3  4  2  0
  3  5  1  0
  5  6  1  0
  6  7  2  0
  7  8  1  0
  8  9  2  0
  9 10  1  0
 10 11  2  0
  5 12  1  0
 12 13  1  0
 13 14  1  0
 14 15  1  0
 15 16  1  0
 16 17  2  0
 16 18  1  0
 18 19  1  0
 18 20  1  0
 20 21  1  0
 21 22  2  0
 22 23  1  0
 23 24  2  0
 24 25  1  0
 25 26  2  0
 20 27  1  0
 27 28  2  0
 28 29  1  0
 29 30  2  0
 30 31  1  0
 31 32  1  0
 31 33  2  0
 15 34  1  0
 34 35  1  0
 11  6  1  0
 35 12  1  0
 26 21  1  0
 33 27  1  0
  1 36  1  0
  1 37  1  0
  1 38  1  0
  2 39  1  0
  2 40  1  0
  7 41  1  0
  8 42  1  0
  9 43  1  0
 10 44  1  0
 11 45  1  0
 12 46  1  0
 13 47  1  0
 13 48  1  0
 14 49  1  0
 14 50  1  0
 18 51  1  1
 19 52  1  0
 19 53  1  0
 20 54  1  6
 22 55  1  0
 23 56  1  0
 24 57  1  0
 25 58  1  0
 26 59  1  0
 28 60  1  0
 29 61  1  0
 30 62  1  0
 33 63  1  0
 34 64  1  0
 34 65  1  0
 35 66  1  0
 35 67  1  0
M  END
>  <smiles>  (5) 
CCC(=O)N(c1ccccc1)C1CCN(C(=O)[C@@H](N)C(c2ccccc2)c2cccc(F)c2)CC1

>  <score_type>  (5) 
oracle

>  <origin>  (5) 
autodockgpu

>  <m_score__min__energy>  (5) 
-8.0600000000000005

>  <m_primary>  (5) 
energy

>  <rmsd>  (5) 
8.834858860802798

>  <m_score__min__rmsd>  (5) 
8.834858860802798

>  <meeko>  (5) 
{"free_energy": -8.06, "intermolecular_energy": -10.74, "internal_energy": -2.24, "cluster_size": 7, "cluster_id": 1, "rank_in_cluster": 1}

>  <energy>  (5) 
-7.94

>  <cluster_rmsd>  (5) 
0.78

>  <cluster>  (5) 
1

$$$$

     RDKit          3D

 67 70  0  0  0  0  0  0  0  0999 V2000
  135.6770   82.3690  221.2530 C   0  0  0  0  0  0  0  0  0  0  0  0
  135.2680   82.8870  222.6290 C   0  0  0  0  0  0  0  0  0  0  0  0
  136.4680   82.9100  223.4700 C   0  0  0  0  0  0  0  0  0  0  0  0
  137.4690   83.5890  223.0920 O   0  0  0  0  0  0  0  0  0  0  0  0
  136.5980   82.2130  224.7050 N   0  0  0  0  0  0  0  0  0  0  0  0
  136.2090   82.8990  225.8880 C   0  0  0  0  0  0  0  0  0  0  0  0
  135.8030   82.2190  227.0350 C   0  0  0  0  0  0  0  0  0  0  0  0
  135.4290   82.9100  228.1710 C   0  0  0  0  0  0  0  0  0  0  0  0
  135.4650   84.2900  228.1420 C   0  0  0  0  0  0  0  0  0  0  0  0
  135.8590   85.0000  227.0260 C   0  0  0  0  0  0  0  0  0  0  0  0
  136.2360   84.2820  225.8870 C   0  0  0  0  0  0  0  0  0  0  0  0
  137.1110   80.8640  224.6920 C   0  0  0  0  0  0  0  0  0  0  0  0
  138.4470   80.8920  224.0280 C   0  0  0  0  0  0  0  0  0  0  0  0
  138.9550   79.4510  223.9330 C   0  0  0  0  0  0  0  0  0  0  0  0
  138.0790   78.7940  222.9860 N   0  0  0  0  0  0  0  0  0  0  0  0
  138.3350   77.6100  222.2930 C   0  0  0  0  0  0  0  0  0  0  0  0
  137.4290   77.1880  221.4730 O   0  0  0  0  0  0  0  0  0  0  0  0
  139.5330   76.7490  222.3690 C   0  0  1  0  0  0  0  0  0  0  0  0
  139.3490   75.3760  222.2680 N   0  0  0  0  0  0  0  0  0  0  0  0
  140.5900   77.3830  221.5100 C   0  0  2  0  0  0  0  0  0  0  0  0
  141.5170   76.4790  220.8340 C   0  0  0  0  0  0  0  0  0  0  0  0
  142.1840   76.8060  219.6470 C   0  0  0  0  0  0  0  0  0  0  0  0
  143.0580   75.9380  219.0320 C   0  0  0  0  0  0  0  0  0  0  0  0
  143.3200   74.7030  219.5540 C   0  0  0  0  0  0  0  0  0  0  0  0
  142.6860   74.3470  220.7160 C   0  0  0  0  0  0  0  0  0  0  0  0
  141.8240   75.2010  221.3240 C   0  0  0  0  0  0  0  0  0  0  0  0
  141.2210   78.5950  222.0870 C   0  0  0  0  0  0  0  0  0  0  0  0
  141.8920   78.5570  223.3160 C   0  0  0  0  0  0  0  0  0  0  0  0
  142.4710   79.6980  223.8310 C   0  0  0  0  0  0  0  0  0  0  0  0
  142.4290   80.9040  223.1910 C   0  0  0  0  0  0  0  0  0  0  0  0
  141.7720   80.9580  221.9760 C   0  0  0  0  0  0  0  0  0  0  0  0
  141.7210   82.1590  221.3210 F   0  0  0  0  0  0  0  0  0  0  0  0
  141.2000   79.8330  221.4700 C   0  0  0  0  0  0  0  0  0  0  0  0
  136.7980   79.4630  222.7540 C   0  0  0  0  0  0  0  0  0  0  0  0
  136.1810   79.8650  224.1030 C   0  0  0  0  0  0  0  0  0  0  0  0
  136.3547   81.5106  221.3709 H   0  0  0  0  0  0  0  0  0  0  0  0
  134.7806   82.0549  220.6981 H   0  0  0  0  0  0  0  0  0  0  0  0
  136.1904   83.1681  220.6981 H   0  0  0  0  0  0  0  0  0  0  0  0
  134.8535   83.9020  222.5394 H   0  0  0  0  0  0  0  0  0  0  0  0
  134.4986   82.2379  223.0725 H   0  0  0  0  0  0  0  0  0  0  0  0
  135.7802   81.1192  227.0355 H   0  0  0  0  0  0  0  0  0  0  0  0
  135.1102   82.3738  229.0770 H   0  0  0  0  0  0  0  0  0  0  0  0
  135.1680   84.8454  229.0439 H   0  0  0  0  0  0  0  0  0  0  0  0
  135.8759   86.0999  227.0324 H   0  0  0  0  0  0  0  0  0  0  0  0
  136.5565   84.8210  224.9833 H   0  0  0  0  0  0  0  0  0  0  0  0
  137.2178   80.5133  225.7291 H   0  0  0  0  0  0  0  0  0  0  0  0
  138.3546   81.3230  223.0202 H   0  0  0  0  0  0  0  0  0  0  0  0
  139.1500   81.5089  224.6070 H   0  0  0  0  0  0  0  0  0  0  0  0
  139.9940   79.4326  223.5724 H   0  0  0  0  0  0  0  0  0  0  0  0
  138.9469   78.9499  224.9122 H   0  0  0  0  0  0  0  0  0  0  0  0
  139.8914   76.7246  223.4087 H   0  0  0  0  0  0  0  0  0  0  0  0
  139.4640   74.7890  223.1000 H   0  0  0  0  0  0  0  0  0  0  0  0
  138.6360   75.0360  221.6380 H   0  0  0  0  0  0  0  0  0  0  0  0
  139.9886   77.7605  220.6699 H   0  0  0  0  0  0  0  0  0  0  0  0
  142.0035   77.7902  219.1902 H   0  0  0  0  0  0  0  0  0  0  0  0
  143.5559   76.2454  218.1006 H   0  0  0  0  0  0  0  0  0  0  0  0
  144.0191   74.0146  219.0565 H   0  0  0  0  0  0  0  0  0  0  0  0
  142.8778   73.3591  221.1602 H   0  0  0  0  0  0  0  0  0  0  0  0
  141.3382   74.8721  222.2545 H   0  0  0  0  0  0  0  0  0  0  0  0
  141.9576   77.6112  223.8739 H   0  0  0  0  0  0  0  0  0  0  0  0
  142.9891   79.6340  224.7992 H   0  0  0  0  0  0  0  0  0  0  0  0
  142.9000   81.7980  223.6258 H   0  0  0  0  0  0  0  0  0  0  0  0
  140.6842   79.9129  220.5017 H   0  0  0  0  0  0  0  0  0  0  0  0
  136.9592   80.3624  222.1415 H   0  0  0  0  0  0  0  0  0  0  0  0
  136.1162   78.7792  222.2271 H   0  0  0  0  0  0  0  0  0  0  0  0
  135.1864   80.3100  223.9519 H   0  0  0  0  0  0  0  0  0  0  0  0
  136.0498   78.9952  224.7635 H   0  0  0  0  0  0  0  0  0  0  0  0
  1  2  1  0
  2  3  1  0
  3  4  2  0
  3  5  1  0
  5  6  1  0
  6  7  2  0
  7  8  1  0
  8  9  2  0
  9 10  1  0
 10 11  2  0
  5 12  1  0
 12 13  1  0
 13 14  1  0
 14 15  1  0
 15 16  1  0
 16 17  2  0
 16 18  1  0
 18 19  1  0
 18 20  1  0
 20 21  1  0
 21 22  2  0
 22 23  1  0
 23 24  2  0
 24 25  1  0
 25 26  2  0
 20 27  1  0
 27 28  2  0
 28 29  1  0
 29 30  2  0
 30 31  1  0
 31 32  1  0
 31 33  2  0
 15 34  1  0
 34 35  1  0
 11  6  1  0
 35 12  1  0
 26 21  1  0
 33 27  1  0
  1 36  1  0
  1 37  1  0
  1 38  1  0
  2 39  1  0
  2 40  1  0
  7 41  1  0
  8 42  1  0
  9 43  1  0
 10 44  1  0
 11 45  1  0
 12 46  1  0
 13 47  1  0
 13 48  1  0
 14 49  1  0
 14 50  1  0
 18 51  1  1
 19 52  1  0
 19 53  1  0
 20 54  1  6
 22 55  1  0
 23 56  1  0
 24 57  1  0
 25 58  1  0
 26 59  1  0
 28 60  1  0
 29 61  1  0
 30 62  1  0
 33 63  1  0
 34 64  1  0
 34 65  1  0
 35 66  1  0
 35 67  1  0
M  END
>  <smiles>  (6) 
CCC(=O)N(c1ccccc1)C1CCN(C(=O)[C@@H](N)C(c2ccccc2)c2cccc(F)c2)CC1

>  <score_type>  (6) 
oracle

>  <origin>  (6) 
autodockgpu

>  <m_score__min__energy>  (6) 
-8.0600000000000005

>  <m_primary>  (6) 
energy

>  <rmsd>  (6) 
6.7029247066333335

>  <m_score__min__rmsd>  (6) 
6.7029247066333335

>  <meeko>  (6) 
{"free_energy": -7.19, "intermolecular_energy": -9.87, "internal_energy": -2.62, "cluster_size": 4, "cluster_id": 5, "rank_in_cluster": 1}

>  <energy>  (6) 
-7.86

>  <cluster_rmsd>  (6) 
0.22

>  <cluster>  (6) 
1

$$$$

     RDKit          3D

 67 70  0  0  0  0  0  0  0  0999 V2000
  136.3220   69.9220  224.4740 C   0  0  0  0  0  0  0  0  0  0  0  0
  136.6850   69.4630  223.0650 C   0  0  0  0  0  0  0  0  0  0  0  0
  137.9850   68.7890  223.1380 C   0  0  0  0  0  0  0  0  0  0  0  0
  138.1080   67.6360  222.6260 O   0  0  0  0  0  0  0  0  0  0  0  0
  139.1440   69.3420  223.7540 N   0  0  0  0  0  0  0  0  0  0  0  0
  139.4440   68.9220  225.0790 C   0  0  0  0  0  0  0  0  0  0  0  0
  139.6640   67.5840  225.3970 C   0  0  0  0  0  0  0  0  0  0  0  0
  139.9530   67.2040  226.6930 C   0  0  0  0  0  0  0  0  0  0  0  0
  140.0180   68.1820  227.6660 C   0  0  0  0  0  0  0  0  0  0  0  0
  139.8050   69.5170  227.3910 C   0  0  0  0  0  0  0  0  0  0  0  0
  139.5150   69.8820  226.0730 C   0  0  0  0  0  0  0  0  0  0  0  0
  139.9450   70.2850  223.0100 C   0  0  0  0  0  0  0  0  0  0  0  0
  139.7940   71.6200  223.6620 C   0  0  0  0  0  0  0  0  0  0  0  0
  140.5710   72.6400  222.8250 C   0  0  0  0  0  0  0  0  0  0  0  0
  139.8470   72.7470  221.5760 N   0  0  0  0  0  0  0  0  0  0  0  0
  139.9320   73.7850  220.6470 C   0  0  0  0  0  0  0  0  0  0  0  0
  139.1890   73.7090  219.5930 O   0  0  0  0  0  0  0  0  0  0  0  0
  140.7780   74.9960  220.7060 C   0  0  1  0  0  0  0  0  0  0  0  0
  141.1130   75.4890  221.9600 N   0  0  0  0  0  0  0  0  0  0  0  0
  141.8810   74.8140  219.7030 C   0  0  2  0  0  0  0  0  0  0  0  0
  143.0540   74.0620  220.1450 C   0  0  0  0  0  0  0  0  0  0  0  0
  143.0340   72.6890  220.4110 C   0  0  0  0  0  0  0  0  0  0  0  0
  144.1550   72.0020  220.8220 C   0  0  0  0  0  0  0  0  0  0  0  0
  145.3540   72.6340  220.9900 C   0  0  0  0  0  0  0  0  0  0  0  0
  145.4130   73.9800  220.7400 C   0  0  0  0  0  0  0  0  0  0  0  0
  144.3100   74.6590  220.3350 C   0  0  0  0  0  0  0  0  0  0  0  0
  142.1900   76.0130  218.8870 C   0  0  0  0  0  0  0  0  0  0  0  0
  142.6390   75.9030  217.5640 C   0  0  0  0  0  0  0  0  0  0  0  0
  142.9190   77.0330  216.8250 C   0  0  0  0  0  0  0  0  0  0  0  0
  142.7810   78.2980  217.3250 C   0  0  0  0  0  0  0  0  0  0  0  0
  142.3380   78.4230  218.6290 C   0  0  0  0  0  0  0  0  0  0  0  0
  142.1940   79.6830  219.1440 F   0  0  0  0  0  0  0  0  0  0  0  0
  142.0630   77.3080  219.3560 C   0  0  0  0  0  0  0  0  0  0  0  0
  138.9410   71.6360  221.2830 C   0  0  0  0  0  0  0  0  0  0  0  0
  139.6640   70.3060  221.5510 C   0  0  0  0  0  0  0  0  0  0  0  0
  136.8289   69.2811  225.2104 H   0  0  0  0  0  0  0  0  0  0  0  0
  136.6422   70.9650  224.6137 H   0  0  0  0  0  0  0  0  0  0  0  0
  135.2332   69.8508  224.6137 H   0  0  0  0  0  0  0  0  0  0  0  0
  135.9217   68.7655  222.6897 H   0  0  0  0  0  0  0  0  0  0  0  0
  136.7339   70.3223  222.3800 H   0  0  0  0  0  0  0  0  0  0  0  0
  139.6069   66.8210  224.6067 H   0  0  0  0  0  0  0  0  0  0  0  0
  140.1273   66.1474  226.9443 H   0  0  0  0  0  0  0  0  0  0  0  0
  140.2484   67.8851  228.6998 H   0  0  0  0  0  0  0  0  0  0  0  0
  139.8618   70.2738  228.1873 H   0  0  0  0  0  0  0  0  0  0  0  0
  139.3421   70.9395  225.8245 H   0  0  0  0  0  0  0  0  0  0  0  0
  140.9975   69.9675  223.0473 H   0  0  0  0  0  0  0  0  0  0  0  0
  138.7308   71.8996  223.7004 H   0  0  0  0  0  0  0  0  0  0  0  0
  140.1824   71.5914  224.6908 H   0  0  0  0  0  0  0  0  0  0  0  0
  140.6015   73.6135  223.3363 H   0  0  0  0  0  0  0  0  0  0  0  0
  141.6140   72.3284  222.6668 H   0  0  0  0  0  0  0  0  0  0  0  0
  140.1760   75.8692  220.4144 H   0  0  0  0  0  0  0  0  0  0  0  0
  141.9050   76.1340  222.0540 H   0  0  0  0  0  0  0  0  0  0  0  0
  140.3650   75.6840  222.6120 H   0  0  0  0  0  0  0  0  0  0  0  0
  141.4147   74.1134  218.9947 H   0  0  0  0  0  0  0  0  0  0  0  0
  142.0898   72.1384  220.2876 H   0  0  0  0  0  0  0  0  0  0  0  0
  144.0830   70.9222  221.0190 H   0  0  0  0  0  0  0  0  0  0  0  0
  146.2459   72.0790  221.3163 H   0  0  0  0  0  0  0  0  0  0  0  0
  146.3649   74.5160  220.8690 H   0  0  0  0  0  0  0  0  0  0  0  0
  144.4057   75.7382  220.1449 H   0  0  0  0  0  0  0  0  0  0  0  0
  142.7689   74.9086  217.1121 H   0  0  0  0  0  0  0  0  0  0  0  0
  143.2683   76.9115  215.7890 H   0  0  0  0  0  0  0  0  0  0  0  0
  143.0134   79.1823  216.7135 H   0  0  0  0  0  0  0  0  0  0  0  0
  141.7149   77.4452  220.3904 H   0  0  0  0  0  0  0  0  0  0  0  0
  138.0521   71.7072  221.9270 H   0  0  0  0  0  0  0  0  0  0  0  0
  138.6319   71.6812  220.2283 H   0  0  0  0  0  0  0  0  0  0  0  0
  139.0215   69.4578  221.2724 H   0  0  0  0  0  0  0  0  0  0  0  0
  140.5875   70.2208  220.9595 H   0  0  0  0  0  0  0  0  0  0  0  0
  1  2  1  0
  2  3  1  0
  3  4  2  0
  3  5  1  0
  5  6  1  0
  6  7  2  0
  7  8  1  0
  8  9  2  0
  9 10  1  0
 10 11  2  0
  5 12  1  0
 12 13  1  0
 13 14  1  0
 14 15  1  0
 15 16  1  0
 16 17  2  0
 16 18  1  0
 18 19  1  0
 18 20  1  0
 20 21  1  0
 21 22  2  0
 22 23  1  0
 23 24  2  0
 24 25  1  0
 25 26  2  0
 20 27  1  0
 27 28  2  0
 28 29  1  0
 29 30  2  0
 30 31  1  0
 31 32  1  0
 31 33  2  0
 15 34  1  0
 34 35  1  0
 11  6  1  0
 35 12  1  0
 26 21  1  0
 33 27  1  0
  1 36  1  0
  1 37  1  0
  1 38  1  0
  2 39  1  0
  2 40  1  0
  7 41  1  0
  8 42  1  0
  9 43  1  0
 10 44  1  0
 11 45  1  0
 12 46  1  0
 13 47  1  0
 13 48  1  0
 14 49  1  0
 14 50  1  0
 18 51  1  6
 19 52  1  0
 19 53  1  0
 20 54  1  6
 22 55  1  0
 23 56  1  0
 24 57  1  0
 25 58  1  0
 26 59  1  0
 28 60  1  0
 29 61  1  0
 30 62  1  0
 33 63  1  0
 34 64  1  0
 34 65  1  0
 35 66  1  0
 35 67  1  0
M  END
>  <smiles>  (7) 
CCC(=O)N(c1ccccc1)C1CCN(C(=O)[C@@H](N)C(c2ccccc2)c2cccc(F)c2)CC1

>  <score_type>  (7) 
oracle

>  <origin>  (7) 
autodockgpu

>  <m_score__min__energy>  (7) 
-8.0600000000000005

>  <m_primary>  (7) 
energy

>  <rmsd>  (7) 
7.957823485989771

>  <m_score__min__rmsd>  (7) 
7.957823485989771

>  <meeko>  (7) 
{"free_energy": -7.37, "intermolecular_energy": -10.05, "internal_energy": -2.53, "cluster_size": 1, "cluster_id": 4, "rank_in_cluster": 1}

>  <energy>  (7) 
-7.74

>  <cluster_rmsd>  (7) 
0.58

>  <cluster>  (7) 
1

$$$$

     RDKit          3D

 67 70  0  0  0  0  0  0  0  0999 V2000
  142.9060   77.3680  217.3520 C   0  0  0  0  0  0  0  0  0  0  0  0
  142.8960   75.8420  217.4000 C   0  0  0  0  0  0  0  0  0  0  0  0
  142.0280   75.4390  218.5100 C   0  0  0  0  0  0  0  0  0  0  0  0
  140.8280   75.1100  218.2620 O   0  0  0  0  0  0  0  0  0  0  0  0
  142.4360   75.3880  219.8730 N   0  0  0  0  0  0  0  0  0  0  0  0
  143.4660   74.4680  220.2140 C   0  0  0  0  0  0  0  0  0  0  0  0
  144.7740   74.8820  220.4530 C   0  0  0  0  0  0  0  0  0  0  0  0
  145.7560   73.9680  220.7820 C   0  0  0  0  0  0  0  0  0  0  0  0
  145.4100   72.6340  220.8660 C   0  0  0  0  0  0  0  0  0  0  0  0
  144.1260   72.1840  220.6360 C   0  0  0  0  0  0  0  0  0  0  0  0
  143.1460   73.1250  220.3050 C   0  0  0  0  0  0  0  0  0  0  0  0
  141.7930   76.2610  220.8260 C   0  0  0  0  0  0  0  0  0  0  0  0
  140.4240   75.7250  221.0810 C   0  0  0  0  0  0  0  0  0  0  0  0
  139.7070   76.6960  222.0220 C   0  0  0  0  0  0  0  0  0  0  0  0
  139.5010   77.9030  221.2490 N   0  0  0  0  0  0  0  0  0  0  0  0
  138.5900   78.9240  221.5210 C   0  0  0  0  0  0  0  0  0  0  0  0
  138.5420   79.9200  220.6980 O   0  0  0  0  0  0  0  0  0  0  0  0
  137.6460   79.0280  222.6540 C   0  0  1  0  0  0  0  0  0  0  0  0
  136.9400   77.8870  223.0120 N   0  0  0  0  0  0  0  0  0  0  0  0
  138.3420   79.7950  223.7410 C   0  0  2  0  0  0  0  0  0  0  0  0
  137.5850   80.8740  224.3730 C   0  0  0  0  0  0  0  0  0  0  0  0
  137.3090   80.9220  225.7440 C   0  0  0  0  0  0  0  0  0  0  0  0
  136.5970   81.9530  226.3150 C   0  0  0  0  0  0  0  0  0  0  0  0
  136.1210   82.9900  225.5650 C   0  0  0  0  0  0  0  0  0  0  0  0
  136.3710   82.9790  224.2170 C   0  0  0  0  0  0  0  0  0  0  0  0
  137.0720   81.9630  223.6520 C   0  0  0  0  0  0  0  0  0  0  0  0
  139.7640   80.1190  223.4680 C   0  0  0  0  0  0  0  0  0  0  0  0
  140.8000   79.2670  223.8720 C   0  0  0  0  0  0  0  0  0  0  0  0
  142.1140   79.5910  223.6060 C   0  0  0  0  0  0  0  0  0  0  0  0
  142.4770   80.7320  222.9490 C   0  0  0  0  0  0  0  0  0  0  0  0
  141.4660   81.5830  222.5420 C   0  0  0  0  0  0  0  0  0  0  0  0
  141.8140   82.7310  221.8830 F   0  0  0  0  0  0  0  0  0  0  0  0
  140.1710   81.2640  222.8060 C   0  0  0  0  0  0  0  0  0  0  0  0
  140.3500   78.0370  220.0650 C   0  0  0  0  0  0  0  0  0  0  0  0
  141.8020   77.6960  220.4380 C   0  0  0  0  0  0  0  0  0  0  0  0
  142.9086   77.7671  218.3771 H   0  0  0  0  0  0  0  0  0  0  0  0
  143.8064   77.7123  216.8222 H   0  0  0  0  0  0  0  0  0  0  0  0
  142.0102   77.7241  216.8222 H   0  0  0  0  0  0  0  0  0  0  0  0
  142.5058   75.4396  216.4535 H   0  0  0  0  0  0  0  0  0  0  0  0
  143.9147   75.4535  217.5456 H   0  0  0  0  0  0  0  0  0  0  0  0
  145.0282   75.9497  220.3789 H   0  0  0  0  0  0  0  0  0  0  0  0
  146.7888   74.2951  220.9725 H   0  0  0  0  0  0  0  0  0  0  0  0
  146.1882   71.9015  221.1264 H   0  0  0  0  0  0  0  0  0  0  0  0
  143.8801   71.1145  220.7110 H   0  0  0  0  0  0  0  0  0  0  0  0
  142.1138   72.7953  220.1157 H   0  0  0  0  0  0  0  0  0  0  0  0
  142.3733   76.2593  221.7605 H   0  0  0  0  0  0  0  0  0  0  0  0
  139.8710   75.6458  220.1334 H   0  0  0  0  0  0  0  0  0  0  0  0
  140.4823   74.7244  221.5343 H   0  0  0  0  0  0  0  0  0  0  0  0
  138.7425   76.2769  222.3448 H   0  0  0  0  0  0  0  0  0  0  0  0
  140.2931   76.8896  222.9325 H   0  0  0  0  0  0  0  0  0  0  0  0
  136.7607   79.5963  222.3328 H   0  0  0  0  0  0  0  0  0  0  0  0
  135.9760   77.7670  222.6840 H   0  0  0  0  0  0  0  0  0  0  0  0
  137.4460   77.0150  223.0820 H   0  0  0  0  0  0  0  0  0  0  0  0
  138.3809   79.0433  224.5432 H   0  0  0  0  0  0  0  0  0  0  0  0
  137.6734   80.1079  226.3878 H   0  0  0  0  0  0  0  0  0  0  0  0
  136.4076   81.9410  227.3985 H   0  0  0  0  0  0  0  0  0  0  0  0
  135.5535   83.8103  226.0288 H   0  0  0  0  0  0  0  0  0  0  0  0
  136.0001   83.8012  223.5874 H   0  0  0  0  0  0  0  0  0  0  0  0
  137.2480   81.9953  222.5666 H   0  0  0  0  0  0  0  0  0  0  0  0
  140.5641   78.3339  224.4046 H   0  0  0  0  0  0  0  0  0  0  0  0
  142.9037   78.9006  223.9373 H   0  0  0  0  0  0  0  0  0  0  0  0
  143.5336   80.9652  222.7511 H   0  0  0  0  0  0  0  0  0  0  0  0
  139.3926   81.9649  222.4700 H   0  0  0  0  0  0  0  0  0  0  0  0
  140.0003   77.3476  219.2825 H   0  0  0  0  0  0  0  0  0  0  0  0
  140.2992   79.0702  219.6909 H   0  0  0  0  0  0  0  0  0  0  0  0
  142.4667   77.8558  219.5762 H   0  0  0  0  0  0  0  0  0  0  0  0
  142.1714   78.3342  221.2542 H   0  0  0  0  0  0  0  0  0  0  0  0
  1  2  1  0
  2  3  1  0
  3  4  2  0
  3  5  1  0
  5  6  1  0
  6  7  2  0
  7  8  1  0
  8  9  2  0
  9 10  1  0
 10 11  2  0
  5 12  1  0
 12 13  1  0
 13 14  1  0
 14 15  1  0
 15 16  1  0
 16 17  2  0
 16 18  1  0
 18 19  1  0
 18 20  1  0
 20 21  1  0
 21 22  2  0
 22 23  1  0
 23 24  2  0
 24 25  1  0
 25 26  2  0
 20 27  1  0
 27 28  2  0
 28 29  1  0
 29 30  2  0
 30 31  1  0
 31 32  1  0
 31 33  2  0
 15 34  1  0
 34 35  1  0
 11  6  1  0
 35 12  1  0
 26 21  1  0
 33 27  1  0
  1 36  1  0
  1 37  1  0
  1 38  1  0
  2 39  1  0
  2 40  1  0
  7 41  1  0
  8 42  1  0
  9 43  1  0
 10 44  1  0
 11 45  1  0
 12 46  1  0
 13 47  1  0
 13 48  1  0
 14 49  1  0
 14 50  1  0
 18 51  1  6
 19 52  1  0
 19 53  1  0
 20 54  1  1
 22 55  1  0
 23 56  1  0
 24 57  1  0
 25 58  1  0
 26 59  1  0
 28 60  1  0
 29 61  1  0
 30 62  1  0
 33 63  1  0
 34 64  1  0
 34 65  1  0
 35 66  1  0
 35 67  1  0
M  END
>  <smiles>  (8) 
CCC(=O)N(c1ccccc1)C1CCN(C(=O)[C@@H](N)C(c2ccccc2)c2cccc(F)c2)CC1

>  <score_type>  (8) 
oracle

>  <origin>  (8) 
autodockgpu

>  <m_score__min__energy>  (8) 
-8.0600000000000005

>  <m_primary>  (8) 
energy

>  <rmsd>  (8) 
4.786580752790087

>  <m_score__min__rmsd>  (8) 
4.786580752790087

>  <meeko>  (8) 
{"free_energy": -7.09, "intermolecular_energy": -9.77, "internal_energy": -2.84, "cluster_size": 11, "cluster_id": 7, "rank_in_cluster": 3}

>  <energy>  (8) 
-7.45

>  <cluster_rmsd>  (8) 
0.0

>  <cluster>  (8) 
2

$$$$

     RDKit          3D

 67 70  0  0  0  0  0  0  0  0999 V2000
  135.2220   69.9180  225.2310 C   0  0  0  0  0  0  0  0  0  0  0  0
  136.5750   69.2720  224.9420 C   0  0  0  0  0  0  0  0  0  0  0  0
  137.5020   70.3380  224.5520 C   0  0  0  0  0  0  0  0  0  0  0  0
  137.0330   71.4730  224.2360 O   0  0  0  0  0  0  0  0  0  0  0  0
  138.9170   70.1950  224.5000 N   0  0  0  0  0  0  0  0  0  0  0  0
  139.5840   69.8370  225.7040 C   0  0  0  0  0  0  0  0  0  0  0  0
  139.7300   68.5090  226.1000 C   0  0  0  0  0  0  0  0  0  0  0  0
  140.3810   68.1890  227.2750 C   0  0  0  0  0  0  0  0  0  0  0  0
  140.8830   69.2170  228.0480 C   0  0  0  0  0  0  0  0  0  0  0  0
  140.7590   70.5440  227.6910 C   0  0  0  0  0  0  0  0  0  0  0  0
  140.0970   70.8470  226.4980 C   0  0  0  0  0  0  0  0  0  0  0  0
  139.5940   70.4140  223.2440 C   0  0  0  0  0  0  0  0  0  0  0  0
  140.3670   71.6860  223.3620 C   0  0  0  0  0  0  0  0  0  0  0  0
  141.0150   71.9690  222.0040 C   0  0  0  0  0  0  0  0  0  0  0  0
  139.9190   72.2770  221.1100 N   0  0  0  0  0  0  0  0  0  0  0  0
  140.0000   72.9450  219.8870 C   0  0  0  0  0  0  0  0  0  0  0  0
  138.9010   73.1420  219.2370 O   0  0  0  0  0  0  0  0  0  0  0  0
  141.2050   73.4760  219.2150 C   0  0  1  0  0  0  0  0  0  0  0  0
  141.0260   74.2050  218.0480 N   0  0  0  0  0  0  0  0  0  0  0  0
  142.0860   74.0610  220.2830 C   0  0  2  0  0  0  0  0  0  0  0  0
  141.7580   75.4100  220.7390 C   0  0  0  0  0  0  0  0  0  0  0  0
  142.1800   76.5700  220.0810 C   0  0  0  0  0  0  0  0  0  0  0  0
  141.8530   77.8300  220.5280 C   0  0  0  0  0  0  0  0  0  0  0  0
  141.0910   78.0130  221.6470 C   0  0  0  0  0  0  0  0  0  0  0  0
  140.6580   76.8990  222.3200 C   0  0  0  0  0  0  0  0  0  0  0  0
  140.9800   75.6560  221.8810 C   0  0  0  0  0  0  0  0  0  0  0  0
  143.5360   73.8060  220.1080 C   0  0  0  0  0  0  0  0  0  0  0  0
  144.0940   73.5840  218.8420 C   0  0  0  0  0  0  0  0  0  0  0  0
  145.4460   73.3500  218.7050 C   0  0  0  0  0  0  0  0  0  0  0  0
  146.3040   73.3190  219.7680 C   0  0  0  0  0  0  0  0  0  0  0  0
  145.7690   73.5360  221.0250 C   0  0  0  0  0  0  0  0  0  0  0  0
  146.6150   73.5090  222.1010 F   0  0  0  0  0  0  0  0  0  0  0  0
  144.4360   73.7670  221.1580 C   0  0  0  0  0  0  0  0  0  0  0  0
  138.6010   71.8270  221.5600 C   0  0  0  0  0  0  0  0  0  0  0  0
  138.7000   70.3760  222.0560 C   0  0  0  0  0  0  0  0  0  0  0  0
  135.0742   69.9885  226.3187 H   0  0  0  0  0  0  0  0  0  0  0  0
  135.1955   70.9259  224.7912 H   0  0  0  0  0  0  0  0  0  0  0  0
  134.4215   69.3049  224.7912 H   0  0  0  0  0  0  0  0  0  0  0  0
  136.9473   68.7625  225.8430 H   0  0  0  0  0  0  0  0  0  0  0  0
  136.4830   68.5273  224.1377 H   0  0  0  0  0  0  0  0  0  0  0  0
  139.3217   67.7058  225.4690 H   0  0  0  0  0  0  0  0  0  0  0  0
  140.4968   67.1407  227.5875 H   0  0  0  0  0  0  0  0  0  0  0  0
  141.4022   68.9683  228.9853 H   0  0  0  0  0  0  0  0  0  0  0  0
  141.1698   71.3414  228.3277 H   0  0  0  0  0  0  0  0  0  0  0  0
  139.9830   71.8963  226.1881 H   0  0  0  0  0  0  0  0  0  0  0  0
  140.2807   69.5753  223.0571 H   0  0  0  0  0  0  0  0  0  0  0  0
  139.6912   72.5105  223.6330 H   0  0  0  0  0  0  0  0  0  0  0  0
  141.1364   71.5964  224.1431 H   0  0  0  0  0  0  0  0  0  0  0  0
  141.7035   72.8238  222.0771 H   0  0  0  0  0  0  0  0  0  0  0  0
  141.6051   71.1123  221.6466 H   0  0  0  0  0  0  0  0  0  0  0  0
  141.7400   72.6459  218.7306 H   0  0  0  0  0  0  0  0  0  0  0  0
  140.0840   74.3070  217.6560 H   0  0  0  0  0  0  0  0  0  0  0  0
  141.6060   75.0190  217.9000 H   0  0  0  0  0  0  0  0  0  0  0  0
  141.8039   73.4509  221.1537 H   0  0  0  0  0  0  0  0  0  0  0  0
  142.7949   76.4717  219.1742 H   0  0  0  0  0  0  0  0  0  0  0  0
  142.2129   78.7085  219.9723 H   0  0  0  0  0  0  0  0  0  0  0  0
  140.8325   79.0231  221.9977 H   0  0  0  0  0  0  0  0  0  0  0  0
  140.0434   77.0144  223.2250 H   0  0  0  0  0  0  0  0  0  0  0  0
  140.6102   74.7920  222.4527 H   0  0  0  0  0  0  0  0  0  0  0  0
  143.4489   73.5965  217.9511 H   0  0  0  0  0  0  0  0  0  0  0  0
  145.8513   73.1810  217.6965 H   0  0  0  0  0  0  0  0  0  0  0  0
  147.3786   73.1288  219.6295 H   0  0  0  0  0  0  0  0  0  0  0  0
  144.0452   73.9348  222.1725 H   0  0  0  0  0  0  0  0  0  0  0  0
  138.2529   72.4724  222.3800 H   0  0  0  0  0  0  0  0  0  0  0  0
  137.8883   71.8821  220.7239 H   0  0  0  0  0  0  0  0  0  0  0  0
  137.7057   69.9985  222.3368 H   0  0  0  0  0  0  0  0  0  0  0  0
  139.0920   69.7072  221.2756 H   0  0  0  0  0  0  0  0  0  0  0  0
  1  2  1  0
  2  3  1  0
  3  4  2  0
  3  5  1  0
  5  6  1  0
  6  7  2  0
  7  8  1  0
  8  9  2  0
  9 10  1  0
 10 11  2  0
  5 12  1  0
 12 13  1  0
 13 14  1  0
 14 15  1  0
 15 16  1  0
 16 17  2  0
 16 18  1  0
 18 19  1  0
 18 20  1  0
 20 21  1  0
 21 22  2  0
 22 23  1  0
 23 24  2  0
 24 25  1  0
 25 26  2  0
 20 27  1  0
 27 28  2  0
 28 29  1  0
 29 30  2  0
 30 31  1  0
 31 32  1  0
 31 33  2  0
 15 34  1  0
 34 35  1  0
 11  6  1  0
 35 12  1  0
 26 21  1  0
 33 27  1  0
  1 36  1  0
  1 37  1  0
  1 38  1  0
  2 39  1  0
  2 40  1  0
  7 41  1  0
  8 42  1  0
  9 43  1  0
 10 44  1  0
 11 45  1  0
 12 46  1  0
 13 47  1  0
 13 48  1  0
 14 49  1  0
 14 50  1  0
 18 51  1  6
 19 52  1  0
 19 53  1  0
 20 54  1  1
 22 55  1  0
 23 56  1  0
 24 57  1  0
 25 58  1  0
 26 59  1  0
 28 60  1  0
 29 61  1  0
 30 62  1  0
 33 63  1  0
 34 64  1  0
 34 65  1  0
 35 66  1  0
 35 67  1  0
M  END
>  <smiles>  (9) 
CCC(=O)N(c1ccccc1)C1CCN(C(=O)[C@@H](N)C(c2ccccc2)c2cccc(F)c2)CC1

>  <score_type>  (9) 
oracle

>  <origin>  (9) 
autodockgpu

>  <m_score__min__energy>  (9) 
-8.0600000000000005

>  <m_primary>  (9) 
energy

>  <rmsd>  (9) 
6.402277249095435

>  <m_score__min__rmsd>  (9) 
6.402277249095435

>  <meeko>  (9) 
{"free_energy": -7.33, "intermolecular_energy": -10.01, "internal_energy": -2.89, "cluster_size": 14, "cluster_id": 2, "rank_in_cluster": 6}

>  <energy>  (9) 
-7.45

>  <cluster_rmsd>  (9) 
0.19

>  <cluster>  (9) 
2

$$$$

     RDKit          3D

 67 70  0  0  0  0  0  0  0  0999 V2000
  140.4050   71.8020  222.6760 C   0  0  0  0  0  0  0  0  0  0  0  0
  141.1460   72.0180  221.3600 C   0  0  0  0  0  0  0  0  0  0  0  0
  141.4540   73.4460  221.2530 C   0  0  0  0  0  0  0  0  0  0  0  0
  140.8790   74.2590  222.0380 O   0  0  0  0  0  0  0  0  0  0  0  0
  142.3680   74.0040  220.3150 N   0  0  0  0  0  0  0  0  0  0  0  0
  143.6840   73.4640  220.2810 C   0  0  0  0  0  0  0  0  0  0  0  0
  143.9560   72.2200  219.7160 C   0  0  0  0  0  0  0  0  0  0  0  0
  145.2430   71.7190  219.6970 C   0  0  0  0  0  0  0  0  0  0  0  0
  146.2520   72.4790  220.2550 C   0  0  0  0  0  0  0  0  0  0  0  0
  146.0230   73.7140  220.8250 C   0  0  0  0  0  0  0  0  0  0  0  0
  144.7140   74.2050  220.8330 C   0  0  0  0  0  0  0  0  0  0  0  0
  141.9190   75.0730  219.4550 C   0  0  0  0  0  0  0  0  0  0  0  0
  142.5440   76.3390  219.9420 C   0  0  0  0  0  0  0  0  0  0  0  0
  142.0010   77.4880  219.0890 C   0  0  0  0  0  0  0  0  0  0  0  0
  140.6000   77.6010  219.4390 N   0  0  0  0  0  0  0  0  0  0  0  0
  139.7710   78.7020  219.2200 C   0  0  0  0  0  0  0  0  0  0  0  0
  138.5440   78.6170  219.6200 O   0  0  0  0  0  0  0  0  0  0  0  0
  140.1110   79.9880  218.5760 C   0  0  1  0  0  0  0  0  0  0  0  0
  139.0890   80.9100  218.3950 N   0  0  0  0  0  0  0  0  0  0  0  0
  141.3910   80.4680  219.1970 C   0  0  2  0  0  0  0  0  0  0  0  0
  141.4080   80.5950  220.6530 C   0  0  0  0  0  0  0  0  0  0  0  0
  140.6330   81.5240  221.3550 C   0  0  0  0  0  0  0  0  0  0  0  0
  140.6630   81.6200  222.7280 C   0  0  0  0  0  0  0  0  0  0  0  0
  141.4590   80.8030  223.4810 C   0  0  0  0  0  0  0  0  0  0  0  0
  142.2330   79.8780  222.8290 C   0  0  0  0  0  0  0  0  0  0  0  0
  142.2050   79.7830  221.4750 C   0  0  0  0  0  0  0  0  0  0  0  0
  142.0600   81.5780  218.4750 C   0  0  0  0  0  0  0  0  0  0  0  0
  143.2160   81.3640  217.7130 C   0  0  0  0  0  0  0  0  0  0  0  0
  143.8190   82.4120  217.0500 C   0  0  0  0  0  0  0  0  0  0  0  0
  143.3400   83.6920  217.0950 C   0  0  0  0  0  0  0  0  0  0  0  0
  142.1990   83.9190  217.8430 C   0  0  0  0  0  0  0  0  0  0  0  0
  141.7070   85.1950  217.8980 F   0  0  0  0  0  0  0  0  0  0  0  0
  141.6060   82.8850  218.4960 C   0  0  0  0  0  0  0  0  0  0  0  0
  140.0220   76.4220  220.0850 C   0  0  0  0  0  0  0  0  0  0  0  0
  140.4420   75.1610  219.3140 C   0  0  0  0  0  0  0  0  0  0  0  0
  141.0857   72.0004  223.5169 H   0  0  0  0  0  0  0  0  0  0  0  0
  139.5461   72.4872  222.7299 H   0  0  0  0  0  0  0  0  0  0  0  0
  140.0488   70.7627  222.7299 H   0  0  0  0  0  0  0  0  0  0  0  0
  142.0770   71.4322  221.3535 H   0  0  0  0  0  0  0  0  0  0  0  0
  140.5273   71.6921  220.5109 H   0  0  0  0  0  0  0  0  0  0  0  0
  143.1364   71.6300  219.2800 H   0  0  0  0  0  0  0  0  0  0  0  0
  145.4590   70.7382  219.2482 H   0  0  0  0  0  0  0  0  0  0  0  0
  147.2786   72.0840  220.2445 H   0  0  0  0  0  0  0  0  0  0  0  0
  146.8477   74.2966  221.2613 H   0  0  0  0  0  0  0  0  0  0  0  0
  144.5015   75.1869  221.2811 H   0  0  0  0  0  0  0  0  0  0  0  0
  142.2478   74.8660  218.4259 H   0  0  0  0  0  0  0  0  0  0  0  0
  142.2842   76.5022  220.9984 H   0  0  0  0  0  0  0  0  0  0  0  0
  143.6394   76.2833  219.8585 H   0  0  0  0  0  0  0  0  0  0  0  0
  142.5318   78.4231  219.3209 H   0  0  0  0  0  0  0  0  0  0  0  0
  142.1393   77.2991  218.0142 H   0  0  0  0  0  0  0  0  0  0  0  0
  140.2808   79.8183  217.5025 H   0  0  0  0  0  0  0  0  0  0  0  0
  138.1510   80.7010  218.7530 H   0  0  0  0  0  0  0  0  0  0  0  0
  139.3190   81.8930  218.4400 H   0  0  0  0  0  0  0  0  0  0  0  0
  142.0475   79.6003  219.0356 H   0  0  0  0  0  0  0  0  0  0  0  0
  139.9763   82.2019  220.7900 H   0  0  0  0  0  0  0  0  0  0  0  0
  140.0333   82.3697  223.2294 H   0  0  0  0  0  0  0  0  0  0  0  0
  141.4781   80.8852  224.5778 H   0  0  0  0  0  0  0  0  0  0  0  0
  142.8831   79.2062  223.4087 H   0  0  0  0  0  0  0  0  0  0  0  0
  142.8432   79.0266  220.9948 H   0  0  0  0  0  0  0  0  0  0  0  0
  143.6453   80.3536  217.6431 H   0  0  0  0  0  0  0  0  0  0  0  0
  144.7246   82.2096  216.4593 H   0  0  0  0  0  0  0  0  0  0  0  0
  143.8426   84.5094  216.5572 H   0  0  0  0  0  0  0  0  0  0  0  0
  140.7013   83.1025  219.0826 H   0  0  0  0  0  0  0  0  0  0  0  0
  140.3847   76.3564  221.1214 H   0  0  0  0  0  0  0  0  0  0  0  0
  138.9251   76.5040  220.0861 H   0  0  0  0  0  0  0  0  0  0  0  0
  139.9623   74.2704  219.7460 H   0  0  0  0  0  0  0  0  0  0  0  0
  140.1386   75.2125  218.2579 H   0  0  0  0  0  0  0  0  0  0  0  0
  1  2  1  0
  2  3  1  0
  3  4  2  0
  3  5  1  0
  5  6  1  0
  6  7  2  0
  7  8  1  0
  8  9  2  0
  9 10  1  0
 10 11  2  0
  5 12  1  0
 12 13  1  0
 13 14  1  0
 14 15  1  0
 15 16  1  0
 16 17  2  0
 16 18  1  0
 18 19  1  0
 18 20  1  0
 20 21  1  0
 21 22  2  0
 22 23  1  0
 23 24  2  0
 24 25  1  0
 25 26  2  0
 20 27  1  0
 27 28  2  0
 28 29  1  0
 29 30  2  0
 30 31  1  0
 31 32  1  0
 31 33  2  0
 15 34  1  0
 34 35  1  0
 11  6  1  0
 35 12  1  0
 26 21  1  0
 33 27  1  0
  1 36  1  0
  1 37  1  0
  1 38  1  0
  2 39  1  0
  2 40  1  0
  7 41  1  0
  8 42  1  0
  9 43  1  0
 10 44  1  0
 11 45  1  0
 12 46  1  0
 13 47  1  0
 13 48  1  0
 14 49  1  0
 14 50  1  0
 18 51  1  6
 19 52  1  0
 19 53  1  0
 20 54  1  1
 22 55  1  0
 23 56  1  0
 24 57  1  0
 25 58  1  0
 26 59  1  0
 28 60  1  0
 29 61  1  0
 30 62  1  0
 33 63  1  0
 34 64  1  0
 34 65  1  0
 35 66  1  0
 35 67  1  0
M  END
>  <smiles>  (10) 
CCC(=O)N(c1ccccc1)C1CCN(C(=O)[C@@H](N)C(c2ccccc2)c2cccc(F)c2)CC1

>  <score_type>  (10) 
oracle

>  <origin>  (10) 
autodockgpu

>  <m_score__min__energy>  (10) 
-8.0600000000000005

>  <m_primary>  (10) 
energy

>  <rmsd>  (10) 
3.03381410596187

>  <m_score__min__rmsd>  (10) 
3.03381410596187

>  <meeko>  (10) 
{"free_energy": -6.75, "intermolecular_energy": -9.44, "internal_energy": -3.0, "cluster_size": 2, "cluster_id": 6, "rank_in_cluster": 2}

>  <energy>  (10) 
-7.4

>  <cluster_rmsd>  (10) 
0.6

>  <cluster>  (10) 
2

$$$$

     RDKit          3D

 67 70  0  0  0  0  0  0  0  0999 V2000
  142.9090   77.6510  217.2110 C   0  0  0  0  0  0  0  0  0  0  0  0
  143.1120   76.1550  217.4360 C   0  0  0  0  0  0  0  0  0  0  0  0
  142.1610   75.7280  218.4660 C   0  0  0  0  0  0  0  0  0  0  0  0
  140.9700   75.4560  218.1260 O   0  0  0  0  0  0  0  0  0  0  0  0
  142.4780   75.5930  219.8470 N   0  0  0  0  0  0  0  0  0  0  0  0
  143.4320   74.6020  220.2070 C   0  0  0  0  0  0  0  0  0  0  0  0
  144.7670   74.9170  220.4510 C   0  0  0  0  0  0  0  0  0  0  0  0
  145.6730   73.9340  220.7980 C   0  0  0  0  0  0  0  0  0  0  0  0
  145.2250   72.6310  220.8950 C   0  0  0  0  0  0  0  0  0  0  0  0
  143.9120   72.2790  220.6590 C   0  0  0  0  0  0  0  0  0  0  0  0
  143.0090   73.2880  220.3110 C   0  0  0  0  0  0  0  0  0  0  0  0
  141.8250   76.4590  220.8000 C   0  0  0  0  0  0  0  0  0  0  0  0
  140.4830   75.8770  221.0970 C   0  0  0  0  0  0  0  0  0  0  0  0
  139.7520   76.8380  222.0380 C   0  0  0  0  0  0  0  0  0  0  0  0
  139.4820   78.0210  221.2480 N   0  0  0  0  0  0  0  0  0  0  0  0
  138.5400   79.0130  221.5240 C   0  0  0  0  0  0  0  0  0  0  0  0
  138.4350   79.9900  220.6850 O   0  0  0  0  0  0  0  0  0  0  0  0
  137.6190   79.1020  222.6770 C   0  0  1  0  0  0  0  0  0  0  0  0
  136.9290   77.9540  223.0420 N   0  0  0  0  0  0  0  0  0  0  0  0
  138.3320   79.8690  223.7540 C   0  0  2  0  0  0  0  0  0  0  0  0
  137.5890   80.9560  224.3880 C   0  0  0  0  0  0  0  0  0  0  0  0
  137.0850   82.0560  223.6850 C   0  0  0  0  0  0  0  0  0  0  0  0
  136.3830   83.0660  224.3040 C   0  0  0  0  0  0  0  0  0  0  0  0
  136.1410   83.0440  225.6490 C   0  0  0  0  0  0  0  0  0  0  0  0
  136.6200   81.9820  226.3710 C   0  0  0  0  0  0  0  0  0  0  0  0
  137.3120   80.9860  225.7630 C   0  0  0  0  0  0  0  0  0  0  0  0
  139.7530   80.1790  223.4660 C   0  0  0  0  0  0  0  0  0  0  0  0
  140.7860   79.3260  223.8740 C   0  0  0  0  0  0  0  0  0  0  0  0
  142.1010   79.6360  223.5940 C   0  0  0  0  0  0  0  0  0  0  0  0
  142.4670   80.7670  222.9190 C   0  0  0  0  0  0  0  0  0  0  0  0
  141.4580   81.6200  222.5090 C   0  0  0  0  0  0  0  0  0  0  0  0
  141.8090   82.7560  221.8320 F   0  0  0  0  0  0  0  0  0  0  0  0
  140.1640   81.3120  222.7870 C   0  0  0  0  0  0  0  0  0  0  0  0
  140.2980   78.1660  220.0420 C   0  0  0  0  0  0  0  0  0  0  0  0
  141.7700   77.8870  220.3860 C   0  0  0  0  0  0  0  0  0  0  0  0
  142.8397   78.1619  218.1827 H   0  0  0  0  0  0  0  0  0  0  0  0
  143.7605   78.0554  216.6441 H   0  0  0  0  0  0  0  0  0  0  0  0
  141.9805   77.8139  216.6441 H   0  0  0  0  0  0  0  0  0  0  0  0
  142.9239   75.6063  216.5014 H   0  0  0  0  0  0  0  0  0  0  0  0
  144.1445   75.9492  217.7548 H   0  0  0  0  0  0  0  0  0  0  0  0
  145.1034   75.9609  220.3663 H   0  0  0  0  0  0  0  0  0  0  0  0
  146.7267   74.1829  220.9926 H   0  0  0  0  0  0  0  0  0  0  0  0
  145.9423   71.8440  221.1709 H   0  0  0  0  0  0  0  0  0  0  0  0
  143.5844   71.2322  220.7424 H   0  0  0  0  0  0  0  0  0  0  0  0
  141.9556   73.0362  220.1186 H   0  0  0  0  0  0  0  0  0  0  0  0
  142.4269   76.4962  221.7199 H   0  0  0  0  0  0  0  0  0  0  0  0
  139.9115   75.7599  220.1644 H   0  0  0  0  0  0  0  0  0  0  0  0
  140.5893   74.8877  221.5661 H   0  0  0  0  0  0  0  0  0  0  0  0
  138.8122   76.3891  222.3919 H   0  0  0  0  0  0  0  0  0  0  0  0
  140.3515   77.0708  222.9304 H   0  0  0  0  0  0  0  0  0  0  0  0
  136.7220   79.6644  222.3784 H   0  0  0  0  0  0  0  0  0  0  0  0
  136.0300   77.7420  222.5990 H   0  0  0  0  0  0  0  0  0  0  0  0
  137.4650   77.1260  223.2660 H   0  0  0  0  0  0  0  0  0  0  0  0
  138.3736   79.1219  224.5603 H   0  0  0  0  0  0  0  0  0  0  0  0
  137.2556   82.1159  222.6000 H   0  0  0  0  0  0  0  0  0  0  0  0
  136.0091   83.9083  223.7034 H   0  0  0  0  0  0  0  0  0  0  0  0
  135.5790   83.8539  226.1371 H   0  0  0  0  0  0  0  0  0  0  0  0
  136.4414   81.9367  227.4555 H   0  0  0  0  0  0  0  0  0  0  0  0
  137.6768   80.1543  226.3837 H   0  0  0  0  0  0  0  0  0  0  0  0
  140.5473   78.4023  224.4216 H   0  0  0  0  0  0  0  0  0  0  0  0
  142.8880   78.9439  223.9280 H   0  0  0  0  0  0  0  0  0  0  0  0
  143.5236   80.9903  222.7098 H   0  0  0  0  0  0  0  0  0  0  0  0
  139.3878   82.0138  222.4479 H   0  0  0  0  0  0  0  0  0  0  0  0
  139.9570   77.4500  219.2797 H   0  0  0  0  0  0  0  0  0  0  0  0
  140.1991   79.1897  219.6519 H   0  0  0  0  0  0  0  0  0  0  0  0
  142.4078   78.0556  219.5058 H   0  0  0  0  0  0  0  0  0  0  0  0
  142.1336   78.5539  221.1817 H   0  0  0  0  0  0  0  0  0  0  0  0
  1  2  1  0
  2  3  1  0
  3  4  2  0
  3  5  1  0
  5  6  1  0
  6  7  2  0
  7  8  1  0
  8  9  2  0
  9 10  1  0
 10 11  2  0
  5 12  1  0
 12 13  1  0
 13 14  1  0
 14 15  1  0
 15 16  1  0
 16 17  2  0
 16 18  1  0
 18 19  1  0
 18 20  1  0
 20 21  1  0
 21 22  2  0
 22 23  1  0
 23 24  2  0
 24 25  1  0
 25 26  2  0
 20 27  1  0
 27 28  2  0
 28 29  1  0
 29 30  2  0
 30 31  1  0
 31 32  1  0
 31 33  2  0
 15 34  1  0
 34 35  1  0
 11  6  1  0
 35 12  1  0
 26 21  1  0
 33 27  1  0
  1 36  1  0
  1 37  1  0
  1 38  1  0
  2 39  1  0
  2 40  1  0
  7 41  1  0
  8 42  1  0
  9 43  1  0
 10 44  1  0
 11 45  1  0
 12 46  1  0
 13 47  1  0
 13 48  1  0
 14 49  1  0
 14 50  1  0
 18 51  1  6
 19 52  1  0
 19 53  1  0
 20 54  1  1
 22 55  1  0
 23 56  1  0
 24 57  1  0
 25 58  1  0
 26 59  1  0
 28 60  1  0
 29 61  1  0
 30 62  1  0
 33 63  1  0
 34 64  1  0
 34 65  1  0
 35 66  1  0
 35 67  1  0
M  END
>  <smiles>  (11) 
CCC(=O)N(c1ccccc1)C1CCN(C(=O)[C@@H](N)C(c2ccccc2)c2cccc(F)c2)CC1

>  <score_type>  (11) 
oracle

>  <origin>  (11) 
autodockgpu

>  <m_score__min__energy>  (11) 
-8.0600000000000005

>  <m_primary>  (11) 
energy

>  <rmsd>  (11) 
4.34737922399974

>  <m_score__min__rmsd>  (11) 
4.34737922399974

>  <meeko>  (11) 
{"free_energy": -7.09, "intermolecular_energy": -9.77, "internal_energy": -2.88, "cluster_size": 11, "cluster_id": 7, "rank_in_cluster": 2}

>  <energy>  (11) 
-7.36

>  <cluster_rmsd>  (11) 
0.14

>  <cluster>  (11) 
2

$$$$

     RDKit          3D

 67 70  0  0  0  0  0  0  0  0999 V2000
  142.2950   80.5220  218.5810 C   0  0  0  0  0  0  0  0  0  0  0  0
  141.5720   79.2130  218.2770 C   0  0  0  0  0  0  0  0  0  0  0  0
  141.9860   78.2320  219.2840 C   0  0  0  0  0  0  0  0  0  0  0  0
  143.0080   77.5150  219.0590 O   0  0  0  0  0  0  0  0  0  0  0  0
  141.3140   78.0160  220.5210 N   0  0  0  0  0  0  0  0  0  0  0  0
  141.4630   79.0090  221.5280 C   0  0  0  0  0  0  0  0  0  0  0  0
  142.5660   79.0390  222.3780 C   0  0  0  0  0  0  0  0  0  0  0  0
  142.6850   80.0150  223.3480 C   0  0  0  0  0  0  0  0  0  0  0  0
  141.6830   80.9580  223.4580 C   0  0  0  0  0  0  0  0  0  0  0  0
  140.5740   80.9620  222.6370 C   0  0  0  0  0  0  0  0  0  0  0  0
  140.4720   79.9670  221.6590 C   0  0  0  0  0  0  0  0  0  0  0  0
  140.5260   76.8190  220.6860 C   0  0  0  0  0  0  0  0  0  0  0  0
  140.3000   76.6230  222.1490 C   0  0  0  0  0  0  0  0  0  0  0  0
  139.5400   75.3070  222.3340 C   0  0  0  0  0  0  0  0  0  0  0  0
  140.4730   74.2660  221.9550 N   0  0  0  0  0  0  0  0  0  0  0  0
  140.3940   72.9130  222.2880 C   0  0  0  0  0  0  0  0  0  0  0  0
  141.3380   72.1370  221.8670 O   0  0  0  0  0  0  0  0  0  0  0  0
  139.3510   72.2260  223.0790 C   0  0  1  0  0  0  0  0  0  0  0  0
  138.0350   72.3440  222.6530 N   0  0  0  0  0  0  0  0  0  0  0  0
  139.8690   70.8510  223.3930 C   0  0  2  0  0  0  0  0  0  0  0  0
  139.1470   69.7260  222.8030 C   0  0  0  0  0  0  0  0  0  0  0  0
  137.9300   69.2460  223.2990 C   0  0  0  0  0  0  0  0  0  0  0  0
  137.2660   68.1870  222.7210 C   0  0  0  0  0  0  0  0  0  0  0  0
  137.7680   67.5460  221.6230 C   0  0  0  0  0  0  0  0  0  0  0  0
  138.9600   67.9880  221.1090 C   0  0  0  0  0  0  0  0  0  0  0  0
  139.6150   69.0310  221.6770 C   0  0  0  0  0  0  0  0  0  0  0  0
  140.2840   70.6450  224.8020 C   0  0  0  0  0  0  0  0  0  0  0  0
  140.2610   69.3760  225.3950 C   0  0  0  0  0  0  0  0  0  0  0  0
  140.6520   69.2100  226.7070 C   0  0  0  0  0  0  0  0  0  0  0  0
  141.0760   70.2470  227.4900 C   0  0  0  0  0  0  0  0  0  0  0  0
  141.1050   71.5060  226.9190 C   0  0  0  0  0  0  0  0  0  0  0  0
  141.5270   72.5550  227.6910 F   0  0  0  0  0  0  0  0  0  0  0  0
  140.7190   71.6680  225.6260 C   0  0  0  0  0  0  0  0  0  0  0  0
  141.6030   74.7080  221.1380 C   0  0  0  0  0  0  0  0  0  0  0  0
  141.0910   75.6200  220.0110 C   0  0  0  0  0  0  0  0  0  0  0  0
  142.3688   80.6557  219.6703 H   0  0  0  0  0  0  0  0  0  0  0  0
  143.3049   80.4927  218.1459 H   0  0  0  0  0  0  0  0  0  0  0  0
  141.7325   81.3612  218.1459 H   0  0  0  0  0  0  0  0  0  0  0  0
  140.4838   79.3654  218.3274 H   0  0  0  0  0  0  0  0  0  0  0  0
  141.8245   78.8586  217.2667 H   0  0  0  0  0  0  0  0  0  0  0  0
  143.3518   78.2761  222.2755 H   0  0  0  0  0  0  0  0  0  0  0  0
  143.5577   80.0402  224.0171 H   0  0  0  0  0  0  0  0  0  0  0  0
  141.7720   81.7365  224.2301 H   0  0  0  0  0  0  0  0  0  0  0  0
  139.7913   81.7269  222.7485 H   0  0  0  0  0  0  0  0  0  0  0  0
  139.5991   79.9456  220.9899 H   0  0  0  0  0  0  0  0  0  0  0  0
  139.5618   76.9529  220.1738 H   0  0  0  0  0  0  0  0  0  0  0  0
  141.2657   76.5741  222.6734 H   0  0  0  0  0  0  0  0  0  0  0  0
  139.7217   77.4618  222.5638 H   0  0  0  0  0  0  0  0  0  0  0  0
  139.2325   75.1846  223.3830 H   0  0  0  0  0  0  0  0  0  0  0  0
  138.6237   75.2755  221.7262 H   0  0  0  0  0  0  0  0  0  0  0  0
  139.1985   72.7707  224.0224 H   0  0  0  0  0  0  0  0  0  0  0  0
  137.4100   73.0050  223.1240 H   0  0  0  0  0  0  0  0  0  0  0  0
  137.8430   72.2540  221.6650 H   0  0  0  0  0  0  0  0  0  0  0  0
  140.8109   70.8404  222.8250 H   0  0  0  0  0  0  0  0  0  0  0  0
  137.4881   69.7315  224.1816 H   0  0  0  0  0  0  0  0  0  0  0  0
  136.3117   67.8499  223.1519 H   0  0  0  0  0  0  0  0  0  0  0  0
  137.2321   66.7013  221.1656 H   0  0  0  0  0  0  0  0  0  0  0  0
  139.3896   67.4913  220.2265 H   0  0  0  0  0  0  0  0  0  0  0  0
  140.5677   69.3506  221.2295 H   0  0  0  0  0  0  0  0  0  0  0  0
  139.9287   68.5058  224.8099 H   0  0  0  0  0  0  0  0  0  0  0  0
  140.6213   68.2001  227.1419 H   0  0  0  0  0  0  0  0  0  0  0  0
  141.3824   70.0862  228.5342 H   0  0  0  0  0  0  0  0  0  0  0  0
  140.7549   72.6836  225.2050 H   0  0  0  0  0  0  0  0  0  0  0  0
  142.3147   75.2642  221.7658 H   0  0  0  0  0  0  0  0  0  0  0  0
  142.1069   73.8325  220.7025 H   0  0  0  0  0  0  0  0  0  0  0  0
  141.9184   75.9088  219.3461 H   0  0  0  0  0  0  0  0  0  0  0  0
  140.3384   75.1126  219.3896 H   0  0  0  0  0  0  0  0  0  0  0  0
  1  2  1  0
  2  3  1  0
  3  4  2  0
  3  5  1  0
  5  6  1  0
  6  7  2  0
  7  8  1  0
  8  9  2  0
  9 10  1  0
 10 11  2  0
  5 12  1  0
 12 13  1  0
 13 14  1  0
 14 15  1  0
 15 16  1  0
 16 17  2  0
 16 18  1  0
 18 19  1  0
 18 20  1  0
 20 21  1  0
 21 22  2  0
 22 23  1  0
 23 24  2  0
 24 25  1  0
 25 26  2  0
 20 27  1  0
 27 28  2  0
 28 29  1  0
 29 30  2  0
 30 31  1  0
 31 32  1  0
 31 33  2  0
 15 34  1  0
 34 35  1  0
 11  6  1  0
 35 12  1  0
 26 21  1  0
 33 27  1  0
  1 36  1  0
  1 37  1  0
  1 38  1  0
  2 39  1  0
  2 40  1  0
  7 41  1  0
  8 42  1  0
  9 43  1  0
 10 44  1  0
 11 45  1  0
 12 46  1  0
 13 47  1  0
 13 48  1  0
 14 49  1  0
 14 50  1  0
 18 51  1  1
 19 52  1  0
 19 53  1  0
 20 54  1  6
 22 55  1  0
 23 56  1  0
 24 57  1  0
 25 58  1  0
 26 59  1  0
 28 60  1  0
 29 61  1  0
 30 62  1  0
 33 63  1  0
 34 64  1  0
 34 65  1  0
 35 66  1  0
 35 67  1  0
M  END
>  <smiles>  (12) 
CCC(=O)N(c1ccccc1)C1CCN(C(=O)[C@@H](N)C(c2ccccc2)c2cccc(F)c2)CC1

>  <score_type>  (12) 
oracle

>  <origin>  (12) 
autodockgpu

>  <m_score__min__energy>  (12) 
-8.0600000000000005

>  <m_primary>  (12) 
energy

>  <rmsd>  (12) 
8.914147480826774

>  <m_score__min__rmsd>  (12) 
8.914147480826774

>  <meeko>  (12) 
{"free_energy": -8.05, "intermolecular_energy": -10.74, "internal_energy": -2.25, "cluster_size": 7, "cluster_id": 1, "rank_in_cluster": 2}

>  <energy>  (12) 
-7.35

>  <cluster_rmsd>  (12) 
0.98

>  <cluster>  (12) 
2

$$$$

     RDKit          3D

 67 70  0  0  0  0  0  0  0  0999 V2000
  142.9100   77.5200  217.2310 C   0  0  0  0  0  0  0  0  0  0  0  0
  143.0790   76.0200  217.4570 C   0  0  0  0  0  0  0  0  0  0  0  0
  142.1300   75.6180  218.4980 C   0  0  0  0  0  0  0  0  0  0  0  0
  140.9350   75.3520  218.1690 O   0  0  0  0  0  0  0  0  0  0  0  0
  142.4520   75.5040  219.8800 N   0  0  0  0  0  0  0  0  0  0  0  0
  143.4050   74.5140  220.2500 C   0  0  0  0  0  0  0  0  0  0  0  0
  143.0500   73.1780  220.4230 C   0  0  0  0  0  0  0  0  0  0  0  0
  143.9950   72.2370  220.7840 C   0  0  0  0  0  0  0  0  0  0  0  0
  145.2980   72.6530  220.9700 C   0  0  0  0  0  0  0  0  0  0  0  0
  145.6890   73.9670  220.8090 C   0  0  0  0  0  0  0  0  0  0  0  0
  144.7180   74.9040  220.4430 C   0  0  0  0  0  0  0  0  0  0  0  0
  141.8070   76.3870  220.8220 C   0  0  0  0  0  0  0  0  0  0  0  0
  140.4600   75.8200  221.1260 C   0  0  0  0  0  0  0  0  0  0  0  0
  139.7380   76.7990  222.0560 C   0  0  0  0  0  0  0  0  0  0  0  0
  139.4790   77.9750  221.2520 N   0  0  0  0  0  0  0  0  0  0  0  0
  138.5460   78.9790  221.5160 C   0  0  0  0  0  0  0  0  0  0  0  0
  138.4490   79.9470  220.6650 O   0  0  0  0  0  0  0  0  0  0  0  0
  137.6260   79.0890  222.6680 C   0  0  1  0  0  0  0  0  0  0  0  0
  136.9220   77.9530  223.0440 N   0  0  0  0  0  0  0  0  0  0  0  0
  138.3470   79.8580  223.7380 C   0  0  2  0  0  0  0  0  0  0  0  0
  137.6120   80.9490  224.3730 C   0  0  0  0  0  0  0  0  0  0  0  0
  137.1260   82.0600  223.6740 C   0  0  0  0  0  0  0  0  0  0  0  0
  136.4310   83.0740  224.2940 C   0  0  0  0  0  0  0  0  0  0  0  0
  136.1770   83.0450  225.6360 C   0  0  0  0  0  0  0  0  0  0  0  0
  136.6380   81.9720  226.3560 C   0  0  0  0  0  0  0  0  0  0  0  0
  137.3240   80.9720  225.7460 C   0  0  0  0  0  0  0  0  0  0  0  0
  139.7680   80.1630  223.4400 C   0  0  0  0  0  0  0  0  0  0  0  0
  140.8020   79.3140  223.8550 C   0  0  0  0  0  0  0  0  0  0  0  0
  142.1150   79.6200  223.5650 C   0  0  0  0  0  0  0  0  0  0  0  0
  142.4800   80.7420  222.8740 C   0  0  0  0  0  0  0  0  0  0  0  0
  141.4700   81.5900  222.4570 C   0  0  0  0  0  0  0  0  0  0  0  0
  141.8180   82.7170  221.7630 F   0  0  0  0  0  0  0  0  0  0  0  0
  140.1760   81.2870  222.7440 C   0  0  0  0  0  0  0  0  0  0  0  0
  140.2960   78.0980  220.0440 C   0  0  0  0  0  0  0  0  0  0  0  0
  141.7650   77.8100  220.3920 C   0  0  0  0  0  0  0  0  0  0  0  0
  142.8522   78.0329  218.2024 H   0  0  0  0  0  0  0  0  0  0  0  0
  143.7705   77.9046  216.6639 H   0  0  0  0  0  0  0  0  0  0  0  0
  141.9855   77.7035  216.6639 H   0  0  0  0  0  0  0  0  0  0  0  0
  142.8671   75.4744  216.5257 H   0  0  0  0  0  0  0  0  0  0  0  0
  144.1097   75.7899  217.7649 H   0  0  0  0  0  0  0  0  0  0  0  0
  142.0054   72.8688  220.2705 H   0  0  0  0  0  0  0  0  0  0  0  0
  143.7158   71.1817  220.9199 H   0  0  0  0  0  0  0  0  0  0  0  0
  146.0545   71.9081  221.2578 H   0  0  0  0  0  0  0  0  0  0  0  0
  146.7354   74.2685  220.9644 H   0  0  0  0  0  0  0  0  0  0  0  0
  145.0001   75.9585  220.3076 H   0  0  0  0  0  0  0  0  0  0  0  0
  142.4094   76.4303  221.7414 H   0  0  0  0  0  0  0  0  0  0  0  0
  139.8872   75.6970  220.1950 H   0  0  0  0  0  0  0  0  0  0  0  0
  140.5576   74.8353  221.6064 H   0  0  0  0  0  0  0  0  0  0  0  0
  138.7941   76.3632  222.4153 H   0  0  0  0  0  0  0  0  0  0  0  0
  140.3397   77.0367  222.9456 H   0  0  0  0  0  0  0  0  0  0  0  0
  136.7357   79.6584  222.3629 H   0  0  0  0  0  0  0  0  0  0  0  0
  136.0430   77.7240  222.5700 H   0  0  0  0  0  0  0  0  0  0  0  0
  137.4480   77.1350  223.3190 H   0  0  0  0  0  0  0  0  0  0  0  0
  138.3899   79.1136  224.5467 H   0  0  0  0  0  0  0  0  0  0  0  0
  137.3057   82.1253  222.5907 H   0  0  0  0  0  0  0  0  0  0  0  0
  136.0728   83.9252  223.6964 H   0  0  0  0  0  0  0  0  0  0  0  0
  135.6195   83.8577  226.1247 H   0  0  0  0  0  0  0  0  0  0  0  0
  136.4498   81.9215  227.4386 H   0  0  0  0  0  0  0  0  0  0  0  0
  137.6741   80.1316  226.3634 H   0  0  0  0  0  0  0  0  0  0  0  0
  140.5652   78.3977  224.4156 H   0  0  0  0  0  0  0  0  0  0  0  0
  142.9030   78.9315  223.9043 H   0  0  0  0  0  0  0  0  0  0  0  0
  143.5360   80.9617  222.6581 H   0  0  0  0  0  0  0  0  0  0  0  0
  139.3988   81.9846  222.3985 H   0  0  0  0  0  0  0  0  0  0  0  0
  139.9486   77.3758  219.2905 H   0  0  0  0  0  0  0  0  0  0  0  0
  140.2062   79.1176  219.6410 H   0  0  0  0  0  0  0  0  0  0  0  0
  142.4048   77.9630  219.5104 H   0  0  0  0  0  0  0  0  0  0  0  0
  142.1341   78.4826  221.1802 H   0  0  0  0  0  0  0  0  0  0  0  0
  1  2  1  0
  2  3  1  0
  3  4  2  0
  3  5  1  0
  5  6  1  0
  6  7  2  0
  7  8  1  0
  8  9  2  0
  9 10  1  0
 10 11  2  0
  5 12  1  0
 12 13  1  0
 13 14  1  0
 14 15  1  0
 15 16  1  0
 16 17  2  0
 16 18  1  0
 18 19  1  0
 18 20  1  0
 20 21  1  0
 21 22  2  0
 22 23  1  0
 23 24  2  0
 24 25  1  0
 25 26  2  0
 20 27  1  0
 27 28  2  0
 28 29  1  0
 29 30  2  0
 30 31  1  0
 31 32  1  0
 31 33  2  0
 15 34  1  0
 34 35  1  0
 11  6  1  0
 35 12  1  0
 26 21  1  0
 33 27  1  0
  1 36  1  0
  1 37  1  0
  1 38  1  0
  2 39  1  0
  2 40  1  0
  7 41  1  0
  8 42  1  0
  9 43  1  0
 10 44  1  0
 11 45  1  0
 12 46  1  0
 13 47  1  0
 13 48  1  0
 14 49  1  0
 14 50  1  0
 18 51  1  6
 19 52  1  0
 19 53  1  0
 20 54  1  1
 22 55  1  0
 23 56  1  0
 24 57  1  0
 25 58  1  0
 26 59  1  0
 28 60  1  0
 29 61  1  0
 30 62  1  0
 33 63  1  0
 34 64  1  0
 34 65  1  0
 35 66  1  0
 35 67  1  0
M  END
>  <smiles>  (13) 
CCC(=O)N(c1ccccc1)C1CCN(C(=O)[C@@H](N)C(c2ccccc2)c2cccc(F)c2)CC1

>  <score_type>  (13) 
oracle

>  <origin>  (13) 
autodockgpu

>  <m_score__min__energy>  (13) 
-8.0600000000000005

>  <m_primary>  (13) 
energy

>  <rmsd>  (13) 
4.325671016343954

>  <m_score__min__rmsd>  (13) 
4.325671016343954

>  <meeko>  (13) 
{"free_energy": -7.12, "intermolecular_energy": -9.8, "internal_energy": -2.88, "cluster_size": 11, "cluster_id": 7, "rank_in_cluster": 1}

>  <energy>  (13) 
-7.33

>  <cluster_rmsd>  (13) 
0.82

>  <cluster>  (13) 
2

$$$$

     RDKit          3D

 67 70  0  0  0  0  0  0  0  0999 V2000
  146.3260   74.0050  220.7870 C   0  0  0  0  0  0  0  0  0  0  0  0
  145.6140   72.6620  220.9320 C   0  0  0  0  0  0  0  0  0  0  0  0
  145.1490   72.2610  219.6010 C   0  0  0  0  0  0  0  0  0  0  0  0
  145.9410   72.3690  218.6160 O   0  0  0  0  0  0  0  0  0  0  0  0
  143.8500   71.7500  219.3230 N   0  0  0  0  0  0  0  0  0  0  0  0
  143.7230   70.3440  219.1460 C   0  0  0  0  0  0  0  0  0  0  0  0
  142.5140   69.7520  218.7850 C   0  0  0  0  0  0  0  0  0  0  0  0
  142.4190   68.3840  218.6200 C   0  0  0  0  0  0  0  0  0  0  0  0
  143.5490   67.6180  218.8230 C   0  0  0  0  0  0  0  0  0  0  0  0
  144.7640   68.1660  219.1810 C   0  0  0  0  0  0  0  0  0  0  0  0
  144.8410   69.5530  219.3420 C   0  0  0  0  0  0  0  0  0  0  0  0
  142.7420   72.6710  219.2390 C   0  0  0  0  0  0  0  0  0  0  0  0
  143.2850   74.0510  219.4120 C   0  0  0  0  0  0  0  0  0  0  0  0
  142.1030   75.0240  219.4120 C   0  0  0  0  0  0  0  0  0  0  0  0
  141.3770   74.7500  220.6340 N   0  0  0  0  0  0  0  0  0  0  0  0
  140.4590   75.5890  221.2660 C   0  0  0  0  0  0  0  0  0  0  0  0
  139.9220   75.1710  222.3660 O   0  0  0  0  0  0  0  0  0  0  0  0
  140.0020   76.9290  220.8400 C   0  0  1  0  0  0  0  0  0  0  0  0
  138.9170   77.4830  221.5050 N   0  0  0  0  0  0  0  0  0  0  0  0
  141.2290   77.7780  220.6630 C   0  0  2  0  0  0  0  0  0  0  0  0
  141.5900   78.6510  221.7780 C   0  0  0  0  0  0  0  0  0  0  0  0
  142.0740   79.9540  221.6110 C   0  0  0  0  0  0  0  0  0  0  0  0
  142.4020   80.7590  222.6790 C   0  0  0  0  0  0  0  0  0  0  0  0
  142.2700   80.3220  223.9670 C   0  0  0  0  0  0  0  0  0  0  0  0
  141.7990   79.0510  224.1700 C   0  0  0  0  0  0  0  0  0  0  0  0
  141.4750   78.2560  223.1200 C   0  0  0  0  0  0  0  0  0  0  0  0
  141.3740   78.3980  219.3240 C   0  0  0  0  0  0  0  0  0  0  0  0
  142.5010   78.1620  218.5260 C   0  0  0  0  0  0  0  0  0  0  0  0
  142.6120   78.7500  217.2830 C   0  0  0  0  0  0  0  0  0  0  0  0
  141.6550   79.5780  216.7660 C   0  0  0  0  0  0  0  0  0  0  0  0
  140.5360   79.8200  217.5420 C   0  0  0  0  0  0  0  0  0  0  0  0
  139.5680   80.6460  217.0390 F   0  0  0  0  0  0  0  0  0  0  0  0
  140.4280   79.2400  218.7670 C   0  0  0  0  0  0  0  0  0  0  0  0
  141.6530   73.4490  221.2450 C   0  0  0  0  0  0  0  0  0  0  0  0
  141.6190   72.3590  220.1620 C   0  0  0  0  0  0  0  0  0  0  0  0
  146.5431   74.4145  221.7846 H   0  0  0  0  0  0  0  0  0  0  0  0
  147.2674   73.8633  220.2360 H   0  0  0  0  0  0  0  0  0  0  0  0
  145.6804   74.7047  220.2360 H   0  0  0  0  0  0  0  0  0  0  0  0
  146.3108   71.9089  221.3286 H   0  0  0  0  0  0  0  0  0  0  0  0
  144.7664   72.7472  221.6279 H   0  0  0  0  0  0  0  0  0  0  0  0
  141.6253   70.3814  218.6297 H   0  0  0  0  0  0  0  0  0  0  0  0
  141.4655   67.9162  218.3336 H   0  0  0  0  0  0  0  0  0  0  0  0
  143.4784   66.5278  218.6944 H   0  0  0  0  0  0  0  0  0  0  0  0
  145.6476   67.5293  219.3355 H   0  0  0  0  0  0  0  0  0  0  0  0
  145.7965   70.0180  219.6263 H   0  0  0  0  0  0  0  0  0  0  0  0
  142.2734   72.5759  218.2484 H   0  0  0  0  0  0  0  0  0  0  0  0
  143.8280   74.1223  220.3660 H   0  0  0  0  0  0  0  0  0  0  0  0
  143.9820   74.2941  218.5964 H   0  0  0  0  0  0  0  0  0  0  0  0
  142.4611   76.0640  219.4025 H   0  0  0  0  0  0  0  0  0  0  0  0
  141.4685   74.8956  218.5227 H   0  0  0  0  0  0  0  0  0  0  0  0
  139.4887   76.8427  219.8709 H   0  0  0  0  0  0  0  0  0  0  0  0
  138.5300   77.0060  222.3250 H   0  0  0  0  0  0  0  0  0  0  0  0
  138.8610   78.4910  221.5710 H   0  0  0  0  0  0  0  0  0  0  0  0
  142.0241   77.0188  220.7006 H   0  0  0  0  0  0  0  0  0  0  0  0
  142.1965   80.3484  220.5914 H   0  0  0  0  0  0  0  0  0  0  0  0
  142.7783   81.7755  222.4913 H   0  0  0  0  0  0  0  0  0  0  0  0
  142.5338   80.9707  224.8153 H   0  0  0  0  0  0  0  0  0  0  0  0
  141.6825   78.6715  225.1959 H   0  0  0  0  0  0  0  0  0  0  0  0
  141.1007   77.2437  223.3323 H   0  0  0  0  0  0  0  0  0  0  0  0
  143.3024   77.5038  218.8928 H   0  0  0  0  0  0  0  0  0  0  0  0
  143.5097   78.5436  216.6817 H   0  0  0  0  0  0  0  0  0  0  0  0
  141.7704   80.0340  215.7716 H   0  0  0  0  0  0  0  0  0  0  0  0
  139.5248   79.4554  219.3568 H   0  0  0  0  0  0  0  0  0  0  0  0
  142.6471   73.4680  221.7155 H   0  0  0  0  0  0  0  0  0  0  0  0
  140.8911   73.2325  222.0083 H   0  0  0  0  0  0  0  0  0  0  0  0
  141.7588   71.3657  220.6135 H   0  0  0  0  0  0  0  0  0  0  0  0
  140.6539   72.3418  219.6346 H   0  0  0  0  0  0  0  0  0  0  0  0
  1  2  1  0
  2  3  1  0
  3  4  2  0
  3  5  1  0
  5  6  1  0
  6  7  2  0
  7  8  1  0
  8  9  2  0
  9 10  1  0
 10 11  2  0
  5 12  1  0
 12 13  1  0
 13 14  1  0
 14 15  1  0
 15 16  1  0
 16 17  2  0
 16 18  1  0
 18 19  1  0
 18 20  1  0
 20 21  1  0
 21 22  2  0
 22 23  1  0
 23 24  2  0
 24 25  1  0
 25 26  2  0
 20 27  1  0
 27 28  2  0
 28 29  1  0
 29 30  2  0
 30 31  1  0
 31 32  1  0
 31 33  2  0
 15 34  1  0
 34 35  1  0
 11  6  1  0
 35 12  1  0
 26 21  1  0
 33 27  1  0
  1 36  1  0
  1 37  1  0
  1 38  1  0
  2 39  1  0
  2 40  1  0
  7 41  1  0
  8 42  1  0
  9 43  1  0
 10 44  1  0
 11 45  1  0
 12 46  1  0
 13 47  1  0
 13 48  1  0
 14 49  1  0
 14 50  1  0
 18 51  1  6
 19 52  1  0
 19 53  1  0
 20 54  1  6
 22 55  1  0
 23 56  1  0
 24 57  1  0
 25 58  1  0
 26 59  1  0
 28 60  1  0
 29 61  1  0
 30 62  1  0
 33 63  1  0
 34 64  1  0
 34 65  1  0
 35 66  1  0
 35 67  1  0
M  END
>  <smiles>  (14) 
CCC(=O)N(c1ccccc1)C1CCN(C(=O)[C@@H](N)C(c2ccccc2)c2cccc(F)c2)CC1

>  <score_type>  (14) 
oracle

>  <origin>  (14) 
autodockgpu

>  <m_score__min__energy>  (14) 
-8.0600000000000005

>  <m_primary>  (14) 
energy

>  <rmsd>  (14) 
4.369796324211636

>  <m_score__min__rmsd>  (14) 
4.369796324211636

>  <meeko>  (14) 
{"free_energy": -7.43, "intermolecular_energy": -10.11, "internal_energy": -2.87, "cluster_size": 6, "cluster_id": 3, "rank_in_cluster": 1}

>  <energy>  (14) 
-7.32

>  <cluster_rmsd>  (14) 
0.83

>  <cluster>  (14) 
2

$$$$

     RDKit          3D

 67 70  0  0  0  0  0  0  0  0999 V2000
  140.3010   71.4500  222.8190 C   0  0  0  0  0  0  0  0  0  0  0  0
  140.9720   71.7550  221.4820 C   0  0  0  0  0  0  0  0  0  0  0  0
  141.2450   73.1950  221.4420 C   0  0  0  0  0  0  0  0  0  0  0  0
  140.7020   73.9470  222.3060 O   0  0  0  0  0  0  0  0  0  0  0  0
  142.0910   73.8260  220.4860 N   0  0  0  0  0  0  0  0  0  0  0  0
  143.4120   73.3170  220.3430 C   0  0  0  0  0  0  0  0  0  0  0  0
  143.6690   72.0990  219.7190 C   0  0  0  0  0  0  0  0  0  0  0  0
  144.9610   71.6270  219.5940 C   0  0  0  0  0  0  0  0  0  0  0  0
  145.9920   72.3920  220.1040 C   0  0  0  0  0  0  0  0  0  0  0  0
  145.7780   73.6030  220.7300 C   0  0  0  0  0  0  0  0  0  0  0  0
  144.4630   74.0640  220.8450 C   0  0  0  0  0  0  0  0  0  0  0  0
  141.5720   74.9340  219.7200 C   0  0  0  0  0  0  0  0  0  0  0  0
  142.3100   76.1610  220.1410 C   0  0  0  0  0  0  0  0  0  0  0  0
  141.7030   77.3530  219.3960 C   0  0  0  0  0  0  0  0  0  0  0  0
  140.3710   77.5100  219.9410 N   0  0  0  0  0  0  0  0  0  0  0  0
  139.5650   78.6470  219.8630 C   0  0  0  0  0  0  0  0  0  0  0  0
  138.4040   78.6000  220.4300 O   0  0  0  0  0  0  0  0  0  0  0  0
  139.8660   79.9360  219.2040 C   0  0  1  0  0  0  0  0  0  0  0  0
  138.8970   80.9280  219.2540 N   0  0  0  0  0  0  0  0  0  0  0  0
  141.2730   80.3060  219.5790 C   0  0  2  0  0  0  0  0  0  0  0  0
  141.5630   80.4280  221.0060 C   0  0  0  0  0  0  0  0  0  0  0  0
  141.2510   81.5640  221.7620 C   0  0  0  0  0  0  0  0  0  0  0  0
  141.5290   81.6520  223.1070 C   0  0  0  0  0  0  0  0  0  0  0  0
  142.1290   80.6240  223.7780 C   0  0  0  0  0  0  0  0  0  0  0  0
  142.4500   79.4940  223.0720 C   0  0  0  0  0  0  0  0  0  0  0  0
  142.1770   79.4050  221.7450 C   0  0  0  0  0  0  0  0  0  0  0  0
  141.8910   81.3570  218.7340 C   0  0  0  0  0  0  0  0  0  0  0  0
  142.9630   81.0730  217.8780 C   0  0  0  0  0  0  0  0  0  0  0  0
  143.5200   82.0670  217.1020 C   0  0  0  0  0  0  0  0  0  0  0  0
  143.0720   83.3580  217.1180 C   0  0  0  0  0  0  0  0  0  0  0  0
  142.0130   83.6550  217.9570 C   0  0  0  0  0  0  0  0  0  0  0  0
  141.5530   84.9440  217.9850 F   0  0  0  0  0  0  0  0  0  0  0  0
  141.4660   82.6740  218.7220 C   0  0  0  0  0  0  0  0  0  0  0  0
  139.8390   76.3380  220.6370 C   0  0  0  0  0  0  0  0  0  0  0  0
  140.0940   75.0820  219.7890 C   0  0  0  0  0  0  0  0  0  0  0  0
  140.9667   71.7526  223.6408 H   0  0  0  0  0  0  0  0  0  0  0  0
  139.3548   72.0065  222.8898 H   0  0  0  0  0  0  0  0  0  0  0  0
  140.0981   70.3712  222.8898 H   0  0  0  0  0  0  0  0  0  0  0  0
  141.9133   71.1922  221.3976 H   0  0  0  0  0  0  0  0  0  0  0  0
  140.3196   71.4619  220.6463 H   0  0  0  0  0  0  0  0  0  0  0  0
  142.8329   71.5055  219.3207 H   0  0  0  0  0  0  0  0  0  0  0  0
  145.1641   70.6652  219.1003 H   0  0  0  0  0  0  0  0  0  0  0  0
  147.0232   72.0216  220.0074 H   0  0  0  0  0  0  0  0  0  0  0  0
  146.6191   74.1897  221.1277 H   0  0  0  0  0  0  0  0  0  0  0  0
  144.2627   75.0268  221.3378 H   0  0  0  0  0  0  0  0  0  0  0  0
  141.7461   74.7422  218.6509 H   0  0  0  0  0  0  0  0  0  0  0  0
  142.2058   76.3061  221.2264 H   0  0  0  0  0  0  0  0  0  0  0  0
  143.3799   76.0652  219.9043 H   0  0  0  0  0  0  0  0  0  0  0  0
  142.2997   78.2604  219.5709 H   0  0  0  0  0  0  0  0  0  0  0  0
  141.6830   77.1883  218.3086 H   0  0  0  0  0  0  0  0  0  0  0  0
  139.8143   79.8026  218.1133 H   0  0  0  0  0  0  0  0  0  0  0  0
  138.7840   81.5640  218.4580 H   0  0  0  0  0  0  0  0  0  0  0  0
  138.0240   80.7210  219.7210 H   0  0  0  0  0  0  0  0  0  0  0  0
  141.8148   79.3862  219.3138 H   0  0  0  0  0  0  0  0  0  0  0  0
  140.7665   82.4165  221.2635 H   0  0  0  0  0  0  0  0  0  0  0  0
  141.2627   82.5689  223.6532 H   0  0  0  0  0  0  0  0  0  0  0  0
  142.3479   80.7011  224.8532 H   0  0  0  0  0  0  0  0  0  0  0  0
  142.9339   78.6503  223.5859 H   0  0  0  0  0  0  0  0  0  0  0  0
  142.4526   78.4788  221.2194 H   0  0  0  0  0  0  0  0  0  0  0  0
  143.3631   80.0497  217.8247 H   0  0  0  0  0  0  0  0  0  0  0  0
  144.3612   81.8099  216.4415 H   0  0  0  0  0  0  0  0  0  0  0  0
  143.5357   84.1313  216.4879 H   0  0  0  0  0  0  0  0  0  0  0  0
  140.6260   82.9460  219.3781 H   0  0  0  0  0  0  0  0  0  0  0  0
  140.3390   76.2311  221.6109 H   0  0  0  0  0  0  0  0  0  0  0  0
  138.7573   76.4628  220.7932 H   0  0  0  0  0  0  0  0  0  0  0  0
  139.6424   74.1996  220.2658 H   0  0  0  0  0  0  0  0  0  0  0  0
  139.6486   75.1721  218.7873 H   0  0  0  0  0  0  0  0  0  0  0  0
  1  2  1  0
  2  3  1  0
  3  4  2  0
  3  5  1  0
  5  6  1  0
  6  7  2  0
  7  8  1  0
  8  9  2  0
  9 10  1  0
 10 11  2  0
  5 12  1  0
 12 13  1  0
 13 14  1  0
 14 15  1  0
 15 16  1  0
 16 17  2  0
 16 18  1  0
 18 19  1  0
 18 20  1  0
 20 21  1  0
 21 22  2  0
 22 23  1  0
 23 24  2  0
 24 25  1  0
 25 26  2  0
 20 27  1  0
 27 28  2  0
 28 29  1  0
 29 30  2  0
 30 31  1  0
 31 32  1  0
 31 33  2  0
 15 34  1  0
 34 35  1  0
 11  6  1  0
 35 12  1  0
 26 21  1  0
 33 27  1  0
  1 36  1  0
  1 37  1  0
  1 38  1  0
  2 39  1  0
  2 40  1  0
  7 41  1  0
  8 42  1  0
  9 43  1  0
 10 44  1  0
 11 45  1  0
 12 46  1  0
 13 47  1  0
 13 48  1  0
 14 49  1  0
 14 50  1  0
 18 51  1  6
 19 52  1  0
 19 53  1  0
 20 54  1  6
 22 55  1  0
 23 56  1  0
 24 57  1  0
 25 58  1  0
 26 59  1  0
 28 60  1  0
 29 61  1  0
 30 62  1  0
 33 63  1  0
 34 64  1  0
 34 65  1  0
 35 66  1  0
 35 67  1  0
M  END
>  <smiles>  (15) 
CCC(=O)N(c1ccccc1)C1CCN(C(=O)[C@@H](N)C(c2ccccc2)c2cccc(F)c2)CC1

>  <score_type>  (15) 
oracle

>  <origin>  (15) 
autodockgpu

>  <m_score__min__energy>  (15) 
-8.0600000000000005

>  <m_primary>  (15) 
energy

>  <rmsd>  (15) 
3.168796156522588

>  <m_score__min__rmsd>  (15) 
3.168796156522588

>  <meeko>  (15) 
{"free_energy": -7.15, "intermolecular_energy": -9.83, "internal_energy": -2.85, "cluster_size": 2, "cluster_id": 6, "rank_in_cluster": 1}

>  <energy>  (15) 
-7.25

>  <cluster_rmsd>  (15) 
0.84

>  <cluster>  (15) 
2

$$$$

     RDKit          3D

 67 70  0  0  0  0  0  0  0  0999 V2000
  135.1640   70.8680  224.6030 C   0  0  0  0  0  0  0  0  0  0  0  0
  136.6100   71.1610  224.2120 C   0  0  0  0  0  0  0  0  0  0  0  0
  137.4060   69.9730  224.5320 C   0  0  0  0  0  0  0  0  0  0  0  0
  136.8090   68.9070  224.8680 O   0  0  0  0  0  0  0  0  0  0  0  0
  138.8280   69.9240  224.4940 N   0  0  0  0  0  0  0  0  0  0  0  0
  139.5080   69.6830  225.7200 C   0  0  0  0  0  0  0  0  0  0  0  0
  139.6430   68.4010  226.2490 C   0  0  0  0  0  0  0  0  0  0  0  0
  140.3070   68.1940  227.4420 C   0  0  0  0  0  0  0  0  0  0  0  0
  140.8320   69.2890  228.0990 C   0  0  0  0  0  0  0  0  0  0  0  0
  140.7190   70.5740  227.6090 C   0  0  0  0  0  0  0  0  0  0  0  0
  140.0440   70.7620  226.4000 C   0  0  0  0  0  0  0  0  0  0  0  0
  139.5000   70.1180  223.2310 C   0  0  0  0  0  0  0  0  0  0  0  0
  140.3790   71.3170  223.3630 C   0  0  0  0  0  0  0  0  0  0  0  0
  141.0240   71.5780  222.0000 C   0  0  0  0  0  0  0  0  0  0  0  0
  139.9420   71.9990  221.1340 N   0  0  0  0  0  0  0  0  0  0  0  0
  140.0590   72.6880  219.9270 C   0  0  0  0  0  0  0  0  0  0  0  0
  138.9680   72.9910  219.3020 O   0  0  0  0  0  0  0  0  0  0  0  0
  141.2920   73.1320  219.2440 C   0  0  1  0  0  0  0  0  0  0  0  0
  141.1590   73.7560  218.0110 N   0  0  0  0  0  0  0  0  0  0  0  0
  142.1570   73.7940  220.2790 C   0  0  2  0  0  0  0  0  0  0  0  0
  141.9150   75.2130  220.5280 C   0  0  0  0  0  0  0  0  0  0  0  0
  141.1740   75.6890  221.6150 C   0  0  0  0  0  0  0  0  0  0  0  0
  140.9640   77.0330  221.8310 C   0  0  0  0  0  0  0  0  0  0  0  0
  141.4750   77.9770  220.9850 C   0  0  0  0  0  0  0  0  0  0  0  0
  142.2060   77.5490  219.9080 C   0  0  0  0  0  0  0  0  0  0  0  0
  142.4140   76.2250  219.6930 C   0  0  0  0  0  0  0  0  0  0  0  0
  143.5890   73.4120  220.2360 C   0  0  0  0  0  0  0  0  0  0  0  0
  144.5750   74.1960  220.8490 C   0  0  0  0  0  0  0  0  0  0  0  0
  145.9010   73.8190  220.7950 C   0  0  0  0  0  0  0  0  0  0  0  0
  146.3240   72.6870  220.1570 C   0  0  0  0  0  0  0  0  0  0  0  0
  145.3630   71.9020  219.5470 C   0  0  0  0  0  0  0  0  0  0  0  0
  145.7710   70.7650  218.9030 F   0  0  0  0  0  0  0  0  0  0  0  0
  144.0570   72.2750  219.6000 C   0  0  0  0  0  0  0  0  0  0  0  0
  138.6000   71.6490  221.6000 C   0  0  0  0  0  0  0  0  0  0  0  0
  138.5860   70.1830  222.0600 C   0  0  0  0  0  0  0  0  0  0  0  0
  135.0770   70.8504  225.6994 H   0  0  0  0  0  0  0  0  0  0  0  0
  134.5081   71.6515  224.1957 H   0  0  0  0  0  0  0  0  0  0  0  0
  134.8648   69.8910  224.1957 H   0  0  0  0  0  0  0  0  0  0  0  0
  136.6712   71.3742  223.1346 H   0  0  0  0  0  0  0  0  0  0  0  0
  136.9877   72.0374  224.7591 H   0  0  0  0  0  0  0  0  0  0  0  0
  139.2153   67.5431  225.7095 H   0  0  0  0  0  0  0  0  0  0  0  0
  140.4150   67.1817  227.8586 H   0  0  0  0  0  0  0  0  0  0  0  0
  141.3611   69.1308  229.0503 H   0  0  0  0  0  0  0  0  0  0  0  0
  141.1484   71.4269  228.1551 H   0  0  0  0  0  0  0  0  0  0  0  0
  139.9381   71.7755  225.9858 H   0  0  0  0  0  0  0  0  0  0  0  0
  140.1118   69.2304  223.0122 H   0  0  0  0  0  0  0  0  0  0  0  0
  139.7800   72.1883  223.6663 H   0  0  0  0  0  0  0  0  0  0  0  0
  141.1518   71.1441  224.1265 H   0  0  0  0  0  0  0  0  0  0  0  0
  141.7833   72.3700  222.0793 H   0  0  0  0  0  0  0  0  0  0  0  0
  141.5332   70.6837  221.6115 H   0  0  0  0  0  0  0  0  0  0  0  0
  141.8215   72.2514  218.8514 H   0  0  0  0  0  0  0  0  0  0  0  0
  141.8470   73.5710  217.2740 H   0  0  0  0  0  0  0  0  0  0  0  0
  140.2260   73.9100  217.6520 H   0  0  0  0  0  0  0  0  0  0  0  0
  141.7781   73.3329  221.2030 H   0  0  0  0  0  0  0  0  0  0  0  0
  140.7439   74.9644  222.3221 H   0  0  0  0  0  0  0  0  0  0  0  0
  140.3731   77.3530  222.7019 H   0  0  0  0  0  0  0  0  0  0  0  0
  141.3044   79.0489  221.1635 H   0  0  0  0  0  0  0  0  0  0  0  0
  142.6289   78.2865  219.2100 H   0  0  0  0  0  0  0  0  0  0  0  0
  143.0069   75.9285  218.8152 H   0  0  0  0  0  0  0  0  0  0  0  0
  144.2901   75.1181  221.3768 H   0  0  0  0  0  0  0  0  0  0  0  0
  146.6500   74.4571  221.2867 H   0  0  0  0  0  0  0  0  0  0  0  0
  147.3884   72.4108  220.1298 H   0  0  0  0  0  0  0  0  0  0  0  0
  143.3199   71.6276  219.1024 H   0  0  0  0  0  0  0  0  0  0  0  0
  138.3222   72.3005  222.4417 H   0  0  0  0  0  0  0  0  0  0  0  0
  137.8794   71.7838  220.7799 H   0  0  0  0  0  0  0  0  0  0  0  0
  137.5686   69.8823  222.3508 H   0  0  0  0  0  0  0  0  0  0  0  0
  138.9072   69.5033  221.2570 H   0  0  0  0  0  0  0  0  0  0  0  0
  1  2  1  0
  2  3  1  0
  3  4  2  0
  3  5  1  0
  5  6  1  0
  6  7  2  0
  7  8  1  0
  8  9  2  0
  9 10  1  0
 10 11  2  0
  5 12  1  0
 12 13  1  0
 13 14  1  0
 14 15  1  0
 15 16  1  0
 16 17  2  0
 16 18  1  0
 18 19  1  0
 18 20  1  0
 20 21  1  0
 21 22  2  0
 22 23  1  0
 23 24  2  0
 24 25  1  0
 25 26  2  0
 20 27  1  0
 27 28  2  0
 28 29  1  0
 29 30  2  0
 30 31  1  0
 31 32  1  0
 31 33  2  0
 15 34  1  0
 34 35  1  0
 11  6  1  0
 35 12  1  0
 26 21  1  0
 33 27  1  0
  1 36  1  0
  1 37  1  0
  1 38  1  0
  2 39  1  0
  2 40  1  0
  7 41  1  0
  8 42  1  0
  9 43  1  0
 10 44  1  0
 11 45  1  0
 12 46  1  0
 13 47  1  0
 13 48  1  0
 14 49  1  0
 14 50  1  0
 18 51  1  6
 19 52  1  0
 19 53  1  0
 20 54  1  1
 22 55  1  0
 23 56  1  0
 24 57  1  0
 25 58  1  0
 26 59  1  0
 28 60  1  0
 29 61  1  0
 30 62  1  0
 33 63  1  0
 34 64  1  0
 34 65  1  0
 35 66  1  0
 35 67  1  0
M  END
>  <smiles>  (16) 
CCC(=O)N(c1ccccc1)C1CCN(C(=O)[C@@H](N)C(c2ccccc2)c2cccc(F)c2)CC1

>  <score_type>  (16) 
oracle

>  <origin>  (16) 
autodockgpu

>  <m_score__min__energy>  (16) 
-8.0600000000000005

>  <m_primary>  (16) 
energy

>  <rmsd>  (16) 
6.7191687344309505

>  <m_score__min__rmsd>  (16) 
6.7191687344309505

>  <meeko>  (16) 
{"free_energy": -7.4, "intermolecular_energy": -10.09, "internal_energy": -2.8, "cluster_size": 14, "cluster_id": 2, "rank_in_cluster": 3}

>  <energy>  (16) 
-7.24

>  <cluster_rmsd>  (16) 
0.63

>  <cluster>  (16) 
2

$$$$

     RDKit          3D

 67 70  0  0  0  0  0  0  0  0999 V2000
  135.5960   68.9970  223.5900 C   0  0  0  0  0  0  0  0  0  0  0  0
  136.4080   69.3150  224.8420 C   0  0  0  0  0  0  0  0  0  0  0  0
  137.4420   70.2840  224.4670 C   0  0  0  0  0  0  0  0  0  0  0  0
  137.1000   71.4780  224.2100 O   0  0  0  0  0  0  0  0  0  0  0  0
  138.8290   69.9810  224.3650 N   0  0  0  0  0  0  0  0  0  0  0  0
  139.4690   69.4480  225.5190 C   0  0  0  0  0  0  0  0  0  0  0  0
  139.6180   68.0770  225.7120 C   0  0  0  0  0  0  0  0  0  0  0  0
  140.2440   67.5860  226.8420 C   0  0  0  0  0  0  0  0  0  0  0  0
  140.7160   68.4880  227.7750 C   0  0  0  0  0  0  0  0  0  0  0  0
  140.5860   69.8530  227.6210 C   0  0  0  0  0  0  0  0  0  0  0  0
  139.9520   70.3300  226.4700 C   0  0  0  0  0  0  0  0  0  0  0  0
  139.5060   70.2240  223.1140 C   0  0  0  0  0  0  0  0  0  0  0  0
  140.3850   71.4170  223.2980 C   0  0  0  0  0  0  0  0  0  0  0  0
  141.0370   71.7320  221.9490 C   0  0  0  0  0  0  0  0  0  0  0  0
  139.9590   72.1870  221.0960 N   0  0  0  0  0  0  0  0  0  0  0  0
  140.0810   72.9230  219.9170 C   0  0  0  0  0  0  0  0  0  0  0  0
  138.9930   73.2520  219.3000 O   0  0  0  0  0  0  0  0  0  0  0  0
  141.3180   73.3940  219.2580 C   0  0  1  0  0  0  0  0  0  0  0  0
  141.1920   74.0420  218.0370 N   0  0  0  0  0  0  0  0  0  0  0  0
  142.1630   74.0430  220.3160 C   0  0  2  0  0  0  0  0  0  0  0  0
  141.9160   75.4590  220.5770 C   0  0  0  0  0  0  0  0  0  0  0  0
  141.1820   75.9240  221.6740 C   0  0  0  0  0  0  0  0  0  0  0  0
  140.9680   77.2650  221.9020 C   0  0  0  0  0  0  0  0  0  0  0  0
  141.4680   78.2180  221.0590 C   0  0  0  0  0  0  0  0  0  0  0  0
  142.1920   77.8010  219.9720 C   0  0  0  0  0  0  0  0  0  0  0  0
  142.4040   76.4800  219.7470 C   0  0  0  0  0  0  0  0  0  0  0  0
  143.5960   73.6610  220.2950 C   0  0  0  0  0  0  0  0  0  0  0  0
  144.5840   74.4940  220.8360 C   0  0  0  0  0  0  0  0  0  0  0  0
  145.9100   74.1160  220.8040 C   0  0  0  0  0  0  0  0  0  0  0  0
  146.3320   72.9380  220.2570 C   0  0  0  0  0  0  0  0  0  0  0  0
  145.3690   72.1040  219.7190 C   0  0  0  0  0  0  0  0  0  0  0  0
  145.7750   70.9190  219.1670 F   0  0  0  0  0  0  0  0  0  0  0  0
  144.0620   72.4780  219.7510 C   0  0  0  0  0  0  0  0  0  0  0  0
  138.6140   71.8190  221.5400 C   0  0  0  0  0  0  0  0  0  0  0  0
  138.5980   70.3360  221.9420 C   0  0  0  0  0  0  0  0  0  0  0  0
  134.6085   68.6103  223.8819 H   0  0  0  0  0  0  0  0  0  0  0  0
  135.4695   69.9120  222.9927 H   0  0  0  0  0  0  0  0  0  0  0  0
  136.1246   68.2394  222.9927 H   0  0  0  0  0  0  0  0  0  0  0  0
  135.7533   69.7454  225.6141 H   0  0  0  0  0  0  0  0  0  0  0  0
  136.8653   68.4005  225.2478 H   0  0  0  0  0  0  0  0  0  0  0  0
  139.2329   67.3766  224.9562 H   0  0  0  0  0  0  0  0  0  0  0  0
  140.3634   66.5032  226.9945 H   0  0  0  0  0  0  0  0  0  0  0  0
  141.2153   68.1032  228.6765 H   0  0  0  0  0  0  0  0  0  0  0  0
  140.9707   70.5468  228.3830 H   0  0  0  0  0  0  0  0  0  0  0  0
  139.8362   71.4134  226.3192 H   0  0  0  0  0  0  0  0  0  0  0  0
  140.1177   69.3450  222.8626 H   0  0  0  0  0  0  0  0  0  0  0  0
  139.7847   72.2758  223.6328 H   0  0  0  0  0  0  0  0  0  0  0  0
  141.1541   71.2135  224.0577 H   0  0  0  0  0  0  0  0  0  0  0  0
  141.7958   72.5202  222.0633 H   0  0  0  0  0  0  0  0  0  0  0  0
  141.5484   70.8540  221.5276 H   0  0  0  0  0  0  0  0  0  0  0  0
  141.8622   72.5276  218.8541 H   0  0  0  0  0  0  0  0  0  0  0  0
  141.8770   73.8610  217.2960 H   0  0  0  0  0  0  0  0  0  0  0  0
  140.2610   74.2140  217.6810 H   0  0  0  0  0  0  0  0  0  0  0  0
  141.7675   73.5713  221.2276 H   0  0  0  0  0  0  0  0  0  0  0  0
  140.7611   75.1922  222.3792 H   0  0  0  0  0  0  0  0  0  0  0  0
  140.3829   77.5757  222.7801 H   0  0  0  0  0  0  0  0  0  0  0  0
  141.2946   79.2878  221.2473 H   0  0  0  0  0  0  0  0  0  0  0  0
  142.6052   78.5451  219.2752 H   0  0  0  0  0  0  0  0  0  0  0  0
  142.9923   76.1927  218.8631 H   0  0  0  0  0  0  0  0  0  0  0  0
  144.3004   75.4554  221.2891 H   0  0  0  0  0  0  0  0  0  0  0  0
  146.6605   74.7930  221.2381 H   0  0  0  0  0  0  0  0  0  0  0  0
  147.3970   72.6631  220.2448 H   0  0  0  0  0  0  0  0  0  0  0  0
  143.3230   71.7909  219.3132 H   0  0  0  0  0  0  0  0  0  0  0  0
  138.3310   72.4369  222.4049 H   0  0  0  0  0  0  0  0  0  0  0  0
  137.8981   71.9860  220.7217 H   0  0  0  0  0  0  0  0  0  0  0  0
  137.5792   70.0243  222.2156 H   0  0  0  0  0  0  0  0  0  0  0  0
  138.9236   69.6887  221.1144 H   0  0  0  0  0  0  0  0  0  0  0  0
  1  2  1  0
  2  3  1  0
  3  4  2  0
  3  5  1  0
  5  6  1  0
  6  7  2  0
  7  8  1  0
  8  9  2  0
  9 10  1  0
 10 11  2  0
  5 12  1  0
 12 13  1  0
 13 14  1  0
 14 15  1  0
 15 16  1  0
 16 17  2  0
 16 18  1  0
 18 19  1  0
 18 20  1  0
 20 21  1  0
 21 22  2  0
 22 23  1  0
 23 24  2  0
 24 25  1  0
 25 26  2  0
 20 27  1  0
 27 28  2  0
 28 29  1  0
 29 30  2  0
 30 31  1  0
 31 32  1  0
 31 33  2  0
 15 34  1  0
 34 35  1  0
 11  6  1  0
 35 12  1  0
 26 21  1  0
 33 27  1  0
  1 36  1  0
  1 37  1  0
  1 38  1  0
  2 39  1  0
  2 40  1  0
  7 41  1  0
  8 42  1  0
  9 43  1  0
 10 44  1  0
 11 45  1  0
 12 46  1  0
 13 47  1  0
 13 48  1  0
 14 49  1  0
 14 50  1  0
 18 51  1  6
 19 52  1  0
 19 53  1  0
 20 54  1  1
 22 55  1  0
 23 56  1  0
 24 57  1  0
 25 58  1  0
 26 59  1  0
 28 60  1  0
 29 61  1  0
 30 62  1  0
 33 63  1  0
 34 64  1  0
 34 65  1  0
 35 66  1  0
 35 67  1  0
M  END
>  <smiles>  (17) 
CCC(=O)N(c1ccccc1)C1CCN(C(=O)[C@@H](N)C(c2ccccc2)c2cccc(F)c2)CC1

>  <score_type>  (17) 
oracle

>  <origin>  (17) 
autodockgpu

>  <m_score__min__energy>  (17) 
-8.0600000000000005

>  <m_primary>  (17) 
energy

>  <rmsd>  (17) 
6.545932662341093

>  <m_score__min__rmsd>  (17) 
6.545932662341093

>  <meeko>  (17) 
{"free_energy": -7.21, "intermolecular_energy": -9.9, "internal_energy": -2.96, "cluster_size": 14, "cluster_id": 2, "rank_in_cluster": 12}

>  <energy>  (17) 
-7.23

>  <cluster_rmsd>  (17) 
0.68

>  <cluster>  (17) 
2

$$$$

     RDKit          3D

 67 70  0  0  0  0  0  0  0  0999 V2000
  135.2930   69.8690  225.3610 C   0  0  0  0  0  0  0  0  0  0  0  0
  136.6290   69.2460  224.9640 C   0  0  0  0  0  0  0  0  0  0  0  0
  137.5270   70.3350  224.5700 C   0  0  0  0  0  0  0  0  0  0  0  0
  137.0290   71.4570  224.2540 O   0  0  0  0  0  0  0  0  0  0  0  0
  138.9450   70.2270  224.5120 N   0  0  0  0  0  0  0  0  0  0  0  0
  139.6270   69.9080  225.7190 C   0  0  0  0  0  0  0  0  0  0  0  0
  140.1900   70.8910  226.5300 C   0  0  0  0  0  0  0  0  0  0  0  0
  140.8480   70.5540  227.6970 C   0  0  0  0  0  0  0  0  0  0  0  0
  140.9360   69.2190  228.0390 C   0  0  0  0  0  0  0  0  0  0  0  0
  140.3930   68.2160  227.2620 C   0  0  0  0  0  0  0  0  0  0  0  0
  139.7300   68.5780  226.0850 C   0  0  0  0  0  0  0  0  0  0  0  0
  139.6100   70.4420  223.2490 C   0  0  0  0  0  0  0  0  0  0  0  0
  140.4080   71.6990  223.3640 C   0  0  0  0  0  0  0  0  0  0  0  0
  141.0430   71.9780  222.0000 C   0  0  0  0  0  0  0  0  0  0  0  0
  139.9410   72.3120  221.1210 N   0  0  0  0  0  0  0  0  0  0  0  0
  140.0200   72.9850  219.9020 C   0  0  0  0  0  0  0  0  0  0  0  0
  138.9150   73.2060  219.2670 O   0  0  0  0  0  0  0  0  0  0  0  0
  141.2250   73.4980  219.2170 C   0  0  1  0  0  0  0  0  0  0  0  0
  141.0450   74.2250  218.0490 N   0  0  0  0  0  0  0  0  0  0  0  0
  142.1230   74.0750  220.2750 C   0  0  2  0  0  0  0  0  0  0  0  0
  141.8160   75.4300  220.7290 C   0  0  0  0  0  0  0  0  0  0  0  0
  142.2530   76.5820  220.0660 C   0  0  0  0  0  0  0  0  0  0  0  0
  141.9460   77.8480  220.5110 C   0  0  0  0  0  0  0  0  0  0  0  0
  141.1910   78.0440  221.6340 C   0  0  0  0  0  0  0  0  0  0  0  0
  140.7450   76.9390  222.3110 C   0  0  0  0  0  0  0  0  0  0  0  0
  141.0470   75.6900  221.8740 C   0  0  0  0  0  0  0  0  0  0  0  0
  143.5680   73.8000  220.0880 C   0  0  0  0  0  0  0  0  0  0  0  0
  144.1080   73.5450  218.8210 C   0  0  0  0  0  0  0  0  0  0  0  0
  145.4550   73.2930  218.6730 C   0  0  0  0  0  0  0  0  0  0  0  0
  146.3260   73.2770  219.7260 C   0  0  0  0  0  0  0  0  0  0  0  0
  145.8090   73.5280  220.9840 C   0  0  0  0  0  0  0  0  0  0  0  0
  146.6680   73.5150  222.0490 F   0  0  0  0  0  0  0  0  0  0  0  0
  144.4810   73.7750  221.1280 C   0  0  0  0  0  0  0  0  0  0  0  0
  138.6220   71.8830  221.5860 C   0  0  0  0  0  0  0  0  0  0  0  0
  138.7010   70.4270  222.0730 C   0  0  0  0  0  0  0  0  0  0  0  0
  135.2165   69.9047  226.4578 H   0  0  0  0  0  0  0  0  0  0  0  0
  135.2295   70.8896  224.9556 H   0  0  0  0  0  0  0  0  0  0  0  0
  134.4703   69.2616  224.9556 H   0  0  0  0  0  0  0  0  0  0  0  0
  137.0556   68.6984  225.8173 H   0  0  0  0  0  0  0  0  0  0  0  0
  136.4930   68.5381  224.1331 H   0  0  0  0  0  0  0  0  0  0  0  0
  140.1096   71.9484  226.2375 H   0  0  0  0  0  0  0  0  0  0  0  0
  141.2911   71.3302  228.3382 H   0  0  0  0  0  0  0  0  0  0  0  0
  141.4592   68.9444  228.9668 H   0  0  0  0  0  0  0  0  0  0  0  0
  140.4793   67.1607  227.5602 H   0  0  0  0  0  0  0  0  0  0  0  0
  139.2874   67.7998  225.4459 H   0  0  0  0  0  0  0  0  0  0  0  0
  140.2794   69.5924  223.0488 H   0  0  0  0  0  0  0  0  0  0  0  0
  139.7512   72.5342  223.6486 H   0  0  0  0  0  0  0  0  0  0  0  0
  141.1857   71.5906  224.1343 H   0  0  0  0  0  0  0  0  0  0  0  0
  141.7482   72.8194  222.0691 H   0  0  0  0  0  0  0  0  0  0  0  0
  141.6121   71.1124  221.6301 H   0  0  0  0  0  0  0  0  0  0  0  0
  141.7446   72.6596  218.7301 H   0  0  0  0  0  0  0  0  0  0  0  0
  141.7500   74.1730  217.3070 H   0  0  0  0  0  0  0  0  0  0  0  0
  140.1040   74.3310  217.6930 H   0  0  0  0  0  0  0  0  0  0  0  0
  141.8415   73.4720  221.1508 H   0  0  0  0  0  0  0  0  0  0  0  0
  142.8632   76.4722  219.1574 H   0  0  0  0  0  0  0  0  0  0  0  0
  142.3157   78.7200  219.9516 H   0  0  0  0  0  0  0  0  0  0  0  0
  140.9488   79.0584  221.9837 H   0  0  0  0  0  0  0  0  0  0  0  0
  140.1358   77.0657  223.2181 H   0  0  0  0  0  0  0  0  0  0  0  0
  140.6676   74.8330  222.4498 H   0  0  0  0  0  0  0  0  0  0  0  0
  143.4524   73.5459  217.9377 H   0  0  0  0  0  0  0  0  0  0  0  0
  145.8458   73.0963  217.6638 H   0  0  0  0  0  0  0  0  0  0  0  0
  147.3967   73.0724  219.5787 H   0  0  0  0  0  0  0  0  0  0  0  0
  144.1045   73.9689  222.1432 H   0  0  0  0  0  0  0  0  0  0  0  0
  138.2965   72.5298  222.4141 H   0  0  0  0  0  0  0  0  0  0  0  0
  137.8996   71.9554  220.7596 H   0  0  0  0  0  0  0  0  0  0  0  0
  137.7036   70.0659  222.3644 H   0  0  0  0  0  0  0  0  0  0  0  0
  139.0709   69.7557  221.2840 H   0  0  0  0  0  0  0  0  0  0  0  0
  1  2  1  0
  2  3  1  0
  3  4  2  0
  3  5  1  0
  5  6  1  0
  6  7  2  0
  7  8  1  0
  8  9  2  0
  9 10  1  0
 10 11  2  0
  5 12  1  0
 12 13  1  0
 13 14  1  0
 14 15  1  0
 15 16  1  0
 16 17  2  0
 16 18  1  0
 18 19  1  0
 18 20  1  0
 20 21  1  0
 21 22  2  0
 22 23  1  0
 23 24  2  0
 24 25  1  0
 25 26  2  0
 20 27  1  0
 27 28  2  0
 28 29  1  0
 29 30  2  0
 30 31  1  0
 31 32  1  0
 31 33  2  0
 15 34  1  0
 34 35  1  0
 11  6  1  0
 35 12  1  0
 26 21  1  0
 33 27  1  0
  1 36  1  0
  1 37  1  0
  1 38  1  0
  2 39  1  0
  2 40  1  0
  7 41  1  0
  8 42  1  0
  9 43  1  0
 10 44  1  0
 11 45  1  0
 12 46  1  0
 13 47  1  0
 13 48  1  0
 14 49  1  0
 14 50  1  0
 18 51  1  6
 19 52  1  0
 19 53  1  0
 20 54  1  1
 22 55  1  0
 23 56  1  0
 24 57  1  0
 25 58  1  0
 26 59  1  0
 28 60  1  0
 29 61  1  0
 30 62  1  0
 33 63  1  0
 34 64  1  0
 34 65  1  0
 35 66  1  0
 35 67  1  0
M  END
>  <smiles>  (18) 
CCC(=O)N(c1ccccc1)C1CCN(C(=O)[C@@H](N)C(c2ccccc2)c2cccc(F)c2)CC1

>  <score_type>  (18) 
oracle

>  <origin>  (18) 
autodockgpu

>  <m_score__min__energy>  (18) 
-8.0600000000000005

>  <m_primary>  (18) 
energy

>  <rmsd>  (18) 
6.387194936601765

>  <m_score__min__rmsd>  (18) 
6.387194936601765

>  <meeko>  (18) 
{"free_energy": -7.32, "intermolecular_energy": -10.0, "internal_energy": -2.9, "cluster_size": 14, "cluster_id": 2, "rank_in_cluster": 7}

>  <energy>  (18) 
-7.21

>  <cluster_rmsd>  (18) 
1.03

>  <cluster>  (18) 
2

$$$$

     RDKit          3D

 67 70  0  0  0  0  0  0  0  0999 V2000
  145.5680   74.1380  220.8210 C   0  0  0  0  0  0  0  0  0  0  0  0
  145.9740   72.6730  220.6870 C   0  0  0  0  0  0  0  0  0  0  0  0
  145.4570   72.1840  219.4050 C   0  0  0  0  0  0  0  0  0  0  0  0
  145.9540   72.6380  218.3300 O   0  0  0  0  0  0  0  0  0  0  0  0
  144.4180   71.2210  219.2720 N   0  0  0  0  0  0  0  0  0  0  0  0
  144.8020   69.8660  219.0720 C   0  0  0  0  0  0  0  0  0  0  0  0
  145.9190   69.5200  218.3150 C   0  0  0  0  0  0  0  0  0  0  0  0
  146.2700   68.1960  218.1370 C   0  0  0  0  0  0  0  0  0  0  0  0
  145.4860   67.2240  218.7260 C   0  0  0  0  0  0  0  0  0  0  0  0
  144.3710   67.5260  219.4810 C   0  0  0  0  0  0  0  0  0  0  0  0
  144.0330   68.8720  219.6510 C   0  0  0  0  0  0  0  0  0  0  0  0
  143.0450   71.6620  219.3460 C   0  0  0  0  0  0  0  0  0  0  0  0
  142.9800   73.0420  218.7810 C   0  0  0  0  0  0  0  0  0  0  0  0
  141.5440   73.5470  218.9390 C   0  0  0  0  0  0  0  0  0  0  0  0
  141.3480   73.7150  220.3640 N   0  0  0  0  0  0  0  0  0  0  0  0
  140.3620   74.4810  220.9870 C   0  0  0  0  0  0  0  0  0  0  0  0
  140.3600   74.5190  222.2790 O   0  0  0  0  0  0  0  0  0  0  0  0
  139.2900   75.2780  220.3550 C   0  0  1  0  0  0  0  0  0  0  0  0
  138.0160   75.1950  220.9010 N   0  0  0  0  0  0  0  0  0  0  0  0
  139.8540   76.6440  220.0870 C   0  0  2  0  0  0  0  0  0  0  0  0
  141.0230   76.7130  219.2130 C   0  0  0  0  0  0  0  0  0  0  0  0
  142.3390   76.6110  219.6770 C   0  0  0  0  0  0  0  0  0  0  0  0
  143.4240   76.6740  218.8320 C   0  0  0  0  0  0  0  0  0  0  0  0
  143.2680   76.8390  217.4850 C   0  0  0  0  0  0  0  0  0  0  0  0
  141.9930   76.9430  216.9920 C   0  0  0  0  0  0  0  0  0  0  0  0
  140.9220   76.8820  217.8240 C   0  0  0  0  0  0  0  0  0  0  0  0
  139.9140   77.5390  221.2680 C   0  0  0  0  0  0  0  0  0  0  0  0
  138.8430   78.3740  221.6110 C   0  0  0  0  0  0  0  0  0  0  0  0
  138.9240   79.1970  222.7150 C   0  0  0  0  0  0  0  0  0  0  0  0
  140.0250   79.2490  223.5220 C   0  0  0  0  0  0  0  0  0  0  0  0
  141.0910   78.4290  223.1970 C   0  0  0  0  0  0  0  0  0  0  0  0
  142.2020   78.4690  223.9960 F   0  0  0  0  0  0  0  0  0  0  0  0
  141.0100   77.6190  222.1090 C   0  0  0  0  0  0  0  0  0  0  0  0
  142.2960   72.9920  221.2130 C   0  0  0  0  0  0  0  0  0  0  0  0
  142.4430   71.5510  220.7010 C   0  0  0  0  0  0  0  0  0  0  0  0
  145.4948   74.4022  221.8863 H   0  0  0  0  0  0  0  0  0  0  0  0
  146.3238   74.7737  220.3367 H   0  0  0  0  0  0  0  0  0  0  0  0
  144.5928   74.2940  220.3367 H   0  0  0  0  0  0  0  0  0  0  0  0
  147.0702   72.5844  220.7075 H   0  0  0  0  0  0  0  0  0  0  0  0
  145.5645   72.0815  221.5191 H   0  0  0  0  0  0  0  0  0  0  0  0
  146.5288   70.3106  217.8535 H   0  0  0  0  0  0  0  0  0  0  0  0
  147.1528   67.9226  217.5404 H   0  0  0  0  0  0  0  0  0  0  0  0
  145.7608   66.1678  218.5881 H   0  0  0  0  0  0  0  0  0  0  0  0
  143.7646   66.7294  219.9367 H   0  0  0  0  0  0  0  0  0  0  0  0
  143.1501   69.1425  220.2488 H   0  0  0  0  0  0  0  0  0  0  0  0
  142.4196   70.9842  218.7465 H   0  0  0  0  0  0  0  0  0  0  0  0
  143.6706   73.7021  219.3263 H   0  0  0  0  0  0  0  0  0  0  0  0
  143.2698   73.0360  217.7199 H   0  0  0  0  0  0  0  0  0  0  0  0
  141.4143   74.5067  218.4172 H   0  0  0  0  0  0  0  0  0  0  0  0
  140.8148   72.8462  218.5064 H   0  0  0  0  0  0  0  0  0  0  0  0
  139.0161   74.8146  219.3957 H   0  0  0  0  0  0  0  0  0  0  0  0
  137.9020   74.8960  221.8750 H   0  0  0  0  0  0  0  0  0  0  0  0
  137.3280   75.8780  220.6140 H   0  0  0  0  0  0  0  0  0  0  0  0
  139.0695   77.0806  219.4515 H   0  0  0  0  0  0  0  0  0  0  0  0
  142.5128   76.4757  220.7547 H   0  0  0  0  0  0  0  0  0  0  0  0
  144.4379   76.5897  219.2503 H   0  0  0  0  0  0  0  0  0  0  0  0
  144.1396   76.8870  216.8157 H   0  0  0  0  0  0  0  0  0  0  0  0
  141.8362   77.0772  215.9115 H   0  0  0  0  0  0  0  0  0  0  0  0
  139.9177   76.9701  217.3839 H   0  0  0  0  0  0  0  0  0  0  0  0
  137.9311   78.3734  220.9958 H   0  0  0  0  0  0  0  0  0  0  0  0
  138.0644   79.8396  222.9561 H   0  0  0  0  0  0  0  0  0  0  0  0
  140.0626   79.9164  224.3956 H   0  0  0  0  0  0  0  0  0  0  0  0
  141.8770   76.9818  221.8806 H   0  0  0  0  0  0  0  0  0  0  0  0
  143.2741   73.4943  221.1814 H   0  0  0  0  0  0  0  0  0  0  0  0
  141.9254   72.9781  222.2486 H   0  0  0  0  0  0  0  0  0  0  0  0
  143.1013   70.9733  221.3665 H   0  0  0  0  0  0  0  0  0  0  0  0
  141.4742   71.0307  220.6723 H   0  0  0  0  0  0  0  0  0  0  0  0
  1  2  1  0
  2  3  1  0
  3  4  2  0
  3  5  1  0
  5  6  1  0
  6  7  2  0
  7  8  1  0
  8  9  2  0
  9 10  1  0
 10 11  2  0
  5 12  1  0
 12 13  1  0
 13 14  1  0
 14 15  1  0
 15 16  1  0
 16 17  2  0
 16 18  1  0
 18 19  1  0
 18 20  1  0
 20 21  1  0
 21 22  2  0
 22 23  1  0
 23 24  2  0
 24 25  1  0
 25 26  2  0
 20 27  1  0
 27 28  2  0
 28 29  1  0
 29 30  2  0
 30 31  1  0
 31 32  1  0
 31 33  2  0
 15 34  1  0
 34 35  1  0
 11  6  1  0
 35 12  1  0
 26 21  1  0
 33 27  1  0
  1 36  1  0
  1 37  1  0
  1 38  1  0
  2 39  1  0
  2 40  1  0
  7 41  1  0
  8 42  1  0
  9 43  1  0
 10 44  1  0
 11 45  1  0
 12 46  1  0
 13 47  1  0
 13 48  1  0
 14 49  1  0
 14 50  1  0
 18 51  1  6
 19 52  1  0
 19 53  1  0
 20 54  1  6
 22 55  1  0
 23 56  1  0
 24 57  1  0
 25 58  1  0
 26 59  1  0
 28 60  1  0
 29 61  1  0
 30 62  1  0
 33 63  1  0
 34 64  1  0
 34 65  1  0
 35 66  1  0
 35 67  1  0
M  END
>  <smiles>  (19) 
CCC(=O)N(c1ccccc1)C1CCN(C(=O)[C@@H](N)C(c2ccccc2)c2cccc(F)c2)CC1

>  <score_type>  (19) 
oracle

>  <origin>  (19) 
autodockgpu

>  <m_score__min__energy>  (19) 
-8.0600000000000005

>  <m_primary>  (19) 
energy

>  <rmsd>  (19) 
5.768823790568368

>  <m_score__min__rmsd>  (19) 
5.768823790568368

>  <meeko>  (19) 
{"free_energy": -6.78, "intermolecular_energy": -9.47, "internal_energy": -3.17, "cluster_size": 6, "cluster_id": 3, "rank_in_cluster": 6}

>  <energy>  (19) 
-7.21

>  <cluster_rmsd>  (19) 
0.44

>  <cluster>  (19) 
2

$$$$

     RDKit          3D

 67 70  0  0  0  0  0  0  0  0999 V2000
  142.4990   80.4490  218.4240 C   0  0  0  0  0  0  0  0  0  0  0  0
  141.6250   79.2110  218.2450 C   0  0  0  0  0  0  0  0  0  0  0  0
  142.0230   78.2350  219.2640 C   0  0  0  0  0  0  0  0  0  0  0  0
  143.0360   77.5030  219.0500 O   0  0  0  0  0  0  0  0  0  0  0  0
  141.3450   78.0400  220.5000 N   0  0  0  0  0  0  0  0  0  0  0  0
  141.4970   79.0450  221.4960 C   0  0  0  0  0  0  0  0  0  0  0  0
  142.5730   79.0490  222.3810 C   0  0  0  0  0  0  0  0  0  0  0  0
  142.6960   80.0360  223.3390 C   0  0  0  0  0  0  0  0  0  0  0  0
  141.7260   81.0170  223.3990 C   0  0  0  0  0  0  0  0  0  0  0  0
  140.6450   81.0470  222.5420 C   0  0  0  0  0  0  0  0  0  0  0  0
  140.5390   80.0400  221.5780 C   0  0  0  0  0  0  0  0  0  0  0  0
  140.5460   76.8500  220.6780 C   0  0  0  0  0  0  0  0  0  0  0  0
  140.3550   76.6470  222.1440 C   0  0  0  0  0  0  0  0  0  0  0  0
  139.5840   75.3390  222.3400 C   0  0  0  0  0  0  0  0  0  0  0  0
  140.4940   74.2900  221.9310 N   0  0  0  0  0  0  0  0  0  0  0  0
  140.4080   72.9360  222.2560 C   0  0  0  0  0  0  0  0  0  0  0  0
  141.3320   72.1510  221.8070 O   0  0  0  0  0  0  0  0  0  0  0  0
  139.3780   72.2550  223.0680 C   0  0  1  0  0  0  0  0  0  0  0  0
  138.0560   72.3680  222.6600 N   0  0  0  0  0  0  0  0  0  0  0  0
  139.9010   70.8850  223.3900 C   0  0  2  0  0  0  0  0  0  0  0  0
  139.2080   69.7550  222.7740 C   0  0  0  0  0  0  0  0  0  0  0  0
  139.6660   69.1050  221.6230 C   0  0  0  0  0  0  0  0  0  0  0  0
  138.9970   68.0390  221.0640 C   0  0  0  0  0  0  0  0  0  0  0  0
  137.8420   67.5580  221.6120 C   0  0  0  0  0  0  0  0  0  0  0  0
  137.3610   68.1700  222.7410 C   0  0  0  0  0  0  0  0  0  0  0  0
  138.0190   69.2210  223.2930 C   0  0  0  0  0  0  0  0  0  0  0  0
  140.2800   70.6750  224.8080 C   0  0  0  0  0  0  0  0  0  0  0  0
  140.7020   71.7370  225.6180 C   0  0  0  0  0  0  0  0  0  0  0  0
  141.0490   71.5170  226.9350 C   0  0  0  0  0  0  0  0  0  0  0  0
  141.0030   70.2810  227.5160 C   0  0  0  0  0  0  0  0  0  0  0  0
  140.5860   69.2220  226.7300 C   0  0  0  0  0  0  0  0  0  0  0  0
  140.5340   67.9780  227.2980 F   0  0  0  0  0  0  0  0  0  0  0  0
  140.2460   69.4410  225.4330 C   0  0  0  0  0  0  0  0  0  0  0  0
  141.6090   74.7250  221.0880 C   0  0  0  0  0  0  0  0  0  0  0  0
  141.0800   75.6500  219.9810 C   0  0  0  0  0  0  0  0  0  0  0  0
  142.6388   80.6471  219.4969 H   0  0  0  0  0  0  0  0  0  0  0  0
  143.4778   80.2782  217.9520 H   0  0  0  0  0  0  0  0  0  0  0  0
  142.0104   81.3142  217.9520 H   0  0  0  0  0  0  0  0  0  0  0  0
  140.5658   79.4779  218.3749 H   0  0  0  0  0  0  0  0  0  0  0  0
  141.7536   78.7904  217.2368 H   0  0  0  0  0  0  0  0  0  0  0  0
  143.3334   78.2568  222.3159 H   0  0  0  0  0  0  0  0  0  0  0  0
  143.5459   80.0406  224.0373 H   0  0  0  0  0  0  0  0  0  0  0  0
  141.8188   81.8057  224.1601 H   0  0  0  0  0  0  0  0  0  0  0  0
  139.8875   81.8413  222.6153 H   0  0  0  0  0  0  0  0  0  0  0  0
  139.6886   80.0387  220.8803 H   0  0  0  0  0  0  0  0  0  0  0  0
  139.5703   76.9983  220.1923 H   0  0  0  0  0  0  0  0  0  0  0  0
  141.3331   76.5830  222.6433 H   0  0  0  0  0  0  0  0  0  0  0  0
  139.7976   77.4898  222.5787 H   0  0  0  0  0  0  0  0  0  0  0  0
  139.3018   75.2134  223.3957 H   0  0  0  0  0  0  0  0  0  0  0  0
  138.6522   75.3224  221.7556 H   0  0  0  0  0  0  0  0  0  0  0  0
  139.2390   72.8086  224.0083 H   0  0  0  0  0  0  0  0  0  0  0  0
  137.5570   71.5370  222.3280 H   0  0  0  0  0  0  0  0  0  0  0  0
  137.4580   73.0170  223.1540 H   0  0  0  0  0  0  0  0  0  0  0  0
  140.8586   70.8887  222.8487 H   0  0  0  0  0  0  0  0  0  0  0  0
  140.5932   69.4578  221.1478 H   0  0  0  0  0  0  0  0  0  0  0  0
  139.4011   67.5650  220.1573 H   0  0  0  0  0  0  0  0  0  0  0  0
  137.3134   66.7051  221.1611 H   0  0  0  0  0  0  0  0  0  0  0  0
  136.4322   67.8054  223.2041 H   0  0  0  0  0  0  0  0  0  0  0  0
  137.5960   69.6801  224.1987 H   0  0  0  0  0  0  0  0  0  0  0  0
  140.7571   72.7535  225.2011 H   0  0  0  0  0  0  0  0  0  0  0  0
  141.3766   72.3729  227.5433 H   0  0  0  0  0  0  0  0  0  0  0  0
  141.2868   70.1339  228.5685 H   0  0  0  0  0  0  0  0  0  0  0  0
  139.9205   68.5755  224.8372 H   0  0  0  0  0  0  0  0  0  0  0  0
  142.3427   75.2687  221.7013 H   0  0  0  0  0  0  0  0  0  0  0  0
  142.0914   73.8468  220.6341 H   0  0  0  0  0  0  0  0  0  0  0  0
  141.8938   75.9342  219.2977 H   0  0  0  0  0  0  0  0  0  0  0  0
  140.3065   75.1556  219.3750 H   0  0  0  0  0  0  0  0  0  0  0  0
  1  2  1  0
  2  3  1  0
  3  4  2  0
  3  5  1  0
  5  6  1  0
  6  7  2  0
  7  8  1  0
  8  9  2  0
  9 10  1  0
 10 11  2  0
  5 12  1  0
 12 13  1  0
 13 14  1  0
 14 15  1  0
 15 16  1  0
 16 17  2  0
 16 18  1  0
 18 19  1  0
 18 20  1  0
 20 21  1  0
 21 22  2  0
 22 23  1  0
 23 24  2  0
 24 25  1  0
 25 26  2  0
 20 27  1  0
 27 28  2  0
 28 29  1  0
 29 30  2  0
 30 31  1  0
 31 32  1  0
 31 33  2  0
 15 34  1  0
 34 35  1  0
 11  6  1  0
 35 12  1  0
 26 21  1  0
 33 27  1  0
  1 36  1  0
  1 37  1  0
  1 38  1  0
  2 39  1  0
  2 40  1  0
  7 41  1  0
  8 42  1  0
  9 43  1  0
 10 44  1  0
 11 45  1  0
 12 46  1  0
 13 47  1  0
 13 48  1  0
 14 49  1  0
 14 50  1  0
 18 51  1  1
 19 52  1  0
 19 53  1  0
 20 54  1  6
 22 55  1  0
 23 56  1  0
 24 57  1  0
 25 58  1  0
 26 59  1  0
 28 60  1  0
 29 61  1  0
 30 62  1  0
 33 63  1  0
 34 64  1  0
 34 65  1  0
 35 66  1  0
 35 67  1  0
M  END
>  <smiles>  (20) 
CCC(=O)N(c1ccccc1)C1CCN(C(=O)[C@@H](N)C(c2ccccc2)c2cccc(F)c2)CC1

>  <score_type>  (20) 
oracle

>  <origin>  (20) 
autodockgpu

>  <m_score__min__energy>  (20) 
-8.0600000000000005

>  <m_primary>  (20) 
energy

>  <rmsd>  (20) 
8.793336735595515

>  <m_score__min__rmsd>  (20) 
8.793336735595515

>  <meeko>  (20) 
{"free_energy": -7.98, "intermolecular_energy": -10.66, "internal_energy": -2.22, "cluster_size": 7, "cluster_id": 1, "rank_in_cluster": 3}

>  <energy>  (20) 
-7.11

>  <cluster_rmsd>  (20) 
0.9

>  <cluster>  (20) 
2

$$$$

     RDKit          3D

 67 70  0  0  0  0  0  0  0  0999 V2000
  135.1360   69.9760  225.1680 C   0  0  0  0  0  0  0  0  0  0  0  0
  136.4750   69.2740  224.9560 C   0  0  0  0  0  0  0  0  0  0  0  0
  137.4530   70.2930  224.5620 C   0  0  0  0  0  0  0  0  0  0  0  0
  137.0390   71.4480  224.2390 O   0  0  0  0  0  0  0  0  0  0  0  0
  138.8590   70.0810  224.5110 N   0  0  0  0  0  0  0  0  0  0  0  0
  139.5060   69.6880  225.7150 C   0  0  0  0  0  0  0  0  0  0  0  0
  139.9930   70.6190  226.6290 C   0  0  0  0  0  0  0  0  0  0  0  0
  140.6190   70.2090  227.7900 C   0  0  0  0  0  0  0  0  0  0  0  0
  140.7510   68.8540  228.0220 C   0  0  0  0  0  0  0  0  0  0  0  0
  140.2830   67.9010  227.1410 C   0  0  0  0  0  0  0  0  0  0  0  0
  139.6520   68.3360  225.9720 C   0  0  0  0  0  0  0  0  0  0  0  0
  139.5480   70.2720  223.2560 C   0  0  0  0  0  0  0  0  0  0  0  0
  140.3670   71.5150  223.3730 C   0  0  0  0  0  0  0  0  0  0  0  0
  141.0290   71.7700  222.0170 C   0  0  0  0  0  0  0  0  0  0  0  0
  139.9480   72.1150  221.1180 N   0  0  0  0  0  0  0  0  0  0  0  0
  140.0580   72.7760  219.8940 C   0  0  0  0  0  0  0  0  0  0  0  0
  138.9680   73.0110  219.2390 O   0  0  0  0  0  0  0  0  0  0  0  0
  141.2840   73.2600  219.2240 C   0  0  1  0  0  0  0  0  0  0  0  0
  141.1420   73.8980  218.0000 N   0  0  0  0  0  0  0  0  0  0  0  0
  142.1260   73.9280  220.2730 C   0  0  2  0  0  0  0  0  0  0  0  0
  141.8750   75.3470  220.5130 C   0  0  0  0  0  0  0  0  0  0  0  0
  141.1210   75.8250  221.5910 C   0  0  0  0  0  0  0  0  0  0  0  0
  140.9030   77.1680  221.7980 C   0  0  0  0  0  0  0  0  0  0  0  0
  141.4170   78.1110  220.9530 C   0  0  0  0  0  0  0  0  0  0  0  0
  142.1620   77.6820  219.8850 C   0  0  0  0  0  0  0  0  0  0  0  0
  142.3780   76.3580  219.6790 C   0  0  0  0  0  0  0  0  0  0  0  0
  143.5610   73.5500  220.2580 C   0  0  0  0  0  0  0  0  0  0  0  0
  144.5400   74.3700  220.8350 C   0  0  0  0  0  0  0  0  0  0  0  0
  145.8670   73.9970  220.8080 C   0  0  0  0  0  0  0  0  0  0  0  0
  146.2990   72.8350  220.2330 C   0  0  0  0  0  0  0  0  0  0  0  0
  145.3450   72.0150  219.6600 C   0  0  0  0  0  0  0  0  0  0  0  0
  145.7610   70.8470  219.0800 F   0  0  0  0  0  0  0  0  0  0  0  0
  144.0370   72.3840  219.6870 C   0  0  0  0  0  0  0  0  0  0  0  0
  138.6130   71.7150  221.5650 C   0  0  0  0  0  0  0  0  0  0  0  0
  138.6580   70.2630  222.0660 C   0  0  0  0  0  0  0  0  0  0  0  0
  134.9420   70.0777  226.2460 H   0  0  0  0  0  0  0  0  0  0  0  0
  135.1677   70.9735  224.7054 H   0  0  0  0  0  0  0  0  0  0  0  0
  134.3336   69.3826  224.7054 H   0  0  0  0  0  0  0  0  0  0  0  0
  136.7954   68.7878  225.8892 H   0  0  0  0  0  0  0  0  0  0  0  0
  136.3871   68.5018  224.1775 H   0  0  0  0  0  0  0  0  0  0  0  0
  139.8778   71.6936  226.4240 H   0  0  0  0  0  0  0  0  0  0  0  0
  141.0032   70.9441  228.5125 H   0  0  0  0  0  0  0  0  0  0  0  0
  141.2486   68.5217  228.9450 H   0  0  0  0  0  0  0  0  0  0  0  0
  140.4031   66.8283  227.3527 H   0  0  0  0  0  0  0  0  0  0  0  0
  139.2688   67.5986  225.2513 H   0  0  0  0  0  0  0  0  0  0  0  0
  140.2043   69.4082  223.0738 H   0  0  0  0  0  0  0  0  0  0  0  0
  139.7212   72.3646  223.6395 H   0  0  0  0  0  0  0  0  0  0  0  0
  141.1301   71.3993  224.1568 H   0  0  0  0  0  0  0  0  0  0  0  0
  141.7479   72.5994  222.0900 H   0  0  0  0  0  0  0  0  0  0  0  0
  141.5886   70.8911  221.6642 H   0  0  0  0  0  0  0  0  0  0  0  0
  141.8374   72.3986  218.8219 H   0  0  0  0  0  0  0  0  0  0  0  0
  140.2040   74.0420  217.6110 H   0  0  0  0  0  0  0  0  0  0  0  0
  141.7830   74.6470  217.7750 H   0  0  0  0  0  0  0  0  0  0  0  0
  141.7304   73.4694  221.1912 H   0  0  0  0  0  0  0  0  0  0  0  0
  140.6875   75.1019  222.2975 H   0  0  0  0  0  0  0  0  0  0  0  0
  140.3024   77.4891  222.6618 H   0  0  0  0  0  0  0  0  0  0  0  0
  141.2383   79.1827  221.1247 H   0  0  0  0  0  0  0  0  0  0  0  0
  142.5889   78.4182  219.1881 H   0  0  0  0  0  0  0  0  0  0  0  0
  142.9816   76.0602  218.8090 H   0  0  0  0  0  0  0  0  0  0  0  0
  144.2479   75.3170  221.3124 H   0  0  0  0  0  0  0  0  0  0  0  0
  146.6104   74.6637  221.2694 H   0  0  0  0  0  0  0  0  0  0  0  0
  147.3647   72.5627  220.2264 H   0  0  0  0  0  0  0  0  0  0  0  0
  143.3054   71.7071  219.2217 H   0  0  0  0  0  0  0  0  0  0  0  0
  138.2860   72.3753  222.3817 H   0  0  0  0  0  0  0  0  0  0  0  0
  137.9053   71.7933  220.7266 H   0  0  0  0  0  0  0  0  0  0  0  0
  137.6498   69.9226  222.3445 H   0  0  0  0  0  0  0  0  0  0  0  0
  139.0284   69.5782  221.2889 H   0  0  0  0  0  0  0  0  0  0  0  0
  1  2  1  0
  2  3  1  0
  3  4  2  0
  3  5  1  0
  5  6  1  0
  6  7  2  0
  7  8  1  0
  8  9  2  0
  9 10  1  0
 10 11  2  0
  5 12  1  0
 12 13  1  0
 13 14  1  0
 14 15  1  0
 15 16  1  0
 16 17  2  0
 16 18  1  0
 18 19  1  0
 18 20  1  0
 20 21  1  0
 21 22  2  0
 22 23  1  0
 23 24  2  0
 24 25  1  0
 25 26  2  0
 20 27  1  0
 27 28  2  0
 28 29  1  0
 29 30  2  0
 30 31  1  0
 31 32  1  0
 31 33  2  0
 15 34  1  0
 34 35  1  0
 11  6  1  0
 35 12  1  0
 26 21  1  0
 33 27  1  0
  1 36  1  0
  1 37  1  0
  1 38  1  0
  2 39  1  0
  2 40  1  0
  7 41  1  0
  8 42  1  0
  9 43  1  0
 10 44  1  0
 11 45  1  0
 12 46  1  0
 13 47  1  0
 13 48  1  0
 14 49  1  0
 14 50  1  0
 18 51  1  6
 19 52  1  0
 19 53  1  0
 20 54  1  1
 22 55  1  0
 23 56  1  0
 24 57  1  0
 25 58  1  0
 26 59  1  0
 28 60  1  0
 29 61  1  0
 30 62  1  0
 33 63  1  0
 34 64  1  0
 34 65  1  0
 35 66  1  0
 35 67  1  0
M  END
>  <smiles>  (21) 
CCC(=O)N(c1ccccc1)C1CCN(C(=O)[C@@H](N)C(c2ccccc2)c2cccc(F)c2)CC1

>  <score_type>  (21) 
oracle

>  <origin>  (21) 
autodockgpu

>  <m_score__min__energy>  (21) 
-8.0600000000000005

>  <m_primary>  (21) 
energy

>  <rmsd>  (21) 
6.610428519525651

>  <m_score__min__rmsd>  (21) 
6.610428519525651

>  <meeko>  (21) 
{"free_energy": -7.36, "intermolecular_energy": -10.05, "internal_energy": -2.88, "cluster_size": 14, "cluster_id": 2, "rank_in_cluster": 4}

>  <energy>  (21) 
-7.05

>  <cluster_rmsd>  (21) 
0.88

>  <cluster>  (21) 
2

$$$$

     RDKit          3D

 67 70  0  0  0  0  0  0  0  0999 V2000
  135.2260   69.9440  225.3070 C   0  0  0  0  0  0  0  0  0  0  0  0
  136.4740   69.2580  224.7570 C   0  0  0  0  0  0  0  0  0  0  0  0
  137.4510   70.3020  224.4370 C   0  0  0  0  0  0  0  0  0  0  0  0
  137.0390   71.4810  224.2160 O   0  0  0  0  0  0  0  0  0  0  0  0
  138.8560   70.0900  224.3510 N   0  0  0  0  0  0  0  0  0  0  0  0
  139.5230   69.6410  225.5230 C   0  0  0  0  0  0  0  0  0  0  0  0
  140.0870   70.5280  226.4370 C   0  0  0  0  0  0  0  0  0  0  0  0
  140.7310   70.0640  227.5680 C   0  0  0  0  0  0  0  0  0  0  0  0
  140.8030   68.7000  227.7700 C   0  0  0  0  0  0  0  0  0  0  0  0
  140.2590   67.7890  226.8870 C   0  0  0  0  0  0  0  0  0  0  0  0
  139.6100   68.2780  225.7500 C   0  0  0  0  0  0  0  0  0  0  0  0
  139.5220   70.3370  223.0940 C   0  0  0  0  0  0  0  0  0  0  0  0
  140.3670   71.5570  223.2610 C   0  0  0  0  0  0  0  0  0  0  0  0
  141.0060   71.8730  221.9060 C   0  0  0  0  0  0  0  0  0  0  0  0
  139.9140   72.2870  221.0510 N   0  0  0  0  0  0  0  0  0  0  0  0
  140.0120   73.0130  219.8630 C   0  0  0  0  0  0  0  0  0  0  0  0
  138.9140   73.3030  219.2450 O   0  0  0  0  0  0  0  0  0  0  0  0
  141.2330   73.5100  219.1950 C   0  0  1  0  0  0  0  0  0  0  0  0
  141.0760   74.2420  218.0260 N   0  0  0  0  0  0  0  0  0  0  0  0
  142.1240   74.0730  220.2650 C   0  0  2  0  0  0  0  0  0  0  0  0
  141.8100   75.4180  220.7410 C   0  0  0  0  0  0  0  0  0  0  0  0
  141.0610   75.6720  221.8950 C   0  0  0  0  0  0  0  0  0  0  0  0
  140.7830   76.9500  222.3260 C   0  0  0  0  0  0  0  0  0  0  0  0
  141.2310   78.0440  221.6420 C   0  0  0  0  0  0  0  0  0  0  0  0
  141.9690   77.8360  220.5060 C   0  0  0  0  0  0  0  0  0  0  0  0
  142.2440   76.5770  220.0790 C   0  0  0  0  0  0  0  0  0  0  0  0
  143.5720   73.8080  220.0780 C   0  0  0  0  0  0  0  0  0  0  0  0
  144.1190   73.5970  218.8050 C   0  0  0  0  0  0  0  0  0  0  0  0
  145.4690   73.3530  218.6580 C   0  0  0  0  0  0  0  0  0  0  0  0
  146.3330   73.3020  219.7150 C   0  0  0  0  0  0  0  0  0  0  0  0
  145.8080   73.5090  220.9780 C   0  0  0  0  0  0  0  0  0  0  0  0
  146.6600   73.4620  222.0470 F   0  0  0  0  0  0  0  0  0  0  0  0
  144.4780   73.7490  221.1210 C   0  0  0  0  0  0  0  0  0  0  0  0
  138.5810   71.8880  221.5040 C   0  0  0  0  0  0  0  0  0  0  0  0
  138.6080   70.4090  221.9240 C   0  0  0  0  0  0  0  0  0  0  0  0
  135.2537   69.9288  226.4066 H   0  0  0  0  0  0  0  0  0  0  0  0
  135.1952   70.9858  224.9554 H   0  0  0  0  0  0  0  0  0  0  0  0
  134.3299   69.4117  224.9554 H   0  0  0  0  0  0  0  0  0  0  0  0
  136.8896   68.5746  225.5122 H   0  0  0  0  0  0  0  0  0  0  0  0
  136.2279   68.6721  223.8592 H   0  0  0  0  0  0  0  0  0  0  0  0
  140.0189   71.6109  226.2562 H   0  0  0  0  0  0  0  0  0  0  0  0
  141.1757   70.7645  228.2902 H   0  0  0  0  0  0  0  0  0  0  0  0
  141.3135   68.3248  228.6692 H   0  0  0  0  0  0  0  0  0  0  0  0
  140.3343   66.7075  227.0732 H   0  0  0  0  0  0  0  0  0  0  0  0
  139.1651   67.5750  225.0303 H   0  0  0  0  0  0  0  0  0  0  0  0
  140.1574   69.4726  222.8508 H   0  0  0  0  0  0  0  0  0  0  0  0
  139.7433   72.4024  223.5868 H   0  0  0  0  0  0  0  0  0  0  0  0
  141.1433   71.3855  224.0212 H   0  0  0  0  0  0  0  0  0  0  0  0
  141.7429   72.6833  222.0080 H   0  0  0  0  0  0  0  0  0  0  0  0
  141.5402   71.0042  221.4940 H   0  0  0  0  0  0  0  0  0  0  0  0
  141.7492   72.6659  218.7142 H   0  0  0  0  0  0  0  0  0  0  0  0
  140.1360   74.4010  217.6510 H   0  0  0  0  0  0  0  0  0  0  0  0
  141.7040   75.0180  217.8610 H   0  0  0  0  0  0  0  0  0  0  0  0
  141.8414   73.4539  221.1292 H   0  0  0  0  0  0  0  0  0  0  0  0
  140.6807   74.8207  222.4787 H   0  0  0  0  0  0  0  0  0  0  0  0
  140.1879   77.0927  223.2400 H   0  0  0  0  0  0  0  0  0  0  0  0
  141.0061   79.0621  221.9926 H   0  0  0  0  0  0  0  0  0  0  0  0
  142.3424   78.6983  219.9342 H   0  0  0  0  0  0  0  0  0  0  0  0
  142.8406   76.4586  219.1625 H   0  0  0  0  0  0  0  0  0  0  0  0
  143.4686   73.6261  217.9184 H   0  0  0  0  0  0  0  0  0  0  0  0
  145.8671   73.1925  217.6452 H   0  0  0  0  0  0  0  0  0  0  0  0
  147.4049   73.1040  219.5674 H   0  0  0  0  0  0  0  0  0  0  0  0
  144.0946   73.9077  222.1397 H   0  0  0  0  0  0  0  0  0  0  0  0
  138.2838   72.5083  222.3624 H   0  0  0  0  0  0  0  0  0  0  0  0
  137.8578   72.0256  220.6867 H   0  0  0  0  0  0  0  0  0  0  0  0
  137.5992   70.0720  222.2047 H   0  0  0  0  0  0  0  0  0  0  0  0
  138.9493   69.7611  221.1031 H   0  0  0  0  0  0  0  0  0  0  0  0
  1  2  1  0
  2  3  1  0
  3  4  2  0
  3  5  1  0
  5  6  1  0
  6  7  2  0
  7  8  1  0
  8  9  2  0
  9 10  1  0
 10 11  2  0
  5 12  1  0
 12 13  1  0
 13 14  1  0
 14 15  1  0
 15 16  1  0
 16 17  2  0
 16 18  1  0
 18 19  1  0
 18 20  1  0
 20 21  1  0
 21 22  2  0
 22 23  1  0
 23 24  2  0
 24 25  1  0
 25 26  2  0
 20 27  1  0
 27 28  2  0
 28 29  1  0
 29 30  2  0
 30 31  1  0
 31 32  1  0
 31 33  2  0
 15 34  1  0
 34 35  1  0
 11  6  1  0
 35 12  1  0
 26 21  1  0
 33 27  1  0
  1 36  1  0
  1 37  1  0
  1 38  1  0
  2 39  1  0
  2 40  1  0
  7 41  1  0
  8 42  1  0
  9 43  1  0
 10 44  1  0
 11 45  1  0
 12 46  1  0
 13 47  1  0
 13 48  1  0
 14 49  1  0
 14 50  1  0
 18 51  1  6
 19 52  1  0
 19 53  1  0
 20 54  1  1
 22 55  1  0
 23 56  1  0
 24 57  1  0
 25 58  1  0
 26 59  1  0
 28 60  1  0
 29 61  1  0
 30 62  1  0
 33 63  1  0
 34 64  1  0
 34 65  1  0
 35 66  1  0
 35 67  1  0
M  END
>  <smiles>  (22) 
CCC(=O)N(c1ccccc1)C1CCN(C(=O)[C@@H](N)C(c2ccccc2)c2cccc(F)c2)CC1

>  <score_type>  (22) 
oracle

>  <origin>  (22) 
autodockgpu

>  <m_score__min__energy>  (22) 
-8.0600000000000005

>  <m_primary>  (22) 
energy

>  <rmsd>  (22) 
6.571220410230349

>  <m_score__min__rmsd>  (22) 
6.571220410230349

>  <meeko>  (22) 
{"free_energy": -7.25, "intermolecular_energy": -9.93, "internal_energy": -2.94, "cluster_size": 14, "cluster_id": 2, "rank_in_cluster": 8}

>  <energy>  (22) 
-7.43

>  <cluster_rmsd>  (22) 
0.0

>  <cluster>  (22) 
3

$$$$

     RDKit          3D

 67 70  0  0  0  0  0  0  0  0999 V2000
  138.4470   82.8780  221.2750 C   0  0  0  0  0  0  0  0  0  0  0  0
  137.7040   83.7590  222.2760 C   0  0  0  0  0  0  0  0  0  0  0  0
  136.6500   82.9440  222.8880 C   0  0  0  0  0  0  0  0  0  0  0  0
  135.5590   82.7820  222.2630 O   0  0  0  0  0  0  0  0  0  0  0  0
  136.7600   82.3090  224.1570 N   0  0  0  0  0  0  0  0  0  0  0  0
  136.4510   83.0860  225.3080 C   0  0  0  0  0  0  0  0  0  0  0  0
  136.4670   84.4790  225.2830 C   0  0  0  0  0  0  0  0  0  0  0  0
  136.1640   85.2090  226.4150 C   0  0  0  0  0  0  0  0  0  0  0  0
  135.8460   84.5260  227.5720 C   0  0  0  0  0  0  0  0  0  0  0  0
  135.8200   83.1480  227.6370 C   0  0  0  0  0  0  0  0  0  0  0  0
  136.1290   82.4260  226.4800 C   0  0  0  0  0  0  0  0  0  0  0  0
  137.1700   80.9260  224.2110 C   0  0  0  0  0  0  0  0  0  0  0  0
  138.6370   80.8770  223.9360 C   0  0  0  0  0  0  0  0  0  0  0  0
  139.0600   79.4060  223.9040 C   0  0  0  0  0  0  0  0  0  0  0  0
  138.4360   78.8500  222.7210 N   0  0  0  0  0  0  0  0  0  0  0  0
  138.7970   77.6760  222.0600 C   0  0  0  0  0  0  0  0  0  0  0  0
  138.1260   77.3510  221.0040 O   0  0  0  0  0  0  0  0  0  0  0  0
  139.8730   76.7240  222.4110 C   0  0  1  0  0  0  0  0  0  0  0  0
  139.6230   75.3710  222.2280 N   0  0  0  0  0  0  0  0  0  0  0  0
  141.1550   77.2840  221.8640 C   0  0  2  0  0  0  0  0  0  0  0  0
  141.5070   78.6420  222.2740 C   0  0  0  0  0  0  0  0  0  0  0  0
  142.1200   78.9440  223.4950 C   0  0  0  0  0  0  0  0  0  0  0  0
  142.4470   80.2320  223.8560 C   0  0  0  0  0  0  0  0  0  0  0  0
  142.1860   81.2890  223.0310 C   0  0  0  0  0  0  0  0  0  0  0  0
  141.5850   81.0330  221.8260 C   0  0  0  0  0  0  0  0  0  0  0  0
  141.2620   79.7650  221.4680 C   0  0  0  0  0  0  0  0  0  0  0  0
  141.4070   76.9880  220.4320 C   0  0  0  0  0  0  0  0  0  0  0  0
  142.5410   76.2770  220.0200 C   0  0  0  0  0  0  0  0  0  0  0  0
  142.7530   76.0140  218.6830 C   0  0  0  0  0  0  0  0  0  0  0  0
  141.8920   76.4200  217.7030 C   0  0  0  0  0  0  0  0  0  0  0  0
  140.7670   77.1230  218.0940 C   0  0  0  0  0  0  0  0  0  0  0  0
  139.8940   77.5360  217.1230 F   0  0  0  0  0  0  0  0  0  0  0  0
  140.5600   77.3820  219.4120 C   0  0  0  0  0  0  0  0  0  0  0  0
  137.3130   79.6210  222.1880 C   0  0  0  0  0  0  0  0  0  0  0  0
  136.3760   80.0210  223.3390 C   0  0  0  0  0  0  0  0  0  0  0  0
  139.0639   82.1465  221.8175 H   0  0  0  0  0  0  0  0  0  0  0  0
  137.7197   82.3473  220.6431 H   0  0  0  0  0  0  0  0  0  0  0  0
  139.0928   83.5054  220.6431 H   0  0  0  0  0  0  0  0  0  0  0  0
  138.3994   84.1156  223.0501 H   0  0  0  0  0  0  0  0  0  0  0  0
  137.2706   84.6353  221.7718 H   0  0  0  0  0  0  0  0  0  0  0  0
  136.7240   85.0031  224.3507 H   0  0  0  0  0  0  0  0  0  0  0  0
  136.1757   86.3088  226.3956 H   0  0  0  0  0  0  0  0  0  0  0  0
  135.6040   85.1027  228.4769 H   0  0  0  0  0  0  0  0  0  0  0  0
  135.5632   82.6314  228.5736 H   0  0  0  0  0  0  0  0  0  0  0  0
  136.1159   81.3263  226.5021 H   0  0  0  0  0  0  0  0  0  0  0  0
  136.9655   80.5319  225.2174 H   0  0  0  0  0  0  0  0  0  0  0  0
  138.8515   81.3489  222.9658 H   0  0  0  0  0  0  0  0  0  0  0  0
  139.1918   81.4187  224.7163 H   0  0  0  0  0  0  0  0  0  0  0  0
  140.1547   79.3221  223.8368 H   0  0  0  0  0  0  0  0  0  0  0  0
  138.7533   78.8731  224.8161 H   0  0  0  0  0  0  0  0  0  0  0  0
  139.9539   76.6617  223.5062 H   0  0  0  0  0  0  0  0  0  0  0  0
  139.5270   74.7600  223.0460 H   0  0  0  0  0  0  0  0  0  0  0  0
  139.0310   75.0950  221.4560 H   0  0  0  0  0  0  0  0  0  0  0  0
  141.9012   76.6826  222.4039 H   0  0  0  0  0  0  0  0  0  0  0  0
  142.3488   78.1236  224.1911 H   0  0  0  0  0  0  0  0  0  0  0  0
  142.9282   80.4134  224.8284 H   0  0  0  0  0  0  0  0  0  0  0  0
  142.4504   82.3155  223.3251 H   0  0  0  0  0  0  0  0  0  0  0  0
  141.3622   81.8649  221.1417 H   0  0  0  0  0  0  0  0  0  0  0  0
  140.7811   79.6079  220.4913 H   0  0  0  0  0  0  0  0  0  0  0  0
  143.2674   75.9260  220.7678 H   0  0  0  0  0  0  0  0  0  0  0  0
  143.6539   75.4533  218.3931 H   0  0  0  0  0  0  0  0  0  0  0  0
  142.0861   76.1963  216.6436 H   0  0  0  0  0  0  0  0  0  0  0  0
  139.6555   77.9444  219.6868 H   0  0  0  0  0  0  0  0  0  0  0  0
  137.6922   80.5266  221.6919 H   0  0  0  0  0  0  0  0  0  0  0  0
  136.7601   79.0093  221.4599 H   0  0  0  0  0  0  0  0  0  0  0  0
  135.4910   80.5446  222.9483 H   0  0  0  0  0  0  0  0  0  0  0  0
  136.0141   79.1411  223.8911 H   0  0  0  0  0  0  0  0  0  0  0  0
  1  2  1  0
  2  3  1  0
  3  4  2  0
  3  5  1  0
  5  6  1  0
  6  7  2  0
  7  8  1  0
  8  9  2  0
  9 10  1  0
 10 11  2  0
  5 12  1  0
 12 13  1  0
 13 14  1  0
 14 15  1  0
 15 16  1  0
 16 17  2  0
 16 18  1  0
 18 19  1  0
 18 20  1  0
 20 21  1  0
 21 22  2  0
 22 23  1  0
 23 24  2  0
 24 25  1  0
 25 26  2  0
 20 27  1  0
 27 28  2  0
 28 29  1  0
 29 30  2  0
 30 31  1  0
 31 32  1  0
 31 33  2  0
 15 34  1  0
 34 35  1  0
 11  6  1  0
 35 12  1  0
 26 21  1  0
 33 27  1  0
  1 36  1  0
  1 37  1  0
  1 38  1  0
  2 39  1  0
  2 40  1  0
  7 41  1  0
  8 42  1  0
  9 43  1  0
 10 44  1  0
 11 45  1  0
 12 46  1  0
 13 47  1  0
 13 48  1  0
 14 49  1  0
 14 50  1  0
 18 51  1  1
 19 52  1  0
 19 53  1  0
 20 54  1  1
 22 55  1  0
 23 56  1  0
 24 57  1  0
 25 58  1  0
 26 59  1  0
 28 60  1  0
 29 61  1  0
 30 62  1  0
 33 63  1  0
 34 64  1  0
 34 65  1  0
 35 66  1  0
 35 67  1  0
M  END
>  <smiles>  (23) 
CCC(=O)N(c1ccccc1)C1CCN(C(=O)[C@@H](N)C(c2ccccc2)c2cccc(F)c2)CC1

>  <score_type>  (23) 
oracle

>  <origin>  (23) 
autodockgpu

>  <m_score__min__energy>  (23) 
-8.0600000000000005

>  <m_primary>  (23) 
energy

>  <rmsd>  (23) 
5.868240894780616

>  <m_score__min__rmsd>  (23) 
5.868240894780616

>  <meeko>  (23) 
{"free_energy": -6.71, "intermolecular_energy": -9.4, "internal_energy": -3.23, "cluster_size": 4, "cluster_id": 5, "rank_in_cluster": 2}

>  <energy>  (23) 
-7.36

>  <cluster_rmsd>  (23) 
0.46

>  <cluster>  (23) 
3

$$$$

     RDKit          3D

 67 70  0  0  0  0  0  0  0  0999 V2000
  142.5890   80.1010  218.2720 C   0  0  0  0  0  0  0  0  0  0  0  0
  141.9370   78.7370  218.0580 C   0  0  0  0  0  0  0  0  0  0  0  0
  142.2380   77.9120  219.2310 C   0  0  0  0  0  0  0  0  0  0  0  0
  143.2740   77.1810  219.2180 O   0  0  0  0  0  0  0  0  0  0  0  0
  141.4390   77.8660  220.4080 N   0  0  0  0  0  0  0  0  0  0  0  0
  141.5310   78.9660  221.3060 C   0  0  0  0  0  0  0  0  0  0  0  0
  142.4890   79.0160  222.3150 C   0  0  0  0  0  0  0  0  0  0  0  0
  142.5560   80.0960  223.1740 C   0  0  0  0  0  0  0  0  0  0  0  0
  141.6480   81.1230  223.0080 C   0  0  0  0  0  0  0  0  0  0  0  0
  140.6840   81.1100  222.0220 C   0  0  0  0  0  0  0  0  0  0  0  0
  140.6330   80.0090  221.1620 C   0  0  0  0  0  0  0  0  0  0  0  0
  140.5860   76.7220  220.6270 C   0  0  0  0  0  0  0  0  0  0  0  0
  140.4720   76.5170  222.1010 C   0  0  0  0  0  0  0  0  0  0  0  0
  139.6410   75.2530  222.3360 C   0  0  0  0  0  0  0  0  0  0  0  0
  140.4640   74.1570  221.8660 N   0  0  0  0  0  0  0  0  0  0  0  0
  140.3200   72.8070  222.1890 C   0  0  0  0  0  0  0  0  0  0  0  0
  141.1690   71.9750  221.6790 O   0  0  0  0  0  0  0  0  0  0  0  0
  139.3030   72.1790  223.0590 C   0  0  1  0  0  0  0  0  0  0  0  0
  137.9700   72.3160  222.6960 N   0  0  0  0  0  0  0  0  0  0  0  0
  139.8030   70.8040  223.4010 C   0  0  2  0  0  0  0  0  0  0  0  0
  139.0720   69.6770  222.8270 C   0  0  0  0  0  0  0  0  0  0  0  0
  137.8220   69.2530  223.2900 C   0  0  0  0  0  0  0  0  0  0  0  0
  137.1500   68.1910  222.7270 C   0  0  0  0  0  0  0  0  0  0  0  0
  137.6760   67.4910  221.6780 C   0  0  0  0  0  0  0  0  0  0  0  0
  138.9010   67.8770  221.1960 C   0  0  0  0  0  0  0  0  0  0  0  0
  139.5640   68.9240  221.7500 C   0  0  0  0  0  0  0  0  0  0  0  0
  140.2060   70.6190  224.8170 C   0  0  0  0  0  0  0  0  0  0  0  0
  140.1430   69.3650  225.4380 C   0  0  0  0  0  0  0  0  0  0  0  0
  140.5240   69.2190  226.7560 C   0  0  0  0  0  0  0  0  0  0  0  0
  140.9750   70.2610  227.5170 C   0  0  0  0  0  0  0  0  0  0  0  0
  141.0440   71.5050  226.9170 C   0  0  0  0  0  0  0  0  0  0  0  0
  141.4930   72.5590  227.6660 F   0  0  0  0  0  0  0  0  0  0  0  0
  140.6670   71.6480  225.6190 C   0  0  0  0  0  0  0  0  0  0  0  0
  141.5480   74.5360  220.9600 C   0  0  0  0  0  0  0  0  0  0  0  0
  141.0060   75.5000  219.8920 C   0  0  0  0  0  0  0  0  0  0  0  0
  142.6829   80.2974  219.3502 H   0  0  0  0  0  0  0  0  0  0  0  0
  143.5872   80.1068  217.8100 H   0  0  0  0  0  0  0  0  0  0  0  0
  141.9666   80.8815  217.8100 H   0  0  0  0  0  0  0  0  0  0  0  0
  140.8485   78.8544  217.9515 H   0  0  0  0  0  0  0  0  0  0  0  0
  142.3240   78.2635  217.1436 H   0  0  0  0  0  0  0  0  0  0  0  0
  143.2012   78.1856  222.4297 H   0  0  0  0  0  0  0  0  0  0  0  0
  143.3138   80.1368  223.9703 H   0  0  0  0  0  0  0  0  0  0  0  0
  141.6955   81.9855  223.6891 H   0  0  0  0  0  0  0  0  0  0  0  0
  139.9742   81.9436  221.9150 H   0  0  0  0  0  0  0  0  0  0  0  0
  139.8746   79.9715  220.3662 H   0  0  0  0  0  0  0  0  0  0  0  0
  139.5931   76.9300  220.2016 H   0  0  0  0  0  0  0  0  0  0  0  0
  141.4730   76.3934  222.5399 H   0  0  0  0  0  0  0  0  0  0  0  0
  139.9905   77.3860  222.5732 H   0  0  0  0  0  0  0  0  0  0  0  0
  139.4163   75.1338  223.4062 H   0  0  0  0  0  0  0  0  0  0  0  0
  138.6762   75.2945  221.8092 H   0  0  0  0  0  0  0  0  0  0  0  0
  139.2127   72.7629  223.9869 H   0  0  0  0  0  0  0  0  0  0  0  0
  137.5240   71.5890  222.1270 H   0  0  0  0  0  0  0  0  0  0  0  0
  137.3370   72.7430  223.3580 H   0  0  0  0  0  0  0  0  0  0  0  0
  140.7482   70.7721  222.8393 H   0  0  0  0  0  0  0  0  0  0  0  0
  137.3596   69.7866  224.1334 H   0  0  0  0  0  0  0  0  0  0  0  0
  136.1689   67.9000  223.1304 H   0  0  0  0  0  0  0  0  0  0  0  0
  137.1336   66.6436  221.2334 H   0  0  0  0  0  0  0  0  0  0  0  0
  139.3504   67.3327  220.3523 H   0  0  0  0  0  0  0  0  0  0  0  0
  140.5433   69.1979  221.3305 H   0  0  0  0  0  0  0  0  0  0  0  0
  139.7877   68.4916  224.8716 H   0  0  0  0  0  0  0  0  0  0  0  0
  140.4621   68.2209  227.2142 H   0  0  0  0  0  0  0  0  0  0  0  0
  141.2716   70.1156  228.5662 H   0  0  0  0  0  0  0  0  0  0  0  0
  140.7330   72.6522  225.1749 H   0  0  0  0  0  0  0  0  0  0  0  0
  142.3470   75.0319  221.5307 H   0  0  0  0  0  0  0  0  0  0  0  0
  141.9516   73.6363  220.4726 H   0  0  0  0  0  0  0  0  0  0  0  0
  141.7914   75.7432  219.1612 H   0  0  0  0  0  0  0  0  0  0  0  0
  140.1696   75.0561  219.3322 H   0  0  0  0  0  0  0  0  0  0  0  0
  1  2  1  0
  2  3  1  0
  3  4  2  0
  3  5  1  0
  5  6  1  0
  6  7  2  0
  7  8  1  0
  8  9  2  0
  9 10  1  0
 10 11  2  0
  5 12  1  0
 12 13  1  0
 13 14  1  0
 14 15  1  0
 15 16  1  0
 16 17  2  0
 16 18  1  0
 18 19  1  0
 18 20  1  0
 20 21  1  0
 21 22  2  0
 22 23  1  0
 23 24  2  0
 24 25  1  0
 25 26  2  0
 20 27  1  0
 27 28  2  0
 28 29  1  0
 29 30  2  0
 30 31  1  0
 31 32  1  0
 31 33  2  0
 15 34  1  0
 34 35  1  0
 11  6  1  0
 35 12  1  0
 26 21  1  0
 33 27  1  0
  1 36  1  0
  1 37  1  0
  1 38  1  0
  2 39  1  0
  2 40  1  0
  7 41  1  0
  8 42  1  0
  9 43  1  0
 10 44  1  0
 11 45  1  0
 12 46  1  0
 13 47  1  0
 13 48  1  0
 14 49  1  0
 14 50  1  0
 18 51  1  1
 19 52  1  0
 19 53  1  0
 20 54  1  6
 22 55  1  0
 23 56  1  0
 24 57  1  0
 25 58  1  0
 26 59  1  0
 28 60  1  0
 29 61  1  0
 30 62  1  0
 33 63  1  0
 34 64  1  0
 34 65  1  0
 35 66  1  0
 35 67  1  0
M  END
>  <smiles>  (24) 
CCC(=O)N(c1ccccc1)C1CCN(C(=O)[C@@H](N)C(c2ccccc2)c2cccc(F)c2)CC1

>  <score_type>  (24) 
oracle

>  <origin>  (24) 
autodockgpu

>  <m_score__min__energy>  (24) 
-8.0600000000000005

>  <m_primary>  (24) 
energy

>  <rmsd>  (24) 
8.921316945559884

>  <m_score__min__rmsd>  (24) 
8.921316945559884

>  <meeko>  (24) 
{"free_energy": -7.97, "intermolecular_energy": -10.65, "internal_energy": -2.24, "cluster_size": 7, "cluster_id": 1, "rank_in_cluster": 4}

>  <energy>  (24) 
-7.35

>  <cluster_rmsd>  (24) 
0.32

>  <cluster>  (24) 
3

$$$$

     RDKit          3D

 67 70  0  0  0  0  0  0  0  0999 V2000
  146.2630   70.3760  215.8880 C   0  0  0  0  0  0  0  0  0  0  0  0
  145.3410   71.5440  216.2270 C   0  0  0  0  0  0  0  0  0  0  0  0
  145.1470   71.5500  217.6800 C   0  0  0  0  0  0  0  0  0  0  0  0
  145.9280   72.2430  218.4000 O   0  0  0  0  0  0  0  0  0  0  0  0
  144.1300   70.8220  218.3590 N   0  0  0  0  0  0  0  0  0  0  0  0
  144.4040   69.4650  218.6880 C   0  0  0  0  0  0  0  0  0  0  0  0
  145.5770   69.0870  219.3360 C   0  0  0  0  0  0  0  0  0  0  0  0
  145.8190   67.7620  219.6440 C   0  0  0  0  0  0  0  0  0  0  0  0
  144.8700   66.8220  219.2920 C   0  0  0  0  0  0  0  0  0  0  0  0
  143.6960   67.1570  218.6490 C   0  0  0  0  0  0  0  0  0  0  0  0
  143.4690   68.5030  218.3470 C   0  0  0  0  0  0  0  0  0  0  0  0
  142.8890   71.4880  218.6760 C   0  0  0  0  0  0  0  0  0  0  0  0
  143.1780   72.9470  218.8040 C   0  0  0  0  0  0  0  0  0  0  0  0
  141.8840   73.6460  219.2270 C   0  0  0  0  0  0  0  0  0  0  0  0
  141.6240   73.1940  220.5780 N   0  0  0  0  0  0  0  0  0  0  0  0
  140.7910   73.8040  221.5180 C   0  0  0  0  0  0  0  0  0  0  0  0
  140.7010   73.2550  222.6850 O   0  0  0  0  0  0  0  0  0  0  0  0
  139.9750   75.0260  221.3580 C   0  0  1  0  0  0  0  0  0  0  0  0
  138.8160   75.1320  222.1150 N   0  0  0  0  0  0  0  0  0  0  0  0
  140.9220   76.1920  221.3520 C   0  0  2  0  0  0  0  0  0  0  0  0
  140.5620   77.3350  222.1880 C   0  0  0  0  0  0  0  0  0  0  0  0
  141.4430   77.9320  223.0970 C   0  0  0  0  0  0  0  0  0  0  0  0
  141.0820   79.0130  223.8700 C   0  0  0  0  0  0  0  0  0  0  0  0
  139.8330   79.5610  223.7870 C   0  0  0  0  0  0  0  0  0  0  0  0
  138.9420   79.0030  222.9070 C   0  0  0  0  0  0  0  0  0  0  0  0
  139.2960   77.9380  222.1450 C   0  0  0  0  0  0  0  0  0  0  0  0
  141.4650   76.5510  220.0190 C   0  0  0  0  0  0  0  0  0  0  0  0
  142.8430   76.6720  219.7980 C   0  0  0  0  0  0  0  0  0  0  0  0
  143.3240   77.0060  218.5490 C   0  0  0  0  0  0  0  0  0  0  0  0
  142.5070   77.2340  217.4770 C   0  0  0  0  0  0  0  0  0  0  0  0
  141.1430   77.1180  217.6790 C   0  0  0  0  0  0  0  0  0  0  0  0
  140.3120   77.3430  216.6160 F   0  0  0  0  0  0  0  0  0  0  0  0
  140.6720   76.7890  218.9110 C   0  0  0  0  0  0  0  0  0  0  0  0
  142.3200   71.9680  220.9700 C   0  0  0  0  0  0  0  0  0  0  0  0
  142.1780   70.9220  219.8530 C   0  0  0  0  0  0  0  0  0  0  0  0
  146.6272   69.9146  216.8177 H   0  0  0  0  0  0  0  0  0  0  0  0
  145.7082   69.6293  215.3010 H   0  0  0  0  0  0  0  0  0  0  0  0
  147.1181   70.7423  215.3010 H   0  0  0  0  0  0  0  0  0  0  0  0
  145.8013   72.4902  215.9064 H   0  0  0  0  0  0  0  0  0  0  0  0
  144.3763   71.4367  215.7095 H   0  0  0  0  0  0  0  0  0  0  0  0
  146.3197   69.8522  219.6059 H   0  0  0  0  0  0  0  0  0  0  0  0
  146.7449   67.4629  220.1571 H   0  0  0  0  0  0  0  0  0  0  0  0
  145.0575   65.7654  219.5337 H   0  0  0  0  0  0  0  0  0  0  0  0
  142.9587   66.3859  218.3813 H   0  0  0  0  0  0  0  0  0  0  0  0
  142.5415   68.7994  217.8352 H   0  0  0  0  0  0  0  0  0  0  0  0
  142.1735   71.3196  217.8577 H   0  0  0  0  0  0  0  0  0  0  0  0
  143.9563   73.1088  219.5643 H   0  0  0  0  0  0  0  0  0  0  0  0
  143.5379   73.3523  217.8468 H   0  0  0  0  0  0  0  0  0  0  0  0
  142.0122   74.7383  219.2050 H   0  0  0  0  0  0  0  0  0  0  0  0
  141.0510   73.4075  218.5494 H   0  0  0  0  0  0  0  0  0  0  0  0
  139.4562   74.9874  220.3888 H   0  0  0  0  0  0  0  0  0  0  0  0
  137.9400   75.4070  221.6610 H   0  0  0  0  0  0  0  0  0  0  0  0
  138.6800   74.4780  222.8740 H   0  0  0  0  0  0  0  0  0  0  0  0
  141.7824   75.7742  221.8952 H   0  0  0  0  0  0  0  0  0  0  0  0
  142.4593   77.5234  223.1975 H   0  0  0  0  0  0  0  0  0  0  0  0
  141.8141   79.4442  224.5686 H   0  0  0  0  0  0  0  0  0  0  0  0
  139.5508   80.4241  224.4078 H   0  0  0  0  0  0  0  0  0  0  0  0
  137.9294   79.4233  222.8179 H   0  0  0  0  0  0  0  0  0  0  0  0
  138.5475   77.5234  221.4537 H   0  0  0  0  0  0  0  0  0  0  0  0
  143.5463   76.4995  220.6260 H   0  0  0  0  0  0  0  0  0  0  0  0
  144.4117   77.0926  218.4097 H   0  0  0  0  0  0  0  0  0  0  0  0
  142.9180   77.4995  216.4918 H   0  0  0  0  0  0  0  0  0  0  0  0
  139.5822   76.7061  219.0357 H   0  0  0  0  0  0  0  0  0  0  0  0
  143.3853   72.1872  221.1345 H   0  0  0  0  0  0  0  0  0  0  0  0
  141.8799   71.5762  221.8989 H   0  0  0  0  0  0  0  0  0  0  0  0
  142.6387   69.9708  220.1580 H   0  0  0  0  0  0  0  0  0  0  0  0
  141.1223   70.7123  219.6262 H   0  0  0  0  0  0  0  0  0  0  0  0
  1  2  1  0
  2  3  1  0
  3  4  2  0
  3  5  1  0
  5  6  1  0
  6  7  2  0
  7  8  1  0
  8  9  2  0
  9 10  1  0
 10 11  2  0
  5 12  1  0
 12 13  1  0
 13 14  1  0
 14 15  1  0
 15 16  1  0
 16 17  2  0
 16 18  1  0
 18 19  1  0
 18 20  1  0
 20 21  1  0
 21 22  2  0
 22 23  1  0
 23 24  2  0
 24 25  1  0
 25 26  2  0
 20 27  1  0
 27 28  2  0
 28 29  1  0
 29 30  2  0
 30 31  1  0
 31 32  1  0
 31 33  2  0
 15 34  1  0
 34 35  1  0
 11  6  1  0
 35 12  1  0
 26 21  1  0
 33 27  1  0
  1 36  1  0
  1 37  1  0
  1 38  1  0
  2 39  1  0
  2 40  1  0
  7 41  1  0
  8 42  1  0
  9 43  1  0
 10 44  1  0
 11 45  1  0
 12 46  1  0
 13 47  1  0
 13 48  1  0
 14 49  1  0
 14 50  1  0
 18 51  1  6
 19 52  1  0
 19 53  1  0
 20 54  1  1
 22 55  1  0
 23 56  1  0
 24 57  1  0
 25 58  1  0
 26 59  1  0
 28 60  1  0
 29 61  1  0
 30 62  1  0
 33 63  1  0
 34 64  1  0
 34 65  1  0
 35 66  1  0
 35 67  1  0
M  END
>  <smiles>  (25) 
CCC(=O)N(c1ccccc1)C1CCN(C(=O)[C@@H](N)C(c2ccccc2)c2cccc(F)c2)CC1

>  <score_type>  (25) 
oracle

>  <origin>  (25) 
autodockgpu

>  <m_score__min__energy>  (25) 
-8.0600000000000005

>  <m_primary>  (25) 
energy

>  <rmsd>  (25) 
5.502340485360793

>  <m_score__min__rmsd>  (25) 
5.502340485360793

>  <meeko>  (25) 
{"free_energy": -7.12, "intermolecular_energy": -9.8, "internal_energy": -2.81, "cluster_size": 6, "cluster_id": 3, "rank_in_cluster": 5}

>  <energy>  (25) 
-7.2

>  <cluster_rmsd>  (25) 
0.65

>  <cluster>  (25) 
3

$$$$

     RDKit          3D

 67 70  0  0  0  0  0  0  0  0999 V2000
  146.3780   73.4240  221.4960 C   0  0  0  0  0  0  0  0  0  0  0  0
  145.0820   72.9730  220.8290 C   0  0  0  0  0  0  0  0  0  0  0  0
  145.0190   73.6050  219.5080 C   0  0  0  0  0  0  0  0  0  0  0  0
  145.9330   73.3580  218.6650 O   0  0  0  0  0  0  0  0  0  0  0  0
  143.9890   74.4960  219.0900 N   0  0  0  0  0  0  0  0  0  0  0  0
  143.7610   74.6230  217.6920 C   0  0  0  0  0  0  0  0  0  0  0  0
  144.0750   75.7890  216.9970 C   0  0  0  0  0  0  0  0  0  0  0  0
  143.8430   75.8860  215.6390 C   0  0  0  0  0  0  0  0  0  0  0  0
  143.2890   74.8010  214.9880 C   0  0  0  0  0  0  0  0  0  0  0  0
  142.9630   73.6300  215.6410 C   0  0  0  0  0  0  0  0  0  0  0  0
  143.2080   73.5510  217.0150 C   0  0  0  0  0  0  0  0  0  0  0  0
  143.2380   75.2120  220.0940 C   0  0  0  0  0  0  0  0  0  0  0  0
  141.9890   74.4400  220.3630 C   0  0  0  0  0  0  0  0  0  0  0  0
  141.1480   75.2400  221.3600 C   0  0  0  0  0  0  0  0  0  0  0  0
  140.7130   76.4190  220.6400 N   0  0  0  0  0  0  0  0  0  0  0  0
  139.6510   77.2590  220.9770 C   0  0  0  0  0  0  0  0  0  0  0  0
  139.4060   78.2590  220.1950 O   0  0  0  0  0  0  0  0  0  0  0  0
  138.7400   77.1590  222.1370 C   0  0  1  0  0  0  0  0  0  0  0  0
  138.5720   75.9110  222.7200 N   0  0  0  0  0  0  0  0  0  0  0  0
  139.0420   78.3230  223.0380 C   0  0  2  0  0  0  0  0  0  0  0  0
  137.9450   79.2520  223.3000 C   0  0  0  0  0  0  0  0  0  0  0  0
  138.0390   80.3190  224.2010 C   0  0  0  0  0  0  0  0  0  0  0  0
  136.9920   81.1850  224.4270 C   0  0  0  0  0  0  0  0  0  0  0  0
  135.7990   81.0450  223.7750 C   0  0  0  0  0  0  0  0  0  0  0  0
  135.6700   80.0110  222.8840 C   0  0  0  0  0  0  0  0  0  0  0  0
  136.7000   79.1560  222.6600 C   0  0  0  0  0  0  0  0  0  0  0  0
  140.3560   78.9700  222.8050 C   0  0  0  0  0  0  0  0  0  0  0  0
  141.5420   78.4240  223.3140 C   0  0  0  0  0  0  0  0  0  0  0  0
  142.7520   79.0450  223.0840 C   0  0  0  0  0  0  0  0  0  0  0  0
  142.8660   80.2010  222.3640 C   0  0  0  0  0  0  0  0  0  0  0  0
  141.7050   80.7520  221.8540 C   0  0  0  0  0  0  0  0  0  0  0  0
  141.8030   81.9100  221.1310 F   0  0  0  0  0  0  0  0  0  0  0  0
  140.5130   80.1390  222.0830 C   0  0  0  0  0  0  0  0  0  0  0  0
  141.4890   76.7390  219.4410 C   0  0  0  0  0  0  0  0  0  0  0  0
  142.9880   76.6400  219.7620 C   0  0  0  0  0  0  0  0  0  0  0  0
  146.2613   73.3834  222.5890 H   0  0  0  0  0  0  0  0  0  0  0  0
  147.1987   72.7586  221.1899 H   0  0  0  0  0  0  0  0  0  0  0  0
  146.6084   74.4551  221.1899 H   0  0  0  0  0  0  0  0  0  0  0  0
  145.0769   71.8783  220.7215 H   0  0  0  0  0  0  0  0  0  0  0  0
  144.2132   73.2639  221.4377 H   0  0  0  0  0  0  0  0  0  0  0  0
  144.5127   76.6421  217.5361 H   0  0  0  0  0  0  0  0  0  0  0  0
  144.0934   76.8052  215.0891 H   0  0  0  0  0  0  0  0  0  0  0  0
  143.1003   74.8733  213.9067 H   0  0  0  0  0  0  0  0  0  0  0  0
  142.5226   72.7823  215.0956 H   0  0  0  0  0  0  0  0  0  0  0  0
  142.9592   72.6296  217.5618 H   0  0  0  0  0  0  0  0  0  0  0  0
  143.8405   75.2778  221.0119 H   0  0  0  0  0  0  0  0  0  0  0  0
  141.4272   74.3000  219.4277 H   0  0  0  0  0  0  0  0  0  0  0  0
  142.2318   73.4491  220.7744 H   0  0  0  0  0  0  0  0  0  0  0  0
  140.2807   74.6503  221.6918 H   0  0  0  0  0  0  0  0  0  0  0  0
  141.7218   75.5007  222.2616 H   0  0  0  0  0  0  0  0  0  0  0  0
  137.7010   77.2442  221.7861 H   0  0  0  0  0  0  0  0  0  0  0  0
  138.2550   75.1230  222.1460 H   0  0  0  0  0  0  0  0  0  0  0  0
  139.2150   75.6340  223.4500 H   0  0  0  0  0  0  0  0  0  0  0  0
  139.1528   77.8219  224.0109 H   0  0  0  0  0  0  0  0  0  0  0  0
  138.9815   80.4712  224.7474 H   0  0  0  0  0  0  0  0  0  0  0  0
  137.1187   82.0066  225.1474 H   0  0  0  0  0  0  0  0  0  0  0  0
  134.9674   81.7410  223.9595 H   0  0  0  0  0  0  0  0  0  0  0  0
  134.7213   79.8728  222.3447 H   0  0  0  0  0  0  0  0  0  0  0  0
  136.5503   78.3417  221.9358 H   0  0  0  0  0  0  0  0  0  0  0  0
  141.5078   77.4942  223.9007 H   0  0  0  0  0  0  0  0  0  0  0  0
  143.6642   78.5903  223.4978 H   0  0  0  0  0  0  0  0  0  0  0  0
  143.8444   80.6751  222.1966 H   0  0  0  0  0  0  0  0  0  0  0  0
  139.6095   80.6061  221.6642 H   0  0  0  0  0  0  0  0  0  0  0  0
  141.2374   76.0279  218.6404 H   0  0  0  0  0  0  0  0  0  0  0  0
  141.2506   77.7608  219.1109 H   0  0  0  0  0  0  0  0  0  0  0  0
  143.5871   76.9411  218.8900 H   0  0  0  0  0  0  0  0  0  0  0  0
  143.2688   77.3039  220.5929 H   0  0  0  0  0  0  0  0  0  0  0  0
  1  2  1  0
  2  3  1  0
  3  4  2  0
  3  5  1  0
  5  6  1  0
  6  7  2  0
  7  8  1  0
  8  9  2  0
  9 10  1  0
 10 11  2  0
  5 12  1  0
 12 13  1  0
 13 14  1  0
 14 15  1  0
 15 16  1  0
 16 17  2  0
 16 18  1  0
 18 19  1  0
 18 20  1  0
 20 21  1  0
 21 22  2  0
 22 23  1  0
 23 24  2  0
 24 25  1  0
 25 26  2  0
 20 27  1  0
 27 28  2  0
 28 29  1  0
 29 30  2  0
 30 31  1  0
 31 32  1  0
 31 33  2  0
 15 34  1  0
 34 35  1  0
 11  6  1  0
 35 12  1  0
 26 21  1  0
 33 27  1  0
  1 36  1  0
  1 37  1  0
  1 38  1  0
  2 39  1  0
  2 40  1  0
  7 41  1  0
  8 42  1  0
  9 43  1  0
 10 44  1  0
 11 45  1  0
 12 46  1  0
 13 47  1  0
 13 48  1  0
 14 49  1  0
 14 50  1  0
 18 51  1  6
 19 52  1  0
 19 53  1  0
 20 54  1  1
 22 55  1  0
 23 56  1  0
 24 57  1  0
 25 58  1  0
 26 59  1  0
 28 60  1  0
 29 61  1  0
 30 62  1  0
 33 63  1  0
 34 64  1  0
 34 65  1  0
 35 66  1  0
 35 67  1  0
M  END
>  <smiles>  (26) 
CCC(=O)N(c1ccccc1)C1CCN(C(=O)[C@@H](N)C(c2ccccc2)c2cccc(F)c2)CC1

>  <score_type>  (26) 
oracle

>  <origin>  (26) 
autodockgpu

>  <m_score__min__energy>  (26) 
-8.0600000000000005

>  <m_primary>  (26) 
energy

>  <rmsd>  (26) 
4.295038666037863

>  <m_score__min__rmsd>  (26) 
4.295038666037863

>  <meeko>  (26) 
{"free_energy": -7.1, "intermolecular_energy": -9.78, "internal_energy": -2.65, "cluster_size": 1, "cluster_id": 8, "rank_in_cluster": 1}

>  <energy>  (26) 
-7.12

>  <cluster_rmsd>  (26) 
1.84

>  <cluster>  (26) 
3

$$$$

     RDKit          3D

 67 70  0  0  0  0  0  0  0  0999 V2000
  145.5240   74.1340  220.8100 C   0  0  0  0  0  0  0  0  0  0  0  0
  145.9420   72.6710  220.6890 C   0  0  0  0  0  0  0  0  0  0  0  0
  145.4060   72.1580  219.4250 C   0  0  0  0  0  0  0  0  0  0  0  0
  145.9110   72.5640  218.3350 O   0  0  0  0  0  0  0  0  0  0  0  0
  144.3390   71.2220  219.3240 N   0  0  0  0  0  0  0  0  0  0  0  0
  144.6830   69.8460  219.2110 C   0  0  0  0  0  0  0  0  0  0  0  0
  145.9870   69.4320  218.9480 C   0  0  0  0  0  0  0  0  0  0  0  0
  146.2930   68.0890  218.8420 C   0  0  0  0  0  0  0  0  0  0  0  0
  145.2770   67.1680  219.0010 C   0  0  0  0  0  0  0  0  0  0  0  0
  143.9730   67.5390  219.2600 C   0  0  0  0  0  0  0  0  0  0  0  0
  143.6830   68.9030  219.3660 C   0  0  0  0  0  0  0  0  0  0  0  0
  142.9800   71.7090  219.3450 C   0  0  0  0  0  0  0  0  0  0  0  0
  142.9950   73.1170  218.8510 C   0  0  0  0  0  0  0  0  0  0  0  0
  141.5700   73.6660  218.9540 C   0  0  0  0  0  0  0  0  0  0  0  0
  141.2980   73.7690  220.3720 N   0  0  0  0  0  0  0  0  0  0  0  0
  140.3040   74.5380  220.9790 C   0  0  0  0  0  0  0  0  0  0  0  0
  140.2280   74.5110  222.2690 O   0  0  0  0  0  0  0  0  0  0  0  0
  139.2980   75.4060  220.3300 C   0  0  1  0  0  0  0  0  0  0  0  0
  138.0120   75.4060  220.8540 N   0  0  0  0  0  0  0  0  0  0  0  0
  139.9560   76.7320  220.0760 C   0  0  2  0  0  0  0  0  0  0  0  0
  141.1370   76.7260  219.2160 C   0  0  0  0  0  0  0  0  0  0  0  0
  142.4460   76.6540  219.7060 C   0  0  0  0  0  0  0  0  0  0  0  0
  143.5430   76.6440  218.8740 C   0  0  0  0  0  0  0  0  0  0  0  0
  143.4070   76.7030  217.5160 C   0  0  0  0  0  0  0  0  0  0  0  0
  142.1390   76.7750  216.9990 C   0  0  0  0  0  0  0  0  0  0  0  0
  141.0570   76.7860  217.8170 C   0  0  0  0  0  0  0  0  0  0  0  0
  140.0630   77.6160  221.2630 C   0  0  0  0  0  0  0  0  0  0  0  0
  139.1430   78.6480  221.4930 C   0  0  0  0  0  0  0  0  0  0  0  0
  139.2640   79.4560  222.6040 C   0  0  0  0  0  0  0  0  0  0  0  0
  140.2610   79.3040  223.5260 C   0  0  0  0  0  0  0  0  0  0  0  0
  141.1760   78.2890  223.3130 C   0  0  0  0  0  0  0  0  0  0  0  0
  142.1810   78.1240  224.2280 F   0  0  0  0  0  0  0  0  0  0  0  0
  141.0560   77.4940  222.2180 C   0  0  0  0  0  0  0  0  0  0  0  0
  142.1690   72.9690  221.2340 C   0  0  0  0  0  0  0  0  0  0  0  0
  142.2960   71.5510  220.6560 C   0  0  0  0  0  0  0  0  0  0  0  0
  145.4462   74.4064  221.8729 H   0  0  0  0  0  0  0  0  0  0  0  0
  146.2759   74.7717  220.3222 H   0  0  0  0  0  0  0  0  0  0  0  0
  144.5487   74.2782  220.3222 H   0  0  0  0  0  0  0  0  0  0  0  0
  147.0393   72.5935  220.6897 H   0  0  0  0  0  0  0  0  0  0  0  0
  145.5540   72.0878  221.5372 H   0  0  0  0  0  0  0  0  0  0  0  0
  146.7815   70.1825  218.8234 H   0  0  0  0  0  0  0  0  0  0  0  0
  147.3225   67.7611  218.6356 H   0  0  0  0  0  0  0  0  0  0  0  0
  145.5158   66.0974  218.9181 H   0  0  0  0  0  0  0  0  0  0  0  0
  143.1835   66.7825  219.3797 H   0  0  0  0  0  0  0  0  0  0  0  0
  142.6529   69.2281  219.5740 H   0  0  0  0  0  0  0  0  0  0  0  0
  142.3675   71.0857  218.6769 H   0  0  0  0  0  0  0  0  0  0  0  0
  143.6746   73.7227  219.4685 H   0  0  0  0  0  0  0  0  0  0  0  0
  143.3459   73.1542  217.8091 H   0  0  0  0  0  0  0  0  0  0  0  0
  141.5033   74.6548  218.4767 H   0  0  0  0  0  0  0  0  0  0  0  0
  140.8437   73.0154  218.4449 H   0  0  0  0  0  0  0  0  0  0  0  0
  139.0110   74.9644  219.3643 H   0  0  0  0  0  0  0  0  0  0  0  0
  137.2150   75.2180  220.2370 H   0  0  0  0  0  0  0  0  0  0  0  0
  137.8780   75.0520  221.7910 H   0  0  0  0  0  0  0  0  0  0  0  0
  139.2097   77.2233  219.4343 H   0  0  0  0  0  0  0  0  0  0  0  0
  142.6039   76.6037  220.7934 H   0  0  0  0  0  0  0  0  0  0  0  0
  144.5504   76.5873  219.3121 H   0  0  0  0  0  0  0  0  0  0  0  0
  144.2879   76.6931  216.8573 H   0  0  0  0  0  0  0  0  0  0  0  0
  141.9977   76.8244  215.9092 H   0  0  0  0  0  0  0  0  0  0  0  0
  140.0597   76.8454  217.3568 H   0  0  0  0  0  0  0  0  0  0  0  0
  138.3195   78.8145  220.7830 H   0  0  0  0  0  0  0  0  0  0  0  0
  138.5259   80.2576  222.7545 H   0  0  0  0  0  0  0  0  0  0  0  0
  140.3331   79.9633  224.4036 H   0  0  0  0  0  0  0  0  0  0  0  0
  141.8014   76.6967  222.0812 H   0  0  0  0  0  0  0  0  0  0  0  0
  143.1640   73.4353  221.2844 H   0  0  0  0  0  0  0  0  0  0  0  0
  141.7380   72.9166  222.2447 H   0  0  0  0  0  0  0  0  0  0  0  0
  142.8940   70.9161  221.3262 H   0  0  0  0  0  0  0  0  0  0  0  0
  141.3135   71.0689  220.5452 H   0  0  0  0  0  0  0  0  0  0  0  0
  1  2  1  0
  2  3  1  0
  3  4  2  0
  3  5  1  0
  5  6  1  0
  6  7  2  0
  7  8  1  0
  8  9  2  0
  9 10  1  0
 10 11  2  0
  5 12  1  0
 12 13  1  0
 13 14  1  0
 14 15  1  0
 15 16  1  0
 16 17  2  0
 16 18  1  0
 18 19  1  0
 18 20  1  0
 20 21  1  0
 21 22  2  0
 22 23  1  0
 23 24  2  0
 24 25  1  0
 25 26  2  0
 20 27  1  0
 27 28  2  0
 28 29  1  0
 29 30  2  0
 30 31  1  0
 31 32  1  0
 31 33  2  0
 15 34  1  0
 34 35  1  0
 11  6  1  0
 35 12  1  0
 26 21  1  0
 33 27  1  0
  1 36  1  0
  1 37  1  0
  1 38  1  0
  2 39  1  0
  2 40  1  0
  7 41  1  0
  8 42  1  0
  9 43  1  0
 10 44  1  0
 11 45  1  0
 12 46  1  0
 13 47  1  0
 13 48  1  0
 14 49  1  0
 14 50  1  0
 18 51  1  6
 19 52  1  0
 19 53  1  0
 20 54  1  6
 22 55  1  0
 23 56  1  0
 24 57  1  0
 25 58  1  0
 26 59  1  0
 28 60  1  0
 29 61  1  0
 30 62  1  0
 33 63  1  0
 34 64  1  0
 34 65  1  0
 35 66  1  0
 35 67  1  0
M  END
>  <smiles>  (27) 
CCC(=O)N(c1ccccc1)C1CCN(C(=O)[C@@H](N)C(c2ccccc2)c2cccc(F)c2)CC1

>  <score_type>  (27) 
oracle

>  <origin>  (27) 
autodockgpu

>  <m_score__min__energy>  (27) 
-8.0600000000000005

>  <m_primary>  (27) 
energy

>  <rmsd>  (27) 
5.748619145374985

>  <m_score__min__rmsd>  (27) 
5.748619145374985

>  <meeko>  (27) 
{"free_energy": -6.87, "intermolecular_energy": -9.55, "internal_energy": -3.22, "cluster_size": 1, "cluster_id": 10, "rank_in_cluster": 1}

>  <energy>  (27) 
-6.78

>  <cluster_rmsd>  (27) 
1.99

>  <cluster>  (27) 
3

$$$$

     RDKit          3D

 67 70  0  0  0  0  0  0  0  0999 V2000
  145.9640   74.0900  221.2620 C   0  0  0  0  0  0  0  0  0  0  0  0
  146.0930   72.6430  220.7920 C   0  0  0  0  0  0  0  0  0  0  0  0
  145.5950   72.5770  219.4150 C   0  0  0  0  0  0  0  0  0  0  0  0
  146.3000   73.0700  218.4830 O   0  0  0  0  0  0  0  0  0  0  0  0
  144.3540   71.9920  219.0360 N   0  0  0  0  0  0  0  0  0  0  0  0
  144.3580   70.6110  218.6950 C   0  0  0  0  0  0  0  0  0  0  0  0
  144.4490   70.1770  217.3750 C   0  0  0  0  0  0  0  0  0  0  0  0
  144.4500   68.8300  217.0720 C   0  0  0  0  0  0  0  0  0  0  0  0
  144.3570   67.9230  218.1100 C   0  0  0  0  0  0  0  0  0  0  0  0
  144.2630   68.3130  219.4300 C   0  0  0  0  0  0  0  0  0  0  0  0
  144.2650   69.6810  219.7160 C   0  0  0  0  0  0  0  0  0  0  0  0
  143.1700   72.8180  219.0180 C   0  0  0  0  0  0  0  0  0  0  0  0
  143.6010   74.2320  219.2260 C   0  0  0  0  0  0  0  0  0  0  0  0
  142.3420   75.1010  219.2960 C   0  0  0  0  0  0  0  0  0  0  0  0
  141.6820   74.7240  220.5290 N   0  0  0  0  0  0  0  0  0  0  0  0
  140.7170   75.4600  221.2180 C   0  0  0  0  0  0  0  0  0  0  0  0
  140.2550   74.9610  222.3170 O   0  0  0  0  0  0  0  0  0  0  0  0
  140.1360   76.7700  220.8560 C   0  0  1  0  0  0  0  0  0  0  0  0
  139.0320   77.2080  221.5740 N   0  0  0  0  0  0  0  0  0  0  0  0
  141.2810   77.7260  220.6720 C   0  0  2  0  0  0  0  0  0  0  0  0
  141.5750   78.6220  221.7880 C   0  0  0  0  0  0  0  0  0  0  0  0
  141.9730   79.9530  221.6240 C   0  0  0  0  0  0  0  0  0  0  0  0
  142.2390   80.7790  222.6930 C   0  0  0  0  0  0  0  0  0  0  0  0
  142.1260   80.3350  223.9800 C   0  0  0  0  0  0  0  0  0  0  0  0
  141.7390   79.0360  224.1820 C   0  0  0  0  0  0  0  0  0  0  0  0
  141.4760   78.2200  223.1290 C   0  0  0  0  0  0  0  0  0  0  0  0
  141.3560   78.3630  219.3350 C   0  0  0  0  0  0  0  0  0  0  0  0
  142.5230   78.3070  218.5610 C   0  0  0  0  0  0  0  0  0  0  0  0
  142.5680   78.9070  217.3200 C   0  0  0  0  0  0  0  0  0  0  0  0
  141.5050   79.5770  216.7820 C   0  0  0  0  0  0  0  0  0  0  0  0
  140.3450   79.6410  217.5330 C   0  0  0  0  0  0  0  0  0  0  0  0
  139.2720   80.3080  217.0080 F   0  0  0  0  0  0  0  0  0  0  0  0
  140.3030   79.0490  218.7560 C   0  0  0  0  0  0  0  0  0  0  0  0
  142.0860   73.4320  221.0830 C   0  0  0  0  0  0  0  0  0  0  0  0
  142.1080   72.3810  219.9620 C   0  0  0  0  0  0  0  0  0  0  0  0
  145.9614   74.1195  222.3616 H   0  0  0  0  0  0  0  0  0  0  0  0
  146.8135   74.6762  220.8815 H   0  0  0  0  0  0  0  0  0  0  0  0
  145.0243   74.5167  220.8815 H   0  0  0  0  0  0  0  0  0  0  0  0
  147.1473   72.3308  220.8247 H   0  0  0  0  0  0  0  0  0  0  0  0
  145.5142   71.9724  221.4442 H   0  0  0  0  0  0  0  0  0  0  0  0
  144.5210   70.9164  216.5638 H   0  0  0  0  0  0  0  0  0  0  0  0
  144.5231   68.4872  216.0293 H   0  0  0  0  0  0  0  0  0  0  0  0
  144.3579   66.8484  217.8749 H   0  0  0  0  0  0  0  0  0  0  0  0
  144.1885   67.5675  220.2354 H   0  0  0  0  0  0  0  0  0  0  0  0
  144.1922   70.0210  220.7596 H   0  0  0  0  0  0  0  0  0  0  0  0
  142.6791   72.7170  218.0388 H   0  0  0  0  0  0  0  0  0  0  0  0
  144.1663   74.3163  220.1659 H   0  0  0  0  0  0  0  0  0  0  0  0
  144.2489   74.5611  218.4002 H   0  0  0  0  0  0  0  0  0  0  0  0
  142.6110   76.1674  219.3141 H   0  0  0  0  0  0  0  0  0  0  0  0
  141.6919   74.9502  218.4216 H   0  0  0  0  0  0  0  0  0  0  0  0
  139.5993   76.6724  219.9008 H   0  0  0  0  0  0  0  0  0  0  0  0
  138.7150   76.6730  222.3890 H   0  0  0  0  0  0  0  0  0  0  0  0
  138.8930   78.2040  221.6760 H   0  0  0  0  0  0  0  0  0  0  0  0
  142.1408   77.0404  220.6979 H   0  0  0  0  0  0  0  0  0  0  0  0
  142.0772   80.3539  220.6050 H   0  0  0  0  0  0  0  0  0  0  0  0
  142.5489   81.8179  222.5069 H   0  0  0  0  0  0  0  0  0  0  0  0
  142.3394   81.0007  224.8293 H   0  0  0  0  0  0  0  0  0  0  0  0
  141.6404   78.6505  225.2075 H   0  0  0  0  0  0  0  0  0  0  0  0
  141.1679   77.1851  223.3389 H   0  0  0  0  0  0  0  0  0  0  0  0
  143.4091   77.7809  218.9459 H   0  0  0  0  0  0  0  0  0  0  0  0
  143.4994   78.8436  216.7382 H   0  0  0  0  0  0  0  0  0  0  0  0
  141.5695   80.0474  215.7897 H   0  0  0  0  0  0  0  0  0  0  0  0
  139.3649   79.1204  219.3260 H   0  0  0  0  0  0  0  0  0  0  0  0
  143.0899   73.5194  221.5240 H   0  0  0  0  0  0  0  0  0  0  0  0
  141.3707   73.1254  221.8604 H   0  0  0  0  0  0  0  0  0  0  0  0
  142.3450   71.3883  220.3723 H   0  0  0  0  0  0  0  0  0  0  0  0
  141.1309   72.3006  219.4632 H   0  0  0  0  0  0  0  0  0  0  0  0
  1  2  1  0
  2  3  1  0
  3  4  2  0
  3  5  1  0
  5  6  1  0
  6  7  2  0
  7  8  1  0
  8  9  2  0
  9 10  1  0
 10 11  2  0
  5 12  1  0
 12 13  1  0
 13 14  1  0
 14 15  1  0
 15 16  1  0
 16 17  2  0
 16 18  1  0
 18 19  1  0
 18 20  1  0
 20 21  1  0
 21 22  2  0
 22 23  1  0
 23 24  2  0
 24 25  1  0
 25 26  2  0
 20 27  1  0
 27 28  2  0
 28 29  1  0
 29 30  2  0
 30 31  1  0
 31 32  1  0
 31 33  2  0
 15 34  1  0
 34 35  1  0
 11  6  1  0
 35 12  1  0
 26 21  1  0
 33 27  1  0
  1 36  1  0
  1 37  1  0
  1 38  1  0
  2 39  1  0
  2 40  1  0
  7 41  1  0
  8 42  1  0
  9 43  1  0
 10 44  1  0
 11 45  1  0
 12 46  1  0
 13 47  1  0
 13 48  1  0
 14 49  1  0
 14 50  1  0
 18 51  1  6
 19 52  1  0
 19 53  1  0
 20 54  1  6
 22 55  1  0
 23 56  1  0
 24 57  1  0
 25 58  1  0
 26 59  1  0
 28 60  1  0
 29 61  1  0
 30 62  1  0
 33 63  1  0
 34 64  1  0
 34 65  1  0
 35 66  1  0
 35 67  1  0
M  END
>  <smiles>  (28) 
CCC(=O)N(c1ccccc1)C1CCN(C(=O)[C@@H](N)C(c2ccccc2)c2cccc(F)c2)CC1

>  <score_type>  (28) 
oracle

>  <origin>  (28) 
autodockgpu

>  <m_score__min__energy>  (28) 
-8.0600000000000005

>  <m_primary>  (28) 
energy

>  <rmsd>  (28) 
4.426319593900568

>  <m_score__min__rmsd>  (28) 
4.426319593900568

>  <meeko>  (28) 
{"free_energy": -7.2, "intermolecular_energy": -9.89, "internal_energy": -3.01, "cluster_size": 6, "cluster_id": 3, "rank_in_cluster": 4}

>  <energy>  (28) 
-7.37

>  <cluster_rmsd>  (28) 
0.0

>  <cluster>  (28) 
4

$$$$

     RDKit          3D

 67 70  0  0  0  0  0  0  0  0999 V2000
  140.4650   79.3360  218.2120 C   0  0  0  0  0  0  0  0  0  0  0  0
  141.9720   79.1530  218.3760 C   0  0  0  0  0  0  0  0  0  0  0  0
  142.1860   78.1170  219.3890 C   0  0  0  0  0  0  0  0  0  0  0  0
  143.1260   77.2820  219.2240 O   0  0  0  0  0  0  0  0  0  0  0  0
  141.4020   77.9710  220.5690 N   0  0  0  0  0  0  0  0  0  0  0  0
  141.4750   79.0110  221.5360 C   0  0  0  0  0  0  0  0  0  0  0  0
  140.4930   79.9940  221.6380 C   0  0  0  0  0  0  0  0  0  0  0  0
  140.5890   80.9940  222.5860 C   0  0  0  0  0  0  0  0  0  0  0  0
  141.6820   80.9970  223.4290 C   0  0  0  0  0  0  0  0  0  0  0  0
  142.6760   80.0420  223.3600 C   0  0  0  0  0  0  0  0  0  0  0  0
  142.5600   79.0370  222.3940 C   0  0  0  0  0  0  0  0  0  0  0  0
  140.5830   76.7920  220.7200 C   0  0  0  0  0  0  0  0  0  0  0  0
  140.3510   76.5860  222.1810 C   0  0  0  0  0  0  0  0  0  0  0  0
  139.5570   75.2880  222.3510 C   0  0  0  0  0  0  0  0  0  0  0  0
  140.4630   74.2270  221.9600 N   0  0  0  0  0  0  0  0  0  0  0  0
  140.3490   72.8730  222.2770 C   0  0  0  0  0  0  0  0  0  0  0  0
  141.2730   72.0780  221.8480 O   0  0  0  0  0  0  0  0  0  0  0  0
  139.2890   72.2040  223.0600 C   0  0  1  0  0  0  0  0  0  0  0  0
  137.9800   72.3330  222.6150 N   0  0  0  0  0  0  0  0  0  0  0  0
  139.7870   70.8270  223.3940 C   0  0  2  0  0  0  0  0  0  0  0  0
  139.0520   69.7040  222.8150 C   0  0  0  0  0  0  0  0  0  0  0  0
  137.7860   69.3030  223.2560 C   0  0  0  0  0  0  0  0  0  0  0  0
  137.1120   68.2440  222.6910 C   0  0  0  0  0  0  0  0  0  0  0  0
  137.6500   67.5260  221.6610 C   0  0  0  0  0  0  0  0  0  0  0  0
  138.8900   67.8890  221.2020 C   0  0  0  0  0  0  0  0  0  0  0  0
  139.5570   68.9320  221.7580 C   0  0  0  0  0  0  0  0  0  0  0  0
  140.1950   70.6340  224.8070 C   0  0  0  0  0  0  0  0  0  0  0  0
  140.1110   69.3820  225.4290 C   0  0  0  0  0  0  0  0  0  0  0  0
  140.4970   69.2280  226.7440 C   0  0  0  0  0  0  0  0  0  0  0  0
  140.9730   70.2600  227.5020 C   0  0  0  0  0  0  0  0  0  0  0  0
  141.0630   71.5030  226.9020 C   0  0  0  0  0  0  0  0  0  0  0  0
  141.5380   72.5470  227.6480 F   0  0  0  0  0  0  0  0  0  0  0  0
  140.6820   71.6530  225.6060 C   0  0  0  0  0  0  0  0  0  0  0  0
  141.6040   74.6500  221.1480 C   0  0  0  0  0  0  0  0  0  0  0  0
  141.1170   75.5870  220.0320 C   0  0  0  0  0  0  0  0  0  0  0  0
  139.9925   79.3934  219.2037 H   0  0  0  0  0  0  0  0  0  0  0  0
  140.2667   80.2648  217.6571 H   0  0  0  0  0  0  0  0  0  0  0  0
  140.0501   78.4816  217.6571 H   0  0  0  0  0  0  0  0  0  0  0  0
  142.4179   78.8405  217.4202 H   0  0  0  0  0  0  0  0  0  0  0  0
  142.4440   80.0975  218.6845 H   0  0  0  0  0  0  0  0  0  0  0  0
  139.6307   79.9735  220.9553 H   0  0  0  0  0  0  0  0  0  0  0  0
  139.8130   81.7694  222.6672 H   0  0  0  0  0  0  0  0  0  0  0  0
  141.7640   81.7915  224.1853 H   0  0  0  0  0  0  0  0  0  0  0  0
  143.5357   80.0704  224.0457 H   0  0  0  0  0  0  0  0  0  0  0  0
  143.3368   78.2621  222.3160 H   0  0  0  0  0  0  0  0  0  0  0  0
  139.6230   76.9558  220.2086 H   0  0  0  0  0  0  0  0  0  0  0  0
  141.3148   76.5064  222.7052 H   0  0  0  0  0  0  0  0  0  0  0  0
  139.7944   77.4349  222.6048 H   0  0  0  0  0  0  0  0  0  0  0  0
  139.2461   75.1617  223.3986 H   0  0  0  0  0  0  0  0  0  0  0  0
  138.6404   75.2872  221.7428 H   0  0  0  0  0  0  0  0  0  0  0  0
  139.1307   72.7581  223.9970 H   0  0  0  0  0  0  0  0  0  0  0  0
  137.3510   72.9960  223.0800 H   0  0  0  0  0  0  0  0  0  0  0  0
  137.8020   72.2480  221.6240 H   0  0  0  0  0  0  0  0  0  0  0  0
  140.7310   70.7959  222.8302 H   0  0  0  0  0  0  0  0  0  0  0  0
  137.3130   69.8531  224.0828 H   0  0  0  0  0  0  0  0  0  0  0  0
  136.1191   67.9702  223.0772 H   0  0  0  0  0  0  0  0  0  0  0  0
  137.1049   66.6820  221.2133 H   0  0  0  0  0  0  0  0  0  0  0  0
  139.3491   67.3288  220.3741 H   0  0  0  0  0  0  0  0  0  0  0  0
  140.5494   69.1864  221.3574 H   0  0  0  0  0  0  0  0  0  0  0  0
  139.7347   68.5158  224.8650 H   0  0  0  0  0  0  0  0  0  0  0  0
  140.4182   68.2311  227.2023 H   0  0  0  0  0  0  0  0  0  0  0  0
  141.2732   70.1083  228.5493 H   0  0  0  0  0  0  0  0  0  0  0  0
  140.7669   72.6554  225.1610 H   0  0  0  0  0  0  0  0  0  0  0  0
  142.3292   75.1808  221.7824 H   0  0  0  0  0  0  0  0  0  0  0  0
  142.0852   73.7669  220.7023 H   0  0  0  0  0  0  0  0  0  0  0  0
  141.9521   75.8618  219.3708 H   0  0  0  0  0  0  0  0  0  0  0  0
  140.3520   75.1064  219.4045 H   0  0  0  0  0  0  0  0  0  0  0  0
  1  2  1  0
  2  3  1  0
  3  4  2  0
  3  5  1  0
  5  6  1  0
  6  7  2  0
  7  8  1  0
  8  9  2  0
  9 10  1  0
 10 11  2  0
  5 12  1  0
 12 13  1  0
 13 14  1  0
 14 15  1  0
 15 16  1  0
 16 17  2  0
 16 18  1  0
 18 19  1  0
 18 20  1  0
 20 21  1  0
 21 22  2  0
 22 23  1  0
 23 24  2  0
 24 25  1  0
 25 26  2  0
 20 27  1  0
 27 28  2  0
 28 29  1  0
 29 30  2  0
 30 31  1  0
 31 32  1  0
 31 33  2  0
 15 34  1  0
 34 35  1  0
 11  6  1  0
 35 12  1  0
 26 21  1  0
 33 27  1  0
  1 36  1  0
  1 37  1  0
  1 38  1  0
  2 39  1  0
  2 40  1  0
  7 41  1  0
  8 42  1  0
  9 43  1  0
 10 44  1  0
 11 45  1  0
 12 46  1  0
 13 47  1  0
 13 48  1  0
 14 49  1  0
 14 50  1  0
 18 51  1  1
 19 52  1  0
 19 53  1  0
 20 54  1  6
 22 55  1  0
 23 56  1  0
 24 57  1  0
 25 58  1  0
 26 59  1  0
 28 60  1  0
 29 61  1  0
 30 62  1  0
 33 63  1  0
 34 64  1  0
 34 65  1  0
 35 66  1  0
 35 67  1  0
M  END
>  <smiles>  (29) 
CCC(=O)N(c1ccccc1)C1CCN(C(=O)[C@@H](N)C(c2ccccc2)c2cccc(F)c2)CC1

>  <score_type>  (29) 
oracle

>  <origin>  (29) 
autodockgpu

>  <m_score__min__energy>  (29) 
-8.0600000000000005

>  <m_primary>  (29) 
energy

>  <rmsd>  (29) 
8.918888685279397

>  <m_score__min__rmsd>  (29) 
8.918888685279397

>  <meeko>  (29) 
{"free_energy": -7.86, "intermolecular_energy": -10.54, "internal_energy": -2.21, "cluster_size": 7, "cluster_id": 1, "rank_in_cluster": 6}

>  <energy>  (29) 
-7.19

>  <cluster_rmsd>  (29) 
0.0

>  <cluster>  (29) 
5

$$$$

     RDKit          3D

 67 70  0  0  0  0  0  0  0  0999 V2000
  138.4630   82.8270  221.2660 C   0  0  0  0  0  0  0  0  0  0  0  0
  137.7770   83.7330  222.2850 C   0  0  0  0  0  0  0  0  0  0  0  0
  136.6960   82.9630  222.9070 C   0  0  0  0  0  0  0  0  0  0  0  0
  135.5940   82.8450  222.2900 O   0  0  0  0  0  0  0  0  0  0  0  0
  136.7890   82.3250  224.1760 N   0  0  0  0  0  0  0  0  0  0  0  0
  136.4750   83.1040  225.3250 C   0  0  0  0  0  0  0  0  0  0  0  0
  136.4970   84.4960  225.3000 C   0  0  0  0  0  0  0  0  0  0  0  0
  136.1890   85.2280  226.4300 C   0  0  0  0  0  0  0  0  0  0  0  0
  135.8610   84.5460  227.5850 C   0  0  0  0  0  0  0  0  0  0  0  0
  135.8300   83.1680  227.6500 C   0  0  0  0  0  0  0  0  0  0  0  0
  136.1440   82.4450  226.4960 C   0  0  0  0  0  0  0  0  0  0  0  0
  137.1880   80.9390  224.2320 C   0  0  0  0  0  0  0  0  0  0  0  0
  138.6590   80.8810  223.9820 C   0  0  0  0  0  0  0  0  0  0  0  0
  139.0720   79.4070  223.9530 C   0  0  0  0  0  0  0  0  0  0  0  0
  138.4650   78.8600  222.7570 N   0  0  0  0  0  0  0  0  0  0  0  0
  138.8300   77.6850  222.0990 C   0  0  0  0  0  0  0  0  0  0  0  0
  138.1750   77.3690  221.0290 O   0  0  0  0  0  0  0  0  0  0  0  0
  139.8920   76.7250  222.4650 C   0  0  1  0  0  0  0  0  0  0  0  0
  139.6330   75.3730  222.2810 N   0  0  0  0  0  0  0  0  0  0  0  0
  141.1860   77.2720  221.9330 C   0  0  2  0  0  0  0  0  0  0  0  0
  141.5400   78.6310  222.3370 C   0  0  0  0  0  0  0  0  0  0  0  0
  142.1590   78.9360  223.5540 C   0  0  0  0  0  0  0  0  0  0  0  0
  142.4870   80.2250  223.9100 C   0  0  0  0  0  0  0  0  0  0  0  0
  142.2230   81.2810  223.0840 C   0  0  0  0  0  0  0  0  0  0  0  0
  141.6160   81.0210  221.8820 C   0  0  0  0  0  0  0  0  0  0  0  0
  141.2910   79.7520  221.5300 C   0  0  0  0  0  0  0  0  0  0  0  0
  141.4580   76.9630  220.5080 C   0  0  0  0  0  0  0  0  0  0  0  0
  140.6700   77.4950  219.4790 C   0  0  0  0  0  0  0  0  0  0  0  0
  140.9440   77.1930  218.1620 C   0  0  0  0  0  0  0  0  0  0  0  0
  141.9740   76.3770  217.7880 C   0  0  0  0  0  0  0  0  0  0  0  0
  142.7630   75.8450  218.7920 C   0  0  0  0  0  0  0  0  0  0  0  0
  143.8000   75.0270  218.4330 F   0  0  0  0  0  0  0  0  0  0  0  0
  142.4910   76.1440  220.0890 C   0  0  0  0  0  0  0  0  0  0  0  0
  137.3570   79.6410  222.2070 C   0  0  0  0  0  0  0  0  0  0  0  0
  136.4030   80.0430  223.3430 C   0  0  0  0  0  0  0  0  0  0  0  0
  139.0457   82.0574  221.7934 H   0  0  0  0  0  0  0  0  0  0  0  0
  137.7028   82.3432  220.6352 H   0  0  0  0  0  0  0  0  0  0  0  0
  139.1349   83.4275  220.6352 H   0  0  0  0  0  0  0  0  0  0  0  0
  138.4999   84.0506  223.0509 H   0  0  0  0  0  0  0  0  0  0  0  0
  137.3771   84.6325  221.7941 H   0  0  0  0  0  0  0  0  0  0  0  0
  136.7628   85.0188  224.3694 H   0  0  0  0  0  0  0  0  0  0  0  0
  136.2046   86.3277  226.4103 H   0  0  0  0  0  0  0  0  0  0  0  0
  135.6149   85.1236  228.4882 H   0  0  0  0  0  0  0  0  0  0  0  0
  135.5653   82.6525  228.5850 H   0  0  0  0  0  0  0  0  0  0  0  0
  136.1279   81.3453  226.5186 H   0  0  0  0  0  0  0  0  0  0  0  0
  136.9633   80.5424  225.2331 H   0  0  0  0  0  0  0  0  0  0  0  0
  138.8933   81.3541  223.0170 H   0  0  0  0  0  0  0  0  0  0  0  0
  139.2042   81.4169  224.7729 H   0  0  0  0  0  0  0  0  0  0  0  0
  140.1671   79.3152  223.9051 H   0  0  0  0  0  0  0  0  0  0  0  0
  138.7456   78.8732  224.8578 H   0  0  0  0  0  0  0  0  0  0  0  0
  139.9574   76.6648  223.5614 H   0  0  0  0  0  0  0  0  0  0  0  0
  139.5520   74.7590  223.0970 H   0  0  0  0  0  0  0  0  0  0  0  0
  139.0230   75.1040  221.5210 H   0  0  0  0  0  0  0  0  0  0  0  0
  141.9198   76.6699  222.4889 H   0  0  0  0  0  0  0  0  0  0  0  0
  142.3918   78.1174  224.2509 H   0  0  0  0  0  0  0  0  0  0  0  0
  142.9719   80.4086  224.8801 H   0  0  0  0  0  0  0  0  0  0  0  0
  142.4892   82.3081  223.3742 H   0  0  0  0  0  0  0  0  0  0  0  0
  141.3902   81.8506  221.1959 H   0  0  0  0  0  0  0  0  0  0  0  0
  140.8045   79.5923  220.5564 H   0  0  0  0  0  0  0  0  0  0  0  0
  139.8271   78.1581  219.7235 H   0  0  0  0  0  0  0  0  0  0  0  0
  140.3058   77.6278  217.3786 H   0  0  0  0  0  0  0  0  0  0  0  0
  142.1684   76.1517  216.7290 H   0  0  0  0  0  0  0  0  0  0  0  0
  143.1386   75.7033  220.8613 H   0  0  0  0  0  0  0  0  0  0  0  0
  137.7512   80.5458  221.7213 H   0  0  0  0  0  0  0  0  0  0  0  0
  136.8128   79.0362  221.4667 H   0  0  0  0  0  0  0  0  0  0  0  0
  135.5285   80.5742  222.9391 H   0  0  0  0  0  0  0  0  0  0  0  0
  136.0254   79.1636  223.8853 H   0  0  0  0  0  0  0  0  0  0  0  0
  1  2  1  0
  2  3  1  0
  3  4  2  0
  3  5  1  0
  5  6  1  0
  6  7  2  0
  7  8  1  0
  8  9  2  0
  9 10  1  0
 10 11  2  0
  5 12  1  0
 12 13  1  0
 13 14  1  0
 14 15  1  0
 15 16  1  0
 16 17  2  0
 16 18  1  0
 18 19  1  0
 18 20  1  0
 20 21  1  0
 21 22  2  0
 22 23  1  0
 23 24  2  0
 24 25  1  0
 25 26  2  0
 20 27  1  0
 27 28  2  0
 28 29  1  0
 29 30  2  0
 30 31  1  0
 31 32  1  0
 31 33  2  0
 15 34  1  0
 34 35  1  0
 11  6  1  0
 35 12  1  0
 26 21  1  0
 33 27  1  0
  1 36  1  0
  1 37  1  0
  1 38  1  0
  2 39  1  0
  2 40  1  0
  7 41  1  0
  8 42  1  0
  9 43  1  0
 10 44  1  0
 11 45  1  0
 12 46  1  0
 13 47  1  0
 13 48  1  0
 14 49  1  0
 14 50  1  0
 18 51  1  1
 19 52  1  0
 19 53  1  0
 20 54  1  1
 22 55  1  0
 23 56  1  0
 24 57  1  0
 25 58  1  0
 26 59  1  0
 28 60  1  0
 29 61  1  0
 30 62  1  0
 33 63  1  0
 34 64  1  0
 34 65  1  0
 35 66  1  0
 35 67  1  0
M  END
>  <smiles>  (30) 
CCC(=O)N(c1ccccc1)C1CCN(C(=O)[C@@H](N)C(c2ccccc2)c2cccc(F)c2)CC1

>  <score_type>  (30) 
oracle

>  <origin>  (30) 
autodockgpu

>  <m_score__min__energy>  (30) 
-8.0600000000000005

>  <m_primary>  (30) 
energy

>  <rmsd>  (30) 
5.887886063201894

>  <m_score__min__rmsd>  (30) 
5.887886063201894

>  <meeko>  (30) 
{"free_energy": -6.71, "intermolecular_energy": -9.4, "internal_energy": -3.22, "cluster_size": 4, "cluster_id": 5, "rank_in_cluster": 3}

>  <energy>  (30) 
-6.71

>  <cluster_rmsd>  (30) 
1.46

>  <cluster>  (30) 
5

$$$$

     RDKit          3D

 67 70  0  0  0  0  0  0  0  0999 V2000
  136.1260   71.5100  222.8430 C   0  0  0  0  0  0  0  0  0  0  0  0
  136.8440   71.4050  224.1860 C   0  0  0  0  0  0  0  0  0  0  0  0
  137.7890   70.2880  224.0980 C   0  0  0  0  0  0  0  0  0  0  0  0
  137.3390   69.1140  223.9380 O   0  0  0  0  0  0  0  0  0  0  0  0
  139.2040   70.4240  224.1800 N   0  0  0  0  0  0  0  0  0  0  0  0
  139.7920   70.3860  225.4750 C   0  0  0  0  0  0  0  0  0  0  0  0
  140.3920   71.5060  226.0450 C   0  0  0  0  0  0  0  0  0  0  0  0
  140.9560   71.4410  227.3040 C   0  0  0  0  0  0  0  0  0  0  0  0
  140.9120   70.2400  227.9830 C   0  0  0  0  0  0  0  0  0  0  0  0
  140.3270   69.1080  227.4520 C   0  0  0  0  0  0  0  0  0  0  0  0
  139.7600   69.1940  226.1770 C   0  0  0  0  0  0  0  0  0  0  0  0
  139.9610   70.5880  222.9610 C   0  0  0  0  0  0  0  0  0  0  0  0
  140.5520   71.9590  222.9760 C   0  0  0  0  0  0  0  0  0  0  0  0
  141.2810   72.1700  221.6470 C   0  0  0  0  0  0  0  0  0  0  0  0
  140.2410   72.2200  220.6400 N   0  0  0  0  0  0  0  0  0  0  0  0
  140.3500   72.7470  219.3520 C   0  0  0  0  0  0  0  0  0  0  0  0
  139.2990   72.7150  218.6000 O   0  0  0  0  0  0  0  0  0  0  0  0
  141.5340   73.3570  218.7120 C   0  0  1  0  0  0  0  0  0  0  0  0
  141.3500   74.0070  217.4990 N   0  0  0  0  0  0  0  0  0  0  0  0
  142.2970   74.0770  219.7880 C   0  0  2  0  0  0  0  0  0  0  0  0
  142.1460   75.5290  219.8420 C   0  0  0  0  0  0  0  0  0  0  0  0
  142.7070   76.3970  218.8980 C   0  0  0  0  0  0  0  0  0  0  0  0
  142.5450   77.7630  218.9670 C   0  0  0  0  0  0  0  0  0  0  0  0
  141.8220   78.3440  219.9710 C   0  0  0  0  0  0  0  0  0  0  0  0
  141.2570   77.5250  220.9140 C   0  0  0  0  0  0  0  0  0  0  0  0
  141.4150   76.1790  220.8480 C   0  0  0  0  0  0  0  0  0  0  0  0
  143.6830   73.5930  220.0040 C   0  0  0  0  0  0  0  0  0  0  0  0
  144.6060   74.3300  220.7570 C   0  0  0  0  0  0  0  0  0  0  0  0
  145.8890   73.8590  220.9430 C   0  0  0  0  0  0  0  0  0  0  0  0
  146.3280   72.6760  220.4190 C   0  0  0  0  0  0  0  0  0  0  0  0
  145.4270   71.9360  219.6740 C   0  0  0  0  0  0  0  0  0  0  0  0
  145.8510   70.7480  219.1420 F   0  0  0  0  0  0  0  0  0  0  0  0
  144.1640   72.4020  219.4910 C   0  0  0  0  0  0  0  0  0  0  0  0
  138.9560   71.6480  221.0420 C   0  0  0  0  0  0  0  0  0  0  0  0
  139.1930   70.2910  221.7230 C   0  0  0  0  0  0  0  0  0  0  0  0
  135.0507   71.6673  223.0134 H   0  0  0  0  0  0  0  0  0  0  0  0
  136.5349   72.3579  222.2739 H   0  0  0  0  0  0  0  0  0  0  0  0
  136.2750   70.5805  222.2739 H   0  0  0  0  0  0  0  0  0  0  0  0
  137.3859   72.3390  224.3955 H   0  0  0  0  0  0  0  0  0  0  0  0
  136.1213   71.2361  224.9979 H   0  0  0  0  0  0  0  0  0  0  0  0
  140.4170   72.4531  225.4862 H   0  0  0  0  0  0  0  0  0  0  0  0
  141.4292   72.3256  227.7551 H   0  0  0  0  0  0  0  0  0  0  0  0
  141.3604   70.1827  228.9858 H   0  0  0  0  0  0  0  0  0  0  0  0
  140.3075   68.1642  228.0166 H   0  0  0  0  0  0  0  0  0  0  0  0
  139.2854   68.3085  225.7290 H   0  0  0  0  0  0  0  0  0  0  0  0
  140.7630   69.8356  222.9343 H   0  0  0  0  0  0  0  0  0  0  0  0
  139.7549   72.7087  223.0885 H   0  0  0  0  0  0  0  0  0  0  0  0
  141.2511   72.0663  223.8184 H   0  0  0  0  0  0  0  0  0  0  0  0
  141.8458   73.1138  221.6638 H   0  0  0  0  0  0  0  0  0  0  0  0
  142.0055   71.3670  221.4465 H   0  0  0  0  0  0  0  0  0  0  0  0
  142.1700   72.5592  218.3008 H   0  0  0  0  0  0  0  0  0  0  0  0
  142.1120   74.0200  216.8130 H   0  0  0  0  0  0  0  0  0  0  0  0
  140.4340   73.9720  217.0730 H   0  0  0  0  0  0  0  0  0  0  0  0
  141.7518   73.7585  220.6887 H   0  0  0  0  0  0  0  0  0  0  0  0
  143.2978   75.9735  218.0724 H   0  0  0  0  0  0  0  0  0  0  0  0
  143.0071   78.3997  218.1981 H   0  0  0  0  0  0  0  0  0  0  0  0
  141.6973   79.4358  220.0208 H   0  0  0  0  0  0  0  0  0  0  0  0
  140.6689   77.9640  221.7334 H   0  0  0  0  0  0  0  0  0  0  0  0
  140.9433   75.5624  221.6273 H   0  0  0  0  0  0  0  0  0  0  0  0
  144.3059   75.2899  221.2026 H   0  0  0  0  0  0  0  0  0  0  0  0
  146.5894   74.4622  221.5393 H   0  0  0  0  0  0  0  0  0  0  0  0
  147.3577   72.3255  220.5831 H   0  0  0  0  0  0  0  0  0  0  0  0
  143.4749   71.7884  218.8922 H   0  0  0  0  0  0  0  0  0  0  0  0
  138.4548   72.3292  221.7454 H   0  0  0  0  0  0  0  0  0  0  0  0
  138.3218   71.5082  220.1542 H   0  0  0  0  0  0  0  0  0  0  0  0
  138.2333   69.8148  221.9725 H   0  0  0  0  0  0  0  0  0  0  0  0
  139.7374   69.5974  221.0653 H   0  0  0  0  0  0  0  0  0  0  0  0
  1  2  1  0
  2  3  1  0
  3  4  2  0
  3  5  1  0
  5  6  1  0
  6  7  2  0
  7  8  1  0
  8  9  2  0
  9 10  1  0
 10 11  2  0
  5 12  1  0
 12 13  1  0
 13 14  1  0
 14 15  1  0
 15 16  1  0
 16 17  2  0
 16 18  1  0
 18 19  1  0
 18 20  1  0
 20 21  1  0
 21 22  2  0
 22 23  1  0
 23 24  2  0
 24 25  1  0
 25 26  2  0
 20 27  1  0
 27 28  2  0
 28 29  1  0
 29 30  2  0
 30 31  1  0
 31 32  1  0
 31 33  2  0
 15 34  1  0
 34 35  1  0
 11  6  1  0
 35 12  1  0
 26 21  1  0
 33 27  1  0
  1 36  1  0
  1 37  1  0
  1 38  1  0
  2 39  1  0
  2 40  1  0
  7 41  1  0
  8 42  1  0
  9 43  1  0
 10 44  1  0
 11 45  1  0
 12 46  1  0
 13 47  1  0
 13 48  1  0
 14 49  1  0
 14 50  1  0
 18 51  1  6
 19 52  1  0
 19 53  1  0
 20 54  1  1
 22 55  1  0
 23 56  1  0
 24 57  1  0
 25 58  1  0
 26 59  1  0
 28 60  1  0
 29 61  1  0
 30 62  1  0
 33 63  1  0
 34 64  1  0
 34 65  1  0
 35 66  1  0
 35 67  1  0
M  END
>  <smiles>  (31) 
CCC(=O)N(c1ccccc1)C1CCN(C(=O)[C@@H](N)C(c2ccccc2)c2cccc(F)c2)CC1

>  <score_type>  (31) 
oracle

>  <origin>  (31) 
autodockgpu

>  <m_score__min__energy>  (31) 
-8.0600000000000005

>  <m_primary>  (31) 
energy

>  <rmsd>  (31) 
6.365788578150185

>  <m_score__min__rmsd>  (31) 
6.365788578150185

>  <meeko>  (31) 
{"free_energy": -7.05, "intermolecular_energy": -9.74, "internal_energy": -2.76, "cluster_size": 14, "cluster_id": 2, "rank_in_cluster": 14}

>  <energy>  (31) 
-6.71

>  <cluster_rmsd>  (31) 
1.64

>  <cluster>  (31) 
5

$$$$

     RDKit          3D

 67 70  0  0  0  0  0  0  0  0999 V2000
  144.8180   75.1260  216.0070 C   0  0  0  0  0  0  0  0  0  0  0  0
  143.7980   76.0140  216.7150 C   0  0  0  0  0  0  0  0  0  0  0  0
  143.1080   75.1900  217.7120 C   0  0  0  0  0  0  0  0  0  0  0  0
  142.1970   74.3970  217.3280 O   0  0  0  0  0  0  0  0  0  0  0  0
  143.3880   75.2140  219.1070 N   0  0  0  0  0  0  0  0  0  0  0  0
  144.3570   74.2950  219.5970 C   0  0  0  0  0  0  0  0  0  0  0  0
  145.0610   74.5240  220.7760 C   0  0  0  0  0  0  0  0  0  0  0  0
  145.9970   73.6150  221.2290 C   0  0  0  0  0  0  0  0  0  0  0  0
  146.2190   72.4740  220.4830 C   0  0  0  0  0  0  0  0  0  0  0  0
  145.5430   72.2110  219.3090 C   0  0  0  0  0  0  0  0  0  0  0  0
  144.5980   73.1430  218.8680 C   0  0  0  0  0  0  0  0  0  0  0  0
  142.6860   76.1590  219.9430 C   0  0  0  0  0  0  0  0  0  0  0  0
  141.5870   75.4220  220.6350 C   0  0  0  0  0  0  0  0  0  0  0  0
  140.7850   76.4370  221.4540 C   0  0  0  0  0  0  0  0  0  0  0  0
  140.1190   77.2780  220.4810 N   0  0  0  0  0  0  0  0  0  0  0  0
  139.0110   78.0960  220.7040 C   0  0  0  0  0  0  0  0  0  0  0  0
  138.5460   78.7630  219.6980 O   0  0  0  0  0  0  0  0  0  0  0  0
  138.2730   78.3100  221.9660 C   0  0  1  0  0  0  0  0  0  0  0  0
  138.1740   77.2410  222.8460 N   0  0  0  0  0  0  0  0  0  0  0  0
  138.7140   79.6370  222.5170 C   0  0  2  0  0  0  0  0  0  0  0  0
  140.1460   79.8060  222.7550 C   0  0  0  0  0  0  0  0  0  0  0  0
  140.9180   80.7960  222.1380 C   0  0  0  0  0  0  0  0  0  0  0  0
  142.2660   80.9380  222.3840 C   0  0  0  0  0  0  0  0  0  0  0  0
  142.9210   80.1110  223.2520 C   0  0  0  0  0  0  0  0  0  0  0  0
  142.1980   79.1280  223.8760 C   0  0  0  0  0  0  0  0  0  0  0  0
  140.8700   78.9870  223.6350 C   0  0  0  0  0  0  0  0  0  0  0  0
  137.8430   80.1950  223.5790 C   0  0  0  0  0  0  0  0  0  0  0  0
  138.3570   81.0140  224.5930 C   0  0  0  0  0  0  0  0  0  0  0  0
  137.5260   81.5220  225.5700 C   0  0  0  0  0  0  0  0  0  0  0  0
  136.1850   81.2640  225.6090 C   0  0  0  0  0  0  0  0  0  0  0  0
  135.6610   80.4580  224.6140 C   0  0  0  0  0  0  0  0  0  0  0  0
  134.3190   80.1920  224.6380 F   0  0  0  0  0  0  0  0  0  0  0  0
  136.4820   79.9590  223.6520 C   0  0  0  0  0  0  0  0  0  0  0  0
  140.6910   77.2470  219.1350 C   0  0  0  0  0  0  0  0  0  0  0  0
  142.2200   77.3760  219.2270 C   0  0  0  0  0  0  0  0  0  0  0  0
  145.4258   74.5969  216.7557 H   0  0  0  0  0  0  0  0  0  0  0  0
  144.2919   74.3932  215.3775 H   0  0  0  0  0  0  0  0  0  0  0  0
  145.4713   75.7480  215.3775 H   0  0  0  0  0  0  0  0  0  0  0  0
  144.3103   76.8518  217.2107 H   0  0  0  0  0  0  0  0  0  0  0  0
  143.0794   76.4281  215.9924 H   0  0  0  0  0  0  0  0  0  0  0  0
  144.8695   75.4402  221.3539 H   0  0  0  0  0  0  0  0  0  0  0  0
  146.5522   73.7954  222.1613 H   0  0  0  0  0  0  0  0  0  0  0  0
  146.9636   71.7466  220.8385 H   0  0  0  0  0  0  0  0  0  0  0  0
  145.7419   71.2935  218.7358 H   0  0  0  0  0  0  0  0  0  0  0  0
  144.0429   72.9596  217.9362 H   0  0  0  0  0  0  0  0  0  0  0  0
  143.3864   76.5689  220.6856 H   0  0  0  0  0  0  0  0  0  0  0  0
  140.9337   74.9409  219.8922 H   0  0  0  0  0  0  0  0  0  0  0  0
  142.0013   74.6416  221.2902 H   0  0  0  0  0  0  0  0  0  0  0  0
  140.0470   75.9230  222.0874 H   0  0  0  0  0  0  0  0  0  0  0  0
  141.4309   77.0218  222.1254 H   0  0  0  0  0  0  0  0  0  0  0  0
  137.1960   78.3578  221.7475 H   0  0  0  0  0  0  0  0  0  0  0  0
  139.0250   76.8380  223.2500 H   0  0  0  0  0  0  0  0  0  0  0  0
  137.3860   77.2150  223.4790 H   0  0  0  0  0  0  0  0  0  0  0  0
  138.5472   80.2963  221.6524 H   0  0  0  0  0  0  0  0  0  0  0  0
  140.4318   81.4851  221.4318 H   0  0  0  0  0  0  0  0  0  0  0  0
  142.8264   81.7335  221.8711 H   0  0  0  0  0  0  0  0  0  0  0  0
  143.9974   80.2306  223.4445 H   0  0  0  0  0  0  0  0  0  0  0  0
  142.6992   78.4466  224.5792 H   0  0  0  0  0  0  0  0  0  0  0  0
  140.3301   78.1848  224.1594 H   0  0  0  0  0  0  0  0  0  0  0  0
  139.4305   81.2536  224.6102 H   0  0  0  0  0  0  0  0  0  0  0  0
  137.9618   82.1622  226.3511 H   0  0  0  0  0  0  0  0  0  0  0  0
  135.5461   81.6812  226.4013 H   0  0  0  0  0  0  0  0  0  0  0  0
  136.0318   79.3221  222.8763 H   0  0  0  0  0  0  0  0  0  0  0  0
  140.4316   76.2955  218.6478 H   0  0  0  0  0  0  0  0  0  0  0  0
  140.2866   78.0824  218.5445 H   0  0  0  0  0  0  0  0  0  0  0  0
  142.6620   77.4214  218.2207 H   0  0  0  0  0  0  0  0  0  0  0  0
  142.5182   78.2948  219.7532 H   0  0  0  0  0  0  0  0  0  0  0  0
  1  2  1  0
  2  3  1  0
  3  4  2  0
  3  5  1  0
  5  6  1  0
  6  7  2  0
  7  8  1  0
  8  9  2  0
  9 10  1  0
 10 11  2  0
  5 12  1  0
 12 13  1  0
 13 14  1  0
 14 15  1  0
 15 16  1  0
 16 17  2  0
 16 18  1  0
 18 19  1  0
 18 20  1  0
 20 21  1  0
 21 22  2  0
 22 23  1  0
 23 24  2  0
 24 25  1  0
 25 26  2  0
 20 27  1  0
 27 28  2  0
 28 29  1  0
 29 30  2  0
 30 31  1  0
 31 32  1  0
 31 33  2  0
 15 34  1  0
 34 35  1  0
 11  6  1  0
 35 12  1  0
 26 21  1  0
 33 27  1  0
  1 36  1  0
  1 37  1  0
  1 38  1  0
  2 39  1  0
  2 40  1  0
  7 41  1  0
  8 42  1  0
  9 43  1  0
 10 44  1  0
 11 45  1  0
 12 46  1  0
 13 47  1  0
 13 48  1  0
 14 49  1  0
 14 50  1  0
 18 51  1  6
 19 52  1  0
 19 53  1  0
 20 54  1  6
 22 55  1  0
 23 56  1  0
 24 57  1  0
 25 58  1  0
 26 59  1  0
 28 60  1  0
 29 61  1  0
 30 62  1  0
 33 63  1  0
 34 64  1  0
 34 65  1  0
 35 66  1  0
 35 67  1  0
M  END
>  <smiles>  (32) 
CCC(=O)N(c1ccccc1)C1CCN(C(=O)[C@@H](N)C(c2ccccc2)c2cccc(F)c2)CC1

>  <score_type>  (32) 
oracle

>  <origin>  (32) 
autodockgpu

>  <m_score__min__energy>  (32) 
-8.0600000000000005

>  <m_primary>  (32) 
energy

>  <rmsd>  (32) 
2.9922798995451294

>  <m_score__min__rmsd>  (32) 
2.9922798995451294

>  <meeko>  (32) 
{"free_energy": -6.99, "intermolecular_energy": -9.67, "internal_energy": -2.82, "cluster_size": 11, "cluster_id": 7, "rank_in_cluster": 9}

>  <energy>  (32) 
-6.7

>  <cluster_rmsd>  (32) 
1.44

>  <cluster>  (32) 
5

$$$$

     RDKit          3D

 67 70  0  0  0  0  0  0  0  0999 V2000
  142.9480   77.5210  216.5090 C   0  0  0  0  0  0  0  0  0  0  0  0
  143.6920   76.2370  216.8630 C   0  0  0  0  0  0  0  0  0  0  0  0
  142.8520   75.4800  217.7960 C   0  0  0  0  0  0  0  0  0  0  0  0
  141.7580   74.9940  217.3810 O   0  0  0  0  0  0  0  0  0  0  0  0
  143.1780   75.2460  219.1620 N   0  0  0  0  0  0  0  0  0  0  0  0
  144.1530   74.2490  219.4410 C   0  0  0  0  0  0  0  0  0  0  0  0
  144.2560   73.0850  218.6830 C   0  0  0  0  0  0  0  0  0  0  0  0
  145.2120   72.1320  218.9760 C   0  0  0  0  0  0  0  0  0  0  0  0
  146.0620   72.3610  220.0400 C   0  0  0  0  0  0  0  0  0  0  0  0
  145.9910   73.5000  220.8160 C   0  0  0  0  0  0  0  0  0  0  0  0
  145.0180   74.4530  220.5020 C   0  0  0  0  0  0  0  0  0  0  0  0
  142.5110   76.0220  220.1810 C   0  0  0  0  0  0  0  0  0  0  0  0
  141.3240   75.2430  220.6410 C   0  0  0  0  0  0  0  0  0  0  0  0
  140.5650   76.1010  221.6570 C   0  0  0  0  0  0  0  0  0  0  0  0
  140.0190   77.2070  220.8970 N   0  0  0  0  0  0  0  0  0  0  0  0
  138.9700   78.0440  221.2780 C   0  0  0  0  0  0  0  0  0  0  0  0
  138.6120   78.9710  220.4510 O   0  0  0  0  0  0  0  0  0  0  0  0
  138.1880   78.0160  222.5330 C   0  0  1  0  0  0  0  0  0  0  0  0
  137.8960   76.7760  223.0840 N   0  0  0  0  0  0  0  0  0  0  0  0
  138.7630   79.0710  223.4350 C   0  0  2  0  0  0  0  0  0  0  0  0
  137.8610   80.1430  223.8510 C   0  0  0  0  0  0  0  0  0  0  0  0
  136.7020   80.4910  223.1470 C   0  0  0  0  0  0  0  0  0  0  0  0
  135.8650   81.5020  223.5620 C   0  0  0  0  0  0  0  0  0  0  0  0
  136.1260   82.2220  224.6940 C   0  0  0  0  0  0  0  0  0  0  0  0
  137.2530   81.9100  225.4100 C   0  0  0  0  0  0  0  0  0  0  0  0
  138.0790   80.9140  225.0020 C   0  0  0  0  0  0  0  0  0  0  0  0
  140.1310   79.5200  223.0820 C   0  0  0  0  0  0  0  0  0  0  0  0
  141.2640   78.7870  223.4610 C   0  0  0  0  0  0  0  0  0  0  0  0
  142.5260   79.2260  223.1190 C   0  0  0  0  0  0  0  0  0  0  0  0
  142.7450   80.3720  222.4090 C   0  0  0  0  0  0  0  0  0  0  0  0
  141.6370   81.1070  222.0260 C   0  0  0  0  0  0  0  0  0  0  0  0
  141.8400   82.2570  221.3140 F   0  0  0  0  0  0  0  0  0  0  0  0
  140.3940   80.6730  222.3640 C   0  0  0  0  0  0  0  0  0  0  0  0
  140.6540   77.4470  219.6010 C   0  0  0  0  0  0  0  0  0  0  0  0
  142.1810   77.4120  219.7680 C   0  0  0  0  0  0  0  0  0  0  0  0
  142.6485   78.0378  217.4327 H   0  0  0  0  0  0  0  0  0  0  0  0
  143.6066   78.1758  215.9195 H   0  0  0  0  0  0  0  0  0  0  0  0
  142.0524   77.2752  215.9195 H   0  0  0  0  0  0  0  0  0  0  0  0
  143.8706   75.6443  215.9537 H   0  0  0  0  0  0  0  0  0  0  0  0
  144.6652   76.4684  217.3205 H   0  0  0  0  0  0  0  0  0  0  0  0
  143.5675   72.9226  217.8406 H   0  0  0  0  0  0  0  0  0  0  0  0
  145.2942   71.2133  218.3766 H   0  0  0  0  0  0  0  0  0  0  0  0
  146.8256   71.6059  220.2783 H   0  0  0  0  0  0  0  0  0  0  0  0
  146.6813   73.6536  221.6586 H   0  0  0  0  0  0  0  0  0  0  0  0
  144.9392   75.3714  221.1022 H   0  0  0  0  0  0  0  0  0  0  0  0
  143.2028   76.1773  221.0220 H   0  0  0  0  0  0  0  0  0  0  0  0
  140.6727   75.0132  219.7848 H   0  0  0  0  0  0  0  0  0  0  0  0
  141.6414   74.2951  221.1001 H   0  0  0  0  0  0  0  0  0  0  0  0
  139.7568   75.5192  222.1241 H   0  0  0  0  0  0  0  0  0  0  0  0
  141.2205   76.4478  222.4694 H   0  0  0  0  0  0  0  0  0  0  0  0
  137.1418   78.2731  222.3110 H   0  0  0  0  0  0  0  0  0  0  0  0
  137.1430   76.2090  222.6810 H   0  0  0  0  0  0  0  0  0  0  0  0
  138.6620   76.2210  223.4420 H   0  0  0  0  0  0  0  0  0  0  0  0
  138.8932   78.5067  224.3702 H   0  0  0  0  0  0  0  0  0  0  0  0
  136.4514   79.9372  222.2302 H   0  0  0  0  0  0  0  0  0  0  0  0
  134.9675   81.7352  222.9703 H   0  0  0  0  0  0  0  0  0  0  0  0
  135.4521   83.0276  225.0209 H   0  0  0  0  0  0  0  0  0  0  0  0
  137.4899   82.4731  226.3248 H   0  0  0  0  0  0  0  0  0  0  0  0
  138.9709   80.6989  225.6088 H   0  0  0  0  0  0  0  0  0  0  0  0
  141.1460   77.8559  224.0347 H   0  0  0  0  0  0  0  0  0  0  0  0
  143.3940   78.6270  223.4317 H   0  0  0  0  0  0  0  0  0  0  0  0
  143.7634   80.6983  222.1514 H   0  0  0  0  0  0  0  0  0  0  0  0
  139.5358   81.2821  222.0437 H   0  0  0  0  0  0  0  0  0  0  0  0
  140.3444   76.6667  218.8902 H   0  0  0  0  0  0  0  0  0  0  0  0
  140.3482   78.4318  219.2182 H   0  0  0  0  0  0  0  0  0  0  0  0
  142.6762   77.6569  218.8168 H   0  0  0  0  0  0  0  0  0  0  0  0
  142.5243   78.1475  220.5104 H   0  0  0  0  0  0  0  0  0  0  0  0
  1  2  1  0
  2  3  1  0
  3  4  2  0
  3  5  1  0
  5  6  1  0
  6  7  2  0
  7  8  1  0
  8  9  2  0
  9 10  1  0
 10 11  2  0
  5 12  1  0
 12 13  1  0
 13 14  1  0
 14 15  1  0
 15 16  1  0
 16 17  2  0
 16 18  1  0
 18 19  1  0
 18 20  1  0
 20 21  1  0
 21 22  2  0
 22 23  1  0
 23 24  2  0
 24 25  1  0
 25 26  2  0
 20 27  1  0
 27 28  2  0
 28 29  1  0
 29 30  2  0
 30 31  1  0
 31 32  1  0
 31 33  2  0
 15 34  1  0
 34 35  1  0
 11  6  1  0
 35 12  1  0
 26 21  1  0
 33 27  1  0
  1 36  1  0
  1 37  1  0
  1 38  1  0
  2 39  1  0
  2 40  1  0
  7 41  1  0
  8 42  1  0
  9 43  1  0
 10 44  1  0
 11 45  1  0
 12 46  1  0
 13 47  1  0
 13 48  1  0
 14 49  1  0
 14 50  1  0
 18 51  1  6
 19 52  1  0
 19 53  1  0
 20 54  1  1
 22 55  1  0
 23 56  1  0
 24 57  1  0
 25 58  1  0
 26 59  1  0
 28 60  1  0
 29 61  1  0
 30 62  1  0
 33 63  1  0
 34 64  1  0
 34 65  1  0
 35 66  1  0
 35 67  1  0
M  END
>  <smiles>  (33) 
CCC(=O)N(c1ccccc1)C1CCN(C(=O)[C@@H](N)C(c2ccccc2)c2cccc(F)c2)CC1

>  <score_type>  (33) 
oracle

>  <origin>  (33) 
autodockgpu

>  <m_score__min__energy>  (33) 
-8.0600000000000005

>  <m_primary>  (33) 
energy

>  <rmsd>  (33) 
4.122103613251411

>  <m_score__min__rmsd>  (33) 
4.122103613251411

>  <meeko>  (33) 
{"free_energy": -7.05, "intermolecular_energy": -9.74, "internal_energy": -2.93, "cluster_size": 11, "cluster_id": 7, "rank_in_cluster": 4}

>  <energy>  (33) 
-7.15

>  <cluster_rmsd>  (33) 
0.0

>  <cluster>  (33) 
6

$$$$

     RDKit          3D

 67 70  0  0  0  0  0  0  0  0999 V2000
  135.0130   70.0060  225.4530 C   0  0  0  0  0  0  0  0  0  0  0  0
  136.2250   69.2360  224.9370 C   0  0  0  0  0  0  0  0  0  0  0  0
  137.2280   70.2170  224.5150 C   0  0  0  0  0  0  0  0  0  0  0  0
  136.8610   71.4080  224.2800 O   0  0  0  0  0  0  0  0  0  0  0  0
  138.6120   69.9300  224.3420 N   0  0  0  0  0  0  0  0  0  0  0  0
  139.3120   69.3870  225.4550 C   0  0  0  0  0  0  0  0  0  0  0  0
  139.8290   70.1940  226.4660 C   0  0  0  0  0  0  0  0  0  0  0  0
  140.5060   69.6410  227.5350 C   0  0  0  0  0  0  0  0  0  0  0  0
  140.6590   68.2690  227.5770 C   0  0  0  0  0  0  0  0  0  0  0  0
  140.1620   67.4360  226.5950 C   0  0  0  0  0  0  0  0  0  0  0  0
  139.4790   68.0150  225.5220 C   0  0  0  0  0  0  0  0  0  0  0  0
  139.2250   70.1990  223.0630 C   0  0  0  0  0  0  0  0  0  0  0  0
  140.2860   71.2280  223.2760 C   0  0  0  0  0  0  0  0  0  0  0  0
  140.8790   71.5810  221.9100 C   0  0  0  0  0  0  0  0  0  0  0  0
  139.8240   72.2710  221.1980 N   0  0  0  0  0  0  0  0  0  0  0  0
  139.9700   73.0980  220.0830 C   0  0  0  0  0  0  0  0  0  0  0  0
  138.9030   73.6410  219.5950 O   0  0  0  0  0  0  0  0  0  0  0  0
  141.2130   73.4500  219.3640 C   0  0  1  0  0  0  0  0  0  0  0  0
  141.0900   74.0540  218.1200 N   0  0  0  0  0  0  0  0  0  0  0  0
  142.1400   74.0790  220.3650 C   0  0  2  0  0  0  0  0  0  0  0  0
  141.8330   75.4470  220.7750 C   0  0  0  0  0  0  0  0  0  0  0  0
  142.2640   76.5780  220.0720 C   0  0  0  0  0  0  0  0  0  0  0  0
  141.9560   77.8580  220.4760 C   0  0  0  0  0  0  0  0  0  0  0  0
  141.2070   78.0890  221.5950 C   0  0  0  0  0  0  0  0  0  0  0  0
  140.7660   77.0060  222.3110 C   0  0  0  0  0  0  0  0  0  0  0  0
  141.0690   75.7440  221.9140 C   0  0  0  0  0  0  0  0  0  0  0  0
  143.5810   73.8130  220.1380 C   0  0  0  0  0  0  0  0  0  0  0  0
  144.0940   73.6070  218.8500 C   0  0  0  0  0  0  0  0  0  0  0  0
  145.4380   73.3620  218.6650 C   0  0  0  0  0  0  0  0  0  0  0  0
  146.3310   73.3060  219.6980 C   0  0  0  0  0  0  0  0  0  0  0  0
  145.8400   73.5090  220.9750 C   0  0  0  0  0  0  0  0  0  0  0  0
  146.7220   73.4570  222.0210 F   0  0  0  0  0  0  0  0  0  0  0  0
  144.5150   73.7500  221.1560 C   0  0  0  0  0  0  0  0  0  0  0  0
  138.4740   72.0580  221.7230 C   0  0  0  0  0  0  0  0  0  0  0  0
  138.2620   70.5600  221.9900 C   0  0  0  0  0  0  0  0  0  0  0  0
  135.0178   70.0030  226.5530 H   0  0  0  0  0  0  0  0  0  0  0  0
  135.0553   71.0432  225.0890 H   0  0  0  0  0  0  0  0  0  0  0  0
  134.0921   69.5270  225.0890 H   0  0  0  0  0  0  0  0  0  0  0  0
  136.6345   68.6017  225.7370 H   0  0  0  0  0  0  0  0  0  0  0  0
  135.9405   68.5884  224.0946 H   0  0  0  0  0  0  0  0  0  0  0  0
  139.6964   71.2846  226.4121 H   0  0  0  0  0  0  0  0  0  0  0  0
  140.9136   70.2779  228.3339 H   0  0  0  0  0  0  0  0  0  0  0  0
  141.1978   67.8228  228.4259 H   0  0  0  0  0  0  0  0  0  0  0  0
  140.2997   66.3463  226.6553 H   0  0  0  0  0  0  0  0  0  0  0  0
  139.0713   67.3756  224.7251 H   0  0  0  0  0  0  0  0  0  0  0  0
  139.6756   69.2710  222.6813 H   0  0  0  0  0  0  0  0  0  0  0  0
  139.8488   72.1259  223.7371 H   0  0  0  0  0  0  0  0  0  0  0  0
  141.0682   70.8395  223.9448 H   0  0  0  0  0  0  0  0  0  0  0  0
  141.7550   72.2357  222.0286 H   0  0  0  0  0  0  0  0  0  0  0  0
  141.2194   70.6859  221.3688 H   0  0  0  0  0  0  0  0  0  0  0  0
  141.6794   72.5304  218.9808 H   0  0  0  0  0  0  0  0  0  0  0  0
  140.1670   74.3570  217.7950 H   0  0  0  0  0  0  0  0  0  0  0  0
  141.8380   74.6590  217.8080 H   0  0  0  0  0  0  0  0  0  0  0  0
  141.8962   73.5084  221.2733 H   0  0  0  0  0  0  0  0  0  0  0  0
  142.8703   76.4395  219.1647 H   0  0  0  0  0  0  0  0  0  0  0  0
  142.3204   78.7117  219.8858 H   0  0  0  0  0  0  0  0  0  0  0  0
  140.9648   79.1140  221.9123 H   0  0  0  0  0  0  0  0  0  0  0  0
  140.1606   77.1615  223.2162 H   0  0  0  0  0  0  0  0  0  0  0  0
  140.6942   74.9059  222.5199 H   0  0  0  0  0  0  0  0  0  0  0  0
  143.4200   73.6410  217.9813 H   0  0  0  0  0  0  0  0  0  0  0  0
  145.8078   73.2047  217.6410 H   0  0  0  0  0  0  0  0  0  0  0  0
  147.3983   73.1073  219.5208 H   0  0  0  0  0  0  0  0  0  0  0  0
  144.1601   73.9061  222.1854 H   0  0  0  0  0  0  0  0  0  0  0  0
  138.3521   72.6191  222.6613 H   0  0  0  0  0  0  0  0  0  0  0  0
  137.7341   72.4091  220.9887 H   0  0  0  0  0  0  0  0  0  0  0  0
  137.2303   70.3725  222.3224 H   0  0  0  0  0  0  0  0  0  0  0  0
  138.4242   69.9603  221.0822 H   0  0  0  0  0  0  0  0  0  0  0  0
  1  2  1  0
  2  3  1  0
  3  4  2  0
  3  5  1  0
  5  6  1  0
  6  7  2  0
  7  8  1  0
  8  9  2  0
  9 10  1  0
 10 11  2  0
  5 12  1  0
 12 13  1  0
 13 14  1  0
 14 15  1  0
 15 16  1  0
 16 17  2  0
 16 18  1  0
 18 19  1  0
 18 20  1  0
 20 21  1  0
 21 22  2  0
 22 23  1  0
 23 24  2  0
 24 25  1  0
 25 26  2  0
 20 27  1  0
 27 28  2  0
 28 29  1  0
 29 30  2  0
 30 31  1  0
 31 32  1  0
 31 33  2  0
 15 34  1  0
 34 35  1  0
 11  6  1  0
 35 12  1  0
 26 21  1  0
 33 27  1  0
  1 36  1  0
  1 37  1  0
  1 38  1  0
  2 39  1  0
  2 40  1  0
  7 41  1  0
  8 42  1  0
  9 43  1  0
 10 44  1  0
 11 45  1  0
 12 46  1  0
 13 47  1  0
 13 48  1  0
 14 49  1  0
 14 50  1  0
 18 51  1  6
 19 52  1  0
 19 53  1  0
 20 54  1  1
 22 55  1  0
 23 56  1  0
 24 57  1  0
 25 58  1  0
 26 59  1  0
 28 60  1  0
 29 61  1  0
 30 62  1  0
 33 63  1  0
 34 64  1  0
 34 65  1  0
 35 66  1  0
 35 67  1  0
M  END
>  <smiles>  (34) 
CCC(=O)N(c1ccccc1)C1CCN(C(=O)[C@@H](N)C(c2ccccc2)c2cccc(F)c2)CC1

>  <score_type>  (34) 
oracle

>  <origin>  (34) 
autodockgpu

>  <m_score__min__energy>  (34) 
-8.0600000000000005

>  <m_primary>  (34) 
energy

>  <rmsd>  (34) 
6.431669030166293

>  <m_score__min__rmsd>  (34) 
6.431669030166293

>  <meeko>  (34) 
{"free_energy": -7.11, "intermolecular_energy": -9.79, "internal_energy": -2.93, "cluster_size": 14, "cluster_id": 2, "rank_in_cluster": 13}

>  <energy>  (34) 
-6.75

>  <cluster_rmsd>  (34) 
0.53

>  <cluster>  (34) 
6

$$$$

     RDKit          3D

 67 70  0  0  0  0  0  0  0  0999 V2000
  145.9550   73.9710  221.2580 C   0  0  0  0  0  0  0  0  0  0  0  0
  146.3020   72.6240  220.6300 C   0  0  0  0  0  0  0  0  0  0  0  0
  145.5980   72.5380  219.3470 C   0  0  0  0  0  0  0  0  0  0  0  0
  146.1370   73.0410  218.3160 O   0  0  0  0  0  0  0  0  0  0  0  0
  144.3280   71.9200  219.1680 N   0  0  0  0  0  0  0  0  0  0  0  0
  144.3000   70.5030  219.0450 C   0  0  0  0  0  0  0  0  0  0  0  0
  145.4090   69.7150  219.3440 C   0  0  0  0  0  0  0  0  0  0  0  0
  145.3550   68.3410  219.2150 C   0  0  0  0  0  0  0  0  0  0  0  0
  144.1770   67.7680  218.7810 C   0  0  0  0  0  0  0  0  0  0  0  0
  143.0570   68.5140  218.4730 C   0  0  0  0  0  0  0  0  0  0  0  0
  143.1310   69.9030  218.6110 C   0  0  0  0  0  0  0  0  0  0  0  0
  143.1480   72.7510  219.1220 C   0  0  0  0  0  0  0  0  0  0  0  0
  143.5900   74.1710  219.2560 C   0  0  0  0  0  0  0  0  0  0  0  0
  142.3360   75.0500  219.2970 C   0  0  0  0  0  0  0  0  0  0  0  0
  141.6870   74.7380  220.5540 N   0  0  0  0  0  0  0  0  0  0  0  0
  140.7350   75.5130  221.2170 C   0  0  0  0  0  0  0  0  0  0  0  0
  140.2810   75.0700  222.3440 O   0  0  0  0  0  0  0  0  0  0  0  0
  140.1570   76.8070  220.7960 C   0  0  1  0  0  0  0  0  0  0  0  0
  139.0230   77.2530  221.4600 N   0  0  0  0  0  0  0  0  0  0  0  0
  141.3000   77.7670  220.6290 C   0  0  2  0  0  0  0  0  0  0  0  0
  141.5700   78.6680  221.7480 C   0  0  0  0  0  0  0  0  0  0  0  0
  141.9690   79.9990  221.5860 C   0  0  0  0  0  0  0  0  0  0  0  0
  142.2130   80.8300  222.6560 C   0  0  0  0  0  0  0  0  0  0  0  0
  142.0740   80.3920  223.9430 C   0  0  0  0  0  0  0  0  0  0  0  0
  141.6850   79.0920  224.1420 C   0  0  0  0  0  0  0  0  0  0  0  0
  141.4450   78.2720  223.0880 C   0  0  0  0  0  0  0  0  0  0  0  0
  141.3950   78.4010  219.2910 C   0  0  0  0  0  0  0  0  0  0  0  0
  142.5550   78.2980  218.5130 C   0  0  0  0  0  0  0  0  0  0  0  0
  142.6180   78.8960  217.2720 C   0  0  0  0  0  0  0  0  0  0  0  0
  141.5810   79.6080  216.7380 C   0  0  0  0  0  0  0  0  0  0  0  0
  140.4280   79.7170  217.4940 C   0  0  0  0  0  0  0  0  0  0  0  0
  139.3790   80.4260  216.9730 F   0  0  0  0  0  0  0  0  0  0  0  0
  140.3670   79.1280  218.7170 C   0  0  0  0  0  0  0  0  0  0  0  0
  142.0910   73.4720  221.1670 C   0  0  0  0  0  0  0  0  0  0  0  0
  142.0950   72.3670  220.0980 C   0  0  0  0  0  0  0  0  0  0  0  0
  145.9781   73.8814  222.3541 H   0  0  0  0  0  0  0  0  0  0  0  0
  146.6882   74.7253  220.9363 H   0  0  0  0  0  0  0  0  0  0  0  0
  144.9487   74.2772  220.9363 H   0  0  0  0  0  0  0  0  0  0  0  0
  147.3877   72.5546  220.4674 H   0  0  0  0  0  0  0  0  0  0  0  0
  145.9993   71.7997  221.2925 H   0  0  0  0  0  0  0  0  0  0  0  0
  146.3387   70.1926  219.6869 H   0  0  0  0  0  0  0  0  0  0  0  0
  146.2301   67.7183  219.4525 H   0  0  0  0  0  0  0  0  0  0  0  0
  144.1285   66.6741  218.6764 H   0  0  0  0  0  0  0  0  0  0  0  0
  142.1319   68.0287  218.1285 H   0  0  0  0  0  0  0  0  0  0  0  0
  142.2542   70.5232  218.3730 H   0  0  0  0  0  0  0  0  0  0  0  0
  142.6450   72.6055  218.1546 H   0  0  0  0  0  0  0  0  0  0  0  0
  144.1661   74.2975  220.1845 H   0  0  0  0  0  0  0  0  0  0  0  0
  144.2310   74.4554  218.4085 H   0  0  0  0  0  0  0  0  0  0  0  0
  142.6110   76.1144  219.2599 H   0  0  0  0  0  0  0  0  0  0  0  0
  141.6756   74.8601  218.4380 H   0  0  0  0  0  0  0  0  0  0  0  0
  139.6579   76.6799  219.8240 H   0  0  0  0  0  0  0  0  0  0  0  0
  138.2470   77.6520  220.9220 H   0  0  0  0  0  0  0  0  0  0  0  0
  138.7160   76.7430  222.2780 H   0  0  0  0  0  0  0  0  0  0  0  0
  142.1626   77.0858  220.6713 H   0  0  0  0  0  0  0  0  0  0  0  0
  142.0921   80.3956  220.5674 H   0  0  0  0  0  0  0  0  0  0  0  0
  142.5263   81.8681  222.4712 H   0  0  0  0  0  0  0  0  0  0  0  0
  142.2683   81.0619  224.7936 H   0  0  0  0  0  0  0  0  0  0  0  0
  141.5663   78.7102  225.1668 H   0  0  0  0  0  0  0  0  0  0  0  0
  141.1346   77.2374  223.2961 H   0  0  0  0  0  0  0  0  0  0  0  0
  143.4209   77.7368  218.8941 H   0  0  0  0  0  0  0  0  0  0  0  0
  143.5436   78.7955  216.6862 H   0  0  0  0  0  0  0  0  0  0  0  0
  141.6602   80.0761  215.7457 H   0  0  0  0  0  0  0  0  0  0  0  0
  139.4350   79.2367  219.2911 H   0  0  0  0  0  0  0  0  0  0  0  0
  143.1003   73.5754  221.5921 H   0  0  0  0  0  0  0  0  0  0  0  0
  141.3833   73.2079  221.9666 H   0  0  0  0  0  0  0  0  0  0  0  0
  142.3316   71.3942  220.5537 H   0  0  0  0  0  0  0  0  0  0  0  0
  141.1119   72.2680  219.6146 H   0  0  0  0  0  0  0  0  0  0  0  0
  1  2  1  0
  2  3  1  0
  3  4  2  0
  3  5  1  0
  5  6  1  0
  6  7  2  0
  7  8  1  0
  8  9  2  0
  9 10  1  0
 10 11  2  0
  5 12  1  0
 12 13  1  0
 13 14  1  0
 14 15  1  0
 15 16  1  0
 16 17  2  0
 16 18  1  0
 18 19  1  0
 18 20  1  0
 20 21  1  0
 21 22  2  0
 22 23  1  0
 23 24  2  0
 24 25  1  0
 25 26  2  0
 20 27  1  0
 27 28  2  0
 28 29  1  0
 29 30  2  0
 30 31  1  0
 31 32  1  0
 31 33  2  0
 15 34  1  0
 34 35  1  0
 11  6  1  0
 35 12  1  0
 26 21  1  0
 33 27  1  0
  1 36  1  0
  1 37  1  0
  1 38  1  0
  2 39  1  0
  2 40  1  0
  7 41  1  0
  8 42  1  0
  9 43  1  0
 10 44  1  0
 11 45  1  0
 12 46  1  0
 13 47  1  0
 13 48  1  0
 14 49  1  0
 14 50  1  0
 18 51  1  6
 19 52  1  0
 19 53  1  0
 20 54  1  6
 22 55  1  0
 23 56  1  0
 24 57  1  0
 25 58  1  0
 26 59  1  0
 28 60  1  0
 29 61  1  0
 30 62  1  0
 33 63  1  0
 34 64  1  0
 34 65  1  0
 35 66  1  0
 35 67  1  0
M  END
>  <smiles>  (35) 
CCC(=O)N(c1ccccc1)C1CCN(C(=O)[C@@H](N)C(c2ccccc2)c2cccc(F)c2)CC1

>  <score_type>  (35) 
oracle

>  <origin>  (35) 
autodockgpu

>  <m_score__min__energy>  (35) 
-8.0600000000000005

>  <m_primary>  (35) 
energy

>  <rmsd>  (35) 
4.437026252093544

>  <m_score__min__rmsd>  (35) 
4.437026252093544

>  <meeko>  (35) 
{"free_energy": -7.36, "intermolecular_energy": -10.04, "internal_energy": -2.89, "cluster_size": 6, "cluster_id": 3, "rank_in_cluster": 2}

>  <energy>  (35) 
-7.12

>  <cluster_rmsd>  (35) 
0.0

>  <cluster>  (35) 
7

$$$$

     RDKit          3D

 67 70  0  0  0  0  0  0  0  0999 V2000
  135.0980   70.9800  224.6100 C   0  0  0  0  0  0  0  0  0  0  0  0
  136.5480   71.2470  224.2130 C   0  0  0  0  0  0  0  0  0  0  0  0
  137.2850   69.9880  224.3520 C   0  0  0  0  0  0  0  0  0  0  0  0
  136.6390   68.9200  224.5740 O   0  0  0  0  0  0  0  0  0  0  0  0
  138.7010   69.8700  224.2560 N   0  0  0  0  0  0  0  0  0  0  0  0
  139.4060   69.4740  225.4250 C   0  0  0  0  0  0  0  0  0  0  0  0
  139.5720   68.1340  225.7680 C   0  0  0  0  0  0  0  0  0  0  0  0
  140.2600   67.7770  226.9110 C   0  0  0  0  0  0  0  0  0  0  0  0
  140.7790   68.7790  227.7060 C   0  0  0  0  0  0  0  0  0  0  0  0
  140.6350   70.1180  227.4010 C   0  0  0  0  0  0  0  0  0  0  0  0
  139.9360   70.4590  226.2400 C   0  0  0  0  0  0  0  0  0  0  0  0
  139.3390   70.1530  222.9920 C   0  0  0  0  0  0  0  0  0  0  0  0
  140.3130   71.2620  223.2150 C   0  0  0  0  0  0  0  0  0  0  0  0
  140.9280   71.6250  221.8610 C   0  0  0  0  0  0  0  0  0  0  0  0
  139.8520   72.2180  221.0940 N   0  0  0  0  0  0  0  0  0  0  0  0
  139.9790   73.0260  219.9630 C   0  0  0  0  0  0  0  0  0  0  0  0
  138.8940   73.4760  219.4240 O   0  0  0  0  0  0  0  0  0  0  0  0
  141.2180   73.4520  219.2790 C   0  0  1  0  0  0  0  0  0  0  0  0
  141.0910   74.1200  218.0690 N   0  0  0  0  0  0  0  0  0  0  0  0
  142.1170   74.0500  220.3240 C   0  0  2  0  0  0  0  0  0  0  0  0
  141.7960   75.4040  220.7700 C   0  0  0  0  0  0  0  0  0  0  0  0
  142.2060   76.5560  220.0910 C   0  0  0  0  0  0  0  0  0  0  0  0
  141.8860   77.8220  220.5300 C   0  0  0  0  0  0  0  0  0  0  0  0
  141.1430   78.0160  221.6600 C   0  0  0  0  0  0  0  0  0  0  0  0
  140.7220   76.9100  222.3520 C   0  0  0  0  0  0  0  0  0  0  0  0
  141.0370   75.6620  221.9220 C   0  0  0  0  0  0  0  0  0  0  0  0
  143.5650   73.7940  220.1250 C   0  0  0  0  0  0  0  0  0  0  0  0
  144.1060   73.6000  218.8480 C   0  0  0  0  0  0  0  0  0  0  0  0
  145.4560   73.3650  218.6900 C   0  0  0  0  0  0  0  0  0  0  0  0
  146.3260   73.3060  219.7420 C   0  0  0  0  0  0  0  0  0  0  0  0
  145.8070   73.4960  221.0090 C   0  0  0  0  0  0  0  0  0  0  0  0
  146.6660   73.4420  222.0740 F   0  0  0  0  0  0  0  0  0  0  0  0
  144.4770   73.7280  221.1630 C   0  0  0  0  0  0  0  0  0  0  0  0
  138.5040   71.9180  221.5770 C   0  0  0  0  0  0  0  0  0  0  0  0
  138.3920   70.4150  221.8760 C   0  0  0  0  0  0  0  0  0  0  0  0
  135.0150   70.9647  225.7068 H   0  0  0  0  0  0  0  0  0  0  0  0
  134.4546   71.7748  224.2046 H   0  0  0  0  0  0  0  0  0  0  0  0
  134.7799   70.0082  224.2046 H   0  0  0  0  0  0  0  0  0  0  0  0
  136.5934   71.5949  223.1705 H   0  0  0  0  0  0  0  0  0  0  0  0
  136.9873   72.0245  224.8553 H   0  0  0  0  0  0  0  0  0  0  0  0
  139.1501   67.3510  225.1208 H   0  0  0  0  0  0  0  0  0  0  0  0
  140.3913   66.7189  227.1815 H   0  0  0  0  0  0  0  0  0  0  0  0
  141.3283   68.5001  228.6173 H   0  0  0  0  0  0  0  0  0  0  0  0
  141.0589   70.8950  228.0541 H   0  0  0  0  0  0  0  0  0  0  0  0
  139.8061   71.5179  225.9720 H   0  0  0  0  0  0  0  0  0  0  0  0
  139.8700   69.2522  222.6504 H   0  0  0  0  0  0  0  0  0  0  0  0
  139.7948   72.1358  223.6368 H   0  0  0  0  0  0  0  0  0  0  0  0
  141.0964   70.9488  223.9209 H   0  0  0  0  0  0  0  0  0  0  0  0
  141.7489   72.3453  221.9923 H   0  0  0  0  0  0  0  0  0  0  0  0
  141.3521   70.7445  221.3561 H   0  0  0  0  0  0  0  0  0  0  0  0
  141.7137   72.5683  218.8507 H   0  0  0  0  0  0  0  0  0  0  0  0
  141.7310   73.8990  217.3000 H   0  0  0  0  0  0  0  0  0  0  0  0
  140.1610   74.3630  217.7540 H   0  0  0  0  0  0  0  0  0  0  0  0
  141.8512   73.4503  221.2070 H   0  0  0  0  0  0  0  0  0  0  0  0
  142.8047   76.4474  219.1746 H   0  0  0  0  0  0  0  0  0  0  0  0
  142.2359   78.6946  219.9590 H   0  0  0  0  0  0  0  0  0  0  0  0
  140.8901   79.0296  222.0044 H   0  0  0  0  0  0  0  0  0  0  0  0
  140.1224   77.0355  223.2656 H   0  0  0  0  0  0  0  0  0  0  0  0
  140.6772   74.8044  222.5094 H   0  0  0  0  0  0  0  0  0  0  0  0
  143.4503   73.6352  217.9655 H   0  0  0  0  0  0  0  0  0  0  0  0
  145.8492   73.2188  217.6731 H   0  0  0  0  0  0  0  0  0  0  0  0
  147.3980   73.1147  219.5866 H   0  0  0  0  0  0  0  0  0  0  0  0
  144.0987   73.8736  222.1856 H   0  0  0  0  0  0  0  0  0  0  0  0
  138.3073   72.4906  222.4954 H   0  0  0  0  0  0  0  0  0  0  0  0
  137.7679   72.1956  220.8082 H   0  0  0  0  0  0  0  0  0  0  0  0
  137.3652   70.1596  222.1768 H   0  0  0  0  0  0  0  0  0  0  0  0
  138.6307   69.8070  220.9909 H   0  0  0  0  0  0  0  0  0  0  0  0
  1  2  1  0
  2  3  1  0
  3  4  2  0
  3  5  1  0
  5  6  1  0
  6  7  2  0
  7  8  1  0
  8  9  2  0
  9 10  1  0
 10 11  2  0
  5 12  1  0
 12 13  1  0
 13 14  1  0
 14 15  1  0
 15 16  1  0
 16 17  2  0
 16 18  1  0
 18 19  1  0
 18 20  1  0
 20 21  1  0
 21 22  2  0
 22 23  1  0
 23 24  2  0
 24 25  1  0
 25 26  2  0
 20 27  1  0
 27 28  2  0
 28 29  1  0
 29 30  2  0
 30 31  1  0
 31 32  1  0
 31 33  2  0
 15 34  1  0
 34 35  1  0
 11  6  1  0
 35 12  1  0
 26 21  1  0
 33 27  1  0
  1 36  1  0
  1 37  1  0
  1 38  1  0
  2 39  1  0
  2 40  1  0
  7 41  1  0
  8 42  1  0
  9 43  1  0
 10 44  1  0
 11 45  1  0
 12 46  1  0
 13 47  1  0
 13 48  1  0
 14 49  1  0
 14 50  1  0
 18 51  1  6
 19 52  1  0
 19 53  1  0
 20 54  1  1
 22 55  1  0
 23 56  1  0
 24 57  1  0
 25 58  1  0
 26 59  1  0
 28 60  1  0
 29 61  1  0
 30 62  1  0
 33 63  1  0
 34 64  1  0
 34 65  1  0
 35 66  1  0
 35 67  1  0
M  END
>  <smiles>  (36) 
CCC(=O)N(c1ccccc1)C1CCN(C(=O)[C@@H](N)C(c2ccccc2)c2cccc(F)c2)CC1

>  <score_type>  (36) 
oracle

>  <origin>  (36) 
autodockgpu

>  <m_score__min__energy>  (36) 
-8.0600000000000005

>  <m_primary>  (36) 
energy

>  <rmsd>  (36) 
6.438692982047725

>  <m_score__min__rmsd>  (36) 
6.438692982047725

>  <meeko>  (36) 
{"free_energy": -7.21, "intermolecular_energy": -9.9, "internal_energy": -2.88, "cluster_size": 14, "cluster_id": 2, "rank_in_cluster": 11}

>  <energy>  (36) 
-7.09

>  <cluster_rmsd>  (36) 
0.08

>  <cluster>  (36) 
7

$$$$

     RDKit          3D

 67 70  0  0  0  0  0  0  0  0999 V2000
  141.4330   81.3240  220.4640 C   0  0  0  0  0  0  0  0  0  0  0  0
  140.4610   82.1230  221.3280 C   0  0  0  0  0  0  0  0  0  0  0  0
  140.5170   81.5720  222.6850 C   0  0  0  0  0  0  0  0  0  0  0  0
  141.5460   81.7900  223.3930 O   0  0  0  0  0  0  0  0  0  0  0  0
  139.4850   80.7940  223.2810 N   0  0  0  0  0  0  0  0  0  0  0  0
  138.3050   81.4740  223.6900 C   0  0  0  0  0  0  0  0  0  0  0  0
  137.6380   82.3630  222.8500 C   0  0  0  0  0  0  0  0  0  0  0  0
  136.4940   83.0120  223.2730 C   0  0  0  0  0  0  0  0  0  0  0  0
  136.0290   82.7580  224.5480 C   0  0  0  0  0  0  0  0  0  0  0  0
  136.6620   81.8860  225.4100 C   0  0  0  0  0  0  0  0  0  0  0  0
  137.8170   81.2380  224.9630 C   0  0  0  0  0  0  0  0  0  0  0  0
  139.6850   79.3720  223.4350 C   0  0  0  0  0  0  0  0  0  0  0  0
  140.9290   79.0060  222.6970 C   0  0  0  0  0  0  0  0  0  0  0  0
  141.0970   77.4870  222.7840 C   0  0  0  0  0  0  0  0  0  0  0  0
  140.0160   76.9330  221.9950 N   0  0  0  0  0  0  0  0  0  0  0  0
  139.9410   75.6430  221.4690 C   0  0  0  0  0  0  0  0  0  0  0  0
  138.8950   75.3390  220.7730 O   0  0  0  0  0  0  0  0  0  0  0  0
  140.9230   74.5460  221.5990 C   0  0  1  0  0  0  0  0  0  0  0  0
  140.4850   73.3510  222.1540 N   0  0  0  0  0  0  0  0  0  0  0  0
  141.6920   74.4850  220.3110 C   0  0  2  0  0  0  0  0  0  0  0  0
  143.0150   73.8670  220.3640 C   0  0  0  0  0  0  0  0  0  0  0  0
  144.2030   74.5980  220.4740 C   0  0  0  0  0  0  0  0  0  0  0  0
  145.4380   73.9910  220.5270 C   0  0  0  0  0  0  0  0  0  0  0  0
  145.5660   72.6320  220.4760 C   0  0  0  0  0  0  0  0  0  0  0  0
  144.4240   71.8810  220.3680 C   0  0  0  0  0  0  0  0  0  0  0  0
  143.2060   72.4770  220.3140 C   0  0  0  0  0  0  0  0  0  0  0  0
  141.6180   75.7100  219.4780 C   0  0  0  0  0  0  0  0  0  0  0  0
  142.3270   76.8700  219.8170 C   0  0  0  0  0  0  0  0  0  0  0  0
  142.2420   77.9970  219.0260 C   0  0  0  0  0  0  0  0  0  0  0  0
  141.4800   78.0510  217.8930 C   0  0  0  0  0  0  0  0  0  0  0  0
  140.7750   76.9130  217.5440 C   0  0  0  0  0  0  0  0  0  0  0  0
  140.0080   76.9510  216.4110 F   0  0  0  0  0  0  0  0  0  0  0  0
  140.8600   75.8040  218.3250 C   0  0  0  0  0  0  0  0  0  0  0  0
  138.8980   77.8440  221.7430 C   0  0  0  0  0  0  0  0  0  0  0  0
  138.5080   78.5470  223.0530 C   0  0  0  0  0  0  0  0  0  0  0  0
  142.1200   80.7593  221.1114 H   0  0  0  0  0  0  0  0  0  0  0  0
  140.8694   80.6246  219.8290 H   0  0  0  0  0  0  0  0  0  0  0  0
  142.0101   82.0123  219.8290 H   0  0  0  0  0  0  0  0  0  0  0  0
  140.7552   83.1828  221.3413 H   0  0  0  0  0  0  0  0  0  0  0  0
  139.4398   82.0536  220.9251 H   0  0  0  0  0  0  0  0  0  0  0  0
  138.0267   82.5504  221.8382 H   0  0  0  0  0  0  0  0  0  0  0  0
  135.9666   83.7139  222.6102 H   0  0  0  0  0  0  0  0  0  0  0  0
  135.1181   83.2710  224.8901 H   0  0  0  0  0  0  0  0  0  0  0  0
  136.2684   81.7058  226.4212 H   0  0  0  0  0  0  0  0  0  0  0  0
  138.3415   80.5358  225.6277 H   0  0  0  0  0  0  0  0  0  0  0  0
  139.8047   79.1421  224.5040 H   0  0  0  0  0  0  0  0  0  0  0  0
  140.8432   79.3130  221.6442 H   0  0  0  0  0  0  0  0  0  0  0  0
  141.7997   79.5140  223.1374 H   0  0  0  0  0  0  0  0  0  0  0  0
  142.0699   77.1834  222.3702 H   0  0  0  0  0  0  0  0  0  0  0  0
  141.0668   77.1317  223.8246 H   0  0  0  0  0  0  0  0  0  0  0  0
  141.6216   74.7836  222.4148 H   0  0  0  0  0  0  0  0  0  0  0  0
  139.7630   73.3660  222.8810 H   0  0  0  0  0  0  0  0  0  0  0  0
  140.4240   72.5400  221.5530 H   0  0  0  0  0  0  0  0  0  0  0  0
  141.1129   73.7367  219.7500 H   0  0  0  0  0  0  0  0  0  0  0  0
  144.1486   75.6957  220.5197 H   0  0  0  0  0  0  0  0  0  0  0  0
  146.3407   74.6138  220.6122 H   0  0  0  0  0  0  0  0  0  0  0  0
  146.5559   72.1543  220.5203 H   0  0  0  0  0  0  0  0  0  0  0  0
  144.4958   70.7842  220.3247 H   0  0  0  0  0  0  0  0  0  0  0  0
  142.3176   71.8343  220.2260 H   0  0  0  0  0  0  0  0  0  0  0  0
  142.9554   76.8821  220.7197 H   0  0  0  0  0  0  0  0  0  0  0  0
  142.8122   78.8906  219.3200 H   0  0  0  0  0  0  0  0  0  0  0  0
  141.4291   78.9642  217.2819 H   0  0  0  0  0  0  0  0  0  0  0  0
  140.2849   74.9179  218.0182 H   0  0  0  0  0  0  0  0  0  0  0  0
  139.1978   78.5958  220.9981 H   0  0  0  0  0  0  0  0  0  0  0  0
  138.0380   77.2740  221.3614 H   0  0  0  0  0  0  0  0  0  0  0  0
  137.6264   79.1861  222.8972 H   0  0  0  0  0  0  0  0  0  0  0  0
  138.2480   77.8232  223.8395 H   0  0  0  0  0  0  0  0  0  0  0  0
  1  2  1  0
  2  3  1  0
  3  4  2  0
  3  5  1  0
  5  6  1  0
  6  7  2  0
  7  8  1  0
  8  9  2  0
  9 10  1  0
 10 11  2  0
  5 12  1  0
 12 13  1  0
 13 14  1  0
 14 15  1  0
 15 16  1  0
 16 17  2  0
 16 18  1  0
 18 19  1  0
 18 20  1  0
 20 21  1  0
 21 22  2  0
 22 23  1  0
 23 24  2  0
 24 25  1  0
 25 26  2  0
 20 27  1  0
 27 28  2  0
 28 29  1  0
 29 30  2  0
 30 31  1  0
 31 32  1  0
 31 33  2  0
 15 34  1  0
 34 35  1  0
 11  6  1  0
 35 12  1  0
 26 21  1  0
 33 27  1  0
  1 36  1  0
  1 37  1  0
  1 38  1  0
  2 39  1  0
  2 40  1  0
  7 41  1  0
  8 42  1  0
  9 43  1  0
 10 44  1  0
 11 45  1  0
 12 46  1  0
 13 47  1  0
 13 48  1  0
 14 49  1  0
 14 50  1  0
 18 51  1  1
 19 52  1  0
 19 53  1  0
 20 54  1  6
 22 55  1  0
 23 56  1  0
 24 57  1  0
 25 58  1  0
 26 59  1  0
 28 60  1  0
 29 61  1  0
 30 62  1  0
 33 63  1  0
 34 64  1  0
 34 65  1  0
 35 66  1  0
 35 67  1  0
M  END
>  <smiles>  (37) 
CCC(=O)N(c1ccccc1)C1CCN(C(=O)[C@@H](N)C(c2ccccc2)c2cccc(F)c2)CC1

>  <score_type>  (37) 
oracle

>  <origin>  (37) 
autodockgpu

>  <m_score__min__energy>  (37) 
-8.0600000000000005

>  <m_primary>  (37) 
energy

>  <rmsd>  (37) 
6.889298803096035

>  <m_score__min__rmsd>  (37) 
6.889298803096035

>  <meeko>  (37) 
{"free_energy": -6.96, "intermolecular_energy": -9.65, "internal_energy": -2.76, "cluster_size": 1, "cluster_id": 9, "rank_in_cluster": 1}

>  <energy>  (37) 
-7.09

>  <cluster_rmsd>  (37) 
0.13

>  <cluster>  (37) 
7

$$$$

     RDKit          3D

 67 70  0  0  0  0  0  0  0  0999 V2000
  143.8970   75.5630  216.7720 C   0  0  0  0  0  0  0  0  0  0  0  0
  142.8780   76.4690  217.4590 C   0  0  0  0  0  0  0  0  0  0  0  0
  142.1270   75.6490  218.4140 C   0  0  0  0  0  0  0  0  0  0  0  0
  141.1110   75.0090  218.0070 O   0  0  0  0  0  0  0  0  0  0  0  0
  142.4570   75.5150  219.7920 N   0  0  0  0  0  0  0  0  0  0  0  0
  143.4110   74.5190  220.1430 C   0  0  0  0  0  0  0  0  0  0  0  0
  143.0810   73.1670  220.1910 C   0  0  0  0  0  0  0  0  0  0  0  0
  144.0260   72.2210  220.5360 C   0  0  0  0  0  0  0  0  0  0  0  0
  145.3050   72.6480  220.8340 C   0  0  0  0  0  0  0  0  0  0  0  0
  145.6700   73.9780  220.8000 C   0  0  0  0  0  0  0  0  0  0  0  0
  144.7000   74.9210  220.4470 C   0  0  0  0  0  0  0  0  0  0  0  0
  141.8180   76.3860  220.7500 C   0  0  0  0  0  0  0  0  0  0  0  0
  140.4890   75.7930  221.0840 C   0  0  0  0  0  0  0  0  0  0  0  0
  139.7710   76.7580  222.0320 C   0  0  0  0  0  0  0  0  0  0  0  0
  139.4700   77.9290  221.2350 N   0  0  0  0  0  0  0  0  0  0  0  0
  138.5250   78.9150  221.5220 C   0  0  0  0  0  0  0  0  0  0  0  0
  138.3900   79.8810  220.6750 O   0  0  0  0  0  0  0  0  0  0  0  0
  137.6300   79.0080  222.6950 C   0  0  1  0  0  0  0  0  0  0  0  0
  136.9580   77.8580  223.0880 N   0  0  0  0  0  0  0  0  0  0  0  0
  138.3610   79.7910  223.7480 C   0  0  2  0  0  0  0  0  0  0  0  0
  137.6310   80.8910  224.3740 C   0  0  0  0  0  0  0  0  0  0  0  0
  137.3350   80.9410  225.7410 C   0  0  0  0  0  0  0  0  0  0  0  0
  136.6500   81.9920  226.3080 C   0  0  0  0  0  0  0  0  0  0  0  0
  136.2220   83.0500  225.5560 C   0  0  0  0  0  0  0  0  0  0  0  0
  136.4930   83.0370  224.2120 C   0  0  0  0  0  0  0  0  0  0  0  0
  137.1680   82.0020  223.6520 C   0  0  0  0  0  0  0  0  0  0  0  0
  139.7790   80.0920  223.4330 C   0  0  0  0  0  0  0  0  0  0  0  0
  140.8170   79.2490  223.8490 C   0  0  0  0  0  0  0  0  0  0  0  0
  142.1270   79.5510  223.5430 C   0  0  0  0  0  0  0  0  0  0  0  0
  142.4860   80.6630  222.8350 C   0  0  0  0  0  0  0  0  0  0  0  0
  141.4720   81.5060  222.4160 C   0  0  0  0  0  0  0  0  0  0  0  0
  141.8140   82.6240  221.7050 F   0  0  0  0  0  0  0  0  0  0  0  0
  140.1810   81.2070  222.7190 C   0  0  0  0  0  0  0  0  0  0  0  0
  140.2570   78.0680  220.0090 C   0  0  0  0  0  0  0  0  0  0  0  0
  141.7390   77.8070  220.3220 C   0  0  0  0  0  0  0  0  0  0  0  0
  144.4905   75.0354  217.5332 H   0  0  0  0  0  0  0  0  0  0  0  0
  143.3706   74.8292  216.1439 H   0  0  0  0  0  0  0  0  0  0  0  0
  144.5641   76.1717  216.1439 H   0  0  0  0  0  0  0  0  0  0  0  0
  143.3962   77.2817  217.9890 H   0  0  0  0  0  0  0  0  0  0  0  0
  142.1995   76.9176  216.7185 H   0  0  0  0  0  0  0  0  0  0  0  0
  142.0556   72.8489  219.9513 H   0  0  0  0  0  0  0  0  0  0  0  0
  143.7661   71.1528  220.5726 H   0  0  0  0  0  0  0  0  0  0  0  0
  146.0620   71.8988  221.1091 H   0  0  0  0  0  0  0  0  0  0  0  0
  146.6967   74.2882  221.0441 H   0  0  0  0  0  0  0  0  0  0  0  0
  144.9628   75.9885  220.4107 H   0  0  0  0  0  0  0  0  0  0  0  0
  142.4406   76.4410  221.6551 H   0  0  0  0  0  0  0  0  0  0  0  0
  139.8972   75.6602  220.1663 H   0  0  0  0  0  0  0  0  0  0  0  0
  140.6157   74.8095  221.5602 H   0  0  0  0  0  0  0  0  0  0  0  0
  138.8446   76.3041  222.4139 H   0  0  0  0  0  0  0  0  0  0  0  0
  140.3894   77.0071  222.9069 H   0  0  0  0  0  0  0  0  0  0  0  0
  136.7221   79.5600  222.4105 H   0  0  0  0  0  0  0  0  0  0  0  0
  136.1220   77.5620  222.5750 H   0  0  0  0  0  0  0  0  0  0  0  0
  137.5050   77.0810  223.4350 H   0  0  0  0  0  0  0  0  0  0  0  0
  138.4123   79.0577  224.5664 H   0  0  0  0  0  0  0  0  0  0  0  0
  137.6613   80.1112  226.3852 H   0  0  0  0  0  0  0  0  0  0  0  0
  136.4429   81.9800  227.3883 H   0  0  0  0  0  0  0  0  0  0  0  0
  135.6762   83.8873  226.0155 H   0  0  0  0  0  0  0  0  0  0  0  0
  136.1597   83.8744  223.5814 H   0  0  0  0  0  0  0  0  0  0  0  0
  137.3637   82.0354  222.5701 H   0  0  0  0  0  0  0  0  0  0  0  0
  140.5857   78.3400  224.4236 H   0  0  0  0  0  0  0  0  0  0  0  0
  142.9178   78.8666  223.8838 H   0  0  0  0  0  0  0  0  0  0  0  0
  143.5401   80.8796  222.6070 H   0  0  0  0  0  0  0  0  0  0  0  0
  139.4008   81.9004  222.3720 H   0  0  0  0  0  0  0  0  0  0  0  0
  139.9057   77.3402  219.2628 H   0  0  0  0  0  0  0  0  0  0  0  0
  140.1393   79.0863  219.6100 H   0  0  0  0  0  0  0  0  0  0  0  0
  142.3547   77.9719  219.4255 H   0  0  0  0  0  0  0  0  0  0  0  0
  142.1139   78.4862  221.1018 H   0  0  0  0  0  0  0  0  0  0  0  0
  1  2  1  0
  2  3  1  0
  3  4  2  0
  3  5  1  0
  5  6  1  0
  6  7  2  0
  7  8  1  0
  8  9  2  0
  9 10  1  0
 10 11  2  0
  5 12  1  0
 12 13  1  0
 13 14  1  0
 14 15  1  0
 15 16  1  0
 16 17  2  0
 16 18  1  0
 18 19  1  0
 18 20  1  0
 20 21  1  0
 21 22  2  0
 22 23  1  0
 23 24  2  0
 24 25  1  0
 25 26  2  0
 20 27  1  0
 27 28  2  0
 28 29  1  0
 29 30  2  0
 30 31  1  0
 31 32  1  0
 31 33  2  0
 15 34  1  0
 34 35  1  0
 11  6  1  0
 35 12  1  0
 26 21  1  0
 33 27  1  0
  1 36  1  0
  1 37  1  0
  1 38  1  0
  2 39  1  0
  2 40  1  0
  7 41  1  0
  8 42  1  0
  9 43  1  0
 10 44  1  0
 11 45  1  0
 12 46  1  0
 13 47  1  0
 13 48  1  0
 14 49  1  0
 14 50  1  0
 18 51  1  6
 19 52  1  0
 19 53  1  0
 20 54  1  1
 22 55  1  0
 23 56  1  0
 24 57  1  0
 25 58  1  0
 26 59  1  0
 28 60  1  0
 29 61  1  0
 30 62  1  0
 33 63  1  0
 34 64  1  0
 34 65  1  0
 35 66  1  0
 35 67  1  0
M  END
>  <smiles>  (38) 
CCC(=O)N(c1ccccc1)C1CCN(C(=O)[C@@H](N)C(c2ccccc2)c2cccc(F)c2)CC1

>  <score_type>  (38) 
oracle

>  <origin>  (38) 
autodockgpu

>  <m_score__min__energy>  (38) 
-8.0600000000000005

>  <m_primary>  (38) 
energy

>  <rmsd>  (38) 
4.750341208176

>  <m_score__min__rmsd>  (38) 
4.750341208176

>  <meeko>  (38) 
{"free_energy": -7.04, "intermolecular_energy": -9.73, "internal_energy": -2.87, "cluster_size": 11, "cluster_id": 7, "rank_in_cluster": 5}

>  <energy>  (38) 
-7.05

>  <cluster_rmsd>  (38) 
1.09

>  <cluster>  (38) 
7

$$$$

     RDKit          3D

 67 70  0  0  0  0  0  0  0  0999 V2000
  135.2170   69.9470  225.3060 C   0  0  0  0  0  0  0  0  0  0  0  0
  136.5370   69.2780  224.9340 C   0  0  0  0  0  0  0  0  0  0  0  0
  137.4810   70.3350  224.5610 C   0  0  0  0  0  0  0  0  0  0  0  0
  137.0290   71.4700  224.2210 O   0  0  0  0  0  0  0  0  0  0  0  0
  138.8970   70.1830  224.5510 N   0  0  0  0  0  0  0  0  0  0  0  0
  139.5280   69.8480  225.7800 C   0  0  0  0  0  0  0  0  0  0  0  0
  140.0810   70.8180  226.6140 C   0  0  0  0  0  0  0  0  0  0  0  0
  140.6890   70.4650  227.8020 C   0  0  0  0  0  0  0  0  0  0  0  0
  140.7380   69.1290  228.1440 C   0  0  0  0  0  0  0  0  0  0  0  0
  140.2040   68.1380  227.3450 C   0  0  0  0  0  0  0  0  0  0  0  0
  139.5910   68.5150  226.1470 C   0  0  0  0  0  0  0  0  0  0  0  0
  139.6090   70.3700  223.3090 C   0  0  0  0  0  0  0  0  0  0  0  0
  140.3690   71.6510  223.4110 C   0  0  0  0  0  0  0  0  0  0  0  0
  141.0540   71.8990  222.0650 C   0  0  0  0  0  0  0  0  0  0  0  0
  139.9830   72.1710  221.1300 N   0  0  0  0  0  0  0  0  0  0  0  0
  140.0960   72.8030  219.8910 C   0  0  0  0  0  0  0  0  0  0  0  0
  139.0140   72.9710  219.2030 O   0  0  0  0  0  0  0  0  0  0  0  0
  141.3160   73.3230  219.2390 C   0  0  1  0  0  0  0  0  0  0  0  0
  141.1680   73.9960  218.0340 N   0  0  0  0  0  0  0  0  0  0  0  0
  142.1480   73.9710  220.3100 C   0  0  2  0  0  0  0  0  0  0  0  0
  141.8990   75.3870  220.5690 C   0  0  0  0  0  0  0  0  0  0  0  0
  141.1600   75.8520  221.6630 C   0  0  0  0  0  0  0  0  0  0  0  0
  140.9440   77.1930  221.8880 C   0  0  0  0  0  0  0  0  0  0  0  0
  141.4460   78.1460  221.0470 C   0  0  0  0  0  0  0  0  0  0  0  0
  142.1750   77.7290  219.9640 C   0  0  0  0  0  0  0  0  0  0  0  0
  142.3890   76.4070  219.7400 C   0  0  0  0  0  0  0  0  0  0  0  0
  143.5810   73.5880  220.3070 C   0  0  0  0  0  0  0  0  0  0  0  0
  144.5670   74.4390  220.8230 C   0  0  0  0  0  0  0  0  0  0  0  0
  145.8930   74.0590  220.8090 C   0  0  0  0  0  0  0  0  0  0  0  0
  146.3160   72.8620  220.3050 C   0  0  0  0  0  0  0  0  0  0  0  0
  145.3540   72.0100  219.7930 C   0  0  0  0  0  0  0  0  0  0  0  0
  145.7620   70.8070  219.2850 F   0  0  0  0  0  0  0  0  0  0  0  0
  144.0480   72.3860  219.8070 C   0  0  0  0  0  0  0  0  0  0  0  0
  138.6560   71.7240  221.5550 C   0  0  0  0  0  0  0  0  0  0  0  0
  138.7510   70.2890  222.0970 C   0  0  0  0  0  0  0  0  0  0  0  0
  135.1253   69.9935  226.4012 H   0  0  0  0  0  0  0  0  0  0  0  0
  135.1931   70.9660  224.8925 H   0  0  0  0  0  0  0  0  0  0  0  0
  134.3810   69.3638  224.8925 H   0  0  0  0  0  0  0  0  0  0  0  0
  136.9267   68.7137  225.7940 H   0  0  0  0  0  0  0  0  0  0  0  0
  136.3925   68.5773  224.0985 H   0  0  0  0  0  0  0  0  0  0  0  0
  140.0324   71.8775  226.3222 H   0  0  0  0  0  0  0  0  0  0  0  0
  141.1243   71.2309  228.4607 H   0  0  0  0  0  0  0  0  0  0  0  0
  141.2212   68.8427  229.0898 H   0  0  0  0  0  0  0  0  0  0  0  0
  140.2594   67.0806  227.6431 H   0  0  0  0  0  0  0  0  0  0  0  0
  139.1555   67.7468  225.4911 H   0  0  0  0  0  0  0  0  0  0  0  0
  140.3069   69.5316  223.1677 H   0  0  0  0  0  0  0  0  0  0  0  0
  139.6797   72.4777  223.6376 H   0  0  0  0  0  0  0  0  0  0  0  0
  141.1160   71.5907  224.2162 H   0  0  0  0  0  0  0  0  0  0  0  0
  141.7335   72.7614  222.1326 H   0  0  0  0  0  0  0  0  0  0  0  0
  141.6606   71.0368  221.7509 H   0  0  0  0  0  0  0  0  0  0  0  0
  141.8811   72.4811  218.8126 H   0  0  0  0  0  0  0  0  0  0  0  0
  140.2370   74.0790  217.6130 H   0  0  0  0  0  0  0  0  0  0  0  0
  141.7520   74.8030  217.8630 H   0  0  0  0  0  0  0  0  0  0  0  0
  141.7398   73.4990  221.2159 H   0  0  0  0  0  0  0  0  0  0  0  0
  140.7371   75.1206  222.3674 H   0  0  0  0  0  0  0  0  0  0  0  0
  140.3548   77.5039  222.7633 H   0  0  0  0  0  0  0  0  0  0  0  0
  141.2702   79.2157  221.2337 H   0  0  0  0  0  0  0  0  0  0  0  0
  142.5911   78.4731  219.2689 H   0  0  0  0  0  0  0  0  0  0  0  0
  142.9804   76.1195  218.8582 H   0  0  0  0  0  0  0  0  0  0  0  0
  144.2823   75.4156  221.2416 H   0  0  0  0  0  0  0  0  0  0  0  0
  146.6426   74.7502  221.2218 H   0  0  0  0  0  0  0  0  0  0  0  0
  147.3808   72.5861  220.3062 H   0  0  0  0  0  0  0  0  0  0  0  0
  143.3099   71.6844  219.3911 H   0  0  0  0  0  0  0  0  0  0  0  0
  138.2795   72.3906  222.3449 H   0  0  0  0  0  0  0  0  0  0  0  0
  137.9676   71.7484  220.6974 H   0  0  0  0  0  0  0  0  0  0  0  0
  137.7517   69.9117  222.3596 H   0  0  0  0  0  0  0  0  0  0  0  0
  139.1708   69.6005  221.3489 H   0  0  0  0  0  0  0  0  0  0  0  0
  1  2  1  0
  2  3  1  0
  3  4  2  0
  3  5  1  0
  5  6  1  0
  6  7  2  0
  7  8  1  0
  8  9  2  0
  9 10  1  0
 10 11  2  0
  5 12  1  0
 12 13  1  0
 13 14  1  0
 14 15  1  0
 15 16  1  0
 16 17  2  0
 16 18  1  0
 18 19  1  0
 18 20  1  0
 20 21  1  0
 21 22  2  0
 22 23  1  0
 23 24  2  0
 24 25  1  0
 25 26  2  0
 20 27  1  0
 27 28  2  0
 28 29  1  0
 29 30  2  0
 30 31  1  0
 31 32  1  0
 31 33  2  0
 15 34  1  0
 34 35  1  0
 11  6  1  0
 35 12  1  0
 26 21  1  0
 33 27  1  0
  1 36  1  0
  1 37  1  0
  1 38  1  0
  2 39  1  0
  2 40  1  0
  7 41  1  0
  8 42  1  0
  9 43  1  0
 10 44  1  0
 11 45  1  0
 12 46  1  0
 13 47  1  0
 13 48  1  0
 14 49  1  0
 14 50  1  0
 18 51  1  6
 19 52  1  0
 19 53  1  0
 20 54  1  1
 22 55  1  0
 23 56  1  0
 24 57  1  0
 25 58  1  0
 26 59  1  0
 28 60  1  0
 29 61  1  0
 30 62  1  0
 33 63  1  0
 34 64  1  0
 34 65  1  0
 35 66  1  0
 35 67  1  0
M  END
>  <smiles>  (39) 
CCC(=O)N(c1ccccc1)C1CCN(C(=O)[C@@H](N)C(c2ccccc2)c2cccc(F)c2)CC1

>  <score_type>  (39) 
oracle

>  <origin>  (39) 
autodockgpu

>  <m_score__min__energy>  (39) 
-8.0600000000000005

>  <m_primary>  (39) 
energy

>  <rmsd>  (39) 
6.5776615767860624

>  <m_score__min__rmsd>  (39) 
6.5776615767860624

>  <meeko>  (39) 
{"free_energy": -7.45, "intermolecular_energy": -10.14, "internal_energy": -2.83, "cluster_size": 14, "cluster_id": 2, "rank_in_cluster": 1}

>  <energy>  (39) 
-7.04

>  <cluster_rmsd>  (39) 
0.24

>  <cluster>  (39) 
7

$$$$

     RDKit          3D

 67 70  0  0  0  0  0  0  0  0999 V2000
  142.6120   80.3420  218.2210 C   0  0  0  0  0  0  0  0  0  0  0  0
  141.5450   79.2510  218.2760 C   0  0  0  0  0  0  0  0  0  0  0  0
  141.9550   78.2800  219.2940 C   0  0  0  0  0  0  0  0  0  0  0  0
  142.9810   77.5640  219.0820 O   0  0  0  0  0  0  0  0  0  0  0  0
  141.2760   78.0720  220.5280 N   0  0  0  0  0  0  0  0  0  0  0  0
  141.4190   79.0720  221.5300 C   0  0  0  0  0  0  0  0  0  0  0  0
  140.4710   80.0760  221.7110 C   0  0  0  0  0  0  0  0  0  0  0  0
  140.6350   81.0350  222.6920 C   0  0  0  0  0  0  0  0  0  0  0  0
  141.7620   80.9740  223.4870 C   0  0  0  0  0  0  0  0  0  0  0  0
  142.7240   79.9970  223.3390 C   0  0  0  0  0  0  0  0  0  0  0  0
  142.5400   79.0340  222.3410 C   0  0  0  0  0  0  0  0  0  0  0  0
  140.4860   76.8760  220.6960 C   0  0  0  0  0  0  0  0  0  0  0  0
  140.3230   76.6430  222.1620 C   0  0  0  0  0  0  0  0  0  0  0  0
  139.5610   75.3280  222.3450 C   0  0  0  0  0  0  0  0  0  0  0  0
  140.4680   74.2910  221.8990 N   0  0  0  0  0  0  0  0  0  0  0  0
  140.3940   72.9300  222.1990 C   0  0  0  0  0  0  0  0  0  0  0  0
  141.3130   72.1590  221.7170 O   0  0  0  0  0  0  0  0  0  0  0  0
  139.3810   72.2290  223.0160 C   0  0  1  0  0  0  0  0  0  0  0  0
  138.0550   72.3170  222.6160 N   0  0  0  0  0  0  0  0  0  0  0  0
  139.9330   70.8680  223.3320 C   0  0  2  0  0  0  0  0  0  0  0  0
  139.2680   69.7280  222.7050 C   0  0  0  0  0  0  0  0  0  0  0  0
  139.7480   69.0930  221.5550 C   0  0  0  0  0  0  0  0  0  0  0  0
  139.1050   68.0160  220.9860 C   0  0  0  0  0  0  0  0  0  0  0  0
  137.9560   67.5080  221.5230 C   0  0  0  0  0  0  0  0  0  0  0  0
  137.4540   68.1040  222.6520 C   0  0  0  0  0  0  0  0  0  0  0  0
  138.0860   69.1660  223.2130 C   0  0  0  0  0  0  0  0  0  0  0  0
  140.3080   70.6580  224.7520 C   0  0  0  0  0  0  0  0  0  0  0  0
  140.6980   71.7250  225.5720 C   0  0  0  0  0  0  0  0  0  0  0  0
  141.0420   71.5040  226.8890 C   0  0  0  0  0  0  0  0  0  0  0  0
  141.0250   70.2630  227.4610 C   0  0  0  0  0  0  0  0  0  0  0  0
  140.6410   69.2000  226.6650 C   0  0  0  0  0  0  0  0  0  0  0  0
  140.6180   67.9500  227.2230 F   0  0  0  0  0  0  0  0  0  0  0  0
  140.3030   69.4190  225.3670 C   0  0  0  0  0  0  0  0  0  0  0  0
  141.5650   74.7470  221.0440 C   0  0  0  0  0  0  0  0  0  0  0  0
  141.0120   75.6920  219.9660 C   0  0  0  0  0  0  0  0  0  0  0  0
  142.8943   80.6307  219.2442 H   0  0  0  0  0  0  0  0  0  0  0  0
  143.4973   79.9626  217.6896 H   0  0  0  0  0  0  0  0  0  0  0  0
  142.2130   81.2186  217.6896 H   0  0  0  0  0  0  0  0  0  0  0  0
  140.5734   79.6901  218.5465 H   0  0  0  0  0  0  0  0  0  0  0  0
  141.4418   78.7623  217.2959 H   0  0  0  0  0  0  0  0  0  0  0  0
  139.5810   80.1059  221.0652 H   0  0  0  0  0  0  0  0  0  0  0  0
  139.8860   81.8276  222.8360 H   0  0  0  0  0  0  0  0  0  0  0  0
  141.8981   81.7349  224.2696 H   0  0  0  0  0  0  0  0  0  0  0  0
  143.6119   79.9755  223.9880 H   0  0  0  0  0  0  0  0  0  0  0  0
  143.2904   78.2422  222.2000 H   0  0  0  0  0  0  0  0  0  0  0  0
  139.5013   77.0295  220.2305 H   0  0  0  0  0  0  0  0  0  0  0  0
  141.3104   76.5732  222.6418 H   0  0  0  0  0  0  0  0  0  0  0  0
  139.7708   77.4746  222.6241 H   0  0  0  0  0  0  0  0  0  0  0  0
  139.2979   75.1800  223.4028 H   0  0  0  0  0  0  0  0  0  0  0  0
  138.6193   75.3191  221.7766 H   0  0  0  0  0  0  0  0  0  0  0  0
  139.2358   72.7789  223.9575 H   0  0  0  0  0  0  0  0  0  0  0  0
  137.4160   72.9430  223.1180 H   0  0  0  0  0  0  0  0  0  0  0  0
  137.8490   72.2510  221.6290 H   0  0  0  0  0  0  0  0  0  0  0  0
  140.8935   70.8946  222.7965 H   0  0  0  0  0  0  0  0  0  0  0  0
  140.6714   69.4668  221.0886 H   0  0  0  0  0  0  0  0  0  0  0  0
  139.5255   67.5551  220.0800 H   0  0  0  0  0  0  0  0  0  0  0  0
  137.4486   66.6468  221.0638 H   0  0  0  0  0  0  0  0  0  0  0  0
  136.5302   67.7174  223.1071 H   0  0  0  0  0  0  0  0  0  0  0  0
  137.6469   69.6120  224.1176 H   0  0  0  0  0  0  0  0  0  0  0  0
  140.7300   72.7455  225.1627 H   0  0  0  0  0  0  0  0  0  0  0  0
  141.3431   72.3637  227.5057 H   0  0  0  0  0  0  0  0  0  0  0  0
  141.3060   70.1156  228.5142 H   0  0  0  0  0  0  0  0  0  0  0  0
  140.0044   68.5496  224.7629 H   0  0  0  0  0  0  0  0  0  0  0  0
  142.3084   75.2811  221.6541 H   0  0  0  0  0  0  0  0  0  0  0  0
  142.0416   73.8798  220.5635 H   0  0  0  0  0  0  0  0  0  0  0  0
  141.8120   75.9932  219.2737 H   0  0  0  0  0  0  0  0  0  0  0  0
  140.2291   75.2064  219.3650 H   0  0  0  0  0  0  0  0  0  0  0  0
  1  2  1  0
  2  3  1  0
  3  4  2  0
  3  5  1  0
  5  6  1  0
  6  7  2  0
  7  8  1  0
  8  9  2  0
  9 10  1  0
 10 11  2  0
  5 12  1  0
 12 13  1  0
 13 14  1  0
 14 15  1  0
 15 16  1  0
 16 17  2  0
 16 18  1  0
 18 19  1  0
 18 20  1  0
 20 21  1  0
 21 22  2  0
 22 23  1  0
 23 24  2  0
 24 25  1  0
 25 26  2  0
 20 27  1  0
 27 28  2  0
 28 29  1  0
 29 30  2  0
 30 31  1  0
 31 32  1  0
 31 33  2  0
 15 34  1  0
 34 35  1  0
 11  6  1  0
 35 12  1  0
 26 21  1  0
 33 27  1  0
  1 36  1  0
  1 37  1  0
  1 38  1  0
  2 39  1  0
  2 40  1  0
  7 41  1  0
  8 42  1  0
  9 43  1  0
 10 44  1  0
 11 45  1  0
 12 46  1  0
 13 47  1  0
 13 48  1  0
 14 49  1  0
 14 50  1  0
 18 51  1  1
 19 52  1  0
 19 53  1  0
 20 54  1  6
 22 55  1  0
 23 56  1  0
 24 57  1  0
 25 58  1  0
 26 59  1  0
 28 60  1  0
 29 61  1  0
 30 62  1  0
 33 63  1  0
 34 64  1  0
 34 65  1  0
 35 66  1  0
 35 67  1  0
M  END
>  <smiles>  (40) 
CCC(=O)N(c1ccccc1)C1CCN(C(=O)[C@@H](N)C(c2ccccc2)c2cccc(F)c2)CC1

>  <score_type>  (40) 
oracle

>  <origin>  (40) 
autodockgpu

>  <m_score__min__energy>  (40) 
-8.0600000000000005

>  <m_primary>  (40) 
energy

>  <rmsd>  (40) 
8.79520912505792

>  <m_score__min__rmsd>  (40) 
8.79520912505792

>  <meeko>  (40) 
{"free_energy": -7.94, "intermolecular_energy": -10.62, "internal_energy": -2.23, "cluster_size": 7, "cluster_id": 1, "rank_in_cluster": 5}

>  <energy>  (40) 
-7.04

>  <cluster_rmsd>  (40) 
1.16

>  <cluster>  (40) 
7

$$$$

     RDKit          3D

 67 70  0  0  0  0  0  0  0  0999 V2000
  141.3090   78.0410  217.3540 C   0  0  0  0  0  0  0  0  0  0  0  0
  142.5180   78.4520  218.1900 C   0  0  0  0  0  0  0  0  0  0  0  0
  142.5310   77.6140  219.3930 C   0  0  0  0  0  0  0  0  0  0  0  0
  143.4660   76.7710  219.5430 O   0  0  0  0  0  0  0  0  0  0  0  0
  141.5530   77.6740  220.4260 N   0  0  0  0  0  0  0  0  0  0  0  0
  141.5020   78.8590  221.2110 C   0  0  0  0  0  0  0  0  0  0  0  0
  140.5830   79.8740  220.9560 C   0  0  0  0  0  0  0  0  0  0  0  0
  140.5560   81.0150  221.7340 C   0  0  0  0  0  0  0  0  0  0  0  0
  141.4620   81.1250  222.7700 C   0  0  0  0  0  0  0  0  0  0  0  0
  142.3880   80.1420  223.0540 C   0  0  0  0  0  0  0  0  0  0  0  0
  142.3990   78.9950  222.2560 C   0  0  0  0  0  0  0  0  0  0  0  0
  140.6730   76.5460  220.6190 C   0  0  0  0  0  0  0  0  0  0  0  0
  140.4570   76.3870  222.0880 C   0  0  0  0  0  0  0  0  0  0  0  0
  139.5970   75.1390  222.3030 C   0  0  0  0  0  0  0  0  0  0  0  0
  140.4360   74.0210  221.9230 N   0  0  0  0  0  0  0  0  0  0  0  0
  140.2550   72.6830  222.2750 C   0  0  0  0  0  0  0  0  0  0  0  0
  141.1260   71.8280  221.8500 O   0  0  0  0  0  0  0  0  0  0  0  0
  139.1730   72.0920  223.0910 C   0  0  1  0  0  0  0  0  0  0  0  0
  137.8650   72.2940  222.6740 N   0  0  0  0  0  0  0  0  0  0  0  0
  139.5940   70.6910  223.4350 C   0  0  2  0  0  0  0  0  0  0  0  0
  138.7640   69.6080  222.9130 C   0  0  0  0  0  0  0  0  0  0  0  0
  139.2200   68.6680  221.9830 C   0  0  0  0  0  0  0  0  0  0  0  0
  138.4190   67.6520  221.5100 C   0  0  0  0  0  0  0  0  0  0  0  0
  137.1260   67.5120  221.9300 C   0  0  0  0  0  0  0  0  0  0  0  0
  136.6430   68.4150  222.8410 C   0  0  0  0  0  0  0  0  0  0  0  0
  137.4310   69.4170  223.3080 C   0  0  0  0  0  0  0  0  0  0  0  0
  140.0480   70.5000  224.8340 C   0  0  0  0  0  0  0  0  0  0  0  0
  139.9540   69.2550  225.4710 C   0  0  0  0  0  0  0  0  0  0  0  0
  140.3830   69.1020  226.7720 C   0  0  0  0  0  0  0  0  0  0  0  0
  140.9130   70.1280  227.5030 C   0  0  0  0  0  0  0  0  0  0  0  0
  141.0130   71.3630  226.8890 C   0  0  0  0  0  0  0  0  0  0  0  0
  141.5420   72.4010  227.6080 F   0  0  0  0  0  0  0  0  0  0  0  0
  140.5890   71.5120  225.6060 C   0  0  0  0  0  0  0  0  0  0  0  0
  141.5840   74.3610  221.0820 C   0  0  0  0  0  0  0  0  0  0  0  0
  141.1290   75.2980  219.9520 C   0  0  0  0  0  0  0  0  0  0  0  0
  140.4807   77.7594  218.0208 H   0  0  0  0  0  0  0  0  0  0  0  0
  140.9984   78.8840  216.7193 H   0  0  0  0  0  0  0  0  0  0  0  0
  141.5766   77.1833  216.7193 H   0  0  0  0  0  0  0  0  0  0  0  0
  143.4424   78.2963  217.6144 H   0  0  0  0  0  0  0  0  0  0  0  0
  142.4562   79.5162  218.4613 H   0  0  0  0  0  0  0  0  0  0  0  0
  139.8702   79.7657  220.1252 H   0  0  0  0  0  0  0  0  0  0  0  0
  139.8302   81.8167  221.5330 H   0  0  0  0  0  0  0  0  0  0  0  0
  141.4451   82.0313  223.3932 H   0  0  0  0  0  0  0  0  0  0  0  0
  143.0982   80.2582  223.8860 H   0  0  0  0  0  0  0  0  0  0  0  0
  143.1256   78.1947  222.4598 H   0  0  0  0  0  0  0  0  0  0  0  0
  139.7141   76.7505  220.1202 H   0  0  0  0  0  0  0  0  0  0  0  0
  141.4245   76.2669  222.5975 H   0  0  0  0  0  0  0  0  0  0  0  0
  139.9552   77.2747  222.5005 H   0  0  0  0  0  0  0  0  0  0  0  0
  139.2989   75.0547  223.3585 H   0  0  0  0  0  0  0  0  0  0  0  0
  138.6710   75.1744  221.7104 H   0  0  0  0  0  0  0  0  0  0  0  0
  139.0695   72.6695  224.0215 H   0  0  0  0  0  0  0  0  0  0  0  0
  137.2940   73.0110  223.1320 H   0  0  0  0  0  0  0  0  0  0  0  0
  137.6570   72.1930  221.6900 H   0  0  0  0  0  0  0  0  0  0  0  0
  140.5085   70.5861  222.8328 H   0  0  0  0  0  0  0  0  0  0  0  0
  140.2545   68.7427  221.6165 H   0  0  0  0  0  0  0  0  0  0  0  0
  138.8284   66.9389  220.7794 H   0  0  0  0  0  0  0  0  0  0  0  0
  136.4916   66.6985  221.5481 H   0  0  0  0  0  0  0  0  0  0  0  0
  135.6061   68.3269  223.1975 H   0  0  0  0  0  0  0  0  0  0  0  0
  137.0003   70.1189  224.0373 H   0  0  0  0  0  0  0  0  0  0  0  0
  139.5351   68.3943  224.9291 H   0  0  0  0  0  0  0  0  0  0  0  0
  140.2950   68.1114  227.2421 H   0  0  0  0  0  0  0  0  0  0  0  0
  141.2472   69.9771  228.5401 H   0  0  0  0  0  0  0  0  0  0  0  0
  140.6829   72.5083  225.1494 H   0  0  0  0  0  0  0  0  0  0  0  0
  142.3488   74.8650  221.6912 H   0  0  0  0  0  0  0  0  0  0  0  0
  142.0077   73.4425  220.6497 H   0  0  0  0  0  0  0  0  0  0  0  0
  141.9661   75.5115  219.2711 H   0  0  0  0  0  0  0  0  0  0  0  0
  140.3280   74.8455  219.3489 H   0  0  0  0  0  0  0  0  0  0  0  0
  1  2  1  0
  2  3  1  0
  3  4  2  0
  3  5  1  0
  5  6  1  0
  6  7  2  0
  7  8  1  0
  8  9  2  0
  9 10  1  0
 10 11  2  0
  5 12  1  0
 12 13  1  0
 13 14  1  0
 14 15  1  0
 15 16  1  0
 16 17  2  0
 16 18  1  0
 18 19  1  0
 18 20  1  0
 20 21  1  0
 21 22  2  0
 22 23  1  0
 23 24  2  0
 24 25  1  0
 25 26  2  0
 20 27  1  0
 27 28  2  0
 28 29  1  0
 29 30  2  0
 30 31  1  0
 31 32  1  0
 31 33  2  0
 15 34  1  0
 34 35  1  0
 11  6  1  0
 35 12  1  0
 26 21  1  0
 33 27  1  0
  1 36  1  0
  1 37  1  0
  1 38  1  0
  2 39  1  0
  2 40  1  0
  7 41  1  0
  8 42  1  0
  9 43  1  0
 10 44  1  0
 11 45  1  0
 12 46  1  0
 13 47  1  0
 13 48  1  0
 14 49  1  0
 14 50  1  0
 18 51  1  1
 19 52  1  0
 19 53  1  0
 20 54  1  6
 22 55  1  0
 23 56  1  0
 24 57  1  0
 25 58  1  0
 26 59  1  0
 28 60  1  0
 29 61  1  0
 30 62  1  0
 33 63  1  0
 34 64  1  0
 34 65  1  0
 35 66  1  0
 35 67  1  0
M  END
>  <smiles>  (41) 
CCC(=O)N(c1ccccc1)C1CCN(C(=O)[C@@H](N)C(c2ccccc2)c2cccc(F)c2)CC1

>  <score_type>  (41) 
oracle

>  <origin>  (41) 
autodockgpu

>  <m_score__min__energy>  (41) 
-8.0600000000000005

>  <m_primary>  (41) 
energy

>  <rmsd>  (41) 
9.026117762953213

>  <m_score__min__rmsd>  (41) 
9.026117762953213

>  <meeko>  (41) 
{"free_energy": -7.74, "intermolecular_energy": -10.42, "internal_energy": -2.22, "cluster_size": 7, "cluster_id": 1, "rank_in_cluster": 7}

>  <energy>  (41) 
-7.0

>  <cluster_rmsd>  (41) 
1.18

>  <cluster>  (41) 
7

$$$$

     RDKit          3D

 67 70  0  0  0  0  0  0  0  0999 V2000
  135.2010   69.9000  225.2030 C   0  0  0  0  0  0  0  0  0  0  0  0
  136.5650   69.2640  224.9490 C   0  0  0  0  0  0  0  0  0  0  0  0
  137.4870   70.3330  224.5560 C   0  0  0  0  0  0  0  0  0  0  0  0
  137.0120   71.4600  224.2190 O   0  0  0  0  0  0  0  0  0  0  0  0
  138.9040   70.2010  224.5200 N   0  0  0  0  0  0  0  0  0  0  0  0
  139.5620   69.8710  225.7370 C   0  0  0  0  0  0  0  0  0  0  0  0
  140.1080   70.8470  226.5680 C   0  0  0  0  0  0  0  0  0  0  0  0
  140.7430   70.4990  227.7450 C   0  0  0  0  0  0  0  0  0  0  0  0
  140.8240   69.1610  228.0770 C   0  0  0  0  0  0  0  0  0  0  0  0
  140.2960   68.1650  227.2800 C   0  0  0  0  0  0  0  0  0  0  0  0
  139.6570   68.5380  226.0940 C   0  0  0  0  0  0  0  0  0  0  0  0
  139.5920   70.4030  223.2670 C   0  0  0  0  0  0  0  0  0  0  0  0
  140.3790   71.6670  223.3800 C   0  0  0  0  0  0  0  0  0  0  0  0
  141.0390   71.9310  222.0250 C   0  0  0  0  0  0  0  0  0  0  0  0
  139.9520   72.2450  221.1210 N   0  0  0  0  0  0  0  0  0  0  0  0
  140.0490   72.9030  219.8940 C   0  0  0  0  0  0  0  0  0  0  0  0
  138.9560   73.1070  219.2350 O   0  0  0  0  0  0  0  0  0  0  0  0
  141.2650   73.4140  219.2260 C   0  0  1  0  0  0  0  0  0  0  0  0
  141.1020   74.1230  218.0430 N   0  0  0  0  0  0  0  0  0  0  0  0
  142.1360   74.0140  220.2920 C   0  0  2  0  0  0  0  0  0  0  0  0
  141.7880   75.3580  220.7470 C   0  0  0  0  0  0  0  0  0  0  0  0
  141.0230   75.6100  221.8920 C   0  0  0  0  0  0  0  0  0  0  0  0
  140.7130   76.8870  222.3020 C   0  0  0  0  0  0  0  0  0  0  0  0
  141.1400   77.9830  221.6060 C   0  0  0  0  0  0  0  0  0  0  0  0
  141.8920   77.7760  220.4780 C   0  0  0  0  0  0  0  0  0  0  0  0
  142.1990   76.5180  220.0720 C   0  0  0  0  0  0  0  0  0  0  0  0
  143.5910   73.7810  220.1170 C   0  0  0  0  0  0  0  0  0  0  0  0
  144.4670   73.7630  221.2100 C   0  0  0  0  0  0  0  0  0  0  0  0
  145.8150   73.5440  221.0210 C   0  0  0  0  0  0  0  0  0  0  0  0
  146.3660   73.3370  219.7880 C   0  0  0  0  0  0  0  0  0  0  0  0
  145.5150   73.3510  218.6990 C   0  0  0  0  0  0  0  0  0  0  0  0
  146.0510   73.1440  217.4560 F   0  0  0  0  0  0  0  0  0  0  0  0
  144.1860   73.5670  218.8870 C   0  0  0  0  0  0  0  0  0  0  0  0
  138.6260   71.8140  221.5660 C   0  0  0  0  0  0  0  0  0  0  0  0
  138.7050   70.3650  222.0740 C   0  0  0  0  0  0  0  0  0  0  0  0
  135.0297   69.9799  226.2867 H   0  0  0  0  0  0  0  0  0  0  0  0
  135.1747   70.9033  224.7527 H   0  0  0  0  0  0  0  0  0  0  0  0
  134.4156   69.2753  224.7527 H   0  0  0  0  0  0  0  0  0  0  0  0
  136.9270   68.7747  225.8653 H   0  0  0  0  0  0  0  0  0  0  0  0
  136.4950   68.5041  224.1568 H   0  0  0  0  0  0  0  0  0  0  0  0
  140.0327   71.9070  226.2838 H   0  0  0  0  0  0  0  0  0  0  0  0
  141.1736   71.2693  228.4017 H   0  0  0  0  0  0  0  0  0  0  0  0
  141.3287   68.8779  229.0125 H   0  0  0  0  0  0  0  0  0  0  0  0
  140.3760   67.1070  227.5703 H   0  0  0  0  0  0  0  0  0  0  0  0
  139.2265   67.7657  225.4397 H   0  0  0  0  0  0  0  0  0  0  0  0
  140.2712   69.5558  223.0911 H   0  0  0  0  0  0  0  0  0  0  0  0
  139.7110   72.5015  223.6396 H   0  0  0  0  0  0  0  0  0  0  0  0
  141.1419   71.5750  224.1671 H   0  0  0  0  0  0  0  0  0  0  0  0
  141.7373   72.7780  222.0958 H   0  0  0  0  0  0  0  0  0  0  0  0
  141.6212   71.0645  221.6784 H   0  0  0  0  0  0  0  0  0  0  0  0
  141.8016   72.5722  218.7639 H   0  0  0  0  0  0  0  0  0  0  0  0
  140.1630   74.2390  217.6490 H   0  0  0  0  0  0  0  0  0  0  0  0
  141.7010   74.9200  217.8780 H   0  0  0  0  0  0  0  0  0  0  0  0
  141.8621   73.4009  221.1633 H   0  0  0  0  0  0  0  0  0  0  0  0
  140.6571   74.7584  222.4844 H   0  0  0  0  0  0  0  0  0  0  0  0
  140.1082   77.0285  223.2099 H   0  0  0  0  0  0  0  0  0  0  0  0
  140.8881   79.0002  221.9404 H   0  0  0  0  0  0  0  0  0  0  0  0
  142.2499   78.6384  219.8964 H   0  0  0  0  0  0  0  0  0  0  0  0
  142.8049   76.4006  219.1614 H   0  0  0  0  0  0  0  0  0  0  0  0
  144.0768   73.9247  222.2257 H   0  0  0  0  0  0  0  0  0  0  0  0
  146.4753   73.5356  221.9007 H   0  0  0  0  0  0  0  0  0  0  0  0
  147.4458   73.1657  219.6666 H   0  0  0  0  0  0  0  0  0  0  0  0
  143.5382   73.5719  217.9980 H   0  0  0  0  0  0  0  0  0  0  0  0
  138.2803   72.4697  222.3787 H   0  0  0  0  0  0  0  0  0  0  0  0
  137.9192   71.8710  220.7250 H   0  0  0  0  0  0  0  0  0  0  0  0
  137.7047   70.0011  222.3516 H   0  0  0  0  0  0  0  0  0  0  0  0
  139.0936   69.6852  221.3014 H   0  0  0  0  0  0  0  0  0  0  0  0
  1  2  1  0
  2  3  1  0
  3  4  2  0
  3  5  1  0
  5  6  1  0
  6  7  2  0
  7  8  1  0
  8  9  2  0
  9 10  1  0
 10 11  2  0
  5 12  1  0
 12 13  1  0
 13 14  1  0
 14 15  1  0
 15 16  1  0
 16 17  2  0
 16 18  1  0
 18 19  1  0
 18 20  1  0
 20 21  1  0
 21 22  2  0
 22 23  1  0
 23 24  2  0
 24 25  1  0
 25 26  2  0
 20 27  1  0
 27 28  2  0
 28 29  1  0
 29 30  2  0
 30 31  1  0
 31 32  1  0
 31 33  2  0
 15 34  1  0
 34 35  1  0
 11  6  1  0
 35 12  1  0
 26 21  1  0
 33 27  1  0
  1 36  1  0
  1 37  1  0
  1 38  1  0
  2 39  1  0
  2 40  1  0
  7 41  1  0
  8 42  1  0
  9 43  1  0
 10 44  1  0
 11 45  1  0
 12 46  1  0
 13 47  1  0
 13 48  1  0
 14 49  1  0
 14 50  1  0
 18 51  1  6
 19 52  1  0
 19 53  1  0
 20 54  1  1
 22 55  1  0
 23 56  1  0
 24 57  1  0
 25 58  1  0
 26 59  1  0
 28 60  1  0
 29 61  1  0
 30 62  1  0
 33 63  1  0
 34 64  1  0
 34 65  1  0
 35 66  1  0
 35 67  1  0
M  END
>  <smiles>  (42) 
CCC(=O)N(c1ccccc1)C1CCN(C(=O)[C@@H](N)C(c2ccccc2)c2cccc(F)c2)CC1

>  <score_type>  (42) 
oracle

>  <origin>  (42) 
autodockgpu

>  <m_score__min__energy>  (42) 
-8.0600000000000005

>  <m_primary>  (42) 
energy

>  <rmsd>  (42) 
6.620025623074899

>  <m_score__min__rmsd>  (42) 
6.620025623074899

>  <meeko>  (42) 
{"free_energy": -7.23, "intermolecular_energy": -9.91, "internal_energy": -2.9, "cluster_size": 14, "cluster_id": 2, "rank_in_cluster": 10}

>  <energy>  (42) 
-7.0

>  <cluster_rmsd>  (42) 
1.15

>  <cluster>  (42) 
7

$$$$

     RDKit          3D

 67 70  0  0  0  0  0  0  0  0999 V2000
  144.5000   75.5500  215.9760 C   0  0  0  0  0  0  0  0  0  0  0  0
  143.6680   76.4080  216.9260 C   0  0  0  0  0  0  0  0  0  0  0  0
  142.9050   75.5030  217.7890 C   0  0  0  0  0  0  0  0  0  0  0  0
  141.9020   74.8950  217.3080 O   0  0  0  0  0  0  0  0  0  0  0  0
  143.2090   75.2490  219.1570 N   0  0  0  0  0  0  0  0  0  0  0  0
  144.1710   74.2390  219.4380 C   0  0  0  0  0  0  0  0  0  0  0  0
  144.2790   73.0880  218.6610 C   0  0  0  0  0  0  0  0  0  0  0  0
  145.2210   72.1220  218.9560 C   0  0  0  0  0  0  0  0  0  0  0  0
  146.0520   72.3240  220.0410 C   0  0  0  0  0  0  0  0  0  0  0  0
  145.9750   73.4500  220.8350 C   0  0  0  0  0  0  0  0  0  0  0  0
  145.0160   74.4170  220.5190 C   0  0  0  0  0  0  0  0  0  0  0  0
  142.5370   76.0210  220.1750 C   0  0  0  0  0  0  0  0  0  0  0  0
  141.3620   75.2290  220.6430 C   0  0  0  0  0  0  0  0  0  0  0  0
  140.5960   76.0800  221.6580 C   0  0  0  0  0  0  0  0  0  0  0  0
  140.0320   77.1760  220.8970 N   0  0  0  0  0  0  0  0  0  0  0  0
  138.9740   78.0010  221.2790 C   0  0  0  0  0  0  0  0  0  0  0  0
  138.6010   78.9200  220.4500 O   0  0  0  0  0  0  0  0  0  0  0  0
  138.1980   77.9680  222.5370 C   0  0  1  0  0  0  0  0  0  0  0  0
  137.9190   76.7260  223.0900 N   0  0  0  0  0  0  0  0  0  0  0  0
  138.7680   79.0280  223.4360 C   0  0  2  0  0  0  0  0  0  0  0  0
  137.8590   80.0930  223.8540 C   0  0  0  0  0  0  0  0  0  0  0  0
  138.0740   80.8920  224.9820 C   0  0  0  0  0  0  0  0  0  0  0  0
  137.2050   81.8940  225.3520 C   0  0  0  0  0  0  0  0  0  0  0  0
  136.0780   82.1610  224.6270 C   0  0  0  0  0  0  0  0  0  0  0  0
  135.8320   81.3990  223.5140 C   0  0  0  0  0  0  0  0  0  0  0  0
  136.6880   80.4110  223.1490 C   0  0  0  0  0  0  0  0  0  0  0  0
  140.1310   79.4880  223.0770 C   0  0  0  0  0  0  0  0  0  0  0  0
  141.2710   78.7640  223.4520 C   0  0  0  0  0  0  0  0  0  0  0  0
  142.5280   79.2120  223.1050 C   0  0  0  0  0  0  0  0  0  0  0  0
  142.7360   80.3600  222.3940 C   0  0  0  0  0  0  0  0  0  0  0  0
  141.6210   81.0850  222.0150 C   0  0  0  0  0  0  0  0  0  0  0  0
  141.8120   82.2380  221.3020 F   0  0  0  0  0  0  0  0  0  0  0  0
  140.3820   80.6430  222.3580 C   0  0  0  0  0  0  0  0  0  0  0  0
  140.6590   77.4200  219.5980 C   0  0  0  0  0  0  0  0  0  0  0  0
  142.1880   77.4050  219.7580 C   0  0  0  0  0  0  0  0  0  0  0  0
  145.1491   74.8807  216.5597 H   0  0  0  0  0  0  0  0  0  0  0  0
  143.8304   74.9503  215.3419 H   0  0  0  0  0  0  0  0  0  0  0  0
  145.1200   76.2008  215.3419 H   0  0  0  0  0  0  0  0  0  0  0  0
  144.3294   77.0398  217.5370 H   0  0  0  0  0  0  0  0  0  0  0  0
  142.9903   77.0640  216.3600 H   0  0  0  0  0  0  0  0  0  0  0  0
  143.6061   72.9467  217.8023 H   0  0  0  0  0  0  0  0  0  0  0  0
  145.3075   71.2136  218.3418 H   0  0  0  0  0  0  0  0  0  0  0  0
  146.8039   71.5579  220.2812 H   0  0  0  0  0  0  0  0  0  0  0  0
  146.6499   73.5831  221.6934 H   0  0  0  0  0  0  0  0  0  0  0  0
  144.9327   75.3253  221.1338 H   0  0  0  0  0  0  0  0  0  0  0  0
  143.2304   76.1889  221.0122 H   0  0  0  0  0  0  0  0  0  0  0  0
  140.7104   74.9874  219.7903 H   0  0  0  0  0  0  0  0  0  0  0  0
  141.6938   74.2874  221.1049 H   0  0  0  0  0  0  0  0  0  0  0  0
  139.7975   75.4890  222.1304 H   0  0  0  0  0  0  0  0  0  0  0  0
  141.2503   76.4386  222.4663 H   0  0  0  0  0  0  0  0  0  0  0  0
  137.1489   78.2170  222.3192 H   0  0  0  0  0  0  0  0  0  0  0  0
  138.6880   76.1390  223.4290 H   0  0  0  0  0  0  0  0  0  0  0  0
  137.0750   76.6270  223.6380 H   0  0  0  0  0  0  0  0  0  0  0  0
  138.9067   78.4656  224.3712 H   0  0  0  0  0  0  0  0  0  0  0  0
  138.9694   80.7134  225.5954 H   0  0  0  0  0  0  0  0  0  0  0  0
  137.4225   82.4917  226.2495 H   0  0  0  0  0  0  0  0  0  0  0  0
  135.3884   82.9636  224.9274 H   0  0  0  0  0  0  0  0  0  0  0  0
  134.9321   81.5903  222.9110 H   0  0  0  0  0  0  0  0  0  0  0  0
  136.4501   79.8257  222.2485 H   0  0  0  0  0  0  0  0  0  0  0  0
  141.1622   77.8325  224.0268 H   0  0  0  0  0  0  0  0  0  0  0  0
  143.4015   78.6192  223.4141 H   0  0  0  0  0  0  0  0  0  0  0  0
  143.7509   80.6946  222.1332 H   0  0  0  0  0  0  0  0  0  0  0  0
  139.5182   81.2462  222.0416 H   0  0  0  0  0  0  0  0  0  0  0  0
  140.3563   76.6336  218.8909 H   0  0  0  0  0  0  0  0  0  0  0  0
  140.3394   78.4000  219.2141 H   0  0  0  0  0  0  0  0  0  0  0  0
  142.6757   77.6521  218.8035 H   0  0  0  0  0  0  0  0  0  0  0  0
  142.5257   78.1479  220.4956 H   0  0  0  0  0  0  0  0  0  0  0  0
  1  2  1  0
  2  3  1  0
  3  4  2  0
  3  5  1  0
  5  6  1  0
  6  7  2  0
  7  8  1  0
  8  9  2  0
  9 10  1  0
 10 11  2  0
  5 12  1  0
 12 13  1  0
 13 14  1  0
 14 15  1  0
 15 16  1  0
 16 17  2  0
 16 18  1  0
 18 19  1  0
 18 20  1  0
 20 21  1  0
 21 22  2  0
 22 23  1  0
 23 24  2  0
 24 25  1  0
 25 26  2  0
 20 27  1  0
 27 28  2  0
 28 29  1  0
 29 30  2  0
 30 31  1  0
 31 32  1  0
 31 33  2  0
 15 34  1  0
 34 35  1  0
 11  6  1  0
 35 12  1  0
 26 21  1  0
 33 27  1  0
  1 36  1  0
  1 37  1  0
  1 38  1  0
  2 39  1  0
  2 40  1  0
  7 41  1  0
  8 42  1  0
  9 43  1  0
 10 44  1  0
 11 45  1  0
 12 46  1  0
 13 47  1  0
 13 48  1  0
 14 49  1  0
 14 50  1  0
 18 51  1  6
 19 52  1  0
 19 53  1  0
 20 54  1  1
 22 55  1  0
 23 56  1  0
 24 57  1  0
 25 58  1  0
 26 59  1  0
 28 60  1  0
 29 61  1  0
 30 62  1  0
 33 63  1  0
 34 64  1  0
 34 65  1  0
 35 66  1  0
 35 67  1  0
M  END
>  <smiles>  (43) 
CCC(=O)N(c1ccccc1)C1CCN(C(=O)[C@@H](N)C(c2ccccc2)c2cccc(F)c2)CC1

>  <score_type>  (43) 
oracle

>  <origin>  (43) 
autodockgpu

>  <m_score__min__energy>  (43) 
-8.0600000000000005

>  <m_primary>  (43) 
energy

>  <rmsd>  (43) 
4.274966326499034

>  <m_score__min__rmsd>  (43) 
4.274966326499034

>  <meeko>  (43) 
{"free_energy": -7.04, "intermolecular_energy": -9.72, "internal_energy": -2.91, "cluster_size": 11, "cluster_id": 7, "rank_in_cluster": 6}

>  <energy>  (43) 
-6.99

>  <cluster_rmsd>  (43) 
1.85

>  <cluster>  (43) 
7

$$$$

     RDKit          3D

 67 70  0  0  0  0  0  0  0  0999 V2000
  146.0060   74.1740  220.8830 C   0  0  0  0  0  0  0  0  0  0  0  0
  145.9470   72.6640  220.6680 C   0  0  0  0  0  0  0  0  0  0  0  0
  145.3110   72.4250  219.3700 C   0  0  0  0  0  0  0  0  0  0  0  0
  145.9450   72.7190  218.3120 O   0  0  0  0  0  0  0  0  0  0  0  0
  144.0080   71.8770  219.2010 N   0  0  0  0  0  0  0  0  0  0  0  0
  143.9010   70.4630  219.0870 C   0  0  0  0  0  0  0  0  0  0  0  0
  144.9770   69.6190  219.3520 C   0  0  0  0  0  0  0  0  0  0  0  0
  144.8470   68.2490  219.2330 C   0  0  0  0  0  0  0  0  0  0  0  0
  143.6240   67.7370  218.8440 C   0  0  0  0  0  0  0  0  0  0  0  0
  142.5350   68.5390  218.5730 C   0  0  0  0  0  0  0  0  0  0  0  0
  142.6870   69.9230  218.7000 C   0  0  0  0  0  0  0  0  0  0  0  0
  142.8760   72.7720  219.1570 C   0  0  0  0  0  0  0  0  0  0  0  0
  143.3980   74.1680  219.2390 C   0  0  0  0  0  0  0  0  0  0  0  0
  142.1970   75.1160  219.2810 C   0  0  0  0  0  0  0  0  0  0  0  0
  141.5610   74.8770  220.5600 N   0  0  0  0  0  0  0  0  0  0  0  0
  140.6690   75.7220  221.2200 C   0  0  0  0  0  0  0  0  0  0  0  0
  140.2170   75.3390  222.3690 O   0  0  0  0  0  0  0  0  0  0  0  0
  140.1540   77.0350  220.7750 C   0  0  1  0  0  0  0  0  0  0  0  0
  139.0230   77.5330  221.4060 N   0  0  0  0  0  0  0  0  0  0  0  0
  141.3390   77.9470  220.6270 C   0  0  2  0  0  0  0  0  0  0  0  0
  141.6720   78.7830  221.7780 C   0  0  0  0  0  0  0  0  0  0  0  0
  142.2100   80.0700  221.6650 C   0  0  0  0  0  0  0  0  0  0  0  0
  142.5100   80.8410  222.7660 C   0  0  0  0  0  0  0  0  0  0  0  0
  142.2940   80.3840  224.0350 C   0  0  0  0  0  0  0  0  0  0  0  0
  141.7680   79.1270  224.1860 C   0  0  0  0  0  0  0  0  0  0  0  0
  141.4720   78.3650  223.1020 C   0  0  0  0  0  0  0  0  0  0  0  0
  141.4410   78.6340  219.3160 C   0  0  0  0  0  0  0  0  0  0  0  0
  142.5040   78.3840  218.4390 C   0  0  0  0  0  0  0  0  0  0  0  0
  142.5770   79.0350  217.2260 C   0  0  0  0  0  0  0  0  0  0  0  0
  141.6400   79.9410  216.8140 C   0  0  0  0  0  0  0  0  0  0  0  0
  140.5830   80.1980  217.6680 C   0  0  0  0  0  0  0  0  0  0  0  0
  139.6360   81.1030  217.2700 F   0  0  0  0  0  0  0  0  0  0  0  0
  140.5140   79.5560  218.8640 C   0  0  0  0  0  0  0  0  0  0  0  0
  141.9070   73.6080  221.2010 C   0  0  0  0  0  0  0  0  0  0  0  0
  141.8250   72.4750  220.1660 C   0  0  0  0  0  0  0  0  0  0  0  0
  146.0145   74.3908  221.9614 H   0  0  0  0  0  0  0  0  0  0  0  0
  146.9205   74.5747  220.4213 H   0  0  0  0  0  0  0  0  0  0  0  0
  145.1256   74.6448  220.4213 H   0  0  0  0  0  0  0  0  0  0  0  0
  146.9641   72.2450  220.6700 H   0  0  0  0  0  0  0  0  0  0  0  0
  145.3737   72.1816  221.4734 H   0  0  0  0  0  0  0  0  0  0  0  0
  145.9417   70.0486  219.6597 H   0  0  0  0  0  0  0  0  0  0  0  0
  145.6962   67.5820  219.4428 H   0  0  0  0  0  0  0  0  0  0  0  0
  143.5145   66.6468  218.7466 H   0  0  0  0  0  0  0  0  0  0  0  0
  141.5736   68.1018  218.2655 H   0  0  0  0  0  0  0  0  0  0  0  0
  141.8356   70.5874  218.4908 H   0  0  0  0  0  0  0  0  0  0  0  0
  142.3440   72.6280  218.2050 H   0  0  0  0  0  0  0  0  0  0  0  0
  144.0017   74.2886  220.1506 H   0  0  0  0  0  0  0  0  0  0  0  0
  144.0334   74.3919  218.3694 H   0  0  0  0  0  0  0  0  0  0  0  0
  142.5298   76.1618  219.2064 H   0  0  0  0  0  0  0  0  0  0  0  0
  141.5074   74.9390  218.4425 H   0  0  0  0  0  0  0  0  0  0  0  0
  139.6730   76.9184  219.7926 H   0  0  0  0  0  0  0  0  0  0  0  0
  138.2660   77.9340  220.8440 H   0  0  0  0  0  0  0  0  0  0  0  0
  138.6920   77.0600  222.2360 H   0  0  0  0  0  0  0  0  0  0  0  0
  142.1686   77.2247  220.6225 H   0  0  0  0  0  0  0  0  0  0  0  0
  142.3998   80.4799  220.6620 H   0  0  0  0  0  0  0  0  0  0  0  0
  142.9325   81.8461  222.6204 H   0  0  0  0  0  0  0  0  0  0  0  0
  142.5349   81.0060  224.9097 H   0  0  0  0  0  0  0  0  0  0  0  0
  141.5839   78.7317  225.1959 H   0  0  0  0  0  0  0  0  0  0  0  0
  141.0514   77.3628  223.2716 H   0  0  0  0  0  0  0  0  0  0  0  0
  143.2860   77.6632  218.7200 H   0  0  0  0  0  0  0  0  0  0  0  0
  143.4256   78.8160  216.5612 H   0  0  0  0  0  0  0  0  0  0  0  0
  141.7235   80.4463  215.8405 H   0  0  0  0  0  0  0  0  0  0  0  0
  139.6606   79.7858  219.5189 H   0  0  0  0  0  0  0  0  0  0  0  0
  142.9298   73.6659  221.6016 H   0  0  0  0  0  0  0  0  0  0  0  0
  141.2035   73.4072  222.0225 H   0  0  0  0  0  0  0  0  0  0  0  0
  142.0174   71.5037  220.6451 H   0  0  0  0  0  0  0  0  0  0  0  0
  140.8272   72.4174  219.7066 H   0  0  0  0  0  0  0  0  0  0  0  0
  1  2  1  0
  2  3  1  0
  3  4  2  0
  3  5  1  0
  5  6  1  0
  6  7  2  0
  7  8  1  0
  8  9  2  0
  9 10  1  0
 10 11  2  0
  5 12  1  0
 12 13  1  0
 13 14  1  0
 14 15  1  0
 15 16  1  0
 16 17  2  0
 16 18  1  0
 18 19  1  0
 18 20  1  0
 20 21  1  0
 21 22  2  0
 22 23  1  0
 23 24  2  0
 24 25  1  0
 25 26  2  0
 20 27  1  0
 27 28  2  0
 28 29  1  0
 29 30  2  0
 30 31  1  0
 31 32  1  0
 31 33  2  0
 15 34  1  0
 34 35  1  0
 11  6  1  0
 35 12  1  0
 26 21  1  0
 33 27  1  0
  1 36  1  0
  1 37  1  0
  1 38  1  0
  2 39  1  0
  2 40  1  0
  7 41  1  0
  8 42  1  0
  9 43  1  0
 10 44  1  0
 11 45  1  0
 12 46  1  0
 13 47  1  0
 13 48  1  0
 14 49  1  0
 14 50  1  0
 18 51  1  6
 19 52  1  0
 19 53  1  0
 20 54  1  6
 22 55  1  0
 23 56  1  0
 24 57  1  0
 25 58  1  0
 26 59  1  0
 28 60  1  0
 29 61  1  0
 30 62  1  0
 33 63  1  0
 34 64  1  0
 34 65  1  0
 35 66  1  0
 35 67  1  0
M  END
>  <smiles>  (44) 
CCC(=O)N(c1ccccc1)C1CCN(C(=O)[C@@H](N)C(c2ccccc2)c2cccc(F)c2)CC1

>  <score_type>  (44) 
oracle

>  <origin>  (44) 
autodockgpu

>  <m_score__min__energy>  (44) 
-8.0600000000000005

>  <m_primary>  (44) 
energy

>  <rmsd>  (44) 
4.383705200690283

>  <m_score__min__rmsd>  (44) 
4.383705200690283

>  <meeko>  (44) 
{"free_energy": -7.35, "intermolecular_energy": -10.04, "internal_energy": -2.86, "cluster_size": 6, "cluster_id": 3, "rank_in_cluster": 3}

>  <energy>  (44) 
-6.98

>  <cluster_rmsd>  (44) 
0.84

>  <cluster>  (44) 
7

$$$$

     RDKit          3D

 67 70  0  0  0  0  0  0  0  0999 V2000
  141.2620   74.1620  217.3900 C   0  0  0  0  0  0  0  0  0  0  0  0
  141.7860   75.5490  217.0260 C   0  0  0  0  0  0  0  0  0  0  0  0
  143.0600   75.7400  217.7250 C   0  0  0  0  0  0  0  0  0  0  0  0
  144.0420   76.2270  217.0870 O   0  0  0  0  0  0  0  0  0  0  0  0
  143.2850   75.4130  219.0920 N   0  0  0  0  0  0  0  0  0  0  0  0
  144.1870   74.3490  219.3710 C   0  0  0  0  0  0  0  0  0  0  0  0
  144.2880   73.2320  218.5450 C   0  0  0  0  0  0  0  0  0  0  0  0
  145.1710   72.2120  218.8400 C   0  0  0  0  0  0  0  0  0  0  0  0
  145.9510   72.3260  219.9740 C   0  0  0  0  0  0  0  0  0  0  0  0
  145.8790   73.4160  220.8180 C   0  0  0  0  0  0  0  0  0  0  0  0
  144.9800   74.4380  220.5010 C   0  0  0  0  0  0  0  0  0  0  0  0
  142.5970   76.1690  220.1120 C   0  0  0  0  0  0  0  0  0  0  0  0
  141.4670   75.3320  220.6110 C   0  0  0  0  0  0  0  0  0  0  0  0
  140.6820   76.1640  221.6290 C   0  0  0  0  0  0  0  0  0  0  0  0
  140.0570   77.2220  220.8640 N   0  0  0  0  0  0  0  0  0  0  0  0
  138.9700   78.0060  221.2540 C   0  0  0  0  0  0  0  0  0  0  0  0
  138.5410   78.8950  220.4190 O   0  0  0  0  0  0  0  0  0  0  0  0
  138.2190   77.9560  222.5260 C   0  0  1  0  0  0  0  0  0  0  0  0
  137.9780   76.7090  223.0860 N   0  0  0  0  0  0  0  0  0  0  0  0
  138.7810   79.0300  223.4130 C   0  0  2  0  0  0  0  0  0  0  0  0
  137.8640   80.0940  223.8190 C   0  0  0  0  0  0  0  0  0  0  0  0
  136.7000   80.4190  223.1140 C   0  0  0  0  0  0  0  0  0  0  0  0
  135.8500   81.4220  223.5200 C   0  0  0  0  0  0  0  0  0  0  0  0
  136.1030   82.1580  224.6430 C   0  0  0  0  0  0  0  0  0  0  0  0
  137.2340   81.8690  225.3610 C   0  0  0  0  0  0  0  0  0  0  0  0
  138.0740   80.8800  224.9620 C   0  0  0  0  0  0  0  0  0  0  0  0
  140.1410   79.4950  223.0500 C   0  0  0  0  0  0  0  0  0  0  0  0
  141.2870   78.7990  223.4580 C   0  0  0  0  0  0  0  0  0  0  0  0
  142.5410   79.2510  223.1060 C   0  0  0  0  0  0  0  0  0  0  0  0
  142.7400   80.3770  222.3570 C   0  0  0  0  0  0  0  0  0  0  0  0
  141.6190   81.0750  221.9460 C   0  0  0  0  0  0  0  0  0  0  0  0
  141.8010   82.2050  221.1950 F   0  0  0  0  0  0  0  0  0  0  0  0
  140.3840   80.6280  222.2940 C   0  0  0  0  0  0  0  0  0  0  0  0
  140.6490   77.4750  219.5500 C   0  0  0  0  0  0  0  0  0  0  0  0
  142.1790   77.5300  219.6820 C   0  0  0  0  0  0  0  0  0  0  0  0
  141.2235   74.0602  218.4846 H   0  0  0  0  0  0  0  0  0  0  0  0
  140.2523   74.0307  216.9738 H   0  0  0  0  0  0  0  0  0  0  0  0
  141.9326   73.3958  216.9738 H   0  0  0  0  0  0  0  0  0  0  0  0
  141.9407   75.6180  215.9391 H   0  0  0  0  0  0  0  0  0  0  0  0
  141.0637   76.3242  217.3215 H   0  0  0  0  0  0  0  0  0  0  0  0
  143.6568   73.1615  217.6469 H   0  0  0  0  0  0  0  0  0  0  0  0
  145.2512   71.3300  218.1875 H   0  0  0  0  0  0  0  0  0  0  0  0
  146.6568   71.5171  220.2139 H   0  0  0  0  0  0  0  0  0  0  0  0
  146.5119   73.4785  221.7155 H   0  0  0  0  0  0  0  0  0  0  0  0
  144.9024   75.3193  221.1546 H   0  0  0  0  0  0  0  0  0  0  0  0
  143.2962   76.3797  220.9346 H   0  0  0  0  0  0  0  0  0  0  0  0
  140.8119   75.0500  219.7735 H   0  0  0  0  0  0  0  0  0  0  0  0
  141.8477   74.4120  221.0786 H   0  0  0  0  0  0  0  0  0  0  0  0
  139.9191   75.5455  222.1244 H   0  0  0  0  0  0  0  0  0  0  0  0
  141.3343   76.5628  222.4199 H   0  0  0  0  0  0  0  0  0  0  0  0
  137.1605   78.1793  222.3268 H   0  0  0  0  0  0  0  0  0  0  0  0
  137.2190   76.1280  222.7160 H   0  0  0  0  0  0  0  0  0  0  0  0
  138.7700   76.1680  223.4060 H   0  0  0  0  0  0  0  0  0  0  0  0
  138.9227   78.4791  224.3545 H   0  0  0  0  0  0  0  0  0  0  0  0
  136.4558   79.8528  222.2031 H   0  0  0  0  0  0  0  0  0  0  0  0
  134.9479   81.6358  222.9280 H   0  0  0  0  0  0  0  0  0  0  0  0
  135.4192   82.9587  224.9614 H   0  0  0  0  0  0  0  0  0  0  0  0
  137.4635   82.4444  226.2700 H   0  0  0  0  0  0  0  0  0  0  0  0
  138.9700   80.6838  225.5692 H   0  0  0  0  0  0  0  0  0  0  0  0
  141.1853   77.8860  224.0631 H   0  0  0  0  0  0  0  0  0  0  0  0
  143.4194   78.6808  223.4425 H   0  0  0  0  0  0  0  0  0  0  0  0
  143.7526   80.7149  222.0914 H   0  0  0  0  0  0  0  0  0  0  0  0
  139.5152   81.2084  221.9501 H   0  0  0  0  0  0  0  0  0  0  0  0
  140.3690   76.6659  218.8593 H   0  0  0  0  0  0  0  0  0  0  0  0
  140.2791   78.4342  219.1587 H   0  0  0  0  0  0  0  0  0  0  0  0
  142.6381   77.7843  218.7153 H   0  0  0  0  0  0  0  0  0  0  0  0
  142.4961   78.2979  220.4029 H   0  0  0  0  0  0  0  0  0  0  0  0
  1  2  1  0
  2  3  1  0
  3  4  2  0
  3  5  1  0
  5  6  1  0
  6  7  2  0
  7  8  1  0
  8  9  2  0
  9 10  1  0
 10 11  2  0
  5 12  1  0
 12 13  1  0
 13 14  1  0
 14 15  1  0
 15 16  1  0
 16 17  2  0
 16 18  1  0
 18 19  1  0
 18 20  1  0
 20 21  1  0
 21 22  2  0
 22 23  1  0
 23 24  2  0
 24 25  1  0
 25 26  2  0
 20 27  1  0
 27 28  2  0
 28 29  1  0
 29 30  2  0
 30 31  1  0
 31 32  1  0
 31 33  2  0
 15 34  1  0
 34 35  1  0
 11  6  1  0
 35 12  1  0
 26 21  1  0
 33 27  1  0
  1 36  1  0
  1 37  1  0
  1 38  1  0
  2 39  1  0
  2 40  1  0
  7 41  1  0
  8 42  1  0
  9 43  1  0
 10 44  1  0
 11 45  1  0
 12 46  1  0
 13 47  1  0
 13 48  1  0
 14 49  1  0
 14 50  1  0
 18 51  1  6
 19 52  1  0
 19 53  1  0
 20 54  1  1
 22 55  1  0
 23 56  1  0
 24 57  1  0
 25 58  1  0
 26 59  1  0
 28 60  1  0
 29 61  1  0
 30 62  1  0
 33 63  1  0
 34 64  1  0
 34 65  1  0
 35 66  1  0
 35 67  1  0
M  END
>  <smiles>  (45) 
CCC(=O)N(c1ccccc1)C1CCN(C(=O)[C@@H](N)C(c2ccccc2)c2cccc(F)c2)CC1

>  <score_type>  (45) 
oracle

>  <origin>  (45) 
autodockgpu

>  <m_score__min__energy>  (45) 
-8.0600000000000005

>  <m_primary>  (45) 
energy

>  <rmsd>  (45) 
4.109898887671647

>  <m_score__min__rmsd>  (45) 
4.109898887671647

>  <meeko>  (45) 
{"free_energy": -6.83, "intermolecular_energy": -9.51, "internal_energy": -2.98, "cluster_size": 11, "cluster_id": 7, "rank_in_cluster": 11}

>  <energy>  (45) 
-6.83

>  <cluster_rmsd>  (45) 
1.3

>  <cluster>  (45) 
7

$$$$

     RDKit          3D

 67 70  0  0  0  0  0  0  0  0999 V2000
  144.5230   75.5520  216.0180 C   0  0  0  0  0  0  0  0  0  0  0  0
  143.6980   76.4260  216.9580 C   0  0  0  0  0  0  0  0  0  0  0  0
  142.9130   75.5350  217.8180 C   0  0  0  0  0  0  0  0  0  0  0  0
  141.9010   74.9480  217.3310 O   0  0  0  0  0  0  0  0  0  0  0  0
  143.2060   75.2750  219.1860 N   0  0  0  0  0  0  0  0  0  0  0  0
  144.1640   74.2620  219.4700 C   0  0  0  0  0  0  0  0  0  0  0  0
  145.0440   74.3600  220.5450 C   0  0  0  0  0  0  0  0  0  0  0  0
  145.9650   73.3620  220.7980 C   0  0  0  0  0  0  0  0  0  0  0  0
  145.9930   72.2660  219.9580 C   0  0  0  0  0  0  0  0  0  0  0  0
  145.1390   72.1330  218.8820 C   0  0  0  0  0  0  0  0  0  0  0  0
  144.2130   73.1530  218.6440 C   0  0  0  0  0  0  0  0  0  0  0  0
  142.5270   76.0430  220.2030 C   0  0  0  0  0  0  0  0  0  0  0  0
  141.3520   75.2460  220.6640 C   0  0  0  0  0  0  0  0  0  0  0  0
  140.5780   76.0930  221.6770 C   0  0  0  0  0  0  0  0  0  0  0  0
  140.0140   77.1880  220.9150 N   0  0  0  0  0  0  0  0  0  0  0  0
  138.9520   78.0090  221.2940 C   0  0  0  0  0  0  0  0  0  0  0  0
  138.5790   78.9280  220.4640 O   0  0  0  0  0  0  0  0  0  0  0  0
  138.1700   77.9710  222.5480 C   0  0  1  0  0  0  0  0  0  0  0  0
  137.8860   76.7270  223.0940 N   0  0  0  0  0  0  0  0  0  0  0  0
  138.7380   79.0260  223.4550 C   0  0  2  0  0  0  0  0  0  0  0  0
  137.8300   80.0920  223.8710 C   0  0  0  0  0  0  0  0  0  0  0  0
  136.6470   80.4050  223.1930 C   0  0  0  0  0  0  0  0  0  0  0  0
  135.8040   81.4120  223.6090 C   0  0  0  0  0  0  0  0  0  0  0  0
  136.0850   82.1620  224.7170 C   0  0  0  0  0  0  0  0  0  0  0  0
  137.2360   81.8850  225.4080 C   0  0  0  0  0  0  0  0  0  0  0  0
  138.0670   80.8930  224.9990 C   0  0  0  0  0  0  0  0  0  0  0  0
  140.1050   79.4820  223.1050 C   0  0  0  0  0  0  0  0  0  0  0  0
  141.2400   78.7530  223.4820 C   0  0  0  0  0  0  0  0  0  0  0  0
  142.5010   79.1980  223.1450 C   0  0  0  0  0  0  0  0  0  0  0  0
  142.7160   80.3490  222.4410 C   0  0  0  0  0  0  0  0  0  0  0  0
  141.6050   81.0810  222.0600 C   0  0  0  0  0  0  0  0  0  0  0  0
  141.8040   82.2360  221.3540 F   0  0  0  0  0  0  0  0  0  0  0  0
  140.3640   80.6400  222.3940 C   0  0  0  0  0  0  0  0  0  0  0  0
  140.6460   77.4360  219.6190 C   0  0  0  0  0  0  0  0  0  0  0  0
  142.1740   77.4260  219.7860 C   0  0  0  0  0  0  0  0  0  0  0  0
  145.1598   74.8774  216.6090 H   0  0  0  0  0  0  0  0  0  0  0  0
  143.8488   74.9578  215.3837 H   0  0  0  0  0  0  0  0  0  0  0  0
  145.1551   76.1908  215.3837 H   0  0  0  0  0  0  0  0  0  0  0  0
  144.3646   77.0489  217.5725 H   0  0  0  0  0  0  0  0  0  0  0  0
  143.0358   77.0914  216.3847 H   0  0  0  0  0  0  0  0  0  0  0  0
  145.0052   75.2426  221.2004 H   0  0  0  0  0  0  0  0  0  0  0  0
  146.6592   73.4383  221.6478 H   0  0  0  0  0  0  0  0  0  0  0  0
  146.7244   71.4681  220.1542 H   0  0  0  0  0  0  0  0  0  0  0  0
  145.1857   71.2486  218.2295 H   0  0  0  0  0  0  0  0  0  0  0  0
  143.5188   73.0734  217.7945 H   0  0  0  0  0  0  0  0  0  0  0  0
  143.2163   76.2118  221.0435 H   0  0  0  0  0  0  0  0  0  0  0  0
  140.7054   75.0037  219.8077 H   0  0  0  0  0  0  0  0  0  0  0  0
  141.6846   74.3047  221.1259 H   0  0  0  0  0  0  0  0  0  0  0  0
  139.7793   75.4985  222.1447 H   0  0  0  0  0  0  0  0  0  0  0  0
  141.2271   76.4526  222.4890 H   0  0  0  0  0  0  0  0  0  0  0  0
  137.1223   78.2225  222.3262 H   0  0  0  0  0  0  0  0  0  0  0  0
  138.6520   76.1390  223.4380 H   0  0  0  0  0  0  0  0  0  0  0  0
  137.0370   76.6250  223.6340 H   0  0  0  0  0  0  0  0  0  0  0  0
  138.8690   78.4612  224.3898 H   0  0  0  0  0  0  0  0  0  0  0  0
  136.3806   79.8266  222.2961 H   0  0  0  0  0  0  0  0  0  0  0  0
  134.8863   81.6168  223.0382 H   0  0  0  0  0  0  0  0  0  0  0  0
  135.4073   82.9642  225.0444 H   0  0  0  0  0  0  0  0  0  0  0  0
  137.4886   82.4726  226.3029 H   0  0  0  0  0  0  0  0  0  0  0  0
  138.9788   80.7059  225.5852 H   0  0  0  0  0  0  0  0  0  0  0  0
  141.1247   77.8187  224.0510 H   0  0  0  0  0  0  0  0  0  0  0  0
  143.3708   78.6008  223.4563 H   0  0  0  0  0  0  0  0  0  0  0  0
  143.7333   80.6812  222.1867 H   0  0  0  0  0  0  0  0  0  0  0  0
  139.5036   81.2473  222.0763 H   0  0  0  0  0  0  0  0  0  0  0  0
  140.3492   76.6496  218.9095 H   0  0  0  0  0  0  0  0  0  0  0  0
  140.3247   78.4154  219.2349 H   0  0  0  0  0  0  0  0  0  0  0  0
  142.6650   77.6761  218.8340 H   0  0  0  0  0  0  0  0  0  0  0  0
  142.5052   78.1691  220.5264 H   0  0  0  0  0  0  0  0  0  0  0  0
  1  2  1  0
  2  3  1  0
  3  4  2  0
  3  5  1  0
  5  6  1  0
  6  7  2  0
  7  8  1  0
  8  9  2  0
  9 10  1  0
 10 11  2  0
  5 12  1  0
 12 13  1  0
 13 14  1  0
 14 15  1  0
 15 16  1  0
 16 17  2  0
 16 18  1  0
 18 19  1  0
 18 20  1  0
 20 21  1  0
 21 22  2  0
 22 23  1  0
 23 24  2  0
 24 25  1  0
 25 26  2  0
 20 27  1  0
 27 28  2  0
 28 29  1  0
 29 30  2  0
 30 31  1  0
 31 32  1  0
 31 33  2  0
 15 34  1  0
 34 35  1  0
 11  6  1  0
 35 12  1  0
 26 21  1  0
 33 27  1  0
  1 36  1  0
  1 37  1  0
  1 38  1  0
  2 39  1  0
  2 40  1  0
  7 41  1  0
  8 42  1  0
  9 43  1  0
 10 44  1  0
 11 45  1  0
 12 46  1  0
 13 47  1  0
 13 48  1  0
 14 49  1  0
 14 50  1  0
 18 51  1  6
 19 52  1  0
 19 53  1  0
 20 54  1  1
 22 55  1  0
 23 56  1  0
 24 57  1  0
 25 58  1  0
 26 59  1  0
 28 60  1  0
 29 61  1  0
 30 62  1  0
 33 63  1  0
 34 64  1  0
 34 65  1  0
 35 66  1  0
 35 67  1  0
M  END
>  <smiles>  (46) 
CCC(=O)N(c1ccccc1)C1CCN(C(=O)[C@@H](N)C(c2ccccc2)c2cccc(F)c2)CC1

>  <score_type>  (46) 
oracle

>  <origin>  (46) 
autodockgpu

>  <m_score__min__energy>  (46) 
-8.0600000000000005

>  <m_primary>  (46) 
energy

>  <rmsd>  (46) 
4.157673443659811

>  <m_score__min__rmsd>  (46) 
4.157673443659811

>  <meeko>  (46) 
{"free_energy": -7.0, "intermolecular_energy": -9.69, "internal_energy": -2.91, "cluster_size": 11, "cluster_id": 7, "rank_in_cluster": 8}

>  <energy>  (46) 
-7.1

>  <cluster_rmsd>  (46) 
0.0

>  <cluster>  (46) 
8

$$$$

     RDKit          3D

 67 70  0  0  0  0  0  0  0  0999 V2000
  138.3720   82.8120  221.2940 C   0  0  0  0  0  0  0  0  0  0  0  0
  137.6690   83.7080  222.3110 C   0  0  0  0  0  0  0  0  0  0  0  0
  136.6110   82.9160  222.9450 C   0  0  0  0  0  0  0  0  0  0  0  0
  135.5030   82.7790  222.3440 O   0  0  0  0  0  0  0  0  0  0  0  0
  136.7350   82.2760  224.2100 N   0  0  0  0  0  0  0  0  0  0  0  0
  136.4300   83.0460  225.3660 C   0  0  0  0  0  0  0  0  0  0  0  0
  136.5040   84.4370  225.3660 C   0  0  0  0  0  0  0  0  0  0  0  0
  136.2040   85.1610  226.5030 C   0  0  0  0  0  0  0  0  0  0  0  0
  135.8300   84.4730  227.6410 C   0  0  0  0  0  0  0  0  0  0  0  0
  135.7450   83.0960  227.6810 C   0  0  0  0  0  0  0  0  0  0  0  0
  136.0520   82.3820  226.5200 C   0  0  0  0  0  0  0  0  0  0  0  0
  137.1550   80.8950  224.2550 C   0  0  0  0  0  0  0  0  0  0  0  0
  138.6250   80.8600  223.9970 C   0  0  0  0  0  0  0  0  0  0  0  0
  139.0590   79.3930  223.9560 C   0  0  0  0  0  0  0  0  0  0  0  0
  138.4550   78.8450  222.7600 N   0  0  0  0  0  0  0  0  0  0  0  0
  138.8330   77.6800  222.0920 C   0  0  0  0  0  0  0  0  0  0  0  0
  138.1770   77.3610  221.0240 O   0  0  0  0  0  0  0  0  0  0  0  0
  139.9110   76.7320  222.4460 C   0  0  1  0  0  0  0  0  0  0  0  0
  139.6620   75.3770  222.2760 N   0  0  0  0  0  0  0  0  0  0  0  0
  141.1900   77.2890  221.8890 C   0  0  2  0  0  0  0  0  0  0  0  0
  141.5300   78.6590  222.2680 C   0  0  0  0  0  0  0  0  0  0  0  0
  141.2600   79.7710  221.4630 C   0  0  0  0  0  0  0  0  0  0  0  0
  141.5860   81.0530  221.8450 C   0  0  0  0  0  0  0  0  0  0  0  0
  142.1960   81.3050  223.0420 C   0  0  0  0  0  0  0  0  0  0  0  0
  142.4770   80.2400  223.8580 C   0  0  0  0  0  0  0  0  0  0  0  0
  142.1570   78.9760  223.4830 C   0  0  0  0  0  0  0  0  0  0  0  0
  141.4470   76.9620  220.4650 C   0  0  0  0  0  0  0  0  0  0  0  0
  142.5620   76.2080  220.0770 C   0  0  0  0  0  0  0  0  0  0  0  0
  142.7800   75.9170  218.7470 C   0  0  0  0  0  0  0  0  0  0  0  0
  141.9430   76.3340  217.7500 C   0  0  0  0  0  0  0  0  0  0  0  0
  140.8370   77.0790  218.1170 C   0  0  0  0  0  0  0  0  0  0  0  0
  139.9880   77.5040  217.1310 F   0  0  0  0  0  0  0  0  0  0  0  0
  140.6240   77.3650  219.4290 C   0  0  0  0  0  0  0  0  0  0  0  0
  137.3320   79.6130  222.2200 C   0  0  0  0  0  0  0  0  0  0  0  0
  136.3780   79.9940  223.3640 C   0  0  0  0  0  0  0  0  0  0  0  0
  138.9672   82.0534  221.8233 H   0  0  0  0  0  0  0  0  0  0  0  0
  137.6210   82.3142  220.6630 H   0  0  0  0  0  0  0  0  0  0  0  0
  139.0342   83.4230  220.6630 H   0  0  0  0  0  0  0  0  0  0  0  0
  138.3881   84.0490  223.0704 H   0  0  0  0  0  0  0  0  0  0  0  0
  137.2438   84.5935  221.8160 H   0  0  0  0  0  0  0  0  0  0  0  0
  136.8050   84.9651  224.4492 H   0  0  0  0  0  0  0  0  0  0  0  0
  136.2615   86.2595  226.5025 H   0  0  0  0  0  0  0  0  0  0  0  0
  135.5908   85.0444  228.5500 H   0  0  0  0  0  0  0  0  0  0  0  0
  135.4438   82.5750  228.6018 H   0  0  0  0  0  0  0  0  0  0  0  0
  135.9928   81.2836  226.5231 H   0  0  0  0  0  0  0  0  0  0  0  0
  136.9421   80.4885  225.2547 H   0  0  0  0  0  0  0  0  0  0  0  0
  138.8473   81.3429  223.0340 H   0  0  0  0  0  0  0  0  0  0  0  0
  139.1666   81.3985  224.7887 H   0  0  0  0  0  0  0  0  0  0  0  0
  140.1551   79.3176  223.9024 H   0  0  0  0  0  0  0  0  0  0  0  0
  138.7444   78.8487  224.8586 H   0  0  0  0  0  0  0  0  0  0  0  0
  139.9962   76.6784  223.5414 H   0  0  0  0  0  0  0  0  0  0  0  0
  139.5360   74.7790  223.0990 H   0  0  0  0  0  0  0  0  0  0  0  0
  139.0940   75.0920  221.4900 H   0  0  0  0  0  0  0  0  0  0  0  0
  141.9400   76.7064  222.4441 H   0  0  0  0  0  0  0  0  0  0  0  0
  140.7699   79.6156  220.4905 H   0  0  0  0  0  0  0  0  0  0  0  0
  141.3507   81.8916  221.1731 H   0  0  0  0  0  0  0  0  0  0  0  0
  142.4537   82.3316  223.3415 H   0  0  0  0  0  0  0  0  0  0  0  0
  142.9673   80.4121  224.8275 H   0  0  0  0  0  0  0  0  0  0  0  0
  142.4029   78.1530  224.1702 H   0  0  0  0  0  0  0  0  0  0  0  0
  143.2683   75.8457  220.8384 H   0  0  0  0  0  0  0  0  0  0  0  0
  143.6658   75.3236  218.4765 H   0  0  0  0  0  0  0  0  0  0  0  0
  142.1413   76.0867  216.6967 H   0  0  0  0  0  0  0  0  0  0  0  0
  139.7341   77.9589  219.6847 H   0  0  0  0  0  0  0  0  0  0  0  0
  137.7101   80.5264  221.7376 H   0  0  0  0  0  0  0  0  0  0  0  0
  136.7930   79.0047  221.4788 H   0  0  0  0  0  0  0  0  0  0  0  0
  135.4941   80.5155  222.9682 H   0  0  0  0  0  0  0  0  0  0  0  0
  136.0156   79.1058  223.9022 H   0  0  0  0  0  0  0  0  0  0  0  0
  1  2  1  0
  2  3  1  0
  3  4  2  0
  3  5  1  0
  5  6  1  0
  6  7  2  0
  7  8  1  0
  8  9  2  0
  9 10  1  0
 10 11  2  0
  5 12  1  0
 12 13  1  0
 13 14  1  0
 14 15  1  0
 15 16  1  0
 16 17  2  0
 16 18  1  0
 18 19  1  0
 18 20  1  0
 20 21  1  0
 21 22  2  0
 22 23  1  0
 23 24  2  0
 24 25  1  0
 25 26  2  0
 20 27  1  0
 27 28  2  0
 28 29  1  0
 29 30  2  0
 30 31  1  0
 31 32  1  0
 31 33  2  0
 15 34  1  0
 34 35  1  0
 11  6  1  0
 35 12  1  0
 26 21  1  0
 33 27  1  0
  1 36  1  0
  1 37  1  0
  1 38  1  0
  2 39  1  0
  2 40  1  0
  7 41  1  0
  8 42  1  0
  9 43  1  0
 10 44  1  0
 11 45  1  0
 12 46  1  0
 13 47  1  0
 13 48  1  0
 14 49  1  0
 14 50  1  0
 18 51  1  1
 19 52  1  0
 19 53  1  0
 20 54  1  1
 22 55  1  0
 23 56  1  0
 24 57  1  0
 25 58  1  0
 26 59  1  0
 28 60  1  0
 29 61  1  0
 30 62  1  0
 33 63  1  0
 34 64  1  0
 34 65  1  0
 35 66  1  0
 35 67  1  0
M  END
>  <smiles>  (47) 
CCC(=O)N(c1ccccc1)C1CCN(C(=O)[C@@H](N)C(c2ccccc2)c2cccc(F)c2)CC1

>  <score_type>  (47) 
oracle

>  <origin>  (47) 
autodockgpu

>  <m_score__min__energy>  (47) 
-8.0600000000000005

>  <m_primary>  (47) 
energy

>  <rmsd>  (47) 
5.554778766379271

>  <m_score__min__rmsd>  (47) 
5.554778766379271

>  <meeko>  (47) 
{"free_energy": -6.7, "intermolecular_energy": -9.39, "internal_energy": -3.25, "cluster_size": 4, "cluster_id": 5, "rank_in_cluster": 4}

>  <energy>  (47) 
-6.96

>  <cluster_rmsd>  (47) 
0.0

>  <cluster>  (47) 
9

$$$$

     RDKit          3D

 67 70  0  0  0  0  0  0  0  0999 V2000
  142.9990   77.4830  216.4230 C   0  0  0  0  0  0  0  0  0  0  0  0
  143.5490   76.1360  216.8850 C   0  0  0  0  0  0  0  0  0  0  0  0
  142.6430   75.6150  217.9120 C   0  0  0  0  0  0  0  0  0  0  0  0
  141.4490   75.3330  217.5920 O   0  0  0  0  0  0  0  0  0  0  0  0
  143.0070   75.3980  219.2710 N   0  0  0  0  0  0  0  0  0  0  0  0
  143.9910   74.4040  219.5340 C   0  0  0  0  0  0  0  0  0  0  0  0
  144.0430   73.2110  218.8180 C   0  0  0  0  0  0  0  0  0  0  0  0
  145.0090   72.2620  219.0950 C   0  0  0  0  0  0  0  0  0  0  0  0
  145.9180   72.5250  220.1000 C   0  0  0  0  0  0  0  0  0  0  0  0
  145.8980   73.6940  220.8330 C   0  0  0  0  0  0  0  0  0  0  0  0
  144.9150   74.6420  220.5370 C   0  0  0  0  0  0  0  0  0  0  0  0
  142.3710   76.1880  220.2980 C   0  0  0  0  0  0  0  0  0  0  0  0
  141.1100   75.4920  220.6890 C   0  0  0  0  0  0  0  0  0  0  0  0
  140.3880   76.3700  221.7140 C   0  0  0  0  0  0  0  0  0  0  0  0
  139.9580   77.5440  220.9830 N   0  0  0  0  0  0  0  0  0  0  0  0
  138.9670   78.4490  221.3640 C   0  0  0  0  0  0  0  0  0  0  0  0
  138.7130   79.4320  220.5640 O   0  0  0  0  0  0  0  0  0  0  0  0
  138.1430   78.4380  222.5920 C   0  0  1  0  0  0  0  0  0  0  0  0
  137.7500   77.2050  223.0940 N   0  0  0  0  0  0  0  0  0  0  0  0
  138.7560   79.4250  223.5440 C   0  0  2  0  0  0  0  0  0  0  0  0
  137.9100   80.5360  223.9750 C   0  0  0  0  0  0  0  0  0  0  0  0
  137.7290   80.8920  225.3160 C   0  0  0  0  0  0  0  0  0  0  0  0
  136.9310   81.9470  225.6950 C   0  0  0  0  0  0  0  0  0  0  0  0
  136.2690   82.7070  224.7720 C   0  0  0  0  0  0  0  0  0  0  0  0
  136.4220   82.3880  223.4470 C   0  0  0  0  0  0  0  0  0  0  0  0
  137.2080   81.3480  223.0710 C   0  0  0  0  0  0  0  0  0  0  0  0
  140.1590   79.8000  223.2410 C   0  0  0  0  0  0  0  0  0  0  0  0
  141.2370   79.0170  223.6740 C   0  0  0  0  0  0  0  0  0  0  0  0
  142.5320   79.3880  223.3780 C   0  0  0  0  0  0  0  0  0  0  0  0
  142.8370   80.5120  222.6640 C   0  0  0  0  0  0  0  0  0  0  0  0
  141.7830   81.2950  222.2280 C   0  0  0  0  0  0  0  0  0  0  0  0
  142.0720   82.4250  221.5110 F   0  0  0  0  0  0  0  0  0  0  0  0
  140.5070   80.9290  222.5210 C   0  0  0  0  0  0  0  0  0  0  0  0
  140.6550   77.7800  219.7180 C   0  0  0  0  0  0  0  0  0  0  0  0
  142.1680   77.6140  219.9310 C   0  0  0  0  0  0  0  0  0  0  0  0
  142.7482   78.0971  217.3005 H   0  0  0  0  0  0  0  0  0  0  0  0
  143.7577   78.0008  215.8178 H   0  0  0  0  0  0  0  0  0  0  0  0
  142.0947   77.3217  215.8178 H   0  0  0  0  0  0  0  0  0  0  0  0
  143.5940   75.4382  216.0358 H   0  0  0  0  0  0  0  0  0  0  0  0
  144.5651   76.2525  217.2899 H   0  0  0  0  0  0  0  0  0  0  0  0
  143.3069   73.0216  218.0228 H   0  0  0  0  0  0  0  0  0  0  0  0
  145.0524   71.3201  218.5284 H   0  0  0  0  0  0  0  0  0  0  0  0
  146.6886   71.7731  220.3255 H   0  0  0  0  0  0  0  0  0  0  0  0
  146.6358   73.8747  221.6286 H   0  0  0  0  0  0  0  0  0  0  0  0
  144.8751   75.5834  221.1046 H   0  0  0  0  0  0  0  0  0  0  0  0
  143.0444   76.2556  221.1652 H   0  0  0  0  0  0  0  0  0  0  0  0
  140.4723   75.3485  219.8043 H   0  0  0  0  0  0  0  0  0  0  0  0
  141.3342   74.5049  221.1195 H   0  0  0  0  0  0  0  0  0  0  0  0
  139.5206   75.8385  222.1324 H   0  0  0  0  0  0  0  0  0  0  0  0
  141.0414   76.6321  222.5592 H   0  0  0  0  0  0  0  0  0  0  0  0
  137.1244   78.7721  222.3455 H   0  0  0  0  0  0  0  0  0  0  0  0
  136.7670   76.9230  223.0270 H   0  0  0  0  0  0  0  0  0  0  0  0
  138.3920   76.4290  223.0090 H   0  0  0  0  0  0  0  0  0  0  0  0
  138.8257   78.8233  224.4622 H   0  0  0  0  0  0  0  0  0  0  0  0
  138.2424   80.3083  226.0942 H   0  0  0  0  0  0  0  0  0  0  0  0
  136.8236   82.1837  226.7638 H   0  0  0  0  0  0  0  0  0  0  0  0
  135.6328   83.5490  225.0824 H   0  0  0  0  0  0  0  0  0  0  0  0
  135.9019   82.9817  222.6809 H   0  0  0  0  0  0  0  0  0  0  0  0
  137.3002   81.1289  221.9970 H   0  0  0  0  0  0  0  0  0  0  0  0
  141.0495   78.1010  224.2534 H   0  0  0  0  0  0  0  0  0  0  0  0
  143.3555   78.7507  223.7325 H   0  0  0  0  0  0  0  0  0  0  0  0
  143.8800   80.7839  222.4443 H   0  0  0  0  0  0  0  0  0  0  0  0
  139.6939   81.5761  222.1602 H   0  0  0  0  0  0  0  0  0  0  0  0
  140.3082   77.0550  218.9670 H   0  0  0  0  0  0  0  0  0  0  0  0
  140.4429   78.8004  219.3661 H   0  0  0  0  0  0  0  0  0  0  0  0
  142.7136   77.8530  219.0062 H   0  0  0  0  0  0  0  0  0  0  0  0
  142.5436   78.2907  220.7126 H   0  0  0  0  0  0  0  0  0  0  0  0
  1  2  1  0
  2  3  1  0
  3  4  2  0
  3  5  1  0
  5  6  1  0
  6  7  2  0
  7  8  1  0
  8  9  2  0
  9 10  1  0
 10 11  2  0
  5 12  1  0
 12 13  1  0
 13 14  1  0
 14 15  1  0
 15 16  1  0
 16 17  2  0
 16 18  1  0
 18 19  1  0
 18 20  1  0
 20 21  1  0
 21 22  2  0
 22 23  1  0
 23 24  2  0
 24 25  1  0
 25 26  2  0
 20 27  1  0
 27 28  2  0
 28 29  1  0
 29 30  2  0
 30 31  1  0
 31 32  1  0
 31 33  2  0
 15 34  1  0
 34 35  1  0
 11  6  1  0
 35 12  1  0
 26 21  1  0
 33 27  1  0
  1 36  1  0
  1 37  1  0
  1 38  1  0
  2 39  1  0
  2 40  1  0
  7 41  1  0
  8 42  1  0
  9 43  1  0
 10 44  1  0
 11 45  1  0
 12 46  1  0
 13 47  1  0
 13 48  1  0
 14 49  1  0
 14 50  1  0
 18 51  1  6
 19 52  1  0
 19 53  1  0
 20 54  1  1
 22 55  1  0
 23 56  1  0
 24 57  1  0
 25 58  1  0
 26 59  1  0
 28 60  1  0
 29 61  1  0
 30 62  1  0
 33 63  1  0
 34 64  1  0
 34 65  1  0
 35 66  1  0
 35 67  1  0
M  END
>  <smiles>  (48) 
CCC(=O)N(c1ccccc1)C1CCN(C(=O)[C@@H](N)C(c2ccccc2)c2cccc(F)c2)CC1

>  <score_type>  (48) 
oracle

>  <origin>  (48) 
autodockgpu

>  <m_score__min__energy>  (48) 
-8.0600000000000005

>  <m_primary>  (48) 
energy

>  <rmsd>  (48) 
4.422897205263158

>  <m_score__min__rmsd>  (48) 
4.422897205263158

>  <meeko>  (48) 
{"free_energy": -6.98, "intermolecular_energy": -9.66, "internal_energy": -2.91, "cluster_size": 11, "cluster_id": 7, "rank_in_cluster": 10}

>  <energy>  (48) 
-6.87

>  <cluster_rmsd>  (48) 
0.0

>  <cluster>  (48) 
10

$$$$

     RDKit          3D

 67 70  0  0  0  0  0  0  0  0999 V2000
  135.2280   69.9230  225.2320 C   0  0  0  0  0  0  0  0  0  0  0  0
  136.5630   69.2520  224.9210 C   0  0  0  0  0  0  0  0  0  0  0  0
  137.5150   70.3050  224.5550 C   0  0  0  0  0  0  0  0  0  0  0  0
  137.0710   71.4480  224.2330 O   0  0  0  0  0  0  0  0  0  0  0  0
  138.9290   70.1390  224.5310 N   0  0  0  0  0  0  0  0  0  0  0  0
  139.5670   69.7800  225.7510 C   0  0  0  0  0  0  0  0  0  0  0  0
  139.6840   68.4540  226.1600 C   0  0  0  0  0  0  0  0  0  0  0  0
  140.3080   68.1330  227.3490 C   0  0  0  0  0  0  0  0  0  0  0  0
  140.8110   69.1590  228.1250 C   0  0  0  0  0  0  0  0  0  0  0  0
  140.7130   70.4860  227.7550 C   0  0  0  0  0  0  0  0  0  0  0  0
  140.0790   70.7890  226.5470 C   0  0  0  0  0  0  0  0  0  0  0  0
  139.6330   70.3380  223.2870 C   0  0  0  0  0  0  0  0  0  0  0  0
  140.3940   71.6180  223.3970 C   0  0  0  0  0  0  0  0  0  0  0  0
  141.0710   71.8770  222.0480 C   0  0  0  0  0  0  0  0  0  0  0  0
  139.9940   72.1590  221.1230 N   0  0  0  0  0  0  0  0  0  0  0  0
  140.0990   72.8030  219.8890 C   0  0  0  0  0  0  0  0  0  0  0  0
  139.0130   72.9770  219.2100 O   0  0  0  0  0  0  0  0  0  0  0  0
  141.3150   73.3280  219.2340 C   0  0  1  0  0  0  0  0  0  0  0  0
  141.1620   73.9950  218.0270 N   0  0  0  0  0  0  0  0  0  0  0  0
  142.1430   73.9850  220.3020 C   0  0  2  0  0  0  0  0  0  0  0  0
  141.8780   75.3980  220.5630 C   0  0  0  0  0  0  0  0  0  0  0  0
  142.3700   76.4350  219.7630 C   0  0  0  0  0  0  0  0  0  0  0  0
  142.1010   77.7600  220.0270 C   0  0  0  0  0  0  0  0  0  0  0  0
  141.3310   78.1300  221.0940 C   0  0  0  0  0  0  0  0  0  0  0  0
  140.8300   77.1420  221.9010 C   0  0  0  0  0  0  0  0  0  0  0  0
  141.0950   75.8360  221.6420 C   0  0  0  0  0  0  0  0  0  0  0  0
  143.5810   73.6210  220.2930 C   0  0  0  0  0  0  0  0  0  0  0  0
  144.5550   74.4670  220.8390 C   0  0  0  0  0  0  0  0  0  0  0  0
  145.8860   74.1050  220.8180 C   0  0  0  0  0  0  0  0  0  0  0  0
  146.3260   72.9290  220.2790 C   0  0  0  0  0  0  0  0  0  0  0  0
  145.3760   72.0820  219.7360 C   0  0  0  0  0  0  0  0  0  0  0  0
  145.8010   70.9000  219.1920 F   0  0  0  0  0  0  0  0  0  0  0  0
  144.0650   72.4410  219.7570 C   0  0  0  0  0  0  0  0  0  0  0  0
  138.6690   71.7080  221.5520 C   0  0  0  0  0  0  0  0  0  0  0  0
  138.7670   70.2680  222.0800 C   0  0  0  0  0  0  0  0  0  0  0  0
  135.0961   69.9893  226.3220 H   0  0  0  0  0  0  0  0  0  0  0  0
  135.2162   70.9341  224.7990 H   0  0  0  0  0  0  0  0  0  0  0  0
  134.4095   69.3292  224.7990 H   0  0  0  0  0  0  0  0  0  0  0  0
  136.9256   68.7102  225.8070 H   0  0  0  0  0  0  0  0  0  0  0  0
  136.4500   68.5310  224.0980 H   0  0  0  0  0  0  0  0  0  0  0  0
  139.2742   67.6524  225.5279 H   0  0  0  0  0  0  0  0  0  0  0  0
  140.4023   67.0853  227.6706 H   0  0  0  0  0  0  0  0  0  0  0  0
  141.3086   68.9097  229.0738 H   0  0  0  0  0  0  0  0  0  0  0  0
  141.1227   71.2825  228.3936 H   0  0  0  0  0  0  0  0  0  0  0  0
  139.9864   71.8373  226.2268 H   0  0  0  0  0  0  0  0  0  0  0  0
  140.3304   69.5015  223.1326 H   0  0  0  0  0  0  0  0  0  0  0  0
  139.7064   72.4429  223.6352 H   0  0  0  0  0  0  0  0  0  0  0  0
  141.1454   71.5509  224.1976 H   0  0  0  0  0  0  0  0  0  0  0  0
  141.7524   72.7377  222.1187 H   0  0  0  0  0  0  0  0  0  0  0  0
  141.6742   71.0168  221.7222 H   0  0  0  0  0  0  0  0  0  0  0  0
  141.8853   72.4884  218.8100 H   0  0  0  0  0  0  0  0  0  0  0  0
  141.8810   73.9010  217.3020 H   0  0  0  0  0  0  0  0  0  0  0  0
  140.2290   74.0880  217.6480 H   0  0  0  0  0  0  0  0  0  0  0  0
  141.7439   73.5060  221.2083 H   0  0  0  0  0  0  0  0  0  0  0  0
  142.9936   76.1834  218.8925 H   0  0  0  0  0  0  0  0  0  0  0  0
  142.5142   78.5359  219.3658 H   0  0  0  0  0  0  0  0  0  0  0  0
  141.1196   79.1898  221.2990 H   0  0  0  0  0  0  0  0  0  0  0  0
  140.2070   77.4099  222.7671 H   0  0  0  0  0  0  0  0  0  0  0  0
  140.6716   75.0775  222.3168 H   0  0  0  0  0  0  0  0  0  0  0  0
  144.2565   75.4261  221.2874 H   0  0  0  0  0  0  0  0  0  0  0  0
  146.6253   74.7930  221.2541 H   0  0  0  0  0  0  0  0  0  0  0  0
  147.3940   72.6658  220.2769 H   0  0  0  0  0  0  0  0  0  0  0  0
  143.3372   71.7436  219.3165 H   0  0  0  0  0  0  0  0  0  0  0  0
  138.2975   72.3673  222.3503 H   0  0  0  0  0  0  0  0  0  0  0  0
  137.9754   71.7405  220.6989 H   0  0  0  0  0  0  0  0  0  0  0  0
  137.7693   69.8885  222.3457 H   0  0  0  0  0  0  0  0  0  0  0  0
  139.1815   69.5861  221.3229 H   0  0  0  0  0  0  0  0  0  0  0  0
  1  2  1  0
  2  3  1  0
  3  4  2  0
  3  5  1  0
  5  6  1  0
  6  7  2  0
  7  8  1  0
  8  9  2  0
  9 10  1  0
 10 11  2  0
  5 12  1  0
 12 13  1  0
 13 14  1  0
 14 15  1  0
 15 16  1  0
 16 17  2  0
 16 18  1  0
 18 19  1  0
 18 20  1  0
 20 21  1  0
 21 22  2  0
 22 23  1  0
 23 24  2  0
 24 25  1  0
 25 26  2  0
 20 27  1  0
 27 28  2  0
 28 29  1  0
 29 30  2  0
 30 31  1  0
 31 32  1  0
 31 33  2  0
 15 34  1  0
 34 35  1  0
 11  6  1  0
 35 12  1  0
 26 21  1  0
 33 27  1  0
  1 36  1  0
  1 37  1  0
  1 38  1  0
  2 39  1  0
  2 40  1  0
  7 41  1  0
  8 42  1  0
  9 43  1  0
 10 44  1  0
 11 45  1  0
 12 46  1  0
 13 47  1  0
 13 48  1  0
 14 49  1  0
 14 50  1  0
 18 51  1  6
 19 52  1  0
 19 53  1  0
 20 54  1  1
 22 55  1  0
 23 56  1  0
 24 57  1  0
 25 58  1  0
 26 59  1  0
 28 60  1  0
 29 61  1  0
 30 62  1  0
 33 63  1  0
 34 64  1  0
 34 65  1  0
 35 66  1  0
 35 67  1  0
M  END
>  <smiles>  (49) 
CCC(=O)N(c1ccccc1)C1CCN(C(=O)[C@@H](N)C(c2ccccc2)c2cccc(F)c2)CC1

>  <score_type>  (49) 
oracle

>  <origin>  (49) 
autodockgpu

>  <m_score__min__energy>  (49) 
-8.0600000000000005

>  <m_primary>  (49) 
energy

>  <rmsd>  (49) 
6.476325303572814

>  <m_score__min__rmsd>  (49) 
6.476325303572814

>  <meeko>  (49) 
{"free_energy": -7.45, "intermolecular_energy": -10.14, "internal_energy": -2.85, "cluster_size": 14, "cluster_id": 2, "rank_in_cluster": 2}

>  <energy>  (49) 
-6.77

>  <cluster_rmsd>  (49) 
0.0

>  <cluster>  (49) 
11

$$$$

     RDKit          3D

 67 70  0  0  0  0  0  0  0  0999 V2000
  135.3600   69.7560  225.0700 C   0  0  0  0  0  0  0  0  0  0  0  0
  136.7840   69.2180  224.9530 C   0  0  0  0  0  0  0  0  0  0  0  0
  137.6490   70.3350  224.5640 C   0  0  0  0  0  0  0  0  0  0  0  0
  137.1170   71.4370  224.2330 O   0  0  0  0  0  0  0  0  0  0  0  0
  139.0710   70.2760  224.5280 N   0  0  0  0  0  0  0  0  0  0  0  0
  139.7470   70.0090  225.7500 C   0  0  0  0  0  0  0  0  0  0  0  0
  139.8600   68.7190  226.2640 C   0  0  0  0  0  0  0  0  0  0  0  0
  140.5210   68.4870  227.4540 C   0  0  0  0  0  0  0  0  0  0  0  0
  141.0660   69.5650  228.1230 C   0  0  0  0  0  0  0  0  0  0  0  0
  140.9750   70.8570  227.6480 C   0  0  0  0  0  0  0  0  0  0  0  0
  140.3030   71.0710  226.4410 C   0  0  0  0  0  0  0  0  0  0  0  0
  139.7450   70.4860  223.2690 C   0  0  0  0  0  0  0  0  0  0  0  0
  140.4440   71.8030  223.3420 C   0  0  0  0  0  0  0  0  0  0  0  0
  141.0870   72.0700  221.9790 C   0  0  0  0  0  0  0  0  0  0  0  0
  139.9830   72.2810  221.0660 N   0  0  0  0  0  0  0  0  0  0  0  0
  140.0370   72.9050  219.8190 C   0  0  0  0  0  0  0  0  0  0  0  0
  138.9340   73.0140  219.1550 O   0  0  0  0  0  0  0  0  0  0  0  0
  141.2160   73.4770  219.1350 C   0  0  1  0  0  0  0  0  0  0  0  0
  140.9970   74.2250  217.9860 N   0  0  0  0  0  0  0  0  0  0  0  0
  142.1040   74.0610  220.1970 C   0  0  2  0  0  0  0  0  0  0  0  0
  141.7690   75.4030  220.6680 C   0  0  0  0  0  0  0  0  0  0  0  0
  142.1740   76.5720  220.0150 C   0  0  0  0  0  0  0  0  0  0  0  0
  141.8410   77.8260  220.4770 C   0  0  0  0  0  0  0  0  0  0  0  0
  141.0890   77.9920  221.6060 C   0  0  0  0  0  0  0  0  0  0  0  0
  140.6730   76.8690  222.2730 C   0  0  0  0  0  0  0  0  0  0  0  0
  141.0010   75.6330  221.8200 C   0  0  0  0  0  0  0  0  0  0  0  0
  143.5550   73.8210  220.0030 C   0  0  0  0  0  0  0  0  0  0  0  0
  144.4870   74.1180  221.0060 C   0  0  0  0  0  0  0  0  0  0  0  0
  145.8310   73.8850  220.8010 C   0  0  0  0  0  0  0  0  0  0  0  0
  146.3240   73.3640  219.6380 C   0  0  0  0  0  0  0  0  0  0  0  0
  145.4160   73.0640  218.6390 C   0  0  0  0  0  0  0  0  0  0  0  0
  145.8940   72.5400  217.4680 F   0  0  0  0  0  0  0  0  0  0  0  0
  144.0920   73.2950  218.8420 C   0  0  0  0  0  0  0  0  0  0  0  0
  138.6890   71.7740  221.5250 C   0  0  0  0  0  0  0  0  0  0  0  0
  138.8660   70.3510  222.0770 C   0  0  0  0  0  0  0  0  0  0  0  0
  135.0924   69.8571  226.1321 H   0  0  0  0  0  0  0  0  0  0  0  0
  135.2983   70.7394  224.5811 H   0  0  0  0  0  0  0  0  0  0  0  0
  134.6634   69.0591  224.5811 H   0  0  0  0  0  0  0  0  0  0  0  0
  137.1113   68.8094  225.9204 H   0  0  0  0  0  0  0  0  0  0  0  0
  136.8326   68.4130  224.2049 H   0  0  0  0  0  0  0  0  0  0  0  0
  139.4172   67.8748  225.7151 H   0  0  0  0  0  0  0  0  0  0  0  0
  140.6112   67.4683  227.8591 H   0  0  0  0  0  0  0  0  0  0  0  0
  141.5933   69.3866  229.0718 H   0  0  0  0  0  0  0  0  0  0  0  0
  141.4191   71.6959  228.2038 H   0  0  0  0  0  0  0  0  0  0  0  0
  140.2156   72.0907  226.0378 H   0  0  0  0  0  0  0  0  0  0  0  0
  140.4798   69.6811  223.1199 H   0  0  0  0  0  0  0  0  0  0  0  0
  139.7204   72.5978  223.5761 H   0  0  0  0  0  0  0  0  0  0  0  0
  141.2104   71.7870  224.1309 H   0  0  0  0  0  0  0  0  0  0  0  0
  141.7255   72.9646  222.0236 H   0  0  0  0  0  0  0  0  0  0  0  0
  141.7277   71.2351  221.6591 H   0  0  0  0  0  0  0  0  0  0  0  0
  141.7604   72.6693  218.6239 H   0  0  0  0  0  0  0  0  0  0  0  0
  140.0500   74.2870  217.5970 H   0  0  0  0  0  0  0  0  0  0  0  0
  141.5330   75.0720  217.8590 H   0  0  0  0  0  0  0  0  0  0  0  0
  141.8379   73.4407  221.0656 H   0  0  0  0  0  0  0  0  0  0  0  0
  142.7795   76.4867  219.1006 H   0  0  0  0  0  0  0  0  0  0  0  0
  142.1876   78.7125  219.9257 H   0  0  0  0  0  0  0  0  0  0  0  0
  140.8255   78.9965  221.9686 H   0  0  0  0  0  0  0  0  0  0  0  0
  140.0668   76.9711  223.1852 H   0  0  0  0  0  0  0  0  0  0  0  0
  140.6446   74.7611  222.3882 H   0  0  0  0  0  0  0  0  0  0  0  0
  144.1449   74.5395  221.9627 H   0  0  0  0  0  0  0  0  0  0  0  0
  146.5365   74.1292  221.6088 H   0  0  0  0  0  0  0  0  0  0  0  0
  147.4015   73.1899  219.5016 H   0  0  0  0  0  0  0  0  0  0  0  0
  143.3986   73.0460  218.0252 H   0  0  0  0  0  0  0  0  0  0  0  0
  138.2981   72.4292  222.3174 H   0  0  0  0  0  0  0  0  0  0  0  0
  137.9813   71.7565  220.6831 H   0  0  0  0  0  0  0  0  0  0  0  0
  137.8923   69.9278  222.3649 H   0  0  0  0  0  0  0  0  0  0  0  0
  139.3027   69.6765  221.3258 H   0  0  0  0  0  0  0  0  0  0  0  0
  1  2  1  0
  2  3  1  0
  3  4  2  0
  3  5  1  0
  5  6  1  0
  6  7  2  0
  7  8  1  0
  8  9  2  0
  9 10  1  0
 10 11  2  0
  5 12  1  0
 12 13  1  0
 13 14  1  0
 14 15  1  0
 15 16  1  0
 16 17  2  0
 16 18  1  0
 18 19  1  0
 18 20  1  0
 20 21  1  0
 21 22  2  0
 22 23  1  0
 23 24  2  0
 24 25  1  0
 25 26  2  0
 20 27  1  0
 27 28  2  0
 28 29  1  0
 29 30  2  0
 30 31  1  0
 31 32  1  0
 31 33  2  0
 15 34  1  0
 34 35  1  0
 11  6  1  0
 35 12  1  0
 26 21  1  0
 33 27  1  0
  1 36  1  0
  1 37  1  0
  1 38  1  0
  2 39  1  0
  2 40  1  0
  7 41  1  0
  8 42  1  0
  9 43  1  0
 10 44  1  0
 11 45  1  0
 12 46  1  0
 13 47  1  0
 13 48  1  0
 14 49  1  0
 14 50  1  0
 18 51  1  6
 19 52  1  0
 19 53  1  0
 20 54  1  1
 22 55  1  0
 23 56  1  0
 24 57  1  0
 25 58  1  0
 26 59  1  0
 28 60  1  0
 29 61  1  0
 30 62  1  0
 33 63  1  0
 34 64  1  0
 34 65  1  0
 35 66  1  0
 35 67  1  0
M  END
>  <smiles>  (50) 
CCC(=O)N(c1ccccc1)C1CCN(C(=O)[C@@H](N)C(c2ccccc2)c2cccc(F)c2)CC1

>  <score_type>  (50) 
oracle

>  <origin>  (50) 
autodockgpu

>  <m_score__min__energy>  (50) 
-8.0600000000000005

>  <m_primary>  (50) 
energy

>  <rmsd>  (50) 
6.388604409424638

>  <m_score__min__rmsd>  (50) 
6.388604409424638

>  <meeko>  (50) 
{"free_energy": -7.24, "intermolecular_energy": -9.93, "internal_energy": -2.81, "cluster_size": 14, "cluster_id": 2, "rank_in_cluster": 9}

>  <energy>  (50) 
-6.72

>  <cluster_rmsd>  (50) 
0.32

>  <cluster>  (50) 
11

$$$$

     RDKit          3D

 67 70  0  0  0  0  0  0  0  0999 V2000
  143.3350   77.0480  215.9580 C   0  0  0  0  0  0  0  0  0  0  0  0
  143.6990   76.1030  217.0790 C   0  0  0  0  0  0  0  0  0  0  0  0
  143.1820   76.6730  218.3470 C   0  0  0  0  0  0  0  0  0  0  0  0
  143.3200   77.9140  218.5080 O   0  0  0  0  0  0  0  0  0  0  0  0
  142.5710   75.8170  219.3010 N   0  0  0  0  0  0  0  0  0  0  0  0
  143.2710   74.6730  219.8210 C   0  0  0  0  0  0  0  0  0  0  0  0
  142.7380   73.4030  219.7820 C   0  0  0  0  0  0  0  0  0  0  0  0
  143.5050   72.3620  220.3130 C   0  0  0  0  0  0  0  0  0  0  0  0
  144.7550   72.6200  220.8520 C   0  0  0  0  0  0  0  0  0  0  0  0
  145.2840   73.9040  220.8870 C   0  0  0  0  0  0  0  0  0  0  0  0
  144.5160   74.9270  220.3610 C   0  0  0  0  0  0  0  0  0  0  0  0
  141.2340   76.0330  219.8000 C   0  0  0  0  0  0  0  0  0  0  0  0
  141.2350   75.6530  221.2730 C   0  0  0  0  0  0  0  0  0  0  0  0
  139.8100   75.7230  221.7210 C   0  0  0  0  0  0  0  0  0  0  0  0
  139.3710   77.1330  221.6110 N   0  0  0  0  0  0  0  0  0  0  0  0
  138.4390   77.5260  222.6000 C   0  0  0  0  0  0  0  0  0  0  0  0
  138.1120   76.6220  223.4440 O   0  0  0  0  0  0  0  0  0  0  0  0
  137.8110   78.8400  222.7690 C   0  0  1  0  0  0  0  0  0  0  0  0
  136.4240   78.7190  223.0620 N   0  0  0  0  0  0  0  0  0  0  0  0
  138.5600   79.6690  223.7900 C   0  0  1  0  0  0  0  0  0  0  0  0
  139.9420   79.9330  223.3340 C   0  0  0  0  0  0  0  0  0  0  0  0
  140.9850   79.1720  223.8370 C   0  0  0  0  0  0  0  0  0  0  0  0
  142.2940   79.3540  223.4680 C   0  0  0  0  0  0  0  0  0  0  0  0
  142.6010   80.3390  222.5510 C   0  0  0  0  0  0  0  0  0  0  0  0
  141.5840   81.1210  222.0260 C   0  0  0  0  0  0  0  0  0  0  0  0
  140.2810   80.9080  222.4230 C   0  0  0  0  0  0  0  0  0  0  0  0
  137.8590   80.9160  224.1750 C   0  0  0  0  0  0  0  0  0  0  0  0
  137.3970   81.8270  223.2420 C   0  0  0  0  0  0  0  0  0  0  0  0
  136.7430   82.9920  223.5890 C   0  0  0  0  0  0  0  0  0  0  0  0
  136.5580   83.2260  224.9350 C   0  0  0  0  0  0  0  0  0  0  0  0
  136.9900   82.3650  225.9210 C   0  0  0  0  0  0  0  0  0  0  0  0
  136.7630   82.6770  227.2210 F   0  0  0  0  0  0  0  0  0  0  0  0
  137.6380   81.2170  225.5140 C   0  0  0  0  0  0  0  0  0  0  0  0
  139.8550   78.0120  220.5880 C   0  0  0  0  0  0  0  0  0  0  0  0
  140.8190   77.4560  219.6150 C   0  0  0  0  0  0  0  0  0  0  0  0
  142.9700   77.9955  216.3811 H   0  0  0  0  0  0  0  0  0  0  0  0
  144.2231   77.2411  215.3383 H   0  0  0  0  0  0  0  0  0  0  0  0
  142.5468   76.5955  215.3383 H   0  0  0  0  0  0  0  0  0  0  0  0
  143.2431   75.1181  216.8995 H   0  0  0  0  0  0  0  0  0  0  0  0
  144.7906   75.9785  217.1337 H   0  0  0  0  0  0  0  0  0  0  0  0
  141.7446   73.2151  219.3486 H   0  0  0  0  0  0  0  0  0  0  0  0
  143.1145   71.3337  220.3029 H   0  0  0  0  0  0  0  0  0  0  0  0
  145.3437   71.7866  221.2628 H   0  0  0  0  0  0  0  0  0  0  0  0
  146.2772   74.1000  221.3172 H   0  0  0  0  0  0  0  0  0  0  0  0
  144.9024   75.9568  220.3731 H   0  0  0  0  0  0  0  0  0  0  0  0
  140.5112   75.4171  219.2447 H   0  0  0  0  0  0  0  0  0  0  0  0
  141.6265   74.6334  221.4038 H   0  0  0  0  0  0  0  0  0  0  0  0
  141.8745   76.3275  221.8613 H   0  0  0  0  0  0  0  0  0  0  0  0
  139.1841   75.0849  221.0798 H   0  0  0  0  0  0  0  0  0  0  0  0
  139.7151   75.3703  222.7586 H   0  0  0  0  0  0  0  0  0  0  0  0
  137.8755   79.3813  221.8136 H   0  0  0  0  0  0  0  0  0  0  0  0
  136.2370   77.7810  223.4780 H   0  0  0  0  0  0  0  0  0  0  0  0
  135.8600   78.7050  222.1590 H   0  0  0  0  0  0  0  0  0  0  0  0
  138.6029   79.0677  224.7101 H   0  0  0  0  0  0  0  0  0  0  0  0
  140.7523   78.3835  224.5678 H   0  0  0  0  0  0  0  0  0  0  0  0
  143.0873   78.7240  223.8968 H   0  0  0  0  0  0  0  0  0  0  0  0
  143.6434   80.5019  222.2396 H   0  0  0  0  0  0  0  0  0  0  0  0
  141.8159   81.9093  221.2947 H   0  0  0  0  0  0  0  0  0  0  0  0
  139.4858   81.5380  221.9978 H   0  0  0  0  0  0  0  0  0  0  0  0
  137.5582   81.6133  222.1751 H   0  0  0  0  0  0  0  0  0  0  0  0
  136.3861   83.7006  222.8271 H   0  0  0  0  0  0  0  0  0  0  0  0
  136.0389   84.1473  225.2377 H   0  0  0  0  0  0  0  0  0  0  0  0
  137.9939   80.5118  226.2795 H   0  0  0  0  0  0  0  0  0  0  0  0
  138.9832   78.3704  220.0210 H   0  0  0  0  0  0  0  0  0  0  0  0
  140.4156   78.7900  221.1269 H   0  0  0  0  0  0  0  0  0  0  0  0
  140.3668   77.5413  218.6159 H   0  0  0  0  0  0  0  0  0  0  0  0
  141.7391   78.0405  219.7629 H   0  0  0  0  0  0  0  0  0  0  0  0
  1  2  1  0
  2  3  1  0
  3  4  2  0
  3  5  1  0
  5  6  1  0
  6  7  2  0
  7  8  1  0
  8  9  2  0
  9 10  1  0
 10 11  2  0
  5 12  1  0
 12 13  1  0
 13 14  1  0
 14 15  1  0
 15 16  1  0
 16 17  2  0
 16 18  1  0
 18 19  1  0
 18 20  1  0
 20 21  1  0
 21 22  2  0
 22 23  1  0
 23 24  2  0
 24 25  1  0
 25 26  2  0
 20 27  1  0
 27 28  2  0
 28 29  1  0
 29 30  2  0
 30 31  1  0
 31 32  1  0
 31 33  2  0
 15 34  1  0
 34 35  1  0
 11  6  1  0
 35 12  1  0
 26 21  1  0
 33 27  1  0
  1 36  1  0
  1 37  1  0
  1 38  1  0
  2 39  1  0
  2 40  1  0
  7 41  1  0
  8 42  1  0
  9 43  1  0
 10 44  1  0
 11 45  1  0
 12 46  1  0
 13 47  1  0
 13 48  1  0
 14 49  1  0
 14 50  1  0
 18 51  1  6
 19 52  1  0
 19 53  1  0
 20 54  1  1
 22 55  1  0
 23 56  1  0
 24 57  1  0
 25 58  1  0
 26 59  1  0
 28 60  1  0
 29 61  1  0
 30 62  1  0
 33 63  1  0
 34 64  1  0
 34 65  1  0
 35 66  1  0
 35 67  1  0
M  END
>  <smiles>  (51) 
CCC(=O)N(c1ccccc1)C1CCN(C(=O)[C@@H](N)C(c2ccccc2)c2cccc(F)c2)CC1

>  <score_type>  (51) 
oracle

>  <origin>  (51) 
autodockgpu

>  <m_score__min__energy>  (51) 
-8.2300000000000004

>  <m_primary>  (51) 
energy

>  <rmsd>  (51) 
3.552859806380888

>  <m_score__min__rmsd>  (51) 
3.552859806380888

>  <meeko>  (51) 
{"free_energy": -7.02, "intermolecular_energy": -9.71, "internal_energy": -3.36, "cluster_size": 7, "cluster_id": 7, "rank_in_cluster": 1}

>  <energy>  (51) 
-8.23

>  <cluster_rmsd>  (51) 
0.0

>  <cluster>  (51) 
1

$$$$

     RDKit          3D

 67 70  0  0  0  0  0  0  0  0999 V2000
  143.3270   77.0270  215.9790 C   0  0  0  0  0  0  0  0  0  0  0  0
  143.6900   76.0860  217.1030 C   0  0  0  0  0  0  0  0  0  0  0  0
  143.1730   76.6610  218.3690 C   0  0  0  0  0  0  0  0  0  0  0  0
  143.3240   77.9000  218.5320 O   0  0  0  0  0  0  0  0  0  0  0  0
  142.5480   75.8110  219.3190 N   0  0  0  0  0  0  0  0  0  0  0  0
  143.2300   74.6560  219.8370 C   0  0  0  0  0  0  0  0  0  0  0  0
  142.6740   73.3960  219.8050 C   0  0  0  0  0  0  0  0  0  0  0  0
  143.4260   72.3430  220.3330 C   0  0  0  0  0  0  0  0  0  0  0  0
  144.6830   72.5790  220.8650 C   0  0  0  0  0  0  0  0  0  0  0  0
  145.2350   73.8540  220.8940 C   0  0  0  0  0  0  0  0  0  0  0  0
  144.4820   74.8890  220.3690 C   0  0  0  0  0  0  0  0  0  0  0  0
  141.2120   76.0440  219.8150 C   0  0  0  0  0  0  0  0  0  0  0  0
  141.2020   75.6510  221.2850 C   0  0  0  0  0  0  0  0  0  0  0  0
  139.7760   75.7410  221.7280 C   0  0  0  0  0  0  0  0  0  0  0  0
  139.3610   77.1590  221.6290 N   0  0  0  0  0  0  0  0  0  0  0  0
  138.4320   77.5590  222.6180 C   0  0  0  0  0  0  0  0  0  0  0  0
  138.0870   76.6530  223.4530 O   0  0  0  0  0  0  0  0  0  0  0  0
  137.8240   78.8810  222.7960 C   0  0  1  0  0  0  0  0  0  0  0  0
  136.4330   78.7800  223.0800 N   0  0  0  0  0  0  0  0  0  0  0  0
  138.5810   79.6880  223.8290 C   0  0  1  0  0  0  0  0  0  0  0  0
  139.9570   79.9690  223.3660 C   0  0  0  0  0  0  0  0  0  0  0  0
  141.0090   79.2060  223.8450 C   0  0  0  0  0  0  0  0  0  0  0  0
  142.3130   79.4030  223.4670 C   0  0  0  0  0  0  0  0  0  0  0  0
  142.6050   80.4060  222.5650 C   0  0  0  0  0  0  0  0  0  0  0  0
  141.5790   81.1910  222.0630 C   0  0  0  0  0  0  0  0  0  0  0  0
  140.2810   80.9620  222.4680 C   0  0  0  0  0  0  0  0  0  0  0  0
  137.8790   80.9220  224.2530 C   0  0  0  0  0  0  0  0  0  0  0  0
  137.6570   81.2300  225.5830 C   0  0  0  0  0  0  0  0  0  0  0  0
  137.0030   82.3760  225.9900 C   0  0  0  0  0  0  0  0  0  0  0  0
  136.5660   83.2300  224.9980 C   0  0  0  0  0  0  0  0  0  0  0  0
  136.7510   82.9890  223.6540 C   0  0  0  0  0  0  0  0  0  0  0  0
  136.2870   83.8860  222.7490 F   0  0  0  0  0  0  0  0  0  0  0  0
  137.4100   81.8270  223.3080 C   0  0  0  0  0  0  0  0  0  0  0  0
  139.8630   78.0380  220.6150 C   0  0  0  0  0  0  0  0  0  0  0  0
  140.8210   77.4750  219.6410 C   0  0  0  0  0  0  0  0  0  0  0  0
  142.9610   77.9756  216.3987 H   0  0  0  0  0  0  0  0  0  0  0  0
  144.2157   77.2187  215.3598 H   0  0  0  0  0  0  0  0  0  0  0  0
  142.5398   76.5721  215.3598 H   0  0  0  0  0  0  0  0  0  0  0  0
  143.2335   75.1008  216.9269 H   0  0  0  0  0  0  0  0  0  0  0  0
  144.7815   75.9609  217.1584 H   0  0  0  0  0  0  0  0  0  0  0  0
  141.6743   73.2249  219.3792 H   0  0  0  0  0  0  0  0  0  0  0  0
  143.0176   71.3216  220.3261 H   0  0  0  0  0  0  0  0  0  0  0  0
  145.2587   71.7360  221.2748 H   0  0  0  0  0  0  0  0  0  0  0  0
  146.2337   74.0336  221.3187 H   0  0  0  0  0  0  0  0  0  0  0  0
  144.8867   75.9118  220.3757 H   0  0  0  0  0  0  0  0  0  0  0  0
  140.4812   75.4449  219.2519 H   0  0  0  0  0  0  0  0  0  0  0  0
  141.5761   74.6239  221.4083 H   0  0  0  0  0  0  0  0  0  0  0  0
  141.8508   76.3091  221.8817 H   0  0  0  0  0  0  0  0  0  0  0  0
  139.1423   75.1192  221.0786 H   0  0  0  0  0  0  0  0  0  0  0  0
  139.6709   75.3807  222.7620 H   0  0  0  0  0  0  0  0  0  0  0  0
  137.9021   79.4301  221.8461 H   0  0  0  0  0  0  0  0  0  0  0  0
  136.2300   77.8420  223.4880 H   0  0  0  0  0  0  0  0  0  0  0  0
  135.8750   78.7800  222.1740 H   0  0  0  0  0  0  0  0  0  0  0  0
  138.6363   79.0638  224.7331 H   0  0  0  0  0  0  0  0  0  0  0  0
  140.7882   78.4029  224.5635 H   0  0  0  0  0  0  0  0  0  0  0  0
  143.1143   78.7707  223.8769 H   0  0  0  0  0  0  0  0  0  0  0  0
  143.6434   80.5809  222.2472 H   0  0  0  0  0  0  0  0  0  0  0  0
  141.7994   81.9938  221.3441 H   0  0  0  0  0  0  0  0  0  0  0  0
  139.4776   81.5932  222.0605 H   0  0  0  0  0  0  0  0  0  0  0  0
  138.0178   80.5303  226.3513 H   0  0  0  0  0  0  0  0  0  0  0  0
  136.8381   82.5977  227.0547 H   0  0  0  0  0  0  0  0  0  0  0  0
  136.0429   84.1508  225.2956 H   0  0  0  0  0  0  0  0  0  0  0  0
  137.5705   81.6083  222.2420 H   0  0  0  0  0  0  0  0  0  0  0  0
  138.9992   78.4152  220.0480 H   0  0  0  0  0  0  0  0  0  0  0  0
  140.4345   78.8020  221.1625 H   0  0  0  0  0  0  0  0  0  0  0  0
  140.3739   77.5763  218.6411 H   0  0  0  0  0  0  0  0  0  0  0  0
  141.7499   78.0430  219.7972 H   0  0  0  0  0  0  0  0  0  0  0  0
  1  2  1  0
  2  3  1  0
  3  4  2  0
  3  5  1  0
  5  6  1  0
  6  7  2  0
  7  8  1  0
  8  9  2  0
  9 10  1  0
 10 11  2  0
  5 12  1  0
 12 13  1  0
 13 14  1  0
 14 15  1  0
 15 16  1  0
 16 17  2  0
 16 18  1  0
 18 19  1  0
 18 20  1  0
 20 21  1  0
 21 22  2  0
 22 23  1  0
 23 24  2  0
 24 25  1  0
 25 26  2  0
 20 27  1  0
 27 28  2  0
 28 29  1  0
 29 30  2  0
 30 31  1  0
 31 32  1  0
 31 33  2  0
 15 34  1  0
 34 35  1  0
 11  6  1  0
 35 12  1  0
 26 21  1  0
 33 27  1  0
  1 36  1  0
  1 37  1  0
  1 38  1  0
  2 39  1  0
  2 40  1  0
  7 41  1  0
  8 42  1  0
  9 43  1  0
 10 44  1  0
 11 45  1  0
 12 46  1  0
 13 47  1  0
 13 48  1  0
 14 49  1  0
 14 50  1  0
 18 51  1  6
 19 52  1  0
 19 53  1  0
 20 54  1  1
 22 55  1  0
 23 56  1  0
 24 57  1  0
 25 58  1  0
 26 59  1  0
 28 60  1  0
 29 61  1  0
 30 62  1  0
 33 63  1  0
 34 64  1  0
 34 65  1  0
 35 66  1  0
 35 67  1  0
M  END
>  <smiles>  (52) 
CCC(=O)N(c1ccccc1)C1CCN(C(=O)[C@@H](N)C(c2ccccc2)c2cccc(F)c2)CC1

>  <score_type>  (52) 
oracle

>  <origin>  (52) 
autodockgpu

>  <m_score__min__energy>  (52) 
-8.2300000000000004

>  <m_primary>  (52) 
energy

>  <rmsd>  (52) 
3.5552927436382618

>  <m_score__min__rmsd>  (52) 
3.5552927436382618

>  <meeko>  (52) 
{"free_energy": -6.99, "intermolecular_energy": -9.67, "internal_energy": -3.32, "cluster_size": 7, "cluster_id": 7, "rank_in_cluster": 2}

>  <energy>  (52) 
-8.13

>  <cluster_rmsd>  (52) 
1.71

>  <cluster>  (52) 
1

$$$$

     RDKit          3D

 67 70  0  0  0  0  0  0  0  0999 V2000
  145.5980   74.1570  220.8210 C   0  0  0  0  0  0  0  0  0  0  0  0
  145.9890   72.7090  220.6440 C   0  0  0  0  0  0  0  0  0  0  0  0
  145.3470   72.2070  219.4040 C   0  0  0  0  0  0  0  0  0  0  0  0
  145.9440   72.4450  218.3220 O   0  0  0  0  0  0  0  0  0  0  0  0
  144.1190   71.5000  219.4890 N   0  0  0  0  0  0  0  0  0  0  0  0
  144.0860   70.0660  219.3980 C   0  0  0  0  0  0  0  0  0  0  0  0
  145.2330   69.3050  219.3340 C   0  0  0  0  0  0  0  0  0  0  0  0
  145.0860   67.9180  219.2510 C   0  0  0  0  0  0  0  0  0  0  0  0
  143.8240   67.3480  219.2360 C   0  0  0  0  0  0  0  0  0  0  0  0
  142.6720   68.1230  219.3010 C   0  0  0  0  0  0  0  0  0  0  0  0
  142.8290   69.4950  219.3820 C   0  0  0  0  0  0  0  0  0  0  0  0
  142.8480   72.1620  219.6690 C   0  0  0  0  0  0  0  0  0  0  0  0
  142.6400   72.3410  221.1660 C   0  0  0  0  0  0  0  0  0  0  0  0
  141.2510   72.8710  221.3300 C   0  0  0  0  0  0  0  0  0  0  0  0
  141.1990   74.2080  220.6960 N   0  0  0  0  0  0  0  0  0  0  0  0
  140.3280   75.1180  221.3380 C   0  0  0  0  0  0  0  0  0  0  0  0
  139.7160   74.6670  222.3680 O   0  0  0  0  0  0  0  0  0  0  0  0
  140.0480   76.5090  220.9650 C   0  0  1  0  0  0  0  0  0  0  0  0
  139.0910   77.0980  221.8380 N   0  0  0  0  0  0  0  0  0  0  0  0
  141.3290   77.3090  220.8660 C   0  0  1  0  0  0  0  0  0  0  0  0
  141.4990   77.8530  219.5010 C   0  0  0  0  0  0  0  0  0  0  0  0
  142.7140   77.7060  218.8530 C   0  0  0  0  0  0  0  0  0  0  0  0
  142.9540   78.1830  217.5890 C   0  0  0  0  0  0  0  0  0  0  0  0
  141.9430   78.8430  216.9190 C   0  0  0  0  0  0  0  0  0  0  0  0
  140.7130   79.0100  217.5350 C   0  0  0  0  0  0  0  0  0  0  0  0
  140.5120   78.5170  218.8070 C   0  0  0  0  0  0  0  0  0  0  0  0
  141.4540   78.3630  221.9000 C   0  0  0  0  0  0  0  0  0  0  0  0
  141.4490   78.0790  223.2530 C   0  0  0  0  0  0  0  0  0  0  0  0
  141.5650   79.0520  224.2260 C   0  0  0  0  0  0  0  0  0  0  0  0
  141.6900   80.3550  223.7930 C   0  0  0  0  0  0  0  0  0  0  0  0
  141.7020   80.7130  222.4610 C   0  0  0  0  0  0  0  0  0  0  0  0
  141.8300   82.0210  222.1280 F   0  0  0  0  0  0  0  0  0  0  0  0
  141.5830   79.6980  221.5360 C   0  0  0  0  0  0  0  0  0  0  0  0
  141.9700   74.5380  219.5340 C   0  0  0  0  0  0  0  0  0  0  0  0
  142.8280   73.4790  218.9640 C   0  0  0  0  0  0  0  0  0  0  0  0
  145.5348   74.3912  221.8939 H   0  0  0  0  0  0  0  0  0  0  0  0
  146.3543   74.8014  220.3490 H   0  0  0  0  0  0  0  0  0  0  0  0
  144.6201   74.3331  220.3490 H   0  0  0  0  0  0  0  0  0  0  0  0
  147.0825   72.6258  220.5578 H   0  0  0  0  0  0  0  0  0  0  0  0
  145.6600   72.1165  221.5105 H   0  0  0  0  0  0  0  0  0  0  0  0
  146.2286   69.7726  219.3478 H   0  0  0  0  0  0  0  0  0  0  0  0
  145.9773   67.2755  219.1973 H   0  0  0  0  0  0  0  0  0  0  0  0
  143.7309   66.2539  219.1710 H   0  0  0  0  0  0  0  0  0  0  0  0
  141.6730   67.6627  219.2885 H   0  0  0  0  0  0  0  0  0  0  0  0
  141.9397   70.1403  219.4344 H   0  0  0  0  0  0  0  0  0  0  0  0
  142.0349   71.5596  219.2378 H   0  0  0  0  0  0  0  0  0  0  0  0
  142.7444   71.3764  221.6842 H   0  0  0  0  0  0  0  0  0  0  0  0
  143.3854   73.0257  221.5968 H   0  0  0  0  0  0  0  0  0  0  0  0
  140.5329   72.1966  220.8406 H   0  0  0  0  0  0  0  0  0  0  0  0
  140.9898   72.9409  222.3963 H   0  0  0  0  0  0  0  0  0  0  0  0
  139.5928   76.5160  219.9636 H   0  0  0  0  0  0  0  0  0  0  0  0
  139.2930   78.1160  221.9380 H   0  0  0  0  0  0  0  0  0  0  0  0
  139.2180   76.7230  222.8260 H   0  0  0  0  0  0  0  0  0  0  0  0
  142.1524   76.6085  221.0691 H   0  0  0  0  0  0  0  0  0  0  0  0
  143.5264   77.1812  219.3771 H   0  0  0  0  0  0  0  0  0  0  0  0
  143.9372   78.0417  217.1165 H   0  0  0  0  0  0  0  0  0  0  0  0
  142.1126   79.2330  215.9046 H   0  0  0  0  0  0  0  0  0  0  0  0
  139.8999   79.5339  217.0112 H   0  0  0  0  0  0  0  0  0  0  0  0
  139.5306   78.6588  219.2833 H   0  0  0  0  0  0  0  0  0  0  0  0
  141.3480   77.0302  223.5689 H   0  0  0  0  0  0  0  0  0  0  0  0
  141.5580   78.7993  225.2966 H   0  0  0  0  0  0  0  0  0  0  0  0
  141.7850   81.1493  224.5480 H   0  0  0  0  0  0  0  0  0  0  0  0
  141.5904   79.9551  220.4665 H   0  0  0  0  0  0  0  0  0  0  0  0
  141.2660   74.8505  218.7487 H   0  0  0  0  0  0  0  0  0  0  0  0
  142.6705   75.3156  219.8727 H   0  0  0  0  0  0  0  0  0  0  0  0
  142.4887   73.2974  217.9335 H   0  0  0  0  0  0  0  0  0  0  0  0
  143.8538   73.8653  219.0566 H   0  0  0  0  0  0  0  0  0  0  0  0
  1  2  1  0
  2  3  1  0
  3  4  2  0
  3  5  1  0
  5  6  1  0
  6  7  2  0
  7  8  1  0
  8  9  2  0
  9 10  1  0
 10 11  2  0
  5 12  1  0
 12 13  1  0
 13 14  1  0
 14 15  1  0
 15 16  1  0
 16 17  2  0
 16 18  1  0
 18 19  1  0
 18 20  1  0
 20 21  1  0
 21 22  2  0
 22 23  1  0
 23 24  2  0
 24 25  1  0
 25 26  2  0
 20 27  1  0
 27 28  2  0
 28 29  1  0
 29 30  2  0
 30 31  1  0
 31 32  1  0
 31 33  2  0
 15 34  1  0
 34 35  1  0
 11  6  1  0
 35 12  1  0
 26 21  1  0
 33 27  1  0
  1 36  1  0
  1 37  1  0
  1 38  1  0
  2 39  1  0
  2 40  1  0
  7 41  1  0
  8 42  1  0
  9 43  1  0
 10 44  1  0
 11 45  1  0
 12 46  1  0
 13 47  1  0
 13 48  1  0
 14 49  1  0
 14 50  1  0
 18 51  1  6
 19 52  1  0
 19 53  1  0
 20 54  1  1
 22 55  1  0
 23 56  1  0
 24 57  1  0
 25 58  1  0
 26 59  1  0
 28 60  1  0
 29 61  1  0
 30 62  1  0
 33 63  1  0
 34 64  1  0
 34 65  1  0
 35 66  1  0
 35 67  1  0
M  END
>  <smiles>  (53) 
CCC(=O)N(c1ccccc1)C1CCN(C(=O)[C@@H](N)C(c2ccccc2)c2cccc(F)c2)CC1

>  <score_type>  (53) 
oracle

>  <origin>  (53) 
autodockgpu

>  <m_score__min__energy>  (53) 
-8.2300000000000004

>  <m_primary>  (53) 
energy

>  <rmsd>  (53) 
4.8488395232506365

>  <m_score__min__rmsd>  (53) 
4.8488395232506365

>  <meeko>  (53) 
{"free_energy": -7.73, "intermolecular_energy": -10.42, "internal_energy": -3.14, "cluster_size": 27, "cluster_id": 1, "rank_in_cluster": 12}

>  <energy>  (53) 
-8.06

>  <cluster_rmsd>  (53) 
0.26

>  <cluster>  (53) 
1

$$$$

     RDKit          3D

 67 70  0  0  0  0  0  0  0  0999 V2000
  146.2500   70.5880  215.9310 C   0  0  0  0  0  0  0  0  0  0  0  0
  145.1990   71.5930  216.3390 C   0  0  0  0  0  0  0  0  0  0  0  0
  145.2000   71.6840  217.8200 C   0  0  0  0  0  0  0  0  0  0  0  0
  145.9520   72.5530  218.3330 O   0  0  0  0  0  0  0  0  0  0  0  0
  144.3750   70.8090  218.5740 N   0  0  0  0  0  0  0  0  0  0  0  0
  144.7670   69.4460  218.8100 C   0  0  0  0  0  0  0  0  0  0  0  0
  146.0580   69.0980  219.1430 C   0  0  0  0  0  0  0  0  0  0  0  0
  146.3300   67.7440  219.3540 C   0  0  0  0  0  0  0  0  0  0  0  0
  145.3240   66.8010  219.2300 C   0  0  0  0  0  0  0  0  0  0  0  0
  144.0240   67.1610  218.8930 C   0  0  0  0  0  0  0  0  0  0  0  0
  143.7660   68.5030  218.6850 C   0  0  0  0  0  0  0  0  0  0  0  0
  143.1130   71.2210  219.1410 C   0  0  0  0  0  0  0  0  0  0  0  0
  143.3010   71.3030  220.6490 C   0  0  0  0  0  0  0  0  0  0  0  0
  141.9440   71.5650  221.2210 C   0  0  0  0  0  0  0  0  0  0  0  0
  141.5000   72.8930  220.7420 N   0  0  0  0  0  0  0  0  0  0  0  0
  140.7030   73.6050  221.6690 C   0  0  0  0  0  0  0  0  0  0  0  0
  140.4830   73.0120  222.7810 O   0  0  0  0  0  0  0  0  0  0  0  0
  140.1060   74.9340  221.5040 C   0  0  1  0  0  0  0  0  0  0  0  0
  139.0300   75.1360  222.4140 N   0  0  0  0  0  0  0  0  0  0  0  0
  141.1620   76.0150  221.5890 C   0  0  1  0  0  0  0  0  0  0  0  0
  141.7300   76.2950  220.2530 C   0  0  0  0  0  0  0  0  0  0  0  0
  143.0920   76.1470  220.0440 C   0  0  0  0  0  0  0  0  0  0  0  0
  143.6970   76.3880  218.8360 C   0  0  0  0  0  0  0  0  0  0  0  0
  142.9230   76.7980  217.7690 C   0  0  0  0  0  0  0  0  0  0  0  0
  141.5570   76.9570  217.9400 C   0  0  0  0  0  0  0  0  0  0  0  0
  140.9870   76.7060  219.1700 C   0  0  0  0  0  0  0  0  0  0  0  0
  140.6980   77.2510  222.2620 C   0  0  0  0  0  0  0  0  0  0  0  0
  141.4530   77.9040  223.2180 C   0  0  0  0  0  0  0  0  0  0  0  0
  141.0310   79.0560  223.8520 C   0  0  0  0  0  0  0  0  0  0  0  0
  139.7950   79.5490  223.4900 C   0  0  0  0  0  0  0  0  0  0  0  0
  138.9870   78.9530  222.5450 C   0  0  0  0  0  0  0  0  0  0  0  0
  137.7870   79.5100  222.2520 F   0  0  0  0  0  0  0  0  0  0  0  0
  139.4630   77.8040  221.9470 C   0  0  0  0  0  0  0  0  0  0  0  0
  141.8530   73.4020  219.4500 C   0  0  0  0  0  0  0  0  0  0  0  0
  142.6820   72.5380  218.5830 C   0  0  0  0  0  0  0  0  0  0  0  0
  146.7076   70.1504  216.8305 H   0  0  0  0  0  0  0  0  0  0  0  0
  145.7832   69.7917  215.3327 H   0  0  0  0  0  0  0  0  0  0  0  0
  147.0246   71.0899  215.3327 H   0  0  0  0  0  0  0  0  0  0  0  0
  145.4342   72.5759  215.9047 H   0  0  0  0  0  0  0  0  0  0  0  0
  144.2092   71.2783  215.9768 H   0  0  0  0  0  0  0  0  0  0  0  0
  146.8463   69.8591  219.2393 H   0  0  0  0  0  0  0  0  0  0  0  0
  147.3487   67.4255  219.6200 H   0  0  0  0  0  0  0  0  0  0  0  0
  145.5591   65.7403  219.4024 H   0  0  0  0  0  0  0  0  0  0  0  0
  143.2302   66.4058  218.7955 H   0  0  0  0  0  0  0  0  0  0  0  0
  142.7489   68.8243  218.4161 H   0  0  0  0  0  0  0  0  0  0  0  0
  142.3233   70.4972  218.8910 H   0  0  0  0  0  0  0  0  0  0  0  0
  143.7022   70.3547  221.0361 H   0  0  0  0  0  0  0  0  0  0  0  0
  144.0132   72.0951  220.9233 H   0  0  0  0  0  0  0  0  0  0  0  0
  141.2396   70.7906  220.8831 H   0  0  0  0  0  0  0  0  0  0  0  0
  141.9800   71.5453  222.3202 H   0  0  0  0  0  0  0  0  0  0  0  0
  139.6705   74.9968  220.4958 H   0  0  0  0  0  0  0  0  0  0  0  0
  139.3990   75.5340  223.3050 H   0  0  0  0  0  0  0  0  0  0  0  0
  138.6230   74.1990  222.7120 H   0  0  0  0  0  0  0  0  0  0  0  0
  141.9611   75.6206  222.2338 H   0  0  0  0  0  0  0  0  0  0  0  0
  143.7185   75.8206  220.8872 H   0  0  0  0  0  0  0  0  0  0  0  0
  144.7829   76.2564  218.7197 H   0  0  0  0  0  0  0  0  0  0  0  0
  143.3865   76.9968  216.7914 H   0  0  0  0  0  0  0  0  0  0  0  0
  140.9296   77.2824  217.0971 H   0  0  0  0  0  0  0  0  0  0  0  0
  139.9016   76.8387  219.2897 H   0  0  0  0  0  0  0  0  0  0  0  0
  142.4350   77.4870  223.4861 H   0  0  0  0  0  0  0  0  0  0  0  0
  141.6514   79.5567  224.6099 H   0  0  0  0  0  0  0  0  0  0  0  0
  139.4350   80.4653  223.9807 H   0  0  0  0  0  0  0  0  0  0  0  0
  138.8393   77.3057  221.1902 H   0  0  0  0  0  0  0  0  0  0  0  0
  140.9174   73.6107  218.9104 H   0  0  0  0  0  0  0  0  0  0  0  0
  142.4814   74.2811  219.6555 H   0  0  0  0  0  0  0  0  0  0  0  0
  142.1051   72.3367  217.6683 H   0  0  0  0  0  0  0  0  0  0  0  0
  143.6153   73.1005  218.4325 H   0  0  0  0  0  0  0  0  0  0  0  0
  1  2  1  0
  2  3  1  0
  3  4  2  0
  3  5  1  0
  5  6  1  0
  6  7  2  0
  7  8  1  0
  8  9  2  0
  9 10  1  0
 10 11  2  0
  5 12  1  0
 12 13  1  0
 13 14  1  0
 14 15  1  0
 15 16  1  0
 16 17  2  0
 16 18  1  0
 18 19  1  0
 18 20  1  0
 20 21  1  0
 21 22  2  0
 22 23  1  0
 23 24  2  0
 24 25  1  0
 25 26  2  0
 20 27  1  0
 27 28  2  0
 28 29  1  0
 29 30  2  0
 30 31  1  0
 31 32  1  0
 31 33  2  0
 15 34  1  0
 34 35  1  0
 11  6  1  0
 35 12  1  0
 26 21  1  0
 33 27  1  0
  1 36  1  0
  1 37  1  0
  1 38  1  0
  2 39  1  0
  2 40  1  0
  7 41  1  0
  8 42  1  0
  9 43  1  0
 10 44  1  0
 11 45  1  0
 12 46  1  0
 13 47  1  0
 13 48  1  0
 14 49  1  0
 14 50  1  0
 18 51  1  6
 19 52  1  0
 19 53  1  0
 20 54  1  1
 22 55  1  0
 23 56  1  0
 24 57  1  0
 25 58  1  0
 26 59  1  0
 28 60  1  0
 29 61  1  0
 30 62  1  0
 33 63  1  0
 34 64  1  0
 34 65  1  0
 35 66  1  0
 35 67  1  0
M  END
>  <smiles>  (54) 
CCC(=O)N(c1ccccc1)C1CCN(C(=O)[C@@H](N)C(c2ccccc2)c2cccc(F)c2)CC1

>  <score_type>  (54) 
oracle

>  <origin>  (54) 
autodockgpu

>  <m_score__min__energy>  (54) 
-8.2300000000000004

>  <m_primary>  (54) 
energy

>  <rmsd>  (54) 
5.857128897267316

>  <m_score__min__rmsd>  (54) 
5.857128897267316

>  <meeko>  (54) 
{"free_energy": -7.62, "intermolecular_energy": -10.31, "internal_energy": -3.16, "cluster_size": 27, "cluster_id": 1, "rank_in_cluster": 16}

>  <energy>  (54) 
-7.93

>  <cluster_rmsd>  (54) 
1.29

>  <cluster>  (54) 
1

$$$$

     RDKit          3D

 67 70  0  0  0  0  0  0  0  0999 V2000
  146.3270   73.0460  221.7990 C   0  0  0  0  0  0  0  0  0  0  0  0
  146.0000   74.0150  220.6880 C   0  0  0  0  0  0  0  0  0  0  0  0
  145.8040   73.2360  219.4400 C   0  0  0  0  0  0  0  0  0  0  0  0
  146.6630   73.3950  218.5340 O   0  0  0  0  0  0  0  0  0  0  0  0
  144.6860   72.3690  219.3260 N   0  0  0  0  0  0  0  0  0  0  0  0
  144.8620   70.9770  219.0100 C   0  0  0  0  0  0  0  0  0  0  0  0
  144.2820   69.9740  219.7550 C   0  0  0  0  0  0  0  0  0  0  0  0
  144.5150   68.6540  219.3580 C   0  0  0  0  0  0  0  0  0  0  0  0
  145.3030   68.3860  218.2510 C   0  0  0  0  0  0  0  0  0  0  0  0
  145.8850   69.4050  217.5050 C   0  0  0  0  0  0  0  0  0  0  0  0
  145.6480   70.7070  217.9080 C   0  0  0  0  0  0  0  0  0  0  0  0
  143.3270   72.8180  219.5150 C   0  0  0  0  0  0  0  0  0  0  0  0
  143.0490   72.7970  221.0110 C   0  0  0  0  0  0  0  0  0  0  0  0
  141.5930   73.1020  221.1650 C   0  0  0  0  0  0  0  0  0  0  0  0
  141.3640   74.4800  220.6750 N   0  0  0  0  0  0  0  0  0  0  0  0
  140.3500   75.1790  221.3680 C   0  0  0  0  0  0  0  0  0  0  0  0
  139.7790   74.5330  222.3140 O   0  0  0  0  0  0  0  0  0  0  0  0
  139.8800   76.5480  221.1320 C   0  0  1  0  0  0  0  0  0  0  0  0
  138.6750   76.5600  220.3750 N   0  0  0  0  0  0  0  0  0  0  0  0
  139.7680   77.3120  222.4330 C   0  0  1  0  0  0  0  0  0  0  0  0
  140.7800   78.3880  222.4950 C   0  0  0  0  0  0  0  0  0  0  0  0
  141.3240   78.7460  223.7170 C   0  0  0  0  0  0  0  0  0  0  0  0
  142.2650   79.7350  223.8600 C   0  0  0  0  0  0  0  0  0  0  0  0
  142.7010   80.4120  222.7390 C   0  0  0  0  0  0  0  0  0  0  0  0
  142.1790   80.0820  221.4980 C   0  0  0  0  0  0  0  0  0  0  0  0
  141.2340   79.0830  221.3960 C   0  0  0  0  0  0  0  0  0  0  0  0
  138.4040   77.8210  222.7100 C   0  0  0  0  0  0  0  0  0  0  0  0
  138.1250   79.1700  222.8270 C   0  0  0  0  0  0  0  0  0  0  0  0
  136.8580   79.6570  223.0860 C   0  0  0  0  0  0  0  0  0  0  0  0
  135.8500   78.7260  223.2260 C   0  0  0  0  0  0  0  0  0  0  0  0
  136.0530   77.3660  223.1220 C   0  0  0  0  0  0  0  0  0  0  0  0
  135.0010   76.5250  223.2740 F   0  0  0  0  0  0  0  0  0  0  0  0
  137.3400   76.9410  222.8640 C   0  0  0  0  0  0  0  0  0  0  0  0
  142.1140   75.0450  219.5910 C   0  0  0  0  0  0  0  0  0  0  0  0
  143.1360   74.1890  218.9530 C   0  0  0  0  0  0  0  0  0  0  0  0
  146.1624   73.5337  222.7711 H   0  0  0  0  0  0  0  0  0  0  0  0
  145.6774   72.1620  221.7176 H   0  0  0  0  0  0  0  0  0  0  0  0
  147.3794   72.7364  221.7176 H   0  0  0  0  0  0  0  0  0  0  0  0
  145.0796   74.5656  220.9323 H   0  0  0  0  0  0  0  0  0  0  0  0
  146.8181   74.7393  220.5608 H   0  0  0  0  0  0  0  0  0  0  0  0
  143.6577   70.2035  220.6311 H   0  0  0  0  0  0  0  0  0  0  0  0
  144.0705   67.8244  219.9274 H   0  0  0  0  0  0  0  0  0  0  0  0
  145.4728   67.3404  217.9544 H   0  0  0  0  0  0  0  0  0  0  0  0
  146.5103   69.1841  216.6274 H   0  0  0  0  0  0  0  0  0  0  0  0
  146.0923   71.5390  217.3421 H   0  0  0  0  0  0  0  0  0  0  0  0
  142.6246   72.1579  218.9850 H   0  0  0  0  0  0  0  0  0  0  0  0
  143.2778   71.8052  221.4282 H   0  0  0  0  0  0  0  0  0  0  0  0
  143.6723   73.5283  221.5465 H   0  0  0  0  0  0  0  0  0  0  0  0
  140.9973   72.3910  220.5737 H   0  0  0  0  0  0  0  0  0  0  0  0
  141.2920   73.0146  222.2194 H   0  0  0  0  0  0  0  0  0  0  0  0
  140.6297   77.0726  220.5214 H   0  0  0  0  0  0  0  0  0  0  0  0
  138.1610   75.6650  220.5250 H   0  0  0  0  0  0  0  0  0  0  0  0
  138.8970   76.5450  219.3340 H   0  0  0  0  0  0  0  0  0  0  0  0
  139.9742   76.5904  223.2372 H   0  0  0  0  0  0  0  0  0  0  0  0
  140.9856   78.2118  224.6170 H   0  0  0  0  0  0  0  0  0  0  0  0
  142.6658   79.9844  224.8536 H   0  0  0  0  0  0  0  0  0  0  0  0
  143.4562   81.2066  222.8296 H   0  0  0  0  0  0  0  0  0  0  0  0
  142.5175   80.6153  220.5975 H   0  0  0  0  0  0  0  0  0  0  0  0
  140.8294   78.8329  220.4042 H   0  0  0  0  0  0  0  0  0  0  0  0
  138.9494   79.8886  222.7085 H   0  0  0  0  0  0  0  0  0  0  0  0
  136.6626   80.7357  223.1762 H   0  0  0  0  0  0  0  0  0  0  0  0
  134.8314   79.0871  223.4312 H   0  0  0  0  0  0  0  0  0  0  0  0
  137.5315   75.8613  222.7767 H   0  0  0  0  0  0  0  0  0  0  0  0
  141.3963   75.3393  218.8111 H   0  0  0  0  0  0  0  0  0  0  0  0
  142.6814   75.8723  220.0422 H   0  0  0  0  0  0  0  0  0  0  0  0
  142.8595   74.0769  217.8942 H   0  0  0  0  0  0  0  0  0  0  0  0
  144.0906   74.7048  219.1341 H   0  0  0  0  0  0  0  0  0  0  0  0
  1  2  1  0
  2  3  1  0
  3  4  2  0
  3  5  1  0
  5  6  1  0
  6  7  2  0
  7  8  1  0
  8  9  2  0
  9 10  1  0
 10 11  2  0
  5 12  1  0
 12 13  1  0
 13 14  1  0
 14 15  1  0
 15 16  1  0
 16 17  2  0
 16 18  1  0
 18 19  1  0
 18 20  1  0
 20 21  1  0
 21 22  2  0
 22 23  1  0
 23 24  2  0
 24 25  1  0
 25 26  2  0
 20 27  1  0
 27 28  2  0
 28 29  1  0
 29 30  2  0
 30 31  1  0
 31 32  1  0
 31 33  2  0
 15 34  1  0
 34 35  1  0
 11  6  1  0
 35 12  1  0
 26 21  1  0
 33 27  1  0
  1 36  1  0
  1 37  1  0
  1 38  1  0
  2 39  1  0
  2 40  1  0
  7 41  1  0
  8 42  1  0
  9 43  1  0
 10 44  1  0
 11 45  1  0
 12 46  1  0
 13 47  1  0
 13 48  1  0
 14 49  1  0
 14 50  1  0
 18 51  1  6
 19 52  1  0
 19 53  1  0
 20 54  1  1
 22 55  1  0
 23 56  1  0
 24 57  1  0
 25 58  1  0
 26 59  1  0
 28 60  1  0
 29 61  1  0
 30 62  1  0
 33 63  1  0
 34 64  1  0
 34 65  1  0
 35 66  1  0
 35 67  1  0
M  END
>  <smiles>  (55) 
CCC(=O)N(c1ccccc1)C1CCN(C(=O)[C@@H](N)C(c2ccccc2)c2cccc(F)c2)CC1

>  <score_type>  (55) 
oracle

>  <origin>  (55) 
autodockgpu

>  <m_score__min__energy>  (55) 
-8.2300000000000004

>  <m_primary>  (55) 
energy

>  <rmsd>  (55) 
4.495852704388891

>  <m_score__min__rmsd>  (55) 
4.495852704388891

>  <meeko>  (55) 
{"free_energy": -7.87, "intermolecular_energy": -10.55, "internal_energy": -2.42, "cluster_size": 27, "cluster_id": 1, "rank_in_cluster": 8}

>  <energy>  (55) 
-7.92

>  <cluster_rmsd>  (55) 
0.43

>  <cluster>  (55) 
1

$$$$

     RDKit          3D

 67 70  0  0  0  0  0  0  0  0999 V2000
  146.0240   73.0090  221.5630 C   0  0  0  0  0  0  0  0  0  0  0  0
  146.1950   73.7980  220.2860 C   0  0  0  0  0  0  0  0  0  0  0  0
  145.6730   72.9770  219.1660 C   0  0  0  0  0  0  0  0  0  0  0  0
  146.3110   73.0260  218.0830 O   0  0  0  0  0  0  0  0  0  0  0  0
  144.5050   72.1930  219.3590 N   0  0  0  0  0  0  0  0  0  0  0  0
  144.5750   70.7570  219.3740 C   0  0  0  0  0  0  0  0  0  0  0  0
  145.7700   70.0770  219.2860 C   0  0  0  0  0  0  0  0  0  0  0  0
  145.7240   68.6800  219.3130 C   0  0  0  0  0  0  0  0  0  0  0  0
  144.5100   68.0230  219.4250 C   0  0  0  0  0  0  0  0  0  0  0  0
  143.3090   68.7180  219.5130 C   0  0  0  0  0  0  0  0  0  0  0  0
  143.3660   70.0990  219.4840 C   0  0  0  0  0  0  0  0  0  0  0  0
  143.1970   72.7750  219.5490 C   0  0  0  0  0  0  0  0  0  0  0  0
  142.9600   72.8720  221.0490 C   0  0  0  0  0  0  0  0  0  0  0  0
  141.5410   73.3160  221.2150 C   0  0  0  0  0  0  0  0  0  0  0  0
  141.4230   74.6760  220.6430 N   0  0  0  0  0  0  0  0  0  0  0  0
  140.4940   75.5060  221.3120 C   0  0  0  0  0  0  0  0  0  0  0  0
  139.8950   74.9750  222.3100 O   0  0  0  0  0  0  0  0  0  0  0  0
  140.1410   76.8950  220.9990 C   0  0  1  0  0  0  0  0  0  0  0  0
  139.2370   77.4300  221.9580 N   0  0  0  0  0  0  0  0  0  0  0  0
  141.3840   77.7400  220.8210 C   0  0  1  0  0  0  0  0  0  0  0  0
  141.4270   78.3260  219.4650 C   0  0  0  0  0  0  0  0  0  0  0  0
  140.2680   78.8380  218.9040 C   0  0  0  0  0  0  0  0  0  0  0  0
  140.2230   79.3960  217.6510 C   0  0  0  0  0  0  0  0  0  0  0  0
  141.3800   79.4570  216.9030 C   0  0  0  0  0  0  0  0  0  0  0  0
  142.5600   78.9550  217.4300 C   0  0  0  0  0  0  0  0  0  0  0  0
  142.5640   78.4010  218.6920 C   0  0  0  0  0  0  0  0  0  0  0  0
  141.5590   78.7690  221.8730 C   0  0  0  0  0  0  0  0  0  0  0  0
  141.6900   78.4480  223.2120 C   0  0  0  0  0  0  0  0  0  0  0  0
  141.8530   79.3980  224.2010 C   0  0  0  0  0  0  0  0  0  0  0  0
  141.8830   80.7170  223.7990 C   0  0  0  0  0  0  0  0  0  0  0  0
  141.7590   81.1120  222.4840 C   0  0  0  0  0  0  0  0  0  0  0  0
  141.8010   82.4330  222.1820 F   0  0  0  0  0  0  0  0  0  0  0  0
  141.5980   80.1180  221.5410 C   0  0  0  0  0  0  0  0  0  0  0  0
  142.1890   75.1020  219.5090 C   0  0  0  0  0  0  0  0  0  0  0  0
  143.1130   74.1200  218.9050 C   0  0  0  0  0  0  0  0  0  0  0  0
  146.1682   73.6742  222.4271 H   0  0  0  0  0  0  0  0  0  0  0  0
  145.0119   72.5794  221.5958 H   0  0  0  0  0  0  0  0  0  0  0  0
  146.7674   72.1989  221.5958 H   0  0  0  0  0  0  0  0  0  0  0  0
  145.6322   74.7408  220.3516 H   0  0  0  0  0  0  0  0  0  0  0  0
  147.2566   74.0355  220.1230 H   0  0  0  0  0  0  0  0  0  0  0  0
  146.7260   70.6140  219.1977 H   0  0  0  0  0  0  0  0  0  0  0  0
  146.6562   68.1000  219.2450 H   0  0  0  0  0  0  0  0  0  0  0  0
  144.4955   66.9233  219.4448 H   0  0  0  0  0  0  0  0  0  0  0  0
  142.3489   68.1886  219.6024 H   0  0  0  0  0  0  0  0  0  0  0  0
  142.4353   70.6817  219.5494 H   0  0  0  0  0  0  0  0  0  0  0  0
  142.4243   72.1498  219.0778 H   0  0  0  0  0  0  0  0  0  0  0  0
  143.1116   71.8915  221.5240 H   0  0  0  0  0  0  0  0  0  0  0  0
  143.6602   73.5759  221.5226 H   0  0  0  0  0  0  0  0  0  0  0  0
  140.8685   72.6267  220.6833 H   0  0  0  0  0  0  0  0  0  0  0  0
  141.2617   73.3209  222.2789 H   0  0  0  0  0  0  0  0  0  0  0  0
  139.6082   76.9105  220.0368 H   0  0  0  0  0  0  0  0  0  0  0  0
  139.1450   76.7660  222.7570 H   0  0  0  0  0  0  0  0  0  0  0  0
  138.2530   77.4660  221.5520 H   0  0  0  0  0  0  0  0  0  0  0  0
  142.2424   77.0618  220.9357 H   0  0  0  0  0  0  0  0  0  0  0  0
  139.3390   78.7951  219.4915 H   0  0  0  0  0  0  0  0  0  0  0  0
  139.2775   79.7890  217.2490 H   0  0  0  0  0  0  0  0  0  0  0  0
  141.3667   79.9004  215.8964 H   0  0  0  0  0  0  0  0  0  0  0  0
  143.4894   78.9987  216.8432 H   0  0  0  0  0  0  0  0  0  0  0  0
  143.5077   78.0053  219.0955 H   0  0  0  0  0  0  0  0  0  0  0  0
  141.6631   77.3874  223.5025 H   0  0  0  0  0  0  0  0  0  0  0  0
  141.9541   79.1160  225.2594 H   0  0  0  0  0  0  0  0  0  0  0  0
  142.0125   81.4937  224.5671 H   0  0  0  0  0  0  0  0  0  0  0  0
  141.4964   80.4046  220.4839 H   0  0  0  0  0  0  0  0  0  0  0  0
  141.4785   75.4103  218.7279 H   0  0  0  0  0  0  0  0  0  0  0  0
  142.8398   75.9013  219.8933 H   0  0  0  0  0  0  0  0  0  0  0  0
  142.7987   73.9682  217.8618 H   0  0  0  0  0  0  0  0  0  0  0  0
  144.1141   74.5578  219.0319 H   0  0  0  0  0  0  0  0  0  0  0  0
  1  2  1  0
  2  3  1  0
  3  4  2  0
  3  5  1  0
  5  6  1  0
  6  7  2  0
  7  8  1  0
  8  9  2  0
  9 10  1  0
 10 11  2  0
  5 12  1  0
 12 13  1  0
 13 14  1  0
 14 15  1  0
 15 16  1  0
 16 17  2  0
 16 18  1  0
 18 19  1  0
 18 20  1  0
 20 21  1  0
 21 22  2  0
 22 23  1  0
 23 24  2  0
 24 25  1  0
 25 26  2  0
 20 27  1  0
 27 28  2  0
 28 29  1  0
 29 30  2  0
 30 31  1  0
 31 32  1  0
 31 33  2  0
 15 34  1  0
 34 35  1  0
 11  6  1  0
 35 12  1  0
 26 21  1  0
 33 27  1  0
  1 36  1  0
  1 37  1  0
  1 38  1  0
  2 39  1  0
  2 40  1  0
  7 41  1  0
  8 42  1  0
  9 43  1  0
 10 44  1  0
 11 45  1  0
 12 46  1  0
 13 47  1  0
 13 48  1  0
 14 49  1  0
 14 50  1  0
 18 51  1  6
 19 52  1  0
 19 53  1  0
 20 54  1  6
 22 55  1  0
 23 56  1  0
 24 57  1  0
 25 58  1  0
 26 59  1  0
 28 60  1  0
 29 61  1  0
 30 62  1  0
 33 63  1  0
 34 64  1  0
 34 65  1  0
 35 66  1  0
 35 67  1  0
M  END
>  <smiles>  (56) 
CCC(=O)N(c1ccccc1)C1CCN(C(=O)[C@@H](N)C(c2ccccc2)c2cccc(F)c2)CC1

>  <score_type>  (56) 
oracle

>  <origin>  (56) 
autodockgpu

>  <m_score__min__energy>  (56) 
-8.2300000000000004

>  <m_primary>  (56) 
energy

>  <rmsd>  (56) 
4.284275853116728

>  <m_score__min__rmsd>  (56) 
4.284275853116728

>  <meeko>  (56) 
{"free_energy": -7.8, "intermolecular_energy": -10.48, "internal_energy": -3.09, "cluster_size": 27, "cluster_id": 1, "rank_in_cluster": 10}

>  <energy>  (56) 
-7.91

>  <cluster_rmsd>  (56) 
0.27

>  <cluster>  (56) 
1

$$$$

     RDKit          3D

 67 70  0  0  0  0  0  0  0  0999 V2000
  145.6140   70.7210  215.6450 C   0  0  0  0  0  0  0  0  0  0  0  0
  144.8430   71.8900  216.2110 C   0  0  0  0  0  0  0  0  0  0  0  0
  145.0440   71.9050  217.6810 C   0  0  0  0  0  0  0  0  0  0  0  0
  145.9240   72.6880  218.1240 O   0  0  0  0  0  0  0  0  0  0  0  0
  144.2570   71.0570  218.5030 N   0  0  0  0  0  0  0  0  0  0  0  0
  144.6910   69.7220  218.8160 C   0  0  0  0  0  0  0  0  0  0  0  0
  145.9570   69.4510  219.2860 C   0  0  0  0  0  0  0  0  0  0  0  0
  146.2740   68.1180  219.5620 C   0  0  0  0  0  0  0  0  0  0  0  0
  145.3340   67.1210  219.3640 C   0  0  0  0  0  0  0  0  0  0  0  0
  144.0590   67.4040  218.8900 C   0  0  0  0  0  0  0  0  0  0  0  0
  143.7560   68.7260  218.6190 C   0  0  0  0  0  0  0  0  0  0  0  0
  142.9930   71.4700  219.0670 C   0  0  0  0  0  0  0  0  0  0  0  0
  143.1750   71.5450  220.5760 C   0  0  0  0  0  0  0  0  0  0  0  0
  141.8170   71.8080  221.1440 C   0  0  0  0  0  0  0  0  0  0  0  0
  141.3770   73.1390  220.6680 N   0  0  0  0  0  0  0  0  0  0  0  0
  140.5790   73.8490  221.5940 C   0  0  0  0  0  0  0  0  0  0  0  0
  140.3530   73.2520  222.7030 O   0  0  0  0  0  0  0  0  0  0  0  0
  139.9850   75.1800  221.4330 C   0  0  1  0  0  0  0  0  0  0  0  0
  138.9500   75.4060  222.3830 N   0  0  0  0  0  0  0  0  0  0  0  0
  141.0520   76.2530  221.4550 C   0  0  1  0  0  0  0  0  0  0  0  0
  141.4860   76.5860  220.0810 C   0  0  0  0  0  0  0  0  0  0  0  0
  142.8370   76.5970  219.7740 C   0  0  0  0  0  0  0  0  0  0  0  0
  143.3210   76.8970  218.5260 C   0  0  0  0  0  0  0  0  0  0  0  0
  142.4300   77.2040  217.5170 C   0  0  0  0  0  0  0  0  0  0  0  0
  141.0700   77.2030  217.7860 C   0  0  0  0  0  0  0  0  0  0  0  0
  140.6230   76.8970  219.0540 C   0  0  0  0  0  0  0  0  0  0  0  0
  140.6660   77.4620  222.2200 C   0  0  0  0  0  0  0  0  0  0  0  0
  141.4340   77.9630  223.2550 C   0  0  0  0  0  0  0  0  0  0  0  0
  141.0840   79.0880  223.9750 C   0  0  0  0  0  0  0  0  0  0  0  0
  139.9090   79.7150  223.6190 C   0  0  0  0  0  0  0  0  0  0  0  0
  139.0920   79.2740  222.5990 C   0  0  0  0  0  0  0  0  0  0  0  0
  137.9550   79.9560  222.3190 F   0  0  0  0  0  0  0  0  0  0  0  0
  139.4940   78.1450  221.9160 C   0  0  0  0  0  0  0  0  0  0  0  0
  141.7370   73.6520  219.3790 C   0  0  0  0  0  0  0  0  0  0  0  0
  142.5680   72.7900  218.5120 C   0  0  0  0  0  0  0  0  0  0  0  0
  146.0151   70.1128  216.4691 H   0  0  0  0  0  0  0  0  0  0  0  0
  144.9444   70.1049  215.0268 H   0  0  0  0  0  0  0  0  0  0  0  0
  146.4439   71.0939  215.0268 H   0  0  0  0  0  0  0  0  0  0  0  0
  145.2146   72.8286  215.7741 H   0  0  0  0  0  0  0  0  0  0  0  0
  143.7734   71.7928  215.9731 H   0  0  0  0  0  0  0  0  0  0  0  0
  146.6922   70.2548  219.4387 H   0  0  0  0  0  0  0  0  0  0  0  0
  147.2749   67.8599  219.9382 H   0  0  0  0  0  0  0  0  0  0  0  0
  145.6035   66.0782  219.5877 H   0  0  0  0  0  0  0  0  0  0  0  0
  143.3178   66.6060  218.7359 H   0  0  0  0  0  0  0  0  0  0  0  0
  142.7564   68.9871  218.2414 H   0  0  0  0  0  0  0  0  0  0  0  0
  142.2022   70.7494  218.8114 H   0  0  0  0  0  0  0  0  0  0  0  0
  143.5722   70.5940  220.9605 H   0  0  0  0  0  0  0  0  0  0  0  0
  143.8881   72.3343  220.8564 H   0  0  0  0  0  0  0  0  0  0  0  0
  141.1122   71.0362  220.8011 H   0  0  0  0  0  0  0  0  0  0  0  0
  141.8493   71.7846  222.2433 H   0  0  0  0  0  0  0  0  0  0  0  0
  139.5068   75.2298  220.4436 H   0  0  0  0  0  0  0  0  0  0  0  0
  139.2450   75.0370  223.3120 H   0  0  0  0  0  0  0  0  0  0  0  0
  138.0980   74.8150  222.1420 H   0  0  0  0  0  0  0  0  0  0  0  0
  141.9088   75.8297  221.9998 H   0  0  0  0  0  0  0  0  0  0  0  0
  143.5564   76.3533  220.5696 H   0  0  0  0  0  0  0  0  0  0  0  0
  144.4037   76.8930  218.3319 H   0  0  0  0  0  0  0  0  0  0  0  0
  142.7960   77.4472  216.5086 H   0  0  0  0  0  0  0  0  0  0  0  0
  140.3499   77.4455  216.9906 H   0  0  0  0  0  0  0  0  0  0  0  0
  139.5409   76.9015  219.2518 H   0  0  0  0  0  0  0  0  0  0  0  0
  142.3665   77.4414  223.5167 H   0  0  0  0  0  0  0  0  0  0  0  0
  141.7132   79.4662  224.7942 H   0  0  0  0  0  0  0  0  0  0  0  0
  139.6074   80.6135  224.1773 H   0  0  0  0  0  0  0  0  0  0  0  0
  138.8617   77.7700  221.0978 H   0  0  0  0  0  0  0  0  0  0  0  0
  140.8042   73.8647  218.8362 H   0  0  0  0  0  0  0  0  0  0  0  0
  142.3667   74.5287  219.5908 H   0  0  0  0  0  0  0  0  0  0  0  0
  141.9949   72.5938  217.5938 H   0  0  0  0  0  0  0  0  0  0  0  0
  143.5031   73.3509  218.3676 H   0  0  0  0  0  0  0  0  0  0  0  0
  1  2  1  0
  2  3  1  0
  3  4  2  0
  3  5  1  0
  5  6  1  0
  6  7  2  0
  7  8  1  0
  8  9  2  0
  9 10  1  0
 10 11  2  0
  5 12  1  0
 12 13  1  0
 13 14  1  0
 14 15  1  0
 15 16  1  0
 16 17  2  0
 16 18  1  0
 18 19  1  0
 18 20  1  0
 20 21  1  0
 21 22  2  0
 22 23  1  0
 23 24  2  0
 24 25  1  0
 25 26  2  0
 20 27  1  0
 27 28  2  0
 28 29  1  0
 29 30  2  0
 30 31  1  0
 31 32  1  0
 31 33  2  0
 15 34  1  0
 34 35  1  0
 11  6  1  0
 35 12  1  0
 26 21  1  0
 33 27  1  0
  1 36  1  0
  1 37  1  0
  1 38  1  0
  2 39  1  0
  2 40  1  0
  7 41  1  0
  8 42  1  0
  9 43  1  0
 10 44  1  0
 11 45  1  0
 12 46  1  0
 13 47  1  0
 13 48  1  0
 14 49  1  0
 14 50  1  0
 18 51  1  6
 19 52  1  0
 19 53  1  0
 20 54  1  1
 22 55  1  0
 23 56  1  0
 24 57  1  0
 25 58  1  0
 26 59  1  0
 28 60  1  0
 29 61  1  0
 30 62  1  0
 33 63  1  0
 34 64  1  0
 34 65  1  0
 35 66  1  0
 35 67  1  0
M  END
>  <smiles>  (57) 
CCC(=O)N(c1ccccc1)C1CCN(C(=O)[C@@H](N)C(c2ccccc2)c2cccc(F)c2)CC1

>  <score_type>  (57) 
oracle

>  <origin>  (57) 
autodockgpu

>  <m_score__min__energy>  (57) 
-8.2300000000000004

>  <m_primary>  (57) 
energy

>  <rmsd>  (57) 
5.539132386138846

>  <m_score__min__rmsd>  (57) 
5.539132386138846

>  <meeko>  (57) 
{"free_energy": -7.3, "intermolecular_energy": -9.98, "internal_energy": -3.26, "cluster_size": 27, "cluster_id": 1, "rank_in_cluster": 25}

>  <energy>  (57) 
-7.87

>  <cluster_rmsd>  (57) 
1.34

>  <cluster>  (57) 
1

$$$$

     RDKit          3D

 67 70  0  0  0  0  0  0  0  0999 V2000
  135.9220   71.2170  224.1810 C   0  0  0  0  0  0  0  0  0  0  0  0
  136.3530   69.9990  224.9640 C   0  0  0  0  0  0  0  0  0  0  0  0
  137.3160   69.2360  224.1330 C   0  0  0  0  0  0  0  0  0  0  0  0
  136.8310   68.4070  223.3200 O   0  0  0  0  0  0  0  0  0  0  0  0
  138.7090   69.4670  224.2870 N   0  0  0  0  0  0  0  0  0  0  0  0
  139.3980   69.0520  225.4780 C   0  0  0  0  0  0  0  0  0  0  0  0
  139.9020   67.7780  225.6320 C   0  0  0  0  0  0  0  0  0  0  0  0
  140.5580   67.4810  226.8300 C   0  0  0  0  0  0  0  0  0  0  0  0
  140.6870   68.4470  227.8140 C   0  0  0  0  0  0  0  0  0  0  0  0
  140.1750   69.7290  227.6500 C   0  0  0  0  0  0  0  0  0  0  0  0
  139.5270   70.0120  226.4620 C   0  0  0  0  0  0  0  0  0  0  0  0
  139.5080   70.1210  223.2780 C   0  0  0  0  0  0  0  0  0  0  0  0
  138.5820   70.4590  222.1180 C   0  0  0  0  0  0  0  0  0  0  0  0
  139.4610   70.9780  221.0250 C   0  0  0  0  0  0  0  0  0  0  0  0
  140.0770   72.2380  221.5010 N   0  0  0  0  0  0  0  0  0  0  0  0
  140.2910   73.1970  220.4840 C   0  0  0  0  0  0  0  0  0  0  0  0
  139.9220   72.8490  219.3080 O   0  0  0  0  0  0  0  0  0  0  0  0
  140.8790   74.5330  220.6180 C   0  0  1  0  0  0  0  0  0  0  0  0
  141.3080   74.7800  221.9530 N   0  0  0  0  0  0  0  0  0  0  0  0
  141.9760   74.7440  219.5970 C   0  0  1  0  0  0  0  0  0  0  0  0
  142.1440   76.1830  219.3020 C   0  0  0  0  0  0  0  0  0  0  0  0
  141.6700   77.1250  220.2010 C   0  0  0  0  0  0  0  0  0  0  0  0
  141.7830   78.4780  220.0020 C   0  0  0  0  0  0  0  0  0  0  0  0
  142.3980   78.9370  218.8540 C   0  0  0  0  0  0  0  0  0  0  0  0
  142.8850   78.0250  217.9310 C   0  0  0  0  0  0  0  0  0  0  0  0
  142.7510   76.6730  218.1680 C   0  0  0  0  0  0  0  0  0  0  0  0
  143.2610   74.1020  219.9620 C   0  0  0  0  0  0  0  0  0  0  0  0
  144.3300   74.8180  220.4700 C   0  0  0  0  0  0  0  0  0  0  0  0
  145.5330   74.2320  220.8130 C   0  0  0  0  0  0  0  0  0  0  0  0
  145.6360   72.8690  220.6270 C   0  0  0  0  0  0  0  0  0  0  0  0
  144.6140   72.0910  220.1260 C   0  0  0  0  0  0  0  0  0  0  0  0
  144.8070   70.7570  219.9790 F   0  0  0  0  0  0  0  0  0  0  0  0
  143.4370   72.7340  219.8010 C   0  0  0  0  0  0  0  0  0  0  0  0
  140.4230   72.4530  222.8740 C   0  0  0  0  0  0  0  0  0  0  0  0
  140.1520   71.3530  223.8240 C   0  0  0  0  0  0  0  0  0  0  0  0
  135.6381   72.0193  224.8779 H   0  0  0  0  0  0  0  0  0  0  0  0
  136.7537   71.5589  223.5475 H   0  0  0  0  0  0  0  0  0  0  0  0
  135.0603   70.9596  223.5475 H   0  0  0  0  0  0  0  0  0  0  0  0
  136.8348   70.3101  225.9027 H   0  0  0  0  0  0  0  0  0  0  0  0
  135.4813   69.3744  225.2088 H   0  0  0  0  0  0  0  0  0  0  0  0
  139.7918   67.0223  224.8404 H   0  0  0  0  0  0  0  0  0  0  0  0
  140.9737   66.4755  226.9920 H   0  0  0  0  0  0  0  0  0  0  0  0
  141.2078   68.1934  228.7491 H   0  0  0  0  0  0  0  0  0  0  0  0
  140.2816   70.4904  228.4367 H   0  0  0  0  0  0  0  0  0  0  0  0
  139.1083   71.0160  226.2984 H   0  0  0  0  0  0  0  0  0  0  0  0
  140.3206   69.4604  222.9415 H   0  0  0  0  0  0  0  0  0  0  0  0
  138.0461   69.5590  221.7823 H   0  0  0  0  0  0  0  0  0  0  0  0
  137.8240   71.2003  222.4110 H   0  0  0  0  0  0  0  0  0  0  0  0
  140.2450   70.2419  220.7937 H   0  0  0  0  0  0  0  0  0  0  0  0
  138.8744   71.1574  220.1119 H   0  0  0  0  0  0  0  0  0  0  0  0
  140.0997   75.2793  220.4041 H   0  0  0  0  0  0  0  0  0  0  0  0
  140.6320   75.4220  222.4210 H   0  0  0  0  0  0  0  0  0  0  0  0
  142.2140   75.3380  221.9480 H   0  0  0  0  0  0  0  0  0  0  0  0
  141.6503   74.2338  218.6785 H   0  0  0  0  0  0  0  0  0  0  0  0
  141.1790   76.7707  221.1194 H   0  0  0  0  0  0  0  0  0  0  0  0
  141.3896   79.1864  220.7459 H   0  0  0  0  0  0  0  0  0  0  0  0
  142.5005   80.0173  218.6736 H   0  0  0  0  0  0  0  0  0  0  0  0
  143.3767   78.3783  217.0126 H   0  0  0  0  0  0  0  0  0  0  0  0
  143.1426   75.9621  217.4255 H   0  0  0  0  0  0  0  0  0  0  0  0
  144.2170   75.9036  220.6071 H   0  0  0  0  0  0  0  0  0  0  0  0
  146.3686   74.8237  221.2151 H   0  0  0  0  0  0  0  0  0  0  0  0
  146.5834   72.3770  220.8924 H   0  0  0  0  0  0  0  0  0  0  0  0
  142.6044   72.1387  219.3980 H   0  0  0  0  0  0  0  0  0  0  0  0
  141.5017   72.6646  222.9132 H   0  0  0  0  0  0  0  0  0  0  0  0
  139.7713   73.2759  223.2029 H   0  0  0  0  0  0  0  0  0  0  0  0
  141.1134   71.0547  224.2675 H   0  0  0  0  0  0  0  0  0  0  0  0
  139.4186   71.7653  224.5326 H   0  0  0  0  0  0  0  0  0  0  0  0
  1  2  1  0
  2  3  1  0
  3  4  2  0
  3  5  1  0
  5  6  1  0
  6  7  2  0
  7  8  1  0
  8  9  2  0
  9 10  1  0
 10 11  2  0
  5 12  1  0
 12 13  1  0
 13 14  1  0
 14 15  1  0
 15 16  1  0
 16 17  2  0
 16 18  1  0
 18 19  1  0
 18 20  1  0
 20 21  1  0
 21 22  2  0
 22 23  1  0
 23 24  2  0
 24 25  1  0
 25 26  2  0
 20 27  1  0
 27 28  2  0
 28 29  1  0
 29 30  2  0
 30 31  1  0
 31 32  1  0
 31 33  2  0
 15 34  1  0
 34 35  1  0
 11  6  1  0
 35 12  1  0
 26 21  1  0
 33 27  1  0
  1 36  1  0
  1 37  1  0
  1 38  1  0
  2 39  1  0
  2 40  1  0
  7 41  1  0
  8 42  1  0
  9 43  1  0
 10 44  1  0
 11 45  1  0
 12 46  1  0
 13 47  1  0
 13 48  1  0
 14 49  1  0
 14 50  1  0
 18 51  1  6
 19 52  1  0
 19 53  1  0
 20 54  1  6
 22 55  1  0
 23 56  1  0
 24 57  1  0
 25 58  1  0
 26 59  1  0
 28 60  1  0
 29 61  1  0
 30 62  1  0
 33 63  1  0
 34 64  1  0
 34 65  1  0
 35 66  1  0
 35 67  1  0
M  END
>  <smiles>  (58) 
CCC(=O)N(c1ccccc1)C1CCN(C(=O)[C@@H](N)C(c2ccccc2)c2cccc(F)c2)CC1

>  <score_type>  (58) 
oracle

>  <origin>  (58) 
autodockgpu

>  <m_score__min__energy>  (58) 
-8.2300000000000004

>  <m_primary>  (58) 
energy

>  <rmsd>  (58) 
6.5587321444427475

>  <m_score__min__rmsd>  (58) 
6.5587321444427475

>  <meeko>  (58) 
{"free_energy": -7.88, "intermolecular_energy": -10.56, "internal_energy": -2.01, "cluster_size": 1, "cluster_id": 4, "rank_in_cluster": 1}

>  <energy>  (58) 
-7.87

>  <cluster_rmsd>  (58) 
1.98

>  <cluster>  (58) 
1

$$$$

     RDKit          3D

 67 70  0  0  0  0  0  0  0  0999 V2000
  141.1670   68.0150  228.1940 C   0  0  0  0  0  0  0  0  0  0  0  0
  141.2490   67.6480  226.7310 C   0  0  0  0  0  0  0  0  0  0  0  0
  139.9630   68.0200  226.0910 C   0  0  0  0  0  0  0  0  0  0  0  0
  139.1160   67.1010  225.9450 O   0  0  0  0  0  0  0  0  0  0  0  0
  139.7500   69.3620  225.6800 N   0  0  0  0  0  0  0  0  0  0  0  0
  140.2880   70.4600  226.4370 C   0  0  0  0  0  0  0  0  0  0  0  0
  139.8290   70.7820  227.6950 C   0  0  0  0  0  0  0  0  0  0  0  0
  140.4250   71.8660  228.3450 C   0  0  0  0  0  0  0  0  0  0  0  0
  141.4400   72.5780  227.7280 C   0  0  0  0  0  0  0  0  0  0  0  0
  141.8970   72.2460  226.4580 C   0  0  0  0  0  0  0  0  0  0  0  0
  141.3000   71.1720  225.8240 C   0  0  0  0  0  0  0  0  0  0  0  0
  138.9930   69.7060  224.4990 C   0  0  0  0  0  0  0  0  0  0  0  0
  137.7790   68.7900  224.4580 C   0  0  0  0  0  0  0  0  0  0  0  0
  137.1090   69.0490  223.1470 C   0  0  0  0  0  0  0  0  0  0  0  0
  136.6260   70.4490  223.1550 N   0  0  0  0  0  0  0  0  0  0  0  0
  135.4230   70.6500  222.4400 C   0  0  0  0  0  0  0  0  0  0  0  0
  134.9220   69.6060  221.8940 O   0  0  0  0  0  0  0  0  0  0  0  0
  134.6880   71.9050  222.2520 C   0  0  1  0  0  0  0  0  0  0  0  0
  133.9640   71.9050  221.0280 N   0  0  0  0  0  0  0  0  0  0  0  0
  133.8180   72.2050  223.4540 C   0  0  1  0  0  0  0  0  0  0  0  0
  133.7090   71.0170  224.3280 C   0  0  0  0  0  0  0  0  0  0  0  0
  134.5160   70.9180  225.4500 C   0  0  0  0  0  0  0  0  0  0  0  0
  134.4780   69.8500  226.3110 C   0  0  0  0  0  0  0  0  0  0  0  0
  133.5980   68.8170  226.0580 C   0  0  0  0  0  0  0  0  0  0  0  0
  132.7740   68.8800  224.9450 C   0  0  0  0  0  0  0  0  0  0  0  0
  132.8430   69.9700  224.1040 C   0  0  0  0  0  0  0  0  0  0  0  0
  134.2390   73.4090  224.2080 C   0  0  0  0  0  0  0  0  0  0  0  0
  135.3420   74.1610  223.8490 C   0  0  0  0  0  0  0  0  0  0  0  0
  135.7450   75.2840  224.5440 C   0  0  0  0  0  0  0  0  0  0  0  0
  134.9880   75.6440  225.6400 C   0  0  0  0  0  0  0  0  0  0  0  0
  133.8760   74.9430  226.0560 C   0  0  0  0  0  0  0  0  0  0  0  0
  133.1910   75.3720  227.1450 F   0  0  0  0  0  0  0  0  0  0  0  0
  133.5230   73.8290  225.3220 C   0  0  0  0  0  0  0  0  0  0  0  0
  137.3260   71.4990  223.8340 C   0  0  0  0  0  0  0  0  0  0  0  0
  138.5800   71.1410  224.5310 C   0  0  0  0  0  0  0  0  0  0  0  0
  141.3661   67.1238  228.8073 H   0  0  0  0  0  0  0  0  0  0  0  0
  141.9142   68.7900  228.4200 H   0  0  0  0  0  0  0  0  0  0  0  0
  140.1611   68.3984  228.4200 H   0  0  0  0  0  0  0  0  0  0  0  0
  142.0751   68.1962  226.2546 H   0  0  0  0  0  0  0  0  0  0  0  0
  141.4337   66.5695  226.6178 H   0  0  0  0  0  0  0  0  0  0  0  0
  139.0218   70.2062  228.1713 H   0  0  0  0  0  0  0  0  0  0  0  0
  140.0865   72.1550  229.3510 H   0  0  0  0  0  0  0  0  0  0  0  0
  141.8962   73.4280  228.2565 H   0  0  0  0  0  0  0  0  0  0  0  0
  142.7039   72.8167  225.9751 H   0  0  0  0  0  0  0  0  0  0  0  0
  141.6357   70.8808  224.8178 H   0  0  0  0  0  0  0  0  0  0  0  0
  139.6055   69.5719  223.5952 H   0  0  0  0  0  0  0  0  0  0  0  0
  138.0922   67.7377  224.5254 H   0  0  0  0  0  0  0  0  0  0  0  0
  137.1003   68.9839  225.3017 H   0  0  0  0  0  0  0  0  0  0  0  0
  137.8260   68.9051  222.3253 H   0  0  0  0  0  0  0  0  0  0  0  0
  136.2695   68.3535  223.0002 H   0  0  0  0  0  0  0  0  0  0  0  0
  135.4157   72.7263  222.1752 H   0  0  0  0  0  0  0  0  0  0  0  0
  134.0980   70.9900  220.5450 H   0  0  0  0  0  0  0  0  0  0  0  0
  134.3930   72.6060  220.3500 H   0  0  0  0  0  0  0  0  0  0  0  0
  132.8178   72.4456  223.0644 H   0  0  0  0  0  0  0  0  0  0  0  0
  135.2215   71.7352  225.6609 H   0  0  0  0  0  0  0  0  0  0  0  0
  135.1390   69.8176  227.1897 H   0  0  0  0  0  0  0  0  0  0  0  0
  133.5510   67.9507  226.7342 H   0  0  0  0  0  0  0  0  0  0  0  0
  132.0679   68.0634  224.7338 H   0  0  0  0  0  0  0  0  0  0  0  0
  132.1839   70.0047  223.2240 H   0  0  0  0  0  0  0  0  0  0  0  0
  135.9252   73.8506  222.9695 H   0  0  0  0  0  0  0  0  0  0  0  0
  136.6280   75.8643  224.2383 H   0  0  0  0  0  0  0  0  0  0  0  0
  135.2869   76.5355  226.2108 H   0  0  0  0  0  0  0  0  0  0  0  0
  132.6398   73.2507  225.6312 H   0  0  0  0  0  0  0  0  0  0  0  0
  137.5717   72.2684  223.0872 H   0  0  0  0  0  0  0  0  0  0  0  0
  136.6424   71.8219  224.6330 H   0  0  0  0  0  0  0  0  0  0  0  0
  139.3909   71.7289  224.0762 H   0  0  0  0  0  0  0  0  0  0  0  0
  138.3861   71.3566  225.5921 H   0  0  0  0  0  0  0  0  0  0  0  0
  1  2  1  0
  2  3  1  0
  3  4  2  0
  3  5  1  0
  5  6  1  0
  6  7  2  0
  7  8  1  0
  8  9  2  0
  9 10  1  0
 10 11  2  0
  5 12  1  0
 12 13  1  0
 13 14  1  0
 14 15  1  0
 15 16  1  0
 16 17  2  0
 16 18  1  0
 18 19  1  0
 18 20  1  0
 20 21  1  0
 21 22  2  0
 22 23  1  0
 23 24  2  0
 24 25  1  0
 25 26  2  0
 20 27  1  0
 27 28  2  0
 28 29  1  0
 29 30  2  0
 30 31  1  0
 31 32  1  0
 31 33  2  0
 15 34  1  0
 34 35  1  0
 11  6  1  0
 35 12  1  0
 26 21  1  0
 33 27  1  0
  1 36  1  0
  1 37  1  0
  1 38  1  0
  2 39  1  0
  2 40  1  0
  7 41  1  0
  8 42  1  0
  9 43  1  0
 10 44  1  0
 11 45  1  0
 12 46  1  0
 13 47  1  0
 13 48  1  0
 14 49  1  0
 14 50  1  0
 18 51  1  6
 19 52  1  0
 19 53  1  0
 20 54  1  6
 22 55  1  0
 23 56  1  0
 24 57  1  0
 25 58  1  0
 26 59  1  0
 28 60  1  0
 29 61  1  0
 30 62  1  0
 33 63  1  0
 34 64  1  0
 34 65  1  0
 35 66  1  0
 35 67  1  0
M  END
>  <smiles>  (59) 
CCC(=O)N(c1ccccc1)C1CCN(C(=O)[C@@H](N)C(c2ccccc2)c2cccc(F)c2)CC1

>  <score_type>  (59) 
oracle

>  <origin>  (59) 
autodockgpu

>  <m_score__min__energy>  (59) 
-8.2300000000000004

>  <m_primary>  (59) 
energy

>  <rmsd>  (59) 
11.20812056270368

>  <m_score__min__rmsd>  (59) 
11.20812056270368

>  <meeko>  (59) 
{"free_energy": -7.0, "intermolecular_energy": -9.68, "internal_energy": -3.26, "cluster_size": 2, "cluster_id": 5, "rank_in_cluster": 2}

>  <energy>  (59) 
-7.87

>  <cluster_rmsd>  (59) 
0.8

>  <cluster>  (59) 
1

$$$$

     RDKit          3D

 67 70  0  0  0  0  0  0  0  0999 V2000
  146.3260   73.0150  221.6350 C   0  0  0  0  0  0  0  0  0  0  0  0
  145.9440   73.9010  220.4740 C   0  0  0  0  0  0  0  0  0  0  0  0
  145.5530   73.0290  219.3390 C   0  0  0  0  0  0  0  0  0  0  0  0
  146.3180   73.0210  218.3410 O   0  0  0  0  0  0  0  0  0  0  0  0
  144.3610   72.2620  219.4260 N   0  0  0  0  0  0  0  0  0  0  0  0
  144.3990   70.8270  219.3360 C   0  0  0  0  0  0  0  0  0  0  0  0
  145.5790   70.1300  219.1960 C   0  0  0  0  0  0  0  0  0  0  0  0
  145.5030   68.7360  219.1210 C   0  0  0  0  0  0  0  0  0  0  0  0
  144.2740   68.0990  219.1880 C   0  0  0  0  0  0  0  0  0  0  0  0
  143.0890   68.8110  219.3290 C   0  0  0  0  0  0  0  0  0  0  0  0
  143.1770   70.1900  219.4010 C   0  0  0  0  0  0  0  0  0  0  0  0
  143.0590   72.8600  219.6070 C   0  0  0  0  0  0  0  0  0  0  0  0
  142.8200   72.9760  221.1050 C   0  0  0  0  0  0  0  0  0  0  0  0
  141.4060   73.4370  221.2640 C   0  0  0  0  0  0  0  0  0  0  0  0
  141.3040   74.7920  220.6770 N   0  0  0  0  0  0  0  0  0  0  0  0
  140.3830   75.6390  221.3360 C   0  0  0  0  0  0  0  0  0  0  0  0
  139.7760   75.1250  222.3380 O   0  0  0  0  0  0  0  0  0  0  0  0
  140.0460   77.0280  221.0070 C   0  0  1  0  0  0  0  0  0  0  0  0
  139.1560   77.5880  221.9660 N   0  0  0  0  0  0  0  0  0  0  0  0
  141.2980   77.8540  220.8090 C   0  0  1  0  0  0  0  0  0  0  0  0
  141.3180   78.4570  219.4590 C   0  0  0  0  0  0  0  0  0  0  0  0
  142.4970   78.4640  218.7310 C   0  0  0  0  0  0  0  0  0  0  0  0
  142.5990   79.0050  217.4740 C   0  0  0  0  0  0  0  0  0  0  0  0
  141.4820   79.5710  216.8940 C   0  0  0  0  0  0  0  0  0  0  0  0
  140.2840   79.5820  217.5920 C   0  0  0  0  0  0  0  0  0  0  0  0
  140.2220   79.0290  218.8540 C   0  0  0  0  0  0  0  0  0  0  0  0
  141.5170   78.8670  221.8690 C   0  0  0  0  0  0  0  0  0  0  0  0
  141.8340   78.5230  223.1710 C   0  0  0  0  0  0  0  0  0  0  0  0
  142.0390   79.4570  224.1670 C   0  0  0  0  0  0  0  0  0  0  0  0
  141.9150   80.7840  223.8120 C   0  0  0  0  0  0  0  0  0  0  0  0
  141.6020   81.2020  222.5360 C   0  0  0  0  0  0  0  0  0  0  0  0
  141.5010   82.5290  222.2780 F   0  0  0  0  0  0  0  0  0  0  0  0
  141.4070   80.2220  221.5830 C   0  0  0  0  0  0  0  0  0  0  0  0
  142.0770   75.1980  219.5410 C   0  0  0  0  0  0  0  0  0  0  0  0
  142.9910   74.1990  218.9490 C   0  0  0  0  0  0  0  0  0  0  0  0
  146.1030   73.5322  222.5798 H   0  0  0  0  0  0  0  0  0  0  0  0
  145.7519   72.0780  221.5856 H   0  0  0  0  0  0  0  0  0  0  0  0
  147.4014   72.7892  221.5856 H   0  0  0  0  0  0  0  0  0  0  0  0
  145.0985   74.5447  220.7584 H   0  0  0  0  0  0  0  0  0  0  0  0
  146.7911   74.5420  220.1884 H   0  0  0  0  0  0  0  0  0  0  0  0
  146.5462   70.6515  219.1451 H   0  0  0  0  0  0  0  0  0  0  0  0
  146.4223   68.1425  219.0084 H   0  0  0  0  0  0  0  0  0  0  0  0
  144.2356   67.0013  219.1280 H   0  0  0  0  0  0  0  0  0  0  0  0
  142.1176   68.2976  219.3814 H   0  0  0  0  0  0  0  0  0  0  0  0
  142.2596   70.7868  219.5116 H   0  0  0  0  0  0  0  0  0  0  0  0
  142.2808   72.2379  219.1408 H   0  0  0  0  0  0  0  0  0  0  0  0
  142.9602   71.9991  221.5909 H   0  0  0  0  0  0  0  0  0  0  0  0
  143.5268   73.6777  221.5720 H   0  0  0  0  0  0  0  0  0  0  0  0
  140.7268   72.7494  220.7388 H   0  0  0  0  0  0  0  0  0  0  0  0
  141.1251   73.4564  222.3274 H   0  0  0  0  0  0  0  0  0  0  0  0
  139.5064   77.0375  220.0485 H   0  0  0  0  0  0  0  0  0  0  0  0
  139.6710   77.7650  222.8550 H   0  0  0  0  0  0  0  0  0  0  0  0
  138.4210   76.8700  222.2450 H   0  0  0  0  0  0  0  0  0  0  0  0
  142.1468   77.1595  220.8945 H   0  0  0  0  0  0  0  0  0  0  0  0
  143.3939   78.0145  219.1822 H   0  0  0  0  0  0  0  0  0  0  0  0
  143.5583   78.9877  216.9359 H   0  0  0  0  0  0  0  0  0  0  0  0
  141.5415   80.0095  215.8869 H   0  0  0  0  0  0  0  0  0  0  0  0
  139.3864   80.0301  217.1409 H   0  0  0  0  0  0  0  0  0  0  0  0
  139.2645   79.0457  219.3952 H   0  0  0  0  0  0  0  0  0  0  0  0
  141.9270   77.4566  223.4243 H   0  0  0  0  0  0  0  0  0  0  0  0
  142.2894   79.1569  225.1952 H   0  0  0  0  0  0  0  0  0  0  0  0
  142.0740   81.5483  224.5869 H   0  0  0  0  0  0  0  0  0  0  0  0
  141.1545   80.5263  220.5565 H   0  0  0  0  0  0  0  0  0  0  0  0
  141.3719   75.5068  218.7552 H   0  0  0  0  0  0  0  0  0  0  0  0
  142.7360   75.9937  219.9186 H   0  0  0  0  0  0  0  0  0  0  0  0
  142.6767   74.0398  217.9069 H   0  0  0  0  0  0  0  0  0  0  0  0
  143.9967   74.6268  219.0733 H   0  0  0  0  0  0  0  0  0  0  0  0
  1  2  1  0
  2  3  1  0
  3  4  2  0
  3  5  1  0
  5  6  1  0
  6  7  2  0
  7  8  1  0
  8  9  2  0
  9 10  1  0
 10 11  2  0
  5 12  1  0
 12 13  1  0
 13 14  1  0
 14 15  1  0
 15 16  1  0
 16 17  2  0
 16 18  1  0
 18 19  1  0
 18 20  1  0
 20 21  1  0
 21 22  2  0
 22 23  1  0
 23 24  2  0
 24 25  1  0
 25 26  2  0
 20 27  1  0
 27 28  2  0
 28 29  1  0
 29 30  2  0
 30 31  1  0
 31 32  1  0
 31 33  2  0
 15 34  1  0
 34 35  1  0
 11  6  1  0
 35 12  1  0
 26 21  1  0
 33 27  1  0
  1 36  1  0
  1 37  1  0
  1 38  1  0
  2 39  1  0
  2 40  1  0
  7 41  1  0
  8 42  1  0
  9 43  1  0
 10 44  1  0
 11 45  1  0
 12 46  1  0
 13 47  1  0
 13 48  1  0
 14 49  1  0
 14 50  1  0
 18 51  1  6
 19 52  1  0
 19 53  1  0
 20 54  1  6
 22 55  1  0
 23 56  1  0
 24 57  1  0
 25 58  1  0
 26 59  1  0
 28 60  1  0
 29 61  1  0
 30 62  1  0
 33 63  1  0
 34 64  1  0
 34 65  1  0
 35 66  1  0
 35 67  1  0
M  END
>  <smiles>  (60) 
CCC(=O)N(c1ccccc1)C1CCN(C(=O)[C@@H](N)C(c2ccccc2)c2cccc(F)c2)CC1

>  <score_type>  (60) 
oracle

>  <origin>  (60) 
autodockgpu

>  <m_score__min__energy>  (60) 
-8.2300000000000004

>  <m_primary>  (60) 
energy

>  <rmsd>  (60) 
4.407797537762823

>  <m_score__min__rmsd>  (60) 
4.407797537762823

>  <meeko>  (60) 
{"free_energy": -7.71, "intermolecular_energy": -10.4, "internal_energy": -3.23, "cluster_size": 27, "cluster_id": 1, "rank_in_cluster": 13}

>  <energy>  (60) 
-7.8

>  <cluster_rmsd>  (60) 
1.66

>  <cluster>  (60) 
1

$$$$

     RDKit          3D

 67 70  0  0  0  0  0  0  0  0999 V2000
  145.3100   73.6570  216.5260 C   0  0  0  0  0  0  0  0  0  0  0  0
  145.3640   72.1770  216.8220 C   0  0  0  0  0  0  0  0  0  0  0  0
  145.2750   71.9990  218.2920 C   0  0  0  0  0  0  0  0  0  0  0  0
  146.0770   72.6680  218.9940 O   0  0  0  0  0  0  0  0  0  0  0  0
  144.3130   71.1030  218.8300 N   0  0  0  0  0  0  0  0  0  0  0  0
  144.5950   69.6970  218.9390 C   0  0  0  0  0  0  0  0  0  0  0  0
  143.5980   68.7470  218.9690 C   0  0  0  0  0  0  0  0  0  0  0  0
  143.9820   67.4070  219.0730 C   0  0  0  0  0  0  0  0  0  0  0  0
  145.3240   67.0680  219.1420 C   0  0  0  0  0  0  0  0  0  0  0  0
  146.3230   68.0340  219.1120 C   0  0  0  0  0  0  0  0  0  0  0  0
  145.9310   69.3570  219.0090 C   0  0  0  0  0  0  0  0  0  0  0  0
  143.0160   71.5360  219.2930 C   0  0  0  0  0  0  0  0  0  0  0  0
  143.0570   71.5360  220.8140 C   0  0  0  0  0  0  0  0  0  0  0  0
  141.6600   71.8220  221.2650 C   0  0  0  0  0  0  0  0  0  0  0  0
  141.3100   73.1890  220.8160 N   0  0  0  0  0  0  0  0  0  0  0  0
  140.4510   73.8840  221.6970 C   0  0  0  0  0  0  0  0  0  0  0  0
  140.1020   73.2460  222.7500 O   0  0  0  0  0  0  0  0  0  0  0  0
  139.9190   75.2420  221.5470 C   0  0  1  0  0  0  0  0  0  0  0  0
  138.8960   75.5090  222.5000 N   0  0  0  0  0  0  0  0  0  0  0  0
  141.0340   76.2650  221.5750 C   0  0  1  0  0  0  0  0  0  0  0  0
  141.4690   76.6000  220.2030 C   0  0  0  0  0  0  0  0  0  0  0  0
  142.8220   76.6910  219.9180 C   0  0  0  0  0  0  0  0  0  0  0  0
  143.3080   76.9990  218.6720 C   0  0  0  0  0  0  0  0  0  0  0  0
  142.4170   77.2300  217.6430 C   0  0  0  0  0  0  0  0  0  0  0  0
  141.0560   77.1490  217.8900 C   0  0  0  0  0  0  0  0  0  0  0  0
  140.6070   76.8380  219.1560 C   0  0  0  0  0  0  0  0  0  0  0  0
  140.7100   77.4780  222.3630 C   0  0  0  0  0  0  0  0  0  0  0  0
  141.5070   77.9240  223.4010 C   0  0  0  0  0  0  0  0  0  0  0  0
  141.2150   79.0510  224.1430 C   0  0  0  0  0  0  0  0  0  0  0  0
  140.0700   79.7400  223.8050 C   0  0  0  0  0  0  0  0  0  0  0  0
  139.2270   79.3560  222.7830 C   0  0  0  0  0  0  0  0  0  0  0  0
  138.1220   80.0960  222.5210 F   0  0  0  0  0  0  0  0  0  0  0  0
  139.5710   78.2210  222.0780 C   0  0  0  0  0  0  0  0  0  0  0  0
  141.8070   73.7460  219.5930 C   0  0  0  0  0  0  0  0  0  0  0  0
  142.6880   72.8950  218.7660 C   0  0  0  0  0  0  0  0  0  0  0  0
  145.2895   74.2194  217.4711 H   0  0  0  0  0  0  0  0  0  0  0  0
  146.1981   73.9475  215.9456 H   0  0  0  0  0  0  0  0  0  0  0  0
  144.4030   73.8820  215.9456 H   0  0  0  0  0  0  0  0  0  0  0  0
  144.5207   71.6676  216.3327 H   0  0  0  0  0  0  0  0  0  0  0  0
  146.3015   71.7455  216.4413 H   0  0  0  0  0  0  0  0  0  0  0  0
  142.5372   69.0327  218.9131 H   0  0  0  0  0  0  0  0  0  0  0  0
  143.2158   66.6182  219.1002 H   0  0  0  0  0  0  0  0  0  0  0  0
  145.6057   66.0077  219.2225 H   0  0  0  0  0  0  0  0  0  0  0  0
  147.3861   67.7569  219.1681 H   0  0  0  0  0  0  0  0  0  0  0  0
  146.6944   70.1486  218.9826 H   0  0  0  0  0  0  0  0  0  0  0  0
  142.2302   70.8573  218.9299 H   0  0  0  0  0  0  0  0  0  0  0  0
  143.3857   70.5549  221.1873 H   0  0  0  0  0  0  0  0  0  0  0  0
  143.7651   72.2853  221.1976 H   0  0  0  0  0  0  0  0  0  0  0  0
  140.9666   71.0931  220.8202 H   0  0  0  0  0  0  0  0  0  0  0  0
  141.5869   71.7469  222.3600 H   0  0  0  0  0  0  0  0  0  0  0  0
  139.4427   75.3204  220.5586 H   0  0  0  0  0  0  0  0  0  0  0  0
  139.3300   75.7620  223.4140 H   0  0  0  0  0  0  0  0  0  0  0  0
  138.3620   74.6140  222.7210 H   0  0  0  0  0  0  0  0  0  0  0  0
  141.8760   75.7948  222.1041 H   0  0  0  0  0  0  0  0  0  0  0  0
  143.5414   76.5075  220.7297 H   0  0  0  0  0  0  0  0  0  0  0  0
  144.3920   77.0609  218.4957 H   0  0  0  0  0  0  0  0  0  0  0  0
  142.7844   77.4762  216.6358 H   0  0  0  0  0  0  0  0  0  0  0  0
  140.3361   77.3322  217.0787 H   0  0  0  0  0  0  0  0  0  0  0  0
  139.5234   76.7780  219.3357 H   0  0  0  0  0  0  0  0  0  0  0  0
  142.4155   77.3547  223.6469 H   0  0  0  0  0  0  0  0  0  0  0  0
  141.8655   79.3835  224.9653 H   0  0  0  0  0  0  0  0  0  0  0  0
  139.8154   80.6426  224.3799 H   0  0  0  0  0  0  0  0  0  0  0  0
  138.9172   77.8910  221.2572 H   0  0  0  0  0  0  0  0  0  0  0  0
  140.9372   74.0173  218.9767 H   0  0  0  0  0  0  0  0  0  0  0  0
  142.4421   74.5880  219.9054 H   0  0  0  0  0  0  0  0  0  0  0  0
  142.1984   72.7621  217.7900 H   0  0  0  0  0  0  0  0  0  0  0  0
  143.6501   73.4274  218.7367 H   0  0  0  0  0  0  0  0  0  0  0  0
  1  2  1  0
  2  3  1  0
  3  4  2  0
  3  5  1  0
  5  6  1  0
  6  7  2  0
  7  8  1  0
  8  9  2  0
  9 10  1  0
 10 11  2  0
  5 12  1  0
 12 13  1  0
 13 14  1  0
 14 15  1  0
 15 16  1  0
 16 17  2  0
 16 18  1  0
 18 19  1  0
 18 20  1  0
 20 21  1  0
 21 22  2  0
 22 23  1  0
 23 24  2  0
 24 25  1  0
 25 26  2  0
 20 27  1  0
 27 28  2  0
 28 29  1  0
 29 30  2  0
 30 31  1  0
 31 32  1  0
 31 33  2  0
 15 34  1  0
 34 35  1  0
 11  6  1  0
 35 12  1  0
 26 21  1  0
 33 27  1  0
  1 36  1  0
  1 37  1  0
  1 38  1  0
  2 39  1  0
  2 40  1  0
  7 41  1  0
  8 42  1  0
  9 43  1  0
 10 44  1  0
 11 45  1  0
 12 46  1  0
 13 47  1  0
 13 48  1  0
 14 49  1  0
 14 50  1  0
 18 51  1  6
 19 52  1  0
 19 53  1  0
 20 54  1  1
 22 55  1  0
 23 56  1  0
 24 57  1  0
 25 58  1  0
 26 59  1  0
 28 60  1  0
 29 61  1  0
 30 62  1  0
 33 63  1  0
 34 64  1  0
 34 65  1  0
 35 66  1  0
 35 67  1  0
M  END
>  <smiles>  (61) 
CCC(=O)N(c1ccccc1)C1CCN(C(=O)[C@@H](N)C(c2ccccc2)c2cccc(F)c2)CC1

>  <score_type>  (61) 
oracle

>  <origin>  (61) 
autodockgpu

>  <m_score__min__energy>  (61) 
-8.2300000000000004

>  <m_primary>  (61) 
energy

>  <rmsd>  (61) 
5.498033928787097

>  <m_score__min__rmsd>  (61) 
5.498033928787097

>  <meeko>  (61) 
{"free_energy": -7.69, "intermolecular_energy": -10.37, "internal_energy": -3.2, "cluster_size": 27, "cluster_id": 1, "rank_in_cluster": 15}

>  <energy>  (61) 
-7.79

>  <cluster_rmsd>  (61) 
0.84

>  <cluster>  (61) 
1

$$$$

     RDKit          3D

 67 70  0  0  0  0  0  0  0  0999 V2000
  143.1340   80.4760  223.4030 C   0  0  0  0  0  0  0  0  0  0  0  0
  141.8980   81.2130  223.8600 C   0  0  0  0  0  0  0  0  0  0  0  0
  140.8530   81.0470  222.8200 C   0  0  0  0  0  0  0  0  0  0  0  0
  141.0790   81.5760  221.7010 O   0  0  0  0  0  0  0  0  0  0  0  0
  139.6720   80.3190  223.1250 N   0  0  0  0  0  0  0  0  0  0  0  0
  138.5460   80.9650  223.7430 C   0  0  0  0  0  0  0  0  0  0  0  0
  138.0620   80.5830  224.9750 C   0  0  0  0  0  0  0  0  0  0  0  0
  136.9640   81.2810  225.4840 C   0  0  0  0  0  0  0  0  0  0  0  0
  136.3970   82.3180  224.7610 C   0  0  0  0  0  0  0  0  0  0  0  0
  136.8920   82.6950  223.5180 C   0  0  0  0  0  0  0  0  0  0  0  0
  137.9780   81.9970  223.0230 C   0  0  0  0  0  0  0  0  0  0  0  0
  139.5290   78.9100  222.8420 C   0  0  0  0  0  0  0  0  0  0  0  0
  139.0640   78.7850  221.3990 C   0  0  0  0  0  0  0  0  0  0  0  0
  138.7620   77.3360  221.1860 C   0  0  0  0  0  0  0  0  0  0  0  0
  140.0300   76.5850  221.3260 N   0  0  0  0  0  0  0  0  0  0  0  0
  140.1240   75.4480  220.4900 C   0  0  0  0  0  0  0  0  0  0  0  0
  139.1130   75.2310  219.7350 O   0  0  0  0  0  0  0  0  0  0  0  0
  141.2350   74.4970  220.3870 C   0  0  1  0  0  0  0  0  0  0  0  0
  141.0510   73.5960  219.3010 N   0  0  0  0  0  0  0  0  0  0  0  0
  142.5630   75.2230  220.3340 C   0  0  1  0  0  0  0  0  0  0  0  0
  143.6850   74.2610  220.3810 C   0  0  0  0  0  0  0  0  0  0  0  0
  144.9830   74.7310  220.4940 C   0  0  0  0  0  0  0  0  0  0  0  0
  146.0790   73.9060  220.5420 C   0  0  0  0  0  0  0  0  0  0  0  0
  145.8930   72.5400  220.4760 C   0  0  0  0  0  0  0  0  0  0  0  0
  144.6080   72.0330  220.3620 C   0  0  0  0  0  0  0  0  0  0  0  0
  143.5330   72.8940  220.3160 C   0  0  0  0  0  0  0  0  0  0  0  0
  142.6840   76.1580  219.1910 C   0  0  0  0  0  0  0  0  0  0  0  0
  143.0200   75.7350  217.9180 C   0  0  0  0  0  0  0  0  0  0  0  0
  143.1370   76.5970  216.8460 C   0  0  0  0  0  0  0  0  0  0  0  0
  142.9010   77.9330  217.0910 C   0  0  0  0  0  0  0  0  0  0  0  0
  142.5630   78.4280  218.3330 C   0  0  0  0  0  0  0  0  0  0  0  0
  142.3480   79.7580  218.4810 F   0  0  0  0  0  0  0  0  0  0  0  0
  142.4610   77.5190  219.3660 C   0  0  0  0  0  0  0  0  0  0  0  0
  141.0650   76.9850  222.2320 C   0  0  0  0  0  0  0  0  0  0  0  0
  140.8210   78.1900  223.0530 C   0  0  0  0  0  0  0  0  0  0  0  0
  143.7038   80.1363  224.2805 H   0  0  0  0  0  0  0  0  0  0  0  0
  142.8394   79.6060  222.7978 H   0  0  0  0  0  0  0  0  0  0  0  0
  143.7593   81.1488  222.7978 H   0  0  0  0  0  0  0  0  0  0  0  0
  141.5450   80.7939  224.8138 H   0  0  0  0  0  0  0  0  0  0  0  0
  142.1226   82.2795  224.0085 H   0  0  0  0  0  0  0  0  0  0  0  0
  138.5234   79.7581  225.5377 H   0  0  0  0  0  0  0  0  0  0  0  0
  136.5474   81.0057  226.4641 H   0  0  0  0  0  0  0  0  0  0  0  0
  135.5343   82.8560  225.1808 H   0  0  0  0  0  0  0  0  0  0  0  0
  136.4363   83.5187  222.9489 H   0  0  0  0  0  0  0  0  0  0  0  0
  138.3953   82.2677  222.0419 H   0  0  0  0  0  0  0  0  0  0  0  0
  138.7964   78.4519  223.5227 H   0  0  0  0  0  0  0  0  0  0  0  0
  138.1612   79.3915  221.2347 H   0  0  0  0  0  0  0  0  0  0  0  0
  139.8308   79.1437  220.6966 H   0  0  0  0  0  0  0  0  0  0  0  0
  138.0372   76.9902  221.9377 H   0  0  0  0  0  0  0  0  0  0  0  0
  138.3286   77.1762  220.1877 H   0  0  0  0  0  0  0  0  0  0  0  0
  141.2478   73.8785  221.2966 H   0  0  0  0  0  0  0  0  0  0  0  0
  141.2240   74.0960  218.4020 H   0  0  0  0  0  0  0  0  0  0  0  0
  140.0270   73.3130  219.2320 H   0  0  0  0  0  0  0  0  0  0  0  0
  142.6094   75.8581  221.2310 H   0  0  0  0  0  0  0  0  0  0  0  0
  145.1433   75.8179  220.5479 H   0  0  0  0  0  0  0  0  0  0  0  0
  147.0910   74.3275  220.6318 H   0  0  0  0  0  0  0  0  0  0  0  0
  146.7567   71.8598  220.5135 H   0  0  0  0  0  0  0  0  0  0  0  0
  144.4467   70.9462  220.3084 H   0  0  0  0  0  0  0  0  0  0  0  0
  142.5199   72.4753  220.2243 H   0  0  0  0  0  0  0  0  0  0  0  0
  143.2023   74.6630  217.7520 H   0  0  0  0  0  0  0  0  0  0  0  0
  143.4060   76.2346  215.8428 H   0  0  0  0  0  0  0  0  0  0  0  0
  142.9867   78.6403  216.2530 H   0  0  0  0  0  0  0  0  0  0  0  0
  142.1926   77.8857  220.3677 H   0  0  0  0  0  0  0  0  0  0  0  0
  141.2427   76.1463  222.9213 H   0  0  0  0  0  0  0  0  0  0  0  0
  141.9162   77.2506  221.5878 H   0  0  0  0  0  0  0  0  0  0  0  0
  140.8610   77.8846  224.1090 H   0  0  0  0  0  0  0  0  0  0  0  0
  141.5977   78.9052  222.7445 H   0  0  0  0  0  0  0  0  0  0  0  0
  1  2  1  0
  2  3  1  0
  3  4  2  0
  3  5  1  0
  5  6  1  0
  6  7  2  0
  7  8  1  0
  8  9  2  0
  9 10  1  0
 10 11  2  0
  5 12  1  0
 12 13  1  0
 13 14  1  0
 14 15  1  0
 15 16  1  0
 16 17  2  0
 16 18  1  0
 18 19  1  0
 18 20  1  0
 20 21  1  0
 21 22  2  0
 22 23  1  0
 23 24  2  0
 24 25  1  0
 25 26  2  0
 20 27  1  0
 27 28  2  0
 28 29  1  0
 29 30  2  0
 30 31  1  0
 31 32  1  0
 31 33  2  0
 15 34  1  0
 34 35  1  0
 11  6  1  0
 35 12  1  0
 26 21  1  0
 33 27  1  0
  1 36  1  0
  1 37  1  0
  1 38  1  0
  2 39  1  0
  2 40  1  0
  7 41  1  0
  8 42  1  0
  9 43  1  0
 10 44  1  0
 11 45  1  0
 12 46  1  0
 13 47  1  0
 13 48  1  0
 14 49  1  0
 14 50  1  0
 18 51  1  1
 19 52  1  0
 19 53  1  0
 20 54  1  1
 22 55  1  0
 23 56  1  0
 24 57  1  0
 25 58  1  0
 26 59  1  0
 28 60  1  0
 29 61  1  0
 30 62  1  0
 33 63  1  0
 34 64  1  0
 34 65  1  0
 35 66  1  0
 35 67  1  0
M  END
>  <smiles>  (62) 
CCC(=O)N(c1ccccc1)C1CCN(C(=O)[C@@H](N)C(c2ccccc2)c2cccc(F)c2)CC1

>  <score_type>  (62) 
oracle

>  <origin>  (62) 
autodockgpu

>  <m_score__min__energy>  (62) 
-8.2300000000000004

>  <m_primary>  (62) 
energy

>  <rmsd>  (62) 
7.068270753643852

>  <m_score__min__rmsd>  (62) 
7.068270753643852

>  <meeko>  (62) 
{"free_energy": -7.03, "intermolecular_energy": -9.72, "internal_energy": -3.26, "cluster_size": 6, "cluster_id": 6, "rank_in_cluster": 2}

>  <energy>  (62) 
-7.73

>  <cluster_rmsd>  (62) 
1.4

>  <cluster>  (62) 
1

$$$$

     RDKit          3D

 67 70  0  0  0  0  0  0  0  0999 V2000
  143.1490   80.5000  223.4240 C   0  0  0  0  0  0  0  0  0  0  0  0
  141.9170   81.2790  223.8210 C   0  0  0  0  0  0  0  0  0  0  0  0
  140.8710   81.0360  222.7990 C   0  0  0  0  0  0  0  0  0  0  0  0
  141.0890   81.4910  221.6460 O   0  0  0  0  0  0  0  0  0  0  0  0
  139.6980   80.3200  223.1550 N   0  0  0  0  0  0  0  0  0  0  0  0
  138.5770   80.9920  223.7550 C   0  0  0  0  0  0  0  0  0  0  0  0
  138.0670   80.6230  224.9800 C   0  0  0  0  0  0  0  0  0  0  0  0
  136.9770   81.3460  225.4730 C   0  0  0  0  0  0  0  0  0  0  0  0
  136.4440   82.3940  224.7400 C   0  0  0  0  0  0  0  0  0  0  0  0
  136.9660   82.7590  223.5040 C   0  0  0  0  0  0  0  0  0  0  0  0
  138.0430   82.0350  223.0260 C   0  0  0  0  0  0  0  0  0  0  0  0
  139.5570   78.8980  222.9440 C   0  0  0  0  0  0  0  0  0  0  0  0
  138.9880   78.7040  221.5460 C   0  0  0  0  0  0  0  0  0  0  0  0
  138.6950   77.2430  221.4180 C   0  0  0  0  0  0  0  0  0  0  0  0
  139.9820   76.5150  221.4960 N   0  0  0  0  0  0  0  0  0  0  0  0
  140.0320   75.3440  220.7050 C   0  0  0  0  0  0  0  0  0  0  0  0
  138.9720   75.0810  220.0370 O   0  0  0  0  0  0  0  0  0  0  0  0
  141.1480   74.4040  220.5620 C   0  0  1  0  0  0  0  0  0  0  0  0
  140.9350   73.5050  219.4780 N   0  0  0  0  0  0  0  0  0  0  0  0
  142.4660   75.1410  220.4680 C   0  0  1  0  0  0  0  0  0  0  0  0
  143.5970   74.1890  220.4610 C   0  0  0  0  0  0  0  0  0  0  0  0
  144.8960   74.6710  220.4790 C   0  0  0  0  0  0  0  0  0  0  0  0
  145.9990   73.8550  220.4730 C   0  0  0  0  0  0  0  0  0  0  0  0
  145.8210   72.4870  220.4470 C   0  0  0  0  0  0  0  0  0  0  0  0
  144.5360   71.9670  220.4270 C   0  0  0  0  0  0  0  0  0  0  0  0
  143.4530   72.8200  220.4340 C   0  0  0  0  0  0  0  0  0  0  0  0
  142.5370   76.0910  219.3320 C   0  0  0  0  0  0  0  0  0  0  0  0
  142.6440   75.6710  218.0190 C   0  0  0  0  0  0  0  0  0  0  0  0
  142.7120   76.5460  216.9530 C   0  0  0  0  0  0  0  0  0  0  0  0
  142.6670   77.8920  217.2480 C   0  0  0  0  0  0  0  0  0  0  0  0
  142.5610   78.3850  218.5310 C   0  0  0  0  0  0  0  0  0  0  0  0
  142.5230   79.7260  218.7260 F   0  0  0  0  0  0  0  0  0  0  0  0
  142.4980   77.4620  219.5550 C   0  0  0  0  0  0  0  0  0  0  0  0
  141.0740   76.9680  222.3060 C   0  0  0  0  0  0  0  0  0  0  0  0
  140.8720   78.2050  223.0890 C   0  0  0  0  0  0  0  0  0  0  0  0
  143.6784   80.1653  224.3283 H   0  0  0  0  0  0  0  0  0  0  0  0
  142.8528   79.6246  222.8273 H   0  0  0  0  0  0  0  0  0  0  0  0
  143.8128   81.1429  222.8273 H   0  0  0  0  0  0  0  0  0  0  0  0
  141.5625   80.9401  224.8056 H   0  0  0  0  0  0  0  0  0  0  0  0
  142.1479   82.3527  223.8831 H   0  0  0  0  0  0  0  0  0  0  0  0
  138.5020   79.7889  225.5502 H   0  0  0  0  0  0  0  0  0  0  0  0
  136.5404   81.0817  226.4474 H   0  0  0  0  0  0  0  0  0  0  0  0
  135.5867   82.9510  225.1459 H   0  0  0  0  0  0  0  0  0  0  0  0
  136.5382   83.5927  222.9278 H   0  0  0  0  0  0  0  0  0  0  0  0
  138.4803   82.2943  222.0506 H   0  0  0  0  0  0  0  0  0  0  0  0
  138.8842   78.4604  223.6962 H   0  0  0  0  0  0  0  0  0  0  0  0
  138.0655   79.2907  221.4242 H   0  0  0  0  0  0  0  0  0  0  0  0
  139.6944   79.0420  220.7735 H   0  0  0  0  0  0  0  0  0  0  0  0
  138.0328   76.9211  222.2352 H   0  0  0  0  0  0  0  0  0  0  0  0
  138.1926   77.0341  220.4620 H   0  0  0  0  0  0  0  0  0  0  0  0
  141.1975   73.7830  221.4686 H   0  0  0  0  0  0  0  0  0  0  0  0
  140.3410   73.9670  218.7570 H   0  0  0  0  0  0  0  0  0  0  0  0
  140.3400   72.6830  219.7980 H   0  0  0  0  0  0  0  0  0  0  0  0
  142.5401   75.7653  221.3706 H   0  0  0  0  0  0  0  0  0  0  0  0
  145.0503   75.7599  220.4991 H   0  0  0  0  0  0  0  0  0  0  0  0
  147.0112   74.2854  220.4887 H   0  0  0  0  0  0  0  0  0  0  0  0
  146.6915   71.8145  220.4422 H   0  0  0  0  0  0  0  0  0  0  0  0
  144.3812   70.8782  220.4056 H   0  0  0  0  0  0  0  0  0  0  0  0
  142.4396   72.3924  220.4175 H   0  0  0  0  0  0  0  0  0  0  0  0
  142.6764   74.5907  217.8143 H   0  0  0  0  0  0  0  0  0  0  0  0
  142.7980   76.1861  215.9171 H   0  0  0  0  0  0  0  0  0  0  0  0
  142.7184   78.6100  216.4162 H   0  0  0  0  0  0  0  0  0  0  0  0
  142.4135   77.8263  220.5895 H   0  0  0  0  0  0  0  0  0  0  0  0
  141.3140   76.1632  223.0164 H   0  0  0  0  0  0  0  0  0  0  0  0
  141.8719   77.2151  221.5902 H   0  0  0  0  0  0  0  0  0  0  0  0
  140.9950   77.9478  224.1514 H   0  0  0  0  0  0  0  0  0  0  0  0
  141.6120   78.9156  222.6921 H   0  0  0  0  0  0  0  0  0  0  0  0
  1  2  1  0
  2  3  1  0
  3  4  2  0
  3  5  1  0
  5  6  1  0
  6  7  2  0
  7  8  1  0
  8  9  2  0
  9 10  1  0
 10 11  2  0
  5 12  1  0
 12 13  1  0
 13 14  1  0
 14 15  1  0
 15 16  1  0
 16 17  2  0
 16 18  1  0
 18 19  1  0
 18 20  1  0
 20 21  1  0
 21 22  2  0
 22 23  1  0
 23 24  2  0
 24 25  1  0
 25 26  2  0
 20 27  1  0
 27 28  2  0
 28 29  1  0
 29 30  2  0
 30 31  1  0
 31 32  1  0
 31 33  2  0
 15 34  1  0
 34 35  1  0
 11  6  1  0
 35 12  1  0
 26 21  1  0
 33 27  1  0
  1 36  1  0
  1 37  1  0
  1 38  1  0
  2 39  1  0
  2 40  1  0
  7 41  1  0
  8 42  1  0
  9 43  1  0
 10 44  1  0
 11 45  1  0
 12 46  1  0
 13 47  1  0
 13 48  1  0
 14 49  1  0
 14 50  1  0
 18 51  1  1
 19 52  1  0
 19 53  1  0
 20 54  1  1
 22 55  1  0
 23 56  1  0
 24 57  1  0
 25 58  1  0
 26 59  1  0
 28 60  1  0
 29 61  1  0
 30 62  1  0
 33 63  1  0
 34 64  1  0
 34 65  1  0
 35 66  1  0
 35 67  1  0
M  END
>  <smiles>  (63) 
CCC(=O)N(c1ccccc1)C1CCN(C(=O)[C@@H](N)C(c2ccccc2)c2cccc(F)c2)CC1

>  <score_type>  (63) 
oracle

>  <origin>  (63) 
autodockgpu

>  <m_score__min__energy>  (63) 
-8.2300000000000004

>  <m_primary>  (63) 
energy

>  <rmsd>  (63) 
7.094213288624379

>  <m_score__min__rmsd>  (63) 
7.094213288624379

>  <meeko>  (63) 
{"free_energy": -7.07, "intermolecular_energy": -9.75, "internal_energy": -3.23, "cluster_size": 6, "cluster_id": 6, "rank_in_cluster": 1}

>  <energy>  (63) 
-7.71

>  <cluster_rmsd>  (63) 
1.69

>  <cluster>  (63) 
1

$$$$

     RDKit          3D

 67 70  0  0  0  0  0  0  0  0999 V2000
  145.9430   74.0330  221.0650 C   0  0  0  0  0  0  0  0  0  0  0  0
  146.2920   72.6610  220.5370 C   0  0  0  0  0  0  0  0  0  0  0  0
  145.6040   72.4800  219.2360 C   0  0  0  0  0  0  0  0  0  0  0  0
  146.1420   73.0120  218.2310 O   0  0  0  0  0  0  0  0  0  0  0  0
  144.3980   71.7330  219.1820 N   0  0  0  0  0  0  0  0  0  0  0  0
  144.4120   70.3310  218.8610 C   0  0  0  0  0  0  0  0  0  0  0  0
  144.7500   69.8660  217.6090 C   0  0  0  0  0  0  0  0  0  0  0  0
  144.7340   68.4840  217.4050 C   0  0  0  0  0  0  0  0  0  0  0  0
  144.3890   67.6290  218.4390 C   0  0  0  0  0  0  0  0  0  0  0  0
  144.0490   68.1070  219.6990 C   0  0  0  0  0  0  0  0  0  0  0  0
  144.0670   69.4770  219.8890 C   0  0  0  0  0  0  0  0  0  0  0  0
  143.1040   72.3200  219.4400 C   0  0  0  0  0  0  0  0  0  0  0  0
  142.9990   72.5400  220.9420 C   0  0  0  0  0  0  0  0  0  0  0  0
  141.5960   72.9870  221.1980 C   0  0  0  0  0  0  0  0  0  0  0  0
  141.4080   74.2940  220.5290 N   0  0  0  0  0  0  0  0  0  0  0  0
  140.5310   75.1710  221.2090 C   0  0  0  0  0  0  0  0  0  0  0  0
  140.0300   74.7200  222.2970 O   0  0  0  0  0  0  0  0  0  0  0  0
  140.1330   76.5260  220.8150 C   0  0  1  0  0  0  0  0  0  0  0  0
  139.1190   77.0390  221.6720 N   0  0  0  0  0  0  0  0  0  0  0  0
  141.3390   77.4350  220.7160 C   0  0  1  0  0  0  0  0  0  0  0  0
  141.4130   78.0580  219.3770 C   0  0  0  0  0  0  0  0  0  0  0  0
  140.2640   78.5700  218.7970 C   0  0  0  0  0  0  0  0  0  0  0  0
  140.2470   79.1620  217.5590 C   0  0  0  0  0  0  0  0  0  0  0  0
  141.4250   79.2590  216.8460 C   0  0  0  0  0  0  0  0  0  0  0  0
  142.5960   78.7580  217.3940 C   0  0  0  0  0  0  0  0  0  0  0  0
  142.5710   78.1700  218.6410 C   0  0  0  0  0  0  0  0  0  0  0  0
  141.4160   78.4430  221.7990 C   0  0  0  0  0  0  0  0  0  0  0  0
  141.4860   78.0930  223.1350 C   0  0  0  0  0  0  0  0  0  0  0  0
  141.5580   79.0230  224.1530 C   0  0  0  0  0  0  0  0  0  0  0  0
  141.5570   80.3520  223.7850 C   0  0  0  0  0  0  0  0  0  0  0  0
  141.4890   80.7760  222.4750 C   0  0  0  0  0  0  0  0  0  0  0  0
  141.4950   82.1050  222.2060 F   0  0  0  0  0  0  0  0  0  0  0  0
  141.4190   79.8000  221.5010 C   0  0  0  0  0  0  0  0  0  0  0  0
  142.0640   74.6300  219.3000 C   0  0  0  0  0  0  0  0  0  0  0  0
  142.9450   73.6060  218.6980 C   0  0  0  0  0  0  0  0  0  0  0  0
  145.9476   74.0147  222.1648 H   0  0  0  0  0  0  0  0  0  0  0  0
  146.6840   74.7630  220.7073 H   0  0  0  0  0  0  0  0  0  0  0  0
  144.9432   74.3201  220.7073 H   0  0  0  0  0  0  0  0  0  0  0  0
  147.3802   72.5807  220.3978 H   0  0  0  0  0  0  0  0  0  0  0  0
  145.9720   71.8857  221.2487 H   0  0  0  0  0  0  0  0  0  0  0  0
  145.0228   70.5582  216.7988 H   0  0  0  0  0  0  0  0  0  0  0  0
  144.9965   68.0729  216.4190 H   0  0  0  0  0  0  0  0  0  0  0  0
  144.3841   66.5440  218.2581 H   0  0  0  0  0  0  0  0  0  0  0  0
  143.7758   67.4214  220.5147 H   0  0  0  0  0  0  0  0  0  0  0  0
  143.8027   69.8916  220.8730 H   0  0  0  0  0  0  0  0  0  0  0  0
  142.3015   71.6525  219.0931 H   0  0  0  0  0  0  0  0  0  0  0  0
  143.2056   71.6033  221.4805 H   0  0  0  0  0  0  0  0  0  0  0  0
  143.7285   73.2857  221.2911 H   0  0  0  0  0  0  0  0  0  0  0  0
  140.8883   72.2515  220.7878 H   0  0  0  0  0  0  0  0  0  0  0  0
  141.4133   73.0789  222.2788 H   0  0  0  0  0  0  0  0  0  0  0  0
  139.6888   76.4800  219.8097 H   0  0  0  0  0  0  0  0  0  0  0  0
  139.5460   77.3350  222.5760 H   0  0  0  0  0  0  0  0  0  0  0  0
  138.4540   76.2590  221.9580 H   0  0  0  0  0  0  0  0  0  0  0  0
  142.2241   76.7967  220.8550 H   0  0  0  0  0  0  0  0  0  0  0  0
  139.3193   78.4986  219.3559 H   0  0  0  0  0  0  0  0  0  0  0  0
  139.3080   79.5537  217.1408 H   0  0  0  0  0  0  0  0  0  0  0  0
  141.4347   79.7296  215.8518 H   0  0  0  0  0  0  0  0  0  0  0  0
  143.5413   78.8293  216.8361 H   0  0  0  0  0  0  0  0  0  0  0  0
  143.5082   77.7771  219.0620 H   0  0  0  0  0  0  0  0  0  0  0  0
  141.4842   77.0251  223.3987 H   0  0  0  0  0  0  0  0  0  0  0  0
  141.6136   78.7180  225.2084 H   0  0  0  0  0  0  0  0  0  0  0  0
  141.6134   81.1129  224.5774 H   0  0  0  0  0  0  0  0  0  0  0  0
  141.3634   80.1092  220.4468 H   0  0  0  0  0  0  0  0  0  0  0  0
  141.2828   74.8679  218.5631 H   0  0  0  0  0  0  0  0  0  0  0  0
  142.7348   75.4630  219.5572 H   0  0  0  0  0  0  0  0  0  0  0  0
  142.5417   73.3662  217.7031 H   0  0  0  0  0  0  0  0  0  0  0  0
  143.9474   74.0591  218.6985 H   0  0  0  0  0  0  0  0  0  0  0  0
  1  2  1  0
  2  3  1  0
  3  4  2  0
  3  5  1  0
  5  6  1  0
  6  7  2  0
  7  8  1  0
  8  9  2  0
  9 10  1  0
 10 11  2  0
  5 12  1  0
 12 13  1  0
 13 14  1  0
 14 15  1  0
 15 16  1  0
 16 17  2  0
 16 18  1  0
 18 19  1  0
 18 20  1  0
 20 21  1  0
 21 22  2  0
 22 23  1  0
 23 24  2  0
 24 25  1  0
 25 26  2  0
 20 27  1  0
 27 28  2  0
 28 29  1  0
 29 30  2  0
 30 31  1  0
 31 32  1  0
 31 33  2  0
 15 34  1  0
 34 35  1  0
 11  6  1  0
 35 12  1  0
 26 21  1  0
 33 27  1  0
  1 36  1  0
  1 37  1  0
  1 38  1  0
  2 39  1  0
  2 40  1  0
  7 41  1  0
  8 42  1  0
  9 43  1  0
 10 44  1  0
 11 45  1  0
 12 46  1  0
 13 47  1  0
 13 48  1  0
 14 49  1  0
 14 50  1  0
 18 51  1  6
 19 52  1  0
 19 53  1  0
 20 54  1  1
 22 55  1  0
 23 56  1  0
 24 57  1  0
 25 58  1  0
 26 59  1  0
 28 60  1  0
 29 61  1  0
 30 62  1  0
 33 63  1  0
 34 64  1  0
 34 65  1  0
 35 66  1  0
 35 67  1  0
M  END
>  <smiles>  (64) 
CCC(=O)N(c1ccccc1)C1CCN(C(=O)[C@@H](N)C(c2ccccc2)c2cccc(F)c2)CC1

>  <score_type>  (64) 
oracle

>  <origin>  (64) 
autodockgpu

>  <m_score__min__energy>  (64) 
-8.2300000000000004

>  <m_primary>  (64) 
energy

>  <rmsd>  (64) 
4.487327500851608

>  <m_score__min__rmsd>  (64) 
4.487327500851608

>  <meeko>  (64) 
{"free_energy": -7.08, "intermolecular_energy": -9.76, "internal_energy": -3.21, "cluster_size": 27, "cluster_id": 1, "rank_in_cluster": 27}

>  <energy>  (64) 
-7.69

>  <cluster_rmsd>  (64) 
1.44

>  <cluster>  (64) 
1

$$$$

     RDKit          3D

 67 70  0  0  0  0  0  0  0  0999 V2000
  146.0450   72.8510  220.5260 C   0  0  0  0  0  0  0  0  0  0  0  0
  145.6430   73.2520  219.1260 C   0  0  0  0  0  0  0  0  0  0  0  0
  145.3460   72.0160  218.3610 C   0  0  0  0  0  0  0  0  0  0  0  0
  145.9580   71.8620  217.2720 O   0  0  0  0  0  0  0  0  0  0  0  0
  144.4080   71.0830  218.8770 N   0  0  0  0  0  0  0  0  0  0  0  0
  144.7240   69.6820  218.9510 C   0  0  0  0  0  0  0  0  0  0  0  0
  146.0200   69.2240  219.0410 C   0  0  0  0  0  0  0  0  0  0  0  0
  146.2150   67.8420  219.1110 C   0  0  0  0  0  0  0  0  0  0  0  0
  145.1300   66.9810  219.0900 C   0  0  0  0  0  0  0  0  0  0  0  0
  143.8250   67.4530  218.9980 C   0  0  0  0  0  0  0  0  0  0  0  0
  143.6440   68.8220  218.9290 C   0  0  0  0  0  0  0  0  0  0  0  0
  143.1000   71.4730  219.3510 C   0  0  0  0  0  0  0  0  0  0  0  0
  143.1680   71.5240  220.8710 C   0  0  0  0  0  0  0  0  0  0  0  0
  141.7680   71.7620  221.3400 C   0  0  0  0  0  0  0  0  0  0  0  0
  141.3490   73.0960  220.8540 N   0  0  0  0  0  0  0  0  0  0  0  0
  140.4750   73.7810  221.7290 C   0  0  0  0  0  0  0  0  0  0  0  0
  140.1740   73.1620  222.8080 O   0  0  0  0  0  0  0  0  0  0  0  0
  139.8780   75.1080  221.5450 C   0  0  1  0  0  0  0  0  0  0  0  0
  138.8280   75.3390  222.4770 N   0  0  0  0  0  0  0  0  0  0  0  0
  140.9410   76.1860  221.5730 C   0  0  1  0  0  0  0  0  0  0  0  0
  141.4260   76.4740  220.2070 C   0  0  0  0  0  0  0  0  0  0  0  0
  142.7890   76.5540  219.9690 C   0  0  0  0  0  0  0  0  0  0  0  0
  143.3200   76.8200  218.7320 C   0  0  0  0  0  0  0  0  0  0  0  0
  142.4680   77.0180  217.6640 C   0  0  0  0  0  0  0  0  0  0  0  0
  141.0980   76.9460  217.8640 C   0  0  0  0  0  0  0  0  0  0  0  0
  140.6030   76.6780  219.1220 C   0  0  0  0  0  0  0  0  0  0  0  0
  140.5210   77.4170  222.2820 C   0  0  0  0  0  0  0  0  0  0  0  0
  139.2420   77.9340  222.1780 C   0  0  0  0  0  0  0  0  0  0  0  0
  138.8390   79.0810  222.8320 C   0  0  0  0  0  0  0  0  0  0  0  0
  139.7800   79.7140  223.6170 C   0  0  0  0  0  0  0  0  0  0  0  0
  141.0730   79.2580  223.7690 C   0  0  0  0  0  0  0  0  0  0  0  0
  141.9300   79.9450  224.5620 F   0  0  0  0  0  0  0  0  0  0  0  0
  141.4170   78.1070  223.0890 C   0  0  0  0  0  0  0  0  0  0  0  0
  141.7970   73.6350  219.6040 C   0  0  0  0  0  0  0  0  0  0  0  0
  142.7020   72.7970  218.7880 C   0  0  0  0  0  0  0  0  0  0  0  0
  145.4622   73.4324  221.2556 H   0  0  0  0  0  0  0  0  0  0  0  0
  145.8485   71.7784  220.6709 H   0  0  0  0  0  0  0  0  0  0  0  0
  147.1171   73.0502  220.6709 H   0  0  0  0  0  0  0  0  0  0  0  0
  144.7488   73.8915  219.1634 H   0  0  0  0  0  0  0  0  0  0  0  0
  146.4552   73.8143  218.6421 H   0  0  0  0  0  0  0  0  0  0  0  0
  146.8708   69.9210  219.0572 H   0  0  0  0  0  0  0  0  0  0  0  0
  147.2348   67.4360  219.1831 H   0  0  0  0  0  0  0  0  0  0  0  0
  145.3050   65.8965  219.1475 H   0  0  0  0  0  0  0  0  0  0  0  0
  142.9687   66.7628  218.9808 H   0  0  0  0  0  0  0  0  0  0  0  0
  142.6257   69.2316  218.8556 H   0  0  0  0  0  0  0  0  0  0  0  0
  142.3392   70.7487  219.0245 H   0  0  0  0  0  0  0  0  0  0  0  0
  143.5472   70.5710  221.2686 H   0  0  0  0  0  0  0  0  0  0  0  0
  143.8483   72.3162  221.2169 H   0  0  0  0  0  0  0  0  0  0  0  0
  141.1003   70.9886  220.9327 H   0  0  0  0  0  0  0  0  0  0  0  0
  141.7181   71.7198  222.4381 H   0  0  0  0  0  0  0  0  0  0  0  0
  139.4149   75.1460  220.5480 H   0  0  0  0  0  0  0  0  0  0  0  0
  139.2320   75.6520  223.3860 H   0  0  0  0  0  0  0  0  0  0  0  0
  138.3500   74.4200  222.7230 H   0  0  0  0  0  0  0  0  0  0  0  0
  141.7781   75.7862  222.1641 H   0  0  0  0  0  0  0  0  0  0  0  0
  143.4780   76.3968  220.8119 H   0  0  0  0  0  0  0  0  0  0  0  0
  144.4098   76.8747  218.5932 H   0  0  0  0  0  0  0  0  0  0  0  0
  142.8724   77.2309  216.6634 H   0  0  0  0  0  0  0  0  0  0  0  0
  140.4084   77.1023  217.0214 H   0  0  0  0  0  0  0  0  0  0  0  0
  139.5135   76.6253  219.2642 H   0  0  0  0  0  0  0  0  0  0  0  0
  138.5128   77.4070  221.5452 H   0  0  0  0  0  0  0  0  0  0  0  0
  137.8156   79.4717  222.7318 H   0  0  0  0  0  0  0  0  0  0  0  0
  139.4841   80.6299  224.1495 H   0  0  0  0  0  0  0  0  0  0  0  0
  142.4419   77.7205  223.1902 H   0  0  0  0  0  0  0  0  0  0  0  0
  140.9045   73.8455  218.9964 H   0  0  0  0  0  0  0  0  0  0  0  0
  142.3972   74.5158  219.8758 H   0  0  0  0  0  0  0  0  0  0  0  0
  142.2023   72.6106  217.8259 H   0  0  0  0  0  0  0  0  0  0  0  0
  143.6384   73.3706  218.7244 H   0  0  0  0  0  0  0  0  0  0  0  0
  1  2  1  0
  2  3  1  0
  3  4  2  0
  3  5  1  0
  5  6  1  0
  6  7  2  0
  7  8  1  0
  8  9  2  0
  9 10  1  0
 10 11  2  0
  5 12  1  0
 12 13  1  0
 13 14  1  0
 14 15  1  0
 15 16  1  0
 16 17  2  0
 16 18  1  0
 18 19  1  0
 18 20  1  0
 20 21  1  0
 21 22  2  0
 22 23  1  0
 23 24  2  0
 24 25  1  0
 25 26  2  0
 20 27  1  0
 27 28  2  0
 28 29  1  0
 29 30  2  0
 30 31  1  0
 31 32  1  0
 31 33  2  0
 15 34  1  0
 34 35  1  0
 11  6  1  0
 35 12  1  0
 26 21  1  0
 33 27  1  0
  1 36  1  0
  1 37  1  0
  1 38  1  0
  2 39  1  0
  2 40  1  0
  7 41  1  0
  8 42  1  0
  9 43  1  0
 10 44  1  0
 11 45  1  0
 12 46  1  0
 13 47  1  0
 13 48  1  0
 14 49  1  0
 14 50  1  0
 18 51  1  6
 19 52  1  0
 19 53  1  0
 20 54  1  1
 22 55  1  0
 23 56  1  0
 24 57  1  0
 25 58  1  0
 26 59  1  0
 28 60  1  0
 29 61  1  0
 30 62  1  0
 33 63  1  0
 34 64  1  0
 34 65  1  0
 35 66  1  0
 35 67  1  0
M  END
>  <smiles>  (65) 
CCC(=O)N(c1ccccc1)C1CCN(C(=O)[C@@H](N)C(c2ccccc2)c2cccc(F)c2)CC1

>  <score_type>  (65) 
oracle

>  <origin>  (65) 
autodockgpu

>  <m_score__min__energy>  (65) 
-8.2300000000000004

>  <m_primary>  (65) 
energy

>  <rmsd>  (65) 
5.594523296752855

>  <m_score__min__rmsd>  (65) 
5.594523296752855

>  <meeko>  (65) 
{"free_energy": -7.79, "intermolecular_energy": -10.47, "internal_energy": -2.87, "cluster_size": 27, "cluster_id": 1, "rank_in_cluster": 11}

>  <energy>  (65) 
-7.69

>  <cluster_rmsd>  (65) 
0.74

>  <cluster>  (65) 
1

$$$$

     RDKit          3D

 67 70  0  0  0  0  0  0  0  0999 V2000
  145.5740   74.1270  220.8320 C   0  0  0  0  0  0  0  0  0  0  0  0
  145.9320   72.6640  220.7100 C   0  0  0  0  0  0  0  0  0  0  0  0
  145.3170   72.1430  219.4650 C   0  0  0  0  0  0  0  0  0  0  0  0
  145.9440   72.3520  218.3940 O   0  0  0  0  0  0  0  0  0  0  0  0
  144.0800   71.4500  219.5330 N   0  0  0  0  0  0  0  0  0  0  0  0
  144.0320   70.0160  219.4410 C   0  0  0  0  0  0  0  0  0  0  0  0
  142.8440   69.3180  219.4330 C   0  0  0  0  0  0  0  0  0  0  0  0
  142.9110   67.9250  219.3370 C   0  0  0  0  0  0  0  0  0  0  0  0
  144.1390   67.2890  219.2520 C   0  0  0  0  0  0  0  0  0  0  0  0
  145.3320   68.0020  219.2620 C   0  0  0  0  0  0  0  0  0  0  0  0
  145.2540   69.3790  219.3590 C   0  0  0  0  0  0  0  0  0  0  0  0
  142.8140   72.1260  219.6950 C   0  0  0  0  0  0  0  0  0  0  0  0
  142.5620   72.2590  221.1890 C   0  0  0  0  0  0  0  0  0  0  0  0
  141.1770   72.8060  221.3280 C   0  0  0  0  0  0  0  0  0  0  0  0
  141.1650   74.1640  220.7380 N   0  0  0  0  0  0  0  0  0  0  0  0
  140.2880   75.0660  221.3820 C   0  0  0  0  0  0  0  0  0  0  0  0
  139.6370   74.5920  222.3770 O   0  0  0  0  0  0  0  0  0  0  0  0
  140.0410   76.4720  221.0470 C   0  0  1  0  0  0  0  0  0  0  0  0
  139.1170   77.0680  221.9520 N   0  0  0  0  0  0  0  0  0  0  0  0
  141.3420   77.2380  220.9400 C   0  0  1  0  0  0  0  0  0  0  0  0
  141.5680   77.6910  219.5510 C   0  0  0  0  0  0  0  0  0  0  0  0
  140.5170   78.2320  218.8290 C   0  0  0  0  0  0  0  0  0  0  0  0
  140.6430   78.6740  217.5360 C   0  0  0  0  0  0  0  0  0  0  0  0
  141.8710   78.5810  216.9120 C   0  0  0  0  0  0  0  0  0  0  0  0
  142.9460   78.0450  217.6030 C   0  0  0  0  0  0  0  0  0  0  0  0
  142.7790   77.6120  218.9010 C   0  0  0  0  0  0  0  0  0  0  0  0
  141.4570   78.3530  221.9100 C   0  0  0  0  0  0  0  0  0  0  0  0
  141.4500   78.1500  223.2780 C   0  0  0  0  0  0  0  0  0  0  0  0
  141.5560   79.1800  224.1920 C   0  0  0  0  0  0  0  0  0  0  0  0
  141.6750   80.4560  223.6810 C   0  0  0  0  0  0  0  0  0  0  0  0
  141.6900   80.7340  222.3310 C   0  0  0  0  0  0  0  0  0  0  0  0
  141.8120   82.0210  221.9200 F   0  0  0  0  0  0  0  0  0  0  0  0
  141.5800   79.6640  221.4670 C   0  0  0  0  0  0  0  0  0  0  0  0
  141.9760   74.5190  219.6110 C   0  0  0  0  0  0  0  0  0  0  0  0
  142.8370   73.4650  219.0340 C   0  0  0  0  0  0  0  0  0  0  0  0
  145.5070   74.4007  221.8953 H   0  0  0  0  0  0  0  0  0  0  0  0
  146.3496   74.7361  220.3447 H   0  0  0  0  0  0  0  0  0  0  0  0
  144.6048   74.3092  220.3447 H   0  0  0  0  0  0  0  0  0  0  0  0
  147.0250   72.5501  220.6623 H   0  0  0  0  0  0  0  0  0  0  0  0
  145.5601   72.1060  221.5820 H   0  0  0  0  0  0  0  0  0  0  0  0
  141.8772   69.8384  219.4998 H   0  0  0  0  0  0  0  0  0  0  0  0
  141.9850   67.3314  219.3289 H   0  0  0  0  0  0  0  0  0  0  0  0
  144.1705   66.1922  219.1747 H   0  0  0  0  0  0  0  0  0  0  0  0
  146.3030   67.4894  219.1952 H   0  0  0  0  0  0  0  0  0  0  0  0
  146.1784   69.9752  219.3710 H   0  0  0  0  0  0  0  0  0  0  0  0
  142.0055   71.5516  219.2191 H   0  0  0  0  0  0  0  0  0  0  0  0
  142.6353   71.2762  221.6777 H   0  0  0  0  0  0  0  0  0  0  0  0
  143.3040   72.9169  221.6651 H   0  0  0  0  0  0  0  0  0  0  0  0
  140.4643   72.1600  220.7944 H   0  0  0  0  0  0  0  0  0  0  0  0
  140.8840   72.8450  222.3875 H   0  0  0  0  0  0  0  0  0  0  0  0
  139.5670   76.5148  220.0553 H   0  0  0  0  0  0  0  0  0  0  0  0
  139.2610   76.6710  222.9050 H   0  0  0  0  0  0  0  0  0  0  0  0
  138.1250   76.7710  221.7080 H   0  0  0  0  0  0  0  0  0  0  0  0
  142.1427   76.5348  221.2130 H   0  0  0  0  0  0  0  0  0  0  0  0
  139.5337   78.3112  219.3157 H   0  0  0  0  0  0  0  0  0  0  0  0
  139.7777   79.0965  217.0042 H   0  0  0  0  0  0  0  0  0  0  0  0
  141.9950   78.9291  215.8759 H   0  0  0  0  0  0  0  0  0  0  0  0
  143.9297   77.9653  217.1171 H   0  0  0  0  0  0  0  0  0  0  0  0
  143.6425   77.1891  219.4354 H   0  0  0  0  0  0  0  0  0  0  0  0
  141.3557   77.1211  223.6554 H   0  0  0  0  0  0  0  0  0  0  0  0
  141.5460   78.9919  225.2758 H   0  0  0  0  0  0  0  0  0  0  0  0
  141.7624   81.2947  224.3873 H   0  0  0  0  0  0  0  0  0  0  0  0
  141.5901   79.8566  220.3840 H   0  0  0  0  0  0  0  0  0  0  0  0
  141.3009   74.8662  218.8149 H   0  0  0  0  0  0  0  0  0  0  0  0
  142.6762   75.2754  219.9952 H   0  0  0  0  0  0  0  0  0  0  0  0
  142.5293   73.3226  217.9876 H   0  0  0  0  0  0  0  0  0  0  0  0
  143.8648   73.8316  219.1726 H   0  0  0  0  0  0  0  0  0  0  0  0
  1  2  1  0
  2  3  1  0
  3  4  2  0
  3  5  1  0
  5  6  1  0
  6  7  2  0
  7  8  1  0
  8  9  2  0
  9 10  1  0
 10 11  2  0
  5 12  1  0
 12 13  1  0
 13 14  1  0
 14 15  1  0
 15 16  1  0
 16 17  2  0
 16 18  1  0
 18 19  1  0
 18 20  1  0
 20 21  1  0
 21 22  2  0
 22 23  1  0
 23 24  2  0
 24 25  1  0
 25 26  2  0
 20 27  1  0
 27 28  2  0
 28 29  1  0
 29 30  2  0
 30 31  1  0
 31 32  1  0
 31 33  2  0
 15 34  1  0
 34 35  1  0
 11  6  1  0
 35 12  1  0
 26 21  1  0
 33 27  1  0
  1 36  1  0
  1 37  1  0
  1 38  1  0
  2 39  1  0
  2 40  1  0
  7 41  1  0
  8 42  1  0
  9 43  1  0
 10 44  1  0
 11 45  1  0
 12 46  1  0
 13 47  1  0
 13 48  1  0
 14 49  1  0
 14 50  1  0
 18 51  1  6
 19 52  1  0
 19 53  1  0
 20 54  1  1
 22 55  1  0
 23 56  1  0
 24 57  1  0
 25 58  1  0
 26 59  1  0
 28 60  1  0
 29 61  1  0
 30 62  1  0
 33 63  1  0
 34 64  1  0
 34 65  1  0
 35 66  1  0
 35 67  1  0
M  END
>  <smiles>  (66) 
CCC(=O)N(c1ccccc1)C1CCN(C(=O)[C@@H](N)C(c2ccccc2)c2cccc(F)c2)CC1

>  <score_type>  (66) 
oracle

>  <origin>  (66) 
autodockgpu

>  <m_score__min__energy>  (66) 
-8.2300000000000004

>  <m_primary>  (66) 
energy

>  <rmsd>  (66) 
4.65253812222725

>  <m_score__min__rmsd>  (66) 
4.65253812222725

>  <meeko>  (66) 
{"free_energy": -7.87, "intermolecular_energy": -10.56, "internal_energy": -3.25, "cluster_size": 27, "cluster_id": 1, "rank_in_cluster": 7}

>  <energy>  (66) 
-7.62

>  <cluster_rmsd>  (66) 
1.02

>  <cluster>  (66) 
1

$$$$

     RDKit          3D

 67 70  0  0  0  0  0  0  0  0999 V2000
  143.1530   80.5620  223.3980 C   0  0  0  0  0  0  0  0  0  0  0  0
  141.9160   81.2830  223.8790 C   0  0  0  0  0  0  0  0  0  0  0  0
  140.8600   81.1220  222.8490 C   0  0  0  0  0  0  0  0  0  0  0  0
  141.0780   81.6500  221.7280 O   0  0  0  0  0  0  0  0  0  0  0  0
  139.6800   80.3990  223.1660 N   0  0  0  0  0  0  0  0  0  0  0  0
  138.5470   81.0580  223.7570 C   0  0  0  0  0  0  0  0  0  0  0  0
  138.0610   80.7150  225.0000 C   0  0  0  0  0  0  0  0  0  0  0  0
  136.9570   81.4230  225.4820 C   0  0  0  0  0  0  0  0  0  0  0  0
  136.3870   82.4310  224.7220 C   0  0  0  0  0  0  0  0  0  0  0  0
  136.8830   82.7700  223.4690 C   0  0  0  0  0  0  0  0  0  0  0  0
  137.9760   82.0620  223.0010 C   0  0  0  0  0  0  0  0  0  0  0  0
  139.5420   78.9830  222.9200 C   0  0  0  0  0  0  0  0  0  0  0  0
  138.9900   78.8210  221.5110 C   0  0  0  0  0  0  0  0  0  0  0  0
  138.7000   77.3630  221.3460 C   0  0  0  0  0  0  0  0  0  0  0  0
  139.9860   76.6340  221.4210 N   0  0  0  0  0  0  0  0  0  0  0  0
  140.0460   75.4820  220.6030 C   0  0  0  0  0  0  0  0  0  0  0  0
  138.9940   75.2340  219.9170 O   0  0  0  0  0  0  0  0  0  0  0  0
  141.1650   74.5460  220.4510 C   0  0  1  0  0  0  0  0  0  0  0  0
  140.9780   73.6910  219.3290 N   0  0  0  0  0  0  0  0  0  0  0  0
  142.4850   75.2850  220.4170 C   0  0  1  0  0  0  0  0  0  0  0  0
  143.6160   74.3330  220.4470 C   0  0  0  0  0  0  0  0  0  0  0  0
  143.3630   72.9710  220.4550 C   0  0  0  0  0  0  0  0  0  0  0  0
  144.3550   72.0230  220.4840 C   0  0  0  0  0  0  0  0  0  0  0  0
  145.6730   72.4320  220.5050 C   0  0  0  0  0  0  0  0  0  0  0  0
  145.9650   73.7870  220.4980 C   0  0  0  0  0  0  0  0  0  0  0  0
  144.9410   74.7090  220.4700 C   0  0  0  0  0  0  0  0  0  0  0  0
  142.6020   76.2460  219.2950 C   0  0  0  0  0  0  0  0  0  0  0  0
  142.4070   77.6050  219.4590 C   0  0  0  0  0  0  0  0  0  0  0  0
  142.5120   78.5100  218.4220 C   0  0  0  0  0  0  0  0  0  0  0  0
  142.8270   78.0010  217.1800 C   0  0  0  0  0  0  0  0  0  0  0  0
  143.0360   76.6590  216.9410 C   0  0  0  0  0  0  0  0  0  0  0  0
  143.3430   76.2480  215.6860 F   0  0  0  0  0  0  0  0  0  0  0  0
  142.9160   75.8030  218.0160 C   0  0  0  0  0  0  0  0  0  0  0  0
  141.0690   77.0690  222.2530 C   0  0  0  0  0  0  0  0  0  0  0  0
  140.8560   78.2870  223.0630 C   0  0  0  0  0  0  0  0  0  0  0  0
  143.7386   80.2207  224.2643 H   0  0  0  0  0  0  0  0  0  0  0  0
  142.8583   79.6942  222.7897 H   0  0  0  0  0  0  0  0  0  0  0  0
  143.7629   81.2461  222.7897 H   0  0  0  0  0  0  0  0  0  0  0  0
  141.5776   80.8486  224.8313 H   0  0  0  0  0  0  0  0  0  0  0  0
  142.1338   82.3493  224.0387 H   0  0  0  0  0  0  0  0  0  0  0  0
  138.5256   79.9125  225.5917 H   0  0  0  0  0  0  0  0  0  0  0  0
  136.5386   81.1787  226.4696 H   0  0  0  0  0  0  0  0  0  0  0  0
  135.5194   82.9772  225.1206 H   0  0  0  0  0  0  0  0  0  0  0  0
  136.4239   83.5713  222.8714 H   0  0  0  0  0  0  0  0  0  0  0  0
  138.3956   82.3025  222.0130 H   0  0  0  0  0  0  0  0  0  0  0  0
  138.8604   78.5286  223.6541 H   0  0  0  0  0  0  0  0  0  0  0  0
  138.0685   79.4097  221.3917 H   0  0  0  0  0  0  0  0  0  0  0  0
  139.7053   79.1772  220.7550 H   0  0  0  0  0  0  0  0  0  0  0  0
  138.0292   77.0219  222.1483 H   0  0  0  0  0  0  0  0  0  0  0  0
  138.2085   77.1762  220.3798 H   0  0  0  0  0  0  0  0  0  0  0  0
  141.1924   73.8901  221.3336 H   0  0  0  0  0  0  0  0  0  0  0  0
  140.3900   74.1760  218.6170 H   0  0  0  0  0  0  0  0  0  0  0  0
  140.3860   72.8510  219.6050 H   0  0  0  0  0  0  0  0  0  0  0  0
  142.5213   75.9014  221.3273 H   0  0  0  0  0  0  0  0  0  0  0  0
  142.3164   72.6330  220.4373 H   0  0  0  0  0  0  0  0  0  0  0  0
  144.1031   70.9522  220.4904 H   0  0  0  0  0  0  0  0  0  0  0  0
  146.4843   71.6895  220.5271 H   0  0  0  0  0  0  0  0  0  0  0  0
  147.0115   74.1256  220.5147 H   0  0  0  0  0  0  0  0  0  0  0  0
  145.1900   75.7804  220.4659 H   0  0  0  0  0  0  0  0  0  0  0  0
  142.1568   77.9822  220.4616 H   0  0  0  0  0  0  0  0  0  0  0  0
  142.3518   79.5869  218.5792 H   0  0  0  0  0  0  0  0  0  0  0  0
  142.9162   78.7013  216.3364 H   0  0  0  0  0  0  0  0  0  0  0  0
  143.0753   74.7267  217.8543 H   0  0  0  0  0  0  0  0  0  0  0  0
  141.3030   76.2479  222.9466 H   0  0  0  0  0  0  0  0  0  0  0  0
  141.8743   77.3338  221.5520 H   0  0  0  0  0  0  0  0  0  0  0  0
  140.9671   78.0045  224.1203 H   0  0  0  0  0  0  0  0  0  0  0  0
  141.5994   79.0074  222.6911 H   0  0  0  0  0  0  0  0  0  0  0  0
  1  2  1  0
  2  3  1  0
  3  4  2  0
  3  5  1  0
  5  6  1  0
  6  7  2  0
  7  8  1  0
  8  9  2  0
  9 10  1  0
 10 11  2  0
  5 12  1  0
 12 13  1  0
 13 14  1  0
 14 15  1  0
 15 16  1  0
 16 17  2  0
 16 18  1  0
 18 19  1  0
 18 20  1  0
 20 21  1  0
 21 22  2  0
 22 23  1  0
 23 24  2  0
 24 25  1  0
 25 26  2  0
 20 27  1  0
 27 28  2  0
 28 29  1  0
 29 30  2  0
 30 31  1  0
 31 32  1  0
 31 33  2  0
 15 34  1  0
 34 35  1  0
 11  6  1  0
 35 12  1  0
 26 21  1  0
 33 27  1  0
  1 36  1  0
  1 37  1  0
  1 38  1  0
  2 39  1  0
  2 40  1  0
  7 41  1  0
  8 42  1  0
  9 43  1  0
 10 44  1  0
 11 45  1  0
 12 46  1  0
 13 47  1  0
 13 48  1  0
 14 49  1  0
 14 50  1  0
 18 51  1  1
 19 52  1  0
 19 53  1  0
 20 54  1  1
 22 55  1  0
 23 56  1  0
 24 57  1  0
 25 58  1  0
 26 59  1  0
 28 60  1  0
 29 61  1  0
 30 62  1  0
 33 63  1  0
 34 64  1  0
 34 65  1  0
 35 66  1  0
 35 67  1  0
M  END
>  <smiles>  (67) 
CCC(=O)N(c1ccccc1)C1CCN(C(=O)[C@@H](N)C(c2ccccc2)c2cccc(F)c2)CC1

>  <score_type>  (67) 
oracle

>  <origin>  (67) 
autodockgpu

>  <m_score__min__energy>  (67) 
-8.2300000000000004

>  <m_primary>  (67) 
energy

>  <rmsd>  (67) 
7.32400043993918

>  <m_score__min__rmsd>  (67) 
7.32400043993918

>  <meeko>  (67) 
{"free_energy": -6.98, "intermolecular_energy": -9.66, "internal_energy": -3.1, "cluster_size": 6, "cluster_id": 6, "rank_in_cluster": 4}

>  <energy>  (67) 
-7.61

>  <cluster_rmsd>  (67) 
0.76

>  <cluster>  (67) 
1

$$$$

     RDKit          3D

 67 70  0  0  0  0  0  0  0  0999 V2000
  144.7210   73.1310  215.7750 C   0  0  0  0  0  0  0  0  0  0  0  0
  144.7930   71.6850  216.2040 C   0  0  0  0  0  0  0  0  0  0  0  0
  145.0370   71.6510  217.6670 C   0  0  0  0  0  0  0  0  0  0  0  0
  145.9410   72.4070  218.1090 O   0  0  0  0  0  0  0  0  0  0  0  0
  144.2600   70.7890  218.4860 N   0  0  0  0  0  0  0  0  0  0  0  0
  144.6890   69.4440  218.7570 C   0  0  0  0  0  0  0  0  0  0  0  0
  146.0020   69.1320  219.0360 C   0  0  0  0  0  0  0  0  0  0  0  0
  146.3100   67.7930  219.2880 C   0  0  0  0  0  0  0  0  0  0  0  0
  145.3160   66.8280  219.2550 C   0  0  0  0  0  0  0  0  0  0  0  0
  143.9950   67.1520  218.9710 C   0  0  0  0  0  0  0  0  0  0  0  0
  143.7010   68.4810  218.7220 C   0  0  0  0  0  0  0  0  0  0  0  0
  143.0120   71.1980  219.0860 C   0  0  0  0  0  0  0  0  0  0  0  0
  143.2430   71.2920  220.5870 C   0  0  0  0  0  0  0  0  0  0  0  0
  141.9020   71.5500  221.1970 C   0  0  0  0  0  0  0  0  0  0  0  0
  141.4350   72.8720  220.7210 N   0  0  0  0  0  0  0  0  0  0  0  0
  140.6620   73.5860  221.6650 C   0  0  0  0  0  0  0  0  0  0  0  0
  140.4780   72.9990  222.7880 O   0  0  0  0  0  0  0  0  0  0  0  0
  140.0520   74.9100  221.5090 C   0  0  1  0  0  0  0  0  0  0  0  0
  138.9680   75.0930  222.4130 N   0  0  0  0  0  0  0  0  0  0  0  0
  141.0970   76.0010  221.6110 C   0  0  1  0  0  0  0  0  0  0  0  0
  141.7590   76.2110  220.3060 C   0  0  0  0  0  0  0  0  0  0  0  0
  141.0100   76.6270  219.2180 C   0  0  0  0  0  0  0  0  0  0  0  0
  141.5470   76.8420  217.9740 C   0  0  0  0  0  0  0  0  0  0  0  0
  142.8990   76.6400  217.7830 C   0  0  0  0  0  0  0  0  0  0  0  0
  143.6820   76.2240  218.8490 C   0  0  0  0  0  0  0  0  0  0  0  0
  143.1040   76.0170  220.0830 C   0  0  0  0  0  0  0  0  0  0  0  0
  140.5810   77.2690  222.1790 C   0  0  0  0  0  0  0  0  0  0  0  0
  139.2840   77.7020  221.9700 C   0  0  0  0  0  0  0  0  0  0  0  0
  138.7920   78.8810  222.4930 C   0  0  0  0  0  0  0  0  0  0  0  0
  139.6610   79.6360  223.2530 C   0  0  0  0  0  0  0  0  0  0  0  0
  140.9660   79.2680  223.5030 C   0  0  0  0  0  0  0  0  0  0  0  0
  141.7480   80.0740  224.2630 F   0  0  0  0  0  0  0  0  0  0  0  0
  141.4000   78.0800  222.9540 C   0  0  0  0  0  0  0  0  0  0  0  0
  141.7480   73.3730  219.4160 C   0  0  0  0  0  0  0  0  0  0  0  0
  142.5580   72.5090  218.5310 C   0  0  0  0  0  0  0  0  0  0  0  0
  144.6889   73.7764  216.6652 H   0  0  0  0  0  0  0  0  0  0  0  0
  145.6079   73.3797  215.1736 H   0  0  0  0  0  0  0  0  0  0  0  0
  143.8138   73.2903  215.1736 H   0  0  0  0  0  0  0  0  0  0  0  0
  143.8440   71.1794  215.9722 H   0  0  0  0  0  0  0  0  0  0  0  0
  145.6041   71.1685  215.6698 H   0  0  0  0  0  0  0  0  0  0  0  0
  146.7797   69.9096  219.0594 H   0  0  0  0  0  0  0  0  0  0  0  0
  147.3468   67.5031  219.5138 H   0  0  0  0  0  0  0  0  0  0  0  0
  145.5793   65.7796  219.4587 H   0  0  0  0  0  0  0  0  0  0  0  0
  143.2116   66.3802  218.9450 H   0  0  0  0  0  0  0  0  0  0  0  0
  142.6657   68.7739  218.4930 H   0  0  0  0  0  0  0  0  0  0  0  0
  142.2194   70.4682  218.8640 H   0  0  0  0  0  0  0  0  0  0  0  0
  143.6612   70.3489  220.9688 H   0  0  0  0  0  0  0  0  0  0  0  0
  143.9578   72.0906  220.8346 H   0  0  0  0  0  0  0  0  0  0  0  0
  141.1929   70.7685  220.8863 H   0  0  0  0  0  0  0  0  0  0  0  0
  141.9708   71.5392  222.2948 H   0  0  0  0  0  0  0  0  0  0  0  0
  139.6217   74.9774  220.4989 H   0  0  0  0  0  0  0  0  0  0  0  0
  139.3230   75.5070  223.3020 H   0  0  0  0  0  0  0  0  0  0  0  0
  138.5840   74.1480  222.7180 H   0  0  0  0  0  0  0  0  0  0  0  0
  141.8486   75.6483  222.3326 H   0  0  0  0  0  0  0  0  0  0  0  0
  139.9317   76.7932  219.3581 H   0  0  0  0  0  0  0  0  0  0  0  0
  140.9090   77.1708  217.1404 H   0  0  0  0  0  0  0  0  0  0  0  0
  143.3511   76.8075  216.7943 H   0  0  0  0  0  0  0  0  0  0  0  0
  144.7608   76.0597  218.7103 H   0  0  0  0  0  0  0  0  0  0  0  0
  143.7386   75.6856  220.9181 H   0  0  0  0  0  0  0  0  0  0  0  0
  138.6143   77.0786  221.3594 H   0  0  0  0  0  0  0  0  0  0  0  0
  137.7559   79.2032  222.3122 H   0  0  0  0  0  0  0  0  0  0  0  0
  139.2939   80.5802  223.6816 H   0  0  0  0  0  0  0  0  0  0  0  0
  142.4369   77.7616  223.1372 H   0  0  0  0  0  0  0  0  0  0  0  0
  140.7960   73.5715  218.9019 H   0  0  0  0  0  0  0  0  0  0  0  0
  142.3768   74.2571  219.5978 H   0  0  0  0  0  0  0  0  0  0  0  0
  141.9573   72.2984  217.6339 H   0  0  0  0  0  0  0  0  0  0  0  0
  143.4830   73.0761  218.3502 H   0  0  0  0  0  0  0  0  0  0  0  0
  1  2  1  0
  2  3  1  0
  3  4  2  0
  3  5  1  0
  5  6  1  0
  6  7  2  0
  7  8  1  0
  8  9  2  0
  9 10  1  0
 10 11  2  0
  5 12  1  0
 12 13  1  0
 13 14  1  0
 14 15  1  0
 15 16  1  0
 16 17  2  0
 16 18  1  0
 18 19  1  0
 18 20  1  0
 20 21  1  0
 21 22  2  0
 22 23  1  0
 23 24  2  0
 24 25  1  0
 25 26  2  0
 20 27  1  0
 27 28  2  0
 28 29  1  0
 29 30  2  0
 30 31  1  0
 31 32  1  0
 31 33  2  0
 15 34  1  0
 34 35  1  0
 11  6  1  0
 35 12  1  0
 26 21  1  0
 33 27  1  0
  1 36  1  0
  1 37  1  0
  1 38  1  0
  2 39  1  0
  2 40  1  0
  7 41  1  0
  8 42  1  0
  9 43  1  0
 10 44  1  0
 11 45  1  0
 12 46  1  0
 13 47  1  0
 13 48  1  0
 14 49  1  0
 14 50  1  0
 18 51  1  6
 19 52  1  0
 19 53  1  0
 20 54  1  1
 22 55  1  0
 23 56  1  0
 24 57  1  0
 25 58  1  0
 26 59  1  0
 28 60  1  0
 29 61  1  0
 30 62  1  0
 33 63  1  0
 34 64  1  0
 34 65  1  0
 35 66  1  0
 35 67  1  0
M  END
>  <smiles>  (68) 
CCC(=O)N(c1ccccc1)C1CCN(C(=O)[C@@H](N)C(c2ccccc2)c2cccc(F)c2)CC1

>  <score_type>  (68) 
oracle

>  <origin>  (68) 
autodockgpu

>  <m_score__min__energy>  (68) 
-8.2300000000000004

>  <m_primary>  (68) 
energy

>  <rmsd>  (68) 
5.622385054724322

>  <m_score__min__rmsd>  (68) 
5.622385054724322

>  <meeko>  (68) 
{"free_energy": -7.57, "intermolecular_energy": -10.25, "internal_energy": -3.04, "cluster_size": 27, "cluster_id": 1, "rank_in_cluster": 19}

>  <energy>  (68) 
-7.6

>  <cluster_rmsd>  (68) 
1.16

>  <cluster>  (68) 
1

$$$$

     RDKit          3D

 67 70  0  0  0  0  0  0  0  0999 V2000
  145.5980   74.1260  220.8380 C   0  0  0  0  0  0  0  0  0  0  0  0
  146.0270   72.6950  220.6140 C   0  0  0  0  0  0  0  0  0  0  0  0
  145.3640   72.2040  219.3810 C   0  0  0  0  0  0  0  0  0  0  0  0
  145.9420   72.4490  218.2910 O   0  0  0  0  0  0  0  0  0  0  0  0
  144.1360   71.4980  219.4820 N   0  0  0  0  0  0  0  0  0  0  0  0
  144.1020   70.0630  219.4020 C   0  0  0  0  0  0  0  0  0  0  0  0
  145.2490   69.3010  219.3510 C   0  0  0  0  0  0  0  0  0  0  0  0
  145.1010   67.9130  219.2780 C   0  0  0  0  0  0  0  0  0  0  0  0
  143.8380   67.3440  219.2600 C   0  0  0  0  0  0  0  0  0  0  0  0
  142.6870   68.1210  219.3120 C   0  0  0  0  0  0  0  0  0  0  0  0
  142.8450   69.4930  219.3830 C   0  0  0  0  0  0  0  0  0  0  0  0
  142.8670   72.1610  219.6670 C   0  0  0  0  0  0  0  0  0  0  0  0
  142.6910   72.3890  221.1620 C   0  0  0  0  0  0  0  0  0  0  0  0
  141.3040   72.9200  221.3390 C   0  0  0  0  0  0  0  0  0  0  0  0
  141.2330   74.2350  220.6630 N   0  0  0  0  0  0  0  0  0  0  0  0
  140.3730   75.1630  221.2930 C   0  0  0  0  0  0  0  0  0  0  0  0
  139.7850   74.7440  222.3500 O   0  0  0  0  0  0  0  0  0  0  0  0
  140.0790   76.5400  220.8810 C   0  0  1  0  0  0  0  0  0  0  0  0
  139.0820   77.1280  221.7080 N   0  0  0  0  0  0  0  0  0  0  0  0
  141.3470   77.3630  220.8070 C   0  0  1  0  0  0  0  0  0  0  0  0
  141.5070   77.9530  219.4610 C   0  0  0  0  0  0  0  0  0  0  0  0
  142.6910   77.7610  218.7670 C   0  0  0  0  0  0  0  0  0  0  0  0
  142.9200   78.2770  217.5160 C   0  0  0  0  0  0  0  0  0  0  0  0
  141.9310   79.0240  216.9080 C   0  0  0  0  0  0  0  0  0  0  0  0
  140.7340   79.2380  217.5720 C   0  0  0  0  0  0  0  0  0  0  0  0
  140.5420   78.7040  218.8280 C   0  0  0  0  0  0  0  0  0  0  0  0
  141.4570   78.3840  221.8750 C   0  0  0  0  0  0  0  0  0  0  0  0
  141.4420   78.0570  223.2190 C   0  0  0  0  0  0  0  0  0  0  0  0
  141.5430   79.0000  224.2230 C   0  0  0  0  0  0  0  0  0  0  0  0
  141.6640   80.3160  223.8320 C   0  0  0  0  0  0  0  0  0  0  0  0
  141.6870   80.7170  222.5130 C   0  0  0  0  0  0  0  0  0  0  0  0
  141.8110   82.0350  222.2220 F   0  0  0  0  0  0  0  0  0  0  0  0
  141.5820   79.7300  221.5540 C   0  0  0  0  0  0  0  0  0  0  0  0
  141.9770   74.5290  219.4740 C   0  0  0  0  0  0  0  0  0  0  0  0
  142.8270   73.4540  218.9200 C   0  0  0  0  0  0  0  0  0  0  0  0
  145.5380   74.3260  221.9180 H   0  0  0  0  0  0  0  0  0  0  0  0
  146.3321   74.8049  220.3796 H   0  0  0  0  0  0  0  0  0  0  0  0
  144.6115   74.2891  220.3796 H   0  0  0  0  0  0  0  0  0  0  0  0
  147.1194   72.6474  220.4944 H   0  0  0  0  0  0  0  0  0  0  0  0
  145.7419   72.0720  221.4746 H   0  0  0  0  0  0  0  0  0  0  0  0
  146.2448   69.7680  219.3671 H   0  0  0  0  0  0  0  0  0  0  0  0
  145.9919   67.2692  219.2346 H   0  0  0  0  0  0  0  0  0  0  0  0
  143.7438   66.2495  219.2031 H   0  0  0  0  0  0  0  0  0  0  0  0
  141.6875   67.6618  219.2972 H   0  0  0  0  0  0  0  0  0  0  0  0
  141.9560   70.1395  219.4249 H   0  0  0  0  0  0  0  0  0  0  0  0
  142.0472   71.5421  219.2734 H   0  0  0  0  0  0  0  0  0  0  0  0
  142.8103   71.4424  221.7094 H   0  0  0  0  0  0  0  0  0  0  0  0
  143.4431   73.0898  221.5534 H   0  0  0  0  0  0  0  0  0  0  0  0
  140.5779   72.2277  220.8879 H   0  0  0  0  0  0  0  0  0  0  0  0
  141.0661   73.0242  222.4079 H   0  0  0  0  0  0  0  0  0  0  0  0
  139.6576   76.5169  219.8652 H   0  0  0  0  0  0  0  0  0  0  0  0
  139.2510   78.1550  221.7790 H   0  0  0  0  0  0  0  0  0  0  0  0
  139.1940   76.7910  222.7110 H   0  0  0  0  0  0  0  0  0  0  0  0
  142.1818   76.6695  220.9863 H   0  0  0  0  0  0  0  0  0  0  0  0
  143.4855   77.1664  219.2416 H   0  0  0  0  0  0  0  0  0  0  0  0
  143.8776   78.0979  217.0053 H   0  0  0  0  0  0  0  0  0  0  0  0
  142.0920   79.4457  215.9049 H   0  0  0  0  0  0  0  0  0  0  0  0
  139.9390   79.8325  217.0981 H   0  0  0  0  0  0  0  0  0  0  0  0
  139.5861   78.8837  219.3418 H   0  0  0  0  0  0  0  0  0  0  0  0
  141.3453   76.9981  223.5008 H   0  0  0  0  0  0  0  0  0  0  0  0
  141.5276   78.7141  225.2851 H   0  0  0  0  0  0  0  0  0  0  0  0
  141.7465   81.0865  224.6128 H   0  0  0  0  0  0  0  0  0  0  0  0
  141.5979   80.0206  220.4932 H   0  0  0  0  0  0  0  0  0  0  0  0
  141.2546   74.8131  218.6946 H   0  0  0  0  0  0  0  0  0  0  0  0
  142.6817   75.3196  219.7715 H   0  0  0  0  0  0  0  0  0  0  0  0
  142.4663   73.2378  217.9036 H   0  0  0  0  0  0  0  0  0  0  0  0
  143.8531   73.8462  218.9776 H   0  0  0  0  0  0  0  0  0  0  0  0
  1  2  1  0
  2  3  1  0
  3  4  2  0
  3  5  1  0
  5  6  1  0
  6  7  2  0
  7  8  1  0
  8  9  2  0
  9 10  1  0
 10 11  2  0
  5 12  1  0
 12 13  1  0
 13 14  1  0
 14 15  1  0
 15 16  1  0
 16 17  2  0
 16 18  1  0
 18 19  1  0
 18 20  1  0
 20 21  1  0
 21 22  2  0
 22 23  1  0
 23 24  2  0
 24 25  1  0
 25 26  2  0
 20 27  1  0
 27 28  2  0
 28 29  1  0
 29 30  2  0
 30 31  1  0
 31 32  1  0
 31 33  2  0
 15 34  1  0
 34 35  1  0
 11  6  1  0
 35 12  1  0
 26 21  1  0
 33 27  1  0
  1 36  1  0
  1 37  1  0
  1 38  1  0
  2 39  1  0
  2 40  1  0
  7 41  1  0
  8 42  1  0
  9 43  1  0
 10 44  1  0
 11 45  1  0
 12 46  1  0
 13 47  1  0
 13 48  1  0
 14 49  1  0
 14 50  1  0
 18 51  1  6
 19 52  1  0
 19 53  1  0
 20 54  1  1
 22 55  1  0
 23 56  1  0
 24 57  1  0
 25 58  1  0
 26 59  1  0
 28 60  1  0
 29 61  1  0
 30 62  1  0
 33 63  1  0
 34 64  1  0
 34 65  1  0
 35 66  1  0
 35 67  1  0
M  END
>  <smiles>  (69) 
CCC(=O)N(c1ccccc1)C1CCN(C(=O)[C@@H](N)C(c2ccccc2)c2cccc(F)c2)CC1

>  <score_type>  (69) 
oracle

>  <origin>  (69) 
autodockgpu

>  <m_score__min__energy>  (69) 
-8.2300000000000004

>  <m_primary>  (69) 
energy

>  <rmsd>  (69) 
4.821635820125661

>  <m_score__min__rmsd>  (69) 
4.821635820125661

>  <meeko>  (69) 
{"free_energy": -7.69, "intermolecular_energy": -10.38, "internal_energy": -3.15, "cluster_size": 27, "cluster_id": 1, "rank_in_cluster": 14}

>  <energy>  (69) 
-7.57

>  <cluster_rmsd>  (69) 
1.25

>  <cluster>  (69) 
1

$$$$

     RDKit          3D

 67 70  0  0  0  0  0  0  0  0999 V2000
  145.2180   74.1170  216.2810 C   0  0  0  0  0  0  0  0  0  0  0  0
  145.5480   72.6540  216.4590 C   0  0  0  0  0  0  0  0  0  0  0  0
  145.4920   72.3440  217.9090 C   0  0  0  0  0  0  0  0  0  0  0  0
  146.2550   73.0060  218.6590 O   0  0  0  0  0  0  0  0  0  0  0  0
  144.6040   71.3380  218.3750 N   0  0  0  0  0  0  0  0  0  0  0  0
  144.9480   69.9460  218.2730 C   0  0  0  0  0  0  0  0  0  0  0  0
  144.6030   69.1800  217.1820 C   0  0  0  0  0  0  0  0  0  0  0  0
  144.9900   67.8370  217.1840 C   0  0  0  0  0  0  0  0  0  0  0  0
  145.6970   67.3150  218.2550 C   0  0  0  0  0  0  0  0  0  0  0  0
  146.0400   68.0960  219.3520 C   0  0  0  0  0  0  0  0  0  0  0  0
  145.6510   69.4230  219.3400 C   0  0  0  0  0  0  0  0  0  0  0  0
  143.3240   71.6420  218.9680 C   0  0  0  0  0  0  0  0  0  0  0  0
  143.5190   71.6650  220.4770 C   0  0  0  0  0  0  0  0  0  0  0  0
  142.1540   71.8120  221.0690 C   0  0  0  0  0  0  0  0  0  0  0  0
  141.6210   73.1310  220.6550 N   0  0  0  0  0  0  0  0  0  0  0  0
  140.7890   73.7460  221.6190 C   0  0  0  0  0  0  0  0  0  0  0  0
  140.6170   73.0880  222.7030 O   0  0  0  0  0  0  0  0  0  0  0  0
  140.1070   75.0400  221.5210 C   0  0  1  0  0  0  0  0  0  0  0  0
  139.0990   75.1730  222.5170 N   0  0  0  0  0  0  0  0  0  0  0  0
  141.1050   76.1780  221.5350 C   0  0  1  0  0  0  0  0  0  0  0  0
  141.5020   76.5390  220.1570 C   0  0  0  0  0  0  0  0  0  0  0  0
  142.8450   76.6840  219.8490 C   0  0  0  0  0  0  0  0  0  0  0  0
  143.2970   77.0190  218.5970 C   0  0  0  0  0  0  0  0  0  0  0  0
  142.3800   77.2240  217.5860 C   0  0  0  0  0  0  0  0  0  0  0  0
  141.0270   77.0880  217.8560 C   0  0  0  0  0  0  0  0  0  0  0  0
  140.6130   76.7510  219.1270 C   0  0  0  0  0  0  0  0  0  0  0  0
  140.6500   77.3590  222.3050 C   0  0  0  0  0  0  0  0  0  0  0  0
  141.4380   77.9670  223.2660 C   0  0  0  0  0  0  0  0  0  0  0  0
  141.0260   79.0670  223.9920 C   0  0  0  0  0  0  0  0  0  0  0  0
  139.7660   79.5560  223.7190 C   0  0  0  0  0  0  0  0  0  0  0  0
  138.9250   79.0040  222.7760 C   0  0  0  0  0  0  0  0  0  0  0  0
  137.7020   79.5540  222.5740 F   0  0  0  0  0  0  0  0  0  0  0  0
  139.3920   77.9060  222.0830 C   0  0  0  0  0  0  0  0  0  0  0  0
  141.9300   73.7200  219.3860 C   0  0  0  0  0  0  0  0  0  0  0  0
  142.8050   72.9530  218.4750 C   0  0  0  0  0  0  0  0  0  0  0  0
  145.1110   74.5914  217.2677 H   0  0  0  0  0  0  0  0  0  0  0  0
  146.0275   74.6102  215.7229 H   0  0  0  0  0  0  0  0  0  0  0  0
  144.2752   74.2149  215.7229 H   0  0  0  0  0  0  0  0  0  0  0  0
  144.8157   72.0376  215.9170 H   0  0  0  0  0  0  0  0  0  0  0  0
  146.5501   72.4373  216.0605 H   0  0  0  0  0  0  0  0  0  0  0  0
  144.0426   69.6099  216.3387 H   0  0  0  0  0  0  0  0  0  0  0  0
  144.7321   67.1916  216.3314 H   0  0  0  0  0  0  0  0  0  0  0  0
  145.9942   66.2561  218.2365 H   0  0  0  0  0  0  0  0  0  0  0  0
  146.6006   67.6740  220.1992 H   0  0  0  0  0  0  0  0  0  0  0  0
  145.9051   70.0706  220.1921 H   0  0  0  0  0  0  0  0  0  0  0  0
  142.5798   70.8817  218.6886 H   0  0  0  0  0  0  0  0  0  0  0  0
  143.9834   70.7273  220.8163 H   0  0  0  0  0  0  0  0  0  0  0  0
  144.1811   72.4879  220.7843 H   0  0  0  0  0  0  0  0  0  0  0  0
  141.4975   71.0104  220.6997 H   0  0  0  0  0  0  0  0  0  0  0  0
  142.2012   71.7435  222.1658 H   0  0  0  0  0  0  0  0  0  0  0  0
  139.5874   75.0867  220.5526 H   0  0  0  0  0  0  0  0  0  0  0  0
  139.5390   75.4450  223.4220 H   0  0  0  0  0  0  0  0  0  0  0  0
  138.6680   74.2230  222.7280 H   0  0  0  0  0  0  0  0  0  0  0  0
  141.9924   75.8099  222.0707 H   0  0  0  0  0  0  0  0  0  0  0  0
  143.5851   76.5228  220.6467 H   0  0  0  0  0  0  0  0  0  0  0  0
  144.3746   77.1226  218.4022 H   0  0  0  0  0  0  0  0  0  0  0  0
  142.7197   77.4929  216.5749 H   0  0  0  0  0  0  0  0  0  0  0  0
  140.2863   77.2485  217.0587 H   0  0  0  0  0  0  0  0  0  0  0  0
  139.5359   76.6479  219.3251 H   0  0  0  0  0  0  0  0  0  0  0  0
  142.4392   77.5550  223.4608 H   0  0  0  0  0  0  0  0  0  0  0  0
  141.6721   79.5310  224.7518 H   0  0  0  0  0  0  0  0  0  0  0  0
  139.4134   80.4322  224.2829 H   0  0  0  0  0  0  0  0  0  0  0  0
  138.7424   77.4452  221.3243 H   0  0  0  0  0  0  0  0  0  0  0  0
  140.9784   73.8925  218.8619 H   0  0  0  0  0  0  0  0  0  0  0  0
  142.5031   74.6269  219.6290 H   0  0  0  0  0  0  0  0  0  0  0  0
  142.2345   72.7579  217.5549 H   0  0  0  0  0  0  0  0  0  0  0  0
  143.6990   73.5808  218.3461 H   0  0  0  0  0  0  0  0  0  0  0  0
  1  2  1  0
  2  3  1  0
  3  4  2  0
  3  5  1  0
  5  6  1  0
  6  7  2  0
  7  8  1  0
  8  9  2  0
  9 10  1  0
 10 11  2  0
  5 12  1  0
 12 13  1  0
 13 14  1  0
 14 15  1  0
 15 16  1  0
 16 17  2  0
 16 18  1  0
 18 19  1  0
 18 20  1  0
 20 21  1  0
 21 22  2  0
 22 23  1  0
 23 24  2  0
 24 25  1  0
 25 26  2  0
 20 27  1  0
 27 28  2  0
 28 29  1  0
 29 30  2  0
 30 31  1  0
 31 32  1  0
 31 33  2  0
 15 34  1  0
 34 35  1  0
 11  6  1  0
 35 12  1  0
 26 21  1  0
 33 27  1  0
  1 36  1  0
  1 37  1  0
  1 38  1  0
  2 39  1  0
  2 40  1  0
  7 41  1  0
  8 42  1  0
  9 43  1  0
 10 44  1  0
 11 45  1  0
 12 46  1  0
 13 47  1  0
 13 48  1  0
 14 49  1  0
 14 50  1  0
 18 51  1  6
 19 52  1  0
 19 53  1  0
 20 54  1  1
 22 55  1  0
 23 56  1  0
 24 57  1  0
 25 58  1  0
 26 59  1  0
 28 60  1  0
 29 61  1  0
 30 62  1  0
 33 63  1  0
 34 64  1  0
 34 65  1  0
 35 66  1  0
 35 67  1  0
M  END
>  <smiles>  (70) 
CCC(=O)N(c1ccccc1)C1CCN(C(=O)[C@@H](N)C(c2ccccc2)c2cccc(F)c2)CC1

>  <score_type>  (70) 
oracle

>  <origin>  (70) 
autodockgpu

>  <m_score__min__energy>  (70) 
-8.2300000000000004

>  <m_primary>  (70) 
energy

>  <rmsd>  (70) 
5.53633938402907

>  <m_score__min__rmsd>  (70) 
5.53633938402907

>  <meeko>  (70) 
{"free_energy": -7.52, "intermolecular_energy": -10.2, "internal_energy": -3.18, "cluster_size": 27, "cluster_id": 1, "rank_in_cluster": 21}

>  <energy>  (70) 
-7.56

>  <cluster_rmsd>  (70) 
0.74

>  <cluster>  (70) 
1

$$$$

     RDKit          3D

 67 70  0  0  0  0  0  0  0  0999 V2000
  145.7720   74.0080  220.8910 C   0  0  0  0  0  0  0  0  0  0  0  0
  146.2600   72.6600  220.4150 C   0  0  0  0  0  0  0  0  0  0  0  0
  145.4740   72.2850  219.2140 C   0  0  0  0  0  0  0  0  0  0  0  0
  145.9470   72.6250  218.0980 O   0  0  0  0  0  0  0  0  0  0  0  0
  144.2530   71.5770  219.3710 N   0  0  0  0  0  0  0  0  0  0  0  0
  144.2260   70.1390  219.3490 C   0  0  0  0  0  0  0  0  0  0  0  0
  143.0480   69.4250  219.3370 C   0  0  0  0  0  0  0  0  0  0  0  0
  143.1360   68.0300  219.3130 C   0  0  0  0  0  0  0  0  0  0  0  0
  144.3730   67.4080  219.3010 C   0  0  0  0  0  0  0  0  0  0  0  0
  145.5570   68.1370  219.3130 C   0  0  0  0  0  0  0  0  0  0  0  0
  145.4580   69.5160  219.3380 C   0  0  0  0  0  0  0  0  0  0  0  0
  142.9850   72.2400  219.5580 C   0  0  0  0  0  0  0  0  0  0  0  0
  142.7020   72.2610  221.0530 C   0  0  0  0  0  0  0  0  0  0  0  0
  141.3140   72.7980  221.2040 C   0  0  0  0  0  0  0  0  0  0  0  0
  141.3140   74.1960  220.7180 N   0  0  0  0  0  0  0  0  0  0  0  0
  140.4250   75.0490  221.4110 C   0  0  0  0  0  0  0  0  0  0  0  0
  139.7540   74.5020  222.3540 O   0  0  0  0  0  0  0  0  0  0  0  0
  140.1840   76.4760  221.1780 C   0  0  1  0  0  0  0  0  0  0  0  0
  139.1190   76.6800  220.2560 N   0  0  0  0  0  0  0  0  0  0  0  0
  139.9810   77.2100  222.4860 C   0  0  1  0  0  0  0  0  0  0  0  0
  140.9330   78.3350  222.6060 C   0  0  0  0  0  0  0  0  0  0  0  0
  141.3220   79.0260  221.4700 C   0  0  0  0  0  0  0  0  0  0  0  0
  142.2010   80.0790  221.4950 C   0  0  0  0  0  0  0  0  0  0  0  0
  142.7320   80.4800  222.7040 C   0  0  0  0  0  0  0  0  0  0  0  0
  142.3670   79.8130  223.8630 C   0  0  0  0  0  0  0  0  0  0  0  0
  141.4810   78.7590  223.7960 C   0  0  0  0  0  0  0  0  0  0  0  0
  138.5830   77.6440  222.7150 C   0  0  0  0  0  0  0  0  0  0  0  0
  137.5300   76.7490  222.7810 C   0  0  0  0  0  0  0  0  0  0  0  0
  136.2230   77.1410  222.9930 C   0  0  0  0  0  0  0  0  0  0  0  0
  135.9940   78.4920  223.1430 C   0  0  0  0  0  0  0  0  0  0  0  0
  136.9930   79.4420  223.0890 C   0  0  0  0  0  0  0  0  0  0  0  0
  136.6740   80.7500  223.2480 F   0  0  0  0  0  0  0  0  0  0  0  0
  138.2780   78.9900  222.8740 C   0  0  0  0  0  0  0  0  0  0  0  0
  142.1490   74.6340  219.6380 C   0  0  0  0  0  0  0  0  0  0  0  0
  143.0200   73.6260  219.0000 C   0  0  0  0  0  0  0  0  0  0  0  0
  145.7648   74.0279  221.9908 H   0  0  0  0  0  0  0  0  0  0  0  0
  146.4424   74.7946  220.5144 H   0  0  0  0  0  0  0  0  0  0  0  0
  144.7534   74.1831  220.5144 H   0  0  0  0  0  0  0  0  0  0  0  0
  147.3280   72.7191  220.1585 H   0  0  0  0  0  0  0  0  0  0  0  0
  146.1316   71.9064  221.2059 H   0  0  0  0  0  0  0  0  0  0  0  0
  142.0730   69.9343  219.3460 H   0  0  0  0  0  0  0  0  0  0  0  0
  142.2183   67.4237  219.3036 H   0  0  0  0  0  0  0  0  0  0  0  0
  144.4203   66.3092  219.2815 H   0  0  0  0  0  0  0  0  0  0  0  0
  146.5359   67.6354  219.3030 H   0  0  0  0  0  0  0  0  0  0  0  0
  146.3738   70.1252  219.3493 H   0  0  0  0  0  0  0  0  0  0  0  0
  142.1872   71.7033  219.0238 H   0  0  0  0  0  0  0  0  0  0  0  0
  142.7654   71.2443  221.4680 H   0  0  0  0  0  0  0  0  0  0  0  0
  143.4338   72.8804  221.5923 H   0  0  0  0  0  0  0  0  0  0  0  0
  140.6127   72.1949  220.6086 H   0  0  0  0  0  0  0  0  0  0  0  0
  140.9990   72.7575  222.2571 H   0  0  0  0  0  0  0  0  0  0  0  0
  141.0808   76.9072  220.7091 H   0  0  0  0  0  0  0  0  0  0  0  0
  138.4910   75.8480  220.2620 H   0  0  0  0  0  0  0  0  0  0  0  0
  139.4970   76.6960  219.2600 H   0  0  0  0  0  0  0  0  0  0  0  0
  140.1919   76.4856  223.2864 H   0  0  0  0  0  0  0  0  0  0  0  0
  140.9057   78.7151  220.5005 H   0  0  0  0  0  0  0  0  0  0  0  0
  142.4786   80.5962  220.5647 H   0  0  0  0  0  0  0  0  0  0  0  0
  143.4388   81.3217  222.7476 H   0  0  0  0  0  0  0  0  0  0  0  0
  142.7829   80.1236  224.8328 H   0  0  0  0  0  0  0  0  0  0  0  0
  141.2024   78.2391  224.7245 H   0  0  0  0  0  0  0  0  0  0  0  0
  137.7436   75.6768  222.6591 H   0  0  0  0  0  0  0  0  0  0  0  0
  135.4029   76.4094  223.0400 H   0  0  0  0  0  0  0  0  0  0  0  0
  134.9614   78.8301  223.3146 H   0  0  0  0  0  0  0  0  0  0  0  0
  139.0948   79.7252  222.8264 H   0  0  0  0  0  0  0  0  0  0  0  0
  141.4910   75.0430  218.8572 H   0  0  0  0  0  0  0  0  0  0  0  0
  142.8421   75.3566  220.0936 H   0  0  0  0  0  0  0  0  0  0  0  0
  142.7319   73.5632  217.9403 H   0  0  0  0  0  0  0  0  0  0  0  0
  144.0450   73.9798  219.1852 H   0  0  0  0  0  0  0  0  0  0  0  0
  1  2  1  0
  2  3  1  0
  3  4  2  0
  3  5  1  0
  5  6  1  0
  6  7  2  0
  7  8  1  0
  8  9  2  0
  9 10  1  0
 10 11  2  0
  5 12  1  0
 12 13  1  0
 13 14  1  0
 14 15  1  0
 15 16  1  0
 16 17  2  0
 16 18  1  0
 18 19  1  0
 18 20  1  0
 20 21  1  0
 21 22  2  0
 22 23  1  0
 23 24  2  0
 24 25  1  0
 25 26  2  0
 20 27  1  0
 27 28  2  0
 28 29  1  0
 29 30  2  0
 30 31  1  0
 31 32  1  0
 31 33  2  0
 15 34  1  0
 34 35  1  0
 11  6  1  0
 35 12  1  0
 26 21  1  0
 33 27  1  0
  1 36  1  0
  1 37  1  0
  1 38  1  0
  2 39  1  0
  2 40  1  0
  7 41  1  0
  8 42  1  0
  9 43  1  0
 10 44  1  0
 11 45  1  0
 12 46  1  0
 13 47  1  0
 13 48  1  0
 14 49  1  0
 14 50  1  0
 18 51  1  6
 19 52  1  0
 19 53  1  0
 20 54  1  1
 22 55  1  0
 23 56  1  0
 24 57  1  0
 25 58  1  0
 26 59  1  0
 28 60  1  0
 29 61  1  0
 30 62  1  0
 33 63  1  0
 34 64  1  0
 34 65  1  0
 35 66  1  0
 35 67  1  0
M  END
>  <smiles>  (71) 
CCC(=O)N(c1ccccc1)C1CCN(C(=O)[C@@H](N)C(c2ccccc2)c2cccc(F)c2)CC1

>  <score_type>  (71) 
oracle

>  <origin>  (71) 
autodockgpu

>  <m_score__min__energy>  (71) 
-8.2300000000000004

>  <m_primary>  (71) 
energy

>  <rmsd>  (71) 
4.29841672021217

>  <m_score__min__rmsd>  (71) 
4.29841672021217

>  <meeko>  (71) 
{"free_energy": -8.13, "intermolecular_energy": -10.82, "internal_energy": -2.46, "cluster_size": 27, "cluster_id": 1, "rank_in_cluster": 2}

>  <energy>  (71) 
-7.52

>  <cluster_rmsd>  (71) 
1.08

>  <cluster>  (71) 
1

$$$$

     RDKit          3D

 67 70  0  0  0  0  0  0  0  0999 V2000
  143.3960   76.9230  215.8420 C   0  0  0  0  0  0  0  0  0  0  0  0
  143.7440   75.9970  216.9830 C   0  0  0  0  0  0  0  0  0  0  0  0
  143.2310   76.6010  218.2370 C   0  0  0  0  0  0  0  0  0  0  0  0
  143.3270   77.8510  218.3450 O   0  0  0  0  0  0  0  0  0  0  0  0
  142.6680   75.7640  219.2370 N   0  0  0  0  0  0  0  0  0  0  0  0
  143.4210   74.6730  219.7940 C   0  0  0  0  0  0  0  0  0  0  0  0
  144.6120   74.8640  220.4600 C   0  0  0  0  0  0  0  0  0  0  0  0
  145.2600   73.7340  220.9650 C   0  0  0  0  0  0  0  0  0  0  0  0
  144.7070   72.4750  220.7940 C   0  0  0  0  0  0  0  0  0  0  0  0
  143.5050   72.2920  220.1210 C   0  0  0  0  0  0  0  0  0  0  0  0
  142.8730   73.4170  219.6240 C   0  0  0  0  0  0  0  0  0  0  0  0
  141.3300   75.9480  219.7480 C   0  0  0  0  0  0  0  0  0  0  0  0
  141.3550   75.5740  221.2220 C   0  0  0  0  0  0  0  0  0  0  0  0
  139.9320   75.6110  221.6820 C   0  0  0  0  0  0  0  0  0  0  0  0
  139.4570   77.0090  221.5720 N   0  0  0  0  0  0  0  0  0  0  0  0
  138.5250   77.3830  222.5670 C   0  0  0  0  0  0  0  0  0  0  0  0
  138.2280   76.4740  223.4180 O   0  0  0  0  0  0  0  0  0  0  0  0
  137.8660   78.6810  222.7380 C   0  0  1  0  0  0  0  0  0  0  0  0
  136.4800   78.5270  223.0190 N   0  0  0  0  0  0  0  0  0  0  0  0
  138.5880   79.5220  223.7680 C   0  0  1  0  0  0  0  0  0  0  0  0
  139.9830   79.7760  223.3490 C   0  0  0  0  0  0  0  0  0  0  0  0
  140.2450   80.7480  222.3980 C   0  0  0  0  0  0  0  0  0  0  0  0
  141.5090   81.0430  221.9540 C   0  0  0  0  0  0  0  0  0  0  0  0
  142.5820   80.3460  222.4720 C   0  0  0  0  0  0  0  0  0  0  0  0
  142.3590   79.3650  223.4260 C   0  0  0  0  0  0  0  0  0  0  0  0
  141.0740   79.0980  223.8460 C   0  0  0  0  0  0  0  0  0  0  0  0
  137.8800   80.7760  224.1170 C   0  0  0  0  0  0  0  0  0  0  0  0
  137.3930   81.6440  223.1570 C   0  0  0  0  0  0  0  0  0  0  0  0
  136.7320   82.8160  223.4680 C   0  0  0  0  0  0  0  0  0  0  0  0
  136.5670   83.1010  224.8070 C   0  0  0  0  0  0  0  0  0  0  0  0
  137.0240   82.2830  225.8190 C   0  0  0  0  0  0  0  0  0  0  0  0
  136.8150   82.6440  227.1090 F   0  0  0  0  0  0  0  0  0  0  0  0
  137.6780   81.1270  225.4460 C   0  0  0  0  0  0  0  0  0  0  0  0
  139.9110   77.8950  220.5410 C   0  0  0  0  0  0  0  0  0  0  0  0
  140.8790   77.3600  219.5610 C   0  0  0  0  0  0  0  0  0  0  0  0
  143.0358   77.8813  216.2443 H   0  0  0  0  0  0  0  0  0  0  0  0
  144.2901   77.0970  215.2253 H   0  0  0  0  0  0  0  0  0  0  0  0
  142.6086   76.4651  215.2253 H   0  0  0  0  0  0  0  0  0  0  0  0
  143.2753   75.0148  216.8228 H   0  0  0  0  0  0  0  0  0  0  0  0
  144.8336   75.8584  217.0437 H   0  0  0  0  0  0  0  0  0  0  0  0
  145.0374   75.8701  220.5895 H   0  0  0  0  0  0  0  0  0  0  0  0
  146.2141   73.8443  221.5011 H   0  0  0  0  0  0  0  0  0  0  0  0
  145.2325   71.5986  221.2011 H   0  0  0  0  0  0  0  0  0  0  0  0
  143.0724   71.2894  219.9886 H   0  0  0  0  0  0  0  0  0  0  0  0
  141.9199   73.3098  219.0854 H   0  0  0  0  0  0  0  0  0  0  0  0
  140.6169   75.3121  219.2029 H   0  0  0  0  0  0  0  0  0  0  0  0
  141.7727   74.5649  221.3531 H   0  0  0  0  0  0  0  0  0  0  0  0
  141.9836   76.2656  221.8021 H   0  0  0  0  0  0  0  0  0  0  0  0
  139.3166   74.9557  221.0480 H   0  0  0  0  0  0  0  0  0  0  0  0
  139.8550   75.2597  222.7216 H   0  0  0  0  0  0  0  0  0  0  0  0
  137.9254   79.2286  221.7859 H   0  0  0  0  0  0  0  0  0  0  0  0
  136.2340   79.0810  223.8680 H   0  0  0  0  0  0  0  0  0  0  0  0
  136.2760   77.5240  223.3120 H   0  0  0  0  0  0  0  0  0  0  0  0
  138.6026   78.9327  224.6967 H   0  0  0  0  0  0  0  0  0  0  0  0
  139.3983   81.3109  221.9782 H   0  0  0  0  0  0  0  0  0  0  0  0
  141.6654   81.8243  221.1956 H   0  0  0  0  0  0  0  0  0  0  0  0
  143.6043   80.5668  222.1311 H   0  0  0  0  0  0  0  0  0  0  0  0
  143.2051   78.8016  223.8463 H   0  0  0  0  0  0  0  0  0  0  0  0
  140.9142   78.3169  224.6039 H   0  0  0  0  0  0  0  0  0  0  0  0
  137.5388   81.3892  222.0969 H   0  0  0  0  0  0  0  0  0  0  0  0
  136.3550   83.4901  222.6848 H   0  0  0  0  0  0  0  0  0  0  0  0
  136.0439   84.0287  225.0822 H   0  0  0  0  0  0  0  0  0  0  0  0
  138.0546   80.4563  226.2323 H   0  0  0  0  0  0  0  0  0  0  0  0
  139.0257   78.2302  219.9808 H   0  0  0  0  0  0  0  0  0  0  0  0
  140.4583   78.6874  221.0725 H   0  0  0  0  0  0  0  0  0  0  0  0
  140.4156   77.4304  218.5659 H   0  0  0  0  0  0  0  0  0  0  0  0
  141.7857   77.9677  219.6972 H   0  0  0  0  0  0  0  0  0  0  0  0
  1  2  1  0
  2  3  1  0
  3  4  2  0
  3  5  1  0
  5  6  1  0
  6  7  2  0
  7  8  1  0
  8  9  2  0
  9 10  1  0
 10 11  2  0
  5 12  1  0
 12 13  1  0
 13 14  1  0
 14 15  1  0
 15 16  1  0
 16 17  2  0
 16 18  1  0
 18 19  1  0
 18 20  1  0
 20 21  1  0
 21 22  2  0
 22 23  1  0
 23 24  2  0
 24 25  1  0
 25 26  2  0
 20 27  1  0
 27 28  2  0
 28 29  1  0
 29 30  2  0
 30 31  1  0
 31 32  1  0
 31 33  2  0
 15 34  1  0
 34 35  1  0
 11  6  1  0
 35 12  1  0
 26 21  1  0
 33 27  1  0
  1 36  1  0
  1 37  1  0
  1 38  1  0
  2 39  1  0
  2 40  1  0
  7 41  1  0
  8 42  1  0
  9 43  1  0
 10 44  1  0
 11 45  1  0
 12 46  1  0
 13 47  1  0
 13 48  1  0
 14 49  1  0
 14 50  1  0
 18 51  1  6
 19 52  1  0
 19 53  1  0
 20 54  1  1
 22 55  1  0
 23 56  1  0
 24 57  1  0
 25 58  1  0
 26 59  1  0
 28 60  1  0
 29 61  1  0
 30 62  1  0
 33 63  1  0
 34 64  1  0
 34 65  1  0
 35 66  1  0
 35 67  1  0
M  END
>  <smiles>  (72) 
CCC(=O)N(c1ccccc1)C1CCN(C(=O)[C@@H](N)C(c2ccccc2)c2cccc(F)c2)CC1

>  <score_type>  (72) 
oracle

>  <origin>  (72) 
autodockgpu

>  <m_score__min__energy>  (72) 
-8.2300000000000004

>  <m_primary>  (72) 
energy

>  <rmsd>  (72) 
2.949687600433912

>  <m_score__min__rmsd>  (72) 
2.949687600433912

>  <meeko>  (72) 
{"free_energy": -6.91, "intermolecular_energy": -9.59, "internal_energy": -3.32, "cluster_size": 7, "cluster_id": 7, "rank_in_cluster": 6}

>  <energy>  (72) 
-7.49

>  <cluster_rmsd>  (72) 
1.27

>  <cluster>  (72) 
1

$$$$

     RDKit          3D

 67 70  0  0  0  0  0  0  0  0999 V2000
  146.1780   70.8070  216.1020 C   0  0  0  0  0  0  0  0  0  0  0  0
  145.1830   71.8580  216.5320 C   0  0  0  0  0  0  0  0  0  0  0  0
  145.1400   71.8710  218.0150 C   0  0  0  0  0  0  0  0  0  0  0  0
  145.9340   72.6530  218.5980 O   0  0  0  0  0  0  0  0  0  0  0  0
  144.2280   71.0200  218.6950 N   0  0  0  0  0  0  0  0  0  0  0  0
  144.5370   69.6330  218.9140 C   0  0  0  0  0  0  0  0  0  0  0  0
  143.5710   68.6510  218.8930 C   0  0  0  0  0  0  0  0  0  0  0  0
  143.9810   67.3340  219.1150 C   0  0  0  0  0  0  0  0  0  0  0  0
  145.3160   67.0470  219.3460 C   0  0  0  0  0  0  0  0  0  0  0  0
  146.2840   68.0440  219.3670 C   0  0  0  0  0  0  0  0  0  0  0  0
  145.8670   69.3450  219.1470 C   0  0  0  0  0  0  0  0  0  0  0  0
  142.9570   71.4830  219.1990 C   0  0  0  0  0  0  0  0  0  0  0  0
  143.0720   71.5560  220.7150 C   0  0  0  0  0  0  0  0  0  0  0  0
  141.7000   71.8720  221.2190 C   0  0  0  0  0  0  0  0  0  0  0  0
  141.3340   73.2170  220.7220 N   0  0  0  0  0  0  0  0  0  0  0  0
  140.5210   73.9600  221.6090 C   0  0  0  0  0  0  0  0  0  0  0  0
  140.2220   73.3750  222.7070 O   0  0  0  0  0  0  0  0  0  0  0  0
  139.9860   75.3120  221.4190 C   0  0  1  0  0  0  0  0  0  0  0  0
  138.9510   75.5980  222.3530 N   0  0  0  0  0  0  0  0  0  0  0  0
  141.0980   76.3390  221.4360 C   0  0  1  0  0  0  0  0  0  0  0  0
  141.5020   76.6930  220.0590 C   0  0  0  0  0  0  0  0  0  0  0  0
  142.8480   76.7570  219.7360 C   0  0  0  0  0  0  0  0  0  0  0  0
  143.3050   77.0810  218.4830 C   0  0  0  0  0  0  0  0  0  0  0  0
  142.3910   77.3560  217.4860 C   0  0  0  0  0  0  0  0  0  0  0  0
  141.0360   77.3020  217.7710 C   0  0  0  0  0  0  0  0  0  0  0  0
  140.6160   76.9750  219.0430 C   0  0  0  0  0  0  0  0  0  0  0  0
  140.7870   77.5400  222.2460 C   0  0  0  0  0  0  0  0  0  0  0  0
  141.5560   77.9240  223.3300 C   0  0  0  0  0  0  0  0  0  0  0  0
  141.2760   79.0400  224.0930 C   0  0  0  0  0  0  0  0  0  0  0  0
  140.1720   79.7820  223.7290 C   0  0  0  0  0  0  0  0  0  0  0  0
  139.3600   79.4620  222.6620 C   0  0  0  0  0  0  0  0  0  0  0  0
  138.2950   80.2510  222.3780 F   0  0  0  0  0  0  0  0  0  0  0  0
  139.6900   78.3350  221.9380 C   0  0  0  0  0  0  0  0  0  0  0  0
  141.7710   73.7120  219.4500 C   0  0  0  0  0  0  0  0  0  0  0  0
  142.6080   72.8160  218.6240 C   0  0  0  0  0  0  0  0  0  0  0  0
  146.6227   70.3373  216.9917 H   0  0  0  0  0  0  0  0  0  0  0  0
  145.6659   70.0415  215.5005 H   0  0  0  0  0  0  0  0  0  0  0  0
  146.9703   71.2765  215.5005 H   0  0  0  0  0  0  0  0  0  0  0  0
  145.4973   72.8440  216.1592 H   0  0  0  0  0  0  0  0  0  0  0  0
  144.1873   71.6307  216.1234 H   0  0  0  0  0  0  0  0  0  0  0  0
  142.5145   68.8952  218.7080 H   0  0  0  0  0  0  0  0  0  0  0  0
  143.2399   66.5212  219.1063 H   0  0  0  0  0  0  0  0  0  0  0  0
  145.6179   66.0032  219.5172 H   0  0  0  0  0  0  0  0  0  0  0  0
  147.3423   67.8077  219.5517 H   0  0  0  0  0  0  0  0  0  0  0  0
  146.6050   70.1606  219.1579 H   0  0  0  0  0  0  0  0  0  0  0  0
  142.1522   70.7922  218.9074 H   0  0  0  0  0  0  0  0  0  0  0  0
  143.4147   70.5919  221.1189 H   0  0  0  0  0  0  0  0  0  0  0  0
  143.8008   72.3186  221.0270 H   0  0  0  0  0  0  0  0  0  0  0  0
  140.9829   71.1267  220.8443 H   0  0  0  0  0  0  0  0  0  0  0  0
  141.6802   71.8502  222.3186 H   0  0  0  0  0  0  0  0  0  0  0  0
  139.5211   75.3652  220.4235 H   0  0  0  0  0  0  0  0  0  0  0  0
  139.2060   75.2050  223.2840 H   0  0  0  0  0  0  0  0  0  0  0  0
  138.0680   75.0620  222.0930 H   0  0  0  0  0  0  0  0  0  0  0  0
  141.9530   75.8655  221.9407 H   0  0  0  0  0  0  0  0  0  0  0  0
  143.5859   76.5375  220.5217 H   0  0  0  0  0  0  0  0  0  0  0  0
  144.3847   77.1209  218.2763 H   0  0  0  0  0  0  0  0  0  0  0  0
  142.7352   77.6158  216.4740 H   0  0  0  0  0  0  0  0  0  0  0  0
  140.2978   77.5193  216.9850 H   0  0  0  0  0  0  0  0  0  0  0  0
  139.5369   76.9381  219.2533 H   0  0  0  0  0  0  0  0  0  0  0  0
  142.4305   77.3122  223.5962 H   0  0  0  0  0  0  0  0  0  0  0  0
  141.9037   79.3239  224.9506 H   0  0  0  0  0  0  0  0  0  0  0  0
  139.9265   80.6760  224.3211 H   0  0  0  0  0  0  0  0  0  0  0  0
  139.0588   78.0544  221.0819 H   0  0  0  0  0  0  0  0  0  0  0  0
  140.8725   73.9572  218.8647 H   0  0  0  0  0  0  0  0  0  0  0  0
  142.4222   74.5659  219.6883 H   0  0  0  0  0  0  0  0  0  0  0  0
  142.0709   72.6387  217.6805 H   0  0  0  0  0  0  0  0  0  0  0  0
  143.5695   73.3408  218.5231 H   0  0  0  0  0  0  0  0  0  0  0  0
  1  2  1  0
  2  3  1  0
  3  4  2  0
  3  5  1  0
  5  6  1  0
  6  7  2  0
  7  8  1  0
  8  9  2  0
  9 10  1  0
 10 11  2  0
  5 12  1  0
 12 13  1  0
 13 14  1  0
 14 15  1  0
 15 16  1  0
 16 17  2  0
 16 18  1  0
 18 19  1  0
 18 20  1  0
 20 21  1  0
 21 22  2  0
 22 23  1  0
 23 24  2  0
 24 25  1  0
 25 26  2  0
 20 27  1  0
 27 28  2  0
 28 29  1  0
 29 30  2  0
 30 31  1  0
 31 32  1  0
 31 33  2  0
 15 34  1  0
 34 35  1  0
 11  6  1  0
 35 12  1  0
 26 21  1  0
 33 27  1  0
  1 36  1  0
  1 37  1  0
  1 38  1  0
  2 39  1  0
  2 40  1  0
  7 41  1  0
  8 42  1  0
  9 43  1  0
 10 44  1  0
 11 45  1  0
 12 46  1  0
 13 47  1  0
 13 48  1  0
 14 49  1  0
 14 50  1  0
 18 51  1  6
 19 52  1  0
 19 53  1  0
 20 54  1  1
 22 55  1  0
 23 56  1  0
 24 57  1  0
 25 58  1  0
 26 59  1  0
 28 60  1  0
 29 61  1  0
 30 62  1  0
 33 63  1  0
 34 64  1  0
 34 65  1  0
 35 66  1  0
 35 67  1  0
M  END
>  <smiles>  (73) 
CCC(=O)N(c1ccccc1)C1CCN(C(=O)[C@@H](N)C(c2ccccc2)c2cccc(F)c2)CC1

>  <score_type>  (73) 
oracle

>  <origin>  (73) 
autodockgpu

>  <m_score__min__energy>  (73) 
-8.2300000000000004

>  <m_primary>  (73) 
energy

>  <rmsd>  (73) 
5.472232614441541

>  <m_score__min__rmsd>  (73) 
5.472232614441541

>  <meeko>  (73) 
{"free_energy": -7.41, "intermolecular_energy": -10.09, "internal_energy": -3.27, "cluster_size": 27, "cluster_id": 1, "rank_in_cluster": 24}

>  <energy>  (73) 
-7.49

>  <cluster_rmsd>  (73) 
0.88

>  <cluster>  (73) 
1

$$$$

     RDKit          3D

 67 70  0  0  0  0  0  0  0  0999 V2000
  145.5460   73.9920  220.7740 C   0  0  0  0  0  0  0  0  0  0  0  0
  146.1640   72.6560  220.4370 C   0  0  0  0  0  0  0  0  0  0  0  0
  145.4870   72.1270  219.2280 C   0  0  0  0  0  0  0  0  0  0  0  0
  145.9480   72.4920  218.1160 O   0  0  0  0  0  0  0  0  0  0  0  0
  144.3760   71.2550  219.3750 N   0  0  0  0  0  0  0  0  0  0  0  0
  144.5310   69.8320  219.2300 C   0  0  0  0  0  0  0  0  0  0  0  0
  143.4630   68.9970  218.9840 C   0  0  0  0  0  0  0  0  0  0  0  0
  143.7260   67.6300  218.8580 C   0  0  0  0  0  0  0  0  0  0  0  0
  145.0210   67.1530  218.9770 C   0  0  0  0  0  0  0  0  0  0  0  0
  146.0920   68.0040  219.2260 C   0  0  0  0  0  0  0  0  0  0  0  0
  145.8200   69.3540  219.3500 C   0  0  0  0  0  0  0  0  0  0  0  0
  143.0450   71.7290  219.6710 C   0  0  0  0  0  0  0  0  0  0  0  0
  142.9150   71.7910  221.1860 C   0  0  0  0  0  0  0  0  0  0  0  0
  141.4830   72.1200  221.4660 C   0  0  0  0  0  0  0  0  0  0  0  0
  141.2170   73.4730  220.9280 N   0  0  0  0  0  0  0  0  0  0  0  0
  140.2800   74.2190  221.6790 C   0  0  0  0  0  0  0  0  0  0  0  0
  139.8010   73.6310  222.7090 O   0  0  0  0  0  0  0  0  0  0  0  0
  139.7980   75.5790  221.4160 C   0  0  1  0  0  0  0  0  0  0  0  0
  138.7770   75.9550  222.3350 N   0  0  0  0  0  0  0  0  0  0  0  0
  140.9490   76.5610  221.3770 C   0  0  1  0  0  0  0  0  0  0  0  0
  141.2670   76.9360  219.9830 C   0  0  0  0  0  0  0  0  0  0  0  0
  142.5870   77.1420  219.6150 C   0  0  0  0  0  0  0  0  0  0  0  0
  142.9660   77.4930  218.3440 C   0  0  0  0  0  0  0  0  0  0  0  0
  141.9960   77.6510  217.3740 C   0  0  0  0  0  0  0  0  0  0  0  0
  140.6640   77.4530  217.7050 C   0  0  0  0  0  0  0  0  0  0  0  0
  140.3240   77.1020  218.9940 C   0  0  0  0  0  0  0  0  0  0  0  0
  140.7450   77.7520  222.2360 C   0  0  0  0  0  0  0  0  0  0  0  0
  141.4800   77.9720  223.3860 C   0  0  0  0  0  0  0  0  0  0  0  0
  141.3000   79.0770  224.1950 C   0  0  0  0  0  0  0  0  0  0  0  0
  140.3340   79.9810  223.8060 C   0  0  0  0  0  0  0  0  0  0  0  0
  139.5630   79.8290  222.6730 C   0  0  0  0  0  0  0  0  0  0  0  0
  138.6370   80.7710  222.3690 F   0  0  0  0  0  0  0  0  0  0  0  0
  139.7890   78.7050  221.9060 C   0  0  0  0  0  0  0  0  0  0  0  0
  141.8590   73.9710  219.7470 C   0  0  0  0  0  0  0  0  0  0  0  0
  142.8080   73.0710  219.0590 C   0  0  0  0  0  0  0  0  0  0  0  0
  145.4931   74.1063  221.8668 H   0  0  0  0  0  0  0  0  0  0  0  0
  146.1625   74.7985  220.3504 H   0  0  0  0  0  0  0  0  0  0  0  0
  144.5322   74.0444  220.3504 H   0  0  0  0  0  0  0  0  0  0  0  0
  147.2384   72.7818  220.2377 H   0  0  0  0  0  0  0  0  0  0  0  0
  146.0432   71.9572  221.2779 H   0  0  0  0  0  0  0  0  0  0  0  0
  142.4406   69.3918  218.8902 H   0  0  0  0  0  0  0  0  0  0  0  0
  142.9005   66.9295  218.6634 H   0  0  0  0  0  0  0  0  0  0  0  0
  145.2067   66.0739  218.8719 H   0  0  0  0  0  0  0  0  0  0  0  0
  147.1175   67.6176  219.3208 H   0  0  0  0  0  0  0  0  0  0  0  0
  146.6428   70.0570  219.5471 H   0  0  0  0  0  0  0  0  0  0  0  0
  142.2908   71.0496  219.2474 H   0  0  0  0  0  0  0  0  0  0  0  0
  143.1780   70.8204  221.6318 H   0  0  0  0  0  0  0  0  0  0  0  0
  143.5920   72.5432  221.6171 H   0  0  0  0  0  0  0  0  0  0  0  0
  140.8273   71.3861  220.9746 H   0  0  0  0  0  0  0  0  0  0  0  0
  141.2861   72.0907  222.5478 H   0  0  0  0  0  0  0  0  0  0  0  0
  139.3334   75.5970  220.4191 H   0  0  0  0  0  0  0  0  0  0  0  0
  138.7410   75.2650  223.1150 H   0  0  0  0  0  0  0  0  0  0  0  0
  137.8210   75.8590  221.8770 H   0  0  0  0  0  0  0  0  0  0  0  0
  141.8181   76.0416  221.8070 H   0  0  0  0  0  0  0  0  0  0  0  0
  143.3688   77.0181  220.3789 H   0  0  0  0  0  0  0  0  0  0  0  0
  144.0278   77.6464  218.1010 H   0  0  0  0  0  0  0  0  0  0  0  0
  142.2773   77.9313  216.3482 H   0  0  0  0  0  0  0  0  0  0  0  0
  139.8815   77.5756  216.9417 H   0  0  0  0  0  0  0  0  0  0  0  0
  139.2629   76.9494  219.2407 H   0  0  0  0  0  0  0  0  0  0  0  0
  142.2435   77.2328  223.6699 H   0  0  0  0  0  0  0  0  0  0  0  0
  141.8983   79.2286  225.1055 H   0  0  0  0  0  0  0  0  0  0  0  0
  140.1699   80.8701  224.4325 H   0  0  0  0  0  0  0  0  0  0  0  0
  139.1883   78.5571  220.9965 H   0  0  0  0  0  0  0  0  0  0  0  0
  141.0694   74.2311  219.0267 H   0  0  0  0  0  0  0  0  0  0  0  0
  142.4728   74.8151  220.0946 H   0  0  0  0  0  0  0  0  0  0  0  0
  142.4283   72.9071  218.0397 H   0  0  0  0  0  0  0  0  0  0  0  0
  143.7789   73.5846  219.1192 H   0  0  0  0  0  0  0  0  0  0  0  0
  1  2  1  0
  2  3  1  0
  3  4  2  0
  3  5  1  0
  5  6  1  0
  6  7  2  0
  7  8  1  0
  8  9  2  0
  9 10  1  0
 10 11  2  0
  5 12  1  0
 12 13  1  0
 13 14  1  0
 14 15  1  0
 15 16  1  0
 16 17  2  0
 16 18  1  0
 18 19  1  0
 18 20  1  0
 20 21  1  0
 21 22  2  0
 22 23  1  0
 23 24  2  0
 24 25  1  0
 25 26  2  0
 20 27  1  0
 27 28  2  0
 28 29  1  0
 29 30  2  0
 30 31  1  0
 31 32  1  0
 31 33  2  0
 15 34  1  0
 34 35  1  0
 11  6  1  0
 35 12  1  0
 26 21  1  0
 33 27  1  0
  1 36  1  0
  1 37  1  0
  1 38  1  0
  2 39  1  0
  2 40  1  0
  7 41  1  0
  8 42  1  0
  9 43  1  0
 10 44  1  0
 11 45  1  0
 12 46  1  0
 13 47  1  0
 13 48  1  0
 14 49  1  0
 14 50  1  0
 18 51  1  6
 19 52  1  0
 19 53  1  0
 20 54  1  1
 22 55  1  0
 23 56  1  0
 24 57  1  0
 25 58  1  0
 26 59  1  0
 28 60  1  0
 29 61  1  0
 30 62  1  0
 33 63  1  0
 34 64  1  0
 34 65  1  0
 35 66  1  0
 35 67  1  0
M  END
>  <smiles>  (74) 
CCC(=O)N(c1ccccc1)C1CCN(C(=O)[C@@H](N)C(c2ccccc2)c2cccc(F)c2)CC1

>  <score_type>  (74) 
oracle

>  <origin>  (74) 
autodockgpu

>  <m_score__min__energy>  (74) 
-8.2300000000000004

>  <m_primary>  (74) 
energy

>  <rmsd>  (74) 
5.263056771165805

>  <m_score__min__rmsd>  (74) 
5.263056771165805

>  <meeko>  (74) 
{"free_energy": -7.92, "intermolecular_energy": -10.6, "internal_energy": -3.31, "cluster_size": 27, "cluster_id": 1, "rank_in_cluster": 5}

>  <energy>  (74) 
-7.41

>  <cluster_rmsd>  (74) 
0.85

>  <cluster>  (74) 
1

$$$$

     RDKit          3D

 67 70  0  0  0  0  0  0  0  0999 V2000
  142.6810   75.1480  216.3650 C   0  0  0  0  0  0  0  0  0  0  0  0
  143.7660   76.0160  216.9570 C   0  0  0  0  0  0  0  0  0  0  0  0
  143.2380   76.6310  218.1990 C   0  0  0  0  0  0  0  0  0  0  0  0
  143.3140   77.8840  218.2870 O   0  0  0  0  0  0  0  0  0  0  0  0
  142.6840   75.8010  219.2090 N   0  0  0  0  0  0  0  0  0  0  0  0
  143.4430   74.7170  219.7710 C   0  0  0  0  0  0  0  0  0  0  0  0
  144.6280   74.9200  220.4440 C   0  0  0  0  0  0  0  0  0  0  0  0
  145.2840   73.7960  220.9540 C   0  0  0  0  0  0  0  0  0  0  0  0
  144.7440   72.5320  220.7800 C   0  0  0  0  0  0  0  0  0  0  0  0
  143.5470   72.3380  220.0990 C   0  0  0  0  0  0  0  0  0  0  0  0
  142.9080   73.4570  219.5980 C   0  0  0  0  0  0  0  0  0  0  0  0
  141.3490   75.9860  219.7260 C   0  0  0  0  0  0  0  0  0  0  0  0
  141.3800   75.6120  221.2010 C   0  0  0  0  0  0  0  0  0  0  0  0
  139.9600   75.6500  221.6680 C   0  0  0  0  0  0  0  0  0  0  0  0
  139.4850   77.0480  221.5590 N   0  0  0  0  0  0  0  0  0  0  0  0
  138.5580   77.4220  222.5590 C   0  0  0  0  0  0  0  0  0  0  0  0
  138.2650   76.5140  223.4110 O   0  0  0  0  0  0  0  0  0  0  0  0
  137.9000   78.7210  222.7320 C   0  0  1  0  0  0  0  0  0  0  0  0
  136.5190   78.5670  223.0390 N   0  0  0  0  0  0  0  0  0  0  0  0
  138.6390   79.5700  223.7450 C   0  0  1  0  0  0  0  0  0  0  0  0
  140.0120   79.8590  223.2790 C   0  0  0  0  0  0  0  0  0  0  0  0
  141.0810   79.1740  223.8360 C   0  0  0  0  0  0  0  0  0  0  0  0
  142.3840   79.3850  223.4610 C   0  0  0  0  0  0  0  0  0  0  0  0
  142.6580   80.3200  222.4840 C   0  0  0  0  0  0  0  0  0  0  0  0
  141.6150   81.0240  221.9040 C   0  0  0  0  0  0  0  0  0  0  0  0
  140.3190   80.7850  222.3080 C   0  0  0  0  0  0  0  0  0  0  0  0
  137.9150   80.8040  224.1290 C   0  0  0  0  0  0  0  0  0  0  0  0
  137.4590   81.7180  223.1950 C   0  0  0  0  0  0  0  0  0  0  0  0
  136.7840   82.8720  223.5410 C   0  0  0  0  0  0  0  0  0  0  0  0
  136.5720   83.0910  224.8850 C   0  0  0  0  0  0  0  0  0  0  0  0
  136.9980   82.2260  225.8720 C   0  0  0  0  0  0  0  0  0  0  0  0
  136.7440   82.5240  227.1700 F   0  0  0  0  0  0  0  0  0  0  0  0
  137.6670   81.0910  225.4650 C   0  0  0  0  0  0  0  0  0  0  0  0
  139.9330   77.9340  220.5260 C   0  0  0  0  0  0  0  0  0  0  0  0
  140.8970   77.3980  219.5410 C   0  0  0  0  0  0  0  0  0  0  0  0
  142.1002   74.6833  217.1754 H   0  0  0  0  0  0  0  0  0  0  0  0
  142.0152   75.7656  215.7442 H   0  0  0  0  0  0  0  0  0  0  0  0
  143.1374   74.3629  215.7442 H   0  0  0  0  0  0  0  0  0  0  0  0
  144.6484   75.4022  217.1909 H   0  0  0  0  0  0  0  0  0  0  0  0
  144.0621   76.7970  216.2412 H   0  0  0  0  0  0  0  0  0  0  0  0
  145.0429   75.9303  220.5752 H   0  0  0  0  0  0  0  0  0  0  0  0
  146.2336   73.9156  221.4961 H   0  0  0  0  0  0  0  0  0  0  0  0
  145.2750   71.6605  221.1905 H   0  0  0  0  0  0  0  0  0  0  0  0
  143.1243   71.3315  219.9640 H   0  0  0  0  0  0  0  0  0  0  0  0
  141.9593   73.3411  219.0535 H   0  0  0  0  0  0  0  0  0  0  0  0
  140.6336   75.3502  219.1837 H   0  0  0  0  0  0  0  0  0  0  0  0
  141.7976   74.6026  221.3303 H   0  0  0  0  0  0  0  0  0  0  0  0
  142.0116   76.3036  221.7779 H   0  0  0  0  0  0  0  0  0  0  0  0
  139.3412   74.9943  221.0378 H   0  0  0  0  0  0  0  0  0  0  0  0
  139.8882   75.2998  222.7083 H   0  0  0  0  0  0  0  0  0  0  0  0
  137.9420   79.2619  221.7751 H   0  0  0  0  0  0  0  0  0  0  0  0
  136.2930   79.1050  223.9030 H   0  0  0  0  0  0  0  0  0  0  0  0
  136.3170   77.5590  223.3160 H   0  0  0  0  0  0  0  0  0  0  0  0
  138.7002   78.9744  224.6678 H   0  0  0  0  0  0  0  0  0  0  0  0
  140.8748   78.4258  224.6156 H   0  0  0  0  0  0  0  0  0  0  0  0
  143.1990   78.8165  223.9328 H   0  0  0  0  0  0  0  0  0  0  0  0
  143.6954   80.5049  222.1683 H   0  0  0  0  0  0  0  0  0  0  0  0
  141.8206   81.7714  221.1235 H   0  0  0  0  0  0  0  0  0  0  0  0
  139.5026   81.3535  221.8386 H   0  0  0  0  0  0  0  0  0  0  0  0
  137.6425   81.5162  222.1294 H   0  0  0  0  0  0  0  0  0  0  0  0
  136.4319   83.5833  222.7793 H   0  0  0  0  0  0  0  0  0  0  0  0
  136.0354   84.0027  225.1865 H   0  0  0  0  0  0  0  0  0  0  0  0
  138.0189   80.3835  226.2303 H   0  0  0  0  0  0  0  0  0  0  0  0
  139.0448   78.2686  219.9701 H   0  0  0  0  0  0  0  0  0  0  0  0
  140.4821   78.7274  221.0542 H   0  0  0  0  0  0  0  0  0  0  0  0
  140.4289   77.4681  218.5480 H   0  0  0  0  0  0  0  0  0  0  0  0
  141.8044   78.0056  219.6731 H   0  0  0  0  0  0  0  0  0  0  0  0
  1  2  1  0
  2  3  1  0
  3  4  2  0
  3  5  1  0
  5  6  1  0
  6  7  2  0
  7  8  1  0
  8  9  2  0
  9 10  1  0
 10 11  2  0
  5 12  1  0
 12 13  1  0
 13 14  1  0
 14 15  1  0
 15 16  1  0
 16 17  2  0
 16 18  1  0
 18 19  1  0
 18 20  1  0
 20 21  1  0
 21 22  2  0
 22 23  1  0
 23 24  2  0
 24 25  1  0
 25 26  2  0
 20 27  1  0
 27 28  2  0
 28 29  1  0
 29 30  2  0
 30 31  1  0
 31 32  1  0
 31 33  2  0
 15 34  1  0
 34 35  1  0
 11  6  1  0
 35 12  1  0
 26 21  1  0
 33 27  1  0
  1 36  1  0
  1 37  1  0
  1 38  1  0
  2 39  1  0
  2 40  1  0
  7 41  1  0
  8 42  1  0
  9 43  1  0
 10 44  1  0
 11 45  1  0
 12 46  1  0
 13 47  1  0
 13 48  1  0
 14 49  1  0
 14 50  1  0
 18 51  1  6
 19 52  1  0
 19 53  1  0
 20 54  1  1
 22 55  1  0
 23 56  1  0
 24 57  1  0
 25 58  1  0
 26 59  1  0
 28 60  1  0
 29 61  1  0
 30 62  1  0
 33 63  1  0
 34 64  1  0
 34 65  1  0
 35 66  1  0
 35 67  1  0
M  END
>  <smiles>  (75) 
CCC(=O)N(c1ccccc1)C1CCN(C(=O)[C@@H](N)C(c2ccccc2)c2cccc(F)c2)CC1

>  <score_type>  (75) 
oracle

>  <origin>  (75) 
autodockgpu

>  <m_score__min__energy>  (75) 
-8.2300000000000004

>  <m_primary>  (75) 
energy

>  <rmsd>  (75) 
3.5363474248347755

>  <m_score__min__rmsd>  (75) 
3.5363474248347755

>  <meeko>  (75) 
{"free_energy": -6.82, "intermolecular_energy": -9.5, "internal_energy": -3.42, "cluster_size": 7, "cluster_id": 7, "rank_in_cluster": 7}

>  <energy>  (75) 
-7.3

>  <cluster_rmsd>  (75) 
0.97

>  <cluster>  (75) 
1

$$$$

     RDKit          3D

 67 70  0  0  0  0  0  0  0  0999 V2000
  145.9690   70.9870  216.2000 C   0  0  0  0  0  0  0  0  0  0  0  0
  145.3100   72.2000  216.8130 C   0  0  0  0  0  0  0  0  0  0  0  0
  145.2520   71.9990  218.2820 C   0  0  0  0  0  0  0  0  0  0  0  0
  146.0740   72.6510  218.9750 O   0  0  0  0  0  0  0  0  0  0  0  0
  144.2960   71.1020  218.8270 N   0  0  0  0  0  0  0  0  0  0  0  0
  144.5870   69.6990  218.9510 C   0  0  0  0  0  0  0  0  0  0  0  0
  143.6220   68.7300  218.7840 C   0  0  0  0  0  0  0  0  0  0  0  0
  144.0150   67.3950  218.9230 C   0  0  0  0  0  0  0  0  0  0  0  0
  145.3310   67.0810  219.2170 C   0  0  0  0  0  0  0  0  0  0  0  0
  146.2970   68.0660  219.3830 C   0  0  0  0  0  0  0  0  0  0  0  0
  145.8980   69.3830  219.2450 C   0  0  0  0  0  0  0  0  0  0  0  0
  142.9940   71.5300  219.2830 C   0  0  0  0  0  0  0  0  0  0  0  0
  143.0220   71.5150  220.8050 C   0  0  0  0  0  0  0  0  0  0  0  0
  141.6220   71.7970  221.2470 C   0  0  0  0  0  0  0  0  0  0  0  0
  141.2760   73.1680  220.8080 N   0  0  0  0  0  0  0  0  0  0  0  0
  140.4090   73.8550  221.6890 C   0  0  0  0  0  0  0  0  0  0  0  0
  140.0510   73.2070  222.7320 O   0  0  0  0  0  0  0  0  0  0  0  0
  139.8770   75.2150  221.5470 C   0  0  1  0  0  0  0  0  0  0  0  0
  138.8560   75.4760  222.5030 N   0  0  0  0  0  0  0  0  0  0  0  0
  140.9940   76.2360  221.5800 C   0  0  1  0  0  0  0  0  0  0  0  0
  141.4310   76.5740  220.2090 C   0  0  0  0  0  0  0  0  0  0  0  0
  140.4860   76.7330  219.2090 C   0  0  0  0  0  0  0  0  0  0  0  0
  140.8090   77.0440  217.9120 C   0  0  0  0  0  0  0  0  0  0  0  0
  142.1370   77.2120  217.5730 C   0  0  0  0  0  0  0  0  0  0  0  0
  143.1120   77.0610  218.5470 C   0  0  0  0  0  0  0  0  0  0  0  0
  142.7470   76.7470  219.8390 C   0  0  0  0  0  0  0  0  0  0  0  0
  140.6700   77.4470  222.3700 C   0  0  0  0  0  0  0  0  0  0  0  0
  141.4820   77.9060  223.3910 C   0  0  0  0  0  0  0  0  0  0  0  0
  141.1900   79.0320  224.1350 C   0  0  0  0  0  0  0  0  0  0  0  0
  140.0290   79.7050  223.8180 C   0  0  0  0  0  0  0  0  0  0  0  0
  139.1720   79.3080  222.8140 C   0  0  0  0  0  0  0  0  0  0  0  0
  138.0520   80.0330  222.5710 F   0  0  0  0  0  0  0  0  0  0  0  0
  139.5160   78.1750  222.1060 C   0  0  0  0  0  0  0  0  0  0  0  0
  141.7830   73.7380  219.5940 C   0  0  0  0  0  0  0  0  0  0  0  0
  142.6710   72.8940  218.7670 C   0  0  0  0  0  0  0  0  0  0  0  0
  146.3299   70.3227  216.9990 H   0  0  0  0  0  0  0  0  0  0  0  0
  145.2393   70.4487  215.5773 H   0  0  0  0  0  0  0  0  0  0  0  0
  146.8177   71.3062  215.5773 H   0  0  0  0  0  0  0  0  0  0  0  0
  145.8983   73.1005  216.5827 H   0  0  0  0  0  0  0  0  0  0  0  0
  144.2966   72.3304  216.4055 H   0  0  0  0  0  0  0  0  0  0  0  0
  142.5808   68.9965  218.5499 H   0  0  0  0  0  0  0  0  0  0  0  0
  143.2751   66.5907  218.7982 H   0  0  0  0  0  0  0  0  0  0  0  0
  145.6193   66.0246  219.3219 H   0  0  0  0  0  0  0  0  0  0  0  0
  147.3406   67.8077  219.6156 H   0  0  0  0  0  0  0  0  0  0  0  0
  146.6354   70.1895  219.3712 H   0  0  0  0  0  0  0  0  0  0  0  0
  142.2115   70.8549  218.9064 H   0  0  0  0  0  0  0  0  0  0  0  0
  143.3472   70.5301  221.1714 H   0  0  0  0  0  0  0  0  0  0  0  0
  143.7271   72.2603  221.2018 H   0  0  0  0  0  0  0  0  0  0  0  0
  140.9321   71.0724  220.7897 H   0  0  0  0  0  0  0  0  0  0  0  0
  141.5399   71.7116  222.3406 H   0  0  0  0  0  0  0  0  0  0  0  0
  139.3989   75.3011  220.5601 H   0  0  0  0  0  0  0  0  0  0  0  0
  139.2920   75.7030  223.4230 H   0  0  0  0  0  0  0  0  0  0  0  0
  138.3070   74.5860  222.7030 H   0  0  0  0  0  0  0  0  0  0  0  0
  141.8346   75.7636  222.1093 H   0  0  0  0  0  0  0  0  0  0  0  0
  139.4245   76.6037  219.4671 H   0  0  0  0  0  0  0  0  0  0  0  0
  140.0210   77.1579  217.1530 H   0  0  0  0  0  0  0  0  0  0  0  0
  142.4187   77.4633  216.5398 H   0  0  0  0  0  0  0  0  0  0  0  0
  144.1735   77.1913  218.2898 H   0  0  0  0  0  0  0  0  0  0  0  0
  143.5328   76.6307  220.6000 H   0  0  0  0  0  0  0  0  0  0  0  0
  142.4022   77.3488  223.6209 H   0  0  0  0  0  0  0  0  0  0  0  0
  141.8526   79.3760  224.9428 H   0  0  0  0  0  0  0  0  0  0  0  0
  139.7735   80.6052  224.3962 H   0  0  0  0  0  0  0  0  0  0  0  0
  138.8498   77.8340  221.2998 H   0  0  0  0  0  0  0  0  0  0  0  0
  140.9184   74.0152  218.9730 H   0  0  0  0  0  0  0  0  0  0  0  0
  142.4146   74.5779  219.9190 H   0  0  0  0  0  0  0  0  0  0  0  0
  142.1900   72.7708  217.7854 H   0  0  0  0  0  0  0  0  0  0  0  0
  143.6337   73.4260  218.7522 H   0  0  0  0  0  0  0  0  0  0  0  0
  1  2  1  0
  2  3  1  0
  3  4  2  0
  3  5  1  0
  5  6  1  0
  6  7  2  0
  7  8  1  0
  8  9  2  0
  9 10  1  0
 10 11  2  0
  5 12  1  0
 12 13  1  0
 13 14  1  0
 14 15  1  0
 15 16  1  0
 16 17  2  0
 16 18  1  0
 18 19  1  0
 18 20  1  0
 20 21  1  0
 21 22  2  0
 22 23  1  0
 23 24  2  0
 24 25  1  0
 25 26  2  0
 20 27  1  0
 27 28  2  0
 28 29  1  0
 29 30  2  0
 30 31  1  0
 31 32  1  0
 31 33  2  0
 15 34  1  0
 34 35  1  0
 11  6  1  0
 35 12  1  0
 26 21  1  0
 33 27  1  0
  1 36  1  0
  1 37  1  0
  1 38  1  0
  2 39  1  0
  2 40  1  0
  7 41  1  0
  8 42  1  0
  9 43  1  0
 10 44  1  0
 11 45  1  0
 12 46  1  0
 13 47  1  0
 13 48  1  0
 14 49  1  0
 14 50  1  0
 18 51  1  6
 19 52  1  0
 19 53  1  0
 20 54  1  1
 22 55  1  0
 23 56  1  0
 24 57  1  0
 25 58  1  0
 26 59  1  0
 28 60  1  0
 29 61  1  0
 30 62  1  0
 33 63  1  0
 34 64  1  0
 34 65  1  0
 35 66  1  0
 35 67  1  0
M  END
>  <smiles>  (76) 
CCC(=O)N(c1ccccc1)C1CCN(C(=O)[C@@H](N)C(c2ccccc2)c2cccc(F)c2)CC1

>  <score_type>  (76) 
oracle

>  <origin>  (76) 
autodockgpu

>  <m_score__min__energy>  (76) 
-8.2300000000000004

>  <m_primary>  (76) 
energy

>  <rmsd>  (76) 
5.362798373173358

>  <m_score__min__rmsd>  (76) 
5.362798373173358

>  <meeko>  (76) 
{"free_energy": -7.61, "intermolecular_energy": -10.29, "internal_energy": -3.12, "cluster_size": 27, "cluster_id": 1, "rank_in_cluster": 17}

>  <energy>  (76) 
-7.29

>  <cluster_rmsd>  (76) 
1.36

>  <cluster>  (76) 
1

$$$$

     RDKit          3D

 67 70  0  0  0  0  0  0  0  0999 V2000
  145.5940   73.8970  220.8630 C   0  0  0  0  0  0  0  0  0  0  0  0
  146.2830   72.6320  220.4090 C   0  0  0  0  0  0  0  0  0  0  0  0
  145.5610   72.1160  219.2210 C   0  0  0  0  0  0  0  0  0  0  0  0
  145.9490   72.5320  218.0980 O   0  0  0  0  0  0  0  0  0  0  0  0
  144.4900   71.2010  219.3960 N   0  0  0  0  0  0  0  0  0  0  0  0
  144.7050   69.7840  219.2850 C   0  0  0  0  0  0  0  0  0  0  0  0
  143.6870   68.8700  219.4480 C   0  0  0  0  0  0  0  0  0  0  0  0
  144.0050   67.5150  219.3150 C   0  0  0  0  0  0  0  0  0  0  0  0
  145.3040   67.1270  219.0300 C   0  0  0  0  0  0  0  0  0  0  0  0
  146.3240   68.0570  218.8680 C   0  0  0  0  0  0  0  0  0  0  0  0
  145.9980   69.3940  219.0020 C   0  0  0  0  0  0  0  0  0  0  0  0
  143.1410   71.6250  219.6910 C   0  0  0  0  0  0  0  0  0  0  0  0
  142.9820   71.6050  221.2040 C   0  0  0  0  0  0  0  0  0  0  0  0
  141.5370   71.8820  221.4720 C   0  0  0  0  0  0  0  0  0  0  0  0
  141.2440   73.2530  220.9990 N   0  0  0  0  0  0  0  0  0  0  0  0
  140.2740   73.9360  221.7690 C   0  0  0  0  0  0  0  0  0  0  0  0
  139.7930   73.2820  222.7580 O   0  0  0  0  0  0  0  0  0  0  0  0
  139.7600   75.2940  221.5670 C   0  0  1  0  0  0  0  0  0  0  0  0
  138.7500   75.6140  222.5170 N   0  0  0  0  0  0  0  0  0  0  0  0
  140.8910   76.3000  221.5450 C   0  0  1  0  0  0  0  0  0  0  0  0
  141.2570   76.6420  220.1540 C   0  0  0  0  0  0  0  0  0  0  0  0
  142.5680   76.9790  219.8560 C   0  0  0  0  0  0  0  0  0  0  0  0
  142.9890   77.3110  218.5920 C   0  0  0  0  0  0  0  0  0  0  0  0
  142.0730   77.3120  217.5590 C   0  0  0  0  0  0  0  0  0  0  0  0
  140.7520   76.9810  217.8200 C   0  0  0  0  0  0  0  0  0  0  0  0
  140.3680   76.6540  219.1030 C   0  0  0  0  0  0  0  0  0  0  0  0
  140.6270   77.5100  222.3600 C   0  0  0  0  0  0  0  0  0  0  0  0
  141.4560   77.9030  223.3950 C   0  0  0  0  0  0  0  0  0  0  0  0
  141.2210   79.0270  224.1620 C   0  0  0  0  0  0  0  0  0  0  0  0
  140.1000   79.7680  223.8530 C   0  0  0  0  0  0  0  0  0  0  0  0
  139.2290   79.4380  222.8360 C   0  0  0  0  0  0  0  0  0  0  0  0
  138.1510   80.2280  222.6040 F   0  0  0  0  0  0  0  0  0  0  0  0
  139.5160   78.3040  222.1060 C   0  0  0  0  0  0  0  0  0  0  0  0
  141.8940   73.8280  219.8580 C   0  0  0  0  0  0  0  0  0  0  0  0
  142.8800   72.9900  219.1430 C   0  0  0  0  0  0  0  0  0  0  0  0
  145.5758   73.9303  221.9624 H   0  0  0  0  0  0  0  0  0  0  0  0
  146.1409   74.7706  220.4787 H   0  0  0  0  0  0  0  0  0  0  0  0
  144.5634   73.9114  220.4787 H   0  0  0  0  0  0  0  0  0  0  0  0
  147.3280   72.8509  220.1444 H   0  0  0  0  0  0  0  0  0  0  0  0
  146.2755   71.8833  221.2148 H   0  0  0  0  0  0  0  0  0  0  0  0
  142.6607   69.1947  219.6747 H   0  0  0  0  0  0  0  0  0  0  0  0
  143.2204   66.7538  219.4372 H   0  0  0  0  0  0  0  0  0  0  0  0
  145.5339   66.0560  218.9294 H   0  0  0  0  0  0  0  0  0  0  0  0
  147.3530   67.7410  218.6415 H   0  0  0  0  0  0  0  0  0  0  0  0
  146.7805   70.1576  218.8813 H   0  0  0  0  0  0  0  0  0  0  0  0
  142.4122   70.9492  219.2197 H   0  0  0  0  0  0  0  0  0  0  0  0
  143.2627   70.6197  221.6045 H   0  0  0  0  0  0  0  0  0  0  0  0
  143.6307   72.3509  221.6865 H   0  0  0  0  0  0  0  0  0  0  0  0
  140.9105   71.1576  220.9309 H   0  0  0  0  0  0  0  0  0  0  0  0
  141.3215   71.7921  222.5469 H   0  0  0  0  0  0  0  0  0  0  0  0
  139.2759   75.3401  220.5803 H   0  0  0  0  0  0  0  0  0  0  0  0
  139.1910   75.7990  223.4440 H   0  0  0  0  0  0  0  0  0  0  0  0
  138.1390   74.7620  222.7000 H   0  0  0  0  0  0  0  0  0  0  0  0
  141.7531   75.8128  222.0241 H   0  0  0  0  0  0  0  0  0  0  0  0
  143.3065   76.9805  220.6712 H   0  0  0  0  0  0  0  0  0  0  0  0
  144.0410   77.5724  218.4050 H   0  0  0  0  0  0  0  0  0  0  0  0
  142.3883   77.5730  216.5380 H   0  0  0  0  0  0  0  0  0  0  0  0
  140.0126   76.9794  217.0056 H   0  0  0  0  0  0  0  0  0  0  0  0
  139.3162   76.3940  219.2932 H   0  0  0  0  0  0  0  0  0  0  0  0
  142.3433   77.2921  223.6174 H   0  0  0  0  0  0  0  0  0  0  0  0
  141.8960   79.3174  224.9806 H   0  0  0  0  0  0  0  0  0  0  0  0
  139.8896   80.6687  224.4483 H   0  0  0  0  0  0  0  0  0  0  0  0
  138.8375   78.0165  221.2893 H   0  0  0  0  0  0  0  0  0  0  0  0
  141.1109   74.1044  219.1366 H   0  0  0  0  0  0  0  0  0  0  0  0
  142.4784   74.6684  220.2608 H   0  0  0  0  0  0  0  0  0  0  0  0
  142.5238   72.8691  218.1093 H   0  0  0  0  0  0  0  0  0  0  0  0
  143.8355   73.5249  219.2475 H   0  0  0  0  0  0  0  0  0  0  0  0
  1  2  1  0
  2  3  1  0
  3  4  2  0
  3  5  1  0
  5  6  1  0
  6  7  2  0
  7  8  1  0
  8  9  2  0
  9 10  1  0
 10 11  2  0
  5 12  1  0
 12 13  1  0
 13 14  1  0
 14 15  1  0
 15 16  1  0
 16 17  2  0
 16 18  1  0
 18 19  1  0
 18 20  1  0
 20 21  1  0
 21 22  2  0
 22 23  1  0
 23 24  2  0
 24 25  1  0
 25 26  2  0
 20 27  1  0
 27 28  2  0
 28 29  1  0
 29 30  2  0
 30 31  1  0
 31 32  1  0
 31 33  2  0
 15 34  1  0
 34 35  1  0
 11  6  1  0
 35 12  1  0
 26 21  1  0
 33 27  1  0
  1 36  1  0
  1 37  1  0
  1 38  1  0
  2 39  1  0
  2 40  1  0
  7 41  1  0
  8 42  1  0
  9 43  1  0
 10 44  1  0
 11 45  1  0
 12 46  1  0
 13 47  1  0
 13 48  1  0
 14 49  1  0
 14 50  1  0
 18 51  1  6
 19 52  1  0
 19 53  1  0
 20 54  1  1
 22 55  1  0
 23 56  1  0
 24 57  1  0
 25 58  1  0
 26 59  1  0
 28 60  1  0
 29 61  1  0
 30 62  1  0
 33 63  1  0
 34 64  1  0
 34 65  1  0
 35 66  1  0
 35 67  1  0
M  END
>  <smiles>  (77) 
CCC(=O)N(c1ccccc1)C1CCN(C(=O)[C@@H](N)C(c2ccccc2)c2cccc(F)c2)CC1

>  <score_type>  (77) 
oracle

>  <origin>  (77) 
autodockgpu

>  <m_score__min__energy>  (77) 
-8.2300000000000004

>  <m_primary>  (77) 
energy

>  <rmsd>  (77) 
5.415246333179619

>  <m_score__min__rmsd>  (77) 
5.415246333179619

>  <meeko>  (77) 
{"free_energy": -8.23, "intermolecular_energy": -10.92, "internal_energy": -3.19, "cluster_size": 27, "cluster_id": 1, "rank_in_cluster": 1}

>  <energy>  (77) 
-7.08

>  <cluster_rmsd>  (77) 
1.49

>  <cluster>  (77) 
1

$$$$

     RDKit          3D

 67 70  0  0  0  0  0  0  0  0999 V2000
  145.6400   74.0950  220.8460 C   0  0  0  0  0  0  0  0  0  0  0  0
  146.1200   72.7030  220.5110 C   0  0  0  0  0  0  0  0  0  0  0  0
  145.4100   72.2540  219.2880 C   0  0  0  0  0  0  0  0  0  0  0  0
  145.9350   72.5580  218.1850 O   0  0  0  0  0  0  0  0  0  0  0  0
  144.2010   71.5210  219.4110 N   0  0  0  0  0  0  0  0  0  0  0  0
  144.2000   70.0840  219.3510 C   0  0  0  0  0  0  0  0  0  0  0  0
  143.0350   69.3480  219.3480 C   0  0  0  0  0  0  0  0  0  0  0  0
  143.1480   67.9570  219.2840 C   0  0  0  0  0  0  0  0  0  0  0  0
  144.3960   67.3590  219.2250 C   0  0  0  0  0  0  0  0  0  0  0  0
  145.5660   68.1090  219.2280 C   0  0  0  0  0  0  0  0  0  0  0  0
  145.4420   69.4860  219.2930 C   0  0  0  0  0  0  0  0  0  0  0  0
  142.9180   72.1570  219.5990 C   0  0  0  0  0  0  0  0  0  0  0  0
  142.6820   72.2610  221.0990 C   0  0  0  0  0  0  0  0  0  0  0  0
  141.2840   72.7640  221.2640 C   0  0  0  0  0  0  0  0  0  0  0  0
  141.2240   74.1300  220.6940 N   0  0  0  0  0  0  0  0  0  0  0  0
  140.3300   74.9970  221.3640 C   0  0  0  0  0  0  0  0  0  0  0  0
  139.7070   74.4890  222.3600 O   0  0  0  0  0  0  0  0  0  0  0  0
  140.0380   76.4000  221.0530 C   0  0  1  0  0  0  0  0  0  0  0  0
  139.1300   76.9620  221.9950 N   0  0  0  0  0  0  0  0  0  0  0  0
  141.3150   77.1990  220.9140 C   0  0  1  0  0  0  0  0  0  0  0  0
  141.4710   77.6940  219.5290 C   0  0  0  0  0  0  0  0  0  0  0  0
  142.7150   77.6440  218.9220 C   0  0  0  0  0  0  0  0  0  0  0  0
  142.9440   78.0850  217.6430 C   0  0  0  0  0  0  0  0  0  0  0  0
  141.8940   78.6050  216.9140 C   0  0  0  0  0  0  0  0  0  0  0  0
  140.6340   78.6710  217.4890 C   0  0  0  0  0  0  0  0  0  0  0  0
  140.4440   78.2190  218.7770 C   0  0  0  0  0  0  0  0  0  0  0  0
  141.4470   78.2890  221.9080 C   0  0  0  0  0  0  0  0  0  0  0  0
  141.4550   78.0540  223.2710 C   0  0  0  0  0  0  0  0  0  0  0  0
  141.5770   79.0610  224.2080 C   0  0  0  0  0  0  0  0  0  0  0  0
  141.6940   80.3480  223.7270 C   0  0  0  0  0  0  0  0  0  0  0  0
  141.6950   80.6590  222.3840 C   0  0  0  0  0  0  0  0  0  0  0  0
  141.8170   81.9540  222.0030 F   0  0  0  0  0  0  0  0  0  0  0  0
  141.5690   79.6100  221.4960 C   0  0  0  0  0  0  0  0  0  0  0  0
  142.0100   74.5260  219.5630 C   0  0  0  0  0  0  0  0  0  0  0  0
  142.8930   73.5060  218.9580 C   0  0  0  0  0  0  0  0  0  0  0  0
  145.5984   74.2155  221.9386 H   0  0  0  0  0  0  0  0  0  0  0  0
  146.3350   74.8345  220.4217 H   0  0  0  0  0  0  0  0  0  0  0  0
  144.6369   74.2490  220.4217 H   0  0  0  0  0  0  0  0  0  0  0  0
  147.2048   72.7161  220.3291 H   0  0  0  0  0  0  0  0  0  0  0  0
  145.9137   72.0169  221.3457 H   0  0  0  0  0  0  0  0  0  0  0  0
  142.0513   69.8382  219.3944 H   0  0  0  0  0  0  0  0  0  0  0  0
  142.2416   67.3337  219.2804 H   0  0  0  0  0  0  0  0  0  0  0  0
  144.4628   66.2622  219.1745 H   0  0  0  0  0  0  0  0  0  0  0  0
  146.5534   67.6265  219.1805 H   0  0  0  0  0  0  0  0  0  0  0  0
  146.3463   70.1123  219.2985 H   0  0  0  0  0  0  0  0  0  0  0  0
  142.1206   71.5660  219.1247 H   0  0  0  0  0  0  0  0  0  0  0  0
  142.7911   71.2739  221.5721 H   0  0  0  0  0  0  0  0  0  0  0  0
  143.4104   72.9340  221.5750 H   0  0  0  0  0  0  0  0  0  0  0  0
  140.5837   72.1047  220.7303 H   0  0  0  0  0  0  0  0  0  0  0  0
  141.0040   72.7789  222.3277 H   0  0  0  0  0  0  0  0  0  0  0  0
  139.5317   76.4423  220.0773 H   0  0  0  0  0  0  0  0  0  0  0  0
  139.3040   76.5470  222.9350 H   0  0  0  0  0  0  0  0  0  0  0  0
  138.1360   76.6550  221.7700 H   0  0  0  0  0  0  0  0  0  0  0  0
  142.1421   76.5083  221.1348 H   0  0  0  0  0  0  0  0  0  0  0  0
  143.5599   77.2309  219.4926 H   0  0  0  0  0  0  0  0  0  0  0  0
  143.9511   78.0248  217.2046 H   0  0  0  0  0  0  0  0  0  0  0  0
  142.0551   78.9637  215.8867 H   0  0  0  0  0  0  0  0  0  0  0  0
  139.7884   79.0830  216.9187 H   0  0  0  0  0  0  0  0  0  0  0  0
  139.4385   78.2797  219.2189 H   0  0  0  0  0  0  0  0  0  0  0  0
  141.3598   77.0169  223.6250 H   0  0  0  0  0  0  0  0  0  0  0  0
  141.5807   78.8466  225.2869 H   0  0  0  0  0  0  0  0  0  0  0  0
  141.7916   81.1690  224.4525 H   0  0  0  0  0  0  0  0  0  0  0  0
  141.5650   79.8289  220.4180 H   0  0  0  0  0  0  0  0  0  0  0  0
  141.3152   74.8667  218.7812 H   0  0  0  0  0  0  0  0  0  0  0  0
  142.6934   75.2958  219.9508 H   0  0  0  0  0  0  0  0  0  0  0  0
  142.5747   73.3702  217.9138 H   0  0  0  0  0  0  0  0  0  0  0  0
  143.9117   73.9002  219.0879 H   0  0  0  0  0  0  0  0  0  0  0  0
  1  2  1  0
  2  3  1  0
  3  4  2  0
  3  5  1  0
  5  6  1  0
  6  7  2  0
  7  8  1  0
  8  9  2  0
  9 10  1  0
 10 11  2  0
  5 12  1  0
 12 13  1  0
 13 14  1  0
 14 15  1  0
 15 16  1  0
 16 17  2  0
 16 18  1  0
 18 19  1  0
 18 20  1  0
 20 21  1  0
 21 22  2  0
 22 23  1  0
 23 24  2  0
 24 25  1  0
 25 26  2  0
 20 27  1  0
 27 28  2  0
 28 29  1  0
 29 30  2  0
 30 31  1  0
 31 32  1  0
 31 33  2  0
 15 34  1  0
 34 35  1  0
 11  6  1  0
 35 12  1  0
 26 21  1  0
 33 27  1  0
  1 36  1  0
  1 37  1  0
  1 38  1  0
  2 39  1  0
  2 40  1  0
  7 41  1  0
  8 42  1  0
  9 43  1  0
 10 44  1  0
 11 45  1  0
 12 46  1  0
 13 47  1  0
 13 48  1  0
 14 49  1  0
 14 50  1  0
 18 51  1  6
 19 52  1  0
 19 53  1  0
 20 54  1  1
 22 55  1  0
 23 56  1  0
 24 57  1  0
 25 58  1  0
 26 59  1  0
 28 60  1  0
 29 61  1  0
 30 62  1  0
 33 63  1  0
 34 64  1  0
 34 65  1  0
 35 66  1  0
 35 67  1  0
M  END
>  <smiles>  (78) 
CCC(=O)N(c1ccccc1)C1CCN(C(=O)[C@@H](N)C(c2ccccc2)c2cccc(F)c2)CC1

>  <score_type>  (78) 
oracle

>  <origin>  (78) 
autodockgpu

>  <m_score__min__energy>  (78) 
-8.2300000000000004

>  <m_primary>  (78) 
energy

>  <rmsd>  (78) 
4.9055676895505425

>  <m_score__min__rmsd>  (78) 
4.9055676895505425

>  <meeko>  (78) 
{"free_energy": -7.93, "intermolecular_energy": -10.61, "internal_energy": -3.26, "cluster_size": 27, "cluster_id": 1, "rank_in_cluster": 4}

>  <energy>  (78) 
-8.09

>  <cluster_rmsd>  (78) 
0.0

>  <cluster>  (78) 
2

$$$$

     RDKit          3D

 67 70  0  0  0  0  0  0  0  0999 V2000
  145.3340   73.6570  216.5450 C   0  0  0  0  0  0  0  0  0  0  0  0
  145.3560   72.1750  216.8340 C   0  0  0  0  0  0  0  0  0  0  0  0
  145.3020   71.9920  218.3060 C   0  0  0  0  0  0  0  0  0  0  0  0
  146.1420   72.6360  218.9870 O   0  0  0  0  0  0  0  0  0  0  0  0
  144.3320   71.1210  218.8670 N   0  0  0  0  0  0  0  0  0  0  0  0
  144.6040   69.7170  219.0230 C   0  0  0  0  0  0  0  0  0  0  0  0
  143.6010   68.7880  219.1930 C   0  0  0  0  0  0  0  0  0  0  0  0
  143.9760   67.4490  219.3310 C   0  0  0  0  0  0  0  0  0  0  0  0
  145.3130   67.0900  219.2960 C   0  0  0  0  0  0  0  0  0  0  0  0
  146.3180   68.0350  219.1240 C   0  0  0  0  0  0  0  0  0  0  0  0
  145.9360   69.3570  218.9890 C   0  0  0  0  0  0  0  0  0  0  0  0
  143.0360   71.5770  219.3090 C   0  0  0  0  0  0  0  0  0  0  0  0
  143.0570   71.5920  220.8300 C   0  0  0  0  0  0  0  0  0  0  0  0
  141.6580   71.9030  221.2600 C   0  0  0  0  0  0  0  0  0  0  0  0
  141.3340   73.2700  220.7920 N   0  0  0  0  0  0  0  0  0  0  0  0
  140.4740   73.9870  221.6550 C   0  0  0  0  0  0  0  0  0  0  0  0
  140.1020   73.3650  222.7100 O   0  0  0  0  0  0  0  0  0  0  0  0
  139.9630   75.3510  221.4830 C   0  0  1  0  0  0  0  0  0  0  0  0
  138.9380   75.6450  222.4260 N   0  0  0  0  0  0  0  0  0  0  0  0
  141.0930   76.3570  221.5060 C   0  0  1  0  0  0  0  0  0  0  0  0
  141.5080   76.7060  220.1300 C   0  0  0  0  0  0  0  0  0  0  0  0
  142.8570   76.7750  219.8200 C   0  0  0  0  0  0  0  0  0  0  0  0
  143.3240   77.0930  218.5700 C   0  0  0  0  0  0  0  0  0  0  0  0
  142.4190   77.3580  217.5630 C   0  0  0  0  0  0  0  0  0  0  0  0
  141.0610   77.2990  217.8350 C   0  0  0  0  0  0  0  0  0  0  0  0
  140.6300   76.9760  219.1040 C   0  0  0  0  0  0  0  0  0  0  0  0
  140.8000   77.5630  222.3160 C   0  0  0  0  0  0  0  0  0  0  0  0
  141.5660   77.9260  223.4100 C   0  0  0  0  0  0  0  0  0  0  0  0
  141.3030   79.0460  224.1730 C   0  0  0  0  0  0  0  0  0  0  0  0
  140.2220   79.8150  223.7990 C   0  0  0  0  0  0  0  0  0  0  0  0
  139.4140   79.5170  222.7210 C   0  0  0  0  0  0  0  0  0  0  0  0
  138.3720   80.3320  222.4270 F   0  0  0  0  0  0  0  0  0  0  0  0
  139.7260   78.3840  221.9970 C   0  0  0  0  0  0  0  0  0  0  0  0
  141.8540   73.8070  219.5700 C   0  0  0  0  0  0  0  0  0  0  0  0
  142.7340   72.9350  218.7640 C   0  0  0  0  0  0  0  0  0  0  0  0
  145.3257   74.2153  217.4927 H   0  0  0  0  0  0  0  0  0  0  0  0
  146.2282   73.9310  215.9659 H   0  0  0  0  0  0  0  0  0  0  0  0
  144.4321   73.9043  215.9659 H   0  0  0  0  0  0  0  0  0  0  0  0
  144.4863   71.6908  216.3658 H   0  0  0  0  0  0  0  0  0  0  0  0
  146.2711   71.7206  216.4265 H   0  0  0  0  0  0  0  0  0  0  0  0
  142.5434   69.0893  219.2191 H   0  0  0  0  0  0  0  0  0  0  0  0
  143.2053   66.6762  219.4681 H   0  0  0  0  0  0  0  0  0  0  0  0
  145.5867   66.0304  219.4071 H   0  0  0  0  0  0  0  0  0  0  0  0
  147.3779   67.7419  219.0963 H   0  0  0  0  0  0  0  0  0  0  0  0
  146.7042   70.1324  218.8526 H   0  0  0  0  0  0  0  0  0  0  0  0
  142.2455   70.9055  218.9427 H   0  0  0  0  0  0  0  0  0  0  0  0
  143.3664   70.6101  221.2175 H   0  0  0  0  0  0  0  0  0  0  0  0
  143.7709   72.3349  221.2153 H   0  0  0  0  0  0  0  0  0  0  0  0
  140.9598   71.1794  220.8139 H   0  0  0  0  0  0  0  0  0  0  0  0
  141.5696   71.8406  222.3547 H   0  0  0  0  0  0  0  0  0  0  0  0
  139.4946   75.4241  220.4904 H   0  0  0  0  0  0  0  0  0  0  0  0
  139.2010   75.2550  223.3570 H   0  0  0  0  0  0  0  0  0  0  0  0
  138.0500   75.1120  222.1780 H   0  0  0  0  0  0  0  0  0  0  0  0
  141.9374   75.8675  222.0134 H   0  0  0  0  0  0  0  0  0  0  0  0
  143.5883   76.5647  220.6144 H   0  0  0  0  0  0  0  0  0  0  0  0
  144.4054   77.1361  218.3732 H   0  0  0  0  0  0  0  0  0  0  0  0
  142.7719   77.6139  216.5531 H   0  0  0  0  0  0  0  0  0  0  0  0
  140.3296   77.5093  217.0408 H   0  0  0  0  0  0  0  0  0  0  0  0
  139.5491   76.9325  219.3036 H   0  0  0  0  0  0  0  0  0  0  0  0
  142.4232   77.2934  223.6840 H   0  0  0  0  0  0  0  0  0  0  0  0
  141.9269   79.3123  225.0389 H   0  0  0  0  0  0  0  0  0  0  0  0
  139.9914   80.7131  224.3908 H   0  0  0  0  0  0  0  0  0  0  0  0
  139.0988   78.1206  221.1325 H   0  0  0  0  0  0  0  0  0  0  0  0
  140.9960   74.0832  218.9395 H   0  0  0  0  0  0  0  0  0  0  0  0
  142.4962   74.6441  219.8814 H   0  0  0  0  0  0  0  0  0  0  0  0
  142.2557   72.7987  217.7828 H   0  0  0  0  0  0  0  0  0  0  0  0
  143.7038   73.4536  218.7428 H   0  0  0  0  0  0  0  0  0  0  0  0
  1  2  1  0
  2  3  1  0
  3  4  2  0
  3  5  1  0
  5  6  1  0
  6  7  2  0
  7  8  1  0
  8  9  2  0
  9 10  1  0
 10 11  2  0
  5 12  1  0
 12 13  1  0
 13 14  1  0
 14 15  1  0
 15 16  1  0
 16 17  2  0
 16 18  1  0
 18 19  1  0
 18 20  1  0
 20 21  1  0
 21 22  2  0
 22 23  1  0
 23 24  2  0
 24 25  1  0
 25 26  2  0
 20 27  1  0
 27 28  2  0
 28 29  1  0
 29 30  2  0
 30 31  1  0
 31 32  1  0
 31 33  2  0
 15 34  1  0
 34 35  1  0
 11  6  1  0
 35 12  1  0
 26 21  1  0
 33 27  1  0
  1 36  1  0
  1 37  1  0
  1 38  1  0
  2 39  1  0
  2 40  1  0
  7 41  1  0
  8 42  1  0
  9 43  1  0
 10 44  1  0
 11 45  1  0
 12 46  1  0
 13 47  1  0
 13 48  1  0
 14 49  1  0
 14 50  1  0
 18 51  1  6
 19 52  1  0
 19 53  1  0
 20 54  1  1
 22 55  1  0
 23 56  1  0
 24 57  1  0
 25 58  1  0
 26 59  1  0
 28 60  1  0
 29 61  1  0
 30 62  1  0
 33 63  1  0
 34 64  1  0
 34 65  1  0
 35 66  1  0
 35 67  1  0
M  END
>  <smiles>  (79) 
CCC(=O)N(c1ccccc1)C1CCN(C(=O)[C@@H](N)C(c2ccccc2)c2cccc(F)c2)CC1

>  <score_type>  (79) 
oracle

>  <origin>  (79) 
autodockgpu

>  <m_score__min__energy>  (79) 
-8.2300000000000004

>  <m_primary>  (79) 
energy

>  <rmsd>  (79) 
5.454226512143364

>  <m_score__min__rmsd>  (79) 
5.454226512143364

>  <meeko>  (79) 
{"free_energy": -7.56, "intermolecular_energy": -10.25, "internal_energy": -3.22, "cluster_size": 27, "cluster_id": 1, "rank_in_cluster": 20}

>  <energy>  (79) 
-8.02

>  <cluster_rmsd>  (79) 
0.0

>  <cluster>  (79) 
3

$$$$

     RDKit          3D

 67 70  0  0  0  0  0  0  0  0999 V2000
  141.0840   67.9690  227.9580 C   0  0  0  0  0  0  0  0  0  0  0  0
  141.3500   67.7760  226.4840 C   0  0  0  0  0  0  0  0  0  0  0  0
  140.0850   68.0310  225.7520 C   0  0  0  0  0  0  0  0  0  0  0  0
  139.4400   67.0210  225.3680 O   0  0  0  0  0  0  0  0  0  0  0  0
  139.6690   69.3680  225.5210 N   0  0  0  0  0  0  0  0  0  0  0  0
  140.2680   70.4620  226.2370 C   0  0  0  0  0  0  0  0  0  0  0  0
  141.3000   71.2090  225.7130 C   0  0  0  0  0  0  0  0  0  0  0  0
  141.8060   72.2520  226.4930 C   0  0  0  0  0  0  0  0  0  0  0  0
  141.2750   72.5090  227.7460 C   0  0  0  0  0  0  0  0  0  0  0  0
  140.2340   71.7500  228.2670 C   0  0  0  0  0  0  0  0  0  0  0  0
  139.7410   70.7200  227.4870 C   0  0  0  0  0  0  0  0  0  0  0  0
  138.6370   69.7110  224.5710 C   0  0  0  0  0  0  0  0  0  0  0  0
  137.2980   69.4520  225.2460 C   0  0  0  0  0  0  0  0  0  0  0  0
  136.2570   69.6520  224.1910 C   0  0  0  0  0  0  0  0  0  0  0  0
  136.2960   71.0740  223.7810 N   0  0  0  0  0  0  0  0  0  0  0  0
  135.0360   71.6060  223.4210 C   0  0  0  0  0  0  0  0  0  0  0  0
  134.0490   70.7970  223.5020 O   0  0  0  0  0  0  0  0  0  0  0  0
  134.7330   72.9680  222.9690 C   0  0  1  0  0  0  0  0  0  0  0  0
  133.3490   73.1210  222.6740 N   0  0  0  0  0  0  0  0  0  0  0  0
  135.2420   73.9910  223.9620 C   0  0  1  0  0  0  0  0  0  0  0  0
  135.5600   75.2640  223.2810 C   0  0  0  0  0  0  0  0  0  0  0  0
  134.5750   75.9180  222.5590 C   0  0  0  0  0  0  0  0  0  0  0  0
  134.7890   77.1010  221.8970 C   0  0  0  0  0  0  0  0  0  0  0  0
  136.0420   77.6800  221.9460 C   0  0  0  0  0  0  0  0  0  0  0  0
  137.0530   77.0540  222.6580 C   0  0  0  0  0  0  0  0  0  0  0  0
  136.7990   75.8660  223.3090 C   0  0  0  0  0  0  0  0  0  0  0  0
  134.3420   74.1950  225.1210 C   0  0  0  0  0  0  0  0  0  0  0  0
  133.6530   73.1550  225.7180 C   0  0  0  0  0  0  0  0  0  0  0  0
  132.8110   73.3330  226.7980 C   0  0  0  0  0  0  0  0  0  0  0  0
  132.6760   74.6180  227.2780 C   0  0  0  0  0  0  0  0  0  0  0  0
  133.3300   75.7040  226.7350 C   0  0  0  0  0  0  0  0  0  0  0  0
  133.1370   76.9330  227.2740 F   0  0  0  0  0  0  0  0  0  0  0  0
  134.1570   75.4640  225.6570 C   0  0  0  0  0  0  0  0  0  0  0  0
  137.5110   71.8340  223.7550 C   0  0  0  0  0  0  0  0  0  0  0  0
  138.7550   71.1390  224.1470 C   0  0  0  0  0  0  0  0  0  0  0  0
  141.8387   67.4214  228.5416 H   0  0  0  0  0  0  0  0  0  0  0  0
  141.1372   69.0400  228.2030 H   0  0  0  0  0  0  0  0  0  0  0  0
  140.0823   67.5861  228.2030 H   0  0  0  0  0  0  0  0  0  0  0  0
  142.1240   68.4822  226.1489 H   0  0  0  0  0  0  0  0  0  0  0  0
  141.7035   66.7525  226.2905 H   0  0  0  0  0  0  0  0  0  0  0  0
  141.7111   70.9921  224.7160 H   0  0  0  0  0  0  0  0  0  0  0  0
  142.6300   72.8719  226.1100 H   0  0  0  0  0  0  0  0  0  0  0  0
  141.6877   73.3349  228.3440 H   0  0  0  0  0  0  0  0  0  0  0  0
  139.8175   71.9607  229.2631 H   0  0  0  0  0  0  0  0  0  0  0  0
  138.9177   70.0976  227.8675 H   0  0  0  0  0  0  0  0  0  0  0  0
  138.7330   69.1010  223.6607 H   0  0  0  0  0  0  0  0  0  0  0  0
  137.2577   68.4228  225.6320 H   0  0  0  0  0  0  0  0  0  0  0  0
  137.1405   70.1277  226.0996 H   0  0  0  0  0  0  0  0  0  0  0  0
  136.4719   69.0071  223.3262 H   0  0  0  0  0  0  0  0  0  0  0  0
  135.2614   69.3910  224.5791 H   0  0  0  0  0  0  0  0  0  0  0  0
  135.2685   73.1492  222.0254 H   0  0  0  0  0  0  0  0  0  0  0  0
  132.8110   73.2050  223.5630 H   0  0  0  0  0  0  0  0  0  0  0  0
  132.9680   72.2280  222.2380 H   0  0  0  0  0  0  0  0  0  0  0  0
  136.1693   73.5799  224.3875 H   0  0  0  0  0  0  0  0  0  0  0  0
  133.5726   75.4672  222.5141 H   0  0  0  0  0  0  0  0  0  0  0  0
  133.9742   77.5812  221.3354 H   0  0  0  0  0  0  0  0  0  0  0  0
  136.2357   78.6291  221.4248 H   0  0  0  0  0  0  0  0  0  0  0  0
  138.0556   77.5042  222.7034 H   0  0  0  0  0  0  0  0  0  0  0  0
  137.6126   75.3824  223.8696 H   0  0  0  0  0  0  0  0  0  0  0  0
  133.7815   72.1399  225.3142 H   0  0  0  0  0  0  0  0  0  0  0  0
  132.2732   72.4887  227.2539 H   0  0  0  0  0  0  0  0  0  0  0  0
  132.0121   74.7860  228.1389 H   0  0  0  0  0  0  0  0  0  0  0  0
  134.6917   76.3115  225.2033 H   0  0  0  0  0  0  0  0  0  0  0  0
  137.6482   72.2023  222.7276 H   0  0  0  0  0  0  0  0  0  0  0  0
  137.3717   72.6143  224.5177 H   0  0  0  0  0  0  0  0  0  0  0  0
  139.4380   71.1726  223.2854 H   0  0  0  0  0  0  0  0  0  0  0  0
  139.1062   71.6718  225.0430 H   0  0  0  0  0  0  0  0  0  0  0  0
  1  2  1  0
  2  3  1  0
  3  4  2  0
  3  5  1  0
  5  6  1  0
  6  7  2  0
  7  8  1  0
  8  9  2  0
  9 10  1  0
 10 11  2  0
  5 12  1  0
 12 13  1  0
 13 14  1  0
 14 15  1  0
 15 16  1  0
 16 17  2  0
 16 18  1  0
 18 19  1  0
 18 20  1  0
 20 21  1  0
 21 22  2  0
 22 23  1  0
 23 24  2  0
 24 25  1  0
 25 26  2  0
 20 27  1  0
 27 28  2  0
 28 29  1  0
 29 30  2  0
 30 31  1  0
 31 32  1  0
 31 33  2  0
 15 34  1  0
 34 35  1  0
 11  6  1  0
 35 12  1  0
 26 21  1  0
 33 27  1  0
  1 36  1  0
  1 37  1  0
  1 38  1  0
  2 39  1  0
  2 40  1  0
  7 41  1  0
  8 42  1  0
  9 43  1  0
 10 44  1  0
 11 45  1  0
 12 46  1  0
 13 47  1  0
 13 48  1  0
 14 49  1  0
 14 50  1  0
 18 51  1  6
 19 52  1  0
 19 53  1  0
 20 54  1  1
 22 55  1  0
 23 56  1  0
 24 57  1  0
 25 58  1  0
 26 59  1  0
 28 60  1  0
 29 61  1  0
 30 62  1  0
 33 63  1  0
 34 64  1  0
 34 65  1  0
 35 66  1  0
 35 67  1  0
M  END
>  <smiles>  (80) 
CCC(=O)N(c1ccccc1)C1CCN(C(=O)[C@@H](N)C(c2ccccc2)c2cccc(F)c2)CC1

>  <score_type>  (80) 
oracle

>  <origin>  (80) 
autodockgpu

>  <m_score__min__energy>  (80) 
-8.2300000000000004

>  <m_primary>  (80) 
energy

>  <rmsd>  (80) 
8.459117471371727

>  <m_score__min__rmsd>  (80) 
8.459117471371727

>  <meeko>  (80) 
{"free_energy": -7.14, "intermolecular_energy": -9.83, "internal_energy": -2.99, "cluster_size": 2, "cluster_id": 5, "rank_in_cluster": 1}

>  <energy>  (80) 
-7.89

>  <cluster_rmsd>  (80) 
0.23

>  <cluster>  (80) 
3

$$$$

     RDKit          3D

 67 70  0  0  0  0  0  0  0  0999 V2000
  141.4140   81.7180  220.2660 C   0  0  0  0  0  0  0  0  0  0  0  0
  140.0830   81.7940  220.9760 C   0  0  0  0  0  0  0  0  0  0  0  0
  140.3120   81.5040  222.4130 C   0  0  0  0  0  0  0  0  0  0  0  0
  141.3710   81.9570  222.9210 O   0  0  0  0  0  0  0  0  0  0  0  0
  139.3520   80.7470  223.1350 N   0  0  0  0  0  0  0  0  0  0  0  0
  138.2210   81.3860  223.7510 C   0  0  0  0  0  0  0  0  0  0  0  0
  137.5070   82.3850  223.1250 C   0  0  0  0  0  0  0  0  0  0  0  0
  136.4220   82.9350  223.8130 C   0  0  0  0  0  0  0  0  0  0  0  0
  136.0920   82.4780  225.0780 C   0  0  0  0  0  0  0  0  0  0  0  0
  136.8180   81.4700  225.7020 C   0  0  0  0  0  0  0  0  0  0  0  0
  137.8900   80.9340  225.0130 C   0  0  0  0  0  0  0  0  0  0  0  0
  139.4470   79.3160  223.2950 C   0  0  0  0  0  0  0  0  0  0  0  0
  138.5760   78.6820  222.2210 C   0  0  0  0  0  0  0  0  0  0  0  0
  138.5570   77.2160  222.5140 C   0  0  0  0  0  0  0  0  0  0  0  0
  139.9370   76.7040  222.3460 N   0  0  0  0  0  0  0  0  0  0  0  0
  140.0060   75.3800  221.8550 C   0  0  0  0  0  0  0  0  0  0  0  0
  138.8810   74.8150  221.6230 O   0  0  0  0  0  0  0  0  0  0  0  0
  141.2070   74.5850  221.5830 C   0  0  1  0  0  0  0  0  0  0  0  0
  141.0450   73.2350  222.0040 N   0  0  0  0  0  0  0  0  0  0  0  0
  141.6160   74.7050  220.1300 C   0  0  1  0  0  0  0  0  0  0  0  0
  141.4490   76.0950  219.6550 C   0  0  0  0  0  0  0  0  0  0  0  0
  140.2850   76.4570  218.9970 C   0  0  0  0  0  0  0  0  0  0  0  0
  140.0530   77.7240  218.5240 C   0  0  0  0  0  0  0  0  0  0  0  0
  141.0170   78.6950  218.7060 C   0  0  0  0  0  0  0  0  0  0  0  0
  142.1960   78.3700  219.3600 C   0  0  0  0  0  0  0  0  0  0  0  0
  142.3910   77.0850  219.8200 C   0  0  0  0  0  0  0  0  0  0  0  0
  142.9750   74.1850  219.8490 C   0  0  0  0  0  0  0  0  0  0  0  0
  143.3400   73.6960  218.6080 C   0  0  0  0  0  0  0  0  0  0  0  0
  144.6020   73.2080  218.3330 C   0  0  0  0  0  0  0  0  0  0  0  0
  145.5150   73.2250  219.3670 C   0  0  0  0  0  0  0  0  0  0  0  0
  145.2230   73.6970  220.6290 C   0  0  0  0  0  0  0  0  0  0  0  0
  146.1850   73.6750  221.5840 F   0  0  0  0  0  0  0  0  0  0  0  0
  143.9450   74.1710  220.8430 C   0  0  0  0  0  0  0  0  0  0  0  0
  141.0920   77.4930  222.6570 C   0  0  0  0  0  0  0  0  0  0  0  0
  140.8640   78.8590  223.1740 C   0  0  0  0  0  0  0  0  0  0  0  0
  142.2238   81.6718  221.0090 H   0  0  0  0  0  0  0  0  0  0  0  0
  141.4426   80.8168  219.6360 H   0  0  0  0  0  0  0  0  0  0  0  0
  141.5450   82.6101  219.6360 H   0  0  0  0  0  0  0  0  0  0  0  0
  139.6562   82.8014  220.8620 H   0  0  0  0  0  0  0  0  0  0  0  0
  139.3791   81.0657  220.5469 H   0  0  0  0  0  0  0  0  0  0  0  0
  137.7814   82.7369  222.1196 H   0  0  0  0  0  0  0  0  0  0  0  0
  135.8272   83.7347  223.3475 H   0  0  0  0  0  0  0  0  0  0  0  0
  135.2338   82.9238  225.6022 H   0  0  0  0  0  0  0  0  0  0  0  0
  136.5494   81.1121  226.7069 H   0  0  0  0  0  0  0  0  0  0  0  0
  138.4880   80.1358  225.4769 H   0  0  0  0  0  0  0  0  0  0  0  0
  139.1014   79.0164  224.2954 H   0  0  0  0  0  0  0  0  0  0  0  0
  137.5567   79.0931  222.2643 H   0  0  0  0  0  0  0  0  0  0  0  0
  138.9685   78.8853  221.2137 H   0  0  0  0  0  0  0  0  0  0  0  0
  138.2172   77.0448  223.5461 H   0  0  0  0  0  0  0  0  0  0  0  0
  137.8680   76.6962  221.8320 H   0  0  0  0  0  0  0  0  0  0  0  0
  142.0354   74.9933  222.1805 H   0  0  0  0  0  0  0  0  0  0  0  0
  141.1900   72.5980  221.1920 H   0  0  0  0  0  0  0  0  0  0  0  0
  140.0310   73.0580  222.2780 H   0  0  0  0  0  0  0  0  0  0  0  0
  140.9362   74.0556  219.5588 H   0  0  0  0  0  0  0  0  0  0  0  0
  139.5092   75.6918  218.8464 H   0  0  0  0  0  0  0  0  0  0  0  0
  139.1118   77.9626  218.0070 H   0  0  0  0  0  0  0  0  0  0  0  0
  140.8516   79.7175  218.3356 H   0  0  0  0  0  0  0  0  0  0  0  0
  142.9724   79.1344  219.5111 H   0  0  0  0  0  0  0  0  0  0  0  0
  143.3315   76.8426  220.3365 H   0  0  0  0  0  0  0  0  0  0  0  0
  142.5904   73.6958  217.8029 H   0  0  0  0  0  0  0  0  0  0  0  0
  144.8668   72.8239  217.3368 H   0  0  0  0  0  0  0  0  0  0  0  0
  146.5282   72.8422  219.1747 H   0  0  0  0  0  0  0  0  0  0  0  0
  143.6839   74.5531  221.8409 H   0  0  0  0  0  0  0  0  0  0  0  0
  141.6710   76.9456  223.4154 H   0  0  0  0  0  0  0  0  0  0  0  0
  141.6009   77.6386  221.6928 H   0  0  0  0  0  0  0  0  0  0  0  0
  141.3158   78.9134  224.1755 H   0  0  0  0  0  0  0  0  0  0  0  0
  141.3133   79.5250  222.4226 H   0  0  0  0  0  0  0  0  0  0  0  0
  1  2  1  0
  2  3  1  0
  3  4  2  0
  3  5  1  0
  5  6  1  0
  6  7  2  0
  7  8  1  0
  8  9  2  0
  9 10  1  0
 10 11  2  0
  5 12  1  0
 12 13  1  0
 13 14  1  0
 14 15  1  0
 15 16  1  0
 16 17  2  0
 16 18  1  0
 18 19  1  0
 18 20  1  0
 20 21  1  0
 21 22  2  0
 22 23  1  0
 23 24  2  0
 24 25  1  0
 25 26  2  0
 20 27  1  0
 27 28  2  0
 28 29  1  0
 29 30  2  0
 30 31  1  0
 31 32  1  0
 31 33  2  0
 15 34  1  0
 34 35  1  0
 11  6  1  0
 35 12  1  0
 26 21  1  0
 33 27  1  0
  1 36  1  0
  1 37  1  0
  1 38  1  0
  2 39  1  0
  2 40  1  0
  7 41  1  0
  8 42  1  0
  9 43  1  0
 10 44  1  0
 11 45  1  0
 12 46  1  0
 13 47  1  0
 13 48  1  0
 14 49  1  0
 14 50  1  0
 18 51  1  1
 19 52  1  0
 19 53  1  0
 20 54  1  6
 22 55  1  0
 23 56  1  0
 24 57  1  0
 25 58  1  0
 26 59  1  0
 28 60  1  0
 29 61  1  0
 30 62  1  0
 33 63  1  0
 34 64  1  0
 34 65  1  0
 35 66  1  0
 35 67  1  0
M  END
>  <smiles>  (81) 
CCC(=O)N(c1ccccc1)C1CCN(C(=O)[C@@H](N)C(c2ccccc2)c2cccc(F)c2)CC1

>  <score_type>  (81) 
oracle

>  <origin>  (81) 
autodockgpu

>  <m_score__min__energy>  (81) 
-8.2300000000000004

>  <m_primary>  (81) 
energy

>  <rmsd>  (81) 
5.4456694345367875

>  <m_score__min__rmsd>  (81) 
5.4456694345367875

>  <meeko>  (81) 
{"free_energy": -6.36, "intermolecular_energy": -9.04, "internal_energy": -3.81, "cluster_size": 6, "cluster_id": 6, "rank_in_cluster": 6}

>  <energy>  (81) 
-7.88

>  <cluster_rmsd>  (81) 
0.0

>  <cluster>  (81) 
4

$$$$

     RDKit          3D

 67 70  0  0  0  0  0  0  0  0999 V2000
  146.3130   73.7510  221.2330 C   0  0  0  0  0  0  0  0  0  0  0  0
  145.7870   72.5380  220.5040 C   0  0  0  0  0  0  0  0  0  0  0  0
  145.1670   72.9960  219.2360 C   0  0  0  0  0  0  0  0  0  0  0  0
  145.8940   72.9740  218.2100 O   0  0  0  0  0  0  0  0  0  0  0  0
  143.8150   73.4310  219.2370 N   0  0  0  0  0  0  0  0  0  0  0  0
  142.7740   72.6020  219.7820 C   0  0  0  0  0  0  0  0  0  0  0  0
  142.2850   71.5000  219.1150 C   0  0  0  0  0  0  0  0  0  0  0  0
  141.2750   70.7610  219.7380 C   0  0  0  0  0  0  0  0  0  0  0  0
  140.7970   71.1410  220.9810 C   0  0  0  0  0  0  0  0  0  0  0  0
  141.2960   72.2540  221.6460 C   0  0  0  0  0  0  0  0  0  0  0  0
  142.2950   72.9780  221.0210 C   0  0  0  0  0  0  0  0  0  0  0  0
  143.4050   74.7070  218.7000 C   0  0  0  0  0  0  0  0  0  0  0  0
  141.8960   74.6510  218.5060 C   0  0  0  0  0  0  0  0  0  0  0  0
  141.5240   75.9130  217.7960 C   0  0  0  0  0  0  0  0  0  0  0  0
  141.8290   77.0470  218.6980 N   0  0  0  0  0  0  0  0  0  0  0  0
  140.9390   78.1390  218.5750 C   0  0  0  0  0  0  0  0  0  0  0  0
  140.0020   77.9960  217.7150 O   0  0  0  0  0  0  0  0  0  0  0  0
  140.9640   79.4060  219.3140 C   0  0  1  0  0  0  0  0  0  0  0  0
  140.5040   80.4860  218.5090 N   0  0  0  0  0  0  0  0  0  0  0  0
  140.2140   79.2820  220.6220 C   0  0  1  0  0  0  0  0  0  0  0  0
  139.8920   77.8670  220.9070 C   0  0  0  0  0  0  0  0  0  0  0  0
  140.7540   77.1140  221.6880 C   0  0  0  0  0  0  0  0  0  0  0  0
  140.5290   75.7960  221.9970 C   0  0  0  0  0  0  0  0  0  0  0  0
  139.3930   75.1780  221.5130 C   0  0  0  0  0  0  0  0  0  0  0  0
  138.5080   75.9000  220.7280 C   0  0  0  0  0  0  0  0  0  0  0  0
  138.7690   77.2220  220.4390 C   0  0  0  0  0  0  0  0  0  0  0  0
  140.8980   79.9330  221.7640 C   0  0  0  0  0  0  0  0  0  0  0  0
  140.2070   80.6030  222.7590 C   0  0  0  0  0  0  0  0  0  0  0  0
  140.8330   81.2140  223.8270 C   0  0  0  0  0  0  0  0  0  0  0  0
  142.2090   81.1330  223.8730 C   0  0  0  0  0  0  0  0  0  0  0  0
  142.9630   80.4830  222.9190 C   0  0  0  0  0  0  0  0  0  0  0  0
  144.3120   80.4540  223.0470 F   0  0  0  0  0  0  0  0  0  0  0  0
  142.2820   79.8920  221.8750 C   0  0  0  0  0  0  0  0  0  0  0  0
  142.9330   77.0270  219.6110 C   0  0  0  0  0  0  0  0  0  0  0  0
  143.7860   75.8200  219.6200 C   0  0  0  0  0  0  0  0  0  0  0  0
  146.2415   73.5862  222.3182 H   0  0  0  0  0  0  0  0  0  0  0  0
  147.3644   73.9180  220.9560 H   0  0  0  0  0  0  0  0  0  0  0  0
  145.7164   74.6326  220.9560 H   0  0  0  0  0  0  0  0  0  0  0  0
  146.6139   71.8461  220.2862 H   0  0  0  0  0  0  0  0  0  0  0  0
  145.0451   72.0128  221.1234 H   0  0  0  0  0  0  0  0  0  0  0  0
  142.6753   71.2120  218.1277 H   0  0  0  0  0  0  0  0  0  0  0  0
  140.8581   69.8739  219.2388 H   0  0  0  0  0  0  0  0  0  0  0  0
  140.0017   70.5462  221.4540 H   0  0  0  0  0  0  0  0  0  0  0  0
  140.9107   72.5486  222.6333 H   0  0  0  0  0  0  0  0  0  0  0  0
  142.7136   73.8656  221.5179 H   0  0  0  0  0  0  0  0  0  0  0  0
  143.9085   74.9022  217.7417 H   0  0  0  0  0  0  0  0  0  0  0  0
  141.6210   73.7758  217.8990 H   0  0  0  0  0  0  0  0  0  0  0  0
  141.3696   74.5598  219.4675 H   0  0  0  0  0  0  0  0  0  0  0  0
  142.1070   76.0059  216.8679 H   0  0  0  0  0  0  0  0  0  0  0  0
  140.4554   75.9063  217.5353 H   0  0  0  0  0  0  0  0  0  0  0  0
  142.0081   79.6394  219.5697 H   0  0  0  0  0  0  0  0  0  0  0  0
  139.5870   80.8230  218.8730 H   0  0  0  0  0  0  0  0  0  0  0  0
  140.2680   80.1370  217.5310 H   0  0  0  0  0  0  0  0  0  0  0  0
  139.2723   79.8365  220.4962 H   0  0  0  0  0  0  0  0  0  0  0  0
  141.6622   77.5958  222.0791 H   0  0  0  0  0  0  0  0  0  0  0  0
  141.2436   75.2397  222.6214 H   0  0  0  0  0  0  0  0  0  0  0  0
  139.1923   74.1224  221.7483 H   0  0  0  0  0  0  0  0  0  0  0  0
  137.5994   75.4190  220.3366 H   0  0  0  0  0  0  0  0  0  0  0  0
  138.0567   77.7804  219.8138 H   0  0  0  0  0  0  0  0  0  0  0  0
  139.1099   80.6507  222.6958 H   0  0  0  0  0  0  0  0  0  0  0  0
  140.2610   81.7409  224.6050 H   0  0  0  0  0  0  0  0  0  0  0  0
  142.7319   81.6116  224.7141 H   0  0  0  0  0  0  0  0  0  0  0  0
  142.8583   79.3670  221.0990 H   0  0  0  0  0  0  0  0  0  0  0  0
  143.5775   77.8848  219.3683 H   0  0  0  0  0  0  0  0  0  0  0  0
  142.4728   77.0538  220.6097 H   0  0  0  0  0  0  0  0  0  0  0  0
  144.8062   76.1340  219.3544 H   0  0  0  0  0  0  0  0  0  0  0  0
  143.6744   75.4020  220.6314 H   0  0  0  0  0  0  0  0  0  0  0  0
  1  2  1  0
  2  3  1  0
  3  4  2  0
  3  5  1  0
  5  6  1  0
  6  7  2  0
  7  8  1  0
  8  9  2  0
  9 10  1  0
 10 11  2  0
  5 12  1  0
 12 13  1  0
 13 14  1  0
 14 15  1  0
 15 16  1  0
 16 17  2  0
 16 18  1  0
 18 19  1  0
 18 20  1  0
 20 21  1  0
 21 22  2  0
 22 23  1  0
 23 24  2  0
 24 25  1  0
 25 26  2  0
 20 27  1  0
 27 28  2  0
 28 29  1  0
 29 30  2  0
 30 31  1  0
 31 32  1  0
 31 33  2  0
 15 34  1  0
 34 35  1  0
 11  6  1  0
 35 12  1  0
 26 21  1  0
 33 27  1  0
  1 36  1  0
  1 37  1  0
  1 38  1  0
  2 39  1  0
  2 40  1  0
  7 41  1  0
  8 42  1  0
  9 43  1  0
 10 44  1  0
 11 45  1  0
 12 46  1  0
 13 47  1  0
 13 48  1  0
 14 49  1  0
 14 50  1  0
 18 51  1  1
 19 52  1  0
 19 53  1  0
 20 54  1  6
 22 55  1  0
 23 56  1  0
 24 57  1  0
 25 58  1  0
 26 59  1  0
 28 60  1  0
 29 61  1  0
 30 62  1  0
 33 63  1  0
 34 64  1  0
 34 65  1  0
 35 66  1  0
 35 67  1  0
M  END
>  <smiles>  (82) 
CCC(=O)N(c1ccccc1)C1CCN(C(=O)[C@@H](N)C(c2ccccc2)c2cccc(F)c2)CC1

>  <score_type>  (82) 
oracle

>  <origin>  (82) 
autodockgpu

>  <m_score__min__energy>  (82) 
-8.2300000000000004

>  <m_primary>  (82) 
energy

>  <rmsd>  (82) 
5.003786547953052

>  <m_score__min__rmsd>  (82) 
5.003786547953052

>  <meeko>  (82) 
{"free_energy": -6.12, "intermolecular_energy": -8.81, "internal_energy": -3.91, "cluster_size": 3, "cluster_id": 9, "rank_in_cluster": 3}

>  <energy>  (82) 
-7.14

>  <cluster_rmsd>  (82) 
0.0

>  <cluster>  (82) 
5

$$$$

     RDKit          3D

 67 70  0  0  0  0  0  0  0  0999 V2000
  137.8820   80.8800  223.4160 C   0  0  0  0  0  0  0  0  0  0  0  0
  137.6550   80.0190  222.1960 C   0  0  0  0  0  0  0  0  0  0  0  0
  137.9950   78.6190  222.5510 C   0  0  0  0  0  0  0  0  0  0  0  0
  137.0960   77.9430  223.1150 O   0  0  0  0  0  0  0  0  0  0  0  0
  139.2880   78.1150  222.2490 N   0  0  0  0  0  0  0  0  0  0  0  0
  140.4660   78.8900  222.5300 C   0  0  0  0  0  0  0  0  0  0  0  0
  140.9760   79.0180  223.8040 C   0  0  0  0  0  0  0  0  0  0  0  0
  142.1290   79.7930  223.9650 C   0  0  0  0  0  0  0  0  0  0  0  0
  142.7220   80.4000  222.8700 C   0  0  0  0  0  0  0  0  0  0  0  0
  142.2000   80.2650  221.5890 C   0  0  0  0  0  0  0  0  0  0  0  0
  141.0580   79.4980  221.4410 C   0  0  0  0  0  0  0  0  0  0  0  0
  139.5000   76.8190  221.6500 C   0  0  0  0  0  0  0  0  0  0  0  0
  140.7000   76.1920  222.3440 C   0  0  0  0  0  0  0  0  0  0  0  0
  141.0000   74.9320  221.5950 C   0  0  0  0  0  0  0  0  0  0  0  0
  139.8460   74.0210  221.7630 N   0  0  0  0  0  0  0  0  0  0  0  0
  140.1930   72.6510  221.8060 C   0  0  0  0  0  0  0  0  0  0  0  0
  141.4420   72.3920  221.6990 O   0  0  0  0  0  0  0  0  0  0  0  0
  139.2950   71.5010  221.9580 C   0  0  1  0  0  0  0  0  0  0  0  0
  139.9620   70.2780  221.6660 N   0  0  0  0  0  0  0  0  0  0  0  0
  138.6390   71.5060  223.3220 C   0  0  1  0  0  0  0  0  0  0  0  0
  137.3430   70.7960  223.2790 C   0  0  0  0  0  0  0  0  0  0  0  0
  137.0740   69.9250  222.2360 C   0  0  0  0  0  0  0  0  0  0  0  0
  135.8970   69.2300  222.1220 C   0  0  0  0  0  0  0  0  0  0  0  0
  134.9240   69.3960  223.0870 C   0  0  0  0  0  0  0  0  0  0  0  0
  135.1570   70.2590  224.1470 C   0  0  0  0  0  0  0  0  0  0  0  0
  136.3530   70.9400  224.2250 C   0  0  0  0  0  0  0  0  0  0  0  0
  139.5130   70.9960  224.4050 C   0  0  0  0  0  0  0  0  0  0  0  0
  139.5570   69.6580  224.7550 C   0  0  0  0  0  0  0  0  0  0  0  0
  140.3660   69.1710  225.7620 C   0  0  0  0  0  0  0  0  0  0  0  0
  141.1530   70.0870  226.4270 C   0  0  0  0  0  0  0  0  0  0  0  0
  141.1630   71.4340  226.1330 C   0  0  0  0  0  0  0  0  0  0  0  0
  141.9710   72.2620  226.8400 F   0  0  0  0  0  0  0  0  0  0  0  0
  140.3320   71.8620  225.1170 C   0  0  0  0  0  0  0  0  0  0  0  0
  138.4990   74.4980  221.8710 C   0  0  0  0  0  0  0  0  0  0  0  0
  138.2870   75.9590  221.7960 C   0  0  0  0  0  0  0  0  0  0  0  0
  137.7235   80.2790  224.3236 H   0  0  0  0  0  0  0  0  0  0  0  0
  138.9124   81.2651  223.4065 H   0  0  0  0  0  0  0  0  0  0  0  0
  137.1754   81.7230  223.4065 H   0  0  0  0  0  0  0  0  0  0  0  0
  136.6010   80.0800  221.8873 H   0  0  0  0  0  0  0  0  0  0  0  0
  138.2843   80.3648  221.3627 H   0  0  0  0  0  0  0  0  0  0  0  0
  140.4937   78.5284  224.6629 H   0  0  0  0  0  0  0  0  0  0  0  0
  142.5671   79.9212  224.9658 H   0  0  0  0  0  0  0  0  0  0  0  0
  143.6292   81.0042  223.0182 H   0  0  0  0  0  0  0  0  0  0  0  0
  142.6772   80.7500  220.7247 H   0  0  0  0  0  0  0  0  0  0  0  0
  140.6157   79.3709  220.4419 H   0  0  0  0  0  0  0  0  0  0  0  0
  139.6893   76.9190  220.5710 H   0  0  0  0  0  0  0  0  0  0  0  0
  141.5625   76.8736  222.3056 H   0  0  0  0  0  0  0  0  0  0  0  0
  140.4905   75.9892  223.4046 H   0  0  0  0  0  0  0  0  0  0  0  0
  141.1473   75.1567  220.5283 H   0  0  0  0  0  0  0  0  0  0  0  0
  141.9181   74.4647  221.9807 H   0  0  0  0  0  0  0  0  0  0  0  0
  138.4862   71.5910  221.2178 H   0  0  0  0  0  0  0  0  0  0  0  0
  140.4360   69.9280  222.5260 H   0  0  0  0  0  0  0  0  0  0  0  0
  140.7700   70.4550  220.9950 H   0  0  0  0  0  0  0  0  0  0  0  0
  138.4525   72.5599  223.5762 H   0  0  0  0  0  0  0  0  0  0  0  0
  137.8420   69.7838  221.4612 H   0  0  0  0  0  0  0  0  0  0  0  0
  135.7308   68.5499  221.2735 H   0  0  0  0  0  0  0  0  0  0  0  0
  133.9725   68.8487  223.0157 H   0  0  0  0  0  0  0  0  0  0  0  0
  134.3901   70.3997  224.9230 H   0  0  0  0  0  0  0  0  0  0  0  0
  136.5222   71.6215  225.0717 H   0  0  0  0  0  0  0  0  0  0  0  0
  138.9184   68.9503  224.2060 H   0  0  0  0  0  0  0  0  0  0  0  0
  140.3819   68.1022  226.0216 H   0  0  0  0  0  0  0  0  0  0  0  0
  141.8068   69.7244  227.2339 H   0  0  0  0  0  0  0  0  0  0  0  0
  140.3182   72.9318  224.8614 H   0  0  0  0  0  0  0  0  0  0  0  0
  137.9198   74.0383  221.0566 H   0  0  0  0  0  0  0  0  0  0  0  0
  138.1824   74.2194  222.8870 H   0  0  0  0  0  0  0  0  0  0  0  0
  137.6365   76.1549  220.9308 H   0  0  0  0  0  0  0  0  0  0  0  0
  137.8608   76.2338  222.7721 H   0  0  0  0  0  0  0  0  0  0  0  0
  1  2  1  0
  2  3  1  0
  3  4  2  0
  3  5  1  0
  5  6  1  0
  6  7  2  0
  7  8  1  0
  8  9  2  0
  9 10  1  0
 10 11  2  0
  5 12  1  0
 12 13  1  0
 13 14  1  0
 14 15  1  0
 15 16  1  0
 16 17  2  0
 16 18  1  0
 18 19  1  0
 18 20  1  0
 20 21  1  0
 21 22  2  0
 22 23  1  0
 23 24  2  0
 24 25  1  0
 25 26  2  0
 20 27  1  0
 27 28  2  0
 28 29  1  0
 29 30  2  0
 30 31  1  0
 31 32  1  0
 31 33  2  0
 15 34  1  0
 34 35  1  0
 11  6  1  0
 35 12  1  0
 26 21  1  0
 33 27  1  0
  1 36  1  0
  1 37  1  0
  1 38  1  0
  2 39  1  0
  2 40  1  0
  7 41  1  0
  8 42  1  0
  9 43  1  0
 10 44  1  0
 11 45  1  0
 12 46  1  0
 13 47  1  0
 13 48  1  0
 14 49  1  0
 14 50  1  0
 18 51  1  6
 19 52  1  0
 19 53  1  0
 20 54  1  1
 22 55  1  0
 23 56  1  0
 24 57  1  0
 25 58  1  0
 26 59  1  0
 28 60  1  0
 29 61  1  0
 30 62  1  0
 33 63  1  0
 34 64  1  0
 34 65  1  0
 35 66  1  0
 35 67  1  0
M  END
>  <smiles>  (83) 
CCC(=O)N(c1ccccc1)C1CCN(C(=O)[C@@H](N)C(c2ccccc2)c2cccc(F)c2)CC1

>  <score_type>  (83) 
oracle

>  <origin>  (83) 
autodockgpu

>  <m_score__min__energy>  (83) 
-8.2300000000000004

>  <m_primary>  (83) 
energy

>  <rmsd>  (83) 
8.658880011447623

>  <m_score__min__rmsd>  (83) 
8.658880011447623

>  <meeko>  (83) 
{"free_energy": -6.99, "intermolecular_energy": -9.67, "internal_energy": -3.04, "cluster_size": 1, "cluster_id": 8, "rank_in_cluster": 1}

>  <energy>  (83) 
-7.0

>  <cluster_rmsd>  (83) 
1.78

>  <cluster>  (83) 
5

$$$$

     RDKit          3D

 67 70  0  0  0  0  0  0  0  0999 V2000
  139.2030   66.2420  222.4640 C   0  0  0  0  0  0  0  0  0  0  0  0
  138.4590   67.5110  222.8050 C   0  0  0  0  0  0  0  0  0  0  0  0
  139.0590   68.0790  224.0370 C   0  0  0  0  0  0  0  0  0  0  0  0
  139.4550   67.2580  224.9050 O   0  0  0  0  0  0  0  0  0  0  0  0
  139.1580   69.4880  224.1810 N   0  0  0  0  0  0  0  0  0  0  0  0
  139.7120   70.0710  225.3730 C   0  0  0  0  0  0  0  0  0  0  0  0
  140.6660   71.0640  225.3330 C   0  0  0  0  0  0  0  0  0  0  0  0
  141.1340   71.5630  226.5510 C   0  0  0  0  0  0  0  0  0  0  0  0
  140.6440   71.0630  227.7460 C   0  0  0  0  0  0  0  0  0  0  0  0
  139.6820   70.0600  227.7770 C   0  0  0  0  0  0  0  0  0  0  0  0
  139.2260   69.5730  226.5660 C   0  0  0  0  0  0  0  0  0  0  0  0
  138.7170   70.4100  223.1610 C   0  0  0  0  0  0  0  0  0  0  0  0
  137.9190   71.5040  223.8560 C   0  0  0  0  0  0  0  0  0  0  0  0
  137.3350   72.3460  222.7670 C   0  0  0  0  0  0  0  0  0  0  0  0
  138.4550   72.9860  222.0400 N   0  0  0  0  0  0  0  0  0  0  0  0
  138.1600   74.2780  221.5470 C   0  0  0  0  0  0  0  0  0  0  0  0
  136.9820   74.7110  221.7970 O   0  0  0  0  0  0  0  0  0  0  0  0
  139.0400   75.1720  220.7880 C   0  0  1  0  0  0  0  0  0  0  0  0
  138.3140   76.2530  220.2140 N   0  0  0  0  0  0  0  0  0  0  0  0
  140.2070   75.6280  221.6380 C   0  0  1  0  0  0  0  0  0  0  0  0
  141.4600   75.6150  220.8530 C   0  0  0  0  0  0  0  0  0  0  0  0
  142.3320   74.5460  220.9770 C   0  0  0  0  0  0  0  0  0  0  0  0
  143.5150   74.4590  220.2860 C   0  0  0  0  0  0  0  0  0  0  0  0
  143.8640   75.4780  219.4230 C   0  0  0  0  0  0  0  0  0  0  0  0
  143.0170   76.5640  219.2730 C   0  0  0  0  0  0  0  0  0  0  0  0
  141.8370   76.6160  219.9850 C   0  0  0  0  0  0  0  0  0  0  0  0
  139.9840   76.9350  222.3010 C   0  0  0  0  0  0  0  0  0  0  0  0
  138.7210   77.4030  222.6140 C   0  0  0  0  0  0  0  0  0  0  0  0
  138.5010   78.6180  223.2320 C   0  0  0  0  0  0  0  0  0  0  0  0
  139.6140   79.3730  223.5360 C   0  0  0  0  0  0  0  0  0  0  0  0
  140.9030   78.9710  223.2550 C   0  0  0  0  0  0  0  0  0  0  0  0
  141.9380   79.7790  223.5930 F   0  0  0  0  0  0  0  0  0  0  0  0
  141.0600   77.7480  222.6370 C   0  0  0  0  0  0  0  0  0  0  0  0
  139.7220   72.3410  221.8590 C   0  0  0  0  0  0  0  0  0  0  0  0
  139.8800   70.9830  222.4210 C   0  0  0  0  0  0  0  0  0  0  0  0
  139.5021   65.7318  223.3915 H   0  0  0  0  0  0  0  0  0  0  0  0
  138.5496   65.5806  221.8761 H   0  0  0  0  0  0  0  0  0  0  0  0
  140.0992   66.4891  221.8761 H   0  0  0  0  0  0  0  0  0  0  0  0
  138.5516   68.2312  221.9787 H   0  0  0  0  0  0  0  0  0  0  0  0
  137.3919   67.2965  222.9642 H   0  0  0  0  0  0  0  0  0  0  0  0
  141.0459   71.4504  224.3757 H   0  0  0  0  0  0  0  0  0  0  0  0
  141.8954   72.3569  226.5610 H   0  0  0  0  0  0  0  0  0  0  0  0
  141.0255   71.4697  228.6942 H   0  0  0  0  0  0  0  0  0  0  0  0
  139.2976   69.6681  228.7302 H   0  0  0  0  0  0  0  0  0  0  0  0
  138.4658   68.7781  226.5525 H   0  0  0  0  0  0  0  0  0  0  0  0
  138.0928   69.8929  222.4174 H   0  0  0  0  0  0  0  0  0  0  0  0
  137.1188   71.0626  224.4682 H   0  0  0  0  0  0  0  0  0  0  0  0
  138.5541   72.0997  224.5281 H   0  0  0  0  0  0  0  0  0  0  0  0
  136.7531   71.7161  222.0781 H   0  0  0  0  0  0  0  0  0  0  0  0
  136.6646   73.1093  223.1889 H   0  0  0  0  0  0  0  0  0  0  0  0
  139.4642   74.6085  219.9439 H   0  0  0  0  0  0  0  0  0  0  0  0
  137.5720   76.5630  220.8780 H   0  0  0  0  0  0  0  0  0  0  0  0
  137.7620   75.9140  219.3690 H   0  0  0  0  0  0  0  0  0  0  0  0
  140.3009   74.9011  222.4582 H   0  0  0  0  0  0  0  0  0  0  0  0
  142.0639   73.7279  221.6617 H   0  0  0  0  0  0  0  0  0  0  0  0
  144.1755   73.5894  220.4182 H   0  0  0  0  0  0  0  0  0  0  0  0
  144.8070   75.4282  218.8589 H   0  0  0  0  0  0  0  0  0  0  0  0
  143.2848   77.3822  218.5882 H   0  0  0  0  0  0  0  0  0  0  0  0
  141.1753   77.4851  219.8555 H   0  0  0  0  0  0  0  0  0  0  0  0
  137.8519   76.7788  222.3590 H   0  0  0  0  0  0  0  0  0  0  0  0
  137.4856   78.9672  223.4706 H   0  0  0  0  0  0  0  0  0  0  0  0
  139.4663   80.3458  224.0278 H   0  0  0  0  0  0  0  0  0  0  0  0
  142.0772   77.4024  222.4007 H   0  0  0  0  0  0  0  0  0  0  0  0
  139.9065   72.2738  220.7767 H   0  0  0  0  0  0  0  0  0  0  0  0
  140.4366   72.9622  222.4188 H   0  0  0  0  0  0  0  0  0  0  0  0
  140.1077   70.3040  221.5861 H   0  0  0  0  0  0  0  0  0  0  0  0
  140.6753   71.0795  223.1748 H   0  0  0  0  0  0  0  0  0  0  0  0
  1  2  1  0
  2  3  1  0
  3  4  2  0
  3  5  1  0
  5  6  1  0
  6  7  2  0
  7  8  1  0
  8  9  2  0
  9 10  1  0
 10 11  2  0
  5 12  1  0
 12 13  1  0
 13 14  1  0
 14 15  1  0
 15 16  1  0
 16 17  2  0
 16 18  1  0
 18 19  1  0
 18 20  1  0
 20 21  1  0
 21 22  2  0
 22 23  1  0
 23 24  2  0
 24 25  1  0
 25 26  2  0
 20 27  1  0
 27 28  2  0
 28 29  1  0
 29 30  2  0
 30 31  1  0
 31 32  1  0
 31 33  2  0
 15 34  1  0
 34 35  1  0
 11  6  1  0
 35 12  1  0
 26 21  1  0
 33 27  1  0
  1 36  1  0
  1 37  1  0
  1 38  1  0
  2 39  1  0
  2 40  1  0
  7 41  1  0
  8 42  1  0
  9 43  1  0
 10 44  1  0
 11 45  1  0
 12 46  1  0
 13 47  1  0
 13 48  1  0
 14 49  1  0
 14 50  1  0
 18 51  1  6
 19 52  1  0
 19 53  1  0
 20 54  1  1
 22 55  1  0
 23 56  1  0
 24 57  1  0
 25 58  1  0
 26 59  1  0
 28 60  1  0
 29 61  1  0
 30 62  1  0
 33 63  1  0
 34 64  1  0
 34 65  1  0
 35 66  1  0
 35 67  1  0
M  END
>  <smiles>  (84) 
CCC(=O)N(c1ccccc1)C1CCN(C(=O)[C@@H](N)C(c2ccccc2)c2cccc(F)c2)CC1

>  <score_type>  (84) 
oracle

>  <origin>  (84) 
autodockgpu

>  <m_score__min__energy>  (84) 
-8.2300000000000004

>  <m_primary>  (84) 
energy

>  <rmsd>  (84) 
7.052927836595457

>  <m_score__min__rmsd>  (84) 
7.052927836595457

>  <meeko>  (84) 
{"free_energy": -8.02, "intermolecular_energy": -10.7, "internal_energy": -2.67, "cluster_size": 2, "cluster_id": 3, "rank_in_cluster": 1}

>  <energy>  (84) 
-7.07

>  <cluster_rmsd>  (84) 
0.0

>  <cluster>  (84) 
6

$$$$

     RDKit          3D

 67 70  0  0  0  0  0  0  0  0999 V2000
  145.4340   73.9530  220.5060 C   0  0  0  0  0  0  0  0  0  0  0  0
  146.1350   72.6390  220.2530 C   0  0  0  0  0  0  0  0  0  0  0  0
  145.4850   71.9880  219.0890 C   0  0  0  0  0  0  0  0  0  0  0  0
  145.9230   72.2960  217.9500 O   0  0  0  0  0  0  0  0  0  0  0  0
  144.4240   71.0700  219.3040 N   0  0  0  0  0  0  0  0  0  0  0  0
  144.6320   69.6540  219.1590 C   0  0  0  0  0  0  0  0  0  0  0  0
  143.5930   68.7500  219.1880 C   0  0  0  0  0  0  0  0  0  0  0  0
  143.9080   67.3970  219.0340 C   0  0  0  0  0  0  0  0  0  0  0  0
  145.2230   67.0000  218.8580 C   0  0  0  0  0  0  0  0  0  0  0  0
  146.2650   67.9200  218.8310 C   0  0  0  0  0  0  0  0  0  0  0  0
  145.9430   69.2560  218.9850 C   0  0  0  0  0  0  0  0  0  0  0  0
  143.0920   71.4880  219.6740 C   0  0  0  0  0  0  0  0  0  0  0  0
  143.0450   71.5520  221.1930 C   0  0  0  0  0  0  0  0  0  0  0  0
  141.6190   71.8210  221.5520 C   0  0  0  0  0  0  0  0  0  0  0  0
  141.2640   73.1580  221.0260 N   0  0  0  0  0  0  0  0  0  0  0  0
  140.3390   73.8680  221.8260 C   0  0  0  0  0  0  0  0  0  0  0  0
  139.9450   73.2650  222.8840 O   0  0  0  0  0  0  0  0  0  0  0  0
  139.7850   75.2040  221.5880 C   0  0  1  0  0  0  0  0  0  0  0  0
  138.7250   75.4960  222.4910 N   0  0  0  0  0  0  0  0  0  0  0  0
  140.8770   76.2520  221.6000 C   0  0  1  0  0  0  0  0  0  0  0  0
  141.3510   76.5270  220.2270 C   0  0  0  0  0  0  0  0  0  0  0  0
  142.7090   76.6710  219.9890 C   0  0  0  0  0  0  0  0  0  0  0  0
  143.2290   76.9300  218.7460 C   0  0  0  0  0  0  0  0  0  0  0  0
  142.3710   77.0550  217.6720 C   0  0  0  0  0  0  0  0  0  0  0  0
  141.0060   76.9170  217.8720 C   0  0  0  0  0  0  0  0  0  0  0  0
  140.5220   76.6580  219.1360 C   0  0  0  0  0  0  0  0  0  0  0  0
  140.5030   77.4940  222.3150 C   0  0  0  0  0  0  0  0  0  0  0  0
  141.3320   78.0940  223.2460 C   0  0  0  0  0  0  0  0  0  0  0  0
  140.9940   79.2520  223.9180 C   0  0  0  0  0  0  0  0  0  0  0  0
  139.7660   79.8070  223.6240 C   0  0  0  0  0  0  0  0  0  0  0  0
  138.8880   79.2670  222.7090 C   0  0  0  0  0  0  0  0  0  0  0  0
  137.7020   79.8830  222.4830 F   0  0  0  0  0  0  0  0  0  0  0  0
  139.2810   78.1090  222.0690 C   0  0  0  0  0  0  0  0  0  0  0  0
  141.8170   73.6770  219.8100 C   0  0  0  0  0  0  0  0  0  0  0  0
  142.7640   72.8150  219.0710 C   0  0  0  0  0  0  0  0  0  0  0  0
  145.3456   74.1187  221.5898 H   0  0  0  0  0  0  0  0  0  0  0  0
  146.0154   74.7713  220.0562 H   0  0  0  0  0  0  0  0  0  0  0  0
  144.4305   73.9258  220.0562 H   0  0  0  0  0  0  0  0  0  0  0  0
  147.1979   72.8192  220.0342 H   0  0  0  0  0  0  0  0  0  0  0  0
  146.0653   71.9923  221.1401 H   0  0  0  0  0  0  0  0  0  0  0  0
  142.5532   69.0809  219.3273 H   0  0  0  0  0  0  0  0  0  0  0  0
  143.1070   66.6434  219.0527 H   0  0  0  0  0  0  0  0  0  0  0  0
  145.4487   65.9303  218.7366 H   0  0  0  0  0  0  0  0  0  0  0  0
  147.3073   67.5970  218.6922 H   0  0  0  0  0  0  0  0  0  0  0  0
  146.7419   70.0120  218.9687 H   0  0  0  0  0  0  0  0  0  0  0  0
  142.3443   70.7748  219.2969 H   0  0  0  0  0  0  0  0  0  0  0  0
  143.3739   70.5957  221.6259 H   0  0  0  0  0  0  0  0  0  0  0  0
  143.7124   72.3344  221.5834 H   0  0  0  0  0  0  0  0  0  0  0  0
  140.9691   71.0568  221.1008 H   0  0  0  0  0  0  0  0  0  0  0  0
  141.4853   71.7898  222.6434 H   0  0  0  0  0  0  0  0  0  0  0  0
  139.3418   75.2213  220.5814 H   0  0  0  0  0  0  0  0  0  0  0  0
  139.1220   75.7860  223.4100 H   0  0  0  0  0  0  0  0  0  0  0  0
  138.1880   74.6060  222.7240 H   0  0  0  0  0  0  0  0  0  0  0  0
  141.7106   75.8282  222.1792 H   0  0  0  0  0  0  0  0  0  0  0  0
  143.4027   76.5730  220.8370 H   0  0  0  0  0  0  0  0  0  0  0  0
  144.3150   77.0366  218.6072 H   0  0  0  0  0  0  0  0  0  0  0  0
  142.7666   77.2622  216.6667 H   0  0  0  0  0  0  0  0  0  0  0  0
  140.3116   77.0139  217.0244 H   0  0  0  0  0  0  0  0  0  0  0  0
  139.4363   76.5524  219.2779 H   0  0  0  0  0  0  0  0  0  0  0  0
  142.3047   77.6273  223.4607 H   0  0  0  0  0  0  0  0  0  0  0  0
  141.6721   79.7102  224.6531 H   0  0  0  0  0  0  0  0  0  0  0  0
  139.4720   80.7289  224.1472 H   0  0  0  0  0  0  0  0  0  0  0  0
  138.5997   77.6545  221.3347 H   0  0  0  0  0  0  0  0  0  0  0  0
  140.9778   73.9000  219.1347 H   0  0  0  0  0  0  0  0  0  0  0  0
  142.4130   74.5477  220.1211 H   0  0  0  0  0  0  0  0  0  0  0  0
  142.3347   72.6292  218.0754 H   0  0  0  0  0  0  0  0  0  0  0  0
  143.7137   73.3700  219.0729 H   0  0  0  0  0  0  0  0  0  0  0  0
  1  2  1  0
  2  3  1  0
  3  4  2  0
  3  5  1  0
  5  6  1  0
  6  7  2  0
  7  8  1  0
  8  9  2  0
  9 10  1  0
 10 11  2  0
  5 12  1  0
 12 13  1  0
 13 14  1  0
 14 15  1  0
 15 16  1  0
 16 17  2  0
 16 18  1  0
 18 19  1  0
 18 20  1  0
 20 21  1  0
 21 22  2  0
 22 23  1  0
 23 24  2  0
 24 25  1  0
 25 26  2  0
 20 27  1  0
 27 28  2  0
 28 29  1  0
 29 30  2  0
 30 31  1  0
 31 32  1  0
 31 33  2  0
 15 34  1  0
 34 35  1  0
 11  6  1  0
 35 12  1  0
 26 21  1  0
 33 27  1  0
  1 36  1  0
  1 37  1  0
  1 38  1  0
  2 39  1  0
  2 40  1  0
  7 41  1  0
  8 42  1  0
  9 43  1  0
 10 44  1  0
 11 45  1  0
 12 46  1  0
 13 47  1  0
 13 48  1  0
 14 49  1  0
 14 50  1  0
 18 51  1  6
 19 52  1  0
 19 53  1  0
 20 54  1  1
 22 55  1  0
 23 56  1  0
 24 57  1  0
 25 58  1  0
 26 59  1  0
 28 60  1  0
 29 61  1  0
 30 62  1  0
 33 63  1  0
 34 64  1  0
 34 65  1  0
 35 66  1  0
 35 67  1  0
M  END
>  <smiles>  (85) 
CCC(=O)N(c1ccccc1)C1CCN(C(=O)[C@@H](N)C(c2ccccc2)c2cccc(F)c2)CC1

>  <score_type>  (85) 
oracle

>  <origin>  (85) 
autodockgpu

>  <m_score__min__energy>  (85) 
-8.2300000000000004

>  <m_primary>  (85) 
energy

>  <rmsd>  (85) 
5.555696764323429

>  <m_score__min__rmsd>  (85) 
5.555696764323429

>  <meeko>  (85) 
{"free_energy": -8.06, "intermolecular_energy": -10.75, "internal_energy": -3.12, "cluster_size": 27, "cluster_id": 1, "rank_in_cluster": 3}

>  <energy>  (85) 
-7.03

>  <cluster_rmsd>  (85) 
0.28

>  <cluster>  (85) 
6

$$$$

     RDKit          3D

 67 70  0  0  0  0  0  0  0  0999 V2000
  142.9990   80.5800  223.4440 C   0  0  0  0  0  0  0  0  0  0  0  0
  141.8300   81.5330  223.5260 C   0  0  0  0  0  0  0  0  0  0  0  0
  140.7840   81.0600  222.5860 C   0  0  0  0  0  0  0  0  0  0  0  0
  140.9760   81.2890  221.3640 O   0  0  0  0  0  0  0  0  0  0  0  0
  139.6410   80.3870  223.0930 N   0  0  0  0  0  0  0  0  0  0  0  0
  138.4970   81.1240  223.5570 C   0  0  0  0  0  0  0  0  0  0  0  0
  137.8760   82.0820  222.7860 C   0  0  0  0  0  0  0  0  0  0  0  0
  136.7690   82.7370  223.3340 C   0  0  0  0  0  0  0  0  0  0  0  0
  136.3280   82.4180  224.6070 C   0  0  0  0  0  0  0  0  0  0  0  0
  136.9610   81.4500  225.3780 C   0  0  0  0  0  0  0  0  0  0  0  0
  138.0560   80.8090  224.8270 C   0  0  0  0  0  0  0  0  0  0  0  0
  139.5550   78.9480  223.1750 C   0  0  0  0  0  0  0  0  0  0  0  0
  138.7960   78.4710  221.9460 C   0  0  0  0  0  0  0  0  0  0  0  0
  138.5740   77.0050  222.1400 C   0  0  0  0  0  0  0  0  0  0  0  0
  139.8990   76.3440  222.1460 N   0  0  0  0  0  0  0  0  0  0  0  0
  139.8990   75.0440  221.5890 C   0  0  0  0  0  0  0  0  0  0  0  0
  138.7690   74.6260  221.1570 O   0  0  0  0  0  0  0  0  0  0  0  0
  141.0350   74.1280  221.4470 C   0  0  1  0  0  0  0  0  0  0  0  0
  140.6830   72.8020  221.8250 N   0  0  0  0  0  0  0  0  0  0  0  0
  141.6240   74.2090  220.0550 C   0  0  1  0  0  0  0  0  0  0  0  0
  141.5730   75.5970  219.5480 C   0  0  0  0  0  0  0  0  0  0  0  0
  140.5370   75.9820  218.7130 C   0  0  0  0  0  0  0  0  0  0  0  0
  140.4180   77.2480  218.1980 C   0  0  0  0  0  0  0  0  0  0  0  0
  141.3690   78.1950  218.5210 C   0  0  0  0  0  0  0  0  0  0  0  0
  142.4200   77.8480  219.3540 C   0  0  0  0  0  0  0  0  0  0  0  0
  142.5050   76.5640  219.8510 C   0  0  0  0  0  0  0  0  0  0  0  0
  142.9850   73.6330  219.9500 C   0  0  0  0  0  0  0  0  0  0  0  0
  143.3300   72.7180  218.9720 C   0  0  0  0  0  0  0  0  0  0  0  0
  144.5940   72.1730  218.8640 C   0  0  0  0  0  0  0  0  0  0  0  0
  145.5300   72.5840  219.7890 C   0  0  0  0  0  0  0  0  0  0  0  0
  145.2600   73.4920  220.7910 C   0  0  0  0  0  0  0  0  0  0  0  0
  146.2440   73.8370  221.6570 F   0  0  0  0  0  0  0  0  0  0  0  0
  143.9790   74.0000  220.8490 C   0  0  0  0  0  0  0  0  0  0  0  0
  141.0710   76.9770  222.6740 C   0  0  0  0  0  0  0  0  0  0  0  0
  140.9160   78.3350  223.2360 C   0  0  0  0  0  0  0  0  0  0  0  0
  143.3264   80.3131  224.4597 H   0  0  0  0  0  0  0  0  0  0  0  0
  142.6934   79.6703  222.9063 H   0  0  0  0  0  0  0  0  0  0  0  0
  143.8285   81.0626  222.9063 H   0  0  0  0  0  0  0  0  0  0  0  0
  141.4315   81.5471  224.5512 H   0  0  0  0  0  0  0  0  0  0  0  0
  142.1490   82.5517  223.2605 H   0  0  0  0  0  0  0  0  0  0  0  0
  138.2381   82.3229  221.7756 H   0  0  0  0  0  0  0  0  0  0  0  0
  136.2460   83.5094  222.7510 H   0  0  0  0  0  0  0  0  0  0  0  0
  135.4542   82.9441  225.0189 H   0  0  0  0  0  0  0  0  0  0  0  0
  136.6044   81.2029  226.3888 H   0  0  0  0  0  0  0  0  0  0  0  0
  138.5826   80.0379  225.4085 H   0  0  0  0  0  0  0  0  0  0  0  0
  139.0297   78.6443  224.0925 H   0  0  0  0  0  0  0  0  0  0  0  0
  137.8326   78.9957  221.8646 H   0  0  0  0  0  0  0  0  0  0  0  0
  139.3578   78.6740  221.0223 H   0  0  0  0  0  0  0  0  0  0  0  0
  138.0628   76.8274  223.0976 H   0  0  0  0  0  0  0  0  0  0  0  0
  137.9464   76.6009  221.3320 H   0  0  0  0  0  0  0  0  0  0  0  0
  141.8258   74.4447  222.1430 H   0  0  0  0  0  0  0  0  0  0  0  0
  139.6580   72.6630  221.6920 H   0  0  0  0  0  0  0  0  0  0  0  0
  140.8150   72.6740  222.8740 H   0  0  0  0  0  0  0  0  0  0  0  0
  140.9942   73.5773  219.4113 H   0  0  0  0  0  0  0  0  0  0  0  0
  139.7724   75.2362  218.4500 H   0  0  0  0  0  0  0  0  0  0  0  0
  139.5769   77.5047  217.5372 H   0  0  0  0  0  0  0  0  0  0  0  0
  141.2929   79.2166  218.1203 H   0  0  0  0  0  0  0  0  0  0  0  0
  143.1842   78.5938  219.6183 H   0  0  0  0  0  0  0  0  0  0  0  0
  143.3454   76.3041  220.5114 H   0  0  0  0  0  0  0  0  0  0  0  0
  142.5622   72.4103  218.2469 H   0  0  0  0  0  0  0  0  0  0  0  0
  144.8424   71.4454  218.0773 H   0  0  0  0  0  0  0  0  0  0  0  0
  146.5453   72.1657  219.7243 H   0  0  0  0  0  0  0  0  0  0  0  0
  143.7343   74.7252  221.6391 H   0  0  0  0  0  0  0  0  0  0  0  0
  141.4625   76.3316  223.4741 H   0  0  0  0  0  0  0  0  0  0  0  0
  141.7359   77.1056  221.8072 H   0  0  0  0  0  0  0  0  0  0  0  0
  141.2119   78.2908  224.2945 H   0  0  0  0  0  0  0  0  0  0  0  0
  141.5450   78.9775  222.6023 H   0  0  0  0  0  0  0  0  0  0  0  0
  1  2  1  0
  2  3  1  0
  3  4  2  0
  3  5  1  0
  5  6  1  0
  6  7  2  0
  7  8  1  0
  8  9  2  0
  9 10  1  0
 10 11  2  0
  5 12  1  0
 12 13  1  0
 13 14  1  0
 14 15  1  0
 15 16  1  0
 16 17  2  0
 16 18  1  0
 18 19  1  0
 18 20  1  0
 20 21  1  0
 21 22  2  0
 22 23  1  0
 23 24  2  0
 24 25  1  0
 25 26  2  0
 20 27  1  0
 27 28  2  0
 28 29  1  0
 29 30  2  0
 30 31  1  0
 31 32  1  0
 31 33  2  0
 15 34  1  0
 34 35  1  0
 11  6  1  0
 35 12  1  0
 26 21  1  0
 33 27  1  0
  1 36  1  0
  1 37  1  0
  1 38  1  0
  2 39  1  0
  2 40  1  0
  7 41  1  0
  8 42  1  0
  9 43  1  0
 10 44  1  0
 11 45  1  0
 12 46  1  0
 13 47  1  0
 13 48  1  0
 14 49  1  0
 14 50  1  0
 18 51  1  1
 19 52  1  0
 19 53  1  0
 20 54  1  6
 22 55  1  0
 23 56  1  0
 24 57  1  0
 25 58  1  0
 26 59  1  0
 28 60  1  0
 29 61  1  0
 30 62  1  0
 33 63  1  0
 34 64  1  0
 34 65  1  0
 35 66  1  0
 35 67  1  0
M  END
>  <smiles>  (86) 
CCC(=O)N(c1ccccc1)C1CCN(C(=O)[C@@H](N)C(c2ccccc2)c2cccc(F)c2)CC1

>  <score_type>  (86) 
oracle

>  <origin>  (86) 
autodockgpu

>  <m_score__min__energy>  (86) 
-8.2300000000000004

>  <m_primary>  (86) 
energy

>  <rmsd>  (86) 
5.552880855279569

>  <m_score__min__rmsd>  (86) 
5.552880855279569

>  <meeko>  (86) 
{"free_energy": -6.49, "intermolecular_energy": -9.17, "internal_energy": -3.54, "cluster_size": 6, "cluster_id": 6, "rank_in_cluster": 5}

>  <energy>  (86) 
-7.03

>  <cluster_rmsd>  (86) 
0.28

>  <cluster>  (86) 
6

$$$$

     RDKit          3D

 67 70  0  0  0  0  0  0  0  0999 V2000
  143.3470   76.9270  215.8630 C   0  0  0  0  0  0  0  0  0  0  0  0
  143.7300   76.0290  217.0160 C   0  0  0  0  0  0  0  0  0  0  0  0
  143.2140   76.6390  218.2660 C   0  0  0  0  0  0  0  0  0  0  0  0
  143.3210   77.8890  218.3720 O   0  0  0  0  0  0  0  0  0  0  0  0
  142.6370   75.8090  219.2630 N   0  0  0  0  0  0  0  0  0  0  0  0
  143.3720   74.7070  219.8210 C   0  0  0  0  0  0  0  0  0  0  0  0
  144.5740   74.8790  220.4730 C   0  0  0  0  0  0  0  0  0  0  0  0
  145.2030   73.7390  220.9810 C   0  0  0  0  0  0  0  0  0  0  0  0
  144.6230   72.4920  220.8260 C   0  0  0  0  0  0  0  0  0  0  0  0
  143.4100   72.3280  220.1660 C   0  0  0  0  0  0  0  0  0  0  0  0
  142.7960   73.4620  219.6660 C   0  0  0  0  0  0  0  0  0  0  0  0
  141.3000   76.0130  219.7700 C   0  0  0  0  0  0  0  0  0  0  0  0
  141.3140   75.6320  221.2430 C   0  0  0  0  0  0  0  0  0  0  0  0
  139.8910   75.6890  221.6980 C   0  0  0  0  0  0  0  0  0  0  0  0
  139.4380   77.0940  221.5930 N   0  0  0  0  0  0  0  0  0  0  0  0
  138.5090   77.4790  222.5870 C   0  0  0  0  0  0  0  0  0  0  0  0
  138.1950   76.5710  223.4320 O   0  0  0  0  0  0  0  0  0  0  0  0
  137.8690   78.7870  222.7610 C   0  0  1  0  0  0  0  0  0  0  0  0
  136.4850   78.6520  223.0620 N   0  0  0  0  0  0  0  0  0  0  0  0
  138.6170   79.6220  223.7770 C   0  0  1  0  0  0  0  0  0  0  0  0
  139.9930   79.8990  223.3140 C   0  0  0  0  0  0  0  0  0  0  0  0
  141.0520   79.1840  223.8490 C   0  0  0  0  0  0  0  0  0  0  0  0
  142.3570   79.3820  223.4740 C   0  0  0  0  0  0  0  0  0  0  0  0
  142.6430   80.3350  222.5190 C   0  0  0  0  0  0  0  0  0  0  0  0
  141.6100   81.0710  221.9600 C   0  0  0  0  0  0  0  0  0  0  0  0
  140.3110   80.8440  222.3640 C   0  0  0  0  0  0  0  0  0  0  0  0
  137.9060   80.8620  224.1680 C   0  0  0  0  0  0  0  0  0  0  0  0
  137.4450   81.7770  223.2390 C   0  0  0  0  0  0  0  0  0  0  0  0
  136.7820   82.9360  223.5910 C   0  0  0  0  0  0  0  0  0  0  0  0
  136.5870   83.1580  224.9380 C   0  0  0  0  0  0  0  0  0  0  0  0
  137.0170   82.2920  225.9200 C   0  0  0  0  0  0  0  0  0  0  0  0
  136.7800   82.5920  227.2200 F   0  0  0  0  0  0  0  0  0  0  0  0
  137.6740   81.1510  225.5070 C   0  0  0  0  0  0  0  0  0  0  0  0
  139.9080   77.9780  220.5670 C   0  0  0  0  0  0  0  0  0  0  0  0
  140.8710   77.4320  219.5880 C   0  0  0  0  0  0  0  0  0  0  0  0
  142.9435   77.8730  216.2533 H   0  0  0  0  0  0  0  0  0  0  0  0
  144.2354   77.1333  215.2481 H   0  0  0  0  0  0  0  0  0  0  0  0
  142.5832   76.4286  215.2481 H   0  0  0  0  0  0  0  0  0  0  0  0
  143.2855   75.0326  216.8762 H   0  0  0  0  0  0  0  0  0  0  0  0
  144.8234   75.9205  217.0679 H   0  0  0  0  0  0  0  0  0  0  0  0
  145.0219   75.8769  220.5893 H   0  0  0  0  0  0  0  0  0  0  0  0
  146.1645   73.8334  221.5070 H   0  0  0  0  0  0  0  0  0  0  0  0
  145.1344   71.6083  221.2352 H   0  0  0  0  0  0  0  0  0  0  0  0
  142.9557   71.3334  220.0461 H   0  0  0  0  0  0  0  0  0  0  0  0
  141.8356   73.3706  219.1376 H   0  0  0  0  0  0  0  0  0  0  0  0
  140.5791   75.3914  219.2187 H   0  0  0  0  0  0  0  0  0  0  0  0
  141.7156   74.6160  221.3710 H   0  0  0  0  0  0  0  0  0  0  0  0
  141.9512   76.3112  221.8284 H   0  0  0  0  0  0  0  0  0  0  0  0
  139.2678   75.0462  221.0589 H   0  0  0  0  0  0  0  0  0  0  0  0
  139.8051   75.3343  222.7357 H   0  0  0  0  0  0  0  0  0  0  0  0
  137.9214   79.3303  221.8060 H   0  0  0  0  0  0  0  0  0  0  0  0
  136.2700   79.1630  223.9460 H   0  0  0  0  0  0  0  0  0  0  0  0
  136.2600   77.6390  223.3020 H   0  0  0  0  0  0  0  0  0  0  0  0
  138.6721   79.0200  224.6960 H   0  0  0  0  0  0  0  0  0  0  0  0
  140.8364   78.4207  224.6112 H   0  0  0  0  0  0  0  0  0  0  0  0
  143.1640   78.7888  223.9288 H   0  0  0  0  0  0  0  0  0  0  0  0
  143.6822   80.5096  222.2035 H   0  0  0  0  0  0  0  0  0  0  0  0
  141.8255   81.8334  221.1969 H   0  0  0  0  0  0  0  0  0  0  0  0
  139.5022   81.4374  221.9125 H   0  0  0  0  0  0  0  0  0  0  0  0
  137.6141   81.5722  222.1715 H   0  0  0  0  0  0  0  0  0  0  0  0
  136.4261   83.6488  222.8325 H   0  0  0  0  0  0  0  0  0  0  0  0
  136.0608   84.0740  225.2446 H   0  0  0  0  0  0  0  0  0  0  0  0
  138.0285   80.4413  226.2690 H   0  0  0  0  0  0  0  0  0  0  0  0
  139.0295   78.3285  220.0055 H   0  0  0  0  0  0  0  0  0  0  0  0
  140.4648   78.7606  221.1031 H   0  0  0  0  0  0  0  0  0  0  0  0
  140.4120   77.5136  218.5917 H   0  0  0  0  0  0  0  0  0  0  0  0
  141.7864   78.0251  219.7302 H   0  0  0  0  0  0  0  0  0  0  0  0
  1  2  1  0
  2  3  1  0
  3  4  2  0
  3  5  1  0
  5  6  1  0
  6  7  2  0
  7  8  1  0
  8  9  2  0
  9 10  1  0
 10 11  2  0
  5 12  1  0
 12 13  1  0
 13 14  1  0
 14 15  1  0
 15 16  1  0
 16 17  2  0
 16 18  1  0
 18 19  1  0
 18 20  1  0
 20 21  1  0
 21 22  2  0
 22 23  1  0
 23 24  2  0
 24 25  1  0
 25 26  2  0
 20 27  1  0
 27 28  2  0
 28 29  1  0
 29 30  2  0
 30 31  1  0
 31 32  1  0
 31 33  2  0
 15 34  1  0
 34 35  1  0
 11  6  1  0
 35 12  1  0
 26 21  1  0
 33 27  1  0
  1 36  1  0
  1 37  1  0
  1 38  1  0
  2 39  1  0
  2 40  1  0
  7 41  1  0
  8 42  1  0
  9 43  1  0
 10 44  1  0
 11 45  1  0
 12 46  1  0
 13 47  1  0
 13 48  1  0
 14 49  1  0
 14 50  1  0
 18 51  1  6
 19 52  1  0
 19 53  1  0
 20 54  1  1
 22 55  1  0
 23 56  1  0
 24 57  1  0
 25 58  1  0
 26 59  1  0
 28 60  1  0
 29 61  1  0
 30 62  1  0
 33 63  1  0
 34 64  1  0
 34 65  1  0
 35 66  1  0
 35 67  1  0
M  END
>  <smiles>  (87) 
CCC(=O)N(c1ccccc1)C1CCN(C(=O)[C@@H](N)C(c2ccccc2)c2cccc(F)c2)CC1

>  <score_type>  (87) 
oracle

>  <origin>  (87) 
autodockgpu

>  <m_score__min__energy>  (87) 
-8.2300000000000004

>  <m_primary>  (87) 
energy

>  <rmsd>  (87) 
3.548888141582893

>  <m_score__min__rmsd>  (87) 
3.548888141582893

>  <meeko>  (87) 
{"free_energy": -6.94, "intermolecular_energy": -9.63, "internal_energy": -3.34, "cluster_size": 7, "cluster_id": 7, "rank_in_cluster": 5}

>  <energy>  (87) 
-6.98

>  <cluster_rmsd>  (87) 
0.79

>  <cluster>  (87) 
6

$$$$

     RDKit          3D

 67 70  0  0  0  0  0  0  0  0999 V2000
  143.6870   76.7410  215.7210 C   0  0  0  0  0  0  0  0  0  0  0  0
  143.8680   75.8080  216.8950 C   0  0  0  0  0  0  0  0  0  0  0  0
  143.2990   76.4660  218.0970 C   0  0  0  0  0  0  0  0  0  0  0  0
  143.3360   77.7230  218.1250 O   0  0  0  0  0  0  0  0  0  0  0  0
  142.7540   75.6690  219.1380 N   0  0  0  0  0  0  0  0  0  0  0  0
  143.5240   74.6130  219.7390 C   0  0  0  0  0  0  0  0  0  0  0  0
  144.6720   74.8580  220.4610 C   0  0  0  0  0  0  0  0  0  0  0  0
  145.3410   73.7590  221.0060 C   0  0  0  0  0  0  0  0  0  0  0  0
  144.8510   72.4770  220.8150 C   0  0  0  0  0  0  0  0  0  0  0  0
  143.6930   72.2400  220.0850 C   0  0  0  0  0  0  0  0  0  0  0  0
  143.0390   73.3350  219.5490 C   0  0  0  0  0  0  0  0  0  0  0  0
  141.4180   75.8610  219.6510 C   0  0  0  0  0  0  0  0  0  0  0  0
  141.4430   75.4890  221.1260 C   0  0  0  0  0  0  0  0  0  0  0  0
  140.0210   75.5340  221.5880 C   0  0  0  0  0  0  0  0  0  0  0  0
  139.5530   76.9340  221.4760 N   0  0  0  0  0  0  0  0  0  0  0  0
  138.6250   77.3150  222.4720 C   0  0  0  0  0  0  0  0  0  0  0  0
  138.3250   76.4090  223.3250 O   0  0  0  0  0  0  0  0  0  0  0  0
  137.9720   78.6170  222.6410 C   0  0  1  0  0  0  0  0  0  0  0  0
  136.5790   78.4720  222.8930 N   0  0  0  0  0  0  0  0  0  0  0  0
  138.6810   79.4420  223.6940 C   0  0  1  0  0  0  0  0  0  0  0  0
  140.0740   79.7230  223.2870 C   0  0  0  0  0  0  0  0  0  0  0  0
  140.3200   80.6550  222.2910 C   0  0  0  0  0  0  0  0  0  0  0  0
  141.5820   80.9710  221.8540 C   0  0  0  0  0  0  0  0  0  0  0  0
  142.6670   80.3390  222.4260 C   0  0  0  0  0  0  0  0  0  0  0  0
  142.4600   79.4010  223.4250 C   0  0  0  0  0  0  0  0  0  0  0  0
  141.1770   79.1100  223.8360 C   0  0  0  0  0  0  0  0  0  0  0  0
  137.9550   80.6790  224.0690 C   0  0  0  0  0  0  0  0  0  0  0  0
  137.5040   81.5880  223.1300 C   0  0  0  0  0  0  0  0  0  0  0  0
  136.8280   82.7440  223.4660 C   0  0  0  0  0  0  0  0  0  0  0  0
  136.6090   82.9690  224.8090 C   0  0  0  0  0  0  0  0  0  0  0  0
  137.0280   82.1080  225.8010 C   0  0  0  0  0  0  0  0  0  0  0  0
  136.7670   82.4110  227.0960 F   0  0  0  0  0  0  0  0  0  0  0  0
  137.6990   80.9700  225.4030 C   0  0  0  0  0  0  0  0  0  0  0  0
  140.0100   77.8170  220.4430 C   0  0  0  0  0  0  0  0  0  0  0  0
  140.9740   77.2750  219.4620 C   0  0  0  0  0  0  0  0  0  0  0  0
  143.4895   77.7588  216.0885 H   0  0  0  0  0  0  0  0  0  0  0  0
  144.6015   76.7429  215.1097 H   0  0  0  0  0  0  0  0  0  0  0  0
  142.8381   76.4008  215.1097 H   0  0  0  0  0  0  0  0  0  0  0  0
  143.3418   74.8612  216.7037 H   0  0  0  0  0  0  0  0  0  0  0  0
  144.9352   75.5901  217.0484 H   0  0  0  0  0  0  0  0  0  0  0  0
  145.0481   75.8819  220.6031 H   0  0  0  0  0  0  0  0  0  0  0  0
  146.2609   73.9122  221.5894 H   0  0  0  0  0  0  0  0  0  0  0  0
  145.3926   71.6254  221.2525 H   0  0  0  0  0  0  0  0  0  0  0  0
  143.3101   71.2192  219.9386 H   0  0  0  0  0  0  0  0  0  0  0  0
  142.1200   73.1850  218.9634 H   0  0  0  0  0  0  0  0  0  0  0  0
  140.7007   75.2278  219.1082 H   0  0  0  0  0  0  0  0  0  0  0  0
  141.8557   74.4779  221.2580 H   0  0  0  0  0  0  0  0  0  0  0  0
  142.0759   76.1783  221.7042 H   0  0  0  0  0  0  0  0  0  0  0  0
  139.4014   74.8806  220.9562 H   0  0  0  0  0  0  0  0  0  0  0  0
  139.9437   75.1850  222.6283 H   0  0  0  0  0  0  0  0  0  0  0  0
  138.0535   79.1726  221.6952 H   0  0  0  0  0  0  0  0  0  0  0  0
  136.3940   77.5220  223.2810 H   0  0  0  0  0  0  0  0  0  0  0  0
  136.0410   78.4720  221.9750 H   0  0  0  0  0  0  0  0  0  0  0  0
  138.7009   78.8311  224.6085 H   0  0  0  0  0  0  0  0  0  0  0  0
  139.4626   81.1659  221.8286 H   0  0  0  0  0  0  0  0  0  0  0  0
  141.7265   81.7175  221.0591 H   0  0  0  0  0  0  0  0  0  0  0  0
  143.6875   80.5776  222.0919 H   0  0  0  0  0  0  0  0  0  0  0  0
  143.3170   78.8903  223.8885 H   0  0  0  0  0  0  0  0  0  0  0  0
  141.0298   78.3626  224.6296 H   0  0  0  0  0  0  0  0  0  0  0  0
  137.6924   81.3807  222.0663 H   0  0  0  0  0  0  0  0  0  0  0  0
  136.4806   83.4519  222.6991 H   0  0  0  0  0  0  0  0  0  0  0  0
  136.0722   83.8827  225.1040 H   0  0  0  0  0  0  0  0  0  0  0  0
  138.0452   80.2648  226.1730 H   0  0  0  0  0  0  0  0  0  0  0  0
  139.1256   78.1562  219.8837 H   0  0  0  0  0  0  0  0  0  0  0  0
  140.5619   78.6076  220.9725 H   0  0  0  0  0  0  0  0  0  0  0  0
  140.5093   77.3459  218.4675 H   0  0  0  0  0  0  0  0  0  0  0  0
  141.8840   77.8783  219.5955 H   0  0  0  0  0  0  0  0  0  0  0  0
  1  2  1  0
  2  3  1  0
  3  4  2  0
  3  5  1  0
  5  6  1  0
  6  7  2  0
  7  8  1  0
  8  9  2  0
  9 10  1  0
 10 11  2  0
  5 12  1  0
 12 13  1  0
 13 14  1  0
 14 15  1  0
 15 16  1  0
 16 17  2  0
 16 18  1  0
 18 19  1  0
 18 20  1  0
 20 21  1  0
 21 22  2  0
 22 23  1  0
 23 24  2  0
 24 25  1  0
 25 26  2  0
 20 27  1  0
 27 28  2  0
 28 29  1  0
 29 30  2  0
 30 31  1  0
 31 32  1  0
 31 33  2  0
 15 34  1  0
 34 35  1  0
 11  6  1  0
 35 12  1  0
 26 21  1  0
 33 27  1  0
  1 36  1  0
  1 37  1  0
  1 38  1  0
  2 39  1  0
  2 40  1  0
  7 41  1  0
  8 42  1  0
  9 43  1  0
 10 44  1  0
 11 45  1  0
 12 46  1  0
 13 47  1  0
 13 48  1  0
 14 49  1  0
 14 50  1  0
 18 51  1  6
 19 52  1  0
 19 53  1  0
 20 54  1  1
 22 55  1  0
 23 56  1  0
 24 57  1  0
 25 58  1  0
 26 59  1  0
 28 60  1  0
 29 61  1  0
 30 62  1  0
 33 63  1  0
 34 64  1  0
 34 65  1  0
 35 66  1  0
 35 67  1  0
M  END
>  <smiles>  (88) 
CCC(=O)N(c1ccccc1)C1CCN(C(=O)[C@@H](N)C(c2ccccc2)c2cccc(F)c2)CC1

>  <score_type>  (88) 
oracle

>  <origin>  (88) 
autodockgpu

>  <m_score__min__energy>  (88) 
-8.2300000000000004

>  <m_primary>  (88) 
energy

>  <rmsd>  (88) 
2.92404286804988

>  <m_score__min__rmsd>  (88) 
2.92404286804988

>  <meeko>  (88) 
{"free_energy": -6.99, "intermolecular_energy": -9.67, "internal_energy": -3.27, "cluster_size": 7, "cluster_id": 7, "rank_in_cluster": 3}

>  <energy>  (88) 
-6.49

>  <cluster_rmsd>  (88) 
1.68

>  <cluster>  (88) 
6

$$$$

     RDKit          3D

 67 70  0  0  0  0  0  0  0  0999 V2000
  144.8820   73.2140  215.8670 C   0  0  0  0  0  0  0  0  0  0  0  0
  144.8210   71.7470  216.2220 C   0  0  0  0  0  0  0  0  0  0  0  0
  145.0310   71.6180  217.6850 C   0  0  0  0  0  0  0  0  0  0  0  0
  145.9430   72.3230  218.1900 O   0  0  0  0  0  0  0  0  0  0  0  0
  144.2150   70.7290  218.4320 N   0  0  0  0  0  0  0  0  0  0  0  0
  144.5860   69.3490  218.5970 C   0  0  0  0  0  0  0  0  0  0  0  0
  143.7460   68.3140  218.2490 C   0  0  0  0  0  0  0  0  0  0  0  0
  144.2080   67.0100  218.4470 C   0  0  0  0  0  0  0  0  0  0  0  0
  145.4690   66.7880  218.9760 C   0  0  0  0  0  0  0  0  0  0  0  0
  146.3100   67.8390  219.3240 C   0  0  0  0  0  0  0  0  0  0  0  0
  145.8420   69.1250  219.1250 C   0  0  0  0  0  0  0  0  0  0  0  0
  142.9840   71.1420  219.0630 C   0  0  0  0  0  0  0  0  0  0  0  0
  143.2630   71.2770  220.5530 C   0  0  0  0  0  0  0  0  0  0  0  0
  141.9400   71.5380  221.1990 C   0  0  0  0  0  0  0  0  0  0  0  0
  141.4450   72.8440  220.7050 N   0  0  0  0  0  0  0  0  0  0  0  0
  140.6960   73.5750  221.6560 C   0  0  0  0  0  0  0  0  0  0  0  0
  140.5540   73.0160  222.7980 O   0  0  0  0  0  0  0  0  0  0  0  0
  140.0680   74.8890  221.4860 C   0  0  1  0  0  0  0  0  0  0  0  0
  138.9700   75.0590  222.3750 N   0  0  0  0  0  0  0  0  0  0  0  0
  141.0950   75.9950  221.5970 C   0  0  1  0  0  0  0  0  0  0  0  0
  141.7790   76.2040  220.3030 C   0  0  0  0  0  0  0  0  0  0  0  0
  141.0710   76.7260  219.2320 C   0  0  0  0  0  0  0  0  0  0  0  0
  141.6300   76.9480  217.9990 C   0  0  0  0  0  0  0  0  0  0  0  0
  142.9610   76.6410  217.8010 C   0  0  0  0  0  0  0  0  0  0  0  0
  143.7020   76.1160  218.8490 C   0  0  0  0  0  0  0  0  0  0  0  0
  143.1040   75.9070  220.0730 C   0  0  0  0  0  0  0  0  0  0  0  0
  140.5510   77.2610  222.1440 C   0  0  0  0  0  0  0  0  0  0  0  0
  139.2550   77.6790  221.8980 C   0  0  0  0  0  0  0  0  0  0  0  0
  138.7370   78.8550  222.4010 C   0  0  0  0  0  0  0  0  0  0  0  0
  139.5770   79.6230  223.1800 C   0  0  0  0  0  0  0  0  0  0  0  0
  140.8780   79.2710  223.4680 C   0  0  0  0  0  0  0  0  0  0  0  0
  141.6310   80.0890  224.2440 F   0  0  0  0  0  0  0  0  0  0  0  0
  141.3400   78.0850  222.9360 C   0  0  0  0  0  0  0  0  0  0  0  0
  141.7100   73.3140  219.3780 C   0  0  0  0  0  0  0  0  0  0  0  0
  142.4990   72.4340  218.4900 C   0  0  0  0  0  0  0  0  0  0  0  0
  144.9069   73.8136  216.7889 H   0  0  0  0  0  0  0  0  0  0  0  0
  145.7891   73.4110  215.2768 H   0  0  0  0  0  0  0  0  0  0  0  0
  143.9944   73.4856  215.2768 H   0  0  0  0  0  0  0  0  0  0  0  0
  143.8371   71.3379  215.9490 H   0  0  0  0  0  0  0  0  0  0  0  0
  145.5959   71.1899  215.6751 H   0  0  0  0  0  0  0  0  0  0  0  0
  142.7473   68.5071  217.8302 H   0  0  0  0  0  0  0  0  0  0  0  0
  143.5675   66.1560  218.1816 H   0  0  0  0  0  0  0  0  0  0  0  0
  145.8136   65.7540  219.1245 H   0  0  0  0  0  0  0  0  0  0  0  0
  147.3106   67.6545  219.7421 H   0  0  0  0  0  0  0  0  0  0  0  0
  146.4792   69.9813  219.3910 H   0  0  0  0  0  0  0  0  0  0  0  0
  142.1920   70.3992  218.8866 H   0  0  0  0  0  0  0  0  0  0  0  0
  143.7029   70.3481  220.9450 H   0  0  0  0  0  0  0  0  0  0  0  0
  143.9775   72.0881  220.7568 H   0  0  0  0  0  0  0  0  0  0  0  0
  141.2291   70.7426  220.9308 H   0  0  0  0  0  0  0  0  0  0  0  0
  142.0437   71.5555  222.2940 H   0  0  0  0  0  0  0  0  0  0  0  0
  139.6496   74.9462  220.4703 H   0  0  0  0  0  0  0  0  0  0  0  0
  139.2980   75.5270  223.2470 H   0  0  0  0  0  0  0  0  0  0  0  0
  138.6280   74.1110  222.7180 H   0  0  0  0  0  0  0  0  0  0  0  0
  141.8376   75.6581  222.3353 H   0  0  0  0  0  0  0  0  0  0  0  0
  140.0093   76.9743  219.3777 H   0  0  0  0  0  0  0  0  0  0  0  0
  141.0259   77.3648  217.1796 H   0  0  0  0  0  0  0  0  0  0  0  0
  143.4298   76.8113  216.8206 H   0  0  0  0  0  0  0  0  0  0  0  0
  144.7636   75.8672  218.7039 H   0  0  0  0  0  0  0  0  0  0  0  0
  143.7052   75.4889  220.8938 H   0  0  0  0  0  0  0  0  0  0  0  0
  138.6085   77.0452  221.2732 H   0  0  0  0  0  0  0  0  0  0  0  0
  137.7029   79.1653  222.1906 H   0  0  0  0  0  0  0  0  0  0  0  0
  139.1883   80.5656  223.5929 H   0  0  0  0  0  0  0  0  0  0  0  0
  142.3753   77.7796  223.1477 H   0  0  0  0  0  0  0  0  0  0  0  0
  140.7399   73.4906  218.8905 H   0  0  0  0  0  0  0  0  0  0  0  0
  142.3352   74.2085  219.5158 H   0  0  0  0  0  0  0  0  0  0  0  0
  141.8713   72.1946  217.6190 H   0  0  0  0  0  0  0  0  0  0  0  0
  143.4122   73.0044  218.2648 H   0  0  0  0  0  0  0  0  0  0  0  0
  1  2  1  0
  2  3  1  0
  3  4  2  0
  3  5  1  0
  5  6  1  0
  6  7  2  0
  7  8  1  0
  8  9  2  0
  9 10  1  0
 10 11  2  0
  5 12  1  0
 12 13  1  0
 13 14  1  0
 14 15  1  0
 15 16  1  0
 16 17  2  0
 16 18  1  0
 18 19  1  0
 18 20  1  0
 20 21  1  0
 21 22  2  0
 22 23  1  0
 23 24  2  0
 24 25  1  0
 25 26  2  0
 20 27  1  0
 27 28  2  0
 28 29  1  0
 29 30  2  0
 30 31  1  0
 31 32  1  0
 31 33  2  0
 15 34  1  0
 34 35  1  0
 11  6  1  0
 35 12  1  0
 26 21  1  0
 33 27  1  0
  1 36  1  0
  1 37  1  0
  1 38  1  0
  2 39  1  0
  2 40  1  0
  7 41  1  0
  8 42  1  0
  9 43  1  0
 10 44  1  0
 11 45  1  0
 12 46  1  0
 13 47  1  0
 13 48  1  0
 14 49  1  0
 14 50  1  0
 18 51  1  6
 19 52  1  0
 19 53  1  0
 20 54  1  1
 22 55  1  0
 23 56  1  0
 24 57  1  0
 25 58  1  0
 26 59  1  0
 28 60  1  0
 29 61  1  0
 30 62  1  0
 33 63  1  0
 34 64  1  0
 34 65  1  0
 35 66  1  0
 35 67  1  0
M  END
>  <smiles>  (89) 
CCC(=O)N(c1ccccc1)C1CCN(C(=O)[C@@H](N)C(c2ccccc2)c2cccc(F)c2)CC1

>  <score_type>  (89) 
oracle

>  <origin>  (89) 
autodockgpu

>  <m_score__min__energy>  (89) 
-8.2300000000000004

>  <m_primary>  (89) 
energy

>  <rmsd>  (89) 
5.617869269694384

>  <m_score__min__rmsd>  (89) 
5.617869269694384

>  <meeko>  (89) 
{"free_energy": -7.49, "intermolecular_energy": -10.18, "internal_energy": -3.12, "cluster_size": 27, "cluster_id": 1, "rank_in_cluster": 22}

>  <energy>  (89) 
-6.36

>  <cluster_rmsd>  (89) 
1.87

>  <cluster>  (89) 
6

$$$$

     RDKit          3D

 67 70  0  0  0  0  0  0  0  0999 V2000
  146.3090   70.9020  215.6450 C   0  0  0  0  0  0  0  0  0  0  0  0
  145.1540   71.7390  216.1410 C   0  0  0  0  0  0  0  0  0  0  0  0
  145.1880   71.7380  217.6240 C   0  0  0  0  0  0  0  0  0  0  0  0
  145.9200   72.6020  218.1740 O   0  0  0  0  0  0  0  0  0  0  0  0
  144.4140   70.7880  218.3410 N   0  0  0  0  0  0  0  0  0  0  0  0
  144.8290   69.4140  218.4280 C   0  0  0  0  0  0  0  0  0  0  0  0
  145.7760   68.9870  219.3330 C   0  0  0  0  0  0  0  0  0  0  0  0
  146.1030   67.6280  219.3360 C   0  0  0  0  0  0  0  0  0  0  0  0
  145.4860   66.7580  218.4510 C   0  0  0  0  0  0  0  0  0  0  0  0
  144.5330   67.1990  217.5410 C   0  0  0  0  0  0  0  0  0  0  0  0
  144.2170   68.5450  217.5470 C   0  0  0  0  0  0  0  0  0  0  0  0
  143.1840   71.1310  219.0140 C   0  0  0  0  0  0  0  0  0  0  0  0
  143.5160   71.3290  220.4860 C   0  0  0  0  0  0  0  0  0  0  0  0
  142.2060   71.5150  221.1840 C   0  0  0  0  0  0  0  0  0  0  0  0
  141.5980   72.7670  220.6780 N   0  0  0  0  0  0  0  0  0  0  0  0
  140.8390   73.4710  221.6410 C   0  0  0  0  0  0  0  0  0  0  0  0
  140.7870   72.9370  222.8040 O   0  0  0  0  0  0  0  0  0  0  0  0
  140.1110   74.7320  221.4650 C   0  0  1  0  0  0  0  0  0  0  0  0
  139.0200   74.8330  222.3730 N   0  0  0  0  0  0  0  0  0  0  0  0
  141.0540   75.9130  221.5390 C   0  0  1  0  0  0  0  0  0  0  0  0
  141.6830   76.1620  220.2240 C   0  0  0  0  0  0  0  0  0  0  0  0
  143.0310   75.8950  220.0490 C   0  0  0  0  0  0  0  0  0  0  0  0
  143.6900   76.0990  218.8630 C   0  0  0  0  0  0  0  0  0  0  0  0
  142.9870   76.5930  217.7820 C   0  0  0  0  0  0  0  0  0  0  0  0
  141.6360   76.8720  217.9190 C   0  0  0  0  0  0  0  0  0  0  0  0
  141.0100   76.6540  219.1280 C   0  0  0  0  0  0  0  0  0  0  0  0
  140.4310   77.1380  222.0930 C   0  0  0  0  0  0  0  0  0  0  0  0
  139.1140   77.4800  221.8410 C   0  0  0  0  0  0  0  0  0  0  0  0
  138.5230   78.6190  222.3510 C   0  0  0  0  0  0  0  0  0  0  0  0
  139.3100   79.4290  223.1430 C   0  0  0  0  0  0  0  0  0  0  0  0
  140.6280   79.1520  223.4370 C   0  0  0  0  0  0  0  0  0  0  0  0
  141.3250   80.0070  224.2260 F   0  0  0  0  0  0  0  0  0  0  0  0
  141.1640   78.0010  222.8980 C   0  0  0  0  0  0  0  0  0  0  0  0
  141.7710   73.2150  219.3280 C   0  0  0  0  0  0  0  0  0  0  0  0
  142.5830   72.3670  218.4290 C   0  0  0  0  0  0  0  0  0  0  0  0
  146.8653   70.4989  216.5041 H   0  0  0  0  0  0  0  0  0  0  0  0
  145.9245   70.0715  215.0348 H   0  0  0  0  0  0  0  0  0  0  0  0
  146.9786   71.5260  215.0348 H   0  0  0  0  0  0  0  0  0  0  0  0
  145.2517   72.7686  215.7665 H   0  0  0  0  0  0  0  0  0  0  0  0
  144.2007   71.3245  215.7813 H   0  0  0  0  0  0  0  0  0  0  0  0
  146.2575   69.6904  220.0283 H   0  0  0  0  0  0  0  0  0  0  0  0
  146.8536   67.2472  220.0442 H   0  0  0  0  0  0  0  0  0  0  0  0
  145.7574   65.6922  218.4694 H   0  0  0  0  0  0  0  0  0  0  0  0
  144.0477   66.5026  216.8413 H   0  0  0  0  0  0  0  0  0  0  0  0
  143.4672   68.9290  216.8396 H   0  0  0  0  0  0  0  0  0  0  0  0
  142.4405   70.3295  218.8923 H   0  0  0  0  0  0  0  0  0  0  0  0
  144.0378   70.4454  220.8821 H   0  0  0  0  0  0  0  0  0  0  0  0
  144.1784   72.1942  220.6363 H   0  0  0  0  0  0  0  0  0  0  0  0
  141.5433   70.6637  220.9694 H   0  0  0  0  0  0  0  0  0  0  0  0
  142.3549   71.5723  222.2724 H   0  0  0  0  0  0  0  0  0  0  0  0
  139.6703   74.7424  220.4572 H   0  0  0  0  0  0  0  0  0  0  0  0
  139.3190   75.3690  223.2160 H   0  0  0  0  0  0  0  0  0  0  0  0
  138.7800   73.8730  222.7640 H   0  0  0  0  0  0  0  0  0  0  0  0
  141.8411   75.6399  222.2573 H   0  0  0  0  0  0  0  0  0  0  0  0
  143.6011   75.5000  220.9028 H   0  0  0  0  0  0  0  0  0  0  0  0
  144.7628   75.8723  218.7746 H   0  0  0  0  0  0  0  0  0  0  0  0
  143.4943   76.7636  216.8210 H   0  0  0  0  0  0  0  0  0  0  0  0
  141.0650   77.2662  217.0655 H   0  0  0  0  0  0  0  0  0  0  0  0
  139.9375   76.8806  219.2201 H   0  0  0  0  0  0  0  0  0  0  0  0
  138.5108   76.8146  221.2059 H   0  0  0  0  0  0  0  0  0  0  0  0
  137.4736   78.8688  222.1357 H   0  0  0  0  0  0  0  0  0  0  0  0
  138.8630   80.3428  223.5614 H   0  0  0  0  0  0  0  0  0  0  0  0
  142.2144   77.7565  223.1143 H   0  0  0  0  0  0  0  0  0  0  0  0
  140.7706   73.3074  218.8801 H   0  0  0  0  0  0  0  0  0  0  0  0
  142.3351   74.1555  219.4135 H   0  0  0  0  0  0  0  0  0  0  0  0
  141.9375   72.0576  217.5937 H   0  0  0  0  0  0  0  0  0  0  0  0
  143.4420   72.9939  218.1476 H   0  0  0  0  0  0  0  0  0  0  0  0
  1  2  1  0
  2  3  1  0
  3  4  2  0
  3  5  1  0
  5  6  1  0
  6  7  2  0
  7  8  1  0
  8  9  2  0
  9 10  1  0
 10 11  2  0
  5 12  1  0
 12 13  1  0
 13 14  1  0
 14 15  1  0
 15 16  1  0
 16 17  2  0
 16 18  1  0
 18 19  1  0
 18 20  1  0
 20 21  1  0
 21 22  2  0
 22 23  1  0
 23 24  2  0
 24 25  1  0
 25 26  2  0
 20 27  1  0
 27 28  2  0
 28 29  1  0
 29 30  2  0
 30 31  1  0
 31 32  1  0
 31 33  2  0
 15 34  1  0
 34 35  1  0
 11  6  1  0
 35 12  1  0
 26 21  1  0
 33 27  1  0
  1 36  1  0
  1 37  1  0
  1 38  1  0
  2 39  1  0
  2 40  1  0
  7 41  1  0
  8 42  1  0
  9 43  1  0
 10 44  1  0
 11 45  1  0
 12 46  1  0
 13 47  1  0
 13 48  1  0
 14 49  1  0
 14 50  1  0
 18 51  1  6
 19 52  1  0
 19 53  1  0
 20 54  1  1
 22 55  1  0
 23 56  1  0
 24 57  1  0
 25 58  1  0
 26 59  1  0
 28 60  1  0
 29 61  1  0
 30 62  1  0
 33 63  1  0
 34 64  1  0
 34 65  1  0
 35 66  1  0
 35 67  1  0
M  END
>  <smiles>  (90) 
CCC(=O)N(c1ccccc1)C1CCN(C(=O)[C@@H](N)C(c2ccccc2)c2cccc(F)c2)CC1

>  <score_type>  (90) 
oracle

>  <origin>  (90) 
autodockgpu

>  <m_score__min__energy>  (90) 
-8.2300000000000004

>  <m_primary>  (90) 
energy

>  <rmsd>  (90) 
5.981390753128871

>  <m_score__min__rmsd>  (90) 
5.981390753128871

>  <meeko>  (90) 
{"free_energy": -7.29, "intermolecular_energy": -9.97, "internal_energy": -3.17, "cluster_size": 27, "cluster_id": 1, "rank_in_cluster": 26}

>  <energy>  (90) 
-7.02

>  <cluster_rmsd>  (90) 
0.0

>  <cluster>  (90) 
7

$$$$

     RDKit          3D

 67 70  0  0  0  0  0  0  0  0999 V2000
  145.0000   73.1620  215.9520 C   0  0  0  0  0  0  0  0  0  0  0  0
  145.1880   71.7440  216.4380 C   0  0  0  0  0  0  0  0  0  0  0  0
  145.1830   71.7620  217.9210 C   0  0  0  0  0  0  0  0  0  0  0  0
  145.9470   72.5920  218.4800 O   0  0  0  0  0  0  0  0  0  0  0  0
  144.3400   70.8650  218.6280 N   0  0  0  0  0  0  0  0  0  0  0  0
  144.7280   69.4960  218.8360 C   0  0  0  0  0  0  0  0  0  0  0  0
  146.0350   69.1300  219.0760 C   0  0  0  0  0  0  0  0  0  0  0  0
  146.3020   67.7710  219.2670 C   0  0  0  0  0  0  0  0  0  0  0  0
  145.2750   66.8430  219.2150 C   0  0  0  0  0  0  0  0  0  0  0  0
  143.9600   67.2220  218.9730 C   0  0  0  0  0  0  0  0  0  0  0  0
  143.7070   68.5690  218.7840 C   0  0  0  0  0  0  0  0  0  0  0  0
  143.0630   71.2600  219.1730 C   0  0  0  0  0  0  0  0  0  0  0  0
  143.2250   71.3510  220.6840 C   0  0  0  0  0  0  0  0  0  0  0  0
  141.8560   71.5940  221.2330 C   0  0  0  0  0  0  0  0  0  0  0  0
  141.3980   72.9130  220.7410 N   0  0  0  0  0  0  0  0  0  0  0  0
  140.5760   73.6160  221.6510 C   0  0  0  0  0  0  0  0  0  0  0  0
  140.3470   73.0240  222.7630 O   0  0  0  0  0  0  0  0  0  0  0  0
  139.9600   74.9350  221.4720 C   0  0  1  0  0  0  0  0  0  0  0  0
  138.9300   75.1620  222.4270 N   0  0  0  0  0  0  0  0  0  0  0  0
  141.0110   76.0240  221.4660 C   0  0  1  0  0  0  0  0  0  0  0  0
  141.4750   76.2930  220.0880 C   0  0  0  0  0  0  0  0  0  0  0  0
  142.8330   76.3880  219.8310 C   0  0  0  0  0  0  0  0  0  0  0  0
  143.3450   76.6370  218.5820 C   0  0  0  0  0  0  0  0  0  0  0  0
  142.4770   76.8020  217.5220 C   0  0  0  0  0  0  0  0  0  0  0  0
  141.1110   76.7150  217.7410 C   0  0  0  0  0  0  0  0  0  0  0  0
  140.6360   76.4640  219.0100 C   0  0  0  0  0  0  0  0  0  0  0  0
  140.5870   77.2650  222.1570 C   0  0  0  0  0  0  0  0  0  0  0  0
  139.3370   77.8270  221.9730 C   0  0  0  0  0  0  0  0  0  0  0  0
  138.9310   78.9820  222.6110 C   0  0  0  0  0  0  0  0  0  0  0  0
  139.8380   79.5750  223.4640 C   0  0  0  0  0  0  0  0  0  0  0  0
  141.1010   79.0730  223.6970 C   0  0  0  0  0  0  0  0  0  0  0  0
  141.9260   79.7230  224.5530 F   0  0  0  0  0  0  0  0  0  0  0  0
  141.4500   77.9160  223.0300 C   0  0  0  0  0  0  0  0  0  0  0  0
  141.7640   73.4220  219.4520 C   0  0  0  0  0  0  0  0  0  0  0  0
  142.6210   72.5680  218.6020 C   0  0  0  0  0  0  0  0  0  0  0  0
  144.9105   73.8369  216.8160 H   0  0  0  0  0  0  0  0  0  0  0  0
  145.8666   73.4588  215.3431 H   0  0  0  0  0  0  0  0  0  0  0  0
  144.0859   73.2227  215.3431 H   0  0  0  0  0  0  0  0  0  0  0  0
  144.3668   71.1115  216.0698 H   0  0  0  0  0  0  0  0  0  0  0  0
  146.1386   71.3355  216.0645 H   0  0  0  0  0  0  0  0  0  0  0  0
  146.8388   69.8799  219.1158 H   0  0  0  0  0  0  0  0  0  0  0  0
  147.3323   67.4372  219.4594 H   0  0  0  0  0  0  0  0  0  0  0  0
  145.5062   65.7787  219.3692 H   0  0  0  0  0  0  0  0  0  0  0  0
  143.1503   66.4785  218.9332 H   0  0  0  0  0  0  0  0  0  0  0  0
  142.6780   68.9057  218.5896 H   0  0  0  0  0  0  0  0  0  0  0  0
  142.2886   70.5231  218.9137 H   0  0  0  0  0  0  0  0  0  0  0  0
  143.6345   70.4106  221.0815 H   0  0  0  0  0  0  0  0  0  0  0  0
  143.9202   72.1554  220.9663 H   0  0  0  0  0  0  0  0  0  0  0  0
  141.1694   70.8070  220.8878 H   0  0  0  0  0  0  0  0  0  0  0  0
  141.8753   71.5800  222.3327 H   0  0  0  0  0  0  0  0  0  0  0  0
  139.4723   74.9602  220.4863 H   0  0  0  0  0  0  0  0  0  0  0  0
  139.3510   75.5110  223.3150 H   0  0  0  0  0  0  0  0  0  0  0  0
  138.4860   74.2370  222.7110 H   0  0  0  0  0  0  0  0  0  0  0  0
  141.8592   75.6429  222.0536 H   0  0  0  0  0  0  0  0  0  0  0  0
  143.5347   76.2576  220.6681 H   0  0  0  0  0  0  0  0  0  0  0  0
  144.4321   76.7041  218.4282 H   0  0  0  0  0  0  0  0  0  0  0  0
  142.8656   77.0008  216.5123 H   0  0  0  0  0  0  0  0  0  0  0  0
  140.4086   76.8459  216.9047 H   0  0  0  0  0  0  0  0  0  0  0  0
  139.5493   76.3980  219.1670 H   0  0  0  0  0  0  0  0  0  0  0  0
  138.6343   77.3313  221.2872 H   0  0  0  0  0  0  0  0  0  0  0  0
  137.9308   79.4093  222.4466 H   0  0  0  0  0  0  0  0  0  0  0  0
  139.5384   80.4960  223.9855 H   0  0  0  0  0  0  0  0  0  0  0  0
  142.4514   77.4924  223.1962 H   0  0  0  0  0  0  0  0  0  0  0  0
  140.8341   73.6132  218.8964 H   0  0  0  0  0  0  0  0  0  0  0  0
  142.3751   74.3118  219.6638 H   0  0  0  0  0  0  0  0  0  0  0  0
  142.0628   72.3541  217.6786 H   0  0  0  0  0  0  0  0  0  0  0  0
  143.5476   73.1445  218.4643 H   0  0  0  0  0  0  0  0  0  0  0  0
  1  2  1  0
  2  3  1  0
  3  4  2  0
  3  5  1  0
  5  6  1  0
  6  7  2  0
  7  8  1  0
  8  9  2  0
  9 10  1  0
 10 11  2  0
  5 12  1  0
 12 13  1  0
 13 14  1  0
 14 15  1  0
 15 16  1  0
 16 17  2  0
 16 18  1  0
 18 19  1  0
 18 20  1  0
 20 21  1  0
 21 22  2  0
 22 23  1  0
 23 24  2  0
 24 25  1  0
 25 26  2  0
 20 27  1  0
 27 28  2  0
 28 29  1  0
 29 30  2  0
 30 31  1  0
 31 32  1  0
 31 33  2  0
 15 34  1  0
 34 35  1  0
 11  6  1  0
 35 12  1  0
 26 21  1  0
 33 27  1  0
  1 36  1  0
  1 37  1  0
  1 38  1  0
  2 39  1  0
  2 40  1  0
  7 41  1  0
  8 42  1  0
  9 43  1  0
 10 44  1  0
 11 45  1  0
 12 46  1  0
 13 47  1  0
 13 48  1  0
 14 49  1  0
 14 50  1  0
 18 51  1  6
 19 52  1  0
 19 53  1  0
 20 54  1  1
 22 55  1  0
 23 56  1  0
 24 57  1  0
 25 58  1  0
 26 59  1  0
 28 60  1  0
 29 61  1  0
 30 62  1  0
 33 63  1  0
 34 64  1  0
 34 65  1  0
 35 66  1  0
 35 67  1  0
M  END
>  <smiles>  (91) 
CCC(=O)N(c1ccccc1)C1CCN(C(=O)[C@@H](N)C(c2ccccc2)c2cccc(F)c2)CC1

>  <score_type>  (91) 
oracle

>  <origin>  (91) 
autodockgpu

>  <m_score__min__energy>  (91) 
-8.2300000000000004

>  <m_primary>  (91) 
energy

>  <rmsd>  (91) 
5.750143085009495

>  <m_score__min__rmsd>  (91) 
5.750143085009495

>  <meeko>  (91) 
{"free_energy": -7.6, "intermolecular_energy": -10.29, "internal_energy": -3.15, "cluster_size": 27, "cluster_id": 1, "rank_in_cluster": 18}

>  <energy>  (91) 
-6.99

>  <cluster_rmsd>  (91) 
0.77

>  <cluster>  (91) 
7

$$$$

     RDKit          3D

 67 70  0  0  0  0  0  0  0  0999 V2000
  143.0860   80.5220  223.3550 C   0  0  0  0  0  0  0  0  0  0  0  0
  141.8560   81.2590  223.8290 C   0  0  0  0  0  0  0  0  0  0  0  0
  140.8130   81.1340  222.7810 C   0  0  0  0  0  0  0  0  0  0  0  0
  141.0550   81.6800  221.6730 O   0  0  0  0  0  0  0  0  0  0  0  0
  139.6170   80.4240  223.0670 N   0  0  0  0  0  0  0  0  0  0  0  0
  138.4760   81.0960  223.6290 C   0  0  0  0  0  0  0  0  0  0  0  0
  137.8070   82.0960  222.9580 C   0  0  0  0  0  0  0  0  0  0  0  0
  136.7090   82.6800  223.5950 C   0  0  0  0  0  0  0  0  0  0  0  0
  136.3220   82.2530  224.8540 C   0  0  0  0  0  0  0  0  0  0  0  0
  137.0040   81.2430  225.5230 C   0  0  0  0  0  0  0  0  0  0  0  0
  138.0900   80.6730  224.8850 C   0  0  0  0  0  0  0  0  0  0  0  0
  139.4710   79.0090  222.8190 C   0  0  0  0  0  0  0  0  0  0  0  0
  138.9830   78.8510  221.3870 C   0  0  0  0  0  0  0  0  0  0  0  0
  138.6790   77.3970  221.2110 C   0  0  0  0  0  0  0  0  0  0  0  0
  139.9510   76.6500  221.3480 N   0  0  0  0  0  0  0  0  0  0  0  0
  140.0320   75.4950  220.5360 C   0  0  0  0  0  0  0  0  0  0  0  0
  139.0100   75.2600  219.8030 O   0  0  0  0  0  0  0  0  0  0  0  0
  141.1430   74.5430  220.4380 C   0  0  1  0  0  0  0  0  0  0  0  0
  140.9540   73.6330  219.3600 N   0  0  0  0  0  0  0  0  0  0  0  0
  142.4700   75.2680  220.3740 C   0  0  1  0  0  0  0  0  0  0  0  0
  143.5920   74.3060  220.4150 C   0  0  0  0  0  0  0  0  0  0  0  0
  144.8940   74.7760  220.4770 C   0  0  0  0  0  0  0  0  0  0  0  0
  145.9890   73.9500  220.5160 C   0  0  0  0  0  0  0  0  0  0  0  0
  145.8000   72.5830  220.4940 C   0  0  0  0  0  0  0  0  0  0  0  0
  144.5120   72.0750  220.4310 C   0  0  0  0  0  0  0  0  0  0  0  0
  143.4370   72.9380  220.3920 C   0  0  0  0  0  0  0  0  0  0  0  0
  142.5840   76.2000  219.2280 C   0  0  0  0  0  0  0  0  0  0  0  0
  142.8690   75.7690  217.9450 C   0  0  0  0  0  0  0  0  0  0  0  0
  142.9780   76.6280  216.8700 C   0  0  0  0  0  0  0  0  0  0  0  0
  142.7890   77.9700  217.1230 C   0  0  0  0  0  0  0  0  0  0  0  0
  142.5020   78.4730  218.3740 C   0  0  0  0  0  0  0  0  0  0  0  0
  142.3310   79.8090  218.5280 F   0  0  0  0  0  0  0  0  0  0  0  0
  142.4060   77.5660  219.4090 C   0  0  0  0  0  0  0  0  0  0  0  0
  140.9990   77.0720  222.2280 C   0  0  0  0  0  0  0  0  0  0  0  0
  140.7670   78.2960  223.0250 C   0  0  0  0  0  0  0  0  0  0  0  0
  143.6638   80.1758  224.2246 H   0  0  0  0  0  0  0  0  0  0  0  0
  142.7834   79.6563  222.7476 H   0  0  0  0  0  0  0  0  0  0  0  0
  143.7067   81.1971  222.7476 H   0  0  0  0  0  0  0  0  0  0  0  0
  141.4951   80.8166  224.7692 H   0  0  0  0  0  0  0  0  0  0  0  0
  142.0914   82.3184  224.0088 H   0  0  0  0  0  0  0  0  0  0  0  0
  138.1256   82.4228  221.9572 H   0  0  0  0  0  0  0  0  0  0  0  0
  136.1491   83.4832  223.0936 H   0  0  0  0  0  0  0  0  0  0  0  0
  135.4534   82.7246  225.3368 H   0  0  0  0  0  0  0  0  0  0  0  0
  136.6910   80.9096  226.5234 H   0  0  0  0  0  0  0  0  0  0  0  0
  138.6540   79.8717  225.3849 H   0  0  0  0  0  0  0  0  0  0  0  0
  138.7501   78.5656  223.5217 H   0  0  0  0  0  0  0  0  0  0  0  0
  138.0770   79.4530  221.2237 H   0  0  0  0  0  0  0  0  0  0  0  0
  139.7383   79.1942  220.6646 H   0  0  0  0  0  0  0  0  0  0  0  0
  137.9664   77.0675  221.9815 H   0  0  0  0  0  0  0  0  0  0  0  0
  138.2300   77.2145  220.2235 H   0  0  0  0  0  0  0  0  0  0  0  0
  141.1601   73.9326  221.3529 H   0  0  0  0  0  0  0  0  0  0  0  0
  141.1170   74.1270  218.4560 H   0  0  0  0  0  0  0  0  0  0  0  0
  139.9310   73.3440  219.3020 H   0  0  0  0  0  0  0  0  0  0  0  0
  142.5221   75.9050  221.2692 H   0  0  0  0  0  0  0  0  0  0  0  0
  145.0577   75.8636  220.4959 H   0  0  0  0  0  0  0  0  0  0  0  0
  147.0038   74.3717  220.5642 H   0  0  0  0  0  0  0  0  0  0  0  0
  146.6639   71.9028  220.5262 H   0  0  0  0  0  0  0  0  0  0  0  0
  144.3478   70.9875  220.4122 H   0  0  0  0  0  0  0  0  0  0  0  0
  142.4211   72.5192  220.3408 H   0  0  0  0  0  0  0  0  0  0  0  0
  143.0155   74.6924  217.7735 H   0  0  0  0  0  0  0  0  0  0  0  0
  143.2050   76.2591  215.8589 H   0  0  0  0  0  0  0  0  0  0  0  0
  142.8715   78.6758  216.2833 H   0  0  0  0  0  0  0  0  0  0  0  0
  142.1793   77.9394  220.4185 H   0  0  0  0  0  0  0  0  0  0  0  0
  141.1883   76.2497  222.9337 H   0  0  0  0  0  0  0  0  0  0  0  0
  141.8393   77.3236  221.5643 H   0  0  0  0  0  0  0  0  0  0  0  0
  140.8252   78.0154  224.0870 H   0  0  0  0  0  0  0  0  0  0  0  0
  141.5374   79.0047  222.6871 H   0  0  0  0  0  0  0  0  0  0  0  0
  1  2  1  0
  2  3  1  0
  3  4  2  0
  3  5  1  0
  5  6  1  0
  6  7  2  0
  7  8  1  0
  8  9  2  0
  9 10  1  0
 10 11  2  0
  5 12  1  0
 12 13  1  0
 13 14  1  0
 14 15  1  0
 15 16  1  0
 16 17  2  0
 16 18  1  0
 18 19  1  0
 18 20  1  0
 20 21  1  0
 21 22  2  0
 22 23  1  0
 23 24  2  0
 24 25  1  0
 25 26  2  0
 20 27  1  0
 27 28  2  0
 28 29  1  0
 29 30  2  0
 30 31  1  0
 31 32  1  0
 31 33  2  0
 15 34  1  0
 34 35  1  0
 11  6  1  0
 35 12  1  0
 26 21  1  0
 33 27  1  0
  1 36  1  0
  1 37  1  0
  1 38  1  0
  2 39  1  0
  2 40  1  0
  7 41  1  0
  8 42  1  0
  9 43  1  0
 10 44  1  0
 11 45  1  0
 12 46  1  0
 13 47  1  0
 13 48  1  0
 14 49  1  0
 14 50  1  0
 18 51  1  1
 19 52  1  0
 19 53  1  0
 20 54  1  1
 22 55  1  0
 23 56  1  0
 24 57  1  0
 25 58  1  0
 26 59  1  0
 28 60  1  0
 29 61  1  0
 30 62  1  0
 33 63  1  0
 34 64  1  0
 34 65  1  0
 35 66  1  0
 35 67  1  0
M  END
>  <smiles>  (92) 
CCC(=O)N(c1ccccc1)C1CCN(C(=O)[C@@H](N)C(c2ccccc2)c2cccc(F)c2)CC1

>  <score_type>  (92) 
oracle

>  <origin>  (92) 
autodockgpu

>  <m_score__min__energy>  (92) 
-8.2300000000000004

>  <m_primary>  (92) 
energy

>  <rmsd>  (92) 
7.030978987064928

>  <m_score__min__rmsd>  (92) 
7.030978987064928

>  <meeko>  (92) 
{"free_energy": -7.03, "intermolecular_energy": -9.72, "internal_energy": -3.24, "cluster_size": 6, "cluster_id": 6, "rank_in_cluster": 3}

>  <energy>  (92) 
-6.99

>  <cluster_rmsd>  (92) 
0.3

>  <cluster>  (92) 
7

$$$$

     RDKit          3D

 67 70  0  0  0  0  0  0  0  0999 V2000
  145.1150   73.3110  216.0400 C   0  0  0  0  0  0  0  0  0  0  0  0
  145.1690   71.8740  216.5000 C   0  0  0  0  0  0  0  0  0  0  0  0
  145.1440   71.8640  217.9830 C   0  0  0  0  0  0  0  0  0  0  0  0
  145.9450   72.6380  218.5680 O   0  0  0  0  0  0  0  0  0  0  0  0
  144.2410   71.0030  218.6610 N   0  0  0  0  0  0  0  0  0  0  0  0
  144.5540   69.6130  218.8580 C   0  0  0  0  0  0  0  0  0  0  0  0
  143.5910   68.6290  218.8200 C   0  0  0  0  0  0  0  0  0  0  0  0
  144.0040   67.3090  219.0210 C   0  0  0  0  0  0  0  0  0  0  0  0
  145.3410   67.0220  219.2460 C   0  0  0  0  0  0  0  0  0  0  0  0
  146.3060   68.0220  219.2820 C   0  0  0  0  0  0  0  0  0  0  0  0
  145.8850   69.3240  219.0840 C   0  0  0  0  0  0  0  0  0  0  0  0
  142.9750   71.4560  219.1860 C   0  0  0  0  0  0  0  0  0  0  0  0
  143.1220   71.5530  220.6980 C   0  0  0  0  0  0  0  0  0  0  0  0
  141.7570   71.8590  221.2280 C   0  0  0  0  0  0  0  0  0  0  0  0
  141.3630   73.1920  220.7190 N   0  0  0  0  0  0  0  0  0  0  0  0
  140.5600   73.9370  221.6130 C   0  0  0  0  0  0  0  0  0  0  0  0
  140.2920   73.3650  222.7260 O   0  0  0  0  0  0  0  0  0  0  0  0
  140.0040   75.2800  221.4150 C   0  0  1  0  0  0  0  0  0  0  0  0
  138.9220   75.5310  222.3040 N   0  0  0  0  0  0  0  0  0  0  0  0
  141.0900   76.3310  221.4950 C   0  0  1  0  0  0  0  0  0  0  0  0
  141.6210   76.6360  220.1490 C   0  0  0  0  0  0  0  0  0  0  0  0
  140.7560   77.0620  219.1540 C   0  0  0  0  0  0  0  0  0  0  0  0
  141.1670   77.3630  217.8800 C   0  0  0  0  0  0  0  0  0  0  0  0
  142.5040   77.2410  217.5600 C   0  0  0  0  0  0  0  0  0  0  0  0
  143.4000   76.8180  218.5300 C   0  0  0  0  0  0  0  0  0  0  0  0
  142.9470   76.5240  219.7980 C   0  0  0  0  0  0  0  0  0  0  0  0
  140.6800   77.5580  222.2180 C   0  0  0  0  0  0  0  0  0  0  0  0
  141.4370   78.1070  223.2360 C   0  0  0  0  0  0  0  0  0  0  0  0
  141.0650   79.2490  223.9180 C   0  0  0  0  0  0  0  0  0  0  0  0
  139.8800   79.8420  223.5390 C   0  0  0  0  0  0  0  0  0  0  0  0
  139.0730   79.3520  222.5330 C   0  0  0  0  0  0  0  0  0  0  0  0
  137.9240   80.0030  222.2280 F   0  0  0  0  0  0  0  0  0  0  0  0
  139.4970   78.2080  221.8890 C   0  0  0  0  0  0  0  0  0  0  0  0
  141.7670   73.6740  219.4310 C   0  0  0  0  0  0  0  0  0  0  0  0
  142.5970   72.7770  218.5990 C   0  0  0  0  0  0  0  0  0  0  0  0
  145.0900   73.9757  216.9161 H   0  0  0  0  0  0  0  0  0  0  0  0
  146.0053   73.5358  215.4344 H   0  0  0  0  0  0  0  0  0  0  0  0
  144.2103   73.4684  215.4344 H   0  0  0  0  0  0  0  0  0  0  0  0
  144.3003   71.3243  216.1087 H   0  0  0  0  0  0  0  0  0  0  0  0
  146.0851   71.3897  216.1309 H   0  0  0  0  0  0  0  0  0  0  0  0
  142.5341   68.8734  218.6379 H   0  0  0  0  0  0  0  0  0  0  0  0
  143.2648   66.4946  219.0005 H   0  0  0  0  0  0  0  0  0  0  0  0
  145.6464   65.9765  219.4000 H   0  0  0  0  0  0  0  0  0  0  0  0
  147.3653   67.7862  219.4614 H   0  0  0  0  0  0  0  0  0  0  0  0
  146.6210   70.1412  219.1069 H   0  0  0  0  0  0  0  0  0  0  0  0
  142.1732   70.7505  218.9226 H   0  0  0  0  0  0  0  0  0  0  0  0
  143.4860   70.5995  221.1082 H   0  0  0  0  0  0  0  0  0  0  0  0
  143.8473   72.3295  220.9825 H   0  0  0  0  0  0  0  0  0  0  0  0
  141.0415   71.0992  220.8805 H   0  0  0  0  0  0  0  0  0  0  0  0
  141.7615   71.8534  222.3280 H   0  0  0  0  0  0  0  0  0  0  0  0
  139.5842   75.3357  220.3998 H   0  0  0  0  0  0  0  0  0  0  0  0
  139.1480   75.1400  223.2450 H   0  0  0  0  0  0  0  0  0  0  0  0
  138.0670   74.9710  222.0050 H   0  0  0  0  0  0  0  0  0  0  0  0
  141.8996   75.8980  222.1008 H   0  0  0  0  0  0  0  0  0  0  0  0
  139.6881   77.1638  219.3972 H   0  0  0  0  0  0  0  0  0  0  0  0
  140.4410   77.6969  217.1241 H   0  0  0  0  0  0  0  0  0  0  0  0
  142.8555   77.4772  216.5448 H   0  0  0  0  0  0  0  0  0  0  0  0
  144.4684   76.7175  218.2884 H   0  0  0  0  0  0  0  0  0  0  0  0
  143.6703   76.1882  220.5557 H   0  0  0  0  0  0  0  0  0  0  0  0
  142.3786   77.6118  223.5157 H   0  0  0  0  0  0  0  0  0  0  0  0
  141.6852   79.6655  224.7254 H   0  0  0  0  0  0  0  0  0  0  0  0
  139.5611   80.7534  224.0660 H   0  0  0  0  0  0  0  0  0  0  0  0
  138.8735   77.7940  221.0829 H   0  0  0  0  0  0  0  0  0  0  0  0
  140.8533   73.9004  218.8619 H   0  0  0  0  0  0  0  0  0  0  0  0
  142.4132   74.5384  219.6439 H   0  0  0  0  0  0  0  0  0  0  0  0
  142.0418   72.5795  217.6702 H   0  0  0  0  0  0  0  0  0  0  0  0
  143.5492   73.3120  218.4687 H   0  0  0  0  0  0  0  0  0  0  0  0
  1  2  1  0
  2  3  1  0
  3  4  2  0
  3  5  1  0
  5  6  1  0
  6  7  2  0
  7  8  1  0
  8  9  2  0
  9 10  1  0
 10 11  2  0
  5 12  1  0
 12 13  1  0
 13 14  1  0
 14 15  1  0
 15 16  1  0
 16 17  2  0
 16 18  1  0
 18 19  1  0
 18 20  1  0
 20 21  1  0
 21 22  2  0
 22 23  1  0
 23 24  2  0
 24 25  1  0
 25 26  2  0
 20 27  1  0
 27 28  2  0
 28 29  1  0
 29 30  2  0
 30 31  1  0
 31 32  1  0
 31 33  2  0
 15 34  1  0
 34 35  1  0
 11  6  1  0
 35 12  1  0
 26 21  1  0
 33 27  1  0
  1 36  1  0
  1 37  1  0
  1 38  1  0
  2 39  1  0
  2 40  1  0
  7 41  1  0
  8 42  1  0
  9 43  1  0
 10 44  1  0
 11 45  1  0
 12 46  1  0
 13 47  1  0
 13 48  1  0
 14 49  1  0
 14 50  1  0
 18 51  1  6
 19 52  1  0
 19 53  1  0
 20 54  1  1
 22 55  1  0
 23 56  1  0
 24 57  1  0
 25 58  1  0
 26 59  1  0
 28 60  1  0
 29 61  1  0
 30 62  1  0
 33 63  1  0
 34 64  1  0
 34 65  1  0
 35 66  1  0
 35 67  1  0
M  END
>  <smiles>  (93) 
CCC(=O)N(c1ccccc1)C1CCN(C(=O)[C@@H](N)C(c2ccccc2)c2cccc(F)c2)CC1

>  <score_type>  (93) 
oracle

>  <origin>  (93) 
autodockgpu

>  <m_score__min__energy>  (93) 
-8.2300000000000004

>  <m_primary>  (93) 
energy

>  <rmsd>  (93) 
5.308973097661884

>  <m_score__min__rmsd>  (93) 
5.308973097661884

>  <meeko>  (93) 
{"free_energy": -7.49, "intermolecular_energy": -10.17, "internal_energy": -3.2, "cluster_size": 27, "cluster_id": 1, "rank_in_cluster": 23}

>  <energy>  (93) 
-6.95

>  <cluster_rmsd>  (93) 
0.11

>  <cluster>  (93) 
7

$$$$

     RDKit          3D

 67 70  0  0  0  0  0  0  0  0999 V2000
  139.1790   66.2700  222.5010 C   0  0  0  0  0  0  0  0  0  0  0  0
  138.4490   67.5640  222.7740 C   0  0  0  0  0  0  0  0  0  0  0  0
  138.9910   68.1400  224.0290 C   0  0  0  0  0  0  0  0  0  0  0  0
  139.3170   67.3260  224.9320 O   0  0  0  0  0  0  0  0  0  0  0  0
  139.1140   69.5490  224.1550 N   0  0  0  0  0  0  0  0  0  0  0  0
  139.7000   70.1370  225.3300 C   0  0  0  0  0  0  0  0  0  0  0  0
  140.6530   71.1290  225.2590 C   0  0  0  0  0  0  0  0  0  0  0  0
  141.1550   71.6330  226.4620 C   0  0  0  0  0  0  0  0  0  0  0  0
  140.6960   71.1380  227.6720 C   0  0  0  0  0  0  0  0  0  0  0  0
  139.7340   70.1360  227.7340 C   0  0  0  0  0  0  0  0  0  0  0  0
  139.2460   69.6450  226.5370 C   0  0  0  0  0  0  0  0  0  0  0  0
  138.6670   70.4660  223.1340 C   0  0  0  0  0  0  0  0  0  0  0  0
  137.8210   71.5290  223.8200 C   0  0  0  0  0  0  0  0  0  0  0  0
  137.2340   72.3620  222.7250 C   0  0  0  0  0  0  0  0  0  0  0  0
  138.3490   73.0430  222.0280 N   0  0  0  0  0  0  0  0  0  0  0  0
  138.0250   74.3290  221.5390 C   0  0  0  0  0  0  0  0  0  0  0  0
  136.8300   74.7240  221.7670 O   0  0  0  0  0  0  0  0  0  0  0  0
  138.8940   75.2570  220.8080 C   0  0  1  0  0  0  0  0  0  0  0  0
  138.1690   76.3880  220.3390 N   0  0  0  0  0  0  0  0  0  0  0  0
  140.1020   75.6330  221.6380 C   0  0  1  0  0  0  0  0  0  0  0  0
  141.3430   75.4940  220.8460 C   0  0  0  0  0  0  0  0  0  0  0  0
  142.2580   74.5070  221.1770 C   0  0  0  0  0  0  0  0  0  0  0  0
  143.4330   74.3140  220.4940 C   0  0  0  0  0  0  0  0  0  0  0  0
  143.7300   75.1330  219.4240 C   0  0  0  0  0  0  0  0  0  0  0  0
  142.8380   76.1320  219.0640 C   0  0  0  0  0  0  0  0  0  0  0  0
  141.6690   76.2950  219.7750 C   0  0  0  0  0  0  0  0  0  0  0  0
  139.9980   76.9690  222.2710 C   0  0  0  0  0  0  0  0  0  0  0  0
  138.8090   77.4580  222.7810 C   0  0  0  0  0  0  0  0  0  0  0  0
  138.6990   78.7010  223.3720 C   0  0  0  0  0  0  0  0  0  0  0  0
  139.8470   79.4620  223.4400 C   0  0  0  0  0  0  0  0  0  0  0  0
  141.0660   79.0410  222.9530 C   0  0  0  0  0  0  0  0  0  0  0  0
  142.1430   79.8580  223.0650 F   0  0  0  0  0  0  0  0  0  0  0  0
  141.1140   77.7900  222.3730 C   0  0  0  0  0  0  0  0  0  0  0  0
  139.6400   72.4400  221.8700 C   0  0  0  0  0  0  0  0  0  0  0  0
  139.8280   71.0820  222.4240 C   0  0  0  0  0  0  0  0  0  0  0  0
  139.4483   65.7927  223.4548 H   0  0  0  0  0  0  0  0  0  0  0  0
  138.5279   65.5962  221.9247 H   0  0  0  0  0  0  0  0  0  0  0  0
  140.0924   66.4788  221.9247 H   0  0  0  0  0  0  0  0  0  0  0  0
  138.6087   68.2654  221.9418 H   0  0  0  0  0  0  0  0  0  0  0  0
  137.3690   67.3800  222.8731 H   0  0  0  0  0  0  0  0  0  0  0  0
  141.0064   71.5109  224.2899 H   0  0  0  0  0  0  0  0  0  0  0  0
  141.9175   72.4258  226.4482 H   0  0  0  0  0  0  0  0  0  0  0  0
  141.1032   71.5484  228.6078 H   0  0  0  0  0  0  0  0  0  0  0  0
  139.3747   69.7486  228.6988 H   0  0  0  0  0  0  0  0  0  0  0  0
  138.4850   68.8508  226.5469 H   0  0  0  0  0  0  0  0  0  0  0  0
  138.0752   69.9361  222.3730 H   0  0  0  0  0  0  0  0  0  0  0  0
  137.0221   71.0581  224.4116 H   0  0  0  0  0  0  0  0  0  0  0  0
  138.4231   72.1384  224.5100 H   0  0  0  0  0  0  0  0  0  0  0  0
  136.6872   71.7202  222.0185 H   0  0  0  0  0  0  0  0  0  0  0  0
  136.5308   73.1001  223.1382 H   0  0  0  0  0  0  0  0  0  0  0  0
  139.2734   74.7442  219.9119 H   0  0  0  0  0  0  0  0  0  0  0  0
  137.4600   76.6660  221.0510 H   0  0  0  0  0  0  0  0  0  0  0  0
  137.5770   76.1180  219.4960 H   0  0  0  0  0  0  0  0  0  0  0  0
  140.1393   74.9206  222.4753 H   0  0  0  0  0  0  0  0  0  0  0  0
  142.0319   73.8470  222.0274 H   0  0  0  0  0  0  0  0  0  0  0  0
  144.1286   73.5170  220.7957 H   0  0  0  0  0  0  0  0  0  0  0  0
  144.6654   74.9948  218.8619 H   0  0  0  0  0  0  0  0  0  0  0  0
  143.0630   76.7923  218.2134 H   0  0  0  0  0  0  0  0  0  0  0  0
  140.9725   77.0924  219.4766 H   0  0  0  0  0  0  0  0  0  0  0  0
  137.9100   76.8279  222.7127 H   0  0  0  0  0  0  0  0  0  0  0  0
  137.7409   79.0669  223.7698 H   0  0  0  0  0  0  0  0  0  0  0  0
  139.7869   80.4562  223.9069 H   0  0  0  0  0  0  0  0  0  0  0  0
  142.0739   77.4284  221.9757 H   0  0  0  0  0  0  0  0  0  0  0  0
  139.8507   72.3887  220.7916 H   0  0  0  0  0  0  0  0  0  0  0  0
  140.3221   73.0782  222.4509 H   0  0  0  0  0  0  0  0  0  0  0  0
  140.0947   70.4181  221.5885 H   0  0  0  0  0  0  0  0  0  0  0  0
  140.6034   71.1962  223.1959 H   0  0  0  0  0  0  0  0  0  0  0  0
  1  2  1  0
  2  3  1  0
  3  4  2  0
  3  5  1  0
  5  6  1  0
  6  7  2  0
  7  8  1  0
  8  9  2  0
  9 10  1  0
 10 11  2  0
  5 12  1  0
 12 13  1  0
 13 14  1  0
 14 15  1  0
 15 16  1  0
 16 17  2  0
 16 18  1  0
 18 19  1  0
 18 20  1  0
 20 21  1  0
 21 22  2  0
 22 23  1  0
 23 24  2  0
 24 25  1  0
 25 26  2  0
 20 27  1  0
 27 28  2  0
 28 29  1  0
 29 30  2  0
 30 31  1  0
 31 32  1  0
 31 33  2  0
 15 34  1  0
 34 35  1  0
 11  6  1  0
 35 12  1  0
 26 21  1  0
 33 27  1  0
  1 36  1  0
  1 37  1  0
  1 38  1  0
  2 39  1  0
  2 40  1  0
  7 41  1  0
  8 42  1  0
  9 43  1  0
 10 44  1  0
 11 45  1  0
 12 46  1  0
 13 47  1  0
 13 48  1  0
 14 49  1  0
 14 50  1  0
 18 51  1  6
 19 52  1  0
 19 53  1  0
 20 54  1  1
 22 55  1  0
 23 56  1  0
 24 57  1  0
 25 58  1  0
 26 59  1  0
 28 60  1  0
 29 61  1  0
 30 62  1  0
 33 63  1  0
 34 64  1  0
 34 65  1  0
 35 66  1  0
 35 67  1  0
M  END
>  <smiles>  (94) 
CCC(=O)N(c1ccccc1)C1CCN(C(=O)[C@@H](N)C(c2ccccc2)c2cccc(F)c2)CC1

>  <score_type>  (94) 
oracle

>  <origin>  (94) 
autodockgpu

>  <m_score__min__energy>  (94) 
-8.2300000000000004

>  <m_primary>  (94) 
energy

>  <rmsd>  (94) 
7.079858900088249

>  <m_score__min__rmsd>  (94) 
7.079858900088249

>  <meeko>  (94) 
{"free_energy": -7.89, "intermolecular_energy": -10.58, "internal_energy": -2.78, "cluster_size": 2, "cluster_id": 3, "rank_in_cluster": 2}

>  <energy>  (94) 
-6.94

>  <cluster_rmsd>  (94) 
0.26

>  <cluster>  (94) 
7

$$$$

     RDKit          3D

 67 70  0  0  0  0  0  0  0  0999 V2000
  146.2420   73.6380  221.0920 C   0  0  0  0  0  0  0  0  0  0  0  0
  145.9320   72.3020  220.4580 C   0  0  0  0  0  0  0  0  0  0  0  0
  145.2190   72.5540  219.1820 C   0  0  0  0  0  0  0  0  0  0  0  0
  145.8170   72.2270  218.1250 O   0  0  0  0  0  0  0  0  0  0  0  0
  143.9250   73.1390  219.2080 N   0  0  0  0  0  0  0  0  0  0  0  0
  142.7990   72.4160  219.7370 C   0  0  0  0  0  0  0  0  0  0  0  0
  142.1850   71.3990  219.0400 C   0  0  0  0  0  0  0  0  0  0  0  0
  141.1000   70.7600  219.6480 C   0  0  0  0  0  0  0  0  0  0  0  0
  140.6760   71.1510  220.9070 C   0  0  0  0  0  0  0  0  0  0  0  0
  141.3020   72.1790  221.6030 C   0  0  0  0  0  0  0  0  0  0  0  0
  142.3730   72.8050  220.9910 C   0  0  0  0  0  0  0  0  0  0  0  0
  143.6600   74.4690  218.7150 C   0  0  0  0  0  0  0  0  0  0  0  0
  142.1710   74.5490  218.4100 C   0  0  0  0  0  0  0  0  0  0  0  0
  141.9550   75.8720  217.7460 C   0  0  0  0  0  0  0  0  0  0  0  0
  142.2790   76.9300  218.7300 N   0  0  0  0  0  0  0  0  0  0  0  0
  141.4910   78.0970  218.6040 C   0  0  0  0  0  0  0  0  0  0  0  0
  140.6140   78.0760  217.6720 O   0  0  0  0  0  0  0  0  0  0  0  0
  141.5590   79.3190  219.4120 C   0  0  1  0  0  0  0  0  0  0  0  0
  141.2960   80.4760  218.6270 N   0  0  0  0  0  0  0  0  0  0  0  0
  140.6640   79.2130  220.6280 C   0  0  1  0  0  0  0  0  0  0  0  0
  140.3250   77.8000  220.9040 C   0  0  0  0  0  0  0  0  0  0  0  0
  139.2030   77.2390  220.3150 C   0  0  0  0  0  0  0  0  0  0  0  0
  138.8180   75.9380  220.5210 C   0  0  0  0  0  0  0  0  0  0  0  0
  139.5770   75.1380  221.3520 C   0  0  0  0  0  0  0  0  0  0  0  0
  140.7070   75.6640  221.9580 C   0  0  0  0  0  0  0  0  0  0  0  0
  141.0600   76.9770  221.7270 C   0  0  0  0  0  0  0  0  0  0  0  0
  141.2040   79.8950  221.8270 C   0  0  0  0  0  0  0  0  0  0  0  0
  140.3930   80.5470  222.7390 C   0  0  0  0  0  0  0  0  0  0  0  0
  140.8840   81.1870  223.8590 C   0  0  0  0  0  0  0  0  0  0  0  0
  142.2500   81.1540  224.0460 C   0  0  0  0  0  0  0  0  0  0  0  0
  143.1200   80.5240  223.1810 C   0  0  0  0  0  0  0  0  0  0  0  0
  144.4490   80.5430  223.4470 F   0  0  0  0  0  0  0  0  0  0  0  0
  142.5700   79.9030  222.0790 C   0  0  0  0  0  0  0  0  0  0  0  0
  143.3050   76.7730  219.7180 C   0  0  0  0  0  0  0  0  0  0  0  0
  144.0560   75.5000  219.7210 C   0  0  0  0  0  0  0  0  0  0  0  0
  146.2189   73.5383  222.1872 H   0  0  0  0  0  0  0  0  0  0  0  0
  147.2413   73.9712  220.7752 H   0  0  0  0  0  0  0  0  0  0  0  0
  145.4915   74.3772  220.7752 H   0  0  0  0  0  0  0  0  0  0  0  0
  146.8667   71.7562  220.2617 H   0  0  0  0  0  0  0  0  0  0  0  0
  145.3079   71.6956  221.1309 H   0  0  0  0  0  0  0  0  0  0  0  0
  142.5355   71.1003  218.0411 H   0  0  0  0  0  0  0  0  0  0  0  0
  140.5813   69.9436  219.1242 H   0  0  0  0  0  0  0  0  0  0  0  0
  139.8214   70.6347  221.3686 H   0  0  0  0  0  0  0  0  0  0  0  0
  140.9585   72.4831  222.6028 H   0  0  0  0  0  0  0  0  0  0  0  0
  142.8922   73.6238  221.5106 H   0  0  0  0  0  0  0  0  0  0  0  0
  144.2496   74.6683  217.8080 H   0  0  0  0  0  0  0  0  0  0  0  0
  141.8745   73.7310  217.7370 H   0  0  0  0  0  0  0  0  0  0  0  0
  141.5674   74.4547  219.3248 H   0  0  0  0  0  0  0  0  0  0  0  0
  142.6127   75.9624  216.8690 H   0  0  0  0  0  0  0  0  0  0  0  0
  140.9124   75.9671  217.4085 H   0  0  0  0  0  0  0  0  0  0  0  0
  142.5873   79.4316  219.7862 H   0  0  0  0  0  0  0  0  0  0  0  0
  140.6240   80.2350  217.8680 H   0  0  0  0  0  0  0  0  0  0  0  0
  142.1740   80.7650  218.0980 H   0  0  0  0  0  0  0  0  0  0  0  0
  139.7383   79.7542  220.3826 H   0  0  0  0  0  0  0  0  0  0  0  0
  138.5915   77.8668  219.6503 H   0  0  0  0  0  0  0  0  0  0  0  0
  137.9178   75.5383  220.0312 H   0  0  0  0  0  0  0  0  0  0  0  0
  139.2872   74.0921  221.5315 H   0  0  0  0  0  0  0  0  0  0  0  0
  141.3204   75.0362  222.6211 H   0  0  0  0  0  0  0  0  0  0  0  0
  141.9588   77.3800  222.2167 H   0  0  0  0  0  0  0  0  0  0  0  0
  139.3072   80.5557  222.5634 H   0  0  0  0  0  0  0  0  0  0  0  0
  140.2175   81.6990  224.5687 H   0  0  0  0  0  0  0  0  0  0  0  0
  142.6673   81.6563  224.9312 H   0  0  0  0  0  0  0  0  0  0  0  0
  143.2402   79.3935  221.3711 H   0  0  0  0  0  0  0  0  0  0  0  0
  144.0323   77.5850  219.5706 H   0  0  0  0  0  0  0  0  0  0  0  0
  142.7736   76.7889  220.6810 H   0  0  0  0  0  0  0  0  0  0  0  0
  145.1153   75.7408  219.5480 H   0  0  0  0  0  0  0  0  0  0  0  0
  143.8336   75.0430  220.6965 H   0  0  0  0  0  0  0  0  0  0  0  0
  1  2  1  0
  2  3  1  0
  3  4  2  0
  3  5  1  0
  5  6  1  0
  6  7  2  0
  7  8  1  0
  8  9  2  0
  9 10  1  0
 10 11  2  0
  5 12  1  0
 12 13  1  0
 13 14  1  0
 14 15  1  0
 15 16  1  0
 16 17  2  0
 16 18  1  0
 18 19  1  0
 18 20  1  0
 20 21  1  0
 21 22  2  0
 22 23  1  0
 23 24  2  0
 24 25  1  0
 25 26  2  0
 20 27  1  0
 27 28  2  0
 28 29  1  0
 29 30  2  0
 30 31  1  0
 31 32  1  0
 31 33  2  0
 15 34  1  0
 34 35  1  0
 11  6  1  0
 35 12  1  0
 26 21  1  0
 33 27  1  0
  1 36  1  0
  1 37  1  0
  1 38  1  0
  2 39  1  0
  2 40  1  0
  7 41  1  0
  8 42  1  0
  9 43  1  0
 10 44  1  0
 11 45  1  0
 12 46  1  0
 13 47  1  0
 13 48  1  0
 14 49  1  0
 14 50  1  0
 18 51  1  1
 19 52  1  0
 19 53  1  0
 20 54  1  6
 22 55  1  0
 23 56  1  0
 24 57  1  0
 25 58  1  0
 26 59  1  0
 28 60  1  0
 29 61  1  0
 30 62  1  0
 33 63  1  0
 34 64  1  0
 34 65  1  0
 35 66  1  0
 35 67  1  0
M  END
>  <smiles>  (95) 
CCC(=O)N(c1ccccc1)C1CCN(C(=O)[C@@H](N)C(c2ccccc2)c2cccc(F)c2)CC1

>  <score_type>  (95) 
oracle

>  <origin>  (95) 
autodockgpu

>  <m_score__min__energy>  (95) 
-8.2300000000000004

>  <m_primary>  (95) 
energy

>  <rmsd>  (95) 
5.047592362396973

>  <m_score__min__rmsd>  (95) 
5.047592362396973

>  <meeko>  (95) 
{"free_energy": -6.21, "intermolecular_energy": -8.89, "internal_energy": -3.9, "cluster_size": 3, "cluster_id": 9, "rank_in_cluster": 1}

>  <energy>  (95) 
-6.91

>  <cluster_rmsd>  (95) 
0.28

>  <cluster>  (95) 
7

$$$$

     RDKit          3D

 67 70  0  0  0  0  0  0  0  0999 V2000
  145.5730   73.8410  220.6780 C   0  0  0  0  0  0  0  0  0  0  0  0
  146.2920   72.5840  220.2480 C   0  0  0  0  0  0  0  0  0  0  0  0
  145.5570   72.0060  219.0950 C   0  0  0  0  0  0  0  0  0  0  0  0
  145.9380   72.3560  217.9480 O   0  0  0  0  0  0  0  0  0  0  0  0
  144.4840   71.1060  219.3310 N   0  0  0  0  0  0  0  0  0  0  0  0
  144.6850   69.6840  219.2590 C   0  0  0  0  0  0  0  0  0  0  0  0
  145.9390   69.1160  219.2760 C   0  0  0  0  0  0  0  0  0  0  0  0
  146.0200   67.7220  219.2050 C   0  0  0  0  0  0  0  0  0  0  0  0
  144.8680   66.9580  219.1230 C   0  0  0  0  0  0  0  0  0  0  0  0
  143.6060   67.5410  219.1070 C   0  0  0  0  0  0  0  0  0  0  0  0
  143.5380   68.9210  219.1760 C   0  0  0  0  0  0  0  0  0  0  0  0
  143.1480   71.5520  219.6500 C   0  0  0  0  0  0  0  0  0  0  0  0
  143.0390   71.6000  221.1660 C   0  0  0  0  0  0  0  0  0  0  0  0
  141.6050   71.8980  221.4690 C   0  0  0  0  0  0  0  0  0  0  0  0
  141.3030   73.2490  220.9430 N   0  0  0  0  0  0  0  0  0  0  0  0
  140.3620   73.9710  221.7130 C   0  0  0  0  0  0  0  0  0  0  0  0
  139.9100   73.3670  222.7460 O   0  0  0  0  0  0  0  0  0  0  0  0
  139.8480   75.3230  221.4670 C   0  0  1  0  0  0  0  0  0  0  0  0
  138.7880   75.6470  222.3590 N   0  0  0  0  0  0  0  0  0  0  0  0
  140.9700   76.3380  221.4880 C   0  0  1  0  0  0  0  0  0  0  0  0
  141.3840   76.6870  220.1130 C   0  0  0  0  0  0  0  0  0  0  0  0
  142.7320   76.8100  219.8140 C   0  0  0  0  0  0  0  0  0  0  0  0
  143.1980   77.1320  218.5650 C   0  0  0  0  0  0  0  0  0  0  0  0
  142.2920   77.3460  217.5460 C   0  0  0  0  0  0  0  0  0  0  0  0
  140.9350   77.2330  217.8060 C   0  0  0  0  0  0  0  0  0  0  0  0
  140.5060   76.9080  219.0750 C   0  0  0  0  0  0  0  0  0  0  0  0
  140.6670   77.5430  222.2960 C   0  0  0  0  0  0  0  0  0  0  0  0
  141.4600   77.9450  223.3550 C   0  0  0  0  0  0  0  0  0  0  0  0
  141.1880   79.0650  224.1160 C   0  0  0  0  0  0  0  0  0  0  0  0
  140.0670   79.7930  223.7740 C   0  0  0  0  0  0  0  0  0  0  0  0
  139.2310   79.4540  222.7320 C   0  0  0  0  0  0  0  0  0  0  0  0
  138.1510   80.2290  222.4690 F   0  0  0  0  0  0  0  0  0  0  0  0
  139.5540   78.3240  222.0090 C   0  0  0  0  0  0  0  0  0  0  0  0
  141.9180   73.7680  219.7570 C   0  0  0  0  0  0  0  0  0  0  0  0
  142.8760   72.8920  219.0490 C   0  0  0  0  0  0  0  0  0  0  0  0
  145.5451   73.8899  221.7766 H   0  0  0  0  0  0  0  0  0  0  0  0
  146.1048   74.7202  220.2853 H   0  0  0  0  0  0  0  0  0  0  0  0
  144.5456   73.8283  220.2853 H   0  0  0  0  0  0  0  0  0  0  0  0
  147.3225   72.8270  219.9497 H   0  0  0  0  0  0  0  0  0  0  0  0
  146.3292   71.8626  221.0776 H   0  0  0  0  0  0  0  0  0  0  0  0
  146.8447   69.7366  219.3430 H   0  0  0  0  0  0  0  0  0  0  0  0
  147.0037   67.2298  219.2143 H   0  0  0  0  0  0  0  0  0  0  0  0
  144.9535   65.8627  219.0692 H   0  0  0  0  0  0  0  0  0  0  0  0
  142.6952   66.9276  219.0419 H   0  0  0  0  0  0  0  0  0  0  0  0
  142.5562   69.4170  219.1645 H   0  0  0  0  0  0  0  0  0  0  0  0
  142.4000   70.8613  219.2337 H   0  0  0  0  0  0  0  0  0  0  0  0
  143.3278   70.6316  221.6005 H   0  0  0  0  0  0  0  0  0  0  0  0
  143.7071   72.3624  221.5932 H   0  0  0  0  0  0  0  0  0  0  0  0
  140.9572   71.1537  220.9829 H   0  0  0  0  0  0  0  0  0  0  0  0
  141.4250   71.8586  222.5534 H   0  0  0  0  0  0  0  0  0  0  0  0
  139.4145   75.3517  220.4564 H   0  0  0  0  0  0  0  0  0  0  0  0
  138.9980   75.2560  223.3030 H   0  0  0  0  0  0  0  0  0  0  0  0
  137.9000   75.1340  222.0720 H   0  0  0  0  0  0  0  0  0  0  0  0
  141.8180   75.8560  221.9965 H   0  0  0  0  0  0  0  0  0  0  0  0
  143.4637   76.6411  220.6178 H   0  0  0  0  0  0  0  0  0  0  0  0
  144.2785   77.2185  218.3780 H   0  0  0  0  0  0  0  0  0  0  0  0
  142.6437   77.6040  216.5362 H   0  0  0  0  0  0  0  0  0  0  0  0
  140.2031   77.4021  217.0024 H   0  0  0  0  0  0  0  0  0  0  0  0
  139.4260   76.8222  219.2651 H   0  0  0  0  0  0  0  0  0  0  0  0
  142.3482   77.3453  223.6027 H   0  0  0  0  0  0  0  0  0  0  0  0
  141.8344   79.3625  224.9549 H   0  0  0  0  0  0  0  0  0  0  0  0
  139.8281   80.6904  224.3635 H   0  0  0  0  0  0  0  0  0  0  0  0
  138.9043   78.0295  221.1717 H   0  0  0  0  0  0  0  0  0  0  0  0
  141.1132   74.0168  219.0496 H   0  0  0  0  0  0  0  0  0  0  0  0
  142.5193   74.6220  220.1022 H   0  0  0  0  0  0  0  0  0  0  0  0
  142.4854   72.7264  218.0341 H   0  0  0  0  0  0  0  0  0  0  0  0
  143.8370   73.4250  219.0975 H   0  0  0  0  0  0  0  0  0  0  0  0
  1  2  1  0
  2  3  1  0
  3  4  2  0
  3  5  1  0
  5  6  1  0
  6  7  2  0
  7  8  1  0
  8  9  2  0
  9 10  1  0
 10 11  2  0
  5 12  1  0
 12 13  1  0
 13 14  1  0
 14 15  1  0
 15 16  1  0
 16 17  2  0
 16 18  1  0
 18 19  1  0
 18 20  1  0
 20 21  1  0
 21 22  2  0
 22 23  1  0
 23 24  2  0
 24 25  1  0
 25 26  2  0
 20 27  1  0
 27 28  2  0
 28 29  1  0
 29 30  2  0
 30 31  1  0
 31 32  1  0
 31 33  2  0
 15 34  1  0
 34 35  1  0
 11  6  1  0
 35 12  1  0
 26 21  1  0
 33 27  1  0
  1 36  1  0
  1 37  1  0
  1 38  1  0
  2 39  1  0
  2 40  1  0
  7 41  1  0
  8 42  1  0
  9 43  1  0
 10 44  1  0
 11 45  1  0
 12 46  1  0
 13 47  1  0
 13 48  1  0
 14 49  1  0
 14 50  1  0
 18 51  1  6
 19 52  1  0
 19 53  1  0
 20 54  1  1
 22 55  1  0
 23 56  1  0
 24 57  1  0
 25 58  1  0
 26 59  1  0
 28 60  1  0
 29 61  1  0
 30 62  1  0
 33 63  1  0
 34 64  1  0
 34 65  1  0
 35 66  1  0
 35 67  1  0
M  END
>  <smiles>  (96) 
CCC(=O)N(c1ccccc1)C1CCN(C(=O)[C@@H](N)C(c2ccccc2)c2cccc(F)c2)CC1

>  <score_type>  (96) 
oracle

>  <origin>  (96) 
autodockgpu

>  <m_score__min__energy>  (96) 
-8.2300000000000004

>  <m_primary>  (96) 
energy

>  <rmsd>  (96) 
5.482834367334591

>  <m_score__min__rmsd>  (96) 
5.482834367334591

>  <meeko>  (96) 
{"free_energy": -7.91, "intermolecular_energy": -10.59, "internal_energy": -3.28, "cluster_size": 27, "cluster_id": 1, "rank_in_cluster": 6}

>  <energy>  (96) 
-6.82

>  <cluster_rmsd>  (96) 
0.38

>  <cluster>  (96) 
7

$$$$

     RDKit          3D

 67 70  0  0  0  0  0  0  0  0999 V2000
  143.3920   76.9700  215.8530 C   0  0  0  0  0  0  0  0  0  0  0  0
  143.7310   76.0460  216.9980 C   0  0  0  0  0  0  0  0  0  0  0  0
  143.2150   76.6550  218.2490 C   0  0  0  0  0  0  0  0  0  0  0  0
  143.3170   77.9040  218.3540 O   0  0  0  0  0  0  0  0  0  0  0  0
  142.6450   75.8220  219.2480 N   0  0  0  0  0  0  0  0  0  0  0  0
  143.3880   74.7250  219.8070 C   0  0  0  0  0  0  0  0  0  0  0  0
  144.5790   74.9070  220.4740 C   0  0  0  0  0  0  0  0  0  0  0  0
  145.2180   73.7720  220.9810 C   0  0  0  0  0  0  0  0  0  0  0  0
  144.6550   72.5180  220.8080 C   0  0  0  0  0  0  0  0  0  0  0  0
  143.4530   72.3440  220.1330 C   0  0  0  0  0  0  0  0  0  0  0  0
  142.8300   73.4740  219.6350 C   0  0  0  0  0  0  0  0  0  0  0  0
  141.3080   76.0180  219.7570 C   0  0  0  0  0  0  0  0  0  0  0  0
  141.3280   75.6440  221.2320 C   0  0  0  0  0  0  0  0  0  0  0  0
  139.9050   75.6930  221.6910 C   0  0  0  0  0  0  0  0  0  0  0  0
  139.4420   77.0940  221.5790 N   0  0  0  0  0  0  0  0  0  0  0  0
  138.5120   77.4760  222.5740 C   0  0  0  0  0  0  0  0  0  0  0  0
  138.2070   76.5700  223.4240 O   0  0  0  0  0  0  0  0  0  0  0  0
  137.8630   78.7800  222.7430 C   0  0  1  0  0  0  0  0  0  0  0  0
  136.4790   78.6370  223.0420 N   0  0  0  0  0  0  0  0  0  0  0  0
  138.6030   79.6230  223.7590 C   0  0  1  0  0  0  0  0  0  0  0  0
  139.9760   79.9130  223.2950 C   0  0  0  0  0  0  0  0  0  0  0  0
  141.0410   79.2060  223.8280 C   0  0  0  0  0  0  0  0  0  0  0  0
  142.3450   79.4150  223.4540 C   0  0  0  0  0  0  0  0  0  0  0  0
  142.6230   80.3730  222.5000 C   0  0  0  0  0  0  0  0  0  0  0  0
  141.5830   81.1010  221.9430 C   0  0  0  0  0  0  0  0  0  0  0  0
  140.2860   80.8620  222.3470 C   0  0  0  0  0  0  0  0  0  0  0  0
  137.8800   80.8570  224.1490 C   0  0  0  0  0  0  0  0  0  0  0  0
  137.4100   81.7670  223.2190 C   0  0  0  0  0  0  0  0  0  0  0  0
  136.7360   82.9200  223.5700 C   0  0  0  0  0  0  0  0  0  0  0  0
  136.5400   83.1420  224.9170 C   0  0  0  0  0  0  0  0  0  0  0  0
  136.9800   82.2810  225.9000 C   0  0  0  0  0  0  0  0  0  0  0  0
  136.7410   82.5810  227.2000 F   0  0  0  0  0  0  0  0  0  0  0  0
  137.6470   81.1460  225.4880 C   0  0  0  0  0  0  0  0  0  0  0  0
  139.9030   77.9770  220.5490 C   0  0  0  0  0  0  0  0  0  0  0  0
  140.8680   77.4330  219.5700 C   0  0  0  0  0  0  0  0  0  0  0  0
  143.0388   77.9327  216.2510 H   0  0  0  0  0  0  0  0  0  0  0  0
  144.2883   77.1346  215.2369 H   0  0  0  0  0  0  0  0  0  0  0  0
  142.6019   76.5159  215.2369 H   0  0  0  0  0  0  0  0  0  0  0  0
  143.2590   75.0653  216.8382 H   0  0  0  0  0  0  0  0  0  0  0  0
  144.8198   75.9037  217.0639 H   0  0  0  0  0  0  0  0  0  0  0  0
  145.0120   75.9099  220.6032 H   0  0  0  0  0  0  0  0  0  0  0  0
  146.1717   73.8748  221.5195 H   0  0  0  0  0  0  0  0  0  0  0  0
  145.1730   71.6373  221.2156 H   0  0  0  0  0  0  0  0  0  0  0  0
  143.0132   71.3446  219.9996 H   0  0  0  0  0  0  0  0  0  0  0  0
  141.8771   73.3746  219.0946 H   0  0  0  0  0  0  0  0  0  0  0  0
  140.5909   75.3883  219.2100 H   0  0  0  0  0  0  0  0  0  0  0  0
  141.7371   74.6314  221.3637 H   0  0  0  0  0  0  0  0  0  0  0  0
  141.9617   76.3307  221.8124 H   0  0  0  0  0  0  0  0  0  0  0  0
  139.2847   75.0420  221.0573 H   0  0  0  0  0  0  0  0  0  0  0  0
  139.8243   75.3434  222.7308 H   0  0  0  0  0  0  0  0  0  0  0  0
  137.9142   79.3204  221.7863 H   0  0  0  0  0  0  0  0  0  0  0  0
  136.3090   77.6950  223.4550 H   0  0  0  0  0  0  0  0  0  0  0  0
  135.9110   78.6170  222.1410 H   0  0  0  0  0  0  0  0  0  0  0  0
  138.6637   79.0225  224.6786 H   0  0  0  0  0  0  0  0  0  0  0  0
  140.8315   78.4393  224.5884 H   0  0  0  0  0  0  0  0  0  0  0  0
  143.1567   78.8276  223.9079 H   0  0  0  0  0  0  0  0  0  0  0  0
  143.6606   80.5572  222.1845 H   0  0  0  0  0  0  0  0  0  0  0  0
  141.7914   81.8668  221.1813 H   0  0  0  0  0  0  0  0  0  0  0  0
  139.4721   81.4493  221.8967 H   0  0  0  0  0  0  0  0  0  0  0  0
  137.5809   81.5629  222.1517 H   0  0  0  0  0  0  0  0  0  0  0  0
  136.3725   83.6282  222.8109 H   0  0  0  0  0  0  0  0  0  0  0  0
  136.0050   84.0531  225.2230 H   0  0  0  0  0  0  0  0  0  0  0  0
  138.0092   80.4409  226.2507 H   0  0  0  0  0  0  0  0  0  0  0  0
  139.0208   78.3191  219.9880 H   0  0  0  0  0  0  0  0  0  0  0  0
  140.4551   78.7662  221.0804 H   0  0  0  0  0  0  0  0  0  0  0  0
  140.4061   77.5068  218.5744 H   0  0  0  0  0  0  0  0  0  0  0  0
  141.7795   78.0332  219.7078 H   0  0  0  0  0  0  0  0  0  0  0  0
  1  2  1  0
  2  3  1  0
  3  4  2  0
  3  5  1  0
  5  6  1  0
  6  7  2  0
  7  8  1  0
  8  9  2  0
  9 10  1  0
 10 11  2  0
  5 12  1  0
 12 13  1  0
 13 14  1  0
 14 15  1  0
 15 16  1  0
 16 17  2  0
 16 18  1  0
 18 19  1  0
 18 20  1  0
 20 21  1  0
 21 22  2  0
 22 23  1  0
 23 24  2  0
 24 25  1  0
 25 26  2  0
 20 27  1  0
 27 28  2  0
 28 29  1  0
 29 30  2  0
 30 31  1  0
 31 32  1  0
 31 33  2  0
 15 34  1  0
 34 35  1  0
 11  6  1  0
 35 12  1  0
 26 21  1  0
 33 27  1  0
  1 36  1  0
  1 37  1  0
  1 38  1  0
  2 39  1  0
  2 40  1  0
  7 41  1  0
  8 42  1  0
  9 43  1  0
 10 44  1  0
 11 45  1  0
 12 46  1  0
 13 47  1  0
 13 48  1  0
 14 49  1  0
 14 50  1  0
 18 51  1  6
 19 52  1  0
 19 53  1  0
 20 54  1  1
 22 55  1  0
 23 56  1  0
 24 57  1  0
 25 58  1  0
 26 59  1  0
 28 60  1  0
 29 61  1  0
 30 62  1  0
 33 63  1  0
 34 64  1  0
 34 65  1  0
 35 66  1  0
 35 67  1  0
M  END
>  <smiles>  (97) 
CCC(=O)N(c1ccccc1)C1CCN(C(=O)[C@@H](N)C(c2ccccc2)c2cccc(F)c2)CC1

>  <score_type>  (97) 
oracle

>  <origin>  (97) 
autodockgpu

>  <m_score__min__energy>  (97) 
-8.2300000000000004

>  <m_primary>  (97) 
energy

>  <rmsd>  (97) 
3.5307116109828054

>  <m_score__min__rmsd>  (97) 
3.5307116109828054

>  <meeko>  (97) 
{"free_energy": -6.95, "intermolecular_energy": -9.63, "internal_energy": -3.34, "cluster_size": 7, "cluster_id": 7, "rank_in_cluster": 4}

>  <energy>  (97) 
-6.99

>  <cluster_rmsd>  (97) 
0.0

>  <cluster>  (97) 
8

$$$$

     RDKit          3D

 67 70  0  0  0  0  0  0  0  0999 V2000
  146.3060   72.9900  221.5800 C   0  0  0  0  0  0  0  0  0  0  0  0
  145.8740   73.8290  220.4000 C   0  0  0  0  0  0  0  0  0  0  0  0
  145.5810   72.9140  219.2690 C   0  0  0  0  0  0  0  0  0  0  0  0
  146.2950   73.0400  218.2410 O   0  0  0  0  0  0  0  0  0  0  0  0
  144.5340   71.9630  219.3930 N   0  0  0  0  0  0  0  0  0  0  0  0
  144.8020   70.5540  219.2820 C   0  0  0  0  0  0  0  0  0  0  0  0
  143.9690   69.6020  219.8270 C   0  0  0  0  0  0  0  0  0  0  0  0
  144.3210   68.2600  219.6580 C   0  0  0  0  0  0  0  0  0  0  0  0
  145.4700   67.9210  218.9620 C   0  0  0  0  0  0  0  0  0  0  0  0
  146.3040   68.8890  218.4160 C   0  0  0  0  0  0  0  0  0  0  0  0
  145.9470   70.2140  218.5910 C   0  0  0  0  0  0  0  0  0  0  0  0
  143.1610   72.3390  219.6320 C   0  0  0  0  0  0  0  0  0  0  0  0
  142.9360   72.2920  221.1360 C   0  0  0  0  0  0  0  0  0  0  0  0
  141.4720   72.5190  221.3420 C   0  0  0  0  0  0  0  0  0  0  0  0
  141.1560   73.8870  220.8740 N   0  0  0  0  0  0  0  0  0  0  0  0
  140.1310   74.5270  221.6080 C   0  0  0  0  0  0  0  0  0  0  0  0
  139.6270   73.8450  222.5660 O   0  0  0  0  0  0  0  0  0  0  0  0
  139.5830   75.8710  221.4010 C   0  0  1  0  0  0  0  0  0  0  0  0
  138.6220   76.2000  222.3980 N   0  0  0  0  0  0  0  0  0  0  0  0
  140.6920   76.8950  221.2890 C   0  0  1  0  0  0  0  0  0  0  0  0
  140.8720   77.3170  219.8840 C   0  0  0  0  0  0  0  0  0  0  0  0
  142.0950   77.8220  219.4730 C   0  0  0  0  0  0  0  0  0  0  0  0
  142.3430   78.2380  218.1890 C   0  0  0  0  0  0  0  0  0  0  0  0
  141.3340   78.1540  217.2510 C   0  0  0  0  0  0  0  0  0  0  0  0
  140.0970   77.6540  217.6250 C   0  0  0  0  0  0  0  0  0  0  0  0
  139.8870   77.2470  218.9250 C   0  0  0  0  0  0  0  0  0  0  0  0
  140.5270   78.0540  222.1980 C   0  0  0  0  0  0  0  0  0  0  0  0
  141.4120   78.3230  223.2260 C   0  0  0  0  0  0  0  0  0  0  0  0
  141.2680   79.3990  224.0790 C   0  0  0  0  0  0  0  0  0  0  0  0
  140.1820   80.2220  223.8660 C   0  0  0  0  0  0  0  0  0  0  0  0
  139.2600   80.0170  222.8620 C   0  0  0  0  0  0  0  0  0  0  0  0
  138.2230   80.8800  222.7280 F   0  0  0  0  0  0  0  0  0  0  0  0
  139.4560   78.9250  222.0420 C   0  0  0  0  0  0  0  0  0  0  0  0
  141.8370   74.4990  219.7710 C   0  0  0  0  0  0  0  0  0  0  0  0
  142.8800   73.7030  219.0910 C   0  0  0  0  0  0  0  0  0  0  0  0
  146.0401   73.5065  222.5141 H   0  0  0  0  0  0  0  0  0  0  0  0
  145.7977   72.0152  221.5425 H   0  0  0  0  0  0  0  0  0  0  0  0
  147.3947   72.8375  221.5425 H   0  0  0  0  0  0  0  0  0  0  0  0
  144.9717   74.4020  220.6599 H   0  0  0  0  0  0  0  0  0  0  0  0
  146.6694   74.5365  220.1228 H   0  0  0  0  0  0  0  0  0  0  0  0
  143.0593   69.8877  220.3756 H   0  0  0  0  0  0  0  0  0  0  0  0
  143.6829   67.4693  220.0795 H   0  0  0  0  0  0  0  0  0  0  0  0
  145.7285   66.8589  218.8386 H   0  0  0  0  0  0  0  0  0  0  0  0
  147.2147   68.6119  217.8648 H   0  0  0  0  0  0  0  0  0  0  0  0
  146.5845   71.0073  218.1737 H   0  0  0  0  0  0  0  0  0  0  0  0
  142.4764   71.6473  219.1192 H   0  0  0  0  0  0  0  0  0  0  0  0
  143.2304   71.3105  221.5359 H   0  0  0  0  0  0  0  0  0  0  0  0
  143.5383   73.0508  221.6570 H   0  0  0  0  0  0  0  0  0  0  0  0
  140.8942   71.7829  220.7638 H   0  0  0  0  0  0  0  0  0  0  0  0
  141.2116   72.4068  222.4048 H   0  0  0  0  0  0  0  0  0  0  0  0
  139.0443   75.8823  220.4420 H   0  0  0  0  0  0  0  0  0  0  0  0
  138.5980   75.4470  223.1190 H   0  0  0  0  0  0  0  0  0  0  0  0
  137.6420   76.1740  221.9830 H   0  0  0  0  0  0  0  0  0  0  0  0
  141.6132   76.3963  221.6248 H   0  0  0  0  0  0  0  0  0  0  0  0
  142.9068   77.8929  220.2119 H   0  0  0  0  0  0  0  0  0  0  0  0
  143.3315   78.6326  217.9114 H   0  0  0  0  0  0  0  0  0  0  0  0
  141.5103   78.4811  216.2157 H   0  0  0  0  0  0  0  0  0  0  0  0
  139.2849   77.5821  216.8865 H   0  0  0  0  0  0  0  0  0  0  0  0
  138.8990   76.8530  219.2056 H   0  0  0  0  0  0  0  0  0  0  0  0
  142.2694   77.6493  223.3706 H   0  0  0  0  0  0  0  0  0  0  0  0
  141.9856   79.5908  224.8903 H   0  0  0  0  0  0  0  0  0  0  0  0
  140.0445   81.0868  224.5318 H   0  0  0  0  0  0  0  0  0  0  0  0
  138.7356   78.7365  221.2324 H   0  0  0  0  0  0  0  0  0  0  0  0
  141.0784   74.7607  219.0187 H   0  0  0  0  0  0  0  0  0  0  0  0
  142.3750   75.3520  220.2102 H   0  0  0  0  0  0  0  0  0  0  0  0
  142.5743   73.5857  218.0409 H   0  0  0  0  0  0  0  0  0  0  0  0
  143.8120   74.2664  219.2461 H   0  0  0  0  0  0  0  0  0  0  0  0
  1  2  1  0
  2  3  1  0
  3  4  2  0
  3  5  1  0
  5  6  1  0
  6  7  2  0
  7  8  1  0
  8  9  2  0
  9 10  1  0
 10 11  2  0
  5 12  1  0
 12 13  1  0
 13 14  1  0
 14 15  1  0
 15 16  1  0
 16 17  2  0
 16 18  1  0
 18 19  1  0
 18 20  1  0
 20 21  1  0
 21 22  2  0
 22 23  1  0
 23 24  2  0
 24 25  1  0
 25 26  2  0
 20 27  1  0
 27 28  2  0
 28 29  1  0
 29 30  2  0
 30 31  1  0
 31 32  1  0
 31 33  2  0
 15 34  1  0
 34 35  1  0
 11  6  1  0
 35 12  1  0
 26 21  1  0
 33 27  1  0
  1 36  1  0
  1 37  1  0
  1 38  1  0
  2 39  1  0
  2 40  1  0
  7 41  1  0
  8 42  1  0
  9 43  1  0
 10 44  1  0
 11 45  1  0
 12 46  1  0
 13 47  1  0
 13 48  1  0
 14 49  1  0
 14 50  1  0
 18 51  1  6
 19 52  1  0
 19 53  1  0
 20 54  1  1
 22 55  1  0
 23 56  1  0
 24 57  1  0
 25 58  1  0
 26 59  1  0
 28 60  1  0
 29 61  1  0
 30 62  1  0
 33 63  1  0
 34 64  1  0
 34 65  1  0
 35 66  1  0
 35 67  1  0
M  END
>  <smiles>  (98) 
CCC(=O)N(c1ccccc1)C1CCN(C(=O)[C@@H](N)C(c2ccccc2)c2cccc(F)c2)CC1

>  <score_type>  (98) 
oracle

>  <origin>  (98) 
autodockgpu

>  <m_score__min__energy>  (98) 
-8.2300000000000004

>  <m_primary>  (98) 
energy

>  <rmsd>  (98) 
4.817902569471609

>  <m_score__min__rmsd>  (98) 
4.817902569471609

>  <meeko>  (98) 
{"free_energy": -7.87, "intermolecular_energy": -10.55, "internal_energy": -3.01, "cluster_size": 27, "cluster_id": 1, "rank_in_cluster": 9}

>  <energy>  (98) 
-6.21

>  <cluster_rmsd>  (98) 
0.0

>  <cluster>  (98) 
9

$$$$

     RDKit          3D

 67 70  0  0  0  0  0  0  0  0999 V2000
  142.5680   80.5660  218.2800 C   0  0  0  0  0  0  0  0  0  0  0  0
  141.6310   79.3940  218.1120 C   0  0  0  0  0  0  0  0  0  0  0  0
  142.1760   78.2540  218.8910 C   0  0  0  0  0  0  0  0  0  0  0  0
  143.2500   77.7480  218.4760 O   0  0  0  0  0  0  0  0  0  0  0  0
  141.4790   77.7960  220.0400 N   0  0  0  0  0  0  0  0  0  0  0  0
  141.2220   78.6770  221.1470 C   0  0  0  0  0  0  0  0  0  0  0  0
  140.0970   79.4700  221.2120 C   0  0  0  0  0  0  0  0  0  0  0  0
  139.9440   80.2870  222.3350 C   0  0  0  0  0  0  0  0  0  0  0  0
  140.9010   80.2850  223.3360 C   0  0  0  0  0  0  0  0  0  0  0  0
  142.0330   79.4830  223.2620 C   0  0  0  0  0  0  0  0  0  0  0  0
  142.1750   78.6780  222.1460 C   0  0  0  0  0  0  0  0  0  0  0  0
  140.9930   76.4430  220.1700 C   0  0  0  0  0  0  0  0  0  0  0  0
  142.1960   75.5580  220.4640 C   0  0  0  0  0  0  0  0  0  0  0  0
  141.6930   74.1500  220.4260 C   0  0  0  0  0  0  0  0  0  0  0  0
  140.7220   73.9860  221.5320 N   0  0  0  0  0  0  0  0  0  0  0  0
  140.7170   72.6960  222.1100 C   0  0  0  0  0  0  0  0  0  0  0  0
  141.5450   71.8600  221.6060 O   0  0  0  0  0  0  0  0  0  0  0  0
  139.8810   72.2090  223.2110 C   0  0  1  0  0  0  0  0  0  0  0  0
  138.4960   72.3360  222.9080 N   0  0  0  0  0  0  0  0  0  0  0  0
  140.2730   70.8010  223.6050 C   0  0  1  0  0  0  0  0  0  0  0  0
  140.5560   70.7240  225.0540 C   0  0  0  0  0  0  0  0  0  0  0  0
  140.6210   69.4860  225.6720 C   0  0  0  0  0  0  0  0  0  0  0  0
  140.8760   69.3280  227.0120 C   0  0  0  0  0  0  0  0  0  0  0  0
  141.0800   70.4480  227.7920 C   0  0  0  0  0  0  0  0  0  0  0  0
  141.0230   71.7040  227.2080 C   0  0  0  0  0  0  0  0  0  0  0  0
  140.7630   71.8210  225.8590 C   0  0  0  0  0  0  0  0  0  0  0  0
  139.2990   69.7700  223.1760 C   0  0  0  0  0  0  0  0  0  0  0  0
  138.1100   69.5480  223.8480 C   0  0  0  0  0  0  0  0  0  0  0  0
  137.1950   68.5900  223.4590 C   0  0  0  0  0  0  0  0  0  0  0  0
  137.5120   67.8400  222.3470 C   0  0  0  0  0  0  0  0  0  0  0  0
  138.6770   68.0040  221.6270 C   0  0  0  0  0  0  0  0  0  0  0  0
  138.9050   67.2210  220.5450 F   0  0  0  0  0  0  0  0  0  0  0  0
  139.5530   68.9770  222.0640 C   0  0  0  0  0  0  0  0  0  0  0  0
  139.8680   75.0510  221.9680 C   0  0  0  0  0  0  0  0  0  0  0  0
  139.9770   76.3440  221.2600 C   0  0  0  0  0  0  0  0  0  0  0  0
  142.7235   80.7605  219.3514 H   0  0  0  0  0  0  0  0  0  0  0  0
  143.5331   80.3348  217.8055 H   0  0  0  0  0  0  0  0  0  0  0  0
  142.1301   81.4565  217.8055 H   0  0  0  0  0  0  0  0  0  0  0  0
  140.6315   79.6586  218.4876 H   0  0  0  0  0  0  0  0  0  0  0  0
  141.5450   79.1235  217.0492 H   0  0  0  0  0  0  0  0  0  0  0  0
  139.3460   79.4602  220.4083 H   0  0  0  0  0  0  0  0  0  0  0  0
  139.0594   80.9347  222.4245 H   0  0  0  0  0  0  0  0  0  0  0  0
  140.7613   80.9351  224.2122 H   0  0  0  0  0  0  0  0  0  0  0  0
  142.7886   79.4879  224.0614 H   0  0  0  0  0  0  0  0  0  0  0  0
  143.0590   78.0300  222.0533 H   0  0  0  0  0  0  0  0  0  0  0  0
  140.4960   76.1208  219.2431 H   0  0  0  0  0  0  0  0  0  0  0  0
  142.9746   75.7061  219.7013 H   0  0  0  0  0  0  0  0  0  0  0  0
  142.6439   75.7990  221.4394 H   0  0  0  0  0  0  0  0  0  0  0  0
  141.1992   73.9550  219.4626 H   0  0  0  0  0  0  0  0  0  0  0  0
  142.5266   73.4411  220.5383 H   0  0  0  0  0  0  0  0  0  0  0  0
  140.0605   72.8447  224.0905 H   0  0  0  0  0  0  0  0  0  0  0  0
  138.2750   73.3350  222.7080 H   0  0  0  0  0  0  0  0  0  0  0  0
  137.9130   72.1240  223.7730 H   0  0  0  0  0  0  0  0  0  0  0  0
  141.1975   70.5685  223.0561 H   0  0  0  0  0  0  0  0  0  0  0  0
  140.4606   68.5862  225.0599 H   0  0  0  0  0  0  0  0  0  0  0  0
  140.9171   68.3230  227.4573 H   0  0  0  0  0  0  0  0  0  0  0  0
  141.2860   70.3451  228.8676 H   0  0  0  0  0  0  0  0  0  0  0  0
  141.1847   72.6044  227.8189 H   0  0  0  0  0  0  0  0  0  0  0  0
  140.7196   72.8248  225.4111 H   0  0  0  0  0  0  0  0  0  0  0  0
  137.8836   70.1624  224.7319 H   0  0  0  0  0  0  0  0  0  0  0  0
  136.2566   68.4327  224.0110 H   0  0  0  0  0  0  0  0  0  0  0  0
  136.7988   67.0705  222.0165 H   0  0  0  0  0  0  0  0  0  0  0  0
  140.4903   69.1308  221.5092 H   0  0  0  0  0  0  0  0  0  0  0  0
  138.8292   74.7045  221.8640 H   0  0  0  0  0  0  0  0  0  0  0  0
  140.1902   75.2662  222.9975 H   0  0  0  0  0  0  0  0  0  0  0  0
  138.9942   76.5622  220.8168 H   0  0  0  0  0  0  0  0  0  0  0  0
  140.3130   77.0586  222.0258 H   0  0  0  0  0  0  0  0  0  0  0  0
  1  2  1  0
  2  3  1  0
  3  4  2  0
  3  5  1  0
  5  6  1  0
  6  7  2  0
  7  8  1  0
  8  9  2  0
  9 10  1  0
 10 11  2  0
  5 12  1  0
 12 13  1  0
 13 14  1  0
 14 15  1  0
 15 16  1  0
 16 17  2  0
 16 18  1  0
 18 19  1  0
 18 20  1  0
 20 21  1  0
 21 22  2  0
 22 23  1  0
 23 24  2  0
 24 25  1  0
 25 26  2  0
 20 27  1  0
 27 28  2  0
 28 29  1  0
 29 30  2  0
 30 31  1  0
 31 32  1  0
 31 33  2  0
 15 34  1  0
 34 35  1  0
 11  6  1  0
 35 12  1  0
 26 21  1  0
 33 27  1  0
  1 36  1  0
  1 37  1  0
  1 38  1  0
  2 39  1  0
  2 40  1  0
  7 41  1  0
  8 42  1  0
  9 43  1  0
 10 44  1  0
 11 45  1  0
 12 46  1  0
 13 47  1  0
 13 48  1  0
 14 49  1  0
 14 50  1  0
 18 51  1  1
 19 52  1  0
 19 53  1  0
 20 54  1  6
 22 55  1  0
 23 56  1  0
 24 57  1  0
 25 58  1  0
 26 59  1  0
 28 60  1  0
 29 61  1  0
 30 62  1  0
 33 63  1  0
 34 64  1  0
 34 65  1  0
 35 66  1  0
 35 67  1  0
M  END
>  <smiles>  (99) 
CCC(=O)N(c1ccccc1)C1CCN(C(=O)[C@@H](N)C(c2ccccc2)c2cccc(F)c2)CC1

>  <score_type>  (99) 
oracle

>  <origin>  (99) 
autodockgpu

>  <m_score__min__energy>  (99) 
-8.2300000000000004

>  <m_primary>  (99) 
energy

>  <rmsd>  (99) 
8.842029682449958

>  <m_score__min__rmsd>  (99) 
8.842029682449958

>  <meeko>  (99) 
{"free_energy": -8.09, "intermolecular_energy": -10.77, "internal_energy": -2.19, "cluster_size": 1, "cluster_id": 2, "rank_in_cluster": 1}

>  <energy>  (99) 
-6.12

>  <cluster_rmsd>  (99) 
0.11

>  <cluster>  (99) 
9

$$$$

     RDKit          3D

 67 70  0  0  0  0  0  0  0  0999 V2000
  145.9800   73.5830  221.1550 C   0  0  0  0  0  0  0  0  0  0  0  0
  145.9650   72.3010  220.3560 C   0  0  0  0  0  0  0  0  0  0  0  0
  145.1710   72.5350  219.1250 C   0  0  0  0  0  0  0  0  0  0  0  0
  145.6840   72.1570  218.0400 O   0  0  0  0  0  0  0  0  0  0  0  0
  143.9000   73.1600  219.2220 N   0  0  0  0  0  0  0  0  0  0  0  0
  142.7920   72.4880  219.8460 C   0  0  0  0  0  0  0  0  0  0  0  0
  142.2610   72.9030  221.0470 C   0  0  0  0  0  0  0  0  0  0  0  0
  141.1820   72.1790  221.5630 C   0  0  0  0  0  0  0  0  0  0  0  0
  140.6810   71.0870  220.8750 C   0  0  0  0  0  0  0  0  0  0  0  0
  141.2240   70.6750  219.6640 C   0  0  0  0  0  0  0  0  0  0  0  0
  142.2920   71.3980  219.1630 C   0  0  0  0  0  0  0  0  0  0  0  0
  143.6410   74.4850  218.7100 C   0  0  0  0  0  0  0  0  0  0  0  0
  142.1560   74.5610  218.3850 C   0  0  0  0  0  0  0  0  0  0  0  0
  141.9480   75.8760  217.7030 C   0  0  0  0  0  0  0  0  0  0  0  0
  142.2590   76.9450  218.6780 N   0  0  0  0  0  0  0  0  0  0  0  0
  141.4720   78.1110  218.5290 C   0  0  0  0  0  0  0  0  0  0  0  0
  140.6080   78.0780  217.5860 O   0  0  0  0  0  0  0  0  0  0  0  0
  141.5300   79.3420  219.3240 C   0  0  1  0  0  0  0  0  0  0  0  0
  141.2780   80.4900  218.5220 N   0  0  0  0  0  0  0  0  0  0  0  0
  140.6180   79.2500  220.5280 C   0  0  1  0  0  0  0  0  0  0  0  0
  140.2390   77.8450  220.7880 C   0  0  0  0  0  0  0  0  0  0  0  0
  140.9890   77.0860  221.6730 C   0  0  0  0  0  0  0  0  0  0  0  0
  140.7050   75.7770  221.9670 C   0  0  0  0  0  0  0  0  0  0  0  0
  139.6220   75.1730  221.3610 C   0  0  0  0  0  0  0  0  0  0  0  0
  138.8480   75.8990  220.4700 C   0  0  0  0  0  0  0  0  0  0  0  0
  139.1660   77.2130  220.2000 C   0  0  0  0  0  0  0  0  0  0  0  0
  141.1630   79.9080  221.7390 C   0  0  0  0  0  0  0  0  0  0  0  0
  140.3540   80.5340  222.6700 C   0  0  0  0  0  0  0  0  0  0  0  0
  140.8500   81.1510  223.8020 C   0  0  0  0  0  0  0  0  0  0  0  0
  142.2170   81.1220  223.9800 C   0  0  0  0  0  0  0  0  0  0  0  0
  143.0840   80.5170  223.0950 C   0  0  0  0  0  0  0  0  0  0  0  0
  144.4150   80.5380  223.3520 F   0  0  0  0  0  0  0  0  0  0  0  0
  142.5310   79.9180  221.9820 C   0  0  0  0  0  0  0  0  0  0  0  0
  143.2720   76.8000  219.6820 C   0  0  0  0  0  0  0  0  0  0  0  0
  144.0240   75.5270  219.7090 C   0  0  0  0  0  0  0  0  0  0  0  0
  145.9772   73.3457  222.2291 H   0  0  0  0  0  0  0  0  0  0  0  0
  146.8849   74.1579  220.9088 H   0  0  0  0  0  0  0  0  0  0  0  0
  145.0888   74.1789  220.9088 H   0  0  0  0  0  0  0  0  0  0  0  0
  146.9932   72.0165  220.0881 H   0  0  0  0  0  0  0  0  0  0  0  0
  145.5197   71.4879  220.9481 H   0  0  0  0  0  0  0  0  0  0  0  0
  142.6711   73.7728  221.5811 H   0  0  0  0  0  0  0  0  0  0  0  0
  140.7292   72.4783  222.5198 H   0  0  0  0  0  0  0  0  0  0  0  0
  139.8312   70.5312  221.2979 H   0  0  0  0  0  0  0  0  0  0  0  0
  140.8197   69.8063  219.1237 H   0  0  0  0  0  0  0  0  0  0  0  0
  142.7486   71.1001  218.2076 H   0  0  0  0  0  0  0  0  0  0  0  0
  144.2420   74.6743  217.8083 H   0  0  0  0  0  0  0  0  0  0  0  0
  141.8684   73.7351  217.7178 H   0  0  0  0  0  0  0  0  0  0  0  0
  141.5408   74.4772  219.2930 H   0  0  0  0  0  0  0  0  0  0  0  0
  142.6167   75.9565  216.8333 H   0  0  0  0  0  0  0  0  0  0  0  0
  140.9097   75.9667  217.3514 H   0  0  0  0  0  0  0  0  0  0  0  0
  142.5530   79.4586  219.7112 H   0  0  0  0  0  0  0  0  0  0  0  0
  140.6180   80.2400  217.7550 H   0  0  0  0  0  0  0  0  0  0  0  0
  142.1630   80.7740  218.0030 H   0  0  0  0  0  0  0  0  0  0  0  0
  139.7095   79.8170  220.2769 H   0  0  0  0  0  0  0  0  0  0  0  0
  141.8540   77.5566  222.1633 H   0  0  0  0  0  0  0  0  0  0  0  0
  141.3317   75.2161  222.6760 H   0  0  0  0  0  0  0  0  0  0  0  0
  139.3754   74.1243  221.5834 H   0  0  0  0  0  0  0  0  0  0  0  0
  137.9829   75.4286  219.9798 H   0  0  0  0  0  0  0  0  0  0  0  0
  138.5414   77.7758  219.4907 H   0  0  0  0  0  0  0  0  0  0  0  0
  139.2670   80.5408  222.5014 H   0  0  0  0  0  0  0  0  0  0  0  0
  140.1854   81.6426  224.5277 H   0  0  0  0  0  0  0  0  0  0  0  0
  142.6373   81.6063  224.8737 H   0  0  0  0  0  0  0  0  0  0  0  0
  143.1996   79.4289  221.2583 H   0  0  0  0  0  0  0  0  0  0  0  0
  144.0006   77.6110  219.5355 H   0  0  0  0  0  0  0  0  0  0  0  0
  142.7278   76.8264  220.6376 H   0  0  0  0  0  0  0  0  0  0  0  0
  145.0853   75.7664  219.5466 H   0  0  0  0  0  0  0  0  0  0  0  0
  143.7899   75.0809  220.6869 H   0  0  0  0  0  0  0  0  0  0  0  0
  1  2  1  0
  2  3  1  0
  3  4  2  0
  3  5  1  0
  5  6  1  0
  6  7  2  0
  7  8  1  0
  8  9  2  0
  9 10  1  0
 10 11  2  0
  5 12  1  0
 12 13  1  0
 13 14  1  0
 14 15  1  0
 15 16  1  0
 16 17  2  0
 16 18  1  0
 18 19  1  0
 18 20  1  0
 20 21  1  0
 21 22  2  0
 22 23  1  0
 23 24  2  0
 24 25  1  0
 25 26  2  0
 20 27  1  0
 27 28  2  0
 28 29  1  0
 29 30  2  0
 30 31  1  0
 31 32  1  0
 31 33  2  0
 15 34  1  0
 34 35  1  0
 11  6  1  0
 35 12  1  0
 26 21  1  0
 33 27  1  0
  1 36  1  0
  1 37  1  0
  1 38  1  0
  2 39  1  0
  2 40  1  0
  7 41  1  0
  8 42  1  0
  9 43  1  0
 10 44  1  0
 11 45  1  0
 12 46  1  0
 13 47  1  0
 13 48  1  0
 14 49  1  0
 14 50  1  0
 18 51  1  1
 19 52  1  0
 19 53  1  0
 20 54  1  6
 22 55  1  0
 23 56  1  0
 24 57  1  0
 25 58  1  0
 26 59  1  0
 28 60  1  0
 29 61  1  0
 30 62  1  0
 33 63  1  0
 34 64  1  0
 34 65  1  0
 35 66  1  0
 35 67  1  0
M  END
>  <smiles>  (100) 
CCC(=O)N(c1ccccc1)C1CCN(C(=O)[C@@H](N)C(c2ccccc2)c2cccc(F)c2)CC1

>  <score_type>  (100) 
oracle

>  <origin>  (100) 
autodockgpu

>  <m_score__min__energy>  (100) 
-8.2300000000000004

>  <m_primary>  (100) 
energy

>  <rmsd>  (100) 
5.138804665317244

>  <m_score__min__rmsd>  (100) 
5.138804665317244

>  <meeko>  (100) 
{"free_energy": -6.12, "intermolecular_energy": -8.81, "internal_energy": -3.92, "cluster_size": 3, "cluster_id": 9, "rank_in_cluster": 2}

>  <energy>  (100) 
-6.12

>  <cluster_rmsd>  (100) 
0.47

>  <cluster>  (100) 
9

$$$$
