
     RDKit          3D

 48 51  0  0  0  0  0  0  0  0999 V2000
  138.0530   71.1450  220.8990 O   0  0  0  0  0  0  0  0  0  0  0  0
  138.3290   71.7150  222.0030 C   0  0  0  0  0  0  0  0  0  0  0  0
  138.1940   73.1400  222.1430 N   0  0  0  0  0  0  0  0  0  0  0  0
  137.7410   73.9510  221.0290 C   0  0  0  0  0  0  0  0  0  0  0  0
  138.7200   75.0220  220.7000 C   0  0  0  0  0  0  0  0  0  0  0  0
  138.3430   76.2020  220.9100 O   0  0  0  0  0  0  0  0  0  0  0  0
  139.9690   74.6380  220.1900 N   0  0  0  0  0  0  0  0  0  0  0  0
  140.2590   73.4190  219.3920 C   0  0  0  0  0  0  0  0  0  0  0  0
  141.5070   72.9320  220.1070 C   0  0  0  0  0  0  0  0  0  0  0  0
  142.0210   74.1070  220.9540 C   0  0  0  0  0  0  0  0  0  0  0  0
  141.2900   75.2510  220.2840 C   0  0  2  0  0  0  0  0  0  0  0  0
  141.3670   76.4990  221.0200 C   0  0  0  0  0  0  0  0  0  0  0  0
  141.7630   77.6940  220.4220 C   0  0  0  0  0  0  0  0  0  0  0  0
  141.8170   78.8850  221.0970 C   0  0  0  0  0  0  0  0  0  0  0  0
  141.4760   78.9420  222.4150 C   0  0  0  0  0  0  0  0  0  0  0  0
  141.5640   80.6210  223.3260 Br  0  0  0  0  0  0  0  0  0  0  0  0
  141.0780   77.7870  223.0490 C   0  0  0  0  0  0  0  0  0  0  0  0
  141.0260   76.5750  222.3520 C   0  0  0  0  0  0  0  0  0  0  0  0
  138.7880   70.9460  223.1510 C   0  0  0  0  0  0  0  0  0  0  0  0
  138.5580   69.5830  223.1870 C   0  0  0  0  0  0  0  0  0  0  0  0
  138.9550   68.7780  224.2310 C   0  0  0  0  0  0  0  0  0  0  0  0
  139.6130   69.3910  225.2780 C   0  0  0  0  0  0  0  0  0  0  0  0
  140.0160   68.6020  226.3300 C   0  0  0  0  0  0  0  0  0  0  0  0
  140.6760   69.1870  227.3910 C   0  0  0  0  0  0  0  0  0  0  0  0
  141.1870   68.1700  228.7280 Cl  0  0  0  0  0  0  0  0  0  0  0  0
  140.9160   70.5510  227.3730 C   0  0  0  0  0  0  0  0  0  0  0  0
  140.4970   71.3390  226.2950 C   0  0  0  0  0  0  0  0  0  0  0  0
  139.8420   70.7510  225.2430 C   0  0  0  0  0  0  0  0  0  0  0  0
  139.4350   71.5140  224.1940 N   0  0  0  0  0  0  0  0  0  0  0  0
  138.4370   73.5630  223.0870 H   0  0  0  0  0  0  0  0  0  0  0  0
  137.6078   73.3057  220.1482 H   0  0  0  0  0  0  0  0  0  0  0  0
  136.7911   74.4274  221.3130 H   0  0  0  0  0  0  0  0  0  0  0  0
  139.4408   72.6863  219.4526 H   0  0  0  0  0  0  0  0  0  0  0  0
  140.3781   73.5879  218.3116 H   0  0  0  0  0  0  0  0  0  0  0  0
  141.2631   72.0768  220.7544 H   0  0  0  0  0  0  0  0  0  0  0  0
  142.2702   72.6008  219.3873 H   0  0  0  0  0  0  0  0  0  0  0  0
  141.7362   74.0037  222.0115 H   0  0  0  0  0  0  0  0  0  0  0  0
  143.1155   74.2115  220.9869 H   0  0  0  0  0  0  0  0  0  0  0  0
  141.6922   75.5947  219.3196 H   0  0  0  0  0  0  0  0  0  0  0  0
  142.0452   77.6803  219.3589 H   0  0  0  0  0  0  0  0  0  0  0  0
  142.1366   79.7980  220.5733 H   0  0  0  0  0  0  0  0  0  0  0  0
  140.7985   77.8171  224.1125 H   0  0  0  0  0  0  0  0  0  0  0  0
  140.7061   75.6639  222.8789 H   0  0  0  0  0  0  0  0  0  0  0  0
  138.0319   69.1190  222.3397 H   0  0  0  0  0  0  0  0  0  0  0  0
  138.7569   67.6960  224.2307 H   0  0  0  0  0  0  0  0  0  0  0  0
  139.8151   67.5205  226.3255 H   0  0  0  0  0  0  0  0  0  0  0  0
  141.4426   71.0209  228.2167 H   0  0  0  0  0  0  0  0  0  0  0  0
  140.6914   72.4217  226.2914 H   0  0  0  0  0  0  0  0  0  0  0  0
  1  2  2  0
  2  3  1  0
  3  4  1  0
  4  5  1  0
  5  6  2  0
  5  7  1  0
  7  8  1  0
  8  9  1  0
  9 10  1  0
 10 11  1  0
 11 12  1  0
 12 13  2  0
 13 14  1  0
 14 15  2  0
 15 16  1  0
 15 17  1  0
 17 18  2  0
  2 19  1  0
 19 20  2  0
 20 21  1  0
 21 22  2  0
 22 23  1  0
 23 24  2  0
 24 25  1  0
 24 26  1  0
 26 27  2  0
 27 28  1  0
 28 29  2  0
 11  7  1  0
 18 12  1  0
 29 19  1  0
 28 22  1  0
  3 30  1  0
  4 31  1  0
  4 32  1  0
  8 33  1  0
  8 34  1  0
  9 35  1  0
  9 36  1  0
 10 37  1  0
 10 38  1  0
 11 39  1  6
 13 40  1  0
 14 41  1  0
 17 42  1  0
 18 43  1  0
 20 44  1  0
 21 45  1  0
 23 46  1  0
 26 47  1  0
 27 48  1  0
M  END
>  <smiles>  (1) 
O=C(NCC(=O)N1CCCC1c1ccc(Br)cc1)c1ccc2cc(Cl)ccc2n1

>  <score_type>  (1) 
oracle

>  <origin>  (1) 
autodockgpu

>  <m_score__min__energy>  (1) 
-8.4399999999999995

>  <m_primary>  (1) 
energy

>  <rmsd>  (1) 
2.0606062730780907

>  <m_score__min__rmsd>  (1) 
2.0606062730780907

>  <meeko>  (1) 
{"free_energy": -8.16, "intermolecular_energy": -9.65, "internal_energy": -1.88, "cluster_size": 29, "cluster_id": 1, "rank_in_cluster": 13}

>  <energy>  (1) 
-8.44

>  <cluster_rmsd>  (1) 
0.0

>  <cluster>  (1) 
1

$$$$

     RDKit          3D

 48 51  0  0  0  0  0  0  0  0999 V2000
  134.0040   69.5210  226.1140 O   0  0  0  0  0  0  0  0  0  0  0  0
  134.3990   70.6800  225.7640 C   0  0  0  0  0  0  0  0  0  0  0  0
  135.5100   70.8310  224.8620 N   0  0  0  0  0  0  0  0  0  0  0  0
  136.1980   69.6670  224.3380 C   0  0  0  0  0  0  0  0  0  0  0  0
  136.6780   69.8970  222.9480 C   0  0  0  0  0  0  0  0  0  0  0  0
  136.1630   70.8660  222.3360 O   0  0  0  0  0  0  0  0  0  0  0  0
  137.6540   69.0290  222.4370 N   0  0  0  0  0  0  0  0  0  0  0  0
  137.5210   68.1570  221.2410 C   0  0  0  0  0  0  0  0  0  0  0  0
  138.0770   66.8600  221.8030 C   0  0  0  0  0  0  0  0  0  0  0  0
  138.8250   67.2210  223.0960 C   0  0  0  0  0  0  0  0  0  0  0  0
  139.0060   68.7090  222.8870 C   0  0  2  0  0  0  0  0  0  0  0  0
  139.4700   69.4090  224.0690 C   0  0  0  0  0  0  0  0  0  0  0  0
  139.9370   70.7200  224.0240 C   0  0  0  0  0  0  0  0  0  0  0  0
  140.3560   71.4030  225.1350 C   0  0  0  0  0  0  0  0  0  0  0  0
  140.3290   70.8040  226.3590 C   0  0  0  0  0  0  0  0  0  0  0  0
  140.9220   71.7880  227.8890 Br  0  0  0  0  0  0  0  0  0  0  0  0
  139.8750   69.5090  226.4540 C   0  0  0  0  0  0  0  0  0  0  0  0
  139.4490   68.8190  225.3140 C   0  0  0  0  0  0  0  0  0  0  0  0
  133.7420   71.8800  226.2610 C   0  0  0  0  0  0  0  0  0  0  0  0
  132.6120   71.7550  227.0470 C   0  0  0  0  0  0  0  0  0  0  0  0
  131.9260   72.8330  227.5610 C   0  0  0  0  0  0  0  0  0  0  0  0
  132.4170   74.0870  227.2590 C   0  0  0  0  0  0  0  0  0  0  0  0
  131.7450   75.1760  227.7630 C   0  0  0  0  0  0  0  0  0  0  0  0
  132.2110   76.4420  227.4770 C   0  0  0  0  0  0  0  0  0  0  0  0
  131.3450   77.8250  228.1260 Cl  0  0  0  0  0  0  0  0  0  0  0  0
  133.3420   76.5880  226.6900 C   0  0  0  0  0  0  0  0  0  0  0  0
  134.0130   75.4690  226.1840 C   0  0  0  0  0  0  0  0  0  0  0  0
  133.5450   74.2120  226.4730 C   0  0  0  0  0  0  0  0  0  0  0  0
  134.1950   73.1240  225.9830 N   0  0  0  0  0  0  0  0  0  0  0  0
  135.7970   71.8200  224.6020 H   0  0  0  0  0  0  0  0  0  0  0  0
  137.0612   69.4422  224.9816 H   0  0  0  0  0  0  0  0  0  0  0  0
  135.4903   68.8250  224.3239 H   0  0  0  0  0  0  0  0  0  0  0  0
  136.4721   68.0504  220.9272 H   0  0  0  0  0  0  0  0  0  0  0  0
  138.0270   68.5269  220.3371 H   0  0  0  0  0  0  0  0  0  0  0  0
  137.2572   66.1602  222.0225 H   0  0  0  0  0  0  0  0  0  0  0  0
  138.7490   66.3730  221.0811 H   0  0  0  0  0  0  0  0  0  0  0  0
  138.2224   67.0045  223.9904 H   0  0  0  0  0  0  0  0  0  0  0  0
  139.7559   66.6599  223.2652 H   0  0  0  0  0  0  0  0  0  0  0  0
  139.7954   69.0151  222.1848 H   0  0  0  0  0  0  0  0  0  0  0  0
  139.9710   71.2312  223.0506 H   0  0  0  0  0  0  0  0  0  0  0  0
  140.7154   72.4382  225.0390 H   0  0  0  0  0  0  0  0  0  0  0  0
  139.8467   69.0117  227.4347 H   0  0  0  0  0  0  0  0  0  0  0  0
  139.0899   67.7841  225.4136 H   0  0  0  0  0  0  0  0  0  0  0  0
  132.2421   70.7441  227.2733 H   0  0  0  0  0  0  0  0  0  0  0  0
  131.0286   72.7007  228.1832 H   0  0  0  0  0  0  0  0  0  0  0  0
  130.8484   75.0391  228.3855 H   0  0  0  0  0  0  0  0  0  0  0  0
  133.7172   77.5961  226.4600 H   0  0  0  0  0  0  0  0  0  0  0  0
  134.9092   75.5963  225.5590 H   0  0  0  0  0  0  0  0  0  0  0  0
  1  2  2  0
  2  3  1  0
  3  4  1  0
  4  5  1  0
  5  6  2  0
  5  7  1  0
  7  8  1  0
  8  9  1  0
  9 10  1  0
 10 11  1  0
 11 12  1  0
 12 13  2  0
 13 14  1  0
 14 15  2  0
 15 16  1  0
 15 17  1  0
 17 18  2  0
  2 19  1  0
 19 20  2  0
 20 21  1  0
 21 22  2  0
 22 23  1  0
 23 24  2  0
 24 25  1  0
 24 26  1  0
 26 27  2  0
 27 28  1  0
 28 29  2  0
 11  7  1  0
 18 12  1  0
 29 19  1  0
 28 22  1  0
  3 30  1  0
  4 31  1  0
  4 32  1  0
  8 33  1  0
  8 34  1  0
  9 35  1  0
  9 36  1  0
 10 37  1  0
 10 38  1  0
 11 39  1  6
 13 40  1  0
 14 41  1  0
 17 42  1  0
 18 43  1  0
 20 44  1  0
 21 45  1  0
 23 46  1  0
 26 47  1  0
 27 48  1  0
M  END
>  <smiles>  (2) 
O=C(NCC(=O)N1CCCC1c1ccc(Br)cc1)c1ccc2cc(Cl)ccc2n1

>  <score_type>  (2) 
oracle

>  <origin>  (2) 
autodockgpu

>  <m_score__min__energy>  (2) 
-8.4399999999999995

>  <m_primary>  (2) 
energy

>  <rmsd>  (2) 
8.489923986733924

>  <m_score__min__rmsd>  (2) 
8.489923986733924

>  <meeko>  (2) 
{"free_energy": -8.1, "intermolecular_energy": -9.59, "internal_energy": -1.94, "cluster_size": 9, "cluster_id": 2, "rank_in_cluster": 4}

>  <energy>  (2) 
-8.39

>  <cluster_rmsd>  (2) 
0.43

>  <cluster>  (2) 
1

$$$$

     RDKit          3D

 48 51  0  0  0  0  0  0  0  0999 V2000
  139.1920   70.8880  221.0710 O   0  0  0  0  0  0  0  0  0  0  0  0
  139.0770   71.5830  222.1310 C   0  0  0  0  0  0  0  0  0  0  0  0
  138.4560   72.8810  222.0900 N   0  0  0  0  0  0  0  0  0  0  0  0
  137.9500   73.4170  220.8420 C   0  0  0  0  0  0  0  0  0  0  0  0
  138.6870   74.6440  220.4360 C   0  0  0  0  0  0  0  0  0  0  0  0
  138.7720   74.8590  219.2010 O   0  0  0  0  0  0  0  0  0  0  0  0
  139.2210   75.4550  221.4490 N   0  0  0  0  0  0  0  0  0  0  0  0
  138.4630   76.3740  222.3360 C   0  0  0  0  0  0  0  0  0  0  0  0
  139.3470   77.6060  222.2480 C   0  0  0  0  0  0  0  0  0  0  0  0
  140.6930   77.1470  221.6660 C   0  0  0  0  0  0  0  0  0  0  0  0
  140.5900   75.6570  221.9150 C   0  0  2  0  0  0  0  0  0  0  0  0
  141.6170   74.8850  221.2420 C   0  0  0  0  0  0  0  0  0  0  0  0
  141.6820   73.4960  221.3280 C   0  0  0  0  0  0  0  0  0  0  0  0
  142.6300   72.7500  220.6790 C   0  0  0  0  0  0  0  0  0  0  0  0
  143.5700   73.3610  219.9050 C   0  0  0  0  0  0  0  0  0  0  0  0
  144.8790   72.2880  219.0130 Br  0  0  0  0  0  0  0  0  0  0  0  0
  143.5460   74.7310  219.7880 C   0  0  0  0  0  0  0  0  0  0  0  0
  142.5740   75.4850  220.4550 C   0  0  0  0  0  0  0  0  0  0  0  0
  139.5680   71.0900  223.4100 C   0  0  0  0  0  0  0  0  0  0  0  0
  140.3850   71.8980  224.1770 C   0  0  0  0  0  0  0  0  0  0  0  0
  140.8960   71.5160  225.3970 C   0  0  0  0  0  0  0  0  0  0  0  0
  140.5560   70.2570  225.8490 C   0  0  0  0  0  0  0  0  0  0  0  0
  141.0570   69.8570  227.0660 C   0  0  0  0  0  0  0  0  0  0  0  0
  140.7360   68.6030  227.5440 C   0  0  0  0  0  0  0  0  0  0  0  0
  141.3810   68.1030  229.0980 Cl  0  0  0  0  0  0  0  0  0  0  0  0
  139.9180   67.7780  226.7890 C   0  0  0  0  0  0  0  0  0  0  0  0
  139.4170   68.2000  225.5520 C   0  0  0  0  0  0  0  0  0  0  0  0
  139.7410   69.4490  225.0830 C   0  0  0  0  0  0  0  0  0  0  0  0
  139.2560   69.8610  223.8830 N   0  0  0  0  0  0  0  0  0  0  0  0
  138.3860   73.4170  223.0040 H   0  0  0  0  0  0  0  0  0  0  0  0
  138.0615   72.6564  220.0552 H   0  0  0  0  0  0  0  0  0  0  0  0
  136.8918   73.6816  220.9842 H   0  0  0  0  0  0  0  0  0  0  0  0
  137.4503   76.5690  221.9534 H   0  0  0  0  0  0  0  0  0  0  0  0
  138.2885   75.9984  223.3551 H   0  0  0  0  0  0  0  0  0  0  0  0
  138.8859   78.3565  221.5891 H   0  0  0  0  0  0  0  0  0  0  0  0
  139.4818   78.0662  223.2380 H   0  0  0  0  0  0  0  0  0  0  0  0
  140.7743   77.3774  220.5935 H   0  0  0  0  0  0  0  0  0  0  0  0
  141.5778   77.6309  222.1051 H   0  0  0  0  0  0  0  0  0  0  0  0
  140.7656   75.3160  222.9459 H   0  0  0  0  0  0  0  0  0  0  0  0
  140.9370   72.9737  221.9462 H   0  0  0  0  0  0  0  0  0  0  0  0
  142.6323   71.6549  220.7830 H   0  0  0  0  0  0  0  0  0  0  0  0
  144.2972   75.2384  219.1649 H   0  0  0  0  0  0  0  0  0  0  0  0
  142.5746   76.5798  220.3483 H   0  0  0  0  0  0  0  0  0  0  0  0
  140.6401   72.8970  223.7936 H   0  0  0  0  0  0  0  0  0  0  0  0
  141.5447   72.1828  225.9839 H   0  0  0  0  0  0  0  0  0  0  0  0
  141.7046   70.5275  227.6501 H   0  0  0  0  0  0  0  0  0  0  0  0
  139.6588   66.7780  227.1668 H   0  0  0  0  0  0  0  0  0  0  0  0
  138.7691   67.5364  224.9605 H   0  0  0  0  0  0  0  0  0  0  0  0
  1  2  2  0
  2  3  1  0
  3  4  1  0
  4  5  1  0
  5  6  2  0
  5  7  1  0
  7  8  1  0
  8  9  1  0
  9 10  1  0
 10 11  1  0
 11 12  1  0
 12 13  2  0
 13 14  1  0
 14 15  2  0
 15 16  1  0
 15 17  1  0
 17 18  2  0
  2 19  1  0
 19 20  2  0
 20 21  1  0
 21 22  2  0
 22 23  1  0
 23 24  2  0
 24 25  1  0
 24 26  1  0
 26 27  2  0
 27 28  1  0
 28 29  2  0
 11  7  1  0
 18 12  1  0
 29 19  1  0
 28 22  1  0
  3 30  1  0
  4 31  1  0
  4 32  1  0
  8 33  1  0
  8 34  1  0
  9 35  1  0
  9 36  1  0
 10 37  1  0
 10 38  1  0
 11 39  1  1
 13 40  1  0
 14 41  1  0
 17 42  1  0
 18 43  1  0
 20 44  1  0
 21 45  1  0
 23 46  1  0
 26 47  1  0
 27 48  1  0
M  END
>  <smiles>  (3) 
O=C(NCC(=O)N1CCCC1c1ccc(Br)cc1)c1ccc2cc(Cl)ccc2n1

>  <score_type>  (3) 
oracle

>  <origin>  (3) 
autodockgpu

>  <m_score__min__energy>  (3) 
-8.4399999999999995

>  <m_primary>  (3) 
energy

>  <rmsd>  (3) 
3.196913214389045

>  <m_score__min__rmsd>  (3) 
3.196913214389045

>  <meeko>  (3) 
{"free_energy": -8.02, "intermolecular_energy": -9.51, "internal_energy": -1.93, "cluster_size": 8, "cluster_id": 4, "rank_in_cluster": 3}

>  <energy>  (3) 
-8.39

>  <cluster_rmsd>  (3) 
0.24

>  <cluster>  (3) 
1

$$$$

     RDKit          3D

 48 51  0  0  0  0  0  0  0  0999 V2000
  134.1030   69.8060  226.4070 O   0  0  0  0  0  0  0  0  0  0  0  0
  134.3210   70.9500  225.8930 C   0  0  0  0  0  0  0  0  0  0  0  0
  135.2530   71.0970  224.8070 N   0  0  0  0  0  0  0  0  0  0  0  0
  135.9580   69.9450  224.2790 C   0  0  0  0  0  0  0  0  0  0  0  0
  136.6030   70.2510  222.9730 C   0  0  0  0  0  0  0  0  0  0  0  0
  136.2580   71.3270  222.4230 O   0  0  0  0  0  0  0  0  0  0  0  0
  137.5320   69.3300  222.4660 N   0  0  0  0  0  0  0  0  0  0  0  0
  137.3520   68.4610  221.2750 C   0  0  0  0  0  0  0  0  0  0  0  0
  137.8400   67.1400  221.8430 C   0  0  0  0  0  0  0  0  0  0  0  0
  138.6070   67.4670  223.1340 C   0  0  0  0  0  0  0  0  0  0  0  0
  138.8650   68.9430  222.9170 C   0  0  2  0  0  0  0  0  0  0  0  0
  139.3660   69.6230  224.0950 C   0  0  0  0  0  0  0  0  0  0  0  0
  139.3190   69.0500  225.3640 C   0  0  0  0  0  0  0  0  0  0  0  0
  139.8100   69.6700  226.4830 C   0  0  0  0  0  0  0  0  0  0  0  0
  140.3770   70.9050  226.3890 C   0  0  0  0  0  0  0  0  0  0  0  0
  141.0520   71.7400  227.9720 Br  0  0  0  0  0  0  0  0  0  0  0  0
  140.4470   71.5120  225.1570 C   0  0  0  0  0  0  0  0  0  0  0  0
  139.9430   70.8720  224.0190 C   0  0  0  0  0  0  0  0  0  0  0  0
  133.6390   72.1370  226.3870 C   0  0  0  0  0  0  0  0  0  0  0  0
  132.4670   71.9930  227.1060 C   0  0  0  0  0  0  0  0  0  0  0  0
  131.7550   73.0580  227.6100 C   0  0  0  0  0  0  0  0  0  0  0  0
  132.2620   74.3190  227.3700 C   0  0  0  0  0  0  0  0  0  0  0  0
  131.5630   75.3950  227.8650 C   0  0  0  0  0  0  0  0  0  0  0  0
  132.0450   76.6680  227.6400 C   0  0  0  0  0  0  0  0  0  0  0  0
  131.1460   78.0340  228.2780 Cl  0  0  0  0  0  0  0  0  0  0  0  0
  133.2180   76.8320  226.9220 C   0  0  0  0  0  0  0  0  0  0  0  0
  133.9160   75.7260  226.4230 C   0  0  0  0  0  0  0  0  0  0  0  0
  133.4310   74.4630  226.6510 C   0  0  0  0  0  0  0  0  0  0  0  0
  134.1070   73.3880  226.1690 N   0  0  0  0  0  0  0  0  0  0  0  0
  135.3960   72.0740  224.4160 H   0  0  0  0  0  0  0  0  0  0  0  0
  136.7330   69.6401  224.9976 H   0  0  0  0  0  0  0  0  0  0  0  0
  135.2289   69.1364  224.1225 H   0  0  0  0  0  0  0  0  0  0  0  0
  136.2986   68.4079  220.9628 H   0  0  0  0  0  0  0  0  0  0  0  0
  137.8754   68.7995  220.3686 H   0  0  0  0  0  0  0  0  0  0  0  0
  136.9849   66.4850  222.0663 H   0  0  0  0  0  0  0  0  0  0  0  0
  138.4854   66.6155  221.1230 H   0  0  0  0  0  0  0  0  0  0  0  0
  137.9947   67.2866  224.0299 H   0  0  0  0  0  0  0  0  0  0  0  0
  139.5073   66.8587  223.3058 H   0  0  0  0  0  0  0  0  0  0  0  0
  139.6684   69.2049  222.2128 H   0  0  0  0  0  0  0  0  0  0  0  0
  138.8666   68.0533  225.4728 H   0  0  0  0  0  0  0  0  0  0  0  0
  139.7461   69.1689  227.4601 H   0  0  0  0  0  0  0  0  0  0  0  0
  140.9029   72.5088  225.0652 H   0  0  0  0  0  0  0  0  0  0  0  0
  140.0088   71.3765  223.0437 H   0  0  0  0  0  0  0  0  0  0  0  0
  132.0845   70.9772  227.2842 H   0  0  0  0  0  0  0  0  0  0  0  0
  130.8246   72.9107  228.1780 H   0  0  0  0  0  0  0  0  0  0  0  0
  130.6329   75.2428  228.4322 H   0  0  0  0  0  0  0  0  0  0  0  0
  133.6064   77.8452  226.7414 H   0  0  0  0  0  0  0  0  0  0  0  0
  134.8458   75.8683  225.8527 H   0  0  0  0  0  0  0  0  0  0  0  0
  1  2  2  0
  2  3  1  0
  3  4  1  0
  4  5  1  0
  5  6  2  0
  5  7  1  0
  7  8  1  0
  8  9  1  0
  9 10  1  0
 10 11  1  0
 11 12  1  0
 12 13  2  0
 13 14  1  0
 14 15  2  0
 15 16  1  0
 15 17  1  0
 17 18  2  0
  2 19  1  0
 19 20  2  0
 20 21  1  0
 21 22  2  0
 22 23  1  0
 23 24  2  0
 24 25  1  0
 24 26  1  0
 26 27  2  0
 27 28  1  0
 28 29  2  0
 11  7  1  0
 18 12  1  0
 29 19  1  0
 28 22  1  0
  3 30  1  0
  4 31  1  0
  4 32  1  0
  8 33  1  0
  8 34  1  0
  9 35  1  0
  9 36  1  0
 10 37  1  0
 10 38  1  0
 11 39  1  6
 13 40  1  0
 14 41  1  0
 17 42  1  0
 18 43  1  0
 20 44  1  0
 21 45  1  0
 23 46  1  0
 26 47  1  0
 27 48  1  0
M  END
>  <smiles>  (4) 
O=C(NCC(=O)N1CCCC1c1ccc(Br)cc1)c1ccc2cc(Cl)ccc2n1

>  <score_type>  (4) 
oracle

>  <origin>  (4) 
autodockgpu

>  <m_score__min__energy>  (4) 
-8.4399999999999995

>  <m_primary>  (4) 
energy

>  <rmsd>  (4) 
8.519335000022261

>  <m_score__min__rmsd>  (4) 
8.519335000022261

>  <meeko>  (4) 
{"free_energy": -8.13, "intermolecular_energy": -9.62, "internal_energy": -2.07, "cluster_size": 9, "cluster_id": 2, "rank_in_cluster": 3}

>  <energy>  (4) 
-8.38

>  <cluster_rmsd>  (4) 
0.27

>  <cluster>  (4) 
1

$$$$

     RDKit          3D

 48 51  0  0  0  0  0  0  0  0999 V2000
  140.5400   72.3110  220.6190 O   0  0  0  0  0  0  0  0  0  0  0  0
  140.3090   72.7750  221.7810 C   0  0  0  0  0  0  0  0  0  0  0  0
  140.1120   74.1870  221.9780 N   0  0  0  0  0  0  0  0  0  0  0  0
  140.1740   75.1030  220.8550 C   0  0  0  0  0  0  0  0  0  0  0  0
  140.7020   76.4330  221.2650 C   0  0  0  0  0  0  0  0  0  0  0  0
  140.4030   76.8170  222.4230 O   0  0  0  0  0  0  0  0  0  0  0  0
  141.4820   77.1440  220.3400 N   0  0  0  0  0  0  0  0  0  0  0  0
  141.3870   78.5950  220.0360 C   0  0  0  0  0  0  0  0  0  0  0  0
  141.4070   78.5420  218.5180 C   0  0  0  0  0  0  0  0  0  0  0  0
  141.9080   77.1430  218.1280 C   0  0  0  0  0  0  0  0  0  0  0  0
  142.5460   76.7210  219.4340 C   0  0  2  0  0  0  0  0  0  0  0  0
  142.9050   75.3170  219.4780 C   0  0  0  0  0  0  0  0  0  0  0  0
  143.7650   74.7960  220.4420 C   0  0  0  0  0  0  0  0  0  0  0  0
  144.0940   73.4680  220.5110 C   0  0  0  0  0  0  0  0  0  0  0  0
  143.5760   72.5860  219.6120 C   0  0  0  0  0  0  0  0  0  0  0  0
  144.0570   70.7390  219.7390 Br  0  0  0  0  0  0  0  0  0  0  0  0
  142.7210   73.0530  218.6410 C   0  0  0  0  0  0  0  0  0  0  0  0
  142.3900   74.4110  218.5770 C   0  0  0  0  0  0  0  0  0  0  0  0
  140.2360   71.8980  222.9400 C   0  0  0  0  0  0  0  0  0  0  0  0
  139.6700   70.6440  222.8050 C   0  0  0  0  0  0  0  0  0  0  0  0
  139.5600   69.7490  223.8450 C   0  0  0  0  0  0  0  0  0  0  0  0
  140.0470   70.1520  225.0710 C   0  0  0  0  0  0  0  0  0  0  0  0
  139.9450   69.2710  226.1220 C   0  0  0  0  0  0  0  0  0  0  0  0
  140.4230   69.6460  227.3600 C   0  0  0  0  0  0  0  0  0  0  0  0
  140.2870   68.5130  228.6940 Cl  0  0  0  0  0  0  0  0  0  0  0  0
  140.9940   70.8990  227.5160 C   0  0  0  0  0  0  0  0  0  0  0  0
  141.0900   71.7840  226.4360 C   0  0  0  0  0  0  0  0  0  0  0  0
  140.6120   71.4040  225.2070 C   0  0  0  0  0  0  0  0  0  0  0  0
  140.7040   72.2610  224.1570 N   0  0  0  0  0  0  0  0  0  0  0  0
  139.9220   74.5200  222.9680 H   0  0  0  0  0  0  0  0  0  0  0  0
  140.8336   74.6788  220.0836 H   0  0  0  0  0  0  0  0  0  0  0  0
  139.1546   75.2413  220.4654 H   0  0  0  0  0  0  0  0  0  0  0  0
  140.4529   79.0328  220.4179 H   0  0  0  0  0  0  0  0  0  0  0  0
  142.1712   79.2183  220.4905 H   0  0  0  0  0  0  0  0  0  0  0  0
  140.3946   78.7060  218.1202 H   0  0  0  0  0  0  0  0  0  0  0  0
  142.0608   79.3242  218.1048 H   0  0  0  0  0  0  0  0  0  0  0  0
  141.0799   76.4770  217.8439 H   0  0  0  0  0  0  0  0  0  0  0  0
  142.5766   77.1162  217.2549 H   0  0  0  0  0  0  0  0  0  0  0  0
  143.5293   77.1566  219.6650 H   0  0  0  0  0  0  0  0  0  0  0  0
  144.2003   75.4831  221.1825 H   0  0  0  0  0  0  0  0  0  0  0  0
  144.7788   73.1129  221.2952 H   0  0  0  0  0  0  0  0  0  0  0  0
  142.2936   72.3526  217.9083 H   0  0  0  0  0  0  0  0  0  0  0  0
  141.7048   74.7623  217.7914 H   0  0  0  0  0  0  0  0  0  0  0  0
  139.2885   70.3465  221.8171 H   0  0  0  0  0  0  0  0  0  0  0  0
  139.1045   68.7576  223.7048 H   0  0  0  0  0  0  0  0  0  0  0  0
  139.4884   68.2808  225.9772 H   0  0  0  0  0  0  0  0  0  0  0  0
  141.3769   71.2020  228.5017 H   0  0  0  0  0  0  0  0  0  0  0  0
  141.5450   72.7763  226.5712 H   0  0  0  0  0  0  0  0  0  0  0  0
  1  2  2  0
  2  3  1  0
  3  4  1  0
  4  5  1  0
  5  6  2  0
  5  7  1  0
  7  8  1  0
  8  9  1  0
  9 10  1  0
 10 11  1  0
 11 12  1  0
 12 13  2  0
 13 14  1  0
 14 15  2  0
 15 16  1  0
 15 17  1  0
 17 18  2  0
  2 19  1  0
 19 20  2  0
 20 21  1  0
 21 22  2  0
 22 23  1  0
 23 24  2  0
 24 25  1  0
 24 26  1  0
 26 27  2  0
 27 28  1  0
 28 29  2  0
 11  7  1  0
 18 12  1  0
 29 19  1  0
 28 22  1  0
  3 30  1  0
  4 31  1  0
  4 32  1  0
  8 33  1  0
  8 34  1  0
  9 35  1  0
  9 36  1  0
 10 37  1  0
 10 38  1  0
 11 39  1  1
 13 40  1  0
 14 41  1  0
 17 42  1  0
 18 43  1  0
 20 44  1  0
 21 45  1  0
 23 46  1  0
 26 47  1  0
 27 48  1  0
M  END
>  <smiles>  (5) 
O=C(NCC(=O)N1CCCC1c1ccc(Br)cc1)c1ccc2cc(Cl)ccc2n1

>  <score_type>  (5) 
oracle

>  <origin>  (5) 
autodockgpu

>  <m_score__min__energy>  (5) 
-8.4399999999999995

>  <m_primary>  (5) 
energy

>  <rmsd>  (5) 
2.3546461537585652

>  <m_score__min__rmsd>  (5) 
2.3546461537585652

>  <meeko>  (5) 
{"free_energy": -7.59, "intermolecular_energy": -9.08, "internal_energy": -2.35, "cluster_size": 8, "cluster_id": 4, "rank_in_cluster": 8}

>  <energy>  (5) 
-8.37

>  <cluster_rmsd>  (5) 
0.22

>  <cluster>  (5) 
1

$$$$

     RDKit          3D

 48 51  0  0  0  0  0  0  0  0999 V2000
  140.0300   72.1070  220.7320 O   0  0  0  0  0  0  0  0  0  0  0  0
  139.8930   72.5410  221.9210 C   0  0  0  0  0  0  0  0  0  0  0  0
  139.6580   73.9390  222.1670 N   0  0  0  0  0  0  0  0  0  0  0  0
  139.5730   74.8770  221.0640 C   0  0  0  0  0  0  0  0  0  0  0  0
  139.8050   76.2750  221.5190 C   0  0  0  0  0  0  0  0  0  0  0  0
  139.5710   76.5110  222.7300 O   0  0  0  0  0  0  0  0  0  0  0  0
  140.2600   77.2060  220.5740 N   0  0  0  0  0  0  0  0  0  0  0  0
  140.9740   76.9020  219.3070 C   0  0  0  0  0  0  0  0  0  0  0  0
  142.0960   77.9220  219.3900 C   0  0  0  0  0  0  0  0  0  0  0  0
  141.6860   78.9470  220.4600 C   0  0  0  0  0  0  0  0  0  0  0  0
  140.2010   78.6650  220.5360 C   0  0  2  0  0  0  0  0  0  0  0  0
  139.5450   79.3090  221.6580 C   0  0  0  0  0  0  0  0  0  0  0  0
  138.1630   79.4730  221.7190 C   0  0  0  0  0  0  0  0  0  0  0  0
  137.5260   80.0570  222.7830 C   0  0  0  0  0  0  0  0  0  0  0  0
  138.2450   80.5110  223.8470 C   0  0  0  0  0  0  0  0  0  0  0  0
  137.3230   81.3210  225.3140 Br  0  0  0  0  0  0  0  0  0  0  0  0
  139.6140   80.3700  223.8320 C   0  0  0  0  0  0  0  0  0  0  0  0
  140.2560   79.7730  222.7420 C   0  0  0  0  0  0  0  0  0  0  0  0
  139.9700   71.6400  223.0620 C   0  0  0  0  0  0  0  0  0  0  0  0
  139.5190   70.3400  222.9290 C   0  0  0  0  0  0  0  0  0  0  0  0
  139.5530   69.4200  223.9520 C   0  0  0  0  0  0  0  0  0  0  0  0
  140.0670   69.8470  225.1590 C   0  0  0  0  0  0  0  0  0  0  0  0
  140.1080   68.9410  226.1940 C   0  0  0  0  0  0  0  0  0  0  0  0
  140.6150   69.3400  227.4130 C   0  0  0  0  0  0  0  0  0  0  0  0
  140.6630   68.1750  228.7270 Cl  0  0  0  0  0  0  0  0  0  0  0  0
  141.0720   70.6380  227.5670 C   0  0  0  0  0  0  0  0  0  0  0  0
  141.0220   71.5480  226.5040 C   0  0  0  0  0  0  0  0  0  0  0  0
  140.5160   71.1450  225.2940 C   0  0  0  0  0  0  0  0  0  0  0  0
  140.4670   72.0250  224.2600 N   0  0  0  0  0  0  0  0  0  0  0  0
  139.5510   74.2450  223.1780 H   0  0  0  0  0  0  0  0  0  0  0  0
  140.3322   74.6149  220.3124 H   0  0  0  0  0  0  0  0  0  0  0  0
  138.5615   74.8163  220.6359 H   0  0  0  0  0  0  0  0  0  0  0  0
  141.3585   75.8715  219.2915 H   0  0  0  0  0  0  0  0  0  0  0  0
  140.3561   76.9635  218.3990 H   0  0  0  0  0  0  0  0  0  0  0  0
  143.0358   77.4286  219.6786 H   0  0  0  0  0  0  0  0  0  0  0  0
  142.2586   78.4100  218.4177 H   0  0  0  0  0  0  0  0  0  0  0  0
  142.1875   78.7576  221.4206 H   0  0  0  0  0  0  0  0  0  0  0  0
  141.9491   79.9897  220.2287 H   0  0  0  0  0  0  0  0  0  0  0  0
  139.5814   79.0661  219.7204 H   0  0  0  0  0  0  0  0  0  0  0  0
  137.5548   79.1174  220.8742 H   0  0  0  0  0  0  0  0  0  0  0  0
  136.4308   80.1593  222.7775 H   0  0  0  0  0  0  0  0  0  0  0  0
  140.2085   80.7299  224.6846 H   0  0  0  0  0  0  0  0  0  0  0  0
  141.3513   79.6722  222.7510 H   0  0  0  0  0  0  0  0  0  0  0  0
  139.1125   70.0251  221.9566 H   0  0  0  0  0  0  0  0  0  0  0  0
  139.1873   68.3918  223.8137 H   0  0  0  0  0  0  0  0  0  0  0  0
  139.7418   67.9136  226.0512 H   0  0  0  0  0  0  0  0  0  0  0  0
  141.4797   70.9584  228.5371 H   0  0  0  0  0  0  0  0  0  0  0  0
  141.3854   72.5776  226.6379 H   0  0  0  0  0  0  0  0  0  0  0  0
  1  2  2  0
  2  3  1  0
  3  4  1  0
  4  5  1  0
  5  6  2  0
  5  7  1  0
  7  8  1  0
  8  9  1  0
  9 10  1  0
 10 11  1  0
 11 12  1  0
 12 13  2  0
 13 14  1  0
 14 15  2  0
 15 16  1  0
 15 17  1  0
 17 18  2  0
  2 19  1  0
 19 20  2  0
 20 21  1  0
 21 22  2  0
 22 23  1  0
 23 24  2  0
 24 25  1  0
 24 26  1  0
 26 27  2  0
 27 28  1  0
 28 29  2  0
 11  7  1  0
 18 12  1  0
 29 19  1  0
 28 22  1  0
  3 30  1  0
  4 31  1  0
  4 32  1  0
  8 33  1  0
  8 34  1  0
  9 35  1  0
  9 36  1  0
 10 37  1  0
 10 38  1  0
 11 39  1  6
 13 40  1  0
 14 41  1  0
 17 42  1  0
 18 43  1  0
 20 44  1  0
 21 45  1  0
 23 46  1  0
 26 47  1  0
 27 48  1  0
M  END
>  <smiles>  (6) 
O=C(NCC(=O)N1CCCC1c1ccc(Br)cc1)c1ccc2cc(Cl)ccc2n1

>  <score_type>  (6) 
oracle

>  <origin>  (6) 
autodockgpu

>  <m_score__min__energy>  (6) 
-8.4399999999999995

>  <m_primary>  (6) 
energy

>  <rmsd>  (6) 
2.079079932551779

>  <m_score__min__rmsd>  (6) 
2.079079932551779

>  <meeko>  (6) 
{"free_energy": -8.2, "intermolecular_energy": -9.69, "internal_energy": -1.88, "cluster_size": 29, "cluster_id": 1, "rank_in_cluster": 11}

>  <energy>  (6) 
-8.33

>  <cluster_rmsd>  (6) 
0.24

>  <cluster>  (6) 
1

$$$$

     RDKit          3D

 48 51  0  0  0  0  0  0  0  0999 V2000
  138.5490   71.4020  220.7470 O   0  0  0  0  0  0  0  0  0  0  0  0
  138.5960   71.9280  221.9050 C   0  0  0  0  0  0  0  0  0  0  0  0
  138.2690   73.3170  222.0910 N   0  0  0  0  0  0  0  0  0  0  0  0
  137.8790   74.1400  220.9620 C   0  0  0  0  0  0  0  0  0  0  0  0
  138.8420   75.2530  220.7410 C   0  0  0  0  0  0  0  0  0  0  0  0
  138.4540   76.3980  221.0820 O   0  0  0  0  0  0  0  0  0  0  0  0
  140.0890   74.9430  220.1780 N   0  0  0  0  0  0  0  0  0  0  0  0
  140.4050   73.7650  219.3290 C   0  0  0  0  0  0  0  0  0  0  0  0
  141.6980   73.3120  219.9870 C   0  0  0  0  0  0  0  0  0  0  0  0
  142.1870   74.4820  220.8560 C   0  0  0  0  0  0  0  0  0  0  0  0
  141.3840   75.6120  220.2490 C   0  0  2  0  0  0  0  0  0  0  0  0
  141.4300   76.8380  221.0230 C   0  0  0  0  0  0  0  0  0  0  0  0
  141.8140   78.0560  220.4680 C   0  0  0  0  0  0  0  0  0  0  0  0
  141.8400   79.2270  221.1800 C   0  0  0  0  0  0  0  0  0  0  0  0
  141.4800   79.2380  222.4940 C   0  0  0  0  0  0  0  0  0  0  0  0
  141.5270   80.8900  223.4570 Br  0  0  0  0  0  0  0  0  0  0  0  0
  141.0930   78.0580  223.0860 C   0  0  0  0  0  0  0  0  0  0  0  0
  141.0700   76.8670  222.3520 C   0  0  0  0  0  0  0  0  0  0  0  0
  138.9800   71.1450  223.0710 C   0  0  0  0  0  0  0  0  0  0  0  0
  138.6470   69.8040  223.1240 C   0  0  0  0  0  0  0  0  0  0  0  0
  138.9680   68.9880  224.1850 C   0  0  0  0  0  0  0  0  0  0  0  0
  139.6580   69.5660  225.2310 C   0  0  0  0  0  0  0  0  0  0  0  0
  139.9870   68.7650  226.3000 C   0  0  0  0  0  0  0  0  0  0  0  0
  140.6750   69.3150  227.3620 C   0  0  0  0  0  0  0  0  0  0  0  0
  141.0910   68.2840  228.7210 Cl  0  0  0  0  0  0  0  0  0  0  0  0
  141.0180   70.6570  227.3270 C   0  0  0  0  0  0  0  0  0  0  0  0
  140.6740   71.4580  226.2320 C   0  0  0  0  0  0  0  0  0  0  0  0
  139.9900   70.9040  225.1790 C   0  0  0  0  0  0  0  0  0  0  0  0
  139.6550   71.6790  224.1140 N   0  0  0  0  0  0  0  0  0  0  0  0
  138.3240   73.7040  223.0780 H   0  0  0  0  0  0  0  0  0  0  0  0
  137.8429   73.5137  220.0585 H   0  0  0  0  0  0  0  0  0  0  0  0
  136.8916   74.5749  221.1762 H   0  0  0  0  0  0  0  0  0  0  0  0
  139.6225   72.9943  219.3909 H   0  0  0  0  0  0  0  0  0  0  0  0
  140.4794   73.9742  218.2516 H   0  0  0  0  0  0  0  0  0  0  0  0
  141.5144   72.4262  220.6128 H   0  0  0  0  0  0  0  0  0  0  0  0
  142.4505   73.0389  219.2326 H   0  0  0  0  0  0  0  0  0  0  0  0
  141.9428   74.3319  221.9180 H   0  0  0  0  0  0  0  0  0  0  0  0
  143.2762   74.6354  220.8570 H   0  0  0  0  0  0  0  0  0  0  0  0
  141.7380   76.0040  219.2841 H   0  0  0  0  0  0  0  0  0  0  0  0
  142.1103   78.0795  219.4089 H   0  0  0  0  0  0  0  0  0  0  0  0
  142.1524   80.1605  220.6891 H   0  0  0  0  0  0  0  0  0  0  0  0
  140.7990   78.0508  224.1460 H   0  0  0  0  0  0  0  0  0  0  0  0
  140.7581   75.9352  222.8464 H   0  0  0  0  0  0  0  0  0  0  0  0
  138.0984   69.3677  222.2762 H   0  0  0  0  0  0  0  0  0  0  0  0
  138.6875   67.9244  224.1985 H   0  0  0  0  0  0  0  0  0  0  0  0
  139.7057   67.7016  226.3080 H   0  0  0  0  0  0  0  0  0  0  0  0
  141.5680   71.0987  228.1710 H   0  0  0  0  0  0  0  0  0  0  0  0
  140.9496   72.5228  226.2155 H   0  0  0  0  0  0  0  0  0  0  0  0
  1  2  2  0
  2  3  1  0
  3  4  1  0
  4  5  1  0
  5  6  2  0
  5  7  1  0
  7  8  1  0
  8  9  1  0
  9 10  1  0
 10 11  1  0
 11 12  1  0
 12 13  2  0
 13 14  1  0
 14 15  2  0
 15 16  1  0
 15 17  1  0
 17 18  2  0
  2 19  1  0
 19 20  2  0
 20 21  1  0
 21 22  2  0
 22 23  1  0
 23 24  2  0
 24 25  1  0
 24 26  1  0
 26 27  2  0
 27 28  1  0
 28 29  2  0
 11  7  1  0
 18 12  1  0
 29 19  1  0
 28 22  1  0
  3 30  1  0
  4 31  1  0
  4 32  1  0
  8 33  1  0
  8 34  1  0
  9 35  1  0
  9 36  1  0
 10 37  1  0
 10 38  1  0
 11 39  1  6
 13 40  1  0
 14 41  1  0
 17 42  1  0
 18 43  1  0
 20 44  1  0
 21 45  1  0
 23 46  1  0
 26 47  1  0
 27 48  1  0
M  END
>  <smiles>  (7) 
O=C(NCC(=O)N1CCCC1c1ccc(Br)cc1)c1ccc2cc(Cl)ccc2n1

>  <score_type>  (7) 
oracle

>  <origin>  (7) 
autodockgpu

>  <m_score__min__energy>  (7) 
-8.4399999999999995

>  <m_primary>  (7) 
energy

>  <rmsd>  (7) 
1.951100552528915

>  <m_score__min__rmsd>  (7) 
1.951100552528915

>  <meeko>  (7) 
{"free_energy": -8.38, "intermolecular_energy": -9.87, "internal_energy": -1.75, "cluster_size": 29, "cluster_id": 1, "rank_in_cluster": 4}

>  <energy>  (7) 
-8.33

>  <cluster_rmsd>  (7) 
1.61

>  <cluster>  (7) 
1

$$$$

     RDKit          3D

 48 51  0  0  0  0  0  0  0  0999 V2000
  138.9210   70.9030  221.1570 O   0  0  0  0  0  0  0  0  0  0  0  0
  138.9530   71.6380  222.1960 C   0  0  0  0  0  0  0  0  0  0  0  0
  138.4600   72.9890  222.1510 N   0  0  0  0  0  0  0  0  0  0  0  0
  137.9180   73.5350  220.9220 C   0  0  0  0  0  0  0  0  0  0  0  0
  138.8040   74.5880  220.3550 C   0  0  0  0  0  0  0  0  0  0  0  0
  138.3220   75.7460  220.2940 O   0  0  0  0  0  0  0  0  0  0  0  0
  140.0900   74.2100  219.9400 N   0  0  0  0  0  0  0  0  0  0  0  0
  140.4540   72.9660  219.2150 C   0  0  0  0  0  0  0  0  0  0  0  0
  141.6650   72.5380  220.0260 C   0  0  0  0  0  0  0  0  0  0  0  0
  142.1000   73.7590  220.8510 C   0  0  0  0  0  0  0  0  0  0  0  0
  141.3910   74.8570  220.0880 C   0  0  2  0  0  0  0  0  0  0  0  0
  141.3960   76.1360  220.7720 C   0  0  0  0  0  0  0  0  0  0  0  0
  141.0140   76.2700  222.1050 C   0  0  0  0  0  0  0  0  0  0  0  0
  141.0370   77.4670  222.7720 C   0  0  0  0  0  0  0  0  0  0  0  0
  141.4460   78.5990  222.1340 C   0  0  0  0  0  0  0  0  0  0  0  0
  141.4650   80.2520  223.0970 Br  0  0  0  0  0  0  0  0  0  0  0  0
  141.8340   78.5160  220.8170 C   0  0  0  0  0  0  0  0  0  0  0  0
  141.8070   77.2910  220.1430 C   0  0  0  0  0  0  0  0  0  0  0  0
  139.4870   71.1370  223.4540 C   0  0  0  0  0  0  0  0  0  0  0  0
  140.4030   71.9010  224.1520 C   0  0  0  0  0  0  0  0  0  0  0  0
  140.9600   71.5080  225.3480 C   0  0  0  0  0  0  0  0  0  0  0  0
  140.5640   70.2840  225.8490 C   0  0  0  0  0  0  0  0  0  0  0  0
  141.1100   69.8740  227.0430 C   0  0  0  0  0  0  0  0  0  0  0  0
  140.7350   68.6550  227.5680 C   0  0  0  0  0  0  0  0  0  0  0  0
  141.4380   68.1420  229.0930 Cl  0  0  0  0  0  0  0  0  0  0  0  0
  139.8180   67.8740  226.8830 C   0  0  0  0  0  0  0  0  0  0  0  0
  139.2720   68.3060  225.6690 C   0  0  0  0  0  0  0  0  0  0  0  0
  139.6500   69.5200  225.1520 C   0  0  0  0  0  0  0  0  0  0  0  0
  139.1220   69.9420  223.9730 N   0  0  0  0  0  0  0  0  0  0  0  0
  138.5100   73.5570  223.0470 H   0  0  0  0  0  0  0  0  0  0  0  0
  137.8115   72.7236  220.1869 H   0  0  0  0  0  0  0  0  0  0  0  0
  136.9422   73.9899  221.1475 H   0  0  0  0  0  0  0  0  0  0  0  0
  139.6487   72.2178  219.2567 H   0  0  0  0  0  0  0  0  0  0  0  0
  140.6369   73.0923  218.1377 H   0  0  0  0  0  0  0  0  0  0  0  0
  141.3988   71.7052  220.6935 H   0  0  0  0  0  0  0  0  0  0  0  0
  142.4784   72.1945  219.3699 H   0  0  0  0  0  0  0  0  0  0  0  0
  141.7506   73.6939  221.8920 H   0  0  0  0  0  0  0  0  0  0  0  0
  143.1880   73.8896  220.9474 H   0  0  0  0  0  0  0  0  0  0  0  0
  141.8467   75.1689  219.1367 H   0  0  0  0  0  0  0  0  0  0  0  0
  140.6784   75.3737  222.6472 H   0  0  0  0  0  0  0  0  0  0  0  0
  140.7243   77.5138  223.8256 H   0  0  0  0  0  0  0  0  0  0  0  0
  142.1685   79.4213  220.2892 H   0  0  0  0  0  0  0  0  0  0  0  0
  142.1202   77.2486  219.0894 H   0  0  0  0  0  0  0  0  0  0  0  0
  140.7021   72.8721  223.7306 H   0  0  0  0  0  0  0  0  0  0  0  0
  141.6867   72.1398  225.8797 H   0  0  0  0  0  0  0  0  0  0  0  0
  141.8356   70.5095  227.5718 H   0  0  0  0  0  0  0  0  0  0  0  0
  139.5152   66.9017  227.2989 H   0  0  0  0  0  0  0  0  0  0  0  0
  138.5455   67.6774  225.1332 H   0  0  0  0  0  0  0  0  0  0  0  0
  1  2  2  0
  2  3  1  0
  3  4  1  0
  4  5  1  0
  5  6  2  0
  5  7  1  0
  7  8  1  0
  8  9  1  0
  9 10  1  0
 10 11  1  0
 11 12  1  0
 12 13  2  0
 13 14  1  0
 14 15  2  0
 15 16  1  0
 15 17  1  0
 17 18  2  0
  2 19  1  0
 19 20  2  0
 20 21  1  0
 21 22  2  0
 22 23  1  0
 23 24  2  0
 24 25  1  0
 24 26  1  0
 26 27  2  0
 27 28  1  0
 28 29  2  0
 11  7  1  0
 18 12  1  0
 29 19  1  0
 28 22  1  0
  3 30  1  0
  4 31  1  0
  4 32  1  0
  8 33  1  0
  8 34  1  0
  9 35  1  0
  9 36  1  0
 10 37  1  0
 10 38  1  0
 11 39  1  6
 13 40  1  0
 14 41  1  0
 17 42  1  0
 18 43  1  0
 20 44  1  0
 21 45  1  0
 23 46  1  0
 26 47  1  0
 27 48  1  0
M  END
>  <smiles>  (8) 
O=C(NCC(=O)N1CCCC1c1ccc(Br)cc1)c1ccc2cc(Cl)ccc2n1

>  <score_type>  (8) 
oracle

>  <origin>  (8) 
autodockgpu

>  <m_score__min__energy>  (8) 
-8.4399999999999995

>  <m_primary>  (8) 
energy

>  <rmsd>  (8) 
3.081044138498095

>  <m_score__min__rmsd>  (8) 
3.081044138498095

>  <meeko>  (8) 
{"free_energy": -8.2, "intermolecular_energy": -9.7, "internal_energy": -1.79, "cluster_size": 29, "cluster_id": 1, "rank_in_cluster": 10}

>  <energy>  (8) 
-8.31

>  <cluster_rmsd>  (8) 
0.42

>  <cluster>  (8) 
1

$$$$

     RDKit          3D

 48 51  0  0  0  0  0  0  0  0999 V2000
  137.4620   71.3320  221.1250 O   0  0  0  0  0  0  0  0  0  0  0  0
  138.0980   71.8690  222.0870 C   0  0  0  0  0  0  0  0  0  0  0  0
  138.3860   73.2790  222.0760 N   0  0  0  0  0  0  0  0  0  0  0  0
  137.9560   74.1110  220.9690 C   0  0  0  0  0  0  0  0  0  0  0  0
  138.7740   73.8620  219.7510 C   0  0  0  0  0  0  0  0  0  0  0  0
  138.2680   74.2250  218.6590 O   0  0  0  0  0  0  0  0  0  0  0  0
  140.0270   73.2530  219.9130 N   0  0  0  0  0  0  0  0  0  0  0  0
  140.3670   71.8400  219.6080 C   0  0  0  0  0  0  0  0  0  0  0  0
  141.1320   71.4790  220.8710 C   0  0  0  0  0  0  0  0  0  0  0  0
  141.4910   72.8020  221.5650 C   0  0  0  0  0  0  0  0  0  0  0  0
  141.3020   73.7630  220.4110 C   0  0  2  0  0  0  0  0  0  0  0  0
  141.3220   75.1580  220.8070 C   0  0  0  0  0  0  0  0  0  0  0  0
  140.7090   75.6110  221.9730 C   0  0  0  0  0  0  0  0  0  0  0  0
  140.7400   76.9210  222.3740 C   0  0  0  0  0  0  0  0  0  0  0  0
  141.3920   77.8520  221.6230 C   0  0  0  0  0  0  0  0  0  0  0  0
  141.4150   79.6710  222.2130 Br  0  0  0  0  0  0  0  0  0  0  0  0
  142.0140   77.4520  220.4630 C   0  0  0  0  0  0  0  0  0  0  0  0
  141.9770   76.1130  220.0610 C   0  0  0  0  0  0  0  0  0  0  0  0
  138.5510   71.0780  223.2230 C   0  0  0  0  0  0  0  0  0  0  0  0
  138.1120   69.7740  223.3560 C   0  0  0  0  0  0  0  0  0  0  0  0
  138.4870   68.9530  224.3960 C   0  0  0  0  0  0  0  0  0  0  0  0
  139.3460   69.4880  225.3350 C   0  0  0  0  0  0  0  0  0  0  0  0
  139.7310   68.6830  226.3810 C   0  0  0  0  0  0  0  0  0  0  0  0
  140.5880   69.1890  227.3360 C   0  0  0  0  0  0  0  0  0  0  0  0
  141.0740   68.1520  228.6670 Cl  0  0  0  0  0  0  0  0  0  0  0  0
  141.0390   70.4940  227.2200 C   0  0  0  0  0  0  0  0  0  0  0  0
  140.6360   71.3000  226.1490 C   0  0  0  0  0  0  0  0  0  0  0  0
  139.7840   70.7900  225.2030 C   0  0  0  0  0  0  0  0  0  0  0  0
  139.3910   71.5710  224.1620 N   0  0  0  0  0  0  0  0  0  0  0  0
  138.9190   73.6750  222.9060 H   0  0  0  0  0  0  0  0  0  0  0  0
  136.9023   73.8897  220.7435 H   0  0  0  0  0  0  0  0  0  0  0  0
  138.0808   75.1645  221.2597 H   0  0  0  0  0  0  0  0  0  0  0  0
  139.4667   71.2203  219.4840 H   0  0  0  0  0  0  0  0  0  0  0  0
  140.9200   71.6869  218.6695 H   0  0  0  0  0  0  0  0  0  0  0  0
  140.5039   70.8631  221.5314 H   0  0  0  0  0  0  0  0  0  0  0  0
  142.0363   70.8996  220.6331 H   0  0  0  0  0  0  0  0  0  0  0  0
  140.8079   73.0247  222.3979 H   0  0  0  0  0  0  0  0  0  0  0  0
  142.4876   72.8261  222.0299 H   0  0  0  0  0  0  0  0  0  0  0  0
  142.1009   73.7871  219.6552 H   0  0  0  0  0  0  0  0  0  0  0  0
  140.1750   74.8830  222.6013 H   0  0  0  0  0  0  0  0  0  0  0  0
  140.2370   77.2217  223.3049 H   0  0  0  0  0  0  0  0  0  0  0  0
  142.5452   78.1919  219.8462 H   0  0  0  0  0  0  0  0  0  0  0  0
  142.4815   75.8162  219.1296 H   0  0  0  0  0  0  0  0  0  0  0  0
  137.4291   69.3721  222.5930 H   0  0  0  0  0  0  0  0  0  0  0  0
  138.1193   67.9193  224.4749 H   0  0  0  0  0  0  0  0  0  0  0  0
  139.3608   67.6498  226.4552 H   0  0  0  0  0  0  0  0  0  0  0  0
  141.7225   70.9018  227.9793 H   0  0  0  0  0  0  0  0  0  0  0  0
  140.9999   72.3348  226.0667 H   0  0  0  0  0  0  0  0  0  0  0  0
  1  2  2  0
  2  3  1  0
  3  4  1  0
  4  5  1  0
  5  6  2  0
  5  7  1  0
  7  8  1  0
  8  9  1  0
  9 10  1  0
 10 11  1  0
 11 12  1  0
 12 13  2  0
 13 14  1  0
 14 15  2  0
 15 16  1  0
 15 17  1  0
 17 18  2  0
  2 19  1  0
 19 20  2  0
 20 21  1  0
 21 22  2  0
 22 23  1  0
 23 24  2  0
 24 25  1  0
 24 26  1  0
 26 27  2  0
 27 28  1  0
 28 29  2  0
 11  7  1  0
 18 12  1  0
 29 19  1  0
 28 22  1  0
  3 30  1  0
  4 31  1  0
  4 32  1  0
  8 33  1  0
  8 34  1  0
  9 35  1  0
  9 36  1  0
 10 37  1  0
 10 38  1  0
 11 39  1  6
 13 40  1  0
 14 41  1  0
 17 42  1  0
 18 43  1  0
 20 44  1  0
 21 45  1  0
 23 46  1  0
 26 47  1  0
 27 48  1  0
M  END
>  <smiles>  (9) 
O=C(NCC(=O)N1CCCC1c1ccc(Br)cc1)c1ccc2cc(Cl)ccc2n1

>  <score_type>  (9) 
oracle

>  <origin>  (9) 
autodockgpu

>  <m_score__min__energy>  (9) 
-8.4399999999999995

>  <m_primary>  (9) 
energy

>  <rmsd>  (9) 
2.8280568373173063

>  <m_score__min__rmsd>  (9) 
2.8280568373173063

>  <meeko>  (9) 
{"free_energy": -7.57, "intermolecular_energy": -9.06, "internal_energy": -2.33, "cluster_size": 29, "cluster_id": 1, "rank_in_cluster": 22}

>  <energy>  (9) 
-8.31

>  <cluster_rmsd>  (9) 
1.65

>  <cluster>  (9) 
1

$$$$

     RDKit          3D

 48 51  0  0  0  0  0  0  0  0999 V2000
  140.3060   72.0180  220.5050 O   0  0  0  0  0  0  0  0  0  0  0  0
  139.9420   72.4830  221.6330 C   0  0  0  0  0  0  0  0  0  0  0  0
  139.4990   73.8470  221.7530 N   0  0  0  0  0  0  0  0  0  0  0  0
  139.4600   74.7140  220.5920 C   0  0  0  0  0  0  0  0  0  0  0  0
  138.2690   75.6060  220.6170 C   0  0  0  0  0  0  0  0  0  0  0  0
  138.0030   76.2070  219.5470 O   0  0  0  0  0  0  0  0  0  0  0  0
  137.5470   75.7040  221.8160 N   0  0  0  0  0  0  0  0  0  0  0  0
  136.3510   74.9070  222.1930 C   0  0  0  0  0  0  0  0  0  0  0  0
  135.4550   76.0170  222.7150 C   0  0  0  0  0  0  0  0  0  0  0  0
  136.3550   77.2390  222.9550 C   0  0  0  0  0  0  0  0  0  0  0  0
  137.7100   76.5640  222.9840 C   0  0  2  0  0  0  0  0  0  0  0  0
  138.8220   77.4940  222.9450 C   0  0  0  0  0  0  0  0  0  0  0  0
  140.1300   77.0820  222.6970 C   0  0  0  0  0  0  0  0  0  0  0  0
  141.1870   77.9510  222.6330 C   0  0  0  0  0  0  0  0  0  0  0  0
  140.9900   79.2860  222.8160 C   0  0  0  0  0  0  0  0  0  0  0  0
  142.4890   80.4700  222.7200 Br  0  0  0  0  0  0  0  0  0  0  0  0
  139.7150   79.7410  223.0640 C   0  0  0  0  0  0  0  0  0  0  0  0
  138.6410   78.8470  223.1280 C   0  0  0  0  0  0  0  0  0  0  0  0
  139.9620   71.6520  222.8280 C   0  0  0  0  0  0  0  0  0  0  0  0
  139.4150   70.3840  222.7800 C   0  0  0  0  0  0  0  0  0  0  0  0
  139.3890   69.5310  223.8600 C   0  0  0  0  0  0  0  0  0  0  0  0
  139.9460   69.9930  225.0350 C   0  0  0  0  0  0  0  0  0  0  0  0
  139.9290   69.1550  226.1250 C   0  0  0  0  0  0  0  0  0  0  0  0
  140.4770   69.5900  227.3140 C   0  0  0  0  0  0  0  0  0  0  0  0
  140.4500   68.5110  228.6990 Cl  0  0  0  0  0  0  0  0  0  0  0  0
  141.0300   70.8580  227.3820 C   0  0  0  0  0  0  0  0  0  0  0  0
  141.0380   71.6990  226.2640 C   0  0  0  0  0  0  0  0  0  0  0  0
  140.4920   71.2600  225.0840 C   0  0  0  0  0  0  0  0  0  0  0  0
  140.4990   72.0750  223.9970 N   0  0  0  0  0  0  0  0  0  0  0  0
  139.2060   74.1810  222.7180 H   0  0  0  0  0  0  0  0  0  0  0  0
  140.3695   75.3325  220.5771 H   0  0  0  0  0  0  0  0  0  0  0  0
  139.4002   74.0837  219.6925 H   0  0  0  0  0  0  0  0  0  0  0  0
  135.9080   74.3981  221.3242 H   0  0  0  0  0  0  0  0  0  0  0  0
  136.5417   74.0897  222.9040 H   0  0  0  0  0  0  0  0  0  0  0  0
  134.6794   76.2579  221.9731 H   0  0  0  0  0  0  0  0  0  0  0  0
  134.9486   75.7118  223.6426 H   0  0  0  0  0  0  0  0  0  0  0  0
  136.2797   77.9690  222.1356 H   0  0  0  0  0  0  0  0  0  0  0  0
  136.1101   77.8264  223.8522 H   0  0  0  0  0  0  0  0  0  0  0  0
  137.9710   76.0221  223.9050 H   0  0  0  0  0  0  0  0  0  0  0  0
  140.3225   76.0096  222.5457 H   0  0  0  0  0  0  0  0  0  0  0  0
  142.1989   77.5689  222.4330 H   0  0  0  0  0  0  0  0  0  0  0  0
  139.5390   80.8165  223.2131 H   0  0  0  0  0  0  0  0  0  0  0  0
  137.6306   79.2327  223.3287 H   0  0  0  0  0  0  0  0  0  0  0  0
  138.9784   70.0390  221.8311 H   0  0  0  0  0  0  0  0  0  0  0  0
  138.9447   68.5272  223.7897 H   0  0  0  0  0  0  0  0  0  0  0  0
  139.4846   68.1516  226.0500 H   0  0  0  0  0  0  0  0  0  0  0  0
  141.4688   71.2086  228.3278 H   0  0  0  0  0  0  0  0  0  0  0  0
  141.4787   72.7047  226.3303 H   0  0  0  0  0  0  0  0  0  0  0  0
  1  2  2  0
  2  3  1  0
  3  4  1  0
  4  5  1  0
  5  6  2  0
  5  7  1  0
  7  8  1  0
  8  9  1  0
  9 10  1  0
 10 11  1  0
 11 12  1  0
 12 13  2  0
 13 14  1  0
 14 15  2  0
 15 16  1  0
 15 17  1  0
 17 18  2  0
  2 19  1  0
 19 20  2  0
 20 21  1  0
 21 22  2  0
 22 23  1  0
 23 24  2  0
 24 25  1  0
 24 26  1  0
 26 27  2  0
 27 28  1  0
 28 29  2  0
 11  7  1  0
 18 12  1  0
 29 19  1  0
 28 22  1  0
  3 30  1  0
  4 31  1  0
  4 32  1  0
  8 33  1  0
  8 34  1  0
  9 35  1  0
  9 36  1  0
 10 37  1  0
 10 38  1  0
 11 39  1  1
 13 40  1  0
 14 41  1  0
 17 42  1  0
 18 43  1  0
 20 44  1  0
 21 45  1  0
 23 46  1  0
 26 47  1  0
 27 48  1  0
M  END
>  <smiles>  (10) 
O=C(NCC(=O)N1CCCC1c1ccc(Br)cc1)c1ccc2cc(Cl)ccc2n1

>  <score_type>  (10) 
oracle

>  <origin>  (10) 
autodockgpu

>  <m_score__min__energy>  (10) 
-8.4399999999999995

>  <m_primary>  (10) 
energy

>  <rmsd>  (10) 
3.447038380979214

>  <m_score__min__rmsd>  (10) 
3.447038380979214

>  <meeko>  (10) 
{"free_energy": -8.33, "intermolecular_energy": -9.82, "internal_energy": -1.58, "cluster_size": 29, "cluster_id": 1, "rank_in_cluster": 7}

>  <energy>  (10) 
-8.2

>  <cluster_rmsd>  (10) 
0.95

>  <cluster>  (10) 
1

$$$$

     RDKit          3D

 48 51  0  0  0  0  0  0  0  0999 V2000
  137.2980   71.2780  221.2520 O   0  0  0  0  0  0  0  0  0  0  0  0
  138.0140   71.8090  222.1610 C   0  0  0  0  0  0  0  0  0  0  0  0
  138.3680   73.2020  222.0920 N   0  0  0  0  0  0  0  0  0  0  0  0
  137.9140   74.0240  220.9870 C   0  0  0  0  0  0  0  0  0  0  0  0
  138.7660   73.8350  219.7810 C   0  0  0  0  0  0  0  0  0  0  0  0
  138.2890   74.2460  218.6940 O   0  0  0  0  0  0  0  0  0  0  0  0
  140.0180   73.2240  219.9500 N   0  0  0  0  0  0  0  0  0  0  0  0
  140.3540   71.8070  219.6550 C   0  0  0  0  0  0  0  0  0  0  0  0
  141.1160   71.4540  220.9210 C   0  0  0  0  0  0  0  0  0  0  0  0
  141.4780   72.7810  221.6070 C   0  0  0  0  0  0  0  0  0  0  0  0
  141.2930   73.7340  220.4460 C   0  0  2  0  0  0  0  0  0  0  0  0
  141.3170   75.1310  220.8330 C   0  0  0  0  0  0  0  0  0  0  0  0
  140.6930   75.5960  221.9880 C   0  0  0  0  0  0  0  0  0  0  0  0
  140.7270   76.9080  222.3800 C   0  0  0  0  0  0  0  0  0  0  0  0
  141.3910   77.8300  221.6300 C   0  0  0  0  0  0  0  0  0  0  0  0
  141.4180   79.6540  222.2080 Br  0  0  0  0  0  0  0  0  0  0  0  0
  142.0240   77.4190  220.4800 C   0  0  0  0  0  0  0  0  0  0  0  0
  141.9840   76.0770  220.0860 C   0  0  0  0  0  0  0  0  0  0  0  0
  138.4940   71.0270  223.2910 C   0  0  0  0  0  0  0  0  0  0  0  0
  138.0770   69.7170  223.4320 C   0  0  0  0  0  0  0  0  0  0  0  0
  138.4790   68.9040  224.4680 C   0  0  0  0  0  0  0  0  0  0  0  0
  139.3400   69.4530  225.3960 C   0  0  0  0  0  0  0  0  0  0  0  0
  139.7520   68.6560  226.4380 C   0  0  0  0  0  0  0  0  0  0  0  0
  140.6130   69.1780  227.3810 C   0  0  0  0  0  0  0  0  0  0  0  0
  141.1320   68.1510  228.7080 Cl  0  0  0  0  0  0  0  0  0  0  0  0
  141.0420   70.4890  227.2570 C   0  0  0  0  0  0  0  0  0  0  0  0
  140.6120   71.2880  226.1910 C   0  0  0  0  0  0  0  0  0  0  0  0
  139.7560   70.7620  225.2560 C   0  0  0  0  0  0  0  0  0  0  0  0
  139.3380   71.5340  224.2190 N   0  0  0  0  0  0  0  0  0  0  0  0
  138.9660   73.5930  222.8780 H   0  0  0  0  0  0  0  0  0  0  0  0
  136.8780   73.7496  220.7394 H   0  0  0  0  0  0  0  0  0  0  0  0
  137.9771   75.0788  221.2926 H   0  0  0  0  0  0  0  0  0  0  0  0
  139.4520   71.1891  219.5345 H   0  0  0  0  0  0  0  0  0  0  0  0
  140.9072   71.6449  218.7181 H   0  0  0  0  0  0  0  0  0  0  0  0
  140.4854   70.8444  221.5848 H   0  0  0  0  0  0  0  0  0  0  0  0
  142.0194   70.8712  220.6880 H   0  0  0  0  0  0  0  0  0  0  0  0
  140.7945   73.0113  222.4375 H   0  0  0  0  0  0  0  0  0  0  0  0
  142.4740   72.8056  222.0733 H   0  0  0  0  0  0  0  0  0  0  0  0
  142.0922   73.7508  219.6904 H   0  0  0  0  0  0  0  0  0  0  0  0
  140.1471   74.8757  222.6150 H   0  0  0  0  0  0  0  0  0  0  0  0
  140.2162   77.2177  223.3037 H   0  0  0  0  0  0  0  0  0  0  0  0
  142.5665   78.1519  219.8646 H   0  0  0  0  0  0  0  0  0  0  0  0
  142.4953   75.7712  219.1613 H   0  0  0  0  0  0  0  0  0  0  0  0
  137.3898   69.3033  222.6793 H   0  0  0  0  0  0  0  0  0  0  0  0
  138.1297   67.8643  224.5520 H   0  0  0  0  0  0  0  0  0  0  0  0
  139.4000   67.6169  226.5185 H   0  0  0  0  0  0  0  0  0  0  0  0
  141.7298   70.9080  228.0062 H   0  0  0  0  0  0  0  0  0  0  0  0
  140.9573   72.3287  226.1035 H   0  0  0  0  0  0  0  0  0  0  0  0
  1  2  2  0
  2  3  1  0
  3  4  1  0
  4  5  1  0
  5  6  2  0
  5  7  1  0
  7  8  1  0
  8  9  1  0
  9 10  1  0
 10 11  1  0
 11 12  1  0
 12 13  2  0
 13 14  1  0
 14 15  2  0
 15 16  1  0
 15 17  1  0
 17 18  2  0
  2 19  1  0
 19 20  2  0
 20 21  1  0
 21 22  2  0
 22 23  1  0
 23 24  2  0
 24 25  1  0
 24 26  1  0
 26 27  2  0
 27 28  1  0
 28 29  2  0
 11  7  1  0
 18 12  1  0
 29 19  1  0
 28 22  1  0
  3 30  1  0
  4 31  1  0
  4 32  1  0
  8 33  1  0
  8 34  1  0
  9 35  1  0
  9 36  1  0
 10 37  1  0
 10 38  1  0
 11 39  1  6
 13 40  1  0
 14 41  1  0
 17 42  1  0
 18 43  1  0
 20 44  1  0
 21 45  1  0
 23 46  1  0
 26 47  1  0
 27 48  1  0
M  END
>  <smiles>  (11) 
O=C(NCC(=O)N1CCCC1c1ccc(Br)cc1)c1ccc2cc(Cl)ccc2n1

>  <score_type>  (11) 
oracle

>  <origin>  (11) 
autodockgpu

>  <m_score__min__energy>  (11) 
-8.4399999999999995

>  <m_primary>  (11) 
energy

>  <rmsd>  (11) 
2.845280192468021

>  <m_score__min__rmsd>  (11) 
2.845280192468021

>  <meeko>  (11) 
{"free_energy": -7.53, "intermolecular_energy": -9.02, "internal_energy": -2.36, "cluster_size": 29, "cluster_id": 1, "rank_in_cluster": 27}

>  <energy>  (11) 
-8.2

>  <cluster_rmsd>  (11) 
1.99

>  <cluster>  (11) 
1

$$$$

     RDKit          3D

 48 51  0  0  0  0  0  0  0  0999 V2000
  135.2940   68.5960  224.9740 O   0  0  0  0  0  0  0  0  0  0  0  0
  135.3210   69.7950  224.5470 C   0  0  0  0  0  0  0  0  0  0  0  0
  136.0590   70.1310  223.3590 N   0  0  0  0  0  0  0  0  0  0  0  0
  136.7830   69.1100  222.6270 C   0  0  0  0  0  0  0  0  0  0  0  0
  138.2410   69.4050  222.5770 C   0  0  0  0  0  0  0  0  0  0  0  0
  139.0030   68.4170  222.4290 O   0  0  0  0  0  0  0  0  0  0  0  0
  138.6450   70.7430  222.6960 N   0  0  0  0  0  0  0  0  0  0  0  0
  138.4180   71.8260  221.7050 C   0  0  0  0  0  0  0  0  0  0  0  0
  139.8050   72.4420  221.6710 C   0  0  0  0  0  0  0  0  0  0  0  0
  140.5510   71.9250  222.9120 C   0  0  0  0  0  0  0  0  0  0  0  0
  139.3780   71.4500  223.7430 C   0  0  2  0  0  0  0  0  0  0  0  0
  139.7660   70.6630  224.8970 C   0  0  0  0  0  0  0  0  0  0  0  0
  141.0210   70.7770  225.4900 C   0  0  0  0  0  0  0  0  0  0  0  0
  141.3940   70.0590  226.5950 C   0  0  0  0  0  0  0  0  0  0  0  0
  140.5230   69.1810  227.1680 C   0  0  0  0  0  0  0  0  0  0  0  0
  141.0780   68.1950  228.7100 Br  0  0  0  0  0  0  0  0  0  0  0  0
  139.2710   69.0340  226.6180 C   0  0  0  0  0  0  0  0  0  0  0  0
  138.8980   69.7720  225.4890 C   0  0  0  0  0  0  0  0  0  0  0  0
  134.6100   70.8570  225.2450 C   0  0  0  0  0  0  0  0  0  0  0  0
  133.6730   70.5260  226.2050 C   0  0  0  0  0  0  0  0  0  0  0  0
  132.9540   71.4620  226.9140 C   0  0  0  0  0  0  0  0  0  0  0  0
  133.2030   72.7880  226.6280 C   0  0  0  0  0  0  0  0  0  0  0  0
  132.4940   73.7380  227.3260 C   0  0  0  0  0  0  0  0  0  0  0  0
  132.7210   75.0720  227.0620 C   0  0  0  0  0  0  0  0  0  0  0  0
  131.8100   76.2760  227.9590 Cl  0  0  0  0  0  0  0  0  0  0  0  0
  133.6570   75.4250  226.1030 C   0  0  0  0  0  0  0  0  0  0  0  0
  134.3690   74.4460  225.4010 C   0  0  0  0  0  0  0  0  0  0  0  0
  134.1380   73.1200  225.6690 C   0  0  0  0  0  0  0  0  0  0  0  0
  134.8290   72.1680  224.9890 N   0  0  0  0  0  0  0  0  0  0  0  0
  136.0470   71.1470  223.0470 H   0  0  0  0  0  0  0  0  0  0  0  0
  136.6315   68.1397  223.1225 H   0  0  0  0  0  0  0  0  0  0  0  0
  136.3999   69.0874  221.5961 H   0  0  0  0  0  0  0  0  0  0  0  0
  138.1238   71.4267  220.7232 H   0  0  0  0  0  0  0  0  0  0  0  0
  137.6057   72.5237  221.9569 H   0  0  0  0  0  0  0  0  0  0  0  0
  140.3334   72.1351  220.7563 H   0  0  0  0  0  0  0  0  0  0  0  0
  139.7492   73.5406  221.6731 H   0  0  0  0  0  0  0  0  0  0  0  0
  141.2357   71.1008  222.6631 H   0  0  0  0  0  0  0  0  0  0  0  0
  141.1995   72.6643  223.4049 H   0  0  0  0  0  0  0  0  0  0  0  0
  138.7896   72.2262  224.2542 H   0  0  0  0  0  0  0  0  0  0  0  0
  141.7469   71.4767  225.0501 H   0  0  0  0  0  0  0  0  0  0  0  0
  142.3994   70.1913  227.0213 H   0  0  0  0  0  0  0  0  0  0  0  0
  138.5565   68.3300  227.0696 H   0  0  0  0  0  0  0  0  0  0  0  0
  137.8915   69.6380  225.0658 H   0  0  0  0  0  0  0  0  0  0  0  0
  133.4924   69.4611  226.4133 H   0  0  0  0  0  0  0  0  0  0  0  0
  132.2152   71.1659  227.6733 H   0  0  0  0  0  0  0  0  0  0  0  0
  131.7561   73.4374  228.0844 H   0  0  0  0  0  0  0  0  0  0  0  0
  133.8426   76.4883  225.8909 H   0  0  0  0  0  0  0  0  0  0  0  0
  135.1082   74.7370  224.6402 H   0  0  0  0  0  0  0  0  0  0  0  0
  1  2  2  0
  2  3  1  0
  3  4  1  0
  4  5  1  0
  5  6  2  0
  5  7  1  0
  7  8  1  0
  8  9  1  0
  9 10  1  0
 10 11  1  0
 11 12  1  0
 12 13  2  0
 13 14  1  0
 14 15  2  0
 15 16  1  0
 15 17  1  0
 17 18  2  0
  2 19  1  0
 19 20  2  0
 20 21  1  0
 21 22  2  0
 22 23  1  0
 23 24  2  0
 24 25  1  0
 24 26  1  0
 26 27  2  0
 27 28  1  0
 28 29  2  0
 11  7  1  0
 18 12  1  0
 29 19  1  0
 28 22  1  0
  3 30  1  0
  4 31  1  0
  4 32  1  0
  8 33  1  0
  8 34  1  0
  9 35  1  0
  9 36  1  0
 10 37  1  0
 10 38  1  0
 11 39  1  1
 13 40  1  0
 14 41  1  0
 17 42  1  0
 18 43  1  0
 20 44  1  0
 21 45  1  0
 23 46  1  0
 26 47  1  0
 27 48  1  0
M  END
>  <smiles>  (12) 
O=C(NCC(=O)N1CCCC1c1ccc(Br)cc1)c1ccc2cc(Cl)ccc2n1

>  <score_type>  (12) 
oracle

>  <origin>  (12) 
autodockgpu

>  <m_score__min__energy>  (12) 
-8.4399999999999995

>  <m_primary>  (12) 
energy

>  <rmsd>  (12) 
6.684216124973011

>  <m_score__min__rmsd>  (12) 
6.684216124973011

>  <meeko>  (12) 
{"free_energy": -7.76, "intermolecular_energy": -9.25, "internal_energy": -1.92, "cluster_size": 9, "cluster_id": 2, "rank_in_cluster": 9}

>  <energy>  (12) 
-8.18

>  <cluster_rmsd>  (12) 
0.38

>  <cluster>  (12) 
1

$$$$

     RDKit          3D

 48 51  0  0  0  0  0  0  0  0999 V2000
  140.0230   78.2230  218.7720 O   0  0  0  0  0  0  0  0  0  0  0  0
  141.2110   78.0660  219.2010 C   0  0  0  0  0  0  0  0  0  0  0  0
  141.9280   79.1660  219.7880 N   0  0  0  0  0  0  0  0  0  0  0  0
  141.3090   80.4730  219.9010 C   0  0  0  0  0  0  0  0  0  0  0  0
  140.3560   80.5280  221.0420 C   0  0  0  0  0  0  0  0  0  0  0  0
  139.1500   80.7250  220.7500 O   0  0  0  0  0  0  0  0  0  0  0  0
  140.8690   80.3580  222.3370 N   0  0  0  0  0  0  0  0  0  0  0  0
  141.5500   81.3910  223.1590 C   0  0  0  0  0  0  0  0  0  0  0  0
  142.7430   80.5880  223.6480 C   0  0  0  0  0  0  0  0  0  0  0  0
  142.4160   79.1080  223.3950 C   0  0  0  0  0  0  0  0  0  0  0  0
  140.9150   79.1980  223.2230 C   0  0  2  0  0  0  0  0  0  0  0  0
  140.3150   77.9800  222.7140 C   0  0  0  0  0  0  0  0  0  0  0  0
  141.0680   76.8440  222.4210 C   0  0  0  0  0  0  0  0  0  0  0  0
  140.5140   75.6780  221.9620 C   0  0  0  0  0  0  0  0  0  0  0  0
  139.1680   75.5870  221.7720 C   0  0  0  0  0  0  0  0  0  0  0  0
  138.4280   73.9430  221.1320 Br  0  0  0  0  0  0  0  0  0  0  0  0
  138.3830   76.6830  222.0490 C   0  0  0  0  0  0  0  0  0  0  0  0
  138.9570   77.8700  222.5160 C   0  0  0  0  0  0  0  0  0  0  0  0
  141.8770   76.7740  219.1120 C   0  0  0  0  0  0  0  0  0  0  0  0
  141.3770   75.8140  218.2520 C   0  0  0  0  0  0  0  0  0  0  0  0
  141.9410   74.5670  218.1020 C   0  0  0  0  0  0  0  0  0  0  0  0
  143.0590   74.2910  218.8630 C   0  0  0  0  0  0  0  0  0  0  0  0
  143.6350   73.0500  218.7270 C   0  0  0  0  0  0  0  0  0  0  0  0
  144.7530   72.7460  219.4750 C   0  0  0  0  0  0  0  0  0  0  0  0
  145.4810   71.1580  219.2940 Cl  0  0  0  0  0  0  0  0  0  0  0  0
  145.2690   73.6940  220.3430 C   0  0  0  0  0  0  0  0  0  0  0  0
  144.6700   74.9530  220.4700 C   0  0  0  0  0  0  0  0  0  0  0  0
  143.5580   75.2490  219.7220 C   0  0  0  0  0  0  0  0  0  0  0  0
  142.9740   76.4700  219.8430 N   0  0  0  0  0  0  0  0  0  0  0  0
  142.9160   78.9790  220.1310 H   0  0  0  0  0  0  0  0  0  0  0  0
  142.0940   81.2282  220.0542 H   0  0  0  0  0  0  0  0  0  0  0  0
  140.7501   80.6715  218.9746 H   0  0  0  0  0  0  0  0  0  0  0  0
  141.8595   82.2562  222.5543 H   0  0  0  0  0  0  0  0  0  0  0  0
  140.9318   81.8356  223.9528 H   0  0  0  0  0  0  0  0  0  0  0  0
  143.6472   80.8764  223.0919 H   0  0  0  0  0  0  0  0  0  0  0  0
  142.9326   80.7733  224.7156 H   0  0  0  0  0  0  0  0  0  0  0  0
  142.9093   78.7300  222.4874 H   0  0  0  0  0  0  0  0  0  0  0  0
  142.7522   78.4174  224.1824 H   0  0  0  0  0  0  0  0  0  0  0  0
  140.3204   79.3124  224.1414 H   0  0  0  0  0  0  0  0  0  0  0  0
  142.1577   76.8857  222.5650 H   0  0  0  0  0  0  0  0  0  0  0  0
  141.1580   74.8127  221.7462 H   0  0  0  0  0  0  0  0  0  0  0  0
  137.2944   76.6250  221.9018 H   0  0  0  0  0  0  0  0  0  0  0  0
  138.3099   78.7335  222.7295 H   0  0  0  0  0  0  0  0  0  0  0  0
  140.4841   76.0586  217.6580 H   0  0  0  0  0  0  0  0  0  0  0  0
  141.5200   73.8249  217.4077 H   0  0  0  0  0  0  0  0  0  0  0  0
  143.2104   72.3107  218.0320 H   0  0  0  0  0  0  0  0  0  0  0  0
  146.1611   73.4546  220.9404 H   0  0  0  0  0  0  0  0  0  0  0  0
  145.0869   75.6984  221.1632 H   0  0  0  0  0  0  0  0  0  0  0  0
  1  2  2  0
  2  3  1  0
  3  4  1  0
  4  5  1  0
  5  6  2  0
  5  7  1  0
  7  8  1  0
  8  9  1  0
  9 10  1  0
 10 11  1  0
 11 12  1  0
 12 13  2  0
 13 14  1  0
 14 15  2  0
 15 16  1  0
 15 17  1  0
 17 18  2  0
  2 19  1  0
 19 20  2  0
 20 21  1  0
 21 22  2  0
 22 23  1  0
 23 24  2  0
 24 25  1  0
 24 26  1  0
 26 27  2  0
 27 28  1  0
 28 29  2  0
 11  7  1  0
 18 12  1  0
 29 19  1  0
 28 22  1  0
  3 30  1  0
  4 31  1  0
  4 32  1  0
  8 33  1  0
  8 34  1  0
  9 35  1  0
  9 36  1  0
 10 37  1  0
 10 38  1  0
 11 39  1  1
 13 40  1  0
 14 41  1  0
 17 42  1  0
 18 43  1  0
 20 44  1  0
 21 45  1  0
 23 46  1  0
 26 47  1  0
 27 48  1  0
M  END
>  <smiles>  (13) 
O=C(NCC(=O)N1CCCC1c1ccc(Br)cc1)c1ccc2cc(Cl)ccc2n1

>  <score_type>  (13) 
oracle

>  <origin>  (13) 
autodockgpu

>  <m_score__min__energy>  (13) 
-8.4399999999999995

>  <m_primary>  (13) 
energy

>  <rmsd>  (13) 
7.942611660974844

>  <m_score__min__rmsd>  (13) 
7.942611660974844

>  <meeko>  (13) 
{"free_energy": -6.7, "intermolecular_energy": -8.19, "internal_energy": -3.09, "cluster_size": 1, "cluster_id": 6, "rank_in_cluster": 1}

>  <energy>  (13) 
-8.16

>  <cluster_rmsd>  (13) 
0.55

>  <cluster>  (13) 
1

$$$$

     RDKit          3D

 48 51  0  0  0  0  0  0  0  0999 V2000
  137.2580   71.8370  220.9030 O   0  0  0  0  0  0  0  0  0  0  0  0
  137.3510   72.5860  221.9280 C   0  0  0  0  0  0  0  0  0  0  0  0
  136.5340   72.3440  223.0880 N   0  0  0  0  0  0  0  0  0  0  0  0
  135.5920   71.2420  223.1080 C   0  0  0  0  0  0  0  0  0  0  0  0
  136.2330   69.9850  223.5820 C   0  0  0  0  0  0  0  0  0  0  0  0
  135.8330   69.5400  224.6870 O   0  0  0  0  0  0  0  0  0  0  0  0
  137.2190   69.4030  222.7710 N   0  0  0  0  0  0  0  0  0  0  0  0
  136.9960   68.6800  221.4920 C   0  0  0  0  0  0  0  0  0  0  0  0
  137.8730   67.4620  221.7280 C   0  0  0  0  0  0  0  0  0  0  0  0
  138.7980   67.8020  222.9070 C   0  0  0  0  0  0  0  0  0  0  0  0
  138.6690   69.3100  222.9140 C   0  0  2  0  0  0  0  0  0  0  0  0
  139.2380   69.9350  224.0920 C   0  0  0  0  0  0  0  0  0  0  0  0
  139.0840   69.3990  225.3690 C   0  0  0  0  0  0  0  0  0  0  0  0
  139.6350   69.9640  226.4890 C   0  0  0  0  0  0  0  0  0  0  0  0
  140.3740   71.1040  226.3880 C   0  0  0  0  0  0  0  0  0  0  0  0
  141.1290   71.8660  227.9720 Br  0  0  0  0  0  0  0  0  0  0  0  0
  140.5550   71.6710  225.1470 C   0  0  0  0  0  0  0  0  0  0  0  0
  139.9880   71.0880  224.0090 C   0  0  0  0  0  0  0  0  0  0  0  0
  138.2820   73.7050  221.9580 C   0  0  0  0  0  0  0  0  0  0  0  0
  139.6010   73.4970  221.6020 C   0  0  0  0  0  0  0  0  0  0  0  0
  140.5500   74.4950  221.6010 C   0  0  0  0  0  0  0  0  0  0  0  0
  140.1330   75.7540  221.9790 C   0  0  0  0  0  0  0  0  0  0  0  0
  141.0670   76.7640  221.9850 C   0  0  0  0  0  0  0  0  0  0  0  0
  140.6790   78.0330  222.3590 C   0  0  0  0  0  0  0  0  0  0  0  0
  141.8800   79.3150  222.3620 Cl  0  0  0  0  0  0  0  0  0  0  0  0
  139.3610   78.2630  222.7190 C   0  0  0  0  0  0  0  0  0  0  0  0
  138.4230   77.2240  222.7090 C   0  0  0  0  0  0  0  0  0  0  0  0
  138.8160   75.9630  222.3360 C   0  0  0  0  0  0  0  0  0  0  0  0
  137.9070   74.9530  222.3240 N   0  0  0  0  0  0  0  0  0  0  0  0
  136.6540   72.9990  223.9150 H   0  0  0  0  0  0  0  0  0  0  0  0
  134.7601   71.4951  223.7817 H   0  0  0  0  0  0  0  0  0  0  0  0
  135.2296   71.0791  222.0823 H   0  0  0  0  0  0  0  0  0  0  0  0
  135.9399   68.4038  221.3569 H   0  0  0  0  0  0  0  0  0  0  0  0
  137.2325   69.2552  220.5847 H   0  0  0  0  0  0  0  0  0  0  0  0
  137.2505   66.5893  221.9747 H   0  0  0  0  0  0  0  0  0  0  0  0
  138.4554   67.2149  220.8281 H   0  0  0  0  0  0  0  0  0  0  0  0
  138.4412   67.3572  223.8476 H   0  0  0  0  0  0  0  0  0  0  0  0
  139.8271   67.4249  222.8129 H   0  0  0  0  0  0  0  0  0  0  0  0
  139.2301   69.8560  222.1413 H   0  0  0  0  0  0  0  0  0  0  0  0
  138.4921   68.4789  225.4833 H   0  0  0  0  0  0  0  0  0  0  0  0
  139.4803   69.4959  227.4723 H   0  0  0  0  0  0  0  0  0  0  0  0
  141.1507   72.5906  225.0493 H   0  0  0  0  0  0  0  0  0  0  0  0
  140.1440   71.5596  223.0276 H   0  0  0  0  0  0  0  0  0  0  0  0
  139.9083   72.4835  221.3046 H   0  0  0  0  0  0  0  0  0  0  0  0
  141.5927   74.2970  221.3120 H   0  0  0  0  0  0  0  0  0  0  0  0
  142.1088   76.5619  221.6955 H   0  0  0  0  0  0  0  0  0  0  0  0
  139.0478   79.2747  223.0164 H   0  0  0  0  0  0  0  0  0  0  0  0
  137.3792   77.4167  222.9978 H   0  0  0  0  0  0  0  0  0  0  0  0
  1  2  2  0
  2  3  1  0
  3  4  1  0
  4  5  1  0
  5  6  2  0
  5  7  1  0
  7  8  1  0
  8  9  1  0
  9 10  1  0
 10 11  1  0
 11 12  1  0
 12 13  2  0
 13 14  1  0
 14 15  2  0
 15 16  1  0
 15 17  1  0
 17 18  2  0
  2 19  1  0
 19 20  2  0
 20 21  1  0
 21 22  2  0
 22 23  1  0
 23 24  2  0
 24 25  1  0
 24 26  1  0
 26 27  2  0
 27 28  1  0
 28 29  2  0
 11  7  1  0
 18 12  1  0
 29 19  1  0
 28 22  1  0
  3 30  1  0
  4 31  1  0
  4 32  1  0
  8 33  1  0
  8 34  1  0
  9 35  1  0
  9 36  1  0
 10 37  1  0
 10 38  1  0
 11 39  1  6
 13 40  1  0
 14 41  1  0
 17 42  1  0
 18 43  1  0
 20 44  1  0
 21 45  1  0
 23 46  1  0
 26 47  1  0
 27 48  1  0
M  END
>  <smiles>  (14) 
O=C(NCC(=O)N1CCCC1c1ccc(Br)cc1)c1ccc2cc(Cl)ccc2n1

>  <score_type>  (14) 
oracle

>  <origin>  (14) 
autodockgpu

>  <m_score__min__energy>  (14) 
-8.4399999999999995

>  <m_primary>  (14) 
energy

>  <rmsd>  (14) 
7.539681864206587

>  <m_score__min__rmsd>  (14) 
7.539681864206587

>  <meeko>  (14) 
{"free_energy": -7.64, "intermolecular_energy": -9.13, "internal_energy": -2.25, "cluster_size": 2, "cluster_id": 5, "rank_in_cluster": 2}

>  <energy>  (14) 
-8.02

>  <cluster_rmsd>  (14) 
0.72

>  <cluster>  (14) 
1

$$$$

     RDKit          3D

 48 51  0  0  0  0  0  0  0  0999 V2000
  134.2060   69.7700  226.3090 O   0  0  0  0  0  0  0  0  0  0  0  0
  134.3260   70.9010  225.7390 C   0  0  0  0  0  0  0  0  0  0  0  0
  135.1180   71.0380  224.5460 N   0  0  0  0  0  0  0  0  0  0  0  0
  135.7920   69.8890  223.9730 C   0  0  0  0  0  0  0  0  0  0  0  0
  136.7180   70.2890  222.8790 C   0  0  0  0  0  0  0  0  0  0  0  0
  136.6020   71.4660  222.4560 O   0  0  0  0  0  0  0  0  0  0  0  0
  137.6360   69.3350  222.4130 N   0  0  0  0  0  0  0  0  0  0  0  0
  137.4650   68.4500  221.2320 C   0  0  0  0  0  0  0  0  0  0  0  0
  137.9030   67.1270  221.8360 C   0  0  0  0  0  0  0  0  0  0  0  0
  138.6450   67.4580  223.1400 C   0  0  0  0  0  0  0  0  0  0  0  0
  138.9470   68.9220  222.9050 C   0  0  2  0  0  0  0  0  0  0  0  0
  139.4350   69.6110  224.0840 C   0  0  0  0  0  0  0  0  0  0  0  0
  139.2890   69.0880  225.3670 C   0  0  0  0  0  0  0  0  0  0  0  0
  139.7650   69.7140  226.4880 C   0  0  0  0  0  0  0  0  0  0  0  0
  140.4170   70.9060  226.3830 C   0  0  0  0  0  0  0  0  0  0  0  0
  141.0690   71.7520  227.9700 Br  0  0  0  0  0  0  0  0  0  0  0  0
  140.5860   71.4620  225.1360 C   0  0  0  0  0  0  0  0  0  0  0  0
  140.0960   70.8160  223.9960 C   0  0  0  0  0  0  0  0  0  0  0  0
  133.6690   72.0850  226.2740 C   0  0  0  0  0  0  0  0  0  0  0  0
  132.5320   71.9370  227.0460 C   0  0  0  0  0  0  0  0  0  0  0  0
  131.8460   72.9980  227.5920 C   0  0  0  0  0  0  0  0  0  0  0  0
  132.3430   74.2600  227.3380 C   0  0  0  0  0  0  0  0  0  0  0  0
  131.6700   75.3330  227.8750 C   0  0  0  0  0  0  0  0  0  0  0  0
  132.1430   76.6070  227.6380 C   0  0  0  0  0  0  0  0  0  0  0  0
  131.2760   77.9690  228.3290 Cl  0  0  0  0  0  0  0  0  0  0  0  0
  133.2810   76.7770  226.8670 C   0  0  0  0  0  0  0  0  0  0  0  0
  133.9530   75.6740  226.3270 C   0  0  0  0  0  0  0  0  0  0  0  0
  133.4780   74.4090  226.5670 C   0  0  0  0  0  0  0  0  0  0  0  0
  134.1290   73.3370  226.0440 N   0  0  0  0  0  0  0  0  0  0  0  0
  135.1840   72.0050  224.1110 H   0  0  0  0  0  0  0  0  0  0  0  0
  136.3681   69.3827  224.7615 H   0  0  0  0  0  0  0  0  0  0  0  0
  135.0300   69.2169  223.5515 H   0  0  0  0  0  0  0  0  0  0  0  0
  136.4193   68.4185  220.8922 H   0  0  0  0  0  0  0  0  0  0  0  0
  138.0208   68.7588  220.3344 H   0  0  0  0  0  0  0  0  0  0  0  0
  137.0254   66.4989  222.0487 H   0  0  0  0  0  0  0  0  0  0  0  0
  138.5522   66.5723  221.1425 H   0  0  0  0  0  0  0  0  0  0  0  0
  138.0056   67.3095  224.0227 H   0  0  0  0  0  0  0  0  0  0  0  0
  139.5247   66.8302  223.3451 H   0  0  0  0  0  0  0  0  0  0  0  0
  139.7753   69.1500  222.2179 H   0  0  0  0  0  0  0  0  0  0  0  0
  138.7668   68.1271  225.4851 H   0  0  0  0  0  0  0  0  0  0  0  0
  139.6206   69.2532  227.4764 H   0  0  0  0  0  0  0  0  0  0  0  0
  141.1112   72.4232  225.0344 H   0  0  0  0  0  0  0  0  0  0  0  0
  140.2416   71.2799  223.0093 H   0  0  0  0  0  0  0  0  0  0  0  0
  132.1566   70.9202  227.2334 H   0  0  0  0  0  0  0  0  0  0  0  0
  130.9435   72.8470  228.2025 H   0  0  0  0  0  0  0  0  0  0  0  0
  130.7677   75.1773  228.4846 H   0  0  0  0  0  0  0  0  0  0  0  0
  133.6615   77.7914  226.6766 H   0  0  0  0  0  0  0  0  0  0  0  0
  134.8551   75.8202  225.7148 H   0  0  0  0  0  0  0  0  0  0  0  0
  1  2  2  0
  2  3  1  0
  3  4  1  0
  4  5  1  0
  5  6  2  0
  5  7  1  0
  7  8  1  0
  8  9  1  0
  9 10  1  0
 10 11  1  0
 11 12  1  0
 12 13  2  0
 13 14  1  0
 14 15  2  0
 15 16  1  0
 15 17  1  0
 17 18  2  0
  2 19  1  0
 19 20  2  0
 20 21  1  0
 21 22  2  0
 22 23  1  0
 23 24  2  0
 24 25  1  0
 24 26  1  0
 26 27  2  0
 27 28  1  0
 28 29  2  0
 11  7  1  0
 18 12  1  0
 29 19  1  0
 28 22  1  0
  3 30  1  0
  4 31  1  0
  4 32  1  0
  8 33  1  0
  8 34  1  0
  9 35  1  0
  9 36  1  0
 10 37  1  0
 10 38  1  0
 11 39  1  6
 13 40  1  0
 14 41  1  0
 17 42  1  0
 18 43  1  0
 20 44  1  0
 21 45  1  0
 23 46  1  0
 26 47  1  0
 27 48  1  0
M  END
>  <smiles>  (15) 
O=C(NCC(=O)N1CCCC1c1ccc(Br)cc1)c1ccc2cc(Cl)ccc2n1

>  <score_type>  (15) 
oracle

>  <origin>  (15) 
autodockgpu

>  <m_score__min__energy>  (15) 
-8.4399999999999995

>  <m_primary>  (15) 
energy

>  <rmsd>  (15) 
8.45686947118538

>  <m_score__min__rmsd>  (15) 
8.45686947118538

>  <meeko>  (15) 
{"free_energy": -8.06, "intermolecular_energy": -9.55, "internal_energy": -2.11, "cluster_size": 9, "cluster_id": 2, "rank_in_cluster": 5}

>  <energy>  (15) 
-7.99

>  <cluster_rmsd>  (15) 
1.48

>  <cluster>  (15) 
1

$$$$

     RDKit          3D

 48 51  0  0  0  0  0  0  0  0999 V2000
  136.9920   71.2180  221.3550 O   0  0  0  0  0  0  0  0  0  0  0  0
  137.6340   71.7940  222.2910 C   0  0  0  0  0  0  0  0  0  0  0  0
  137.8490   73.2170  222.2630 N   0  0  0  0  0  0  0  0  0  0  0  0
  137.3360   74.0180  221.1680 C   0  0  0  0  0  0  0  0  0  0  0  0
  138.4090   74.3640  220.1970 C   0  0  0  0  0  0  0  0  0  0  0  0
  138.1250   75.2430  219.3450 O   0  0  0  0  0  0  0  0  0  0  0  0
  139.6370   73.6940  220.3070 N   0  0  0  0  0  0  0  0  0  0  0  0
  139.8930   72.2650  219.9920 C   0  0  0  0  0  0  0  0  0  0  0  0
  140.6930   71.8680  221.2210 C   0  0  0  0  0  0  0  0  0  0  0  0
  141.1470   73.1720  221.8960 C   0  0  0  0  0  0  0  0  0  0  0  0
  140.9550   74.1400  220.7480 C   0  0  2  0  0  0  0  0  0  0  0  0
  141.0620   75.5330  221.1390 C   0  0  0  0  0  0  0  0  0  0  0  0
  140.5220   76.0160  222.3290 C   0  0  0  0  0  0  0  0  0  0  0  0
  140.6350   77.3230  222.7250 C   0  0  0  0  0  0  0  0  0  0  0  0
  141.2990   78.2200  221.9440 C   0  0  0  0  0  0  0  0  0  0  0  0
  141.4380   80.0370  222.5270 Br  0  0  0  0  0  0  0  0  0  0  0  0
  141.8500   77.7900  220.7590 C   0  0  0  0  0  0  0  0  0  0  0  0
  141.7300   76.4530  220.3630 C   0  0  0  0  0  0  0  0  0  0  0  0
  138.1680   71.0350  223.4130 C   0  0  0  0  0  0  0  0  0  0  0  0
  137.6740   69.7690  223.6690 C   0  0  0  0  0  0  0  0  0  0  0  0
  138.1190   68.9800  224.7060 C   0  0  0  0  0  0  0  0  0  0  0  0
  139.1070   69.5070  225.5120 C   0  0  0  0  0  0  0  0  0  0  0  0
  139.5640   68.7340  226.5540 C   0  0  0  0  0  0  0  0  0  0  0  0
  140.5500   69.2340  227.3770 C   0  0  0  0  0  0  0  0  0  0  0  0
  141.1250   68.2380  228.7040 Cl  0  0  0  0  0  0  0  0  0  0  0  0
  141.0580   70.5000  227.1370 C   0  0  0  0  0  0  0  0  0  0  0  0
  140.5810   71.2750  226.0730 C   0  0  0  0  0  0  0  0  0  0  0  0
  139.6000   70.7710  225.2580 C   0  0  0  0  0  0  0  0  0  0  0  0
  139.1360   71.5210  224.2240 N   0  0  0  0  0  0  0  0  0  0  0  0
  138.3900   73.6450  223.0700 H   0  0  0  0  0  0  0  0  0  0  0  0
  136.5514   73.4501  220.6465 H   0  0  0  0  0  0  0  0  0  0  0  0
  136.9317   74.9528  221.5836 H   0  0  0  0  0  0  0  0  0  0  0  0
  138.9585   71.6907  219.9092 H   0  0  0  0  0  0  0  0  0  0  0  0
  140.3964   72.0836  219.0309 H   0  0  0  0  0  0  0  0  0  0  0  0
  140.0645   71.2841  221.9095 H   0  0  0  0  0  0  0  0  0  0  0  0
  141.5566   71.2450  220.9453 H   0  0  0  0  0  0  0  0  0  0  0  0
  140.5127   73.4286  222.7573 H   0  0  0  0  0  0  0  0  0  0  0  0
  142.1627   73.1473  222.3175 H   0  0  0  0  0  0  0  0  0  0  0  0
  141.7199   74.1235  219.9577 H   0  0  0  0  0  0  0  0  0  0  0  0
  139.9797   75.3155  222.9811 H   0  0  0  0  0  0  0  0  0  0  0  0
  140.1883   77.6486  223.6760 H   0  0  0  0  0  0  0  0  0  0  0  0
  142.3892   78.5027  220.1177 H   0  0  0  0  0  0  0  0  0  0  0  0
  142.1788   76.1307  219.4119 H   0  0  0  0  0  0  0  0  0  0  0  0
  136.8863   69.3725  223.0115 H   0  0  0  0  0  0  0  0  0  0  0  0
  137.7060   67.9761  224.8836 H   0  0  0  0  0  0  0  0  0  0  0  0
  139.1482   67.7306  226.7280 H   0  0  0  0  0  0  0  0  0  0  0  0
  141.8463   70.9017  227.7907 H   0  0  0  0  0  0  0  0  0  0  0  0
  140.9898   72.2801  225.8922 H   0  0  0  0  0  0  0  0  0  0  0  0
  1  2  2  0
  2  3  1  0
  3  4  1  0
  4  5  1  0
  5  6  2  0
  5  7  1  0
  7  8  1  0
  8  9  1  0
  9 10  1  0
 10 11  1  0
 11 12  1  0
 12 13  2  0
 13 14  1  0
 14 15  2  0
 15 16  1  0
 15 17  1  0
 17 18  2  0
  2 19  1  0
 19 20  2  0
 20 21  1  0
 21 22  2  0
 22 23  1  0
 23 24  2  0
 24 25  1  0
 24 26  1  0
 26 27  2  0
 27 28  1  0
 28 29  2  0
 11  7  1  0
 18 12  1  0
 29 19  1  0
 28 22  1  0
  3 30  1  0
  4 31  1  0
  4 32  1  0
  8 33  1  0
  8 34  1  0
  9 35  1  0
  9 36  1  0
 10 37  1  0
 10 38  1  0
 11 39  1  6
 13 40  1  0
 14 41  1  0
 17 42  1  0
 18 43  1  0
 20 44  1  0
 21 45  1  0
 23 46  1  0
 26 47  1  0
 27 48  1  0
M  END
>  <smiles>  (16) 
O=C(NCC(=O)N1CCCC1c1ccc(Br)cc1)c1ccc2cc(Cl)ccc2n1

>  <score_type>  (16) 
oracle

>  <origin>  (16) 
autodockgpu

>  <m_score__min__energy>  (16) 
-8.4399999999999995

>  <m_primary>  (16) 
energy

>  <rmsd>  (16) 
2.760500837026152

>  <m_score__min__rmsd>  (16) 
2.760500837026152

>  <meeko>  (16) 
{"free_energy": -7.63, "intermolecular_energy": -9.13, "internal_energy": -2.23, "cluster_size": 29, "cluster_id": 1, "rank_in_cluster": 19}

>  <energy>  (16) 
-7.94

>  <cluster_rmsd>  (16) 
0.8

>  <cluster>  (16) 
1

$$$$

     RDKit          3D

 48 51  0  0  0  0  0  0  0  0999 V2000
  139.7710   72.0930  220.7380 O   0  0  0  0  0  0  0  0  0  0  0  0
  139.7440   72.5280  221.9340 C   0  0  0  0  0  0  0  0  0  0  0  0
  139.5910   73.9340  222.1970 N   0  0  0  0  0  0  0  0  0  0  0  0
  139.4620   74.8780  221.1040 C   0  0  0  0  0  0  0  0  0  0  0  0
  139.7820   76.2650  221.5400 C   0  0  0  0  0  0  0  0  0  0  0  0
  139.6790   76.4970  222.7700 O   0  0  0  0  0  0  0  0  0  0  0  0
  140.1680   77.1900  220.5590 N   0  0  0  0  0  0  0  0  0  0  0  0
  140.8370   76.8810  219.2690 C   0  0  0  0  0  0  0  0  0  0  0  0
  141.9310   77.9350  219.2860 C   0  0  0  0  0  0  0  0  0  0  0  0
  141.5360   78.9690  220.3530 C   0  0  0  0  0  0  0  0  0  0  0  0
  140.0640   78.6450  220.4970 C   0  0  2  0  0  0  0  0  0  0  0  0
  139.4370   79.2920  221.6330 C   0  0  0  0  0  0  0  0  0  0  0  0
  138.0550   79.4390  221.7390 C   0  0  0  0  0  0  0  0  0  0  0  0
  137.4460   80.0250  222.8170 C   0  0  0  0  0  0  0  0  0  0  0  0
  138.1940   80.4990  223.8520 C   0  0  0  0  0  0  0  0  0  0  0  0
  137.3100   81.3120  225.3410 Br  0  0  0  0  0  0  0  0  0  0  0  0
  139.5630   80.3760  223.7940 C   0  0  0  0  0  0  0  0  0  0  0  0
  140.1770   79.7760  222.6890 C   0  0  0  0  0  0  0  0  0  0  0  0
  139.8690   71.6210  223.0660 C   0  0  0  0  0  0  0  0  0  0  0  0
  139.4750   70.3040  222.9240 C   0  0  0  0  0  0  0  0  0  0  0  0
  139.5560   69.3770  223.9380 C   0  0  0  0  0  0  0  0  0  0  0  0
  140.0600   69.8150  225.1460 C   0  0  0  0  0  0  0  0  0  0  0  0
  140.1480   68.9030  226.1720 C   0  0  0  0  0  0  0  0  0  0  0  0
  140.6460   69.3130  227.3910 C   0  0  0  0  0  0  0  0  0  0  0  0
  140.7550   68.1400  228.6940 Cl  0  0  0  0  0  0  0  0  0  0  0  0
  141.0460   70.6290  227.5540 C   0  0  0  0  0  0  0  0  0  0  0  0
  140.9490   71.5450  226.5000 C   0  0  0  0  0  0  0  0  0  0  0  0
  140.4520   71.1310  225.2900 C   0  0  0  0  0  0  0  0  0  0  0  0
  140.3570   72.0180  224.2640 N   0  0  0  0  0  0  0  0  0  0  0  0
  139.5740   74.2420  223.2130 H   0  0  0  0  0  0  0  0  0  0  0  0
  140.1526   74.5884  220.2983 H   0  0  0  0  0  0  0  0  0  0  0  0
  138.4198   74.8586  220.7526 H   0  0  0  0  0  0  0  0  0  0  0  0
  141.2509   75.8619  219.2567 H   0  0  0  0  0  0  0  0  0  0  0  0
  140.1805   76.9060  218.3867 H   0  0  0  0  0  0  0  0  0  0  0  0
  142.8962   77.4747  219.5439 H   0  0  0  0  0  0  0  0  0  0  0  0
  142.0382   78.4082  218.2988 H   0  0  0  0  0  0  0  0  0  0  0  0
  142.0827   78.8136  221.2948 H   0  0  0  0  0  0  0  0  0  0  0  0
  141.7580   80.0141  220.0914 H   0  0  0  0  0  0  0  0  0  0  0  0
  139.3987   79.0112  219.7012 H   0  0  0  0  0  0  0  0  0  0  0  0
  137.4238   79.0670  220.9185 H   0  0  0  0  0  0  0  0  0  0  0  0
  136.3499   80.1130  222.8469 H   0  0  0  0  0  0  0  0  0  0  0  0
  140.1801   80.7524  224.6232 H   0  0  0  0  0  0  0  0  0  0  0  0
  141.2733   79.6891  222.6632 H   0  0  0  0  0  0  0  0  0  0  0  0
  139.0765   69.9802  221.9512 H   0  0  0  0  0  0  0  0  0  0  0  0
  139.2340   68.3353  223.7925 H   0  0  0  0  0  0  0  0  0  0  0  0
  139.8259   67.8619  226.0224 H   0  0  0  0  0  0  0  0  0  0  0  0
  141.4452   70.9587  228.5246 H   0  0  0  0  0  0  0  0  0  0  0  0
  141.2686   72.5881  226.6406 H   0  0  0  0  0  0  0  0  0  0  0  0
  1  2  2  0
  2  3  1  0
  3  4  1  0
  4  5  1  0
  5  6  2  0
  5  7  1  0
  7  8  1  0
  8  9  1  0
  9 10  1  0
 10 11  1  0
 11 12  1  0
 12 13  2  0
 13 14  1  0
 14 15  2  0
 15 16  1  0
 15 17  1  0
 17 18  2  0
  2 19  1  0
 19 20  2  0
 20 21  1  0
 21 22  2  0
 22 23  1  0
 23 24  2  0
 24 25  1  0
 24 26  1  0
 26 27  2  0
 27 28  1  0
 28 29  2  0
 11  7  1  0
 18 12  1  0
 29 19  1  0
 28 22  1  0
  3 30  1  0
  4 31  1  0
  4 32  1  0
  8 33  1  0
  8 34  1  0
  9 35  1  0
  9 36  1  0
 10 37  1  0
 10 38  1  0
 11 39  1  6
 13 40  1  0
 14 41  1  0
 17 42  1  0
 18 43  1  0
 20 44  1  0
 21 45  1  0
 23 46  1  0
 26 47  1  0
 27 48  1  0
M  END
>  <smiles>  (17) 
O=C(NCC(=O)N1CCCC1c1ccc(Br)cc1)c1ccc2cc(Cl)ccc2n1

>  <score_type>  (17) 
oracle

>  <origin>  (17) 
autodockgpu

>  <m_score__min__energy>  (17) 
-8.4399999999999995

>  <m_primary>  (17) 
energy

>  <rmsd>  (17) 
2.0167410533571126

>  <m_score__min__rmsd>  (17) 
2.0167410533571126

>  <meeko>  (17) 
{"free_energy": -8.11, "intermolecular_energy": -9.6, "internal_energy": -1.93, "cluster_size": 1, "cluster_id": 3, "rank_in_cluster": 1}

>  <energy>  (17) 
-7.9

>  <cluster_rmsd>  (17) 
0.89

>  <cluster>  (17) 
1

$$$$

     RDKit          3D

 48 51  0  0  0  0  0  0  0  0999 V2000
  134.0890   69.8130  226.2490 O   0  0  0  0  0  0  0  0  0  0  0  0
  134.3160   70.9630  225.7520 C   0  0  0  0  0  0  0  0  0  0  0  0
  135.2310   71.1160  224.6520 N   0  0  0  0  0  0  0  0  0  0  0  0
  135.9090   69.9630  224.0920 C   0  0  0  0  0  0  0  0  0  0  0  0
  136.7610   70.3420  222.9320 C   0  0  0  0  0  0  0  0  0  0  0  0
  136.6010   71.5030  222.4810 O   0  0  0  0  0  0  0  0  0  0  0  0
  137.6640   69.3870  222.4400 N   0  0  0  0  0  0  0  0  0  0  0  0
  137.4760   68.5310  221.2410 C   0  0  0  0  0  0  0  0  0  0  0  0
  137.9000   67.1890  221.8120 C   0  0  0  0  0  0  0  0  0  0  0  0
  138.6530   67.4810  223.1200 C   0  0  0  0  0  0  0  0  0  0  0  0
  138.9720   68.9470  222.9160 C   0  0  2  0  0  0  0  0  0  0  0  0
  139.4740   69.6020  224.1080 C   0  0  0  0  0  0  0  0  0  0  0  0
  140.0420   70.8740  224.0760 C   0  0  0  0  0  0  0  0  0  0  0  0
  140.4990   71.5170  225.1970 C   0  0  0  0  0  0  0  0  0  0  0  0
  140.4110   70.9150  226.4160 C   0  0  0  0  0  0  0  0  0  0  0  0
  141.0590   71.8420  227.9580 Br  0  0  0  0  0  0  0  0  0  0  0  0
  139.8570   69.6580  226.4970 C   0  0  0  0  0  0  0  0  0  0  0  0
  139.3930   69.0090  225.3480 C   0  0  0  0  0  0  0  0  0  0  0  0
  133.6600   72.1510  226.2780 C   0  0  0  0  0  0  0  0  0  0  0  0
  132.5110   72.0110  227.0340 C   0  0  0  0  0  0  0  0  0  0  0  0
  131.8250   73.0770  227.5710 C   0  0  0  0  0  0  0  0  0  0  0  0
  132.3350   74.3360  227.3250 C   0  0  0  0  0  0  0  0  0  0  0  0
  131.6630   75.4130  227.8530 C   0  0  0  0  0  0  0  0  0  0  0  0
  132.1480   76.6830  227.6230 C   0  0  0  0  0  0  0  0  0  0  0  0
  131.2810   78.0520  228.3020 Cl  0  0  0  0  0  0  0  0  0  0  0  0
  133.2980   76.8450  226.8680 C   0  0  0  0  0  0  0  0  0  0  0  0
  133.9690   75.7380  226.3370 C   0  0  0  0  0  0  0  0  0  0  0  0
  133.4810   74.4770  226.5700 C   0  0  0  0  0  0  0  0  0  0  0  0
  134.1320   73.4000  226.0560 N   0  0  0  0  0  0  0  0  0  0  0  0
  135.3830   72.0980  224.2760 H   0  0  0  0  0  0  0  0  0  0  0  0
  136.5429   69.5092  224.8680 H   0  0  0  0  0  0  0  0  0  0  0  0
  135.1473   69.2504  223.7428 H   0  0  0  0  0  0  0  0  0  0  0  0
  136.4282   68.5204  220.9062 H   0  0  0  0  0  0  0  0  0  0  0  0
  138.0316   68.8530  220.3479 H   0  0  0  0  0  0  0  0  0  0  0  0
  137.0155   66.5673  222.0149 H   0  0  0  0  0  0  0  0  0  0  0  0
  138.5384   66.6421  221.1026 H   0  0  0  0  0  0  0  0  0  0  0  0
  138.0163   67.3204  224.0025 H   0  0  0  0  0  0  0  0  0  0  0  0
  139.5257   66.8379  223.3065 H   0  0  0  0  0  0  0  0  0  0  0  0
  139.7992   69.1809  222.2297 H   0  0  0  0  0  0  0  0  0  0  0  0
  140.1277   71.3859  223.1061 H   0  0  0  0  0  0  0  0  0  0  0  0
  140.9381   72.5220  225.1121 H   0  0  0  0  0  0  0  0  0  0  0  0
  139.7783   69.1590  227.4741 H   0  0  0  0  0  0  0  0  0  0  0  0
  138.9544   68.0042  225.4369 H   0  0  0  0  0  0  0  0  0  0  0  0
  132.1255   70.9969  227.2156 H   0  0  0  0  0  0  0  0  0  0  0  0
  130.9128   72.9322  228.1684 H   0  0  0  0  0  0  0  0  0  0  0  0
  130.7515   75.2636  228.4504 H   0  0  0  0  0  0  0  0  0  0  0  0
  133.6886   77.8566  226.6836 H   0  0  0  0  0  0  0  0  0  0  0  0
  134.8806   75.8776  225.7374 H   0  0  0  0  0  0  0  0  0  0  0  0
  1  2  2  0
  2  3  1  0
  3  4  1  0
  4  5  1  0
  5  6  2  0
  5  7  1  0
  7  8  1  0
  8  9  1  0
  9 10  1  0
 10 11  1  0
 11 12  1  0
 12 13  2  0
 13 14  1  0
 14 15  2  0
 15 16  1  0
 15 17  1  0
 17 18  2  0
  2 19  1  0
 19 20  2  0
 20 21  1  0
 21 22  2  0
 22 23  1  0
 23 24  2  0
 24 25  1  0
 24 26  1  0
 26 27  2  0
 27 28  1  0
 28 29  2  0
 11  7  1  0
 18 12  1  0
 29 19  1  0
 28 22  1  0
  3 30  1  0
  4 31  1  0
  4 32  1  0
  8 33  1  0
  8 34  1  0
  9 35  1  0
  9 36  1  0
 10 37  1  0
 10 38  1  0
 11 39  1  6
 13 40  1  0
 14 41  1  0
 17 42  1  0
 18 43  1  0
 20 44  1  0
 21 45  1  0
 23 46  1  0
 26 47  1  0
 27 48  1  0
M  END
>  <smiles>  (18) 
O=C(NCC(=O)N1CCCC1c1ccc(Br)cc1)c1ccc2cc(Cl)ccc2n1

>  <score_type>  (18) 
oracle

>  <origin>  (18) 
autodockgpu

>  <m_score__min__energy>  (18) 
-8.4399999999999995

>  <m_primary>  (18) 
energy

>  <rmsd>  (18) 
8.454161120246194

>  <m_score__min__rmsd>  (18) 
8.454161120246194

>  <meeko>  (18) 
{"free_energy": -8.13, "intermolecular_energy": -9.63, "internal_energy": -2.13, "cluster_size": 9, "cluster_id": 2, "rank_in_cluster": 2}

>  <energy>  (18) 
-7.72

>  <cluster_rmsd>  (18) 
1.12

>  <cluster>  (18) 
1

$$$$

     RDKit          3D

 48 51  0  0  0  0  0  0  0  0999 V2000
  139.3140   70.9760  221.0500 O   0  0  0  0  0  0  0  0  0  0  0  0
  139.1490   71.6320  222.1290 C   0  0  0  0  0  0  0  0  0  0  0  0
  138.4860   72.9090  222.1140 N   0  0  0  0  0  0  0  0  0  0  0  0
  137.9940   73.4690  220.8700 C   0  0  0  0  0  0  0  0  0  0  0  0
  138.9320   74.4860  220.3210 C   0  0  0  0  0  0  0  0  0  0  0  0
  139.1270   74.4490  219.0800 O   0  0  0  0  0  0  0  0  0  0  0  0
  139.5150   75.3940  221.2170 N   0  0  0  0  0  0  0  0  0  0  0  0
  138.8080   76.4430  221.9960 C   0  0  0  0  0  0  0  0  0  0  0  0
  139.7340   77.6210  221.7430 C   0  0  0  0  0  0  0  0  0  0  0  0
  141.0500   77.0420  221.2010 C   0  0  0  0  0  0  0  0  0  0  0  0
  140.9000   75.6000  221.6330 C   0  0  2  0  0  0  0  0  0  0  0  0
  141.8840   74.7120  221.0450 C   0  0  0  0  0  0  0  0  0  0  0  0
  142.9500   75.1820  220.2810 C   0  0  0  0  0  0  0  0  0  0  0  0
  143.9010   74.3580  219.7390 C   0  0  0  0  0  0  0  0  0  0  0  0
  143.8340   73.0110  219.9340 C   0  0  0  0  0  0  0  0  0  0  0  0
  145.1790   71.8920  219.1630 Br  0  0  0  0  0  0  0  0  0  0  0  0
  142.7990   72.5000  220.6830 C   0  0  0  0  0  0  0  0  0  0  0  0
  141.8320   73.3480  221.2320 C   0  0  0  0  0  0  0  0  0  0  0  0
  139.6240   71.1120  223.4030 C   0  0  0  0  0  0  0  0  0  0  0  0
  140.4580   71.8920  224.1820 C   0  0  0  0  0  0  0  0  0  0  0  0
  140.9550   71.4840  225.4000 C   0  0  0  0  0  0  0  0  0  0  0  0
  140.5840   70.2290  225.8360 C   0  0  0  0  0  0  0  0  0  0  0  0
  141.0710   69.8040  227.0500 C   0  0  0  0  0  0  0  0  0  0  0  0
  140.7180   68.5530  227.5130 C   0  0  0  0  0  0  0  0  0  0  0  0
  141.3460   68.0200  229.0640 Cl  0  0  0  0  0  0  0  0  0  0  0  0
  139.8830   67.7560  226.7460 C   0  0  0  0  0  0  0  0  0  0  0  0
  139.3970   68.2040  225.5130 C   0  0  0  0  0  0  0  0  0  0  0  0
  139.7520   69.4490  225.0590 C   0  0  0  0  0  0  0  0  0  0  0  0
  139.2810   69.8860  223.8610 N   0  0  0  0  0  0  0  0  0  0  0  0
  138.3750   73.4120  223.0420 H   0  0  0  0  0  0  0  0  0  0  0  0
  137.8753   72.6588  220.1355 H   0  0  0  0  0  0  0  0  0  0  0  0
  137.0304   73.9605  221.0699 H   0  0  0  0  0  0  0  0  0  0  0  0
  137.7954   76.6279  221.6082 H   0  0  0  0  0  0  0  0  0  0  0  0
  138.6407   76.2020  223.0561 H   0  0  0  0  0  0  0  0  0  0  0  0
  139.2871   78.3022  221.0039 H   0  0  0  0  0  0  0  0  0  0  0  0
  139.9052   78.1941  222.6661 H   0  0  0  0  0  0  0  0  0  0  0  0
  141.1173   77.1356  220.1071 H   0  0  0  0  0  0  0  0  0  0  0  0
  141.9603   77.5420  221.5635 H   0  0  0  0  0  0  0  0  0  0  0  0
  141.0855   75.3825  222.6952 H   0  0  0  0  0  0  0  0  0  0  0  0
  143.0319   76.2647  220.1048 H   0  0  0  0  0  0  0  0  0  0  0  0
  144.7217   74.7854  219.1442 H   0  0  0  0  0  0  0  0  0  0  0  0
  142.7316   71.4151  220.8514 H   0  0  0  0  0  0  0  0  0  0  0  0
  141.0125   72.9169  221.8257 H   0  0  0  0  0  0  0  0  0  0  0  0
  140.7388   72.8886  223.8105 H   0  0  0  0  0  0  0  0  0  0  0  0
  141.6167   72.1287  225.9970 H   0  0  0  0  0  0  0  0  0  0  0  0
  141.7325   70.4522  227.6435 H   0  0  0  0  0  0  0  0  0  0  0  0
  139.5987   66.7582  227.1115 H   0  0  0  0  0  0  0  0  0  0  0  0
  138.7353   67.5629  224.9121 H   0  0  0  0  0  0  0  0  0  0  0  0
  1  2  2  0
  2  3  1  0
  3  4  1  0
  4  5  1  0
  5  6  2  0
  5  7  1  0
  7  8  1  0
  8  9  1  0
  9 10  1  0
 10 11  1  0
 11 12  1  0
 12 13  2  0
 13 14  1  0
 14 15  2  0
 15 16  1  0
 15 17  1  0
 17 18  2  0
  2 19  1  0
 19 20  2  0
 20 21  1  0
 21 22  2  0
 22 23  1  0
 23 24  2  0
 24 25  1  0
 24 26  1  0
 26 27  2  0
 27 28  1  0
 28 29  2  0
 11  7  1  0
 18 12  1  0
 29 19  1  0
 28 22  1  0
  3 30  1  0
  4 31  1  0
  4 32  1  0
  8 33  1  0
  8 34  1  0
  9 35  1  0
  9 36  1  0
 10 37  1  0
 10 38  1  0
 11 39  1  1
 13 40  1  0
 14 41  1  0
 17 42  1  0
 18 43  1  0
 20 44  1  0
 21 45  1  0
 23 46  1  0
 26 47  1  0
 27 48  1  0
M  END
>  <smiles>  (19) 
O=C(NCC(=O)N1CCCC1c1ccc(Br)cc1)c1ccc2cc(Cl)ccc2n1

>  <score_type>  (19) 
oracle

>  <origin>  (19) 
autodockgpu

>  <m_score__min__energy>  (19) 
-8.4399999999999995

>  <m_primary>  (19) 
energy

>  <rmsd>  (19) 
3.0665467658041

>  <m_score__min__rmsd>  (19) 
3.0665467658041

>  <meeko>  (19) 
{"free_energy": -8.02, "intermolecular_energy": -9.52, "internal_energy": -1.89, "cluster_size": 8, "cluster_id": 4, "rank_in_cluster": 2}

>  <energy>  (19) 
-7.63

>  <cluster_rmsd>  (19) 
1.25

>  <cluster>  (19) 
1

$$$$

     RDKit          3D

 48 51  0  0  0  0  0  0  0  0999 V2000
  137.4910   71.8080  220.9160 O   0  0  0  0  0  0  0  0  0  0  0  0
  138.0810   72.3230  221.9200 C   0  0  0  0  0  0  0  0  0  0  0  0
  138.3370   73.7380  221.9710 N   0  0  0  0  0  0  0  0  0  0  0  0
  137.9280   74.6010  220.8800 C   0  0  0  0  0  0  0  0  0  0  0  0
  138.8120   74.4370  219.6940 C   0  0  0  0  0  0  0  0  0  0  0  0
  138.3580   74.8590  218.6010 O   0  0  0  0  0  0  0  0  0  0  0  0
  140.0640   73.8350  219.8850 N   0  0  0  0  0  0  0  0  0  0  0  0
  140.4450   72.4500  219.5060 C   0  0  0  0  0  0  0  0  0  0  0  0
  141.1440   72.0150  220.7830 C   0  0  0  0  0  0  0  0  0  0  0  0
  141.4410   73.2920  221.5840 C   0  0  0  0  0  0  0  0  0  0  0  0
  141.3000   74.3270  220.4870 C   0  0  2  0  0  0  0  0  0  0  0  0
  141.2750   75.6910  220.9770 C   0  0  0  0  0  0  0  0  0  0  0  0
  140.7290   76.0300  222.2130 C   0  0  0  0  0  0  0  0  0  0  0  0
  140.7200   77.3110  222.7010 C   0  0  0  0  0  0  0  0  0  0  0  0
  141.2600   78.3260  221.9710 C   0  0  0  0  0  0  0  0  0  0  0  0
  141.2300   80.1010  222.6830 Br  0  0  0  0  0  0  0  0  0  0  0  0
  141.8120   78.0400  220.7440 C   0  0  0  0  0  0  0  0  0  0  0  0
  141.8170   76.7300  220.2530 C   0  0  0  0  0  0  0  0  0  0  0  0
  138.5110   71.5000  223.0410 C   0  0  0  0  0  0  0  0  0  0  0  0
  137.9070   70.2750  223.2510 C   0  0  0  0  0  0  0  0  0  0  0  0
  138.2490   69.4310  224.2840 C   0  0  0  0  0  0  0  0  0  0  0  0
  139.2480   69.8590  225.1350 C   0  0  0  0  0  0  0  0  0  0  0  0
  139.6030   69.0290  226.1730 C   0  0  0  0  0  0  0  0  0  0  0  0
  140.5980   69.4300  227.0410 C   0  0  0  0  0  0  0  0  0  0  0  0
  141.0420   68.3630  228.3630 Cl  0  0  0  0  0  0  0  0  0  0  0  0
  141.2150   70.6550  226.8470 C   0  0  0  0  0  0  0  0  0  0  0  0
  140.8410   71.4870  225.7860 C   0  0  0  0  0  0  0  0  0  0  0  0
  139.8510   71.0820  224.9260 C   0  0  0  0  0  0  0  0  0  0  0  0
  139.4870   71.8890  223.8950 N   0  0  0  0  0  0  0  0  0  0  0  0
  138.8320   74.1140  222.8330 H   0  0  0  0  0  0  0  0  0  0  0  0
  136.8958   74.3506  220.5938 H   0  0  0  0  0  0  0  0  0  0  0  0
  137.9976   75.6446  221.2207 H   0  0  0  0  0  0  0  0  0  0  0  0
  139.5639   71.8280  219.2898 H   0  0  0  0  0  0  0  0  0  0  0  0
  141.0522   72.3681  218.5924 H   0  0  0  0  0  0  0  0  0  0  0  0
  140.4906   71.3472  221.3637 H   0  0  0  0  0  0  0  0  0  0  0  0
  142.0702   71.4658  220.5584 H   0  0  0  0  0  0  0  0  0  0  0  0
  140.7087   73.4484  222.3898 H   0  0  0  0  0  0  0  0  0  0  0  0
  142.4094   73.2978  222.1058 H   0  0  0  0  0  0  0  0  0  0  0  0
  142.1383   74.4132  219.7800 H   0  0  0  0  0  0  0  0  0  0  0  0
  140.2842   75.2323  222.8261 H   0  0  0  0  0  0  0  0  0  0  0  0
  140.2753   77.5197  223.6852 H   0  0  0  0  0  0  0  0  0  0  0  0
  142.2536   78.8488  220.1433 H   0  0  0  0  0  0  0  0  0  0  0  0
  142.2630   76.5255  219.2685 H   0  0  0  0  0  0  0  0  0  0  0  0
  137.1133   69.9582  222.5584 H   0  0  0  0  0  0  0  0  0  0  0  0
  137.7494   68.4611  224.4244 H   0  0  0  0  0  0  0  0  0  0  0  0
  139.1010   68.0597  226.3091 H   0  0  0  0  0  0  0  0  0  0  0  0
  142.0093   70.9779  227.5361 H   0  0  0  0  0  0  0  0  0  0  0  0
  141.3367   72.4584  225.6422 H   0  0  0  0  0  0  0  0  0  0  0  0
  1  2  2  0
  2  3  1  0
  3  4  1  0
  4  5  1  0
  5  6  2  0
  5  7  1  0
  7  8  1  0
  8  9  1  0
  9 10  1  0
 10 11  1  0
 11 12  1  0
 12 13  2  0
 13 14  1  0
 14 15  2  0
 15 16  1  0
 15 17  1  0
 17 18  2  0
  2 19  1  0
 19 20  2  0
 20 21  1  0
 21 22  2  0
 22 23  1  0
 23 24  2  0
 24 25  1  0
 24 26  1  0
 26 27  2  0
 27 28  1  0
 28 29  2  0
 11  7  1  0
 18 12  1  0
 29 19  1  0
 28 22  1  0
  3 30  1  0
  4 31  1  0
  4 32  1  0
  8 33  1  0
  8 34  1  0
  9 35  1  0
  9 36  1  0
 10 37  1  0
 10 38  1  0
 11 39  1  6
 13 40  1  0
 14 41  1  0
 17 42  1  0
 18 43  1  0
 20 44  1  0
 21 45  1  0
 23 46  1  0
 26 47  1  0
 27 48  1  0
M  END
>  <smiles>  (20) 
O=C(NCC(=O)N1CCCC1c1ccc(Br)cc1)c1ccc2cc(Cl)ccc2n1

>  <score_type>  (20) 
oracle

>  <origin>  (20) 
autodockgpu

>  <m_score__min__energy>  (20) 
-8.4399999999999995

>  <m_primary>  (20) 
energy

>  <rmsd>  (20) 
2.691899814828017

>  <m_score__min__rmsd>  (20) 
2.691899814828017

>  <meeko>  (20) 
{"free_energy": -7.57, "intermolecular_energy": -9.06, "internal_energy": -2.35, "cluster_size": 29, "cluster_id": 1, "rank_in_cluster": 21}

>  <energy>  (20) 
-7.6

>  <cluster_rmsd>  (20) 
1.28

>  <cluster>  (20) 
1

$$$$

     RDKit          3D

 48 51  0  0  0  0  0  0  0  0999 V2000
  137.6820   71.3600  221.0420 O   0  0  0  0  0  0  0  0  0  0  0  0
  138.2570   71.9000  222.0410 C   0  0  0  0  0  0  0  0  0  0  0  0
  138.5020   73.3180  222.0640 N   0  0  0  0  0  0  0  0  0  0  0  0
  138.0970   74.1540  220.9500 C   0  0  0  0  0  0  0  0  0  0  0  0
  138.8650   73.8310  219.7180 C   0  0  0  0  0  0  0  0  0  0  0  0
  138.3060   74.1060  218.6270 O   0  0  0  0  0  0  0  0  0  0  0  0
  140.1350   73.2540  219.8670 N   0  0  0  0  0  0  0  0  0  0  0  0
  140.5140   71.8560  219.5360 C   0  0  0  0  0  0  0  0  0  0  0  0
  141.2900   71.4940  220.7900 C   0  0  0  0  0  0  0  0  0  0  0  0
  141.6140   72.8130  221.5090 C   0  0  0  0  0  0  0  0  0  0  0  0
  141.3960   73.7890  220.3730 C   0  0  2  0  0  0  0  0  0  0  0  0
  141.3790   75.1770  220.7950 C   0  0  0  0  0  0  0  0  0  0  0  0
  140.7510   75.5910  221.9680 C   0  0  0  0  0  0  0  0  0  0  0  0
  140.7470   76.8940  222.3930 C   0  0  0  0  0  0  0  0  0  0  0  0
  141.3750   77.8560  221.6610 C   0  0  0  0  0  0  0  0  0  0  0  0
  141.3490   79.6640  222.2850 Br  0  0  0  0  0  0  0  0  0  0  0  0
  142.0100   77.4940  220.4950 C   0  0  0  0  0  0  0  0  0  0  0  0
  142.0090   76.1620  220.0680 C   0  0  0  0  0  0  0  0  0  0  0  0
  138.6820   71.1050  223.1840 C   0  0  0  0  0  0  0  0  0  0  0  0
  138.2500   69.7970  223.2950 C   0  0  0  0  0  0  0  0  0  0  0  0
  138.6020   68.9720  224.3400 C   0  0  0  0  0  0  0  0  0  0  0  0
  139.4270   69.5070  225.3080 C   0  0  0  0  0  0  0  0  0  0  0  0
  139.7880   68.6970  226.3600 C   0  0  0  0  0  0  0  0  0  0  0  0
  140.6110   69.2050  227.3440 C   0  0  0  0  0  0  0  0  0  0  0  0
  141.0650   68.1620  228.6820 Cl  0  0  0  0  0  0  0  0  0  0  0  0
  141.0540   70.5140  227.2500 C   0  0  0  0  0  0  0  0  0  0  0  0
  140.6770   71.3240  226.1730 C   0  0  0  0  0  0  0  0  0  0  0  0
  139.8580   70.8130  225.1980 C   0  0  0  0  0  0  0  0  0  0  0  0
  139.4900   71.5980  224.1510 N   0  0  0  0  0  0  0  0  0  0  0  0
  138.9850   73.7160  222.9220 H   0  0  0  0  0  0  0  0  0  0  0  0
  137.0260   73.9957  220.7553 H   0  0  0  0  0  0  0  0  0  0  0  0
  138.2961   75.2027  221.2155 H   0  0  0  0  0  0  0  0  0  0  0  0
  139.6311   71.2138  219.4018 H   0  0  0  0  0  0  0  0  0  0  0  0
  141.0696   71.7354  218.5943 H   0  0  0  0  0  0  0  0  0  0  0  0
  140.6802   70.8487  221.4394 H   0  0  0  0  0  0  0  0  0  0  0  0
  142.2098   70.9450  220.5398 H   0  0  0  0  0  0  0  0  0  0  0  0
  140.9267   73.0012  222.3470 H   0  0  0  0  0  0  0  0  0  0  0  0
  142.6102   72.8561  221.9734 H   0  0  0  0  0  0  0  0  0  0  0  0
  142.1922   73.8484  219.6163 H   0  0  0  0  0  0  0  0  0  0  0  0
  140.2348   74.8375  222.5810 H   0  0  0  0  0  0  0  0  0  0  0  0
  140.2349   77.1639  223.3284 H   0  0  0  0  0  0  0  0  0  0  0  0
  142.5229   78.2589  219.8935 H   0  0  0  0  0  0  0  0  0  0  0  0
  142.5221   75.8960  219.1321 H   0  0  0  0  0  0  0  0  0  0  0  0
  137.5926   69.3950  222.5100 H   0  0  0  0  0  0  0  0  0  0  0  0
  138.2420   67.9343  224.4002 H   0  0  0  0  0  0  0  0  0  0  0  0
  139.4258   67.6598  226.4157 H   0  0  0  0  0  0  0  0  0  0  0  0
  141.7108   70.9222  228.0323 H   0  0  0  0  0  0  0  0  0  0  0  0
  141.0345   72.3623  226.1086 H   0  0  0  0  0  0  0  0  0  0  0  0
  1  2  2  0
  2  3  1  0
  3  4  1  0
  4  5  1  0
  5  6  2  0
  5  7  1  0
  7  8  1  0
  8  9  1  0
  9 10  1  0
 10 11  1  0
 11 12  1  0
 12 13  2  0
 13 14  1  0
 14 15  2  0
 15 16  1  0
 15 17  1  0
 17 18  2  0
  2 19  1  0
 19 20  2  0
 20 21  1  0
 21 22  2  0
 22 23  1  0
 23 24  2  0
 24 25  1  0
 24 26  1  0
 26 27  2  0
 27 28  1  0
 28 29  2  0
 11  7  1  0
 18 12  1  0
 29 19  1  0
 28 22  1  0
  3 30  1  0
  4 31  1  0
  4 32  1  0
  8 33  1  0
  8 34  1  0
  9 35  1  0
  9 36  1  0
 10 37  1  0
 10 38  1  0
 11 39  1  6
 13 40  1  0
 14 41  1  0
 17 42  1  0
 18 43  1  0
 20 44  1  0
 21 45  1  0
 23 46  1  0
 26 47  1  0
 27 48  1  0
M  END
>  <smiles>  (21) 
O=C(NCC(=O)N1CCCC1c1ccc(Br)cc1)c1ccc2cc(Cl)ccc2n1

>  <score_type>  (21) 
oracle

>  <origin>  (21) 
autodockgpu

>  <m_score__min__energy>  (21) 
-8.4399999999999995

>  <m_primary>  (21) 
energy

>  <rmsd>  (21) 
2.8131606786040066

>  <m_score__min__rmsd>  (21) 
2.8131606786040066

>  <meeko>  (21) 
{"free_energy": -7.56, "intermolecular_energy": -9.06, "internal_energy": -2.3, "cluster_size": 29, "cluster_id": 1, "rank_in_cluster": 23}

>  <energy>  (21) 
-7.57

>  <cluster_rmsd>  (21) 
1.17

>  <cluster>  (21) 
1

$$$$

     RDKit          3D

 48 51  0  0  0  0  0  0  0  0999 V2000
  137.4050   71.7390  220.9220 O   0  0  0  0  0  0  0  0  0  0  0  0
  138.0260   72.2580  221.9040 C   0  0  0  0  0  0  0  0  0  0  0  0
  138.2960   73.6710  221.9340 N   0  0  0  0  0  0  0  0  0  0  0  0
  137.8630   74.5270  220.8470 C   0  0  0  0  0  0  0  0  0  0  0  0
  138.7930   74.4480  219.6880 C   0  0  0  0  0  0  0  0  0  0  0  0
  138.3830   74.9500  218.6110 O   0  0  0  0  0  0  0  0  0  0  0  0
  140.0370   73.8300  219.8840 N   0  0  0  0  0  0  0  0  0  0  0  0
  140.4010   72.4390  219.5060 C   0  0  0  0  0  0  0  0  0  0  0  0
  141.0900   71.9960  220.7850 C   0  0  0  0  0  0  0  0  0  0  0  0
  141.4020   73.2700  221.5860 C   0  0  0  0  0  0  0  0  0  0  0  0
  141.2780   74.3050  220.4890 C   0  0  2  0  0  0  0  0  0  0  0  0
  141.2700   75.6710  220.9780 C   0  0  0  0  0  0  0  0  0  0  0  0
  140.7280   76.0170  222.2140 C   0  0  0  0  0  0  0  0  0  0  0  0
  140.7340   77.2980  222.7000 C   0  0  0  0  0  0  0  0  0  0  0  0
  141.2860   78.3060  221.9690 C   0  0  0  0  0  0  0  0  0  0  0  0
  141.2780   80.0820  222.6800 Br  0  0  0  0  0  0  0  0  0  0  0  0
  141.8350   78.0120  220.7420 C   0  0  0  0  0  0  0  0  0  0  0  0
  141.8240   76.7020  220.2520 C   0  0  0  0  0  0  0  0  0  0  0  0
  138.4800   71.4420  223.0210 C   0  0  0  0  0  0  0  0  0  0  0  0
  137.9380   70.1840  223.2030 C   0  0  0  0  0  0  0  0  0  0  0  0
  138.3060   69.3440  224.2300 C   0  0  0  0  0  0  0  0  0  0  0  0
  139.2670   69.8090  225.1040 C   0  0  0  0  0  0  0  0  0  0  0  0
  139.6480   68.9840  226.1360 C   0  0  0  0  0  0  0  0  0  0  0  0
  140.6060   69.4230  227.0260 C   0  0  0  0  0  0  0  0  0  0  0  0
  141.0840   68.3610  228.3400 Cl  0  0  0  0  0  0  0  0  0  0  0  0
  141.1620   70.6810  226.8600 C   0  0  0  0  0  0  0  0  0  0  0  0
  140.7630   71.5090  225.8040 C   0  0  0  0  0  0  0  0  0  0  0  0
  139.8090   71.0660  224.9220 C   0  0  0  0  0  0  0  0  0  0  0  0
  139.4200   71.8670  223.8960 N   0  0  0  0  0  0  0  0  0  0  0  0
  138.8170   74.0510  222.7780 H   0  0  0  0  0  0  0  0  0  0  0  0
  136.8599   74.2132  220.5226 H   0  0  0  0  0  0  0  0  0  0  0  0
  137.8499   75.5655  221.2093 H   0  0  0  0  0  0  0  0  0  0  0  0
  139.5124   71.8286  219.2874 H   0  0  0  0  0  0  0  0  0  0  0  0
  141.0095   72.3486  218.5941 H   0  0  0  0  0  0  0  0  0  0  0  0
  140.4259   71.3377  221.3643 H   0  0  0  0  0  0  0  0  0  0  0  0
  142.0094   71.4341  220.5636 H   0  0  0  0  0  0  0  0  0  0  0  0
  140.6697   73.4368  222.3897 H   0  0  0  0  0  0  0  0  0  0  0  0
  142.3690   73.2632  222.1103 H   0  0  0  0  0  0  0  0  0  0  0  0
  142.1196   74.3788  219.7845 H   0  0  0  0  0  0  0  0  0  0  0  0
  140.2743   75.2251  222.8280 H   0  0  0  0  0  0  0  0  0  0  0  0
  140.2915   77.5131  223.6838 H   0  0  0  0  0  0  0  0  0  0  0  0
  142.2868   78.8148  220.1408 H   0  0  0  0  0  0  0  0  0  0  0  0
  142.2666   76.4910  219.2673 H   0  0  0  0  0  0  0  0  0  0  0  0
  137.1743   69.8362  222.4918 H   0  0  0  0  0  0  0  0  0  0  0  0
  137.8546   68.3479  224.3482 H   0  0  0  0  0  0  0  0  0  0  0  0
  139.1952   67.9880  226.2502 H   0  0  0  0  0  0  0  0  0  0  0  0
  141.9270   71.0339  227.5672 H   0  0  0  0  0  0  0  0  0  0  0  0
  141.2103   72.5065  225.6820 H   0  0  0  0  0  0  0  0  0  0  0  0
  1  2  2  0
  2  3  1  0
  3  4  1  0
  4  5  1  0
  5  6  2  0
  5  7  1  0
  7  8  1  0
  8  9  1  0
  9 10  1  0
 10 11  1  0
 11 12  1  0
 12 13  2  0
 13 14  1  0
 14 15  2  0
 15 16  1  0
 15 17  1  0
 17 18  2  0
  2 19  1  0
 19 20  2  0
 20 21  1  0
 21 22  2  0
 22 23  1  0
 23 24  2  0
 24 25  1  0
 24 26  1  0
 26 27  2  0
 27 28  1  0
 28 29  2  0
 11  7  1  0
 18 12  1  0
 29 19  1  0
 28 22  1  0
  3 30  1  0
  4 31  1  0
  4 32  1  0
  8 33  1  0
  8 34  1  0
  9 35  1  0
  9 36  1  0
 10 37  1  0
 10 38  1  0
 11 39  1  6
 13 40  1  0
 14 41  1  0
 17 42  1  0
 18 43  1  0
 20 44  1  0
 21 45  1  0
 23 46  1  0
 26 47  1  0
 27 48  1  0
M  END
>  <smiles>  (22) 
O=C(NCC(=O)N1CCCC1c1ccc(Br)cc1)c1ccc2cc(Cl)ccc2n1

>  <score_type>  (22) 
oracle

>  <origin>  (22) 
autodockgpu

>  <m_score__min__energy>  (22) 
-8.4399999999999995

>  <m_primary>  (22) 
energy

>  <rmsd>  (22) 
2.6804397971604583

>  <m_score__min__rmsd>  (22) 
2.6804397971604583

>  <meeko>  (22) 
{"free_energy": -7.54, "intermolecular_energy": -9.03, "internal_energy": -2.36, "cluster_size": 29, "cluster_id": 1, "rank_in_cluster": 25}

>  <energy>  (22) 
-7.57

>  <cluster_rmsd>  (22) 
1.34

>  <cluster>  (22) 
1

$$$$

     RDKit          3D

 48 51  0  0  0  0  0  0  0  0999 V2000
  139.2360   71.7500  220.7020 O   0  0  0  0  0  0  0  0  0  0  0  0
  138.9310   72.1370  221.8760 C   0  0  0  0  0  0  0  0  0  0  0  0
  138.2670   73.3970  222.0810 N   0  0  0  0  0  0  0  0  0  0  0  0
  137.9330   74.2460  220.9540 C   0  0  0  0  0  0  0  0  0  0  0  0
  138.8880   75.3790  220.8230 C   0  0  0  0  0  0  0  0  0  0  0  0
  138.5170   76.4770  221.3090 O   0  0  0  0  0  0  0  0  0  0  0  0
  140.1100   75.1380  220.1780 N   0  0  0  0  0  0  0  0  0  0  0  0
  140.4290   73.9900  219.2910 C   0  0  0  0  0  0  0  0  0  0  0  0
  141.7800   73.5920  219.8580 C   0  0  0  0  0  0  0  0  0  0  0  0
  142.2670   74.7710  220.7160 C   0  0  0  0  0  0  0  0  0  0  0  0
  141.3740   75.8690  220.1800 C   0  0  2  0  0  0  0  0  0  0  0  0
  141.4100   77.0840  220.9710 C   0  0  0  0  0  0  0  0  0  0  0  0
  141.7400   78.3220  220.4230 C   0  0  0  0  0  0  0  0  0  0  0  0
  141.7550   79.4820  221.1520 C   0  0  0  0  0  0  0  0  0  0  0  0
  141.4400   79.4630  222.4770 C   0  0  0  0  0  0  0  0  0  0  0  0
  141.4710   81.1010  223.4640 Br  0  0  0  0  0  0  0  0  0  0  0  0
  141.1070   78.2640  223.0630 C   0  0  0  0  0  0  0  0  0  0  0  0
  141.0940   77.0840  222.3120 C   0  0  0  0  0  0  0  0  0  0  0  0
  139.2440   71.3210  223.0400 C   0  0  0  0  0  0  0  0  0  0  0  0
  138.8610   69.9930  223.0570 C   0  0  0  0  0  0  0  0  0  0  0  0
  139.1140   69.1470  224.1140 C   0  0  0  0  0  0  0  0  0  0  0  0
  139.7850   69.6820  225.1950 C   0  0  0  0  0  0  0  0  0  0  0  0
  140.0460   68.8530  226.2610 C   0  0  0  0  0  0  0  0  0  0  0  0
  140.7140   69.3590  227.3560 C   0  0  0  0  0  0  0  0  0  0  0  0
  141.0420   68.2910  228.7100 Cl  0  0  0  0  0  0  0  0  0  0  0  0
  141.1060   70.6880  227.3580 C   0  0  0  0  0  0  0  0  0  0  0  0
  140.8310   71.5190  226.2650 C   0  0  0  0  0  0  0  0  0  0  0  0
  140.1670   71.0080  225.1790 C   0  0  0  0  0  0  0  0  0  0  0  0
  139.8990   71.8130  224.1170 N   0  0  0  0  0  0  0  0  0  0  0  0
  138.0360   73.6690  223.0810 H   0  0  0  0  0  0  0  0  0  0  0  0
  137.9625   73.6454  220.0329 H   0  0  0  0  0  0  0  0  0  0  0  0
  136.9273   74.6597  221.1197 H   0  0  0  0  0  0  0  0  0  0  0  0
  139.6903   73.1807  219.3879 H   0  0  0  0  0  0  0  0  0  0  0  0
  140.4254   74.2187  218.2150 H   0  0  0  0  0  0  0  0  0  0  0  0
  141.6793   72.6889  220.4779 H   0  0  0  0  0  0  0  0  0  0  0  0
  142.4953   73.3681  219.0529 H   0  0  0  0  0  0  0  0  0  0  0  0
  142.0977   74.5935  221.7883 H   0  0  0  0  0  0  0  0  0  0  0  0
  143.3456   74.9772  220.6524 H   0  0  0  0  0  0  0  0  0  0  0  0
  141.6470   76.2919  219.2019 H   0  0  0  0  0  0  0  0  0  0  0  0
  142.0006   78.3702  219.3554 H   0  0  0  0  0  0  0  0  0  0  0  0
  142.0223   80.4317  220.6656 H   0  0  0  0  0  0  0  0  0  0  0  0
  140.8486   78.2328  224.1318 H   0  0  0  0  0  0  0  0  0  0  0  0
  140.8259   76.1365  222.8022 H   0  0  0  0  0  0  0  0  0  0  0  0
  138.3275   69.5918  222.1827 H   0  0  0  0  0  0  0  0  0  0  0  0
  138.7961   68.0941  224.0974 H   0  0  0  0  0  0  0  0  0  0  0  0
  139.7262   67.8007  226.2403 H   0  0  0  0  0  0  0  0  0  0  0  0
  141.6400   71.0954  228.2292 H   0  0  0  0  0  0  0  0  0  0  0  0
  141.1449   72.5732  226.2772 H   0  0  0  0  0  0  0  0  0  0  0  0
  1  2  2  0
  2  3  1  0
  3  4  1  0
  4  5  1  0
  5  6  2  0
  5  7  1  0
  7  8  1  0
  8  9  1  0
  9 10  1  0
 10 11  1  0
 11 12  1  0
 12 13  2  0
 13 14  1  0
 14 15  2  0
 15 16  1  0
 15 17  1  0
 17 18  2  0
  2 19  1  0
 19 20  2  0
 20 21  1  0
 21 22  2  0
 22 23  1  0
 23 24  2  0
 24 25  1  0
 24 26  1  0
 26 27  2  0
 27 28  1  0
 28 29  2  0
 11  7  1  0
 18 12  1  0
 29 19  1  0
 28 22  1  0
  3 30  1  0
  4 31  1  0
  4 32  1  0
  8 33  1  0
  8 34  1  0
  9 35  1  0
  9 36  1  0
 10 37  1  0
 10 38  1  0
 11 39  1  6
 13 40  1  0
 14 41  1  0
 17 42  1  0
 18 43  1  0
 20 44  1  0
 21 45  1  0
 23 46  1  0
 26 47  1  0
 27 48  1  0
M  END
>  <smiles>  (23) 
O=C(NCC(=O)N1CCCC1c1ccc(Br)cc1)c1ccc2cc(Cl)ccc2n1

>  <score_type>  (23) 
oracle

>  <origin>  (23) 
autodockgpu

>  <m_score__min__energy>  (23) 
-8.4399999999999995

>  <m_primary>  (23) 
energy

>  <rmsd>  (23) 
1.8730229838794237

>  <m_score__min__rmsd>  (23) 
1.8730229838794237

>  <meeko>  (23) 
{"free_energy": -8.44, "intermolecular_energy": -9.93, "internal_energy": -1.57, "cluster_size": 29, "cluster_id": 1, "rank_in_cluster": 1}

>  <energy>  (23) 
-7.56

>  <cluster_rmsd>  (23) 
1.3

>  <cluster>  (23) 
1

$$$$

     RDKit          3D

 48 51  0  0  0  0  0  0  0  0999 V2000
  134.2280   69.6820  226.3520 O   0  0  0  0  0  0  0  0  0  0  0  0
  134.4200   70.8150  225.8060 C   0  0  0  0  0  0  0  0  0  0  0  0
  135.3110   70.9450  224.6830 N   0  0  0  0  0  0  0  0  0  0  0  0
  136.0040   69.7850  224.1550 C   0  0  0  0  0  0  0  0  0  0  0  0
  136.7590   70.1190  222.9170 C   0  0  0  0  0  0  0  0  0  0  0  0
  136.4750   71.2140  222.3710 O   0  0  0  0  0  0  0  0  0  0  0  0
  137.7170   69.1990  222.4640 N   0  0  0  0  0  0  0  0  0  0  0  0
  137.5820   68.2870  221.2990 C   0  0  0  0  0  0  0  0  0  0  0  0
  138.0800   66.9950  221.9230 C   0  0  0  0  0  0  0  0  0  0  0  0
  138.8100   67.3800  223.2190 C   0  0  0  0  0  0  0  0  0  0  0  0
  139.0460   68.8520  222.9580 C   0  0  2  0  0  0  0  0  0  0  0  0
  139.5070   69.5820  224.1230 C   0  0  0  0  0  0  0  0  0  0  0  0
  139.4390   69.0510  225.4100 C   0  0  0  0  0  0  0  0  0  0  0  0
  139.8920   69.7170  226.5180 C   0  0  0  0  0  0  0  0  0  0  0  0
  140.4390   70.9590  226.3950 C   0  0  0  0  0  0  0  0  0  0  0  0
  141.0610   71.8600  227.9640 Br  0  0  0  0  0  0  0  0  0  0  0  0
  140.5290   71.5240  225.1440 C   0  0  0  0  0  0  0  0  0  0  0  0
  140.0630   70.8370  224.0180 C   0  0  0  0  0  0  0  0  0  0  0  0
  133.7470   72.0100  226.2980 C   0  0  0  0  0  0  0  0  0  0  0  0
  132.5940   71.8750  227.0480 C   0  0  0  0  0  0  0  0  0  0  0  0
  131.8930   72.9470  227.5540 C   0  0  0  0  0  0  0  0  0  0  0  0
  132.3910   74.2040  227.2800 C   0  0  0  0  0  0  0  0  0  0  0  0
  131.7040   75.2870  227.7770 C   0  0  0  0  0  0  0  0  0  0  0  0
  132.1770   76.5570  227.5190 C   0  0  0  0  0  0  0  0  0  0  0  0
  131.2910   77.9320  228.1580 Cl  0  0  0  0  0  0  0  0  0  0  0  0
  133.3310   76.7120  226.7690 C   0  0  0  0  0  0  0  0  0  0  0  0
  134.0190   75.6000  226.2700 C   0  0  0  0  0  0  0  0  0  0  0  0
  133.5420   74.3390  226.5310 C   0  0  0  0  0  0  0  0  0  0  0  0
  134.2080   73.2570  226.0480 N   0  0  0  0  0  0  0  0  0  0  0  0
  135.4330   71.9140  224.2660 H   0  0  0  0  0  0  0  0  0  0  0  0
  136.7080   69.4129  224.9139 H   0  0  0  0  0  0  0  0  0  0  0  0
  135.2552   69.0183  223.9070 H   0  0  0  0  0  0  0  0  0  0  0  0
  136.5377   68.2034  220.9638 H   0  0  0  0  0  0  0  0  0  0  0  0
  138.1212   68.6048  220.3944 H   0  0  0  0  0  0  0  0  0  0  0  0
  137.2318   66.3321  222.1489 H   0  0  0  0  0  0  0  0  0  0  0  0
  138.7514   66.4584  221.2365 H   0  0  0  0  0  0  0  0  0  0  0  0
  138.1801   67.2182  224.1062 H   0  0  0  0  0  0  0  0  0  0  0  0
  139.7170   66.7952  223.4320 H   0  0  0  0  0  0  0  0  0  0  0  0
  139.8612   69.1041  222.2638 H   0  0  0  0  0  0  0  0  0  0  0  0
  139.0012   68.0506  225.5420 H   0  0  0  0  0  0  0  0  0  0  0  0
  139.8140   69.2479  227.5099 H   0  0  0  0  0  0  0  0  0  0  0  0
  140.9712   72.5245  225.0280 H   0  0  0  0  0  0  0  0  0  0  0  0
  140.1425   71.3095  223.0279 H   0  0  0  0  0  0  0  0  0  0  0  0
  132.2177   70.8614  227.2507 H   0  0  0  0  0  0  0  0  0  0  0  0
  130.9784   72.8074  228.1490 H   0  0  0  0  0  0  0  0  0  0  0  0
  130.7901   75.1425  228.3719 H   0  0  0  0  0  0  0  0  0  0  0  0
  133.7121   77.7230  226.5627 H   0  0  0  0  0  0  0  0  0  0  0  0
  134.9337   75.7349  225.6741 H   0  0  0  0  0  0  0  0  0  0  0  0
  1  2  2  0
  2  3  1  0
  3  4  1  0
  4  5  1  0
  5  6  2  0
  5  7  1  0
  7  8  1  0
  8  9  1  0
  9 10  1  0
 10 11  1  0
 11 12  1  0
 12 13  2  0
 13 14  1  0
 14 15  2  0
 15 16  1  0
 15 17  1  0
 17 18  2  0
  2 19  1  0
 19 20  2  0
 20 21  1  0
 21 22  2  0
 22 23  1  0
 23 24  2  0
 24 25  1  0
 24 26  1  0
 26 27  2  0
 27 28  1  0
 28 29  2  0
 11  7  1  0
 18 12  1  0
 29 19  1  0
 28 22  1  0
  3 30  1  0
  4 31  1  0
  4 32  1  0
  8 33  1  0
  8 34  1  0
  9 35  1  0
  9 36  1  0
 10 37  1  0
 10 38  1  0
 11 39  1  6
 13 40  1  0
 14 41  1  0
 17 42  1  0
 18 43  1  0
 20 44  1  0
 21 45  1  0
 23 46  1  0
 26 47  1  0
 27 48  1  0
M  END
>  <smiles>  (24) 
O=C(NCC(=O)N1CCCC1c1ccc(Br)cc1)c1ccc2cc(Cl)ccc2n1

>  <score_type>  (24) 
oracle

>  <origin>  (24) 
autodockgpu

>  <m_score__min__energy>  (24) 
-8.4399999999999995

>  <m_primary>  (24) 
energy

>  <rmsd>  (24) 
8.468613250397894

>  <m_score__min__rmsd>  (24) 
8.468613250397894

>  <meeko>  (24) 
{"free_energy": -8.15, "intermolecular_energy": -9.64, "internal_energy": -2.11, "cluster_size": 9, "cluster_id": 2, "rank_in_cluster": 1}

>  <energy>  (24) 
-7.56

>  <cluster_rmsd>  (24) 
1.17

>  <cluster>  (24) 
1

$$$$

     RDKit          3D

 48 51  0  0  0  0  0  0  0  0999 V2000
  139.5330   70.9360  220.8470 O   0  0  0  0  0  0  0  0  0  0  0  0
  139.3070   71.5990  221.9090 C   0  0  0  0  0  0  0  0  0  0  0  0
  138.6190   72.8620  221.8500 N   0  0  0  0  0  0  0  0  0  0  0  0
  138.1710   73.3980  220.5790 C   0  0  0  0  0  0  0  0  0  0  0  0
  138.7300   74.7560  220.3340 C   0  0  0  0  0  0  0  0  0  0  0  0
  138.6930   75.1650  219.1460 O   0  0  0  0  0  0  0  0  0  0  0  0
  139.2450   75.4630  221.4300 N   0  0  0  0  0  0  0  0  0  0  0  0
  138.4670   76.2680  222.4070 C   0  0  0  0  0  0  0  0  0  0  0  0
  139.3270   77.5180  222.4560 C   0  0  0  0  0  0  0  0  0  0  0  0
  140.6830   77.1490  221.8340 C   0  0  0  0  0  0  0  0  0  0  0  0
  140.6090   75.6400  221.9220 C   0  0  2  0  0  0  0  0  0  0  0  0
  141.6520   74.9630  221.1760 C   0  0  0  0  0  0  0  0  0  0  0  0
  142.5690   75.6510  220.3850 C   0  0  0  0  0  0  0  0  0  0  0  0
  143.5750   75.0290  219.6930 C   0  0  0  0  0  0  0  0  0  0  0  0
  143.7150   73.6750  219.7570 C   0  0  0  0  0  0  0  0  0  0  0  0
  145.1310   72.8400  218.7790 Br  0  0  0  0  0  0  0  0  0  0  0  0
  142.8330   72.9520  220.5260 C   0  0  0  0  0  0  0  0  0  0  0  0
  141.8080   73.5960  221.2290 C   0  0  0  0  0  0  0  0  0  0  0  0
  139.7350   71.1040  223.2100 C   0  0  0  0  0  0  0  0  0  0  0  0
  140.5860   71.8730  223.9790 C   0  0  0  0  0  0  0  0  0  0  0  0
  141.0420   71.4850  225.2190 C   0  0  0  0  0  0  0  0  0  0  0  0
  140.6100   70.2620  225.6890 C   0  0  0  0  0  0  0  0  0  0  0  0
  141.0550   69.8580  226.9260 C   0  0  0  0  0  0  0  0  0  0  0  0
  140.6410   68.6390  227.4220 C   0  0  0  0  0  0  0  0  0  0  0  0
  141.2160   68.1330  229.0020 Cl  0  0  0  0  0  0  0  0  0  0  0  0
  139.7870   67.8530  226.6650 C   0  0  0  0  0  0  0  0  0  0  0  0
  139.3440   68.2790  225.4070 C   0  0  0  0  0  0  0  0  0  0  0  0
  139.7600   69.4920  224.9210 C   0  0  0  0  0  0  0  0  0  0  0  0
  139.3310   69.9090  223.7000 N   0  0  0  0  0  0  0  0  0  0  0  0
  138.4560   73.3720  222.7670 H   0  0  0  0  0  0  0  0  0  0  0  0
  138.4978   72.7257  219.7720 H   0  0  0  0  0  0  0  0  0  0  0  0
  137.0740   73.4748  220.6034 H   0  0  0  0  0  0  0  0  0  0  0  0
  137.4519   76.4840  222.0426 H   0  0  0  0  0  0  0  0  0  0  0  0
  138.2970   75.7821  223.3791 H   0  0  0  0  0  0  0  0  0  0  0  0
  138.8534   78.3263  221.8795 H   0  0  0  0  0  0  0  0  0  0  0  0
  139.4504   77.8717  223.4902 H   0  0  0  0  0  0  0  0  0  0  0  0
  140.7621   77.4940  220.7925 H   0  0  0  0  0  0  0  0  0  0  0  0
  141.5572   77.6000  222.3263 H   0  0  0  0  0  0  0  0  0  0  0  0
  140.7892   75.1949  222.9116 H   0  0  0  0  0  0  0  0  0  0  0  0
  142.4816   76.7451  220.3124 H   0  0  0  0  0  0  0  0  0  0  0  0
  144.2714   75.6243  219.0842 H   0  0  0  0  0  0  0  0  0  0  0  0
  142.9340   71.8585  220.5891 H   0  0  0  0  0  0  0  0  0  0  0  0
  141.1129   72.9976  221.8363 H   0  0  0  0  0  0  0  0  0  0  0  0
  140.9161   72.8440  223.5812 H   0  0  0  0  0  0  0  0  0  0  0  0
  141.7195   72.1209  225.8077 H   0  0  0  0  0  0  0  0  0  0  0  0
  141.7315   70.4978  227.5117 H   0  0  0  0  0  0  0  0  0  0  0  0
  139.4527   66.8814  227.0577 H   0  0  0  0  0  0  0  0  0  0  0  0
  138.6679   67.6460  224.8135 H   0  0  0  0  0  0  0  0  0  0  0  0
  1  2  2  0
  2  3  1  0
  3  4  1  0
  4  5  1  0
  5  6  2  0
  5  7  1  0
  7  8  1  0
  8  9  1  0
  9 10  1  0
 10 11  1  0
 11 12  1  0
 12 13  2  0
 13 14  1  0
 14 15  2  0
 15 16  1  0
 15 17  1  0
 17 18  2  0
  2 19  1  0
 19 20  2  0
 20 21  1  0
 21 22  2  0
 22 23  1  0
 23 24  2  0
 24 25  1  0
 24 26  1  0
 26 27  2  0
 27 28  1  0
 28 29  2  0
 11  7  1  0
 18 12  1  0
 29 19  1  0
 28 22  1  0
  3 30  1  0
  4 31  1  0
  4 32  1  0
  8 33  1  0
  8 34  1  0
  9 35  1  0
  9 36  1  0
 10 37  1  0
 10 38  1  0
 11 39  1  1
 13 40  1  0
 14 41  1  0
 17 42  1  0
 18 43  1  0
 20 44  1  0
 21 45  1  0
 23 46  1  0
 26 47  1  0
 27 48  1  0
M  END
>  <smiles>  (25) 
O=C(NCC(=O)N1CCCC1c1ccc(Br)cc1)c1ccc2cc(Cl)ccc2n1

>  <score_type>  (25) 
oracle

>  <origin>  (25) 
autodockgpu

>  <m_score__min__energy>  (25) 
-8.4399999999999995

>  <m_primary>  (25) 
energy

>  <rmsd>  (25) 
3.2392789178328845

>  <m_score__min__rmsd>  (25) 
3.2392789178328845

>  <meeko>  (25) 
{"free_energy": -7.96, "intermolecular_energy": -9.46, "internal_energy": -1.93, "cluster_size": 8, "cluster_id": 4, "rank_in_cluster": 4}

>  <energy>  (25) 
-7.54

>  <cluster_rmsd>  (25) 
1.17

>  <cluster>  (25) 
1

$$$$

     RDKit          3D

 48 51  0  0  0  0  0  0  0  0999 V2000
  138.4480   71.5070  220.7520 O   0  0  0  0  0  0  0  0  0  0  0  0
  138.4850   72.0390  221.9080 C   0  0  0  0  0  0  0  0  0  0  0  0
  138.1360   73.4240  222.0860 N   0  0  0  0  0  0  0  0  0  0  0  0
  137.7370   74.2350  220.9520 C   0  0  0  0  0  0  0  0  0  0  0  0
  138.7510   75.2810  220.6470 C   0  0  0  0  0  0  0  0  0  0  0  0
  138.3730   76.4730  220.7700 O   0  0  0  0  0  0  0  0  0  0  0  0
  140.0300   74.8620  220.2520 N   0  0  0  0  0  0  0  0  0  0  0  0
  140.3630   73.6090  219.5250 C   0  0  0  0  0  0  0  0  0  0  0  0
  141.5440   73.1350  220.3540 C   0  0  0  0  0  0  0  0  0  0  0  0
  142.0070   74.3360  221.1940 C   0  0  0  0  0  0  0  0  0  0  0  0
  141.3500   75.4620  220.4260 C   0  0  2  0  0  0  0  0  0  0  0  0
  141.3880   76.7360  221.1170 C   0  0  0  0  0  0  0  0  0  0  0  0
  141.0490   76.8650  222.4630 C   0  0  0  0  0  0  0  0  0  0  0  0
  141.1030   78.0560  223.1360 C   0  0  0  0  0  0  0  0  0  0  0  0
  141.5010   79.1890  222.4930 C   0  0  0  0  0  0  0  0  0  0  0  0
  141.5650   80.8360  223.4660 Br  0  0  0  0  0  0  0  0  0  0  0  0
  141.8470   79.1120  221.1640 C   0  0  0  0  0  0  0  0  0  0  0  0
  141.7880   77.8910  220.4840 C   0  0  0  0  0  0  0  0  0  0  0  0
  138.8780   71.2670  223.0780 C   0  0  0  0  0  0  0  0  0  0  0  0
  138.4880   69.9450  223.1780 C   0  0  0  0  0  0  0  0  0  0  0  0
  138.8130   69.1400  224.2460 C   0  0  0  0  0  0  0  0  0  0  0  0
  139.5670   69.7110  225.2510 C   0  0  0  0  0  0  0  0  0  0  0  0
  139.9010   68.9220  226.3270 C   0  0  0  0  0  0  0  0  0  0  0  0
  140.6540   69.4650  227.3480 C   0  0  0  0  0  0  0  0  0  0  0  0
  141.0750   68.4480  228.7170 Cl  0  0  0  0  0  0  0  0  0  0  0  0
  141.0550   70.7880  227.2660 C   0  0  0  0  0  0  0  0  0  0  0  0
  140.7050   71.5780  226.1650 C   0  0  0  0  0  0  0  0  0  0  0  0
  139.9570   71.0310  225.1530 C   0  0  0  0  0  0  0  0  0  0  0  0
  139.6160   71.7950  224.0810 N   0  0  0  0  0  0  0  0  0  0  0  0
  138.1830   73.8160  223.0720 H   0  0  0  0  0  0  0  0  0  0  0  0
  137.6174   73.5855  220.0723 H   0  0  0  0  0  0  0  0  0  0  0  0
  136.7892   74.7347  221.2009 H   0  0  0  0  0  0  0  0  0  0  0  0
  139.5316   72.8892  219.5485 H   0  0  0  0  0  0  0  0  0  0  0  0
  140.5686   73.7345  218.4517 H   0  0  0  0  0  0  0  0  0  0  0  0
  141.2375   72.3084  221.0118 H   0  0  0  0  0  0  0  0  0  0  0  0
  142.3563   72.7671  219.7099 H   0  0  0  0  0  0  0  0  0  0  0  0
  141.6377   74.2774  222.2285 H   0  0  0  0  0  0  0  0  0  0  0  0
  143.0970   74.4281  221.3097 H   0  0  0  0  0  0  0  0  0  0  0  0
  141.8327   75.7628  219.4844 H   0  0  0  0  0  0  0  0  0  0  0  0
  140.7229   75.9680  223.0099 H   0  0  0  0  0  0  0  0  0  0  0  0
  140.8241   78.0981  224.1992 H   0  0  0  0  0  0  0  0  0  0  0  0
  142.1727   80.0178  220.6316 H   0  0  0  0  0  0  0  0  0  0  0  0
  142.0672   77.8530  219.4207 H   0  0  0  0  0  0  0  0  0  0  0  0
  137.8876   69.5144  222.3630 H   0  0  0  0  0  0  0  0  0  0  0  0
  138.4870   68.0906  224.2962 H   0  0  0  0  0  0  0  0  0  0  0  0
  139.5726   67.8732  226.3730 H   0  0  0  0  0  0  0  0  0  0  0  0
  141.6567   71.2239  228.0772 H   0  0  0  0  0  0  0  0  0  0  0  0
  141.0268   72.6285  226.1114 H   0  0  0  0  0  0  0  0  0  0  0  0
  1  2  2  0
  2  3  1  0
  3  4  1  0
  4  5  1  0
  5  6  2  0
  5  7  1  0
  7  8  1  0
  8  9  1  0
  9 10  1  0
 10 11  1  0
 11 12  1  0
 12 13  2  0
 13 14  1  0
 14 15  2  0
 15 16  1  0
 15 17  1  0
 17 18  2  0
  2 19  1  0
 19 20  2  0
 20 21  1  0
 21 22  2  0
 22 23  1  0
 23 24  2  0
 24 25  1  0
 24 26  1  0
 26 27  2  0
 27 28  1  0
 28 29  2  0
 11  7  1  0
 18 12  1  0
 29 19  1  0
 28 22  1  0
  3 30  1  0
  4 31  1  0
  4 32  1  0
  8 33  1  0
  8 34  1  0
  9 35  1  0
  9 36  1  0
 10 37  1  0
 10 38  1  0
 11 39  1  6
 13 40  1  0
 14 41  1  0
 17 42  1  0
 18 43  1  0
 20 44  1  0
 21 45  1  0
 23 46  1  0
 26 47  1  0
 27 48  1  0
M  END
>  <smiles>  (26) 
O=C(NCC(=O)N1CCCC1c1ccc(Br)cc1)c1ccc2cc(Cl)ccc2n1

>  <score_type>  (26) 
oracle

>  <origin>  (26) 
autodockgpu

>  <m_score__min__energy>  (26) 
-8.4399999999999995

>  <m_primary>  (26) 
energy

>  <rmsd>  (26) 
2.097242655526755

>  <m_score__min__rmsd>  (26) 
2.097242655526755

>  <meeko>  (26) 
{"free_energy": -8.18, "intermolecular_energy": -9.67, "internal_energy": -1.88, "cluster_size": 29, "cluster_id": 1, "rank_in_cluster": 12}

>  <energy>  (26) 
-7.54

>  <cluster_rmsd>  (26) 
1.16

>  <cluster>  (26) 
1

$$$$

     RDKit          3D

 48 51  0  0  0  0  0  0  0  0999 V2000
  139.4300   71.7880  220.7380 O   0  0  0  0  0  0  0  0  0  0  0  0
  139.5150   72.2810  221.9090 C   0  0  0  0  0  0  0  0  0  0  0  0
  139.4160   73.7020  222.1130 N   0  0  0  0  0  0  0  0  0  0  0  0
  139.2170   74.5960  220.9890 C   0  0  0  0  0  0  0  0  0  0  0  0
  140.3700   74.5550  220.0490 C   0  0  0  0  0  0  0  0  0  0  0  0
  140.2590   73.7800  219.0670 O   0  0  0  0  0  0  0  0  0  0  0  0
  141.4740   75.3750  220.3270 N   0  0  0  0  0  0  0  0  0  0  0  0
  141.4400   76.8300  220.6250 C   0  0  0  0  0  0  0  0  0  0  0  0
  142.5670   77.3040  219.7230 C   0  0  0  0  0  0  0  0  0  0  0  0
  143.3730   76.0580  219.3250 C   0  0  0  0  0  0  0  0  0  0  0  0
  142.9050   75.0930  220.3940 C   0  0  2  0  0  0  0  0  0  0  0  0
  143.2990   73.7190  220.1470 C   0  0  0  0  0  0  0  0  0  0  0  0
  144.2670   73.3780  219.2050 C   0  0  0  0  0  0  0  0  0  0  0  0
  144.6680   72.0880  218.9780 C   0  0  0  0  0  0  0  0  0  0  0  0
  144.1150   71.0640  219.6870 C   0  0  0  0  0  0  0  0  0  0  0  0
  144.6990   69.2750  219.3430 Br  0  0  0  0  0  0  0  0  0  0  0  0
  143.1550   71.3510  220.6290 C   0  0  0  0  0  0  0  0  0  0  0  0
  142.7520   72.6710  220.8550 C   0  0  0  0  0  0  0  0  0  0  0  0
  139.7150   71.4260  223.0700 C   0  0  0  0  0  0  0  0  0  0  0  0
  139.3710   70.0890  222.9930 C   0  0  0  0  0  0  0  0  0  0  0  0
  139.5240   69.2080  224.0400 C   0  0  0  0  0  0  0  0  0  0  0  0
  140.0500   69.7150  225.2110 C   0  0  0  0  0  0  0  0  0  0  0  0
  140.2100   68.8490  226.2680 C   0  0  0  0  0  0  0  0  0  0  0  0
  140.7330   69.3270  227.4510 C   0  0  0  0  0  0  0  0  0  0  0  0
  140.9330   68.2130  228.7940 Cl  0  0  0  0  0  0  0  0  0  0  0  0
  141.0840   70.6630  227.5490 C   0  0  0  0  0  0  0  0  0  0  0  0
  140.9140   71.5310  226.4640 C   0  0  0  0  0  0  0  0  0  0  0  0
  140.3940   71.0490  225.2890 C   0  0  0  0  0  0  0  0  0  0  0  0
  140.2270   71.8890  224.2340 N   0  0  0  0  0  0  0  0  0  0  0  0
  139.4940   74.0580  223.1110 H   0  0  0  0  0  0  0  0  0  0  0  0
  138.3059   74.2960  220.4505 H   0  0  0  0  0  0  0  0  0  0  0  0
  139.1233   75.6214  221.3759 H   0  0  0  0  0  0  0  0  0  0  0  0
  140.4763   77.2821  220.3478 H   0  0  0  0  0  0  0  0  0  0  0  0
  141.5532   77.0905  221.6877 H   0  0  0  0  0  0  0  0  0  0  0  0
  142.1551   77.7905  218.8266 H   0  0  0  0  0  0  0  0  0  0  0  0
  143.2039   78.0368  220.2401 H   0  0  0  0  0  0  0  0  0  0  0  0
  143.1119   75.7076  218.3155 H   0  0  0  0  0  0  0  0  0  0  0  0
  144.4620   76.2052  219.2769 H   0  0  0  0  0  0  0  0  0  0  0  0
  143.3393   75.2200  221.3966 H   0  0  0  0  0  0  0  0  0  0  0  0
  144.7312   74.1825  218.6157 H   0  0  0  0  0  0  0  0  0  0  0  0
  145.4384   71.8781  218.2214 H   0  0  0  0  0  0  0  0  0  0  0  0
  142.7001   70.5351  221.2098 H   0  0  0  0  0  0  0  0  0  0  0  0
  141.9825   72.8769  221.6136 H   0  0  0  0  0  0  0  0  0  0  0  0
  138.9543   69.7103  222.0481 H   0  0  0  0  0  0  0  0  0  0  0  0
  139.2402   68.1493  223.9475 H   0  0  0  0  0  0  0  0  0  0  0  0
  139.9250   67.7910  226.1709 H   0  0  0  0  0  0  0  0  0  0  0  0
  141.5017   71.0470  228.4914 H   0  0  0  0  0  0  0  0  0  0  0  0
  141.1949   72.5908  226.5525 H   0  0  0  0  0  0  0  0  0  0  0  0
  1  2  2  0
  2  3  1  0
  3  4  1  0
  4  5  1  0
  5  6  2  0
  5  7  1  0
  7  8  1  0
  8  9  1  0
  9 10  1  0
 10 11  1  0
 11 12  1  0
 12 13  2  0
 13 14  1  0
 14 15  2  0
 15 16  1  0
 15 17  1  0
 17 18  2  0
  2 19  1  0
 19 20  2  0
 20 21  1  0
 21 22  2  0
 22 23  1  0
 23 24  2  0
 24 25  1  0
 24 26  1  0
 26 27  2  0
 27 28  1  0
 28 29  2  0
 11  7  1  0
 18 12  1  0
 29 19  1  0
 28 22  1  0
  3 30  1  0
  4 31  1  0
  4 32  1  0
  8 33  1  0
  8 34  1  0
  9 35  1  0
  9 36  1  0
 10 37  1  0
 10 38  1  0
 11 39  1  1
 13 40  1  0
 14 41  1  0
 17 42  1  0
 18 43  1  0
 20 44  1  0
 21 45  1  0
 23 46  1  0
 26 47  1  0
 27 48  1  0
M  END
>  <smiles>  (27) 
O=C(NCC(=O)N1CCCC1c1ccc(Br)cc1)c1ccc2cc(Cl)ccc2n1

>  <score_type>  (27) 
oracle

>  <origin>  (27) 
autodockgpu

>  <m_score__min__energy>  (27) 
-8.4399999999999995

>  <m_primary>  (27) 
energy

>  <rmsd>  (27) 
2.2396623645912888

>  <m_score__min__rmsd>  (27) 
2.2396623645912888

>  <meeko>  (27) 
{"free_energy": -7.84, "intermolecular_energy": -9.34, "internal_energy": -2.02, "cluster_size": 8, "cluster_id": 4, "rank_in_cluster": 6}

>  <energy>  (27) 
-7.53

>  <cluster_rmsd>  (27) 
1.37

>  <cluster>  (27) 
1

$$$$

     RDKit          3D

 48 51  0  0  0  0  0  0  0  0999 V2000
  137.4550   71.6840  220.9650 O   0  0  0  0  0  0  0  0  0  0  0  0
  137.4590   72.5020  221.9400 C   0  0  0  0  0  0  0  0  0  0  0  0
  136.5630   72.3190  223.0510 N   0  0  0  0  0  0  0  0  0  0  0  0
  135.6420   71.2000  223.0790 C   0  0  0  0  0  0  0  0  0  0  0  0
  136.2920   69.9710  223.6090 C   0  0  0  0  0  0  0  0  0  0  0  0
  135.9120   69.5870  224.7430 O   0  0  0  0  0  0  0  0  0  0  0  0
  137.2650   69.3460  222.8140 N   0  0  0  0  0  0  0  0  0  0  0  0
  137.0300   68.6270  221.5360 C   0  0  0  0  0  0  0  0  0  0  0  0
  137.8540   67.3760  221.7880 C   0  0  0  0  0  0  0  0  0  0  0  0
  138.7760   67.6830  222.9790 C   0  0  0  0  0  0  0  0  0  0  0  0
  138.7080   69.1960  222.9770 C   0  0  2  0  0  0  0  0  0  0  0  0
  139.2850   69.8030  224.1610 C   0  0  0  0  0  0  0  0  0  0  0  0
  139.9580   71.0220  224.1210 C   0  0  0  0  0  0  0  0  0  0  0  0
  140.4880   71.6210  225.2340 C   0  0  0  0  0  0  0  0  0  0  0  0
  140.3720   71.0250  226.4530 C   0  0  0  0  0  0  0  0  0  0  0  0
  141.1240   71.8890  227.9850 Br  0  0  0  0  0  0  0  0  0  0  0  0
  139.7150   69.8190  226.5430 C   0  0  0  0  0  0  0  0  0  0  0  0
  139.1770   69.2150  225.4020 C   0  0  0  0  0  0  0  0  0  0  0  0
  138.3650   73.6420  221.9610 C   0  0  0  0  0  0  0  0  0  0  0  0
  139.6860   73.4610  221.5990 C   0  0  0  0  0  0  0  0  0  0  0  0
  140.6130   74.4800  221.5890 C   0  0  0  0  0  0  0  0  0  0  0  0
  140.1690   75.7310  221.9640 C   0  0  0  0  0  0  0  0  0  0  0  0
  141.0810   76.7610  221.9600 C   0  0  0  0  0  0  0  0  0  0  0  0
  140.6670   78.0230  222.3310 C   0  0  0  0  0  0  0  0  0  0  0  0
  141.8390   79.3310  222.3230 Cl  0  0  0  0  0  0  0  0  0  0  0  0
  139.3460   78.2250  222.6970 C   0  0  0  0  0  0  0  0  0  0  0  0
  138.4310   77.1650  222.6960 C   0  0  0  0  0  0  0  0  0  0  0  0
  138.8500   75.9120  222.3260 C   0  0  0  0  0  0  0  0  0  0  0  0
  137.9630   74.8820  222.3240 N   0  0  0  0  0  0  0  0  0  0  0  0
  136.6090   73.0320  223.8380 H   0  0  0  0  0  0  0  0  0  0  0  0
  134.7867   71.4572  223.7212 H   0  0  0  0  0  0  0  0  0  0  0  0
  135.3123   70.9989  222.0490 H   0  0  0  0  0  0  0  0  0  0  0  0
  135.9654   68.3928  221.3881 H   0  0  0  0  0  0  0  0  0  0  0  0
  137.3014   69.1882  220.6297 H   0  0  0  0  0  0  0  0  0  0  0  0
  137.1936   66.5299  222.0287 H   0  0  0  0  0  0  0  0  0  0  0  0
  138.4384   67.1026  220.8971 H   0  0  0  0  0  0  0  0  0  0  0  0
  138.3882   67.2577  223.9164 H   0  0  0  0  0  0  0  0  0  0  0  0
  139.7899   67.2635  222.9017 H   0  0  0  0  0  0  0  0  0  0  0  0
  139.3010   69.7152  222.2097 H   0  0  0  0  0  0  0  0  0  0  0  0
  140.0693   71.5276  223.1505 H   0  0  0  0  0  0  0  0  0  0  0  0
  141.0085   72.5857  225.1424 H   0  0  0  0  0  0  0  0  0  0  0  0
  139.6121   69.3258  227.5209 H   0  0  0  0  0  0  0  0  0  0  0  0
  138.6569   68.2505  225.4976 H   0  0  0  0  0  0  0  0  0  0  0  0
  140.0138   72.4532  221.3041 H   0  0  0  0  0  0  0  0  0  0  0  0
  141.6585   74.3043  221.2957 H   0  0  0  0  0  0  0  0  0  0  0  0
  142.1253   76.5805  221.6652 H   0  0  0  0  0  0  0  0  0  0  0  0
  139.0118   79.2306  222.9921 H   0  0  0  0  0  0  0  0  0  0  0  0
  137.3847   77.3355  222.9895 H   0  0  0  0  0  0  0  0  0  0  0  0
  1  2  2  0
  2  3  1  0
  3  4  1  0
  4  5  1  0
  5  6  2  0
  5  7  1  0
  7  8  1  0
  8  9  1  0
  9 10  1  0
 10 11  1  0
 11 12  1  0
 12 13  2  0
 13 14  1  0
 14 15  2  0
 15 16  1  0
 15 17  1  0
 17 18  2  0
  2 19  1  0
 19 20  2  0
 20 21  1  0
 21 22  2  0
 22 23  1  0
 23 24  2  0
 24 25  1  0
 24 26  1  0
 26 27  2  0
 27 28  1  0
 28 29  2  0
 11  7  1  0
 18 12  1  0
 29 19  1  0
 28 22  1  0
  3 30  1  0
  4 31  1  0
  4 32  1  0
  8 33  1  0
  8 34  1  0
  9 35  1  0
  9 36  1  0
 10 37  1  0
 10 38  1  0
 11 39  1  6
 13 40  1  0
 14 41  1  0
 17 42  1  0
 18 43  1  0
 20 44  1  0
 21 45  1  0
 23 46  1  0
 26 47  1  0
 27 48  1  0
M  END
>  <smiles>  (28) 
O=C(NCC(=O)N1CCCC1c1ccc(Br)cc1)c1ccc2cc(Cl)ccc2n1

>  <score_type>  (28) 
oracle

>  <origin>  (28) 
autodockgpu

>  <m_score__min__energy>  (28) 
-8.4399999999999995

>  <m_primary>  (28) 
energy

>  <rmsd>  (28) 
7.570773552826288

>  <m_score__min__rmsd>  (28) 
7.570773552826288

>  <meeko>  (28) 
{"free_energy": -7.67, "intermolecular_energy": -9.16, "internal_energy": -2.27, "cluster_size": 2, "cluster_id": 5, "rank_in_cluster": 1}

>  <energy>  (28) 
-7.52

>  <cluster_rmsd>  (28) 
1.18

>  <cluster>  (28) 
1

$$$$

     RDKit          3D

 48 51  0  0  0  0  0  0  0  0999 V2000
  137.5040   71.8000  220.9150 O   0  0  0  0  0  0  0  0  0  0  0  0
  138.0920   72.3150  221.9190 C   0  0  0  0  0  0  0  0  0  0  0  0
  138.3510   73.7290  221.9700 N   0  0  0  0  0  0  0  0  0  0  0  0
  137.9440   74.5920  220.8770 C   0  0  0  0  0  0  0  0  0  0  0  0
  138.8300   74.4250  219.6930 C   0  0  0  0  0  0  0  0  0  0  0  0
  138.3840   74.8580  218.6010 O   0  0  0  0  0  0  0  0  0  0  0  0
  140.0750   73.8080  219.8840 N   0  0  0  0  0  0  0  0  0  0  0  0
  140.4410   72.4210  219.4970 C   0  0  0  0  0  0  0  0  0  0  0  0
  141.1310   71.9700  220.7730 C   0  0  0  0  0  0  0  0  0  0  0  0
  141.4410   73.2390  221.5830 C   0  0  0  0  0  0  0  0  0  0  0  0
  141.3140   74.2820  220.4930 C   0  0  2  0  0  0  0  0  0  0  0  0
  141.3030   75.6440  220.9920 C   0  0  0  0  0  0  0  0  0  0  0  0
  141.8330   76.7080  220.2660 C   0  0  0  0  0  0  0  0  0  0  0  0
  141.8080   78.0030  220.7120 C   0  0  0  0  0  0  0  0  0  0  0  0
  141.2480   78.3020  221.9180 C   0  0  0  0  0  0  0  0  0  0  0  0
  141.2310   80.1210  222.5100 Br  0  0  0  0  0  0  0  0  0  0  0  0
  140.7120   77.2840  222.6710 C   0  0  0  0  0  0  0  0  0  0  0  0
  140.7410   75.9640  222.2080 C   0  0  0  0  0  0  0  0  0  0  0  0
  138.5190   71.4920  223.0420 C   0  0  0  0  0  0  0  0  0  0  0  0
  137.8950   70.2800  223.2680 C   0  0  0  0  0  0  0  0  0  0  0  0
  138.2320   69.4380  224.3040 C   0  0  0  0  0  0  0  0  0  0  0  0
  139.2480   69.8530  225.1410 C   0  0  0  0  0  0  0  0  0  0  0  0
  139.5990   69.0250  226.1810 C   0  0  0  0  0  0  0  0  0  0  0  0
  140.6100   69.4130  227.0350 C   0  0  0  0  0  0  0  0  0  0  0  0
  141.0490   68.3480  228.3600 Cl  0  0  0  0  0  0  0  0  0  0  0  0
  141.2480   70.6250  226.8250 C   0  0  0  0  0  0  0  0  0  0  0  0
  140.8780   71.4560  225.7620 C   0  0  0  0  0  0  0  0  0  0  0  0
  139.8720   71.0630  224.9160 C   0  0  0  0  0  0  0  0  0  0  0  0
  139.5110   71.8690  223.8830 N   0  0  0  0  0  0  0  0  0  0  0  0
  138.8440   74.1050  222.8320 H   0  0  0  0  0  0  0  0  0  0  0  0
  136.9120   74.3425  220.5895 H   0  0  0  0  0  0  0  0  0  0  0  0
  138.0137   75.6360  221.2164 H   0  0  0  0  0  0  0  0  0  0  0  0
  139.5533   71.8107  219.2743 H   0  0  0  0  0  0  0  0  0  0  0  0
  141.0497   72.3378  218.5846 H   0  0  0  0  0  0  0  0  0  0  0  0
  140.4681   71.3065  221.3477 H   0  0  0  0  0  0  0  0  0  0  0  0
  142.0513   71.4112  220.5476 H   0  0  0  0  0  0  0  0  0  0  0  0
  140.7090   73.3986  222.3884 H   0  0  0  0  0  0  0  0  0  0  0  0
  142.4084   73.2305  222.1066 H   0  0  0  0  0  0  0  0  0  0  0  0
  142.1551   74.3633  219.7888 H   0  0  0  0  0  0  0  0  0  0  0  0
  142.2931   76.4987  219.2890 H   0  0  0  0  0  0  0  0  0  0  0  0
  142.2412   78.8039  220.0949 H   0  0  0  0  0  0  0  0  0  0  0  0
  140.2562   77.5094  223.6464 H   0  0  0  0  0  0  0  0  0  0  0  0
  140.3062   75.1658  222.8276 H   0  0  0  0  0  0  0  0  0  0  0  0
  137.0886   69.9724  222.5860 H   0  0  0  0  0  0  0  0  0  0  0  0
  137.7154   68.4790  224.4575 H   0  0  0  0  0  0  0  0  0  0  0  0
  139.0806   68.0663  226.3298 H   0  0  0  0  0  0  0  0  0  0  0  0
  142.0559   70.9378  227.5029 H   0  0  0  0  0  0  0  0  0  0  0  0
  141.3898   72.4171  225.6057 H   0  0  0  0  0  0  0  0  0  0  0  0
  1  2  2  0
  2  3  1  0
  3  4  1  0
  4  5  1  0
  5  6  2  0
  5  7  1  0
  7  8  1  0
  8  9  1  0
  9 10  1  0
 10 11  1  0
 11 12  1  0
 12 13  2  0
 13 14  1  0
 14 15  2  0
 15 16  1  0
 15 17  1  0
 17 18  2  0
  2 19  1  0
 19 20  2  0
 20 21  1  0
 21 22  2  0
 22 23  1  0
 23 24  2  0
 24 25  1  0
 24 26  1  0
 26 27  2  0
 27 28  1  0
 28 29  2  0
 11  7  1  0
 18 12  1  0
 29 19  1  0
 28 22  1  0
  3 30  1  0
  4 31  1  0
  4 32  1  0
  8 33  1  0
  8 34  1  0
  9 35  1  0
  9 36  1  0
 10 37  1  0
 10 38  1  0
 11 39  1  6
 13 40  1  0
 14 41  1  0
 17 42  1  0
 18 43  1  0
 20 44  1  0
 21 45  1  0
 23 46  1  0
 26 47  1  0
 27 48  1  0
M  END
>  <smiles>  (29) 
O=C(NCC(=O)N1CCCC1c1ccc(Br)cc1)c1ccc2cc(Cl)ccc2n1

>  <score_type>  (29) 
oracle

>  <origin>  (29) 
autodockgpu

>  <m_score__min__energy>  (29) 
-8.4399999999999995

>  <m_primary>  (29) 
energy

>  <rmsd>  (29) 
2.707808524540009

>  <m_score__min__rmsd>  (29) 
2.707808524540009

>  <meeko>  (29) 
{"free_energy": -7.52, "intermolecular_energy": -9.01, "internal_energy": -2.34, "cluster_size": 29, "cluster_id": 1, "rank_in_cluster": 28}

>  <energy>  (29) 
-7.49

>  <cluster_rmsd>  (29) 
1.17

>  <cluster>  (29) 
1

$$$$

     RDKit          3D

 48 51  0  0  0  0  0  0  0  0999 V2000
  138.9570   71.5290  220.6850 O   0  0  0  0  0  0  0  0  0  0  0  0
  138.6620   71.9300  221.8560 C   0  0  0  0  0  0  0  0  0  0  0  0
  137.9470   73.1640  222.0480 N   0  0  0  0  0  0  0  0  0  0  0  0
  137.5500   73.9700  220.9100 C   0  0  0  0  0  0  0  0  0  0  0  0
  138.6420   74.8880  220.4840 C   0  0  0  0  0  0  0  0  0  0  0  0
  138.9160   74.8940  219.2580 O   0  0  0  0  0  0  0  0  0  0  0  0
  139.2710   75.6630  221.4700 N   0  0  0  0  0  0  0  0  0  0  0  0
  138.6310   76.7000  222.3190 C   0  0  0  0  0  0  0  0  0  0  0  0
  139.6600   77.8100  222.1910 C   0  0  0  0  0  0  0  0  0  0  0  0
  140.9400   77.1670  221.6340 C   0  0  0  0  0  0  0  0  0  0  0  0
  140.6540   75.7120  221.9360 C   0  0  2  0  0  0  0  0  0  0  0  0
  141.5780   74.7950  221.2970 C   0  0  0  0  0  0  0  0  0  0  0  0
  141.5070   73.4160  221.4810 C   0  0  0  0  0  0  0  0  0  0  0  0
  142.3570   72.5350  220.8660 C   0  0  0  0  0  0  0  0  0  0  0  0
  143.3300   72.9920  220.0290 C   0  0  0  0  0  0  0  0  0  0  0  0
  144.4990   71.7330  219.1880 Br  0  0  0  0  0  0  0  0  0  0  0  0
  143.4390   74.3460  219.8150 C   0  0  0  0  0  0  0  0  0  0  0  0
  142.5670   75.2390  220.4470 C   0  0  0  0  0  0  0  0  0  0  0  0
  139.0360   71.1570  223.0310 C   0  0  0  0  0  0  0  0  0  0  0  0
  138.7110   69.8150  223.0890 C   0  0  0  0  0  0  0  0  0  0  0  0
  139.0240   69.0070  224.1590 C   0  0  0  0  0  0  0  0  0  0  0  0
  139.6970   69.5950  225.2100 C   0  0  0  0  0  0  0  0  0  0  0  0
  140.0190   68.8040  226.2880 C   0  0  0  0  0  0  0  0  0  0  0  0
  140.6910   69.3650  227.3540 C   0  0  0  0  0  0  0  0  0  0  0  0
  141.0960   68.3450  228.7250 Cl  0  0  0  0  0  0  0  0  0  0  0  0
  141.0260   70.7080  227.3150 C   0  0  0  0  0  0  0  0  0  0  0  0
  140.6910   71.5000  226.2110 C   0  0  0  0  0  0  0  0  0  0  0  0
  140.0220   70.9350  225.1530 C   0  0  0  0  0  0  0  0  0  0  0  0
  139.6960   71.7020  224.0790 N   0  0  0  0  0  0  0  0  0  0  0  0
  137.7250   73.4500  223.0460 H   0  0  0  0  0  0  0  0  0  0  0  0
  137.2953   73.3044  220.0721 H   0  0  0  0  0  0  0  0  0  0  0  0
  136.6824   74.5789  221.2042 H   0  0  0  0  0  0  0  0  0  0  0  0
  137.6503   77.0038  221.9242 H   0  0  0  0  0  0  0  0  0  0  0  0
  138.4108   76.3863  223.3501 H   0  0  0  0  0  0  0  0  0  0  0  0
  139.2957   78.5865  221.5023 H   0  0  0  0  0  0  0  0  0  0  0  0
  139.8491   78.2869  223.1640 H   0  0  0  0  0  0  0  0  0  0  0  0
  141.0506   77.3460  220.5543 H   0  0  0  0  0  0  0  0  0  0  0  0
  141.8771   77.5539  222.0608 H   0  0  0  0  0  0  0  0  0  0  0  0
  140.7856   75.3904  222.9797 H   0  0  0  0  0  0  0  0  0  0  0  0
  140.7322   73.0157  222.1515 H   0  0  0  0  0  0  0  0  0  0  0  0
  142.2535   71.4552  221.0486 H   0  0  0  0  0  0  0  0  0  0  0  0
  144.2187   74.7304  219.1409 H   0  0  0  0  0  0  0  0  0  0  0  0
  142.6733   76.3180  220.2614 H   0  0  0  0  0  0  0  0  0  0  0  0
  138.1753   69.3700  222.2375 H   0  0  0  0  0  0  0  0  0  0  0  0
  138.7501   67.9418  224.1751 H   0  0  0  0  0  0  0  0  0  0  0  0
  139.7445   67.7389  226.2999 H   0  0  0  0  0  0  0  0  0  0  0  0
  141.5626   71.1583  228.1631 H   0  0  0  0  0  0  0  0  0  0  0  0
  140.9612   72.5661  226.1908 H   0  0  0  0  0  0  0  0  0  0  0  0
  1  2  2  0
  2  3  1  0
  3  4  1  0
  4  5  1  0
  5  6  2  0
  5  7  1  0
  7  8  1  0
  8  9  1  0
  9 10  1  0
 10 11  1  0
 11 12  1  0
 12 13  2  0
 13 14  1  0
 14 15  2  0
 15 16  1  0
 15 17  1  0
 17 18  2  0
  2 19  1  0
 19 20  2  0
 20 21  1  0
 21 22  2  0
 22 23  1  0
 23 24  2  0
 24 25  1  0
 24 26  1  0
 26 27  2  0
 27 28  1  0
 28 29  2  0
 11  7  1  0
 18 12  1  0
 29 19  1  0
 28 22  1  0
  3 30  1  0
  4 31  1  0
  4 32  1  0
  8 33  1  0
  8 34  1  0
  9 35  1  0
  9 36  1  0
 10 37  1  0
 10 38  1  0
 11 39  1  1
 13 40  1  0
 14 41  1  0
 17 42  1  0
 18 43  1  0
 20 44  1  0
 21 45  1  0
 23 46  1  0
 26 47  1  0
 27 48  1  0
M  END
>  <smiles>  (30) 
O=C(NCC(=O)N1CCCC1c1ccc(Br)cc1)c1ccc2cc(Cl)ccc2n1

>  <score_type>  (30) 
oracle

>  <origin>  (30) 
autodockgpu

>  <m_score__min__energy>  (30) 
-8.4399999999999995

>  <m_primary>  (30) 
energy

>  <rmsd>  (30) 
2.3769444026090865

>  <m_score__min__rmsd>  (30) 
2.3769444026090865

>  <meeko>  (30) 
{"free_energy": -7.74, "intermolecular_energy": -9.23, "internal_energy": -2.11, "cluster_size": 8, "cluster_id": 4, "rank_in_cluster": 7}

>  <energy>  (30) 
-8.15

>  <cluster_rmsd>  (30) 
0.0

>  <cluster>  (30) 
2

$$$$

     RDKit          3D

 48 51  0  0  0  0  0  0  0  0999 V2000
  137.8990   71.1100  220.9450 O   0  0  0  0  0  0  0  0  0  0  0  0
  138.2000   71.6970  222.0340 C   0  0  0  0  0  0  0  0  0  0  0  0
  138.0660   73.1240  222.1560 N   0  0  0  0  0  0  0  0  0  0  0  0
  137.5870   73.9180  221.0410 C   0  0  0  0  0  0  0  0  0  0  0  0
  138.6130   74.8950  220.5860 C   0  0  0  0  0  0  0  0  0  0  0  0
  138.2620   76.1010  220.5680 O   0  0  0  0  0  0  0  0  0  0  0  0
  139.8740   74.4010  220.2190 N   0  0  0  0  0  0  0  0  0  0  0  0
  140.1520   73.1100  219.5400 C   0  0  0  0  0  0  0  0  0  0  0  0
  141.3020   72.6090  220.3970 C   0  0  0  0  0  0  0  0  0  0  0  0
  141.8150   73.8140  221.2000 C   0  0  0  0  0  0  0  0  0  0  0  0
  141.2190   74.9430  220.3860 C   0  0  2  0  0  0  0  0  0  0  0  0
  141.3130   76.2370  221.0340 C   0  0  0  0  0  0  0  0  0  0  0  0
  141.7480   77.3780  220.3620 C   0  0  0  0  0  0  0  0  0  0  0  0
  141.8190   78.6120  220.9530 C   0  0  0  0  0  0  0  0  0  0  0  0
  141.4550   78.7690  222.2570 C   0  0  0  0  0  0  0  0  0  0  0  0
  141.5670   80.5070  223.0490 Br  0  0  0  0  0  0  0  0  0  0  0  0
  141.0180   77.6720  222.9610 C   0  0  0  0  0  0  0  0  0  0  0  0
  140.9490   76.4150  222.3510 C   0  0  0  0  0  0  0  0  0  0  0  0
  138.6840   70.9450  223.1830 C   0  0  0  0  0  0  0  0  0  0  0  0
  138.3960   69.5970  223.2790 C   0  0  0  0  0  0  0  0  0  0  0  0
  138.8120   68.8080  224.3280 C   0  0  0  0  0  0  0  0  0  0  0  0
  139.5530   69.4240  225.3170 C   0  0  0  0  0  0  0  0  0  0  0  0
  139.9770   68.6520  226.3730 C   0  0  0  0  0  0  0  0  0  0  0  0
  140.7180   69.2400  227.3770 C   0  0  0  0  0  0  0  0  0  0  0  0
  141.2550   68.2450  228.7210 Cl  0  0  0  0  0  0  0  0  0  0  0  0
  141.0180   70.5900  227.2990 C   0  0  0  0  0  0  0  0  0  0  0  0
  140.5770   71.3610  226.2170 C   0  0  0  0  0  0  0  0  0  0  0  0
  139.8410   70.7700  225.2220 C   0  0  0  0  0  0  0  0  0  0  0  0
  139.4120   71.5170  224.1700 N   0  0  0  0  0  0  0  0  0  0  0  0
  138.3300   73.5610  223.0880 H   0  0  0  0  0  0  0  0  0  0  0  0
  137.3372   73.2471  220.2058 H   0  0  0  0  0  0  0  0  0  0  0  0
  136.7002   74.4782  221.3723 H   0  0  0  0  0  0  0  0  0  0  0  0
  139.2866   72.4322  219.5800 H   0  0  0  0  0  0  0  0  0  0  0  0
  140.3725   73.1878  218.4651 H   0  0  0  0  0  0  0  0  0  0  0  0
  140.9505   71.8211  221.0794 H   0  0  0  0  0  0  0  0  0  0  0  0
  142.1011   72.1808  219.7740 H   0  0  0  0  0  0  0  0  0  0  0  0
  141.4343   73.8092  222.2320 H   0  0  0  0  0  0  0  0  0  0  0  0
  142.9071   73.8578  221.3242 H   0  0  0  0  0  0  0  0  0  0  0  0
  141.7228   75.1875  219.4392 H   0  0  0  0  0  0  0  0  0  0  0  0
  142.0483   77.2833  219.3080 H   0  0  0  0  0  0  0  0  0  0  0  0
  142.1707   79.4783  220.3735 H   0  0  0  0  0  0  0  0  0  0  0  0
  140.7198   77.7837  224.0139 H   0  0  0  0  0  0  0  0  0  0  0  0
  140.5971   75.5514  222.9344 H   0  0  0  0  0  0  0  0  0  0  0  0
  137.8047   69.1308  222.4771 H   0  0  0  0  0  0  0  0  0  0  0  0
  138.5655   67.7370  224.3759 H   0  0  0  0  0  0  0  0  0  0  0  0
  139.7289   67.5812  226.4165 H   0  0  0  0  0  0  0  0  0  0  0  0
  141.6100   71.0620  228.0970 H   0  0  0  0  0  0  0  0  0  0  0  0
  140.8189   72.4328  226.1652 H   0  0  0  0  0  0  0  0  0  0  0  0
  1  2  2  0
  2  3  1  0
  3  4  1  0
  4  5  1  0
  5  6  2  0
  5  7  1  0
  7  8  1  0
  8  9  1  0
  9 10  1  0
 10 11  1  0
 11 12  1  0
 12 13  2  0
 13 14  1  0
 14 15  2  0
 15 16  1  0
 15 17  1  0
 17 18  2  0
  2 19  1  0
 19 20  2  0
 20 21  1  0
 21 22  2  0
 22 23  1  0
 23 24  2  0
 24 25  1  0
 24 26  1  0
 26 27  2  0
 27 28  1  0
 28 29  2  0
 11  7  1  0
 18 12  1  0
 29 19  1  0
 28 22  1  0
  3 30  1  0
  4 31  1  0
  4 32  1  0
  8 33  1  0
  8 34  1  0
  9 35  1  0
  9 36  1  0
 10 37  1  0
 10 38  1  0
 11 39  1  6
 13 40  1  0
 14 41  1  0
 17 42  1  0
 18 43  1  0
 20 44  1  0
 21 45  1  0
 23 46  1  0
 26 47  1  0
 27 48  1  0
M  END
>  <smiles>  (31) 
O=C(NCC(=O)N1CCCC1c1ccc(Br)cc1)c1ccc2cc(Cl)ccc2n1

>  <score_type>  (31) 
oracle

>  <origin>  (31) 
autodockgpu

>  <m_score__min__energy>  (31) 
-8.4399999999999995

>  <m_primary>  (31) 
energy

>  <rmsd>  (31) 
2.225717217994528

>  <m_score__min__rmsd>  (31) 
2.225717217994528

>  <meeko>  (31) 
{"free_energy": -8.02, "intermolecular_energy": -9.51, "internal_energy": -2.0, "cluster_size": 29, "cluster_id": 1, "rank_in_cluster": 14}

>  <energy>  (31) 
-8.13

>  <cluster_rmsd>  (31) 
0.18

>  <cluster>  (31) 
2

$$$$

     RDKit          3D

 48 51  0  0  0  0  0  0  0  0999 V2000
  138.8060   71.5550  220.6700 O   0  0  0  0  0  0  0  0  0  0  0  0
  138.6930   72.0400  221.8420 C   0  0  0  0  0  0  0  0  0  0  0  0
  138.2040   73.3790  222.0340 N   0  0  0  0  0  0  0  0  0  0  0  0
  137.8320   74.1990  220.8970 C   0  0  0  0  0  0  0  0  0  0  0  0
  138.8160   75.2900  220.6660 C   0  0  0  0  0  0  0  0  0  0  0  0
  138.4380   76.4510  220.9620 O   0  0  0  0  0  0  0  0  0  0  0  0
  140.0720   74.9440  220.1440 N   0  0  0  0  0  0  0  0  0  0  0  0
  140.3840   73.7510  219.3150 C   0  0  0  0  0  0  0  0  0  0  0  0
  141.6440   73.2720  220.0150 C   0  0  0  0  0  0  0  0  0  0  0  0
  142.1360   74.4360  220.8900 C   0  0  0  0  0  0  0  0  0  0  0  0
  141.3810   75.5810  220.2500 C   0  0  2  0  0  0  0  0  0  0  0  0
  141.4340   76.8110  221.0160 C   0  0  0  0  0  0  0  0  0  0  0  0
  141.8200   78.0250  220.4510 C   0  0  0  0  0  0  0  0  0  0  0  0
  141.8530   79.2000  221.1550 C   0  0  0  0  0  0  0  0  0  0  0  0
  141.4980   79.2210  222.4710 C   0  0  0  0  0  0  0  0  0  0  0  0
  141.5550   80.8790  223.4220 Br  0  0  0  0  0  0  0  0  0  0  0  0
  141.1090   78.0470  223.0720 C   0  0  0  0  0  0  0  0  0  0  0  0
  141.0790   76.8510  222.3460 C   0  0  0  0  0  0  0  0  0  0  0  0
  139.0530   71.2580  223.0160 C   0  0  0  0  0  0  0  0  0  0  0  0
  138.6810   69.9280  223.0830 C   0  0  0  0  0  0  0  0  0  0  0  0
  138.9770   69.1140  224.1530 C   0  0  0  0  0  0  0  0  0  0  0  0
  139.6820   69.6820  225.1940 C   0  0  0  0  0  0  0  0  0  0  0  0
  139.9860   68.8840  226.2720 C   0  0  0  0  0  0  0  0  0  0  0  0
  140.6890   69.4250  227.3290 C   0  0  0  0  0  0  0  0  0  0  0  0
  141.0720   68.3960  228.6990 Cl  0  0  0  0  0  0  0  0  0  0  0  0
  141.0710   70.7550  227.2800 C   0  0  0  0  0  0  0  0  0  0  0  0
  140.7510   71.5540  226.1760 C   0  0  0  0  0  0  0  0  0  0  0  0
  140.0530   71.0100  225.1290 C   0  0  0  0  0  0  0  0  0  0  0  0
  139.7420   71.7840  224.0550 N   0  0  0  0  0  0  0  0  0  0  0  0
  138.1290   73.7330  223.0330 H   0  0  0  0  0  0  0  0  0  0  0  0
  137.7843   73.5649  219.9995 H   0  0  0  0  0  0  0  0  0  0  0  0
  136.8535   74.6557  221.1066 H   0  0  0  0  0  0  0  0  0  0  0  0
  139.5809   73.0006  219.3595 H   0  0  0  0  0  0  0  0  0  0  0  0
  140.4963   73.9488  218.2388 H   0  0  0  0  0  0  0  0  0  0  0  0
  141.4195   72.3961  220.6413 H   0  0  0  0  0  0  0  0  0  0  0  0
  142.4118   72.9747  219.2856 H   0  0  0  0  0  0  0  0  0  0  0  0
  141.8556   74.3009  221.9450 H   0  0  0  0  0  0  0  0  0  0  0  0
  143.2283   74.5617  220.9236 H   0  0  0  0  0  0  0  0  0  0  0  0
  141.7744   75.9562  219.2937 H   0  0  0  0  0  0  0  0  0  0  0  0
  142.1118   78.0407  219.3905 H   0  0  0  0  0  0  0  0  0  0  0  0
  142.1669   80.1291  220.6568 H   0  0  0  0  0  0  0  0  0  0  0  0
  140.8188   78.0479  224.1330 H   0  0  0  0  0  0  0  0  0  0  0  0
  140.7654   75.9238  222.8480 H   0  0  0  0  0  0  0  0  0  0  0  0
  138.1206   69.4990  222.2393 H   0  0  0  0  0  0  0  0  0  0  0  0
  138.6657   68.0592  224.1769 H   0  0  0  0  0  0  0  0  0  0  0  0
  139.6732   67.8296  226.2914 H   0  0  0  0  0  0  0  0  0  0  0  0
  141.6333   71.1895  228.1197 H   0  0  0  0  0  0  0  0  0  0  0  0
  141.0573   72.6102  226.1488 H   0  0  0  0  0  0  0  0  0  0  0  0
  1  2  2  0
  2  3  1  0
  3  4  1  0
  4  5  1  0
  5  6  2  0
  5  7  1  0
  7  8  1  0
  8  9  1  0
  9 10  1  0
 10 11  1  0
 11 12  1  0
 12 13  2  0
 13 14  1  0
 14 15  2  0
 15 16  1  0
 15 17  1  0
 17 18  2  0
  2 19  1  0
 19 20  2  0
 20 21  1  0
 21 22  2  0
 22 23  1  0
 23 24  2  0
 24 25  1  0
 24 26  1  0
 26 27  2  0
 27 28  1  0
 28 29  2  0
 11  7  1  0
 18 12  1  0
 29 19  1  0
 28 22  1  0
  3 30  1  0
  4 31  1  0
  4 32  1  0
  8 33  1  0
  8 34  1  0
  9 35  1  0
  9 36  1  0
 10 37  1  0
 10 38  1  0
 11 39  1  6
 13 40  1  0
 14 41  1  0
 17 42  1  0
 18 43  1  0
 20 44  1  0
 21 45  1  0
 23 46  1  0
 26 47  1  0
 27 48  1  0
M  END
>  <smiles>  (32) 
O=C(NCC(=O)N1CCCC1c1ccc(Br)cc1)c1ccc2cc(Cl)ccc2n1

>  <score_type>  (32) 
oracle

>  <origin>  (32) 
autodockgpu

>  <m_score__min__energy>  (32) 
-8.4399999999999995

>  <m_primary>  (32) 
energy

>  <rmsd>  (32) 
1.9831197837083943

>  <m_score__min__rmsd>  (32) 
1.9831197837083943

>  <meeko>  (32) 
{"free_energy": -8.33, "intermolecular_energy": -9.83, "internal_energy": -1.77, "cluster_size": 29, "cluster_id": 1, "rank_in_cluster": 6}

>  <energy>  (32) 
-8.13

>  <cluster_rmsd>  (32) 
0.2

>  <cluster>  (32) 
2

$$$$

     RDKit          3D

 48 51  0  0  0  0  0  0  0  0999 V2000
  134.1050   70.1550  226.4060 O   0  0  0  0  0  0  0  0  0  0  0  0
  134.1700   71.2810  225.8170 C   0  0  0  0  0  0  0  0  0  0  0  0
  134.9290   71.4290  224.6040 N   0  0  0  0  0  0  0  0  0  0  0  0
  135.6310   70.2960  224.0310 C   0  0  0  0  0  0  0  0  0  0  0  0
  136.6520   70.7310  223.0400 C   0  0  0  0  0  0  0  0  0  0  0  0
  136.6620   71.9550  222.7540 O   0  0  0  0  0  0  0  0  0  0  0  0
  137.5120   69.7570  222.5110 N   0  0  0  0  0  0  0  0  0  0  0  0
  137.2970   68.9730  221.2670 C   0  0  0  0  0  0  0  0  0  0  0  0
  137.6430   67.5840  221.7740 C   0  0  0  0  0  0  0  0  0  0  0  0
  138.3900   67.7700  223.1040 C   0  0  0  0  0  0  0  0  0  0  0  0
  138.7880   69.2250  222.9790 C   0  0  2  0  0  0  0  0  0  0  0  0
  139.3060   69.7920  224.2090 C   0  0  0  0  0  0  0  0  0  0  0  0
  139.0630   69.2190  225.4560 C   0  0  0  0  0  0  0  0  0  0  0  0
  139.5650   69.7290  226.6240 C   0  0  0  0  0  0  0  0  0  0  0  0
  140.3410   70.8480  226.6050 C   0  0  0  0  0  0  0  0  0  0  0  0
  141.0250   71.5330  228.2560 Br  0  0  0  0  0  0  0  0  0  0  0  0
  140.6090   71.4500  225.3980 C   0  0  0  0  0  0  0  0  0  0  0  0
  140.0920   70.9230  224.2090 C   0  0  0  0  0  0  0  0  0  0  0  0
  133.4830   72.4490  226.3510 C   0  0  0  0  0  0  0  0  0  0  0  0
  132.2730   72.2840  226.9980 C   0  0  0  0  0  0  0  0  0  0  0  0
  131.5540   73.3290  227.5330 C   0  0  0  0  0  0  0  0  0  0  0  0
  132.0950   74.5920  227.4010 C   0  0  0  0  0  0  0  0  0  0  0  0
  131.3900   75.6490  227.9290 C   0  0  0  0  0  0  0  0  0  0  0  0
  131.9050   76.9230  227.8110 C   0  0  0  0  0  0  0  0  0  0  0  0
  130.9970   78.2640  228.4880 Cl  0  0  0  0  0  0  0  0  0  0  0  0
  133.1160   77.1090  227.1650 C   0  0  0  0  0  0  0  0  0  0  0  0
  133.8200   76.0220  226.6320 C   0  0  0  0  0  0  0  0  0  0  0  0
  133.3020   74.7580  226.7540 C   0  0  0  0  0  0  0  0  0  0  0  0
  133.9840   73.7010  226.2380 N   0  0  0  0  0  0  0  0  0  0  0  0
  134.9490   72.3910  224.1540 H   0  0  0  0  0  0  0  0  0  0  0  0
  136.1305   69.7398  224.8379 H   0  0  0  0  0  0  0  0  0  0  0  0
  134.8967   69.6610  223.5137 H   0  0  0  0  0  0  0  0  0  0  0  0
  136.2550   69.0340  220.9199 H   0  0  0  0  0  0  0  0  0  0  0  0
  137.8810   69.3100  220.3978 H   0  0  0  0  0  0  0  0  0  0  0  0
  136.7249   66.9997  221.9339 H   0  0  0  0  0  0  0  0  0  0  0  0
  138.2633   67.0412  221.0456 H   0  0  0  0  0  0  0  0  0  0  0  0
  137.7324   67.5993  223.9691 H   0  0  0  0  0  0  0  0  0  0  0  0
  139.2251   67.0732  223.2684 H   0  0  0  0  0  0  0  0  0  0  0  0
  139.6363   69.4488  222.3154 H   0  0  0  0  0  0  0  0  0  0  0  0
  138.4387   68.3146  225.5045 H   0  0  0  0  0  0  0  0  0  0  0  0
  139.3407   69.2333  227.5800 H   0  0  0  0  0  0  0  0  0  0  0  0
  141.2353   72.3538  225.3667 H   0  0  0  0  0  0  0  0  0  0  0  0
  140.3180   71.4222  223.2552 H   0  0  0  0  0  0  0  0  0  0  0  0
  131.8640   71.2670  227.0901 H   0  0  0  0  0  0  0  0  0  0  0  0
  130.5928   73.1651  228.0421 H   0  0  0  0  0  0  0  0  0  0  0  0
  130.4295   75.4804  228.4379 H   0  0  0  0  0  0  0  0  0  0  0  0
  133.5301   78.1236  227.0694 H   0  0  0  0  0  0  0  0  0  0  0  0
  134.7804   76.1807  226.1198 H   0  0  0  0  0  0  0  0  0  0  0  0
  1  2  2  0
  2  3  1  0
  3  4  1  0
  4  5  1  0
  5  6  2  0
  5  7  1  0
  7  8  1  0
  8  9  1  0
  9 10  1  0
 10 11  1  0
 11 12  1  0
 12 13  2  0
 13 14  1  0
 14 15  2  0
 15 16  1  0
 15 17  1  0
 17 18  2  0
  2 19  1  0
 19 20  2  0
 20 21  1  0
 21 22  2  0
 22 23  1  0
 23 24  2  0
 24 25  1  0
 24 26  1  0
 26 27  2  0
 27 28  1  0
 28 29  2  0
 11  7  1  0
 18 12  1  0
 29 19  1  0
 28 22  1  0
  3 30  1  0
  4 31  1  0
  4 32  1  0
  8 33  1  0
  8 34  1  0
  9 35  1  0
  9 36  1  0
 10 37  1  0
 10 38  1  0
 11 39  1  6
 13 40  1  0
 14 41  1  0
 17 42  1  0
 18 43  1  0
 20 44  1  0
 21 45  1  0
 23 46  1  0
 26 47  1  0
 27 48  1  0
M  END
>  <smiles>  (33) 
O=C(NCC(=O)N1CCCC1c1ccc(Br)cc1)c1ccc2cc(Cl)ccc2n1

>  <score_type>  (33) 
oracle

>  <origin>  (33) 
autodockgpu

>  <m_score__min__energy>  (33) 
-8.4399999999999995

>  <m_primary>  (33) 
energy

>  <rmsd>  (33) 
8.49982496971568

>  <m_score__min__rmsd>  (33) 
8.49982496971568

>  <meeko>  (33) 
{"free_energy": -8.02, "intermolecular_energy": -9.51, "internal_energy": -2.04, "cluster_size": 9, "cluster_id": 2, "rank_in_cluster": 6}

>  <energy>  (33) 
-8.1

>  <cluster_rmsd>  (33) 
0.22

>  <cluster>  (33) 
2

$$$$

     RDKit          3D

 48 51  0  0  0  0  0  0  0  0999 V2000
  137.2400   71.0590  221.1720 O   0  0  0  0  0  0  0  0  0  0  0  0
  137.7630   71.6730  222.1570 C   0  0  0  0  0  0  0  0  0  0  0  0
  137.8440   73.1090  222.1630 N   0  0  0  0  0  0  0  0  0  0  0  0
  137.3300   73.8820  221.0490 C   0  0  0  0  0  0  0  0  0  0  0  0
  138.4260   74.5540  220.3000 C   0  0  0  0  0  0  0  0  0  0  0  0
  138.1480   75.6670  219.7880 O   0  0  0  0  0  0  0  0  0  0  0  0
  139.6670   73.9040  220.2260 N   0  0  0  0  0  0  0  0  0  0  0  0
  139.9070   72.5090  219.7750 C   0  0  0  0  0  0  0  0  0  0  0  0
  140.8400   72.0380  220.8770 C   0  0  0  0  0  0  0  0  0  0  0  0
  141.3470   73.2960  221.5990 C   0  0  0  0  0  0  0  0  0  0  0  0
  141.0200   74.3440  220.5570 C   0  0  2  0  0  0  0  0  0  0  0  0
  141.1500   75.7050  221.0420 C   0  0  0  0  0  0  0  0  0  0  0  0
  141.7380   76.7140  220.2830 C   0  0  0  0  0  0  0  0  0  0  0  0
  141.8470   78.0090  220.7170 C   0  0  0  0  0  0  0  0  0  0  0  0
  141.3690   78.3630  221.9430 C   0  0  0  0  0  0  0  0  0  0  0  0
  141.5380   80.1800  222.5170 Br  0  0  0  0  0  0  0  0  0  0  0  0
  140.7790   77.4010  222.7290 C   0  0  0  0  0  0  0  0  0  0  0  0
  140.6720   76.0810  222.2780 C   0  0  0  0  0  0  0  0  0  0  0  0
  138.2920   70.9440  223.3000 C   0  0  0  0  0  0  0  0  0  0  0  0
  137.8890   69.6390  223.5160 C   0  0  0  0  0  0  0  0  0  0  0  0
  138.3370   68.8750  224.5700 C   0  0  0  0  0  0  0  0  0  0  0  0
  139.2320   69.4680  225.4360 C   0  0  0  0  0  0  0  0  0  0  0  0
  139.6900   68.7200  226.4950 C   0  0  0  0  0  0  0  0  0  0  0  0
  140.5850   69.2860  227.3790 C   0  0  0  0  0  0  0  0  0  0  0  0
  141.1630   68.3210  228.7270 Cl  0  0  0  0  0  0  0  0  0  0  0  0
  141.0020   70.5920  227.1800 C   0  0  0  0  0  0  0  0  0  0  0  0
  140.5250   71.3410  226.0970 C   0  0  0  0  0  0  0  0  0  0  0  0
  139.6350   70.7710  225.2220 C   0  0  0  0  0  0  0  0  0  0  0  0
  139.1710   71.4950  224.1700 N   0  0  0  0  0  0  0  0  0  0  0  0
  138.2900   73.5690  223.0110 H   0  0  0  0  0  0  0  0  0  0  0  0
  136.7903   73.2095  220.3660 H   0  0  0  0  0  0  0  0  0  0  0  0
  136.6584   74.6569  221.4472 H   0  0  0  0  0  0  0  0  0  0  0  0
  138.9770   71.9222  219.7477 H   0  0  0  0  0  0  0  0  0  0  0  0
  140.3060   72.4121  218.7545 H   0  0  0  0  0  0  0  0  0  0  0  0
  140.2973   71.3903  221.5812 H   0  0  0  0  0  0  0  0  0  0  0  0
  141.6771   71.4567  220.4631 H   0  0  0  0  0  0  0  0  0  0  0  0
  140.8060   73.4729  222.5403 H   0  0  0  0  0  0  0  0  0  0  0  0
  142.4025   73.2609  221.9068 H   0  0  0  0  0  0  0  0  0  0  0  0
  141.6953   74.4043  219.6907 H   0  0  0  0  0  0  0  0  0  0  0  0
  142.1334   76.4593  219.2886 H   0  0  0  0  0  0  0  0  0  0  0  0
  142.3216   78.7649  220.0741 H   0  0  0  0  0  0  0  0  0  0  0  0
  140.3879   77.6717  223.7208 H   0  0  0  0  0  0  0  0  0  0  0  0
  140.1964   75.3280  222.9236 H   0  0  0  0  0  0  0  0  0  0  0  0
  137.1750   69.1889  222.8106 H   0  0  0  0  0  0  0  0  0  0  0  0
  137.9968   67.8390  224.7149 H   0  0  0  0  0  0  0  0  0  0  0  0
  139.3473   67.6842  226.6353 H   0  0  0  0  0  0  0  0  0  0  0  0
  141.7169   71.0466  227.8816 H   0  0  0  0  0  0  0  0  0  0  0  0
  140.8611   72.3779  225.9491 H   0  0  0  0  0  0  0  0  0  0  0  0
  1  2  2  0
  2  3  1  0
  3  4  1  0
  4  5  1  0
  5  6  2  0
  5  7  1  0
  7  8  1  0
  8  9  1  0
  9 10  1  0
 10 11  1  0
 11 12  1  0
 12 13  2  0
 13 14  1  0
 14 15  2  0
 15 16  1  0
 15 17  1  0
 17 18  2  0
  2 19  1  0
 19 20  2  0
 20 21  1  0
 21 22  2  0
 22 23  1  0
 23 24  2  0
 24 25  1  0
 24 26  1  0
 26 27  2  0
 27 28  1  0
 28 29  2  0
 11  7  1  0
 18 12  1  0
 29 19  1  0
 28 22  1  0
  3 30  1  0
  4 31  1  0
  4 32  1  0
  8 33  1  0
  8 34  1  0
  9 35  1  0
  9 36  1  0
 10 37  1  0
 10 38  1  0
 11 39  1  6
 13 40  1  0
 14 41  1  0
 17 42  1  0
 18 43  1  0
 20 44  1  0
 21 45  1  0
 23 46  1  0
 26 47  1  0
 27 48  1  0
M  END
>  <smiles>  (34) 
O=C(NCC(=O)N1CCCC1c1ccc(Br)cc1)c1ccc2cc(Cl)ccc2n1

>  <score_type>  (34) 
oracle

>  <origin>  (34) 
autodockgpu

>  <m_score__min__energy>  (34) 
-8.4399999999999995

>  <m_primary>  (34) 
energy

>  <rmsd>  (34) 
2.576835183556917

>  <m_score__min__rmsd>  (34) 
2.576835183556917

>  <meeko>  (34) 
{"free_energy": -7.72, "intermolecular_energy": -9.21, "internal_energy": -2.16, "cluster_size": 29, "cluster_id": 1, "rank_in_cluster": 18}

>  <energy>  (34) 
-8.06

>  <cluster_rmsd>  (34) 
0.16

>  <cluster>  (34) 
2

$$$$

     RDKit          3D

 48 51  0  0  0  0  0  0  0  0999 V2000
  133.8350   70.1900  226.0550 O   0  0  0  0  0  0  0  0  0  0  0  0
  134.0580   71.3590  225.6050 C   0  0  0  0  0  0  0  0  0  0  0  0
  134.9360   71.5540  224.4810 N   0  0  0  0  0  0  0  0  0  0  0  0
  135.5790   70.4210  223.8430 C   0  0  0  0  0  0  0  0  0  0  0  0
  136.8120   70.8310  223.1180 C   0  0  0  0  0  0  0  0  0  0  0  0
  137.0260   72.0670  223.0420 O   0  0  0  0  0  0  0  0  0  0  0  0
  137.6270   69.8220  222.5840 N   0  0  0  0  0  0  0  0  0  0  0  0
  137.3910   69.0720  221.3240 C   0  0  0  0  0  0  0  0  0  0  0  0
  137.6560   67.6580  221.8110 C   0  0  0  0  0  0  0  0  0  0  0  0
  138.3910   67.7810  223.1550 C   0  0  0  0  0  0  0  0  0  0  0  0
  138.8660   69.2160  223.0620 C   0  0  2  0  0  0  0  0  0  0  0  0
  139.3940   69.7340  224.3090 C   0  0  0  0  0  0  0  0  0  0  0  0
  140.1040   70.9310  224.3780 C   0  0  0  0  0  0  0  0  0  0  0  0
  140.5880   71.4460  225.5520 C   0  0  0  0  0  0  0  0  0  0  0  0
  140.3860   70.7850  226.7250 C   0  0  0  0  0  0  0  0  0  0  0  0
  141.0750   71.5340  228.3450 Br  0  0  0  0  0  0  0  0  0  0  0  0
  139.6890   69.5990  226.7080 C   0  0  0  0  0  0  0  0  0  0  0  0
  139.1980   69.0800  225.5050 C   0  0  0  0  0  0  0  0  0  0  0  0
  133.4360   72.5280  226.2090 C   0  0  0  0  0  0  0  0  0  0  0  0
  132.2690   72.3750  226.9330 C   0  0  0  0  0  0  0  0  0  0  0  0
  131.6130   73.4230  227.5380 C   0  0  0  0  0  0  0  0  0  0  0  0
  132.1730   74.6760  227.3970 C   0  0  0  0  0  0  0  0  0  0  0  0
  131.5300   75.7350  227.9950 C   0  0  0  0  0  0  0  0  0  0  0  0
  132.0660   77.0000  227.8700 C   0  0  0  0  0  0  0  0  0  0  0  0
  131.2370   78.3450  228.6370 Cl  0  0  0  0  0  0  0  0  0  0  0  0
  133.2350   77.1750  227.1490 C   0  0  0  0  0  0  0  0  0  0  0  0
  133.8760   76.0860  226.5460 C   0  0  0  0  0  0  0  0  0  0  0  0
  133.3380   74.8300  226.6740 C   0  0  0  0  0  0  0  0  0  0  0  0
  133.9580   73.7710  226.0900 N   0  0  0  0  0  0  0  0  0  0  0  0
  135.0860   72.5500  224.1460 H   0  0  0  0  0  0  0  0  0  0  0  0
  135.8459   69.6816  224.6124 H   0  0  0  0  0  0  0  0  0  0  0  0
  134.8766   69.9911  223.1138 H   0  0  0  0  0  0  0  0  0  0  0  0
  136.3591   69.1936  220.9628 H   0  0  0  0  0  0  0  0  0  0  0  0
  138.0055   69.3926  220.4698 H   0  0  0  0  0  0  0  0  0  0  0  0
  136.7061   67.1201  221.9468 H   0  0  0  0  0  0  0  0  0  0  0  0
  138.2584   67.0961  221.0820 H   0  0  0  0  0  0  0  0  0  0  0  0
  137.7122   67.6297  224.0073 H   0  0  0  0  0  0  0  0  0  0  0  0
  139.1860   67.0386  223.3189 H   0  0  0  0  0  0  0  0  0  0  0  0
  139.7351   69.4067  222.4152 H   0  0  0  0  0  0  0  0  0  0  0  0
  140.2843   71.4883  223.4469 H   0  0  0  0  0  0  0  0  0  0  0  0
  141.1415   72.3966  225.5467 H   0  0  0  0  0  0  0  0  0  0  0  0
  139.5163   69.0543  227.6479 H   0  0  0  0  0  0  0  0  0  0  0  0
  138.6439   68.1298  225.5147 H   0  0  0  0  0  0  0  0  0  0  0  0
  131.8431   71.3655  227.0307 H   0  0  0  0  0  0  0  0  0  0  0  0
  130.6848   73.2686  228.1078 H   0  0  0  0  0  0  0  0  0  0  0  0
  130.6024   75.5755  228.5643 H   0  0  0  0  0  0  0  0  0  0  0  0
  133.6656   78.1823  227.0487 H   0  0  0  0  0  0  0  0  0  0  0  0
  134.8036   76.2360  225.9741 H   0  0  0  0  0  0  0  0  0  0  0  0
  1  2  2  0
  2  3  1  0
  3  4  1  0
  4  5  1  0
  5  6  2  0
  5  7  1  0
  7  8  1  0
  8  9  1  0
  9 10  1  0
 10 11  1  0
 11 12  1  0
 12 13  2  0
 13 14  1  0
 14 15  2  0
 15 16  1  0
 15 17  1  0
 17 18  2  0
  2 19  1  0
 19 20  2  0
 20 21  1  0
 21 22  2  0
 22 23  1  0
 23 24  2  0
 24 25  1  0
 24 26  1  0
 26 27  2  0
 27 28  1  0
 28 29  2  0
 11  7  1  0
 18 12  1  0
 29 19  1  0
 28 22  1  0
  3 30  1  0
  4 31  1  0
  4 32  1  0
  8 33  1  0
  8 34  1  0
  9 35  1  0
  9 36  1  0
 10 37  1  0
 10 38  1  0
 11 39  1  6
 13 40  1  0
 14 41  1  0
 17 42  1  0
 18 43  1  0
 20 44  1  0
 21 45  1  0
 23 46  1  0
 26 47  1  0
 27 48  1  0
M  END
>  <smiles>  (35) 
O=C(NCC(=O)N1CCCC1c1ccc(Br)cc1)c1ccc2cc(Cl)ccc2n1

>  <score_type>  (35) 
oracle

>  <origin>  (35) 
autodockgpu

>  <m_score__min__energy>  (35) 
-8.4399999999999995

>  <m_primary>  (35) 
energy

>  <rmsd>  (35) 
8.461258970569427

>  <m_score__min__rmsd>  (35) 
8.461258970569427

>  <meeko>  (35) 
{"free_energy": -7.94, "intermolecular_energy": -9.43, "internal_energy": -2.04, "cluster_size": 9, "cluster_id": 2, "rank_in_cluster": 7}

>  <energy>  (35) 
-8.02

>  <cluster_rmsd>  (35) 
0.54

>  <cluster>  (35) 
2

$$$$

     RDKit          3D

 48 51  0  0  0  0  0  0  0  0999 V2000
  140.5630   73.7890  221.9990 O   0  0  0  0  0  0  0  0  0  0  0  0
  139.7340   72.8320  222.1260 C   0  0  0  0  0  0  0  0  0  0  0  0
  138.6640   72.6610  221.1800 N   0  0  0  0  0  0  0  0  0  0  0  0
  138.5120   73.5770  220.0650 C   0  0  0  0  0  0  0  0  0  0  0  0
  138.3250   74.9770  220.5320 C   0  0  0  0  0  0  0  0  0  0  0  0
  138.9270   75.8660  219.8790 O   0  0  0  0  0  0  0  0  0  0  0  0
  137.5010   75.1940  221.6470 N   0  0  0  0  0  0  0  0  0  0  0  0
  136.2660   74.4430  221.9910 C   0  0  0  0  0  0  0  0  0  0  0  0
  135.3420   75.6020  222.3230 C   0  0  0  0  0  0  0  0  0  0  0  0
  136.2340   76.8380  222.5230 C   0  0  0  0  0  0  0  0  0  0  0  0
  137.5720   76.1620  222.7370 C   0  0  2  0  0  0  0  0  0  0  0  0
  138.6950   77.0790  222.7080 C   0  0  0  0  0  0  0  0  0  0  0  0
  138.5350   78.4580  222.8150 C   0  0  0  0  0  0  0  0  0  0  0  0
  139.5880   79.3350  222.8130 C   0  0  0  0  0  0  0  0  0  0  0  0
  140.8650   78.8730  222.7040 C   0  0  0  0  0  0  0  0  0  0  0  0
  142.3100   80.1260  222.7060 Br  0  0  0  0  0  0  0  0  0  0  0  0
  141.0730   77.5180  222.5970 C   0  0  0  0  0  0  0  0  0  0  0  0
  139.9930   76.6290  222.5990 C   0  0  0  0  0  0  0  0  0  0  0  0
  139.8430   71.8850  223.2270 C   0  0  0  0  0  0  0  0  0  0  0  0
  139.3950   70.5890  223.0510 C   0  0  0  0  0  0  0  0  0  0  0  0
  139.4580   69.6280  224.0350 C   0  0  0  0  0  0  0  0  0  0  0  0
  140.0000   70.0080  225.2460 C   0  0  0  0  0  0  0  0  0  0  0  0
  140.0710   69.0620  226.2410 C   0  0  0  0  0  0  0  0  0  0  0  0
  140.6080   69.4120  227.4620 C   0  0  0  0  0  0  0  0  0  0  0  0
  140.6930   68.1950  228.7250 Cl  0  0  0  0  0  0  0  0  0  0  0  0
  141.0630   70.7060  227.6580 C   0  0  0  0  0  0  0  0  0  0  0  0
  140.9820   71.6580  226.6350 C   0  0  0  0  0  0  0  0  0  0  0  0
  140.4470   71.3020  225.4220 C   0  0  0  0  0  0  0  0  0  0  0  0
  140.3690   72.2240  224.4270 N   0  0  0  0  0  0  0  0  0  0  0  0
  138.0010   71.8450  221.3330 H   0  0  0  0  0  0  0  0  0  0  0  0
  139.4130   73.5272  219.4360 H   0  0  0  0  0  0  0  0  0  0  0  0
  137.6195   73.2812  219.4941 H   0  0  0  0  0  0  0  0  0  0  0  0
  135.8944   73.8548  221.1390 H   0  0  0  0  0  0  0  0  0  0  0  0
  136.3828   73.6974  222.7913 H   0  0  0  0  0  0  0  0  0  0  0  0
  134.6373   75.7734  221.4959 H   0  0  0  0  0  0  0  0  0  0  0  0
  134.7524   75.3902  223.2272 H   0  0  0  0  0  0  0  0  0  0  0  0
  136.2408   77.4852  221.6336 H   0  0  0  0  0  0  0  0  0  0  0  0
  135.9192   77.5113  223.3339 H   0  0  0  0  0  0  0  0  0  0  0  0
  137.7437   75.7099  223.7250 H   0  0  0  0  0  0  0  0  0  0  0  0
  137.5160   78.8623  222.9053 H   0  0  0  0  0  0  0  0  0  0  0  0
  139.4015   80.4156  222.8997 H   0  0  0  0  0  0  0  0  0  0  0  0
  142.0983   77.1295  222.5090 H   0  0  0  0  0  0  0  0  0  0  0  0
  140.1836   75.5491  222.5118 H   0  0  0  0  0  0  0  0  0  0  0  0
  138.9669   70.3118  222.0764 H   0  0  0  0  0  0  0  0  0  0  0  0
  139.0931   68.6045  223.8638 H   0  0  0  0  0  0  0  0  0  0  0  0
  139.7045   68.0398  226.0656 H   0  0  0  0  0  0  0  0  0  0  0  0
  141.4934   70.9888  228.6300 H   0  0  0  0  0  0  0  0  0  0  0  0
  141.3442   72.6832  226.8018 H   0  0  0  0  0  0  0  0  0  0  0  0
  1  2  2  0
  2  3  1  0
  3  4  1  0
  4  5  1  0
  5  6  2  0
  5  7  1  0
  7  8  1  0
  8  9  1  0
  9 10  1  0
 10 11  1  0
 11 12  1  0
 12 13  2  0
 13 14  1  0
 14 15  2  0
 15 16  1  0
 15 17  1  0
 17 18  2  0
  2 19  1  0
 19 20  2  0
 20 21  1  0
 21 22  2  0
 22 23  1  0
 23 24  2  0
 24 25  1  0
 24 26  1  0
 26 27  2  0
 27 28  1  0
 28 29  2  0
 11  7  1  0
 18 12  1  0
 29 19  1  0
 28 22  1  0
  3 30  1  0
  4 31  1  0
  4 32  1  0
  8 33  1  0
  8 34  1  0
  9 35  1  0
  9 36  1  0
 10 37  1  0
 10 38  1  0
 11 39  1  1
 13 40  1  0
 14 41  1  0
 17 42  1  0
 18 43  1  0
 20 44  1  0
 21 45  1  0
 23 46  1  0
 26 47  1  0
 27 48  1  0
M  END
>  <smiles>  (36) 
O=C(NCC(=O)N1CCCC1c1ccc(Br)cc1)c1ccc2cc(Cl)ccc2n1

>  <score_type>  (36) 
oracle

>  <origin>  (36) 
autodockgpu

>  <m_score__min__energy>  (36) 
-8.4399999999999995

>  <m_primary>  (36) 
energy

>  <rmsd>  (36) 
3.3468024837239145

>  <m_score__min__rmsd>  (36) 
3.3468024837239145

>  <meeko>  (36) 
{"free_energy": -8.31, "intermolecular_energy": -9.8, "internal_energy": -1.65, "cluster_size": 29, "cluster_id": 1, "rank_in_cluster": 9}

>  <energy>  (36) 
-7.94

>  <cluster_rmsd>  (36) 
0.62

>  <cluster>  (36) 
2

$$$$

     RDKit          3D

 48 51  0  0  0  0  0  0  0  0999 V2000
  137.7340   71.1610  220.9600 O   0  0  0  0  0  0  0  0  0  0  0  0
  138.0500   71.7590  222.0390 C   0  0  0  0  0  0  0  0  0  0  0  0
  137.9310   73.1890  222.1440 N   0  0  0  0  0  0  0  0  0  0  0  0
  137.4480   73.9730  221.0230 C   0  0  0  0  0  0  0  0  0  0  0  0
  138.4980   74.8930  220.5090 C   0  0  0  0  0  0  0  0  0  0  0  0
  138.1730   76.1020  220.4020 O   0  0  0  0  0  0  0  0  0  0  0  0
  139.7510   74.3490  220.1880 N   0  0  0  0  0  0  0  0  0  0  0  0
  140.0030   73.0300  219.5530 C   0  0  0  0  0  0  0  0  0  0  0  0
  141.1140   72.5170  220.4540 C   0  0  0  0  0  0  0  0  0  0  0  0
  141.6470   73.7280  221.2350 C   0  0  0  0  0  0  0  0  0  0  0  0
  141.1090   74.8510  220.3740 C   0  0  2  0  0  0  0  0  0  0  0  0
  141.2290   76.1600  220.9870 C   0  0  0  0  0  0  0  0  0  0  0  0
  140.9170   76.3880  222.3260 C   0  0  0  0  0  0  0  0  0  0  0  0
  141.0480   77.6130  222.9260 C   0  0  0  0  0  0  0  0  0  0  0  0
  141.5010   78.6810  222.2110 C   0  0  0  0  0  0  0  0  0  0  0  0
  141.6710   80.3760  223.0810 Br  0  0  0  0  0  0  0  0  0  0  0  0
  141.8230   78.5050  220.8860 C   0  0  0  0  0  0  0  0  0  0  0  0
  141.6860   77.2510  220.2810 C   0  0  0  0  0  0  0  0  0  0  0  0
  138.5390   71.0180  223.1930 C   0  0  0  0  0  0  0  0  0  0  0  0
  138.1740   69.6940  223.3500 C   0  0  0  0  0  0  0  0  0  0  0  0
  138.5880   68.9170  224.4090 C   0  0  0  0  0  0  0  0  0  0  0  0
  139.4070   69.5180  225.3420 C   0  0  0  0  0  0  0  0  0  0  0  0
  139.8310   68.7570  226.4060 C   0  0  0  0  0  0  0  0  0  0  0  0
  140.6500   69.3310  227.3560 C   0  0  0  0  0  0  0  0  0  0  0  0
  141.1850   68.3500  228.7110 Cl  0  0  0  0  0  0  0  0  0  0  0  0
  141.0280   70.6570  227.2160 C   0  0  0  0  0  0  0  0  0  0  0  0
  140.5870   71.4170  226.1260 C   0  0  0  0  0  0  0  0  0  0  0  0
  139.7720   70.8400  225.1850 C   0  0  0  0  0  0  0  0  0  0  0  0
  139.3440   71.5760  224.1260 N   0  0  0  0  0  0  0  0  0  0  0  0
  138.2080   73.6360  223.0670 H   0  0  0  0  0  0  0  0  0  0  0  0
  137.1431   73.2916  220.2151 H   0  0  0  0  0  0  0  0  0  0  0  0
  136.5964   74.5785  221.3666 H   0  0  0  0  0  0  0  0  0  0  0  0
  139.1148   72.3821  219.5894 H   0  0  0  0  0  0  0  0  0  0  0  0
  140.2530   73.0692  218.4825 H   0  0  0  0  0  0  0  0  0  0  0  0
  140.7192   71.7618  221.1495 H   0  0  0  0  0  0  0  0  0  0  0  0
  141.9136   72.0444  219.8647 H   0  0  0  0  0  0  0  0  0  0  0  0
  141.2411   73.7661  222.2567 H   0  0  0  0  0  0  0  0  0  0  0  0
  142.7366   73.7400  221.3858 H   0  0  0  0  0  0  0  0  0  0  0  0
  141.6445   75.0503  219.4340 H   0  0  0  0  0  0  0  0  0  0  0  0
  140.5484   75.5453  222.9294 H   0  0  0  0  0  0  0  0  0  0  0  0
  140.7868   77.7346  223.9876 H   0  0  0  0  0  0  0  0  0  0  0  0
  142.1915   79.3575  220.2965 H   0  0  0  0  0  0  0  0  0  0  0  0
  141.9487   77.1338  219.2193 H   0  0  0  0  0  0  0  0  0  0  0  0
  137.5205   69.2385  222.5915 H   0  0  0  0  0  0  0  0  0  0  0  0
  138.2797   67.8656  224.5063 H   0  0  0  0  0  0  0  0  0  0  0  0
  139.5214   67.7055  226.4982 H   0  0  0  0  0  0  0  0  0  0  0  0
  141.6825   71.1179  227.9705 H   0  0  0  0  0  0  0  0  0  0  0  0
  140.8917   72.4691  226.0247 H   0  0  0  0  0  0  0  0  0  0  0  0
  1  2  2  0
  2  3  1  0
  3  4  1  0
  4  5  1  0
  5  6  2  0
  5  7  1  0
  7  8  1  0
  8  9  1  0
  9 10  1  0
 10 11  1  0
 11 12  1  0
 12 13  2  0
 13 14  1  0
 14 15  2  0
 15 16  1  0
 15 17  1  0
 17 18  2  0
  2 19  1  0
 19 20  2  0
 20 21  1  0
 21 22  2  0
 22 23  1  0
 23 24  2  0
 24 25  1  0
 24 26  1  0
 26 27  2  0
 27 28  1  0
 28 29  2  0
 11  7  1  0
 18 12  1  0
 29 19  1  0
 28 22  1  0
  3 30  1  0
  4 31  1  0
  4 32  1  0
  8 33  1  0
  8 34  1  0
  9 35  1  0
  9 36  1  0
 10 37  1  0
 10 38  1  0
 11 39  1  6
 13 40  1  0
 14 41  1  0
 17 42  1  0
 18 43  1  0
 20 44  1  0
 21 45  1  0
 23 46  1  0
 26 47  1  0
 27 48  1  0
M  END
>  <smiles>  (37) 
O=C(NCC(=O)N1CCCC1c1ccc(Br)cc1)c1ccc2cc(Cl)ccc2n1

>  <score_type>  (37) 
oracle

>  <origin>  (37) 
autodockgpu

>  <m_score__min__energy>  (37) 
-8.4399999999999995

>  <m_primary>  (37) 
energy

>  <rmsd>  (37) 
2.285558266306171

>  <m_score__min__rmsd>  (37) 
2.285558266306171

>  <meeko>  (37) 
{"free_energy": -7.94, "intermolecular_energy": -9.43, "internal_energy": -2.01, "cluster_size": 29, "cluster_id": 1, "rank_in_cluster": 16}

>  <energy>  (37) 
-7.88

>  <cluster_rmsd>  (37) 
0.61

>  <cluster>  (37) 
2

$$$$

     RDKit          3D

 48 51  0  0  0  0  0  0  0  0999 V2000
  136.8940   71.2230  221.3820 O   0  0  0  0  0  0  0  0  0  0  0  0
  137.5760   71.7870  222.2970 C   0  0  0  0  0  0  0  0  0  0  0  0
  137.8250   73.2040  222.2540 N   0  0  0  0  0  0  0  0  0  0  0  0
  137.3030   74.0120  221.1690 C   0  0  0  0  0  0  0  0  0  0  0  0
  138.3600   74.3340  220.1720 C   0  0  0  0  0  0  0  0  0  0  0  0
  138.0570   75.1830  219.2970 O   0  0  0  0  0  0  0  0  0  0  0  0
  139.5930   73.6750  220.2840 N   0  0  0  0  0  0  0  0  0  0  0  0
  139.8680   72.2530  219.9540 C   0  0  0  0  0  0  0  0  0  0  0  0
  140.6600   71.8500  221.1860 C   0  0  0  0  0  0  0  0  0  0  0  0
  141.0940   73.1500  221.8800 C   0  0  0  0  0  0  0  0  0  0  0  0
  140.9030   74.1300  220.7420 C   0  0  2  0  0  0  0  0  0  0  0  0
  140.9910   75.5180  221.1520 C   0  0  0  0  0  0  0  0  0  0  0  0
  140.3740   75.9970  222.3050 C   0  0  0  0  0  0  0  0  0  0  0  0
  140.4680   77.3000  222.7190 C   0  0  0  0  0  0  0  0  0  0  0  0
  141.1900   78.1980  221.9920 C   0  0  0  0  0  0  0  0  0  0  0  0
  141.3000   80.0090  222.5990 Br  0  0  0  0  0  0  0  0  0  0  0  0
  141.8190   77.7730  220.8450 C   0  0  0  0  0  0  0  0  0  0  0  0
  141.7170   76.4400  220.4300 C   0  0  0  0  0  0  0  0  0  0  0  0
  138.1220   71.0210  223.4080 C   0  0  0  0  0  0  0  0  0  0  0  0
  137.6660   69.7350  223.6310 C   0  0  0  0  0  0  0  0  0  0  0  0
  138.1240   68.9380  224.6560 C   0  0  0  0  0  0  0  0  0  0  0  0
  139.0860   69.4780  225.4840 C   0  0  0  0  0  0  0  0  0  0  0  0
  139.5560   68.6970  226.5140 C   0  0  0  0  0  0  0  0  0  0  0  0
  140.5170   69.2100  227.3600 C   0  0  0  0  0  0  0  0  0  0  0  0
  141.1090   68.2030  228.6710 Cl  0  0  0  0  0  0  0  0  0  0  0  0
  140.9870   70.4960  227.1530 C   0  0  0  0  0  0  0  0  0  0  0  0
  140.4980   71.2790  226.1000 C   0  0  0  0  0  0  0  0  0  0  0  0
  139.5420   70.7620  225.2630 C   0  0  0  0  0  0  0  0  0  0  0  0
  139.0650   71.5190  224.2400 N   0  0  0  0  0  0  0  0  0  0  0  0
  138.3990   73.6230  223.0430 H   0  0  0  0  0  0  0  0  0  0  0  0
  136.4953   73.4586  220.6677 H   0  0  0  0  0  0  0  0  0  0  0  0
  136.9273   74.9558  221.5911 H   0  0  0  0  0  0  0  0  0  0  0  0
  138.9409   71.6694  219.8548 H   0  0  0  0  0  0  0  0  0  0  0  0
  140.3828   72.0889  218.9958 H   0  0  0  0  0  0  0  0  0  0  0  0
  140.0309   71.2519  221.8616 H   0  0  0  0  0  0  0  0  0  0  0  0
  141.5326   71.2389  220.9117 H   0  0  0  0  0  0  0  0  0  0  0  0
  140.4491   73.3899  222.7382 H   0  0  0  0  0  0  0  0  0  0  0  0
  142.1061   73.1305  222.3105 H   0  0  0  0  0  0  0  0  0  0  0  0
  141.6750   74.1317  219.9584 H   0  0  0  0  0  0  0  0  0  0  0  0
  139.7829   75.2959  222.9125 H   0  0  0  0  0  0  0  0  0  0  0  0
  139.9596   77.6215  223.6400 H   0  0  0  0  0  0  0  0  0  0  0  0
  142.4070   78.4864  220.2489 H   0  0  0  0  0  0  0  0  0  0  0  0
  142.2269   76.1221  219.5086 H   0  0  0  0  0  0  0  0  0  0  0  0
  136.8989   69.3282  222.9557 H   0  0  0  0  0  0  0  0  0  0  0  0
  137.7406   67.9182  224.8076 H   0  0  0  0  0  0  0  0  0  0  0  0
  139.1707   67.6772  226.6611 H   0  0  0  0  0  0  0  0  0  0  0  0
  141.7546   70.9080  227.8246 H   0  0  0  0  0  0  0  0  0  0  0  0
  140.8772   72.2999  225.9454 H   0  0  0  0  0  0  0  0  0  0  0  0
  1  2  2  0
  2  3  1  0
  3  4  1  0
  4  5  1  0
  5  6  2  0
  5  7  1  0
  7  8  1  0
  8  9  1  0
  9 10  1  0
 10 11  1  0
 11 12  1  0
 12 13  2  0
 13 14  1  0
 14 15  2  0
 15 16  1  0
 15 17  1  0
 17 18  2  0
  2 19  1  0
 19 20  2  0
 20 21  1  0
 21 22  2  0
 22 23  1  0
 23 24  2  0
 24 25  1  0
 24 26  1  0
 26 27  2  0
 27 28  1  0
 28 29  2  0
 11  7  1  0
 18 12  1  0
 29 19  1  0
 28 22  1  0
  3 30  1  0
  4 31  1  0
  4 32  1  0
  8 33  1  0
  8 34  1  0
  9 35  1  0
  9 36  1  0
 10 37  1  0
 10 38  1  0
 11 39  1  6
 13 40  1  0
 14 41  1  0
 17 42  1  0
 18 43  1  0
 20 44  1  0
 21 45  1  0
 23 46  1  0
 26 47  1  0
 27 48  1  0
M  END
>  <smiles>  (38) 
O=C(NCC(=O)N1CCCC1c1ccc(Br)cc1)c1ccc2cc(Cl)ccc2n1

>  <score_type>  (38) 
oracle

>  <origin>  (38) 
autodockgpu

>  <m_score__min__energy>  (38) 
-8.4399999999999995

>  <m_primary>  (38) 
energy

>  <rmsd>  (38) 
2.76432100504022

>  <m_score__min__rmsd>  (38) 
2.76432100504022

>  <meeko>  (38) 
{"free_energy": -7.6, "intermolecular_energy": -9.09, "internal_energy": -2.26, "cluster_size": 29, "cluster_id": 1, "rank_in_cluster": 20}

>  <energy>  (38) 
-7.76

>  <cluster_rmsd>  (38) 
1.91

>  <cluster>  (38) 
2

$$$$

     RDKit          3D

 48 51  0  0  0  0  0  0  0  0999 V2000
  137.3720   71.8000  220.9520 O   0  0  0  0  0  0  0  0  0  0  0  0
  138.0120   72.3040  221.9300 C   0  0  0  0  0  0  0  0  0  0  0  0
  138.3070   73.7120  221.9620 N   0  0  0  0  0  0  0  0  0  0  0  0
  137.8790   74.5800  220.8810 C   0  0  0  0  0  0  0  0  0  0  0  0
  138.8020   74.4950  219.7160 C   0  0  0  0  0  0  0  0  0  0  0  0
  138.3870   74.9980  218.6420 O   0  0  0  0  0  0  0  0  0  0  0  0
  140.0440   73.8710  219.9050 N   0  0  0  0  0  0  0  0  0  0  0  0
  140.4010   72.4810  219.5190 C   0  0  0  0  0  0  0  0  0  0  0  0
  141.0920   72.0280  220.7940 C   0  0  0  0  0  0  0  0  0  0  0  0
  141.4110   73.2960  221.6010 C   0  0  0  0  0  0  0  0  0  0  0  0
  141.2880   74.3380  220.5100 C   0  0  2  0  0  0  0  0  0  0  0  0
  141.2860   75.7010  221.0070 C   0  0  0  0  0  0  0  0  0  0  0  0
  141.8200   76.7610  220.2780 C   0  0  0  0  0  0  0  0  0  0  0  0
  141.8040   78.0570  220.7230 C   0  0  0  0  0  0  0  0  0  0  0  0
  141.2500   78.3600  221.9290 C   0  0  0  0  0  0  0  0  0  0  0  0
  141.2450   80.1800  222.5180 Br  0  0  0  0  0  0  0  0  0  0  0  0
  140.7090   77.3470  222.6850 C   0  0  0  0  0  0  0  0  0  0  0  0
  140.7290   76.0260  222.2240 C   0  0  0  0  0  0  0  0  0  0  0  0
  138.4630   71.4770  223.0400 C   0  0  0  0  0  0  0  0  0  0  0  0
  137.9060   70.2240  223.2180 C   0  0  0  0  0  0  0  0  0  0  0  0
  138.2700   69.3740  224.2380 C   0  0  0  0  0  0  0  0  0  0  0  0
  139.2420   69.8240  225.1090 C   0  0  0  0  0  0  0  0  0  0  0  0
  139.6180   68.9890  226.1350 C   0  0  0  0  0  0  0  0  0  0  0  0
  140.5860   69.4110  227.0220 C   0  0  0  0  0  0  0  0  0  0  0  0
  141.0580   68.3360  228.3280 Cl  0  0  0  0  0  0  0  0  0  0  0  0
  141.1560   70.6630  226.8600 C   0  0  0  0  0  0  0  0  0  0  0  0
  140.7600   71.5020  225.8110 C   0  0  0  0  0  0  0  0  0  0  0  0
  139.7970   71.0750  224.9320 C   0  0  0  0  0  0  0  0  0  0  0  0
  139.4120   71.8870  223.9120 N   0  0  0  0  0  0  0  0  0  0  0  0
  138.8430   74.0800  222.8020 H   0  0  0  0  0  0  0  0  0  0  0  0
  136.8701   74.2810  220.5604 H   0  0  0  0  0  0  0  0  0  0  0  0
  137.8815   75.6167  221.2488 H   0  0  0  0  0  0  0  0  0  0  0  0
  139.5092   71.8755  219.2997 H   0  0  0  0  0  0  0  0  0  0  0  0
  141.0067   72.3929  218.6050 H   0  0  0  0  0  0  0  0  0  0  0  0
  140.4270   71.3690  221.3715 H   0  0  0  0  0  0  0  0  0  0  0  0
  142.0086   71.4638  220.5670 H   0  0  0  0  0  0  0  0  0  0  0  0
  140.6816   73.4611  222.4076 H   0  0  0  0  0  0  0  0  0  0  0  0
  142.3794   73.2825  222.1225 H   0  0  0  0  0  0  0  0  0  0  0  0
  142.1281   74.4128  219.8039 H   0  0  0  0  0  0  0  0  0  0  0  0
  142.2757   76.5479  219.2998 H   0  0  0  0  0  0  0  0  0  0  0  0
  142.2401   78.8548  220.1039 H   0  0  0  0  0  0  0  0  0  0  0  0
  140.2565   77.5770  223.6608 H   0  0  0  0  0  0  0  0  0  0  0  0
  140.2912   75.2313  222.8459 H   0  0  0  0  0  0  0  0  0  0  0  0
  137.1338   69.8898  222.5095 H   0  0  0  0  0  0  0  0  0  0  0  0
  137.8079   68.3825  224.3536 H   0  0  0  0  0  0  0  0  0  0  0  0
  139.1531   67.9983  226.2466 H   0  0  0  0  0  0  0  0  0  0  0  0
  141.9297   71.0026  227.5644 H   0  0  0  0  0  0  0  0  0  0  0  0
  141.2174   72.4954  225.6927 H   0  0  0  0  0  0  0  0  0  0  0  0
  1  2  2  0
  2  3  1  0
  3  4  1  0
  4  5  1  0
  5  6  2  0
  5  7  1  0
  7  8  1  0
  8  9  1  0
  9 10  1  0
 10 11  1  0
 11 12  1  0
 12 13  2  0
 13 14  1  0
 14 15  2  0
 15 16  1  0
 15 17  1  0
 17 18  2  0
  2 19  1  0
 19 20  2  0
 20 21  1  0
 21 22  2  0
 22 23  1  0
 23 24  2  0
 24 25  1  0
 24 26  1  0
 26 27  2  0
 27 28  1  0
 28 29  2  0
 11  7  1  0
 18 12  1  0
 29 19  1  0
 28 22  1  0
  3 30  1  0
  4 31  1  0
  4 32  1  0
  8 33  1  0
  8 34  1  0
  9 35  1  0
  9 36  1  0
 10 37  1  0
 10 38  1  0
 11 39  1  6
 13 40  1  0
 14 41  1  0
 17 42  1  0
 18 43  1  0
 20 44  1  0
 21 45  1  0
 23 46  1  0
 26 47  1  0
 27 48  1  0
M  END
>  <smiles>  (39) 
O=C(NCC(=O)N1CCCC1c1ccc(Br)cc1)c1ccc2cc(Cl)ccc2n1

>  <score_type>  (39) 
oracle

>  <origin>  (39) 
autodockgpu

>  <m_score__min__energy>  (39) 
-8.4399999999999995

>  <m_primary>  (39) 
energy

>  <rmsd>  (39) 
2.6787815009032387

>  <m_score__min__rmsd>  (39) 
2.6787815009032387

>  <meeko>  (39) 
{"free_energy": -7.49, "intermolecular_energy": -8.98, "internal_energy": -2.37, "cluster_size": 29, "cluster_id": 1, "rank_in_cluster": 29}

>  <energy>  (39) 
-8.11

>  <cluster_rmsd>  (39) 
0.0

>  <cluster>  (39) 
3

$$$$

     RDKit          3D

 48 51  0  0  0  0  0  0  0  0999 V2000
  139.2320   71.5360  220.7240 O   0  0  0  0  0  0  0  0  0  0  0  0
  138.8440   71.8820  221.8860 C   0  0  0  0  0  0  0  0  0  0  0  0
  138.0540   73.0710  222.0690 N   0  0  0  0  0  0  0  0  0  0  0  0
  137.6870   73.8940  220.9330 C   0  0  0  0  0  0  0  0  0  0  0  0
  138.8180   74.7570  220.4970 C   0  0  0  0  0  0  0  0  0  0  0  0
  139.1200   74.7030  219.2780 O   0  0  0  0  0  0  0  0  0  0  0  0
  139.4500   75.5520  221.4650 N   0  0  0  0  0  0  0  0  0  0  0  0
  138.8000   76.5620  222.3390 C   0  0  0  0  0  0  0  0  0  0  0  0
  139.7820   77.7100  222.1820 C   0  0  0  0  0  0  0  0  0  0  0  0
  141.0660   77.1180  221.5800 C   0  0  0  0  0  0  0  0  0  0  0  0
  140.8450   75.6520  221.8850 C   0  0  2  0  0  0  0  0  0  0  0  0
  141.7810   74.7720  221.2120 C   0  0  0  0  0  0  0  0  0  0  0  0
  142.8320   75.2550  220.4360 C   0  0  0  0  0  0  0  0  0  0  0  0
  143.7390   74.4370  219.8130 C   0  0  0  0  0  0  0  0  0  0  0  0
  143.6390   73.0840  219.9370 C   0  0  0  0  0  0  0  0  0  0  0  0
  144.9230   71.9740  219.0550 Br  0  0  0  0  0  0  0  0  0  0  0  0
  142.6180   72.5600  220.6950 C   0  0  0  0  0  0  0  0  0  0  0  0
  141.6960   73.4020  221.3260 C   0  0  0  0  0  0  0  0  0  0  0  0
  139.1850   71.0890  223.0580 C   0  0  0  0  0  0  0  0  0  0  0  0
  138.8700   69.7430  223.0790 C   0  0  0  0  0  0  0  0  0  0  0  0
  139.1550   68.9170  224.1440 C   0  0  0  0  0  0  0  0  0  0  0  0
  139.7860   69.4910  225.2280 C   0  0  0  0  0  0  0  0  0  0  0  0
  140.0770   68.6820  226.3010 C   0  0  0  0  0  0  0  0  0  0  0  0
  140.7070   69.2280  227.4000 C   0  0  0  0  0  0  0  0  0  0  0  0
  141.0750   68.1850  228.7650 Cl  0  0  0  0  0  0  0  0  0  0  0  0
  141.0310   70.5740  227.3980 C   0  0  0  0  0  0  0  0  0  0  0  0
  140.7260   71.3850  226.2990 C   0  0  0  0  0  0  0  0  0  0  0  0
  140.1000   70.8350  225.2080 C   0  0  0  0  0  0  0  0  0  0  0  0
  139.8030   71.6190  224.1390 N   0  0  0  0  0  0  0  0  0  0  0  0
  137.7570   73.3110  223.0600 H   0  0  0  0  0  0  0  0  0  0  0  0
  137.3935   73.2406  220.0982 H   0  0  0  0  0  0  0  0  0  0  0  0
  136.8523   74.5444  221.2333 H   0  0  0  0  0  0  0  0  0  0  0  0
  137.7961   76.8301  221.9779 H   0  0  0  0  0  0  0  0  0  0  0  0
  138.6257   76.2372  223.3754 H   0  0  0  0  0  0  0  0  0  0  0  0
  139.3661   78.4746  221.5093 H   0  0  0  0  0  0  0  0  0  0  0  0
  139.9855   78.1901  223.1506 H   0  0  0  0  0  0  0  0  0  0  0  0
  141.1337   77.3045  220.4981 H   0  0  0  0  0  0  0  0  0  0  0  0
  142.0016   77.5388  221.9770 H   0  0  0  0  0  0  0  0  0  0  0  0
  141.0234   75.3328  222.9224 H   0  0  0  0  0  0  0  0  0  0  0  0
  142.9393   76.3433  220.3175 H   0  0  0  0  0  0  0  0  0  0  0  0
  144.5495   74.8743  219.2115 H   0  0  0  0  0  0  0  0  0  0  0  0
  142.5256   71.4695  220.8061 H   0  0  0  0  0  0  0  0  0  0  0  0
  140.8863   72.9607  221.9257 H   0  0  0  0  0  0  0  0  0  0  0  0
  138.3668   69.3102  222.2018 H   0  0  0  0  0  0  0  0  0  0  0  0
  138.8916   67.8491  224.1306 H   0  0  0  0  0  0  0  0  0  0  0  0
  139.8112   67.6147  226.2833 H   0  0  0  0  0  0  0  0  0  0  0  0
  141.5350   71.0120  228.2721 H   0  0  0  0  0  0  0  0  0  0  0  0
  140.9856   72.4539  226.3093 H   0  0  0  0  0  0  0  0  0  0  0  0
  1  2  2  0
  2  3  1  0
  3  4  1  0
  4  5  1  0
  5  6  2  0
  5  7  1  0
  7  8  1  0
  8  9  1  0
  9 10  1  0
 10 11  1  0
 11 12  1  0
 12 13  2  0
 13 14  1  0
 14 15  2  0
 15 16  1  0
 15 17  1  0
 17 18  2  0
  2 19  1  0
 19 20  2  0
 20 21  1  0
 21 22  2  0
 22 23  1  0
 23 24  2  0
 24 25  1  0
 24 26  1  0
 26 27  2  0
 27 28  1  0
 28 29  2  0
 11  7  1  0
 18 12  1  0
 29 19  1  0
 28 22  1  0
  3 30  1  0
  4 31  1  0
  4 32  1  0
  8 33  1  0
  8 34  1  0
  9 35  1  0
  9 36  1  0
 10 37  1  0
 10 38  1  0
 11 39  1  1
 13 40  1  0
 14 41  1  0
 17 42  1  0
 18 43  1  0
 20 44  1  0
 21 45  1  0
 23 46  1  0
 26 47  1  0
 27 48  1  0
M  END
>  <smiles>  (40) 
O=C(NCC(=O)N1CCCC1c1ccc(Br)cc1)c1ccc2cc(Cl)ccc2n1

>  <score_type>  (40) 
oracle

>  <origin>  (40) 
autodockgpu

>  <m_score__min__energy>  (40) 
-8.4399999999999995

>  <m_primary>  (40) 
energy

>  <rmsd>  (40) 
2.330028831184769

>  <m_score__min__rmsd>  (40) 
2.330028831184769

>  <meeko>  (40) 
{"free_energy": -7.9, "intermolecular_energy": -9.39, "internal_energy": -2.01, "cluster_size": 8, "cluster_id": 4, "rank_in_cluster": 5}

>  <energy>  (40) 
-8.08

>  <cluster_rmsd>  (40) 
0.0

>  <cluster>  (40) 
4

$$$$

     RDKit          3D

 48 51  0  0  0  0  0  0  0  0999 V2000
  138.8020   71.4030  220.6830 O   0  0  0  0  0  0  0  0  0  0  0  0
  138.7320   71.9040  221.8510 C   0  0  0  0  0  0  0  0  0  0  0  0
  138.2870   73.2590  222.0400 N   0  0  0  0  0  0  0  0  0  0  0  0
  137.9110   74.0770  220.9030 C   0  0  0  0  0  0  0  0  0  0  0  0
  138.8650   75.2000  220.6990 C   0  0  0  0  0  0  0  0  0  0  0  0
  138.4620   76.3400  221.0390 O   0  0  0  0  0  0  0  0  0  0  0  0
  140.1230   74.9030  220.1520 N   0  0  0  0  0  0  0  0  0  0  0  0
  140.4720   73.7090  219.3400 C   0  0  0  0  0  0  0  0  0  0  0  0
  141.7720   73.3080  220.0170 C   0  0  0  0  0  0  0  0  0  0  0  0
  142.2270   74.5140  220.8540 C   0  0  0  0  0  0  0  0  0  0  0  0
  141.4010   75.6060  220.2090 C   0  0  2  0  0  0  0  0  0  0  0  0
  141.4130   76.8540  220.9470 C   0  0  0  0  0  0  0  0  0  0  0  0
  141.0720   76.9270  222.2960 C   0  0  0  0  0  0  0  0  0  0  0  0
  141.1020   78.0940  223.0130 C   0  0  0  0  0  0  0  0  0  0  0  0
  141.4770   79.2580  222.4120 C   0  0  0  0  0  0  0  0  0  0  0  0
  141.5070   80.8680  223.4440 Br  0  0  0  0  0  0  0  0  0  0  0  0
  141.8230   79.2370  221.0810 C   0  0  0  0  0  0  0  0  0  0  0  0
  141.7890   78.0400  220.3560 C   0  0  0  0  0  0  0  0  0  0  0  0
  139.0980   71.1250  223.0250 C   0  0  0  0  0  0  0  0  0  0  0  0
  138.7780   69.7810  223.0720 C   0  0  0  0  0  0  0  0  0  0  0  0
  139.0840   68.9680  224.1400 C   0  0  0  0  0  0  0  0  0  0  0  0
  139.7440   69.5530  225.2010 C   0  0  0  0  0  0  0  0  0  0  0  0
  140.0570   68.7560  226.2770 C   0  0  0  0  0  0  0  0  0  0  0  0
  140.7160   69.3130  227.3540 C   0  0  0  0  0  0  0  0  0  0  0  0
  141.1120   68.2860  228.7220 Cl  0  0  0  0  0  0  0  0  0  0  0  0
  141.0460   70.6580  227.3260 C   0  0  0  0  0  0  0  0  0  0  0  0
  140.7180   71.4550  226.2240 C   0  0  0  0  0  0  0  0  0  0  0  0
  140.0630   70.8940  225.1560 C   0  0  0  0  0  0  0  0  0  0  0  0
  139.7440   71.6660  224.0840 N   0  0  0  0  0  0  0  0  0  0  0  0
  138.2480   73.6260  223.0360 H   0  0  0  0  0  0  0  0  0  0  0  0
  137.8994   73.4495  219.9996 H   0  0  0  0  0  0  0  0  0  0  0  0
  136.9152   74.5017  221.0981 H   0  0  0  0  0  0  0  0  0  0  0  0
  139.7084   72.9214  219.4212 H   0  0  0  0  0  0  0  0  0  0  0  0
  140.5468   73.8879  218.2572 H   0  0  0  0  0  0  0  0  0  0  0  0
  141.6071   72.4363  220.6673 H   0  0  0  0  0  0  0  0  0  0  0  0
  142.5352   73.0325  219.2743 H   0  0  0  0  0  0  0  0  0  0  0  0
  141.9794   74.3892  221.9185 H   0  0  0  0  0  0  0  0  0  0  0  0
  143.3122   74.6937  220.8571 H   0  0  0  0  0  0  0  0  0  0  0  0
  141.7506   75.9782  219.2347 H   0  0  0  0  0  0  0  0  0  0  0  0
  140.7642   76.0042  222.8095 H   0  0  0  0  0  0  0  0  0  0  0  0
  140.8226   78.0913  224.0769 H   0  0  0  0  0  0  0  0  0  0  0  0
  142.1289   80.1684  220.5821 H   0  0  0  0  0  0  0  0  0  0  0  0
  142.0684   78.0467  219.2921 H   0  0  0  0  0  0  0  0  0  0  0  0
  138.2524   69.3389  222.2128 H   0  0  0  0  0  0  0  0  0  0  0  0
  138.8148   67.9015  224.1471 H   0  0  0  0  0  0  0  0  0  0  0  0
  139.7860   67.6899  226.2792 H   0  0  0  0  0  0  0  0  0  0  0  0
  141.5730   71.1054  228.1816 H   0  0  0  0  0  0  0  0  0  0  0  0
  140.9828   72.5226  226.2134 H   0  0  0  0  0  0  0  0  0  0  0  0
  1  2  2  0
  2  3  1  0
  3  4  1  0
  4  5  1  0
  5  6  2  0
  5  7  1  0
  7  8  1  0
  8  9  1  0
  9 10  1  0
 10 11  1  0
 11 12  1  0
 12 13  2  0
 13 14  1  0
 14 15  2  0
 15 16  1  0
 15 17  1  0
 17 18  2  0
  2 19  1  0
 19 20  2  0
 20 21  1  0
 21 22  2  0
 22 23  1  0
 23 24  2  0
 24 25  1  0
 24 26  1  0
 26 27  2  0
 27 28  1  0
 28 29  2  0
 11  7  1  0
 18 12  1  0
 29 19  1  0
 28 22  1  0
  3 30  1  0
  4 31  1  0
  4 32  1  0
  8 33  1  0
  8 34  1  0
  9 35  1  0
  9 36  1  0
 10 37  1  0
 10 38  1  0
 11 39  1  6
 13 40  1  0
 14 41  1  0
 17 42  1  0
 18 43  1  0
 20 44  1  0
 21 45  1  0
 23 46  1  0
 26 47  1  0
 27 48  1  0
M  END
>  <smiles>  (41) 
O=C(NCC(=O)N1CCCC1c1ccc(Br)cc1)c1ccc2cc(Cl)ccc2n1

>  <score_type>  (41) 
oracle

>  <origin>  (41) 
autodockgpu

>  <m_score__min__energy>  (41) 
-8.4399999999999995

>  <m_primary>  (41) 
energy

>  <rmsd>  (41) 
1.955103046576332

>  <m_score__min__rmsd>  (41) 
1.955103046576332

>  <meeko>  (41) 
{"free_energy": -8.39, "intermolecular_energy": -9.88, "internal_energy": -1.74, "cluster_size": 29, "cluster_id": 1, "rank_in_cluster": 3}

>  <energy>  (41) 
-8.02

>  <cluster_rmsd>  (41) 
0.28

>  <cluster>  (41) 
4

$$$$

     RDKit          3D

 48 51  0  0  0  0  0  0  0  0999 V2000
  137.5150   71.7750  220.9040 O   0  0  0  0  0  0  0  0  0  0  0  0
  138.1010   72.2940  221.9080 C   0  0  0  0  0  0  0  0  0  0  0  0
  138.3500   73.7110  221.9560 N   0  0  0  0  0  0  0  0  0  0  0  0
  137.9370   74.5690  220.8620 C   0  0  0  0  0  0  0  0  0  0  0  0
  138.8340   74.4210  219.6840 C   0  0  0  0  0  0  0  0  0  0  0  0
  138.3920   74.8560  218.5910 O   0  0  0  0  0  0  0  0  0  0  0  0
  140.0850   73.8160  219.8810 N   0  0  0  0  0  0  0  0  0  0  0  0
  140.4640   72.4300  219.5060 C   0  0  0  0  0  0  0  0  0  0  0  0
  141.1570   71.9960  220.7860 C   0  0  0  0  0  0  0  0  0  0  0  0
  141.4550   73.2750  221.5850 C   0  0  0  0  0  0  0  0  0  0  0  0
  141.3190   74.3070  220.4860 C   0  0  2  0  0  0  0  0  0  0  0  0
  141.2950   75.6730  220.9730 C   0  0  0  0  0  0  0  0  0  0  0  0
  140.7410   76.0170  222.2040 C   0  0  0  0  0  0  0  0  0  0  0  0
  140.7320   77.2980  222.6890 C   0  0  0  0  0  0  0  0  0  0  0  0
  141.2810   78.3100  221.9600 C   0  0  0  0  0  0  0  0  0  0  0  0
  141.2520   80.0870  222.6680 Br  0  0  0  0  0  0  0  0  0  0  0  0
  141.8420   78.0200  220.7380 C   0  0  0  0  0  0  0  0  0  0  0  0
  141.8460   76.7080  220.2500 C   0  0  0  0  0  0  0  0  0  0  0  0
  138.5350   71.4760  223.0310 C   0  0  0  0  0  0  0  0  0  0  0  0
  137.9670   70.2300  223.2180 C   0  0  0  0  0  0  0  0  0  0  0  0
  138.3150   69.3890  224.2520 C   0  0  0  0  0  0  0  0  0  0  0  0
  139.2810   69.8410  225.1270 C   0  0  0  0  0  0  0  0  0  0  0  0
  139.6410   69.0150  226.1660 C   0  0  0  0  0  0  0  0  0  0  0  0
  140.6030   69.4410  227.0580 C   0  0  0  0  0  0  0  0  0  0  0  0
  141.0550   68.3780  228.3810 Cl  0  0  0  0  0  0  0  0  0  0  0  0
  141.1840   70.6870  226.8870 C   0  0  0  0  0  0  0  0  0  0  0  0
  140.8050   71.5160  225.8250 C   0  0  0  0  0  0  0  0  0  0  0  0
  139.8470   71.0860  224.9410 C   0  0  0  0  0  0  0  0  0  0  0  0
  139.4780   71.8890  223.9090 N   0  0  0  0  0  0  0  0  0  0  0  0
  138.8420   74.0910  222.8170 H   0  0  0  0  0  0  0  0  0  0  0  0
  136.9116   74.3024  220.5662 H   0  0  0  0  0  0  0  0  0  0  0  0
  137.9869   75.6131  221.2046 H   0  0  0  0  0  0  0  0  0  0  0  0
  139.5822   71.8097  219.2877 H   0  0  0  0  0  0  0  0  0  0  0  0
  141.0743   72.3450  218.5948 H   0  0  0  0  0  0  0  0  0  0  0  0
  140.4996   71.3316  221.3660 H   0  0  0  0  0  0  0  0  0  0  0  0
  142.0823   71.4433  220.5661 H   0  0  0  0  0  0  0  0  0  0  0  0
  140.7211   73.4349  222.3887 H   0  0  0  0  0  0  0  0  0  0  0  0
  142.4221   73.2800  222.1090 H   0  0  0  0  0  0  0  0  0  0  0  0
  142.1596   74.3902  219.7814 H   0  0  0  0  0  0  0  0  0  0  0  0
  140.2893   75.2221  222.8156 H   0  0  0  0  0  0  0  0  0  0  0  0
  140.2805   77.5103  223.6693 H   0  0  0  0  0  0  0  0  0  0  0  0
  142.2913   78.8259  220.1392 H   0  0  0  0  0  0  0  0  0  0  0  0
  142.2983   76.4993  219.2693 H   0  0  0  0  0  0  0  0  0  0  0  0
  137.1991   69.8933  222.5060 H   0  0  0  0  0  0  0  0  0  0  0  0
  137.8443   68.4024  224.3744 H   0  0  0  0  0  0  0  0  0  0  0  0
  139.1685   68.0287  226.2840 H   0  0  0  0  0  0  0  0  0  0  0  0
  141.9531   71.0292  227.5951 H   0  0  0  0  0  0  0  0  0  0  0  0
  141.2712   72.5044  225.6997 H   0  0  0  0  0  0  0  0  0  0  0  0
  1  2  2  0
  2  3  1  0
  3  4  1  0
  4  5  1  0
  5  6  2  0
  5  7  1  0
  7  8  1  0
  8  9  1  0
  9 10  1  0
 10 11  1  0
 11 12  1  0
 12 13  2  0
 13 14  1  0
 14 15  2  0
 15 16  1  0
 15 17  1  0
 17 18  2  0
  2 19  1  0
 19 20  2  0
 20 21  1  0
 21 22  2  0
 22 23  1  0
 23 24  2  0
 24 25  1  0
 24 26  1  0
 26 27  2  0
 27 28  1  0
 28 29  2  0
 11  7  1  0
 18 12  1  0
 29 19  1  0
 28 22  1  0
  3 30  1  0
  4 31  1  0
  4 32  1  0
  8 33  1  0
  8 34  1  0
  9 35  1  0
  9 36  1  0
 10 37  1  0
 10 38  1  0
 11 39  1  6
 13 40  1  0
 14 41  1  0
 17 42  1  0
 18 43  1  0
 20 44  1  0
 21 45  1  0
 23 46  1  0
 26 47  1  0
 27 48  1  0
M  END
>  <smiles>  (42) 
O=C(NCC(=O)N1CCCC1c1ccc(Br)cc1)c1ccc2cc(Cl)ccc2n1

>  <score_type>  (42) 
oracle

>  <origin>  (42) 
autodockgpu

>  <m_score__min__energy>  (42) 
-8.4399999999999995

>  <m_primary>  (42) 
energy

>  <rmsd>  (42) 
2.6873974935188705

>  <m_score__min__rmsd>  (42) 
2.6873974935188705

>  <meeko>  (42) 
{"free_energy": -7.56, "intermolecular_energy": -9.05, "internal_energy": -2.35, "cluster_size": 29, "cluster_id": 1, "rank_in_cluster": 24}

>  <energy>  (42) 
-8.02

>  <cluster_rmsd>  (42) 
0.26

>  <cluster>  (42) 
4

$$$$

     RDKit          3D

 48 51  0  0  0  0  0  0  0  0999 V2000
  138.6560   70.8000  221.2180 O   0  0  0  0  0  0  0  0  0  0  0  0
  138.9000   71.5950  222.1810 C   0  0  0  0  0  0  0  0  0  0  0  0
  138.6520   73.0060  222.0440 N   0  0  0  0  0  0  0  0  0  0  0  0
  138.1200   73.5450  220.8070 C   0  0  0  0  0  0  0  0  0  0  0  0
  138.8600   74.7630  220.3800 C   0  0  0  0  0  0  0  0  0  0  0  0
  138.8950   74.9870  219.1440 O   0  0  0  0  0  0  0  0  0  0  0  0
  139.4510   75.5560  221.3750 N   0  0  0  0  0  0  0  0  0  0  0  0
  138.7630   76.5560  222.2320 C   0  0  0  0  0  0  0  0  0  0  0  0
  139.7420   77.7120  222.1180 C   0  0  0  0  0  0  0  0  0  0  0  0
  141.0500   77.1320  221.5590 C   0  0  0  0  0  0  0  0  0  0  0  0
  140.8290   75.6620  221.8470 C   0  0  2  0  0  0  0  0  0  0  0  0
  141.7950   74.7930  221.2030 C   0  0  0  0  0  0  0  0  0  0  0  0
  142.8580   75.2880  220.4500 C   0  0  0  0  0  0  0  0  0  0  0  0
  143.7930   74.4810  219.8560 C   0  0  0  0  0  0  0  0  0  0  0  0
  143.7100   73.1270  219.9850 C   0  0  0  0  0  0  0  0  0  0  0  0
  145.0320   72.0320  219.1420 Br  0  0  0  0  0  0  0  0  0  0  0  0
  142.6780   72.5920  220.7190 C   0  0  0  0  0  0  0  0  0  0  0  0
  141.7270   73.4230  221.3220 C   0  0  0  0  0  0  0  0  0  0  0  0
  139.4330   71.1050  223.4440 C   0  0  0  0  0  0  0  0  0  0  0  0
  140.3160   71.8930  224.1560 C   0  0  0  0  0  0  0  0  0  0  0  0
  140.8700   71.5120  225.3570 C   0  0  0  0  0  0  0  0  0  0  0  0
  140.5060   70.2740  225.8480 C   0  0  0  0  0  0  0  0  0  0  0  0
  141.0500   69.8760  227.0470 C   0  0  0  0  0  0  0  0  0  0  0  0
  140.7050   68.6440  227.5620 C   0  0  0  0  0  0  0  0  0  0  0  0
  141.4050   68.1450  229.0930 Cl  0  0  0  0  0  0  0  0  0  0  0  0
  139.8200   67.8390  226.8630 C   0  0  0  0  0  0  0  0  0  0  0  0
  139.2770   68.2590  225.6440 C   0  0  0  0  0  0  0  0  0  0  0  0
  139.6240   69.4860  225.1370 C   0  0  0  0  0  0  0  0  0  0  0  0
  139.0970   69.8970  223.9540 N   0  0  0  0  0  0  0  0  0  0  0  0
  138.8720   73.6240  222.8800 H   0  0  0  0  0  0  0  0  0  0  0  0
  138.2034   72.7816  220.0194 H   0  0  0  0  0  0  0  0  0  0  0  0
  137.0686   73.8212  220.9749 H   0  0  0  0  0  0  0  0  0  0  0  0
  137.7709   76.8198  221.8369 H   0  0  0  0  0  0  0  0  0  0  0  0
  138.5541   76.2230  223.2594 H   0  0  0  0  0  0  0  0  0  0  0  0
  139.3454   78.4783  221.4357 H   0  0  0  0  0  0  0  0  0  0  0  0
  139.9072   78.1874  223.0961 H   0  0  0  0  0  0  0  0  0  0  0  0
  141.1549   77.3257  220.4813 H   0  0  0  0  0  0  0  0  0  0  0  0
  141.9678   77.5564  221.9921 H   0  0  0  0  0  0  0  0  0  0  0  0
  140.9719   75.3369  222.8881 H   0  0  0  0  0  0  0  0  0  0  0  0
  142.9510   76.3771  220.3266 H   0  0  0  0  0  0  0  0  0  0  0  0
  144.6125   74.9274  219.2737 H   0  0  0  0  0  0  0  0  0  0  0  0
  142.5990   71.5008  220.8334 H   0  0  0  0  0  0  0  0  0  0  0  0
  140.9086   72.9725  221.9028 H   0  0  0  0  0  0  0  0  0  0  0  0
  140.5903   72.8746  223.7424 H   0  0  0  0  0  0  0  0  0  0  0  0
  141.5702   72.1635  225.9003 H   0  0  0  0  0  0  0  0  0  0  0  0
  141.7498   70.5306  227.5871 H   0  0  0  0  0  0  0  0  0  0  0  0
  139.5407   66.8568  227.2719 H   0  0  0  0  0  0  0  0  0  0  0  0
  138.5773   67.6107  225.0962 H   0  0  0  0  0  0  0  0  0  0  0  0
  1  2  2  0
  2  3  1  0
  3  4  1  0
  4  5  1  0
  5  6  2  0
  5  7  1  0
  7  8  1  0
  8  9  1  0
  9 10  1  0
 10 11  1  0
 11 12  1  0
 12 13  2  0
 13 14  1  0
 14 15  2  0
 15 16  1  0
 15 17  1  0
 17 18  2  0
  2 19  1  0
 19 20  2  0
 20 21  1  0
 21 22  2  0
 22 23  1  0
 23 24  2  0
 24 25  1  0
 24 26  1  0
 26 27  2  0
 27 28  1  0
 28 29  2  0
 11  7  1  0
 18 12  1  0
 29 19  1  0
 28 22  1  0
  3 30  1  0
  4 31  1  0
  4 32  1  0
  8 33  1  0
  8 34  1  0
  9 35  1  0
  9 36  1  0
 10 37  1  0
 10 38  1  0
 11 39  1  1
 13 40  1  0
 14 41  1  0
 17 42  1  0
 18 43  1  0
 20 44  1  0
 21 45  1  0
 23 46  1  0
 26 47  1  0
 27 48  1  0
M  END
>  <smiles>  (43) 
O=C(NCC(=O)N1CCCC1c1ccc(Br)cc1)c1ccc2cc(Cl)ccc2n1

>  <score_type>  (43) 
oracle

>  <origin>  (43) 
autodockgpu

>  <m_score__min__energy>  (43) 
-8.4399999999999995

>  <m_primary>  (43) 
energy

>  <rmsd>  (43) 
3.1564918575502685

>  <m_score__min__rmsd>  (43) 
3.1564918575502685

>  <meeko>  (43) 
{"free_energy": -8.08, "intermolecular_energy": -9.57, "internal_energy": -1.86, "cluster_size": 8, "cluster_id": 4, "rank_in_cluster": 1}

>  <energy>  (43) 
-7.96

>  <cluster_rmsd>  (43) 
0.42

>  <cluster>  (43) 
4

$$$$

     RDKit          3D

 48 51  0  0  0  0  0  0  0  0999 V2000
  139.3370   72.3020  220.4110 O   0  0  0  0  0  0  0  0  0  0  0  0
  139.9190   72.6870  221.4760 C   0  0  0  0  0  0  0  0  0  0  0  0
  140.5660   73.9710  221.5320 N   0  0  0  0  0  0  0  0  0  0  0  0
  140.5640   74.8480  220.3770 C   0  0  0  0  0  0  0  0  0  0  0  0
  139.2900   75.6090  220.2720 C   0  0  0  0  0  0  0  0  0  0  0  0
  139.1290   76.2810  219.2230 O   0  0  0  0  0  0  0  0  0  0  0  0
  138.3800   75.5180  221.3370 N   0  0  0  0  0  0  0  0  0  0  0  0
  137.2760   74.5340  221.4720 C   0  0  0  0  0  0  0  0  0  0  0  0
  136.1490   75.4650  221.8880 C   0  0  0  0  0  0  0  0  0  0  0  0
  136.8030   76.7830  222.3310 C   0  0  0  0  0  0  0  0  0  0  0  0
  138.2230   76.3080  222.5550 C   0  0  2  0  0  0  0  0  0  0  0  0
  139.1720   77.3880  222.7450 C   0  0  0  0  0  0  0  0  0  0  0  0
  138.7720   78.6920  223.0280 C   0  0  0  0  0  0  0  0  0  0  0  0
  139.6570   79.7170  223.2340 C   0  0  0  0  0  0  0  0  0  0  0  0
  140.9980   79.4890  223.1670 C   0  0  0  0  0  0  0  0  0  0  0  0
  142.2040   80.9440  223.4610 Br  0  0  0  0  0  0  0  0  0  0  0  0
  141.4420   78.2170  222.8910 C   0  0  0  0  0  0  0  0  0  0  0  0
  140.5320   77.1750  222.6810 C   0  0  0  0  0  0  0  0  0  0  0  0
  139.9480   71.8440  222.6630 C   0  0  0  0  0  0  0  0  0  0  0  0
  139.3860   70.5820  222.6100 C   0  0  0  0  0  0  0  0  0  0  0  0
  139.3670   69.7180  223.6810 C   0  0  0  0  0  0  0  0  0  0  0  0
  139.9470   70.1620  224.8520 C   0  0  0  0  0  0  0  0  0  0  0  0
  139.9380   69.3120  225.9330 C   0  0  0  0  0  0  0  0  0  0  0  0
  140.5100   69.7290  227.1180 C   0  0  0  0  0  0  0  0  0  0  0  0
  140.4920   68.6350  228.4920 Cl  0  0  0  0  0  0  0  0  0  0  0  0
  141.0790   70.9890  227.1900 C   0  0  0  0  0  0  0  0  0  0  0  0
  141.0790   71.8420  226.0810 C   0  0  0  0  0  0  0  0  0  0  0  0
  140.5090   71.4210  224.9060 C   0  0  0  0  0  0  0  0  0  0  0  0
  140.5080   72.2480  223.8270 N   0  0  0  0  0  0  0  0  0  0  0  0
  141.0360   74.2420  222.4460 H   0  0  0  0  0  0  0  0  0  0  0  0
  141.3986   75.5589  220.4667 H   0  0  0  0  0  0  0  0  0  0  0  0
  140.6717   74.2293  219.4739 H   0  0  0  0  0  0  0  0  0  0  0  0
  137.0590   74.0294  220.5190 H   0  0  0  0  0  0  0  0  0  0  0  0
  137.4745   73.7044  222.1666 H   0  0  0  0  0  0  0  0  0  0  0  0
  135.4730   75.6443  221.0390 H   0  0  0  0  0  0  0  0  0  0  0  0
  135.5545   75.0259  222.7027 H   0  0  0  0  0  0  0  0  0  0  0  0
  136.7482   77.5505  221.5449 H   0  0  0  0  0  0  0  0  0  0  0  0
  136.3325   77.2649  223.2007 H   0  0  0  0  0  0  0  0  0  0  0  0
  138.4144   75.7452  223.4806 H   0  0  0  0  0  0  0  0  0  0  0  0
  137.6953   78.9087  223.0889 H   0  0  0  0  0  0  0  0  0  0  0  0
  139.2833   80.7278  223.4543 H   0  0  0  0  0  0  0  0  0  0  0  0
  142.5222   78.0169  222.8348 H   0  0  0  0  0  0  0  0  0  0  0  0
  140.9097   76.1657  222.4604 H   0  0  0  0  0  0  0  0  0  0  0  0
  138.9312   70.2519  221.6644 H   0  0  0  0  0  0  0  0  0  0  0  0
  138.9107   68.7198  223.6072 H   0  0  0  0  0  0  0  0  0  0  0  0
  139.4816   68.3142  225.8545 H   0  0  0  0  0  0  0  0  0  0  0  0
  141.5374   71.3241  228.1321 H   0  0  0  0  0  0  0  0  0  0  0  0
  141.5322   72.8419  226.1505 H   0  0  0  0  0  0  0  0  0  0  0  0
  1  2  2  0
  2  3  1  0
  3  4  1  0
  4  5  1  0
  5  6  2  0
  5  7  1  0
  7  8  1  0
  8  9  1  0
  9 10  1  0
 10 11  1  0
 11 12  1  0
 12 13  2  0
 13 14  1  0
 14 15  2  0
 15 16  1  0
 15 17  1  0
 17 18  2  0
  2 19  1  0
 19 20  2  0
 20 21  1  0
 21 22  2  0
 22 23  1  0
 23 24  2  0
 24 25  1  0
 24 26  1  0
 26 27  2  0
 27 28  1  0
 28 29  2  0
 11  7  1  0
 18 12  1  0
 29 19  1  0
 28 22  1  0
  3 30  1  0
  4 31  1  0
  4 32  1  0
  8 33  1  0
  8 34  1  0
  9 35  1  0
  9 36  1  0
 10 37  1  0
 10 38  1  0
 11 39  1  1
 13 40  1  0
 14 41  1  0
 17 42  1  0
 18 43  1  0
 20 44  1  0
 21 45  1  0
 23 46  1  0
 26 47  1  0
 27 48  1  0
M  END
>  <smiles>  (44) 
O=C(NCC(=O)N1CCCC1c1ccc(Br)cc1)c1ccc2cc(Cl)ccc2n1

>  <score_type>  (44) 
oracle

>  <origin>  (44) 
autodockgpu

>  <m_score__min__energy>  (44) 
-8.4399999999999995

>  <m_primary>  (44) 
energy

>  <rmsd>  (44) 
3.146107742394719

>  <m_score__min__rmsd>  (44) 
3.146107742394719

>  <meeko>  (44) 
{"free_energy": -7.99, "intermolecular_energy": -9.48, "internal_energy": -1.95, "cluster_size": 29, "cluster_id": 1, "rank_in_cluster": 15}

>  <energy>  (44) 
-7.9

>  <cluster_rmsd>  (44) 
0.71

>  <cluster>  (44) 
4

$$$$

     RDKit          3D

 48 51  0  0  0  0  0  0  0  0999 V2000
  138.8660   71.5360  220.6890 O   0  0  0  0  0  0  0  0  0  0  0  0
  138.7350   72.0090  221.8630 C   0  0  0  0  0  0  0  0  0  0  0  0
  138.2270   73.3400  222.0630 N   0  0  0  0  0  0  0  0  0  0  0  0
  137.8540   74.1640  220.9290 C   0  0  0  0  0  0  0  0  0  0  0  0
  138.8300   75.2670  220.7120 C   0  0  0  0  0  0  0  0  0  0  0  0
  138.4490   76.4180  221.0430 O   0  0  0  0  0  0  0  0  0  0  0  0
  140.0790   74.9410  220.1640 N   0  0  0  0  0  0  0  0  0  0  0  0
  140.3910   73.7610  219.3170 C   0  0  0  0  0  0  0  0  0  0  0  0
  141.6690   73.2900  219.9900 C   0  0  0  0  0  0  0  0  0  0  0  0
  142.1620   74.4510  220.8680 C   0  0  0  0  0  0  0  0  0  0  0  0
  141.3830   75.5930  220.2530 C   0  0  2  0  0  0  0  0  0  0  0  0
  141.4350   76.8160  221.0310 C   0  0  0  0  0  0  0  0  0  0  0  0
  141.8150   78.0360  220.4770 C   0  0  0  0  0  0  0  0  0  0  0  0
  141.8470   79.2050  221.1920 C   0  0  0  0  0  0  0  0  0  0  0  0
  141.4970   79.2110  222.5090 C   0  0  0  0  0  0  0  0  0  0  0  0
  141.5530   80.8610  223.4770 Br  0  0  0  0  0  0  0  0  0  0  0  0
  141.1140   78.0300  223.1010 C   0  0  0  0  0  0  0  0  0  0  0  0
  141.0850   76.8420  222.3630 C   0  0  0  0  0  0  0  0  0  0  0  0
  139.0940   71.2220  223.0340 C   0  0  0  0  0  0  0  0  0  0  0  0
  138.7470   69.8850  223.0830 C   0  0  0  0  0  0  0  0  0  0  0  0
  139.0450   69.0650  224.1480 C   0  0  0  0  0  0  0  0  0  0  0  0
  139.7240   69.6360  225.2050 C   0  0  0  0  0  0  0  0  0  0  0  0
  140.0300   68.8330  226.2780 C   0  0  0  0  0  0  0  0  0  0  0  0
  140.7080   69.3750  227.3490 C   0  0  0  0  0  0  0  0  0  0  0  0
  141.0930   68.3400  228.7150 Cl  0  0  0  0  0  0  0  0  0  0  0  0
  141.0650   70.7140  227.3200 C   0  0  0  0  0  0  0  0  0  0  0  0
  140.7450   71.5180  226.2200 C   0  0  0  0  0  0  0  0  0  0  0  0
  140.0710   70.9710  225.1570 C   0  0  0  0  0  0  0  0  0  0  0  0
  139.7600   71.7500  224.0880 N   0  0  0  0  0  0  0  0  0  0  0  0
  138.1370   73.6840  223.0640 H   0  0  0  0  0  0  0  0  0  0  0  0
  137.8183   73.5356  220.0269 H   0  0  0  0  0  0  0  0  0  0  0  0
  136.8696   74.6096  221.1349 H   0  0  0  0  0  0  0  0  0  0  0  0
  139.5980   73.0003  219.3672 H   0  0  0  0  0  0  0  0  0  0  0  0
  140.4822   73.9716  218.2412 H   0  0  0  0  0  0  0  0  0  0  0  0
  141.4660   72.4051  220.6111 H   0  0  0  0  0  0  0  0  0  0  0  0
  142.4275   73.0091  219.2444 H   0  0  0  0  0  0  0  0  0  0  0  0
  141.9014   74.3020  221.9262 H   0  0  0  0  0  0  0  0  0  0  0  0
  143.2531   74.5895  220.8840 H   0  0  0  0  0  0  0  0  0  0  0  0
  141.7550   75.9823  219.2938 H   0  0  0  0  0  0  0  0  0  0  0  0
  142.1030   78.0627  219.4157 H   0  0  0  0  0  0  0  0  0  0  0  0
  142.1558   80.1401  220.7018 H   0  0  0  0  0  0  0  0  0  0  0  0
  140.8282   78.0196  224.1632 H   0  0  0  0  0  0  0  0  0  0  0  0
  140.7762   75.9088  222.8568 H   0  0  0  0  0  0  0  0  0  0  0  0
  138.2054   69.4544  222.2279 H   0  0  0  0  0  0  0  0  0  0  0  0
  138.7553   68.0039  224.1560 H   0  0  0  0  0  0  0  0  0  0  0  0
  139.7379   67.7725  226.2820 H   0  0  0  0  0  0  0  0  0  0  0  0
  141.6066   71.1502  228.1723 H   0  0  0  0  0  0  0  0  0  0  0  0
  141.0315   72.5800  226.2076 H   0  0  0  0  0  0  0  0  0  0  0  0
  1  2  2  0
  2  3  1  0
  3  4  1  0
  4  5  1  0
  5  6  2  0
  5  7  1  0
  7  8  1  0
  8  9  1  0
  9 10  1  0
 10 11  1  0
 11 12  1  0
 12 13  2  0
 13 14  1  0
 14 15  2  0
 15 16  1  0
 15 17  1  0
 17 18  2  0
  2 19  1  0
 19 20  2  0
 20 21  1  0
 21 22  2  0
 22 23  1  0
 23 24  2  0
 24 25  1  0
 24 26  1  0
 26 27  2  0
 27 28  1  0
 28 29  2  0
 11  7  1  0
 18 12  1  0
 29 19  1  0
 28 22  1  0
  3 30  1  0
  4 31  1  0
  4 32  1  0
  8 33  1  0
  8 34  1  0
  9 35  1  0
  9 36  1  0
 10 37  1  0
 10 38  1  0
 11 39  1  6
 13 40  1  0
 14 41  1  0
 17 42  1  0
 18 43  1  0
 20 44  1  0
 21 45  1  0
 23 46  1  0
 26 47  1  0
 27 48  1  0
M  END
>  <smiles>  (45) 
O=C(NCC(=O)N1CCCC1c1ccc(Br)cc1)c1ccc2cc(Cl)ccc2n1

>  <score_type>  (45) 
oracle

>  <origin>  (45) 
autodockgpu

>  <m_score__min__energy>  (45) 
-8.4399999999999995

>  <m_primary>  (45) 
energy

>  <rmsd>  (45) 
1.9648362532895132

>  <m_score__min__rmsd>  (45) 
1.9648362532895132

>  <meeko>  (45) 
{"free_energy": -8.37, "intermolecular_energy": -9.86, "internal_energy": -1.75, "cluster_size": 29, "cluster_id": 1, "rank_in_cluster": 5}

>  <energy>  (45) 
-7.84

>  <cluster_rmsd>  (45) 
1.56

>  <cluster>  (45) 
4

$$$$

     RDKit          3D

 48 51  0  0  0  0  0  0  0  0999 V2000
  137.2980   71.0840  221.3110 O   0  0  0  0  0  0  0  0  0  0  0  0
  137.9080   71.6710  222.2610 C   0  0  0  0  0  0  0  0  0  0  0  0
  138.0470   73.1040  222.2660 N   0  0  0  0  0  0  0  0  0  0  0  0
  137.4930   73.9010  221.1880 C   0  0  0  0  0  0  0  0  0  0  0  0
  138.5110   74.8220  220.6140 C   0  0  0  0  0  0  0  0  0  0  0  0
  138.1680   76.0260  220.4980 O   0  0  0  0  0  0  0  0  0  0  0  0
  139.7550   74.2850  220.2520 N   0  0  0  0  0  0  0  0  0  0  0  0
  139.9940   72.9640  219.6160 C   0  0  0  0  0  0  0  0  0  0  0  0
  141.1400   72.4650  220.4790 C   0  0  0  0  0  0  0  0  0  0  0  0
  141.6910   73.6840  221.2350 C   0  0  0  0  0  0  0  0  0  0  0  0
  141.1150   74.7980  220.3880 C   0  0  2  0  0  0  0  0  0  0  0  0
  141.2470   76.1120  220.9890 C   0  0  0  0  0  0  0  0  0  0  0  0
  140.9490   76.3520  222.3280 C   0  0  0  0  0  0  0  0  0  0  0  0
  141.0910   77.5810  222.9170 C   0  0  0  0  0  0  0  0  0  0  0  0
  141.5420   78.6410  222.1890 C   0  0  0  0  0  0  0  0  0  0  0  0
  141.7290   80.3420  223.0440 Br  0  0  0  0  0  0  0  0  0  0  0  0
  141.8510   78.4520  220.8620 C   0  0  0  0  0  0  0  0  0  0  0  0
  141.7020   77.1940  220.2690 C   0  0  0  0  0  0  0  0  0  0  0  0
  138.4810   70.9160  223.3660 C   0  0  0  0  0  0  0  0  0  0  0  0
  138.3050   69.5460  223.4120 C   0  0  0  0  0  0  0  0  0  0  0  0
  138.8100   68.7520  224.4170 C   0  0  0  0  0  0  0  0  0  0  0  0
  139.5230   69.3860  225.4140 C   0  0  0  0  0  0  0  0  0  0  0  0
  140.0350   68.6090  226.4270 C   0  0  0  0  0  0  0  0  0  0  0  0
  140.7510   69.2140  227.4390 C   0  0  0  0  0  0  0  0  0  0  0  0
  141.4000   68.2130  228.7270 Cl  0  0  0  0  0  0  0  0  0  0  0  0
  140.9390   70.5860  227.4110 C   0  0  0  0  0  0  0  0  0  0  0  0
  140.4100   71.3630  226.3730 C   0  0  0  0  0  0  0  0  0  0  0  0
  139.6990   70.7540  225.3700 C   0  0  0  0  0  0  0  0  0  0  0  0
  139.1850   71.5050  224.3610 N   0  0  0  0  0  0  0  0  0  0  0  0
  138.5640   73.5410  223.0840 H   0  0  0  0  0  0  0  0  0  0  0  0
  137.1313   73.2291  220.3957 H   0  0  0  0  0  0  0  0  0  0  0  0
  136.6688   74.5061  221.5936 H   0  0  0  0  0  0  0  0  0  0  0  0
  139.1126   72.3098  219.6882 H   0  0  0  0  0  0  0  0  0  0  0  0
  140.2050   72.9985  218.5370 H   0  0  0  0  0  0  0  0  0  0  0  0
  140.7763   71.7102  221.1918 H   0  0  0  0  0  0  0  0  0  0  0  0
  141.9219   71.9961  219.8636 H   0  0  0  0  0  0  0  0  0  0  0  0
  141.3208   73.7245  222.2700 H   0  0  0  0  0  0  0  0  0  0  0  0
  142.7850   73.7047  221.3476 H   0  0  0  0  0  0  0  0  0  0  0  0
  141.6159   74.9961  219.4289 H   0  0  0  0  0  0  0  0  0  0  0  0
  140.5825   75.5158  222.9415 H   0  0  0  0  0  0  0  0  0  0  0  0
  140.8404   77.7123  223.9800 H   0  0  0  0  0  0  0  0  0  0  0  0
  142.2185   79.2975  220.2620 H   0  0  0  0  0  0  0  0  0  0  0  0
  141.9534   77.0664  219.2057 H   0  0  0  0  0  0  0  0  0  0  0  0
  137.7325   69.0657  222.6048 H   0  0  0  0  0  0  0  0  0  0  0  0
  138.6525   67.6634  224.4249 H   0  0  0  0  0  0  0  0  0  0  0  0
  139.8757   67.5206  226.4301 H   0  0  0  0  0  0  0  0  0  0  0  0
  141.5115   71.0718  228.2149 H   0  0  0  0  0  0  0  0  0  0  0  0
  140.5632   72.4522  226.3619 H   0  0  0  0  0  0  0  0  0  0  0  0
  1  2  2  0
  2  3  1  0
  3  4  1  0
  4  5  1  0
  5  6  2  0
  5  7  1  0
  7  8  1  0
  8  9  1  0
  9 10  1  0
 10 11  1  0
 11 12  1  0
 12 13  2  0
 13 14  1  0
 14 15  2  0
 15 16  1  0
 15 17  1  0
 17 18  2  0
  2 19  1  0
 19 20  2  0
 20 21  1  0
 21 22  2  0
 22 23  1  0
 23 24  2  0
 24 25  1  0
 24 26  1  0
 26 27  2  0
 27 28  1  0
 28 29  2  0
 11  7  1  0
 18 12  1  0
 29 19  1  0
 28 22  1  0
  3 30  1  0
  4 31  1  0
  4 32  1  0
  8 33  1  0
  8 34  1  0
  9 35  1  0
  9 36  1  0
 10 37  1  0
 10 38  1  0
 11 39  1  6
 13 40  1  0
 14 41  1  0
 17 42  1  0
 18 43  1  0
 20 44  1  0
 21 45  1  0
 23 46  1  0
 26 47  1  0
 27 48  1  0
M  END
>  <smiles>  (46) 
O=C(NCC(=O)N1CCCC1c1ccc(Br)cc1)c1ccc2cc(Cl)ccc2n1

>  <score_type>  (46) 
oracle

>  <origin>  (46) 
autodockgpu

>  <m_score__min__energy>  (46) 
-8.4399999999999995

>  <m_primary>  (46) 
energy

>  <rmsd>  (46) 
2.301197086484348

>  <m_score__min__rmsd>  (46) 
2.301197086484348

>  <meeko>  (46) 
{"free_energy": -7.9, "intermolecular_energy": -9.39, "internal_energy": -2.04, "cluster_size": 29, "cluster_id": 1, "rank_in_cluster": 17}

>  <energy>  (46) 
-7.74

>  <cluster_rmsd>  (46) 
0.76

>  <cluster>  (46) 
4

$$$$

     RDKit          3D

 48 51  0  0  0  0  0  0  0  0999 V2000
  133.8600   70.1680  226.0740 O   0  0  0  0  0  0  0  0  0  0  0  0
  134.0510   71.3370  225.6080 C   0  0  0  0  0  0  0  0  0  0  0  0
  134.8850   71.5350  224.4520 N   0  0  0  0  0  0  0  0  0  0  0  0
  135.5190   70.4070  223.7980 C   0  0  0  0  0  0  0  0  0  0  0  0
  136.7500   70.8190  223.0710 C   0  0  0  0  0  0  0  0  0  0  0  0
  136.9470   72.0560  222.9700 O   0  0  0  0  0  0  0  0  0  0  0  0
  137.5830   69.8100  222.5640 N   0  0  0  0  0  0  0  0  0  0  0  0
  137.3620   69.0240  221.3240 C   0  0  0  0  0  0  0  0  0  0  0  0
  137.6490   67.6270  221.8480 C   0  0  0  0  0  0  0  0  0  0  0  0
  138.3810   67.7980  223.1890 C   0  0  0  0  0  0  0  0  0  0  0  0
  138.8320   69.2370  223.0580 C   0  0  2  0  0  0  0  0  0  0  0  0
  139.3490   69.7970  224.2920 C   0  0  0  0  0  0  0  0  0  0  0  0
  139.1390   69.1940  225.5300 C   0  0  0  0  0  0  0  0  0  0  0  0
  139.6420   69.6970  226.7020 C   0  0  0  0  0  0  0  0  0  0  0  0
  140.3850   70.8380  226.6940 C   0  0  0  0  0  0  0  0  0  0  0  0
  141.0710   71.5120  228.3480 Br  0  0  0  0  0  0  0  0  0  0  0  0
  140.6200   71.4700  225.4950 C   0  0  0  0  0  0  0  0  0  0  0  0
  140.1030   70.9500  224.3040 C   0  0  0  0  0  0  0  0  0  0  0  0
  133.4370   72.5020  226.2280 C   0  0  0  0  0  0  0  0  0  0  0  0
  132.2830   72.3430  226.9710 C   0  0  0  0  0  0  0  0  0  0  0  0
  131.6340   73.3870  227.5920 C   0  0  0  0  0  0  0  0  0  0  0  0
  132.1890   74.6420  227.4470 C   0  0  0  0  0  0  0  0  0  0  0  0
  131.5540   75.6970  228.0600 C   0  0  0  0  0  0  0  0  0  0  0  0
  132.0850   76.9640  227.9320 C   0  0  0  0  0  0  0  0  0  0  0  0
  131.2660   78.3030  228.7180 Cl  0  0  0  0  0  0  0  0  0  0  0  0
  133.2420   77.1440  227.1910 C   0  0  0  0  0  0  0  0  0  0  0  0
  133.8740   76.0590  226.5730 C   0  0  0  0  0  0  0  0  0  0  0  0
  133.3410   74.8020  226.7050 C   0  0  0  0  0  0  0  0  0  0  0  0
  133.9540   73.7470  226.1060 N   0  0  0  0  0  0  0  0  0  0  0  0
  135.0100   72.5320  224.1060 H   0  0  0  0  0  0  0  0  0  0  0  0
  135.7865   69.6576  224.5576 H   0  0  0  0  0  0  0  0  0  0  0  0
  134.8106   69.9890  223.0676 H   0  0  0  0  0  0  0  0  0  0  0  0
  136.3291   69.1193  220.9580 H   0  0  0  0  0  0  0  0  0  0  0  0
  137.9731   69.3323  220.4629 H   0  0  0  0  0  0  0  0  0  0  0  0
  136.7078   67.0778  221.9976 H   0  0  0  0  0  0  0  0  0  0  0  0
  138.2605   67.0554  221.1343 H   0  0  0  0  0  0  0  0  0  0  0  0
  137.7041   67.6582  224.0447 H   0  0  0  0  0  0  0  0  0  0  0  0
  139.1880   67.0735  223.3730 H   0  0  0  0  0  0  0  0  0  0  0  0
  139.6984   69.4242  222.4066 H   0  0  0  0  0  0  0  0  0  0  0  0
  138.5417   68.2711  225.5691 H   0  0  0  0  0  0  0  0  0  0  0  0
  139.4448   69.1774  227.6513 H   0  0  0  0  0  0  0  0  0  0  0  0
  141.2195   72.3920  225.4727 H   0  0  0  0  0  0  0  0  0  0  0  0
  140.3026   71.4726  223.3569 H   0  0  0  0  0  0  0  0  0  0  0  0
  131.8615   71.3319  227.0716 H   0  0  0  0  0  0  0  0  0  0  0  0
  130.7158   73.2278  228.1765 H   0  0  0  0  0  0  0  0  0  0  0  0
  130.6362   75.5330  228.6437 H   0  0  0  0  0  0  0  0  0  0  0  0
  133.6691   78.1524  227.0872 H   0  0  0  0  0  0  0  0  0  0  0  0
  134.7913   76.2131  225.9858 H   0  0  0  0  0  0  0  0  0  0  0  0
  1  2  2  0
  2  3  1  0
  3  4  1  0
  4  5  1  0
  5  6  2  0
  5  7  1  0
  7  8  1  0
  8  9  1  0
  9 10  1  0
 10 11  1  0
 11 12  1  0
 12 13  2  0
 13 14  1  0
 14 15  2  0
 15 16  1  0
 15 17  1  0
 17 18  2  0
  2 19  1  0
 19 20  2  0
 20 21  1  0
 21 22  2  0
 22 23  1  0
 23 24  2  0
 24 25  1  0
 24 26  1  0
 26 27  2  0
 27 28  1  0
 28 29  2  0
 11  7  1  0
 18 12  1  0
 29 19  1  0
 28 22  1  0
  3 30  1  0
  4 31  1  0
  4 32  1  0
  8 33  1  0
  8 34  1  0
  9 35  1  0
  9 36  1  0
 10 37  1  0
 10 38  1  0
 11 39  1  6
 13 40  1  0
 14 41  1  0
 17 42  1  0
 18 43  1  0
 20 44  1  0
 21 45  1  0
 23 46  1  0
 26 47  1  0
 27 48  1  0
M  END
>  <smiles>  (47) 
O=C(NCC(=O)N1CCCC1c1ccc(Br)cc1)c1ccc2cc(Cl)ccc2n1

>  <score_type>  (47) 
oracle

>  <origin>  (47) 
autodockgpu

>  <m_score__min__energy>  (47) 
-8.4399999999999995

>  <m_primary>  (47) 
energy

>  <rmsd>  (47) 
8.460082358039235

>  <m_score__min__rmsd>  (47) 
8.460082358039235

>  <meeko>  (47) 
{"free_energy": -7.88, "intermolecular_energy": -9.37, "internal_energy": -2.01, "cluster_size": 9, "cluster_id": 2, "rank_in_cluster": 8}

>  <energy>  (47) 
-7.59

>  <cluster_rmsd>  (47) 
1.88

>  <cluster>  (47) 
4

$$$$

     RDKit          3D

 48 51  0  0  0  0  0  0  0  0999 V2000
  138.1200   71.2200  220.8870 O   0  0  0  0  0  0  0  0  0  0  0  0
  138.4060   71.7860  221.9900 C   0  0  0  0  0  0  0  0  0  0  0  0
  138.3000   73.2150  222.1280 N   0  0  0  0  0  0  0  0  0  0  0  0
  137.8650   74.0320  221.0120 C   0  0  0  0  0  0  0  0  0  0  0  0
  138.8160   75.1460  220.7480 C   0  0  0  0  0  0  0  0  0  0  0  0
  138.4230   76.2980  221.0580 O   0  0  0  0  0  0  0  0  0  0  0  0
  140.0600   74.8280  220.1820 N   0  0  0  0  0  0  0  0  0  0  0  0
  140.3680   73.6480  219.3340 C   0  0  0  0  0  0  0  0  0  0  0  0
  141.6600   73.1890  219.9890 C   0  0  0  0  0  0  0  0  0  0  0  0
  142.1570   74.3560  220.8570 C   0  0  0  0  0  0  0  0  0  0  0  0
  141.3600   75.4900  220.2500 C   0  0  2  0  0  0  0  0  0  0  0  0
  141.4140   76.7160  221.0240 C   0  0  0  0  0  0  0  0  0  0  0  0
  141.7990   77.9330  220.4660 C   0  0  0  0  0  0  0  0  0  0  0  0
  141.8330   79.1040  221.1770 C   0  0  0  0  0  0  0  0  0  0  0  0
  141.4810   79.1170  222.4930 C   0  0  0  0  0  0  0  0  0  0  0  0
  141.5390   80.7690  223.4550 Br  0  0  0  0  0  0  0  0  0  0  0  0
  141.0920   77.9390  223.0880 C   0  0  0  0  0  0  0  0  0  0  0  0
  141.0610   76.7470  222.3550 C   0  0  0  0  0  0  0  0  0  0  0  0
  138.8470   71.0100  223.1400 C   0  0  0  0  0  0  0  0  0  0  0  0
  138.5530   69.6610  223.1980 C   0  0  0  0  0  0  0  0  0  0  0  0
  138.9290   68.8500  224.2460 C   0  0  0  0  0  0  0  0  0  0  0  0
  139.6330   69.4430  225.2730 C   0  0  0  0  0  0  0  0  0  0  0  0
  140.0170   68.6490  226.3280 C   0  0  0  0  0  0  0  0  0  0  0  0
  140.7220   69.2140  227.3700 C   0  0  0  0  0  0  0  0  0  0  0  0
  141.2070   68.1900  228.7120 Cl  0  0  0  0  0  0  0  0  0  0  0  0
  141.0270   70.5650  227.3310 C   0  0  0  0  0  0  0  0  0  0  0  0
  140.6280   71.3590  226.2500 C   0  0  0  0  0  0  0  0  0  0  0  0
  139.9270   70.7910  225.2160 C   0  0  0  0  0  0  0  0  0  0  0  0
  139.5390   71.5600  224.1650 N   0  0  0  0  0  0  0  0  0  0  0  0
  138.5510   73.6340  223.0710 H   0  0  0  0  0  0  0  0  0  0  0  0
  137.7949   73.4014  220.1134 H   0  0  0  0  0  0  0  0  0  0  0  0
  136.8861   74.4662  221.2632 H   0  0  0  0  0  0  0  0  0  0  0  0
  139.5818   72.8814  219.3986 H   0  0  0  0  0  0  0  0  0  0  0  0
  140.4410   73.8559  218.2563 H   0  0  0  0  0  0  0  0  0  0  0  0
  141.4735   72.3040  220.6151 H   0  0  0  0  0  0  0  0  0  0  0  0
  142.4094   72.9127  219.2327 H   0  0  0  0  0  0  0  0  0  0  0  0
  141.9130   74.2079  221.9193 H   0  0  0  0  0  0  0  0  0  0  0  0
  143.2471   74.5029  220.8571 H   0  0  0  0  0  0  0  0  0  0  0  0
  141.7148   75.8790  219.2842 H   0  0  0  0  0  0  0  0  0  0  0  0
  142.0892   77.9550  219.4052 H   0  0  0  0  0  0  0  0  0  0  0  0
  142.1454   80.0362  220.6837 H   0  0  0  0  0  0  0  0  0  0  0  0
  140.8027   77.9339  224.1493 H   0  0  0  0  0  0  0  0  0  0  0  0
  140.7486   75.8166  222.8517 H   0  0  0  0  0  0  0  0  0  0  0  0
  137.9907   69.2125  222.3658 H   0  0  0  0  0  0  0  0  0  0  0  0
  138.6793   67.7789  224.2630 H   0  0  0  0  0  0  0  0  0  0  0  0
  139.7654   67.5782  226.3407 H   0  0  0  0  0  0  0  0  0  0  0  0
  141.5897   71.0190  228.1600 H   0  0  0  0  0  0  0  0  0  0  0  0
  140.8745   72.4308  226.2292 H   0  0  0  0  0  0  0  0  0  0  0  0
  1  2  2  0
  2  3  1  0
  3  4  1  0
  4  5  1  0
  5  6  2  0
  5  7  1  0
  7  8  1  0
  8  9  1  0
  9 10  1  0
 10 11  1  0
 11 12  1  0
 12 13  2  0
 13 14  1  0
 14 15  2  0
 15 16  1  0
 15 17  1  0
 17 18  2  0
  2 19  1  0
 19 20  2  0
 20 21  1  0
 21 22  2  0
 22 23  1  0
 23 24  2  0
 24 25  1  0
 24 26  1  0
 26 27  2  0
 27 28  1  0
 28 29  2  0
 11  7  1  0
 18 12  1  0
 29 19  1  0
 28 22  1  0
  3 30  1  0
  4 31  1  0
  4 32  1  0
  8 33  1  0
  8 34  1  0
  9 35  1  0
  9 36  1  0
 10 37  1  0
 10 38  1  0
 11 39  1  6
 13 40  1  0
 14 41  1  0
 17 42  1  0
 18 43  1  0
 20 44  1  0
 21 45  1  0
 23 46  1  0
 26 47  1  0
 27 48  1  0
M  END
>  <smiles>  (48) 
O=C(NCC(=O)N1CCCC1c1ccc(Br)cc1)c1ccc2cc(Cl)ccc2n1

>  <score_type>  (48) 
oracle

>  <origin>  (48) 
autodockgpu

>  <m_score__min__energy>  (48) 
-8.4399999999999995

>  <m_primary>  (48) 
energy

>  <rmsd>  (48) 
1.975326610790102

>  <m_score__min__rmsd>  (48) 
1.975326610790102

>  <meeko>  (48) 
{"free_energy": -8.31, "intermolecular_energy": -9.8, "internal_energy": -1.78, "cluster_size": 29, "cluster_id": 1, "rank_in_cluster": 8}

>  <energy>  (48) 
-7.67

>  <cluster_rmsd>  (48) 
0.0

>  <cluster>  (48) 
5

$$$$

     RDKit          3D

 48 51  0  0  0  0  0  0  0  0999 V2000
  137.9510   71.1810  221.0280 O   0  0  0  0  0  0  0  0  0  0  0  0
  138.3750   71.7530  222.0830 C   0  0  0  0  0  0  0  0  0  0  0  0
  138.4200   73.1890  222.1680 N   0  0  0  0  0  0  0  0  0  0  0  0
  137.9820   74.0070  221.0540 C   0  0  0  0  0  0  0  0  0  0  0  0
  138.9010   75.1560  220.8270 C   0  0  0  0  0  0  0  0  0  0  0  0
  138.4860   76.2810  221.2030 O   0  0  0  0  0  0  0  0  0  0  0  0
  140.1390   74.8980  220.2210 N   0  0  0  0  0  0  0  0  0  0  0  0
  140.4860   73.7170  219.3900 C   0  0  0  0  0  0  0  0  0  0  0  0
  141.8260   73.3520  220.0050 C   0  0  0  0  0  0  0  0  0  0  0  0
  142.2850   74.5690  220.8240 C   0  0  0  0  0  0  0  0  0  0  0  0
  141.3980   75.6380  220.2230 C   0  0  2  0  0  0  0  0  0  0  0  0
  141.4080   76.8840  220.9640 C   0  0  0  0  0  0  0  0  0  0  0  0
  141.0780   76.9500  222.3160 C   0  0  0  0  0  0  0  0  0  0  0  0
  141.1050   78.1150  223.0370 C   0  0  0  0  0  0  0  0  0  0  0  0
  141.4670   79.2840  222.4360 C   0  0  0  0  0  0  0  0  0  0  0  0
  141.4950   80.8910  223.4720 Br  0  0  0  0  0  0  0  0  0  0  0  0
  141.8020   79.2690  221.1020 C   0  0  0  0  0  0  0  0  0  0  0  0
  141.7710   78.0740  220.3740 C   0  0  0  0  0  0  0  0  0  0  0  0
  138.8250   70.9770  223.2290 C   0  0  0  0  0  0  0  0  0  0  0  0
  138.5180   69.6310  223.2970 C   0  0  0  0  0  0  0  0  0  0  0  0
  138.9010   68.8200  224.3410 C   0  0  0  0  0  0  0  0  0  0  0  0
  139.6270   69.4090  225.3560 C   0  0  0  0  0  0  0  0  0  0  0  0
  140.0180   68.6150  226.4080 C   0  0  0  0  0  0  0  0  0  0  0  0
  140.7450   69.1760  227.4380 C   0  0  0  0  0  0  0  0  0  0  0  0
  141.2390   68.1520  228.7760 Cl  0  0  0  0  0  0  0  0  0  0  0  0
  141.0630   70.5230  227.3880 C   0  0  0  0  0  0  0  0  0  0  0  0
  140.6560   71.3180  226.3110 C   0  0  0  0  0  0  0  0  0  0  0  0
  139.9340   70.7530  225.2900 C   0  0  0  0  0  0  0  0  0  0  0  0
  139.5380   71.5230  224.2420 N   0  0  0  0  0  0  0  0  0  0  0  0
  138.7820   73.6130  223.0720 H   0  0  0  0  0  0  0  0  0  0  0  0
  137.9527   73.3877  220.1454 H   0  0  0  0  0  0  0  0  0  0  0  0
  136.9836   74.4045  221.2890 H   0  0  0  0  0  0  0  0  0  0  0  0
  139.7501   72.9072  219.5027 H   0  0  0  0  0  0  0  0  0  0  0  0
  140.5067   73.9012  218.3057 H   0  0  0  0  0  0  0  0  0  0  0  0
  141.7159   72.4748  220.6595 H   0  0  0  0  0  0  0  0  0  0  0  0
  142.5616   73.0995  219.2271 H   0  0  0  0  0  0  0  0  0  0  0  0
  142.0919   74.4346  221.8986 H   0  0  0  0  0  0  0  0  0  0  0  0
  143.3635   74.7803  220.7763 H   0  0  0  0  0  0  0  0  0  0  0  0
  141.6912   76.0231  219.2352 H   0  0  0  0  0  0  0  0  0  0  0  0
  140.7818   76.0231  222.8289 H   0  0  0  0  0  0  0  0  0  0  0  0
  140.8340   78.1070  224.1031 H   0  0  0  0  0  0  0  0  0  0  0  0
  142.0968   80.2040  220.6032 H   0  0  0  0  0  0  0  0  0  0  0  0
  142.0423   78.0857  219.3080 H   0  0  0  0  0  0  0  0  0  0  0  0
  137.9383   69.1855  222.4752 H   0  0  0  0  0  0  0  0  0  0  0  0
  138.6404   67.7516  224.3652 H   0  0  0  0  0  0  0  0  0  0  0  0
  139.7549   67.5471  226.4284 H   0  0  0  0  0  0  0  0  0  0  0  0
  141.6435   70.9740  228.2063 H   0  0  0  0  0  0  0  0  0  0  0  0
  140.9127   72.3873  226.2830 H   0  0  0  0  0  0  0  0  0  0  0  0
  1  2  2  0
  2  3  1  0
  3  4  1  0
  4  5  1  0
  5  6  2  0
  5  7  1  0
  7  8  1  0
  8  9  1  0
  9 10  1  0
 10 11  1  0
 11 12  1  0
 12 13  2  0
 13 14  1  0
 14 15  2  0
 15 16  1  0
 15 17  1  0
 17 18  2  0
  2 19  1  0
 19 20  2  0
 20 21  1  0
 21 22  2  0
 22 23  1  0
 23 24  2  0
 24 25  1  0
 24 26  1  0
 26 27  2  0
 27 28  1  0
 28 29  2  0
 11  7  1  0
 18 12  1  0
 29 19  1  0
 28 22  1  0
  3 30  1  0
  4 31  1  0
  4 32  1  0
  8 33  1  0
  8 34  1  0
  9 35  1  0
  9 36  1  0
 10 37  1  0
 10 38  1  0
 11 39  1  6
 13 40  1  0
 14 41  1  0
 17 42  1  0
 18 43  1  0
 20 44  1  0
 21 45  1  0
 23 46  1  0
 26 47  1  0
 27 48  1  0
M  END
>  <smiles>  (49) 
O=C(NCC(=O)N1CCCC1c1ccc(Br)cc1)c1ccc2cc(Cl)ccc2n1

>  <score_type>  (49) 
oracle

>  <origin>  (49) 
autodockgpu

>  <m_score__min__energy>  (49) 
-8.4399999999999995

>  <m_primary>  (49) 
energy

>  <rmsd>  (49) 
1.9390866941938294

>  <m_score__min__rmsd>  (49) 
1.9390866941938294

>  <meeko>  (49) 
{"free_energy": -8.39, "intermolecular_energy": -9.89, "internal_energy": -1.72, "cluster_size": 29, "cluster_id": 1, "rank_in_cluster": 2}

>  <energy>  (49) 
-7.64

>  <cluster_rmsd>  (49) 
0.11

>  <cluster>  (49) 
5

$$$$

     RDKit          3D

 48 51  0  0  0  0  0  0  0  0999 V2000
  137.4730   71.7680  220.9390 O   0  0  0  0  0  0  0  0  0  0  0  0
  138.0880   72.2790  221.9300 C   0  0  0  0  0  0  0  0  0  0  0  0
  138.3580   73.6920  221.9730 N   0  0  0  0  0  0  0  0  0  0  0  0
  137.9320   74.5570  220.8900 C   0  0  0  0  0  0  0  0  0  0  0  0
  138.8160   74.4170  219.7010 C   0  0  0  0  0  0  0  0  0  0  0  0
  138.3580   74.8520  218.6140 O   0  0  0  0  0  0  0  0  0  0  0  0
  140.0730   73.8200  219.8820 N   0  0  0  0  0  0  0  0  0  0  0  0
  140.4580   72.4390  219.4930 C   0  0  0  0  0  0  0  0  0  0  0  0
  141.1660   72.0010  220.7640 C   0  0  0  0  0  0  0  0  0  0  0  0
  141.4620   73.2750  221.5700 C   0  0  0  0  0  0  0  0  0  0  0  0
  141.3090   74.3150  220.4800 C   0  0  2  0  0  0  0  0  0  0  0  0
  141.2800   75.6770  220.9780 C   0  0  0  0  0  0  0  0  0  0  0  0
  140.7290   76.0070  222.2140 C   0  0  0  0  0  0  0  0  0  0  0  0
  140.7150   77.2850  222.7090 C   0  0  0  0  0  0  0  0  0  0  0  0
  141.2560   78.3050  221.9860 C   0  0  0  0  0  0  0  0  0  0  0  0
  141.2200   80.0760  222.7080 Br  0  0  0  0  0  0  0  0  0  0  0  0
  141.8130   78.0280  220.7590 C   0  0  0  0  0  0  0  0  0  0  0  0
  141.8230   76.7200  220.2610 C   0  0  0  0  0  0  0  0  0  0  0  0
  138.5350   71.4540  223.0430 C   0  0  0  0  0  0  0  0  0  0  0  0
  138.0090   70.1850  223.1970 C   0  0  0  0  0  0  0  0  0  0  0  0
  138.3730   69.3360  224.2180 C   0  0  0  0  0  0  0  0  0  0  0  0
  139.3110   69.8040  225.1160 C   0  0  0  0  0  0  0  0  0  0  0  0
  139.6860   68.9700  226.1430 C   0  0  0  0  0  0  0  0  0  0  0  0
  140.6210   69.4100  227.0560 C   0  0  0  0  0  0  0  0  0  0  0  0
  141.0930   68.3370  228.3640 Cl  0  0  0  0  0  0  0  0  0  0  0  0
  141.1600   70.6790  226.9180 C   0  0  0  0  0  0  0  0  0  0  0  0
  140.7660   71.5160  225.8680 C   0  0  0  0  0  0  0  0  0  0  0  0
  139.8360   71.0710  224.9620 C   0  0  0  0  0  0  0  0  0  0  0  0
  139.4520   71.8810  223.9410 N   0  0  0  0  0  0  0  0  0  0  0  0
  138.8730   74.0650  222.8240 H   0  0  0  0  0  0  0  0  0  0  0  0
  136.9035   74.2918  220.6040 H   0  0  0  0  0  0  0  0  0  0  0  0
  137.9849   75.5989  221.2389 H   0  0  0  0  0  0  0  0  0  0  0  0
  139.5785   71.8141  219.2784 H   0  0  0  0  0  0  0  0  0  0  0  0
  141.0601   72.3645  218.5754 H   0  0  0  0  0  0  0  0  0  0  0  0
  140.5188   71.3274  221.3449 H   0  0  0  0  0  0  0  0  0  0  0  0
  142.0935   71.4572  220.5313 H   0  0  0  0  0  0  0  0  0  0  0  0
  140.7342   73.4234  222.3814 H   0  0  0  0  0  0  0  0  0  0  0  0
  142.4337   73.2826  222.0855 H   0  0  0  0  0  0  0  0  0  0  0  0
  142.1427   74.4096  219.7686 H   0  0  0  0  0  0  0  0  0  0  0  0
  140.2844   75.2046  222.8211 H   0  0  0  0  0  0  0  0  0  0  0  0
  140.2658   77.4876  223.6925 H   0  0  0  0  0  0  0  0  0  0  0  0
  142.2543   78.8414  220.1643 H   0  0  0  0  0  0  0  0  0  0  0  0
  142.2735   76.5211  219.2774 H   0  0  0  0  0  0  0  0  0  0  0  0
  137.2628   69.8362  222.4679 H   0  0  0  0  0  0  0  0  0  0  0  0
  137.9364   68.3309  224.3137 H   0  0  0  0  0  0  0  0  0  0  0  0
  139.2463   67.9659  226.2349 H   0  0  0  0  0  0  0  0  0  0  0  0
  141.9074   71.0331  227.6433 H   0  0  0  0  0  0  0  0  0  0  0  0
  141.1983   72.5227  225.7695 H   0  0  0  0  0  0  0  0  0  0  0  0
  1  2  2  0
  2  3  1  0
  3  4  1  0
  4  5  1  0
  5  6  2  0
  5  7  1  0
  7  8  1  0
  8  9  1  0
  9 10  1  0
 10 11  1  0
 11 12  1  0
 12 13  2  0
 13 14  1  0
 14 15  2  0
 15 16  1  0
 15 17  1  0
 17 18  2  0
  2 19  1  0
 19 20  2  0
 20 21  1  0
 21 22  2  0
 22 23  1  0
 23 24  2  0
 24 25  1  0
 24 26  1  0
 26 27  2  0
 27 28  1  0
 28 29  2  0
 11  7  1  0
 18 12  1  0
 29 19  1  0
 28 22  1  0
  3 30  1  0
  4 31  1  0
  4 32  1  0
  8 33  1  0
  8 34  1  0
  9 35  1  0
  9 36  1  0
 10 37  1  0
 10 38  1  0
 11 39  1  6
 13 40  1  0
 14 41  1  0
 17 42  1  0
 18 43  1  0
 20 44  1  0
 21 45  1  0
 23 46  1  0
 26 47  1  0
 27 48  1  0
M  END
>  <smiles>  (50) 
O=C(NCC(=O)N1CCCC1c1ccc(Br)cc1)c1ccc2cc(Cl)ccc2n1

>  <score_type>  (50) 
oracle

>  <origin>  (50) 
autodockgpu

>  <m_score__min__energy>  (50) 
-8.4399999999999995

>  <m_primary>  (50) 
energy

>  <rmsd>  (50) 
2.6733913805947154

>  <m_score__min__rmsd>  (50) 
2.6733913805947154

>  <meeko>  (50) 
{"free_energy": -7.54, "intermolecular_energy": -9.03, "internal_energy": -2.37, "cluster_size": 29, "cluster_id": 1, "rank_in_cluster": 26}

>  <energy>  (50) 
-6.7

>  <cluster_rmsd>  (50) 
0.0

>  <cluster>  (50) 
6

$$$$

     RDKit          3D

 48 51  0  0  0  0  0  0  0  0999 V2000
  139.3850   71.7850  220.6270 O   0  0  0  0  0  0  0  0  0  0  0  0
  139.0540   72.1990  221.7790 C   0  0  0  0  0  0  0  0  0  0  0  0
  138.3880   73.4580  221.8880 N   0  0  0  0  0  0  0  0  0  0  0  0
  138.1420   74.1680  220.6470 C   0  0  0  0  0  0  0  0  0  0  0  0
  138.2010   75.6440  220.8480 C   0  0  0  0  0  0  0  0  0  0  0  0
  137.2050   76.3970  220.6960 O   0  0  0  0  0  0  0  0  0  0  0  0
  139.4580   76.1910  221.2310 N   0  0  0  0  0  0  0  0  0  0  0  0
  139.9970   76.4050  222.5660 C   0  0  0  0  0  0  0  0  0  0  0  0
  140.9900   77.5370  222.4440 C   0  0  0  0  0  0  0  0  0  0  0  0
  140.7620   78.0090  221.0230 C   0  0  0  0  0  0  0  0  0  0  0  0
  140.5210   76.6740  220.3370 C   0  0  1  0  0  0  0  0  0  0  0  0
  141.7200   75.8040  220.3780 C   0  0  0  0  0  0  0  0  0  0  0  0
  141.6160   74.4850  220.8050 C   0  0  0  0  0  0  0  0  0  0  0  0
  142.7190   73.6440  220.8550 C   0  0  0  0  0  0  0  0  0  0  0  0
  143.9570   74.0950  220.4820 C   0  0  0  0  0  0  0  0  0  0  0  0
  145.5240   72.9970  220.5250 Br  0  0  0  0  0  0  0  0  0  0  0  0
  144.0930   75.3990  220.0540 C   0  0  0  0  0  0  0  0  0  0  0  0
  142.9810   76.2260  220.0100 C   0  0  0  0  0  0  0  0  0  0  0  0
  139.3420   71.4200  222.9740 C   0  0  0  0  0  0  0  0  0  0  0  0
  138.9510   70.0880  223.0040 C   0  0  0  0  0  0  0  0  0  0  0  0
  139.1720   69.2650  224.0770 C   0  0  0  0  0  0  0  0  0  0  0  0
  139.8100   69.8000  225.1700 C   0  0  0  0  0  0  0  0  0  0  0  0
  140.0340   68.9790  226.2480 C   0  0  0  0  0  0  0  0  0  0  0  0
  140.6730   69.5170  227.3400 C   0  0  0  0  0  0  0  0  0  0  0  0
  140.9770   68.5200  228.7270 Cl  0  0  0  0  0  0  0  0  0  0  0  0
  141.0780   70.8350  227.3560 C   0  0  0  0  0  0  0  0  0  0  0  0
  140.8420   71.6530  226.2490 C   0  0  0  0  0  0  0  0  0  0  0  0
  140.2030   71.1340  225.1450 C   0  0  0  0  0  0  0  0  0  0  0  0
  139.9620   71.9140  224.0540 N   0  0  0  0  0  0  0  0  0  0  0  0
  138.0920   73.8460  222.8290 H   0  0  0  0  0  0  0  0  0  0  0  0
  138.9041   73.8758  219.9096 H   0  0  0  0  0  0  0  0  0  0  0  0
  137.1352   73.9056  220.2900 H   0  0  0  0  0  0  0  0  0  0  0  0
  139.1912   76.6783  223.2631 H   0  0  0  0  0  0  0  0  0  0  0  0
  140.4742   75.4939  222.9560 H   0  0  0  0  0  0  0  0  0  0  0  0
  140.7755   78.3359  223.1691 H   0  0  0  0  0  0  0  0  0  0  0  0
  142.0285   77.2381  222.6493 H   0  0  0  0  0  0  0  0  0  0  0  0
  139.8863   78.6705  220.9481 H   0  0  0  0  0  0  0  0  0  0  0  0
  141.5803   78.6079  220.5968 H   0  0  0  0  0  0  0  0  0  0  0  0
  140.2795   76.7108  219.2645 H   0  0  0  0  0  0  0  0  0  0  0  0
  140.6332   74.0975  221.1114 H   0  0  0  0  0  0  0  0  0  0  0  0
  142.5976   72.6057  221.1974 H   0  0  0  0  0  0  0  0  0  0  0  0
  145.0785   75.7809  219.7492 H   0  0  0  0  0  0  0  0  0  0  0  0
  143.1097   77.2632  219.6669 H   0  0  0  0  0  0  0  0  0  0  0  0
  138.4388   69.6732  222.1233 H   0  0  0  0  0  0  0  0  0  0  0  0
  138.8500   68.2133  224.0638 H   0  0  0  0  0  0  0  0  0  0  0  0
  139.7131   67.9269  226.2380 H   0  0  0  0  0  0  0  0  0  0  0  0
  141.5875   71.2425  228.2416 H   0  0  0  0  0  0  0  0  0  0  0  0
  141.1643   72.7047  226.2588 H   0  0  0  0  0  0  0  0  0  0  0  0
  1  2  2  0
  2  3  1  0
  3  4  1  0
  4  5  1  0
  5  6  2  0
  5  7  1  0
  7  8  1  0
  8  9  1  0
  9 10  1  0
 10 11  1  0
 11 12  1  0
 12 13  2  0
 13 14  1  0
 14 15  2  0
 15 16  1  0
 15 17  1  0
 17 18  2  0
  2 19  1  0
 19 20  2  0
 20 21  1  0
 21 22  2  0
 22 23  1  0
 23 24  2  0
 24 25  1  0
 24 26  1  0
 26 27  2  0
 27 28  1  0
 28 29  2  0
 11  7  1  0
 18 12  1  0
 29 19  1  0
 28 22  1  0
  3 30  1  0
  4 31  1  0
  4 32  1  0
  8 33  1  0
  8 34  1  0
  9 35  1  0
  9 36  1  0
 10 37  1  0
 10 38  1  0
 11 39  1  6
 13 40  1  0
 14 41  1  0
 17 42  1  0
 18 43  1  0
 20 44  1  0
 21 45  1  0
 23 46  1  0
 26 47  1  0
 27 48  1  0
M  END
>  <smiles>  (51) 
O=C(NCC(=O)N1CCCC1c1ccc(Br)cc1)c1ccc2cc(Cl)ccc2n1

>  <score_type>  (51) 
oracle

>  <origin>  (51) 
autodockgpu

>  <m_score__min__energy>  (51) 
-8.7799999999999994

>  <m_primary>  (51) 
energy

>  <rmsd>  (51) 
2.432626196025882

>  <m_score__min__rmsd>  (51) 
2.432626196025882

>  <meeko>  (51) 
{"free_energy": -8.47, "intermolecular_energy": -9.96, "internal_energy": -1.72, "cluster_size": 28, "cluster_id": 1, "rank_in_cluster": 13}

>  <energy>  (51) 
-8.78

>  <cluster_rmsd>  (51) 
0.0

>  <cluster>  (51) 
1

$$$$

     RDKit          3D

 48 51  0  0  0  0  0  0  0  0999 V2000
  137.2800   71.3080  222.1310 O   0  0  0  0  0  0  0  0  0  0  0  0
  138.4010   71.7480  222.5290 C   0  0  0  0  0  0  0  0  0  0  0  0
  139.0270   72.7950  221.7870 N   0  0  0  0  0  0  0  0  0  0  0  0
  138.3140   73.2740  220.6180 C   0  0  0  0  0  0  0  0  0  0  0  0
  138.2110   74.7620  220.6210 C   0  0  0  0  0  0  0  0  0  0  0  0
  137.1550   75.3770  220.3250 O   0  0  0  0  0  0  0  0  0  0  0  0
  139.3830   75.4860  220.9800 N   0  0  0  0  0  0  0  0  0  0  0  0
  139.8500   75.8770  222.3020 C   0  0  0  0  0  0  0  0  0  0  0  0
  140.7060   77.1050  222.1020 C   0  0  0  0  0  0  0  0  0  0  0  0
  140.4690   77.4230  220.6400 C   0  0  0  0  0  0  0  0  0  0  0  0
  140.4090   76.0150  220.0700 C   0  0  1  0  0  0  0  0  0  0  0  0
  141.7000   75.3020  220.2140 C   0  0  0  0  0  0  0  0  0  0  0  0
  142.8960   75.9550  219.9370 C   0  0  0  0  0  0  0  0  0  0  0  0
  144.1230   75.3170  220.0630 C   0  0  0  0  0  0  0  0  0  0  0  0
  144.1910   74.0100  220.4680 C   0  0  0  0  0  0  0  0  0  0  0  0
  145.8420   73.0640  220.6650 Br  0  0  0  0  0  0  0  0  0  0  0  0
  143.0210   73.3360  220.7510 C   0  0  0  0  0  0  0  0  0  0  0  0
  141.8050   73.9870  220.6200 C   0  0  0  0  0  0  0  0  0  0  0  0
  139.0480   71.2060  223.7150 C   0  0  0  0  0  0  0  0  0  0  0  0
  140.1200   71.9030  224.2580 C   0  0  0  0  0  0  0  0  0  0  0  0
  140.8000   71.4830  225.3710 C   0  0  0  0  0  0  0  0  0  0  0  0
  140.3910   70.3150  225.9660 C   0  0  0  0  0  0  0  0  0  0  0  0
  141.0700   69.8900  227.0820 C   0  0  0  0  0  0  0  0  0  0  0  0
  140.6570   68.7210  227.6750 C   0  0  0  0  0  0  0  0  0  0  0  0
  141.4840   68.1430  229.0870 Cl  0  0  0  0  0  0  0  0  0  0  0  0
  139.5980   67.9960  227.1710 C   0  0  0  0  0  0  0  0  0  0  0  0
  138.9200   68.4440  226.0360 C   0  0  0  0  0  0  0  0  0  0  0  0
  139.3180   69.6140  225.4250 C   0  0  0  0  0  0  0  0  0  0  0  0
  138.6710   70.0710  224.3170 N   0  0  0  0  0  0  0  0  0  0  0  0
  139.9640   73.1950  222.0800 H   0  0  0  0  0  0  0  0  0  0  0  0
  138.8517   72.9534  219.7135 H   0  0  0  0  0  0  0  0  0  0  0  0
  137.2973   72.8545  220.6341 H   0  0  0  0  0  0  0  0  0  0  0  0
  138.9956   76.1102  222.9544 H   0  0  0  0  0  0  0  0  0  0  0  0
  140.4186   75.0666  222.7815 H   0  0  0  0  0  0  0  0  0  0  0  0
  140.3760   77.9313  222.7488 H   0  0  0  0  0  0  0  0  0  0  0  0
  141.7654   76.9518  222.3553 H   0  0  0  0  0  0  0  0  0  0  0  0
  139.5242   77.9655  220.4882 H   0  0  0  0  0  0  0  0  0  0  0  0
  141.2241   78.0773  220.1799 H   0  0  0  0  0  0  0  0  0  0  0  0
  140.1992   75.9310  218.9935 H   0  0  0  0  0  0  0  0  0  0  0  0
  142.8695   77.0047  219.6094 H   0  0  0  0  0  0  0  0  0  0  0  0
  145.0487   75.8660  219.8356 H   0  0  0  0  0  0  0  0  0  0  0  0
  143.0534   72.2866  221.0792 H   0  0  0  0  0  0  0  0  0  0  0  0
  140.8835   73.4319  220.8494 H   0  0  0  0  0  0  0  0  0  0  0  0
  140.4382   72.8367  223.7712 H   0  0  0  0  0  0  0  0  0  0  0  0
  141.6444   72.0615  225.7739 H   0  0  0  0  0  0  0  0  0  0  0  0
  141.9153   70.4656  227.4871 H   0  0  0  0  0  0  0  0  0  0  0  0
  139.2870   67.0632  227.6640 H   0  0  0  0  0  0  0  0  0  0  0  0
  138.0745   67.8678  225.6321 H   0  0  0  0  0  0  0  0  0  0  0  0
  1  2  2  0
  2  3  1  0
  3  4  1  0
  4  5  1  0
  5  6  2  0
  5  7  1  0
  7  8  1  0
  8  9  1  0
  9 10  1  0
 10 11  1  0
 11 12  1  0
 12 13  2  0
 13 14  1  0
 14 15  2  0
 15 16  1  0
 15 17  1  0
 17 18  2  0
  2 19  1  0
 19 20  2  0
 20 21  1  0
 21 22  2  0
 22 23  1  0
 23 24  2  0
 24 25  1  0
 24 26  1  0
 26 27  2  0
 27 28  1  0
 28 29  2  0
 11  7  1  0
 18 12  1  0
 29 19  1  0
 28 22  1  0
  3 30  1  0
  4 31  1  0
  4 32  1  0
  8 33  1  0
  8 34  1  0
  9 35  1  0
  9 36  1  0
 10 37  1  0
 10 38  1  0
 11 39  1  6
 13 40  1  0
 14 41  1  0
 17 42  1  0
 18 43  1  0
 20 44  1  0
 21 45  1  0
 23 46  1  0
 26 47  1  0
 27 48  1  0
M  END
>  <smiles>  (52) 
O=C(NCC(=O)N1CCCC1c1ccc(Br)cc1)c1ccc2cc(Cl)ccc2n1

>  <score_type>  (52) 
oracle

>  <origin>  (52) 
autodockgpu

>  <m_score__min__energy>  (52) 
-8.7799999999999994

>  <m_primary>  (52) 
energy

>  <rmsd>  (52) 
3.1069421805854187

>  <m_score__min__rmsd>  (52) 
3.1069421805854187

>  <meeko>  (52) 
{"free_energy": -7.78, "intermolecular_energy": -9.27, "internal_energy": -1.54, "cluster_size": 28, "cluster_id": 1, "rank_in_cluster": 28}

>  <energy>  (52) 
-8.74

>  <cluster_rmsd>  (52) 
0.14

>  <cluster>  (52) 
1

$$$$

     RDKit          3D

 48 51  0  0  0  0  0  0  0  0999 V2000
  139.0880   71.4330  220.9770 O   0  0  0  0  0  0  0  0  0  0  0  0
  139.2510   71.9650  222.1170 C   0  0  0  0  0  0  0  0  0  0  0  0
  139.1580   73.3870  222.2260 N   0  0  0  0  0  0  0  0  0  0  0  0
  138.8820   74.1120  221.0010 C   0  0  0  0  0  0  0  0  0  0  0  0
  140.0950   74.8270  220.5110 C   0  0  0  0  0  0  0  0  0  0  0  0
  141.1970   74.2540  220.3170 O   0  0  0  0  0  0  0  0  0  0  0  0
  139.9620   76.2220  220.2620 N   0  0  0  0  0  0  0  0  0  0  0  0
  138.7800   77.0660  220.3770 C   0  0  0  0  0  0  0  0  0  0  0  0
  138.9920   78.2210  219.4280 C   0  0  0  0  0  0  0  0  0  0  0  0
  140.2430   77.7980  218.6860 C   0  0  0  0  0  0  0  0  0  0  0  0
  141.0170   77.1470  219.8210 C   0  0  1  0  0  0  0  0  0  0  0  0
  141.3780   78.1220  220.8770 C   0  0  0  0  0  0  0  0  0  0  0  0
  141.8080   79.3990  220.5340 C   0  0  0  0  0  0  0  0  0  0  0  0
  142.1540   80.3370  221.4980 C   0  0  0  0  0  0  0  0  0  0  0  0
  142.0810   80.0260  222.8300 C   0  0  0  0  0  0  0  0  0  0  0  0
  142.5410   81.2630  224.2160 Br  0  0  0  0  0  0  0  0  0  0  0  0
  141.6590   78.7670  223.2020 C   0  0  0  0  0  0  0  0  0  0  0  0
  141.3170   77.8420  222.2270 C   0  0  0  0  0  0  0  0  0  0  0  0
  139.5270   71.1590  223.2960 C   0  0  0  0  0  0  0  0  0  0  0  0
  139.2270   69.8030  223.2540 C   0  0  0  0  0  0  0  0  0  0  0  0
  139.4460   68.9540  224.3070 C   0  0  0  0  0  0  0  0  0  0  0  0
  139.9880   69.4850  225.4530 C   0  0  0  0  0  0  0  0  0  0  0  0
  140.2100   68.6370  226.5110 C   0  0  0  0  0  0  0  0  0  0  0  0
  140.7520   69.1710  227.6550 C   0  0  0  0  0  0  0  0  0  0  0  0
  141.0500   68.1400  229.0190 Cl  0  0  0  0  0  0  0  0  0  0  0  0
  141.0650   70.5110  227.7430 C   0  0  0  0  0  0  0  0  0  0  0  0
  140.8330   71.3570  226.6560 C   0  0  0  0  0  0  0  0  0  0  0  0
  140.2900   70.8420  225.4990 C   0  0  0  0  0  0  0  0  0  0  0  0
  140.0540   71.6480  224.4260 N   0  0  0  0  0  0  0  0  0  0  0  0
  139.2870   73.8780  223.1570 H   0  0  0  0  0  0  0  0  0  0  0  0
  138.5494   73.4007  220.2306 H   0  0  0  0  0  0  0  0  0  0  0  0
  138.0988   74.8566  221.2066 H   0  0  0  0  0  0  0  0  0  0  0  0
  137.8793   76.5011  220.0947 H   0  0  0  0  0  0  0  0  0  0  0  0
  138.6376   77.4172  221.4097 H   0  0  0  0  0  0  0  0  0  0  0  0
  138.1401   78.3350  218.7415 H   0  0  0  0  0  0  0  0  0  0  0  0
  139.0841   79.1951  219.9307 H   0  0  0  0  0  0  0  0  0  0  0  0
  140.0180   77.0817  217.8820 H   0  0  0  0  0  0  0  0  0  0  0  0
  140.7737   78.6126  218.1713 H   0  0  0  0  0  0  0  0  0  0  0  0
  141.9857   76.6964  219.5590 H   0  0  0  0  0  0  0  0  0  0  0  0
  141.8759   79.6736  219.4710 H   0  0  0  0  0  0  0  0  0  0  0  0
  142.4895   81.3381  221.1893 H   0  0  0  0  0  0  0  0  0  0  0  0
  141.5940   78.4978  224.2666 H   0  0  0  0  0  0  0  0  0  0  0  0
  140.9829   76.8428  222.5431 H   0  0  0  0  0  0  0  0  0  0  0  0
  138.7928   69.3912  222.3310 H   0  0  0  0  0  0  0  0  0  0  0  0
  139.1967   67.8849  224.2376 H   0  0  0  0  0  0  0  0  0  0  0  0
  139.9623   67.5673  226.4444 H   0  0  0  0  0  0  0  0  0  0  0  0
  141.4979   70.9142  228.6703 H   0  0  0  0  0  0  0  0  0  0  0  0
  141.0819   72.4264  226.7231 H   0  0  0  0  0  0  0  0  0  0  0  0
  1  2  2  0
  2  3  1  0
  3  4  1  0
  4  5  1  0
  5  6  2  0
  5  7  1  0
  7  8  1  0
  8  9  1  0
  9 10  1  0
 10 11  1  0
 11 12  1  0
 12 13  2  0
 13 14  1  0
 14 15  2  0
 15 16  1  0
 15 17  1  0
 17 18  2  0
  2 19  1  0
 19 20  2  0
 20 21  1  0
 21 22  2  0
 22 23  1  0
 23 24  2  0
 24 25  1  0
 24 26  1  0
 26 27  2  0
 27 28  1  0
 28 29  2  0
 11  7  1  0
 18 12  1  0
 29 19  1  0
 28 22  1  0
  3 30  1  0
  4 31  1  0
  4 32  1  0
  8 33  1  0
  8 34  1  0
  9 35  1  0
  9 36  1  0
 10 37  1  0
 10 38  1  0
 11 39  1  6
 13 40  1  0
 14 41  1  0
 17 42  1  0
 18 43  1  0
 20 44  1  0
 21 45  1  0
 23 46  1  0
 26 47  1  0
 27 48  1  0
M  END
>  <smiles>  (53) 
O=C(NCC(=O)N1CCCC1c1ccc(Br)cc1)c1ccc2cc(Cl)ccc2n1

>  <score_type>  (53) 
oracle

>  <origin>  (53) 
autodockgpu

>  <m_score__min__energy>  (53) 
-8.7799999999999994

>  <m_primary>  (53) 
energy

>  <rmsd>  (53) 
1.4468629544783347

>  <m_score__min__rmsd>  (53) 
1.4468629544783347

>  <meeko>  (53) 
{"free_energy": -8.27, "intermolecular_energy": -9.76, "internal_energy": -1.33, "cluster_size": 16, "cluster_id": 2, "rank_in_cluster": 4}

>  <energy>  (53) 
-8.69

>  <cluster_rmsd>  (53) 
0.12

>  <cluster>  (53) 
1

$$$$

     RDKit          3D

 48 51  0  0  0  0  0  0  0  0999 V2000
  137.7150   71.0570  220.9360 O   0  0  0  0  0  0  0  0  0  0  0  0
  138.0180   71.6780  221.9990 C   0  0  0  0  0  0  0  0  0  0  0  0
  137.8690   73.0990  222.0250 N   0  0  0  0  0  0  0  0  0  0  0  0
  137.3760   73.7200  220.8110 C   0  0  0  0  0  0  0  0  0  0  0  0
  137.7190   75.1700  220.7670 C   0  0  0  0  0  0  0  0  0  0  0  0
  136.8540   76.0770  220.6750 O   0  0  0  0  0  0  0  0  0  0  0  0
  139.1010   75.5050  220.8360 N   0  0  0  0  0  0  0  0  0  0  0  0
  140.0290   75.8000  219.7530 C   0  0  0  0  0  0  0  0  0  0  0  0
  141.4040   75.4510  220.2690 C   0  0  0  0  0  0  0  0  0  0  0  0
  141.0890   74.7730  221.5860 C   0  0  0  0  0  0  0  0  0  0  0  0
  139.9210   75.6300  222.0510 C   0  0  1  0  0  0  0  0  0  0  0  0
  140.3280   77.0320  222.3050 C   0  0  0  0  0  0  0  0  0  0  0  0
  139.5700   78.0840  221.8040 C   0  0  0  0  0  0  0  0  0  0  0  0
  139.9220   79.4090  222.0240 C   0  0  0  0  0  0  0  0  0  0  0  0
  141.0420   79.7210  222.7490 C   0  0  0  0  0  0  0  0  0  0  0  0
  141.5920   81.5210  223.0940 Br  0  0  0  0  0  0  0  0  0  0  0  0
  141.8140   78.6990  223.2590 C   0  0  0  0  0  0  0  0  0  0  0  0
  141.4480   77.3820  223.0300 C   0  0  0  0  0  0  0  0  0  0  0  0
  138.5080   70.9740  223.1740 C   0  0  0  0  0  0  0  0  0  0  0  0
  138.0900   69.6660  223.3820 C   0  0  0  0  0  0  0  0  0  0  0  0
  138.4890   68.9120  224.4540 C   0  0  0  0  0  0  0  0  0  0  0  0
  139.3440   69.4930  225.3590 C   0  0  0  0  0  0  0  0  0  0  0  0
  139.7480   68.7420  226.4360 C   0  0  0  0  0  0  0  0  0  0  0  0
  140.6020   69.3270  227.3390 C   0  0  0  0  0  0  0  0  0  0  0  0
  141.1400   68.4170  228.7160 Cl  0  0  0  0  0  0  0  0  0  0  0  0
  141.0440   70.6230  227.1740 C   0  0  0  0  0  0  0  0  0  0  0  0
  140.6220   71.3700  226.0730 C   0  0  0  0  0  0  0  0  0  0  0  0
  139.7650   70.8040  225.1550 C   0  0  0  0  0  0  0  0  0  0  0  0
  139.3410   71.5140  224.0730 N   0  0  0  0  0  0  0  0  0  0  0  0
  138.1090   73.6630  222.8910 H   0  0  0  0  0  0  0  0  0  0  0  0
  137.8281   73.2183  219.9427 H   0  0  0  0  0  0  0  0  0  0  0  0
  136.2806   73.6214  220.7905 H   0  0  0  0  0  0  0  0  0  0  0  0
  139.7882   75.1922  218.8684 H   0  0  0  0  0  0  0  0  0  0  0  0
  139.9704   76.8563  219.4518 H   0  0  0  0  0  0  0  0  0  0  0  0
  141.9257   74.7672  219.5832 H   0  0  0  0  0  0  0  0  0  0  0  0
  142.0719   76.3194  220.3681 H   0  0  0  0  0  0  0  0  0  0  0  0
  140.7939   73.7228  221.4443 H   0  0  0  0  0  0  0  0  0  0  0  0
  141.9314   74.7158  222.2910 H   0  0  0  0  0  0  0  0  0  0  0  0
  139.4431   75.3364  222.9972 H   0  0  0  0  0  0  0  0  0  0  0  0
  138.6667   77.8607  221.2173 H   0  0  0  0  0  0  0  0  0  0  0  0
  139.2964   80.2150  221.6128 H   0  0  0  0  0  0  0  0  0  0  0  0
  142.7163   78.9278  223.8450 H   0  0  0  0  0  0  0  0  0  0  0  0
  142.0780   76.5812  223.4444 H   0  0  0  0  0  0  0  0  0  0  0  0
  137.4049   69.2132  222.6501 H   0  0  0  0  0  0  0  0  0  0  0  0
  138.1373   67.8781  224.5855 H   0  0  0  0  0  0  0  0  0  0  0  0
  139.3995   67.7074  226.5707 H   0  0  0  0  0  0  0  0  0  0  0  0
  141.7294   71.0681  227.9103 H   0  0  0  0  0  0  0  0  0  0  0  0
  140.9716   72.4043  225.9392 H   0  0  0  0  0  0  0  0  0  0  0  0
  1  2  2  0
  2  3  1  0
  3  4  1  0
  4  5  1  0
  5  6  2  0
  5  7  1  0
  7  8  1  0
  8  9  1  0
  9 10  1  0
 10 11  1  0
 11 12  1  0
 12 13  2  0
 13 14  1  0
 14 15  2  0
 15 16  1  0
 15 17  1  0
 17 18  2  0
  2 19  1  0
 19 20  2  0
 20 21  1  0
 21 22  2  0
 22 23  1  0
 23 24  2  0
 24 25  1  0
 24 26  1  0
 26 27  2  0
 27 28  1  0
 28 29  2  0
 11  7  1  0
 18 12  1  0
 29 19  1  0
 28 22  1  0
  3 30  1  0
  4 31  1  0
  4 32  1  0
  8 33  1  0
  8 34  1  0
  9 35  1  0
  9 36  1  0
 10 37  1  0
 10 38  1  0
 11 39  1  1
 13 40  1  0
 14 41  1  0
 17 42  1  0
 18 43  1  0
 20 44  1  0
 21 45  1  0
 23 46  1  0
 26 47  1  0
 27 48  1  0
M  END
>  <smiles>  (54) 
O=C(NCC(=O)N1CCCC1c1ccc(Br)cc1)c1ccc2cc(Cl)ccc2n1

>  <score_type>  (54) 
oracle

>  <origin>  (54) 
autodockgpu

>  <m_score__min__energy>  (54) 
-8.7799999999999994

>  <m_primary>  (54) 
energy

>  <rmsd>  (54) 
2.112380472264089

>  <m_score__min__rmsd>  (54) 
2.112380472264089

>  <meeko>  (54) 
{"free_energy": -7.95, "intermolecular_energy": -9.45, "internal_energy": -1.52, "cluster_size": 16, "cluster_id": 2, "rank_in_cluster": 15}

>  <energy>  (54) 
-8.64

>  <cluster_rmsd>  (54) 
0.31

>  <cluster>  (54) 
1

$$$$

     RDKit          3D

 48 51  0  0  0  0  0  0  0  0999 V2000
  139.1660   71.1770  220.7620 O   0  0  0  0  0  0  0  0  0  0  0  0
  138.9910   71.8000  221.8520 C   0  0  0  0  0  0  0  0  0  0  0  0
  138.3140   73.0580  221.8190 N   0  0  0  0  0  0  0  0  0  0  0  0
  137.8780   73.5230  220.5160 C   0  0  0  0  0  0  0  0  0  0  0  0
  138.0350   75.0010  220.3890 C   0  0  0  0  0  0  0  0  0  0  0  0
  137.1880   75.7340  219.8180 O   0  0  0  0  0  0  0  0  0  0  0  0
  139.2100   75.5720  220.9530 N   0  0  0  0  0  0  0  0  0  0  0  0
  139.6070   75.6590  222.3520 C   0  0  0  0  0  0  0  0  0  0  0  0
  140.5240   76.8550  222.4560 C   0  0  0  0  0  0  0  0  0  0  0  0
  140.3940   77.4770  221.0820 C   0  0  0  0  0  0  0  0  0  0  0  0
  140.3130   76.2210  220.2290 C   0  0  1  0  0  0  0  0  0  0  0  0
  141.5620   75.4260  220.2930 C   0  0  0  0  0  0  0  0  0  0  0  0
  142.7820   76.0090  219.9690 C   0  0  0  0  0  0  0  0  0  0  0  0
  143.9710   75.2940  220.0180 C   0  0  0  0  0  0  0  0  0  0  0  0
  143.9750   73.9750  220.3910 C   0  0  0  0  0  0  0  0  0  0  0  0
  145.5720   72.9240  220.4830 Br  0  0  0  0  0  0  0  0  0  0  0  0
  142.7810   73.3680  220.7180 C   0  0  0  0  0  0  0  0  0  0  0  0
  141.6030   74.0970  220.6630 C   0  0  0  0  0  0  0  0  0  0  0  0
  139.4630   71.2600  223.1170 C   0  0  0  0  0  0  0  0  0  0  0  0
  140.4170   71.9770  223.8270 C   0  0  0  0  0  0  0  0  0  0  0  0
  140.9310   71.5600  225.0270 C   0  0  0  0  0  0  0  0  0  0  0  0
  140.4690   70.3720  225.5390 C   0  0  0  0  0  0  0  0  0  0  0  0
  140.9810   69.9490  226.7420 C   0  0  0  0  0  0  0  0  0  0  0  0
  140.5170   68.7600  227.2510 C   0  0  0  0  0  0  0  0  0  0  0  0
  141.1330   68.1840  228.7680 Cl  0  0  0  0  0  0  0  0  0  0  0  0
  139.5710   68.0130  226.5820 C   0  0  0  0  0  0  0  0  0  0  0  0
  139.0630   68.4590  225.3610 C   0  0  0  0  0  0  0  0  0  0  0  0
  139.5140   69.6490  224.8320 C   0  0  0  0  0  0  0  0  0  0  0  0
  139.0330   70.1050  223.6410 N   0  0  0  0  0  0  0  0  0  0  0  0
  138.1440   73.6170  222.7040 H   0  0  0  0  0  0  0  0  0  0  0  0
  138.4811   73.0303  219.7392 H   0  0  0  0  0  0  0  0  0  0  0  0
  136.8130   73.2749  220.3966 H   0  0  0  0  0  0  0  0  0  0  0  0
  138.7229   75.7995  222.9913 H   0  0  0  0  0  0  0  0  0  0  0  0
  140.1093   74.7385  222.6842 H   0  0  0  0  0  0  0  0  0  0  0  0
  140.1880   77.5483  223.2412 H   0  0  0  0  0  0  0  0  0  0  0  0
  141.5580   76.5967  222.7281 H   0  0  0  0  0  0  0  0  0  0  0  0
  139.4837   78.0885  220.9954 H   0  0  0  0  0  0  0  0  0  0  0  0
  141.2033   78.1704  220.8093 H   0  0  0  0  0  0  0  0  0  0  0  0
  140.1692   76.3705  219.1487 H   0  0  0  0  0  0  0  0  0  0  0  0
  142.8057   77.0660  219.6654 H   0  0  0  0  0  0  0  0  0  0  0  0
  144.9172   75.7898  219.7555 H   0  0  0  0  0  0  0  0  0  0  0  0
  142.7632   72.3107  221.0210 H   0  0  0  0  0  0  0  0  0  0  0  0
  140.6604   73.5945  220.9256 H   0  0  0  0  0  0  0  0  0  0  0  0
  140.7780   72.9267  223.4053 H   0  0  0  0  0  0  0  0  0  0  0  0
  141.6864   72.1552  225.5610 H   0  0  0  0  0  0  0  0  0  0  0  0
  141.7362   70.5417  227.2790 H   0  0  0  0  0  0  0  0  0  0  0  0
  139.2161   67.0643  227.0110 H   0  0  0  0  0  0  0  0  0  0  0  0
  138.3082   67.8651  224.8248 H   0  0  0  0  0  0  0  0  0  0  0  0
  1  2  2  0
  2  3  1  0
  3  4  1  0
  4  5  1  0
  5  6  2  0
  5  7  1  0
  7  8  1  0
  8  9  1  0
  9 10  1  0
 10 11  1  0
 11 12  1  0
 12 13  2  0
 13 14  1  0
 14 15  2  0
 15 16  1  0
 15 17  1  0
 17 18  2  0
  2 19  1  0
 19 20  2  0
 20 21  1  0
 21 22  2  0
 22 23  1  0
 23 24  2  0
 24 25  1  0
 24 26  1  0
 26 27  2  0
 27 28  1  0
 28 29  2  0
 11  7  1  0
 18 12  1  0
 29 19  1  0
 28 22  1  0
  3 30  1  0
  4 31  1  0
  4 32  1  0
  8 33  1  0
  8 34  1  0
  9 35  1  0
  9 36  1  0
 10 37  1  0
 10 38  1  0
 11 39  1  6
 13 40  1  0
 14 41  1  0
 17 42  1  0
 18 43  1  0
 20 44  1  0
 21 45  1  0
 23 46  1  0
 26 47  1  0
 27 48  1  0
M  END
>  <smiles>  (55) 
O=C(NCC(=O)N1CCCC1c1ccc(Br)cc1)c1ccc2cc(Cl)ccc2n1

>  <score_type>  (55) 
oracle

>  <origin>  (55) 
autodockgpu

>  <m_score__min__energy>  (55) 
-8.7799999999999994

>  <m_primary>  (55) 
energy

>  <rmsd>  (55) 
3.1634838851502125

>  <m_score__min__rmsd>  (55) 
3.1634838851502125

>  <meeko>  (55) 
{"free_energy": -8.19, "intermolecular_energy": -9.68, "internal_energy": -1.68, "cluster_size": 28, "cluster_id": 1, "rank_in_cluster": 21}

>  <energy>  (55) 
-8.62

>  <cluster_rmsd>  (55) 
0.26

>  <cluster>  (55) 
1

$$$$

     RDKit          3D

 48 51  0  0  0  0  0  0  0  0999 V2000
  138.2070   71.3010  220.8000 O   0  0  0  0  0  0  0  0  0  0  0  0
  138.5400   71.9050  221.8640 C   0  0  0  0  0  0  0  0  0  0  0  0
  138.4930   73.3330  221.8820 N   0  0  0  0  0  0  0  0  0  0  0  0
  138.0610   73.9810  220.6580 C   0  0  0  0  0  0  0  0  0  0  0  0
  138.1570   75.4650  220.7690 C   0  0  0  0  0  0  0  0  0  0  0  0
  137.2100   76.2370  220.4770 O   0  0  0  0  0  0  0  0  0  0  0  0
  139.3950   75.9950  221.2310 N   0  0  0  0  0  0  0  0  0  0  0  0
  139.8890   76.1150  222.5960 C   0  0  0  0  0  0  0  0  0  0  0  0
  140.8700   77.2630  222.5890 C   0  0  0  0  0  0  0  0  0  0  0  0
  140.6810   77.8370  221.2010 C   0  0  0  0  0  0  0  0  0  0  0  0
  140.4790   76.5530  220.4100 C   0  0  1  0  0  0  0  0  0  0  0  0
  141.6880   75.6960  220.4270 C   0  0  0  0  0  0  0  0  0  0  0  0
  142.9170   76.2100  220.0310 C   0  0  0  0  0  0  0  0  0  0  0  0
  144.0690   75.4340  220.0350 C   0  0  0  0  0  0  0  0  0  0  0  0
  144.0250   74.1240  220.4330 C   0  0  0  0  0  0  0  0  0  0  0  0
  145.5690   72.9930  220.4660 Br  0  0  0  0  0  0  0  0  0  0  0  0
  142.8200   73.5860  220.8320 C   0  0  0  0  0  0  0  0  0  0  0  0
  141.6800   74.3740  220.8220 C   0  0  0  0  0  0  0  0  0  0  0  0
  138.9630   71.1740  223.0480 C   0  0  0  0  0  0  0  0  0  0  0  0
  138.6570   69.8220  223.1340 C   0  0  0  0  0  0  0  0  0  0  0  0
  139.0070   69.0400  224.2040 C   0  0  0  0  0  0  0  0  0  0  0  0
  139.6940   69.6380  225.2330 C   0  0  0  0  0  0  0  0  0  0  0  0
  140.0470   68.8580  226.3070 C   0  0  0  0  0  0  0  0  0  0  0  0
  140.7330   69.4590  227.3350 C   0  0  0  0  0  0  0  0  0  0  0  0
  141.2020   68.5150  228.7140 Cl  0  0  0  0  0  0  0  0  0  0  0  0
  141.0590   70.7980  227.2940 C   0  0  0  0  0  0  0  0  0  0  0  0
  140.6910   71.5740  226.1930 C   0  0  0  0  0  0  0  0  0  0  0  0
  140.0020   70.9920  225.1510 C   0  0  0  0  0  0  0  0  0  0  0  0
  139.6330   71.7290  224.0670 N   0  0  0  0  0  0  0  0  0  0  0  0
  138.7620   73.8830  222.7480 H   0  0  0  0  0  0  0  0  0  0  0  0
  138.6985   73.6415  219.8283 H   0  0  0  0  0  0  0  0  0  0  0  0
  137.0099   73.7133  220.4751 H   0  0  0  0  0  0  0  0  0  0  0  0
  139.0582   76.3274  223.2850 H   0  0  0  0  0  0  0  0  0  0  0  0
  140.3651   75.1826  222.9336 H   0  0  0  0  0  0  0  0  0  0  0  0
  140.6227   78.0036  223.3639 H   0  0  0  0  0  0  0  0  0  0  0  0
  141.9054   76.9603  222.8043 H   0  0  0  0  0  0  0  0  0  0  0  0
  139.7996   78.4929  221.1469 H   0  0  0  0  0  0  0  0  0  0  0  0
  141.5044   78.4748  220.8471 H   0  0  0  0  0  0  0  0  0  0  0  0
  140.2710   76.6654  219.3357 H   0  0  0  0  0  0  0  0  0  0  0  0
  142.9791   77.2590  219.7058 H   0  0  0  0  0  0  0  0  0  0  0  0
  145.0248   75.8752  219.7159 H   0  0  0  0  0  0  0  0  0  0  0  0
  142.7637   72.5365  221.1567 H   0  0  0  0  0  0  0  0  0  0  0  0
  140.7278   73.9263  221.1428 H   0  0  0  0  0  0  0  0  0  0  0  0
  138.1070   69.3561  222.3031 H   0  0  0  0  0  0  0  0  0  0  0  0
  138.7472   67.9717  224.2378 H   0  0  0  0  0  0  0  0  0  0  0  0
  139.7895   67.7892  226.3431 H   0  0  0  0  0  0  0  0  0  0  0  0
  141.6095   71.2554  228.1293 H   0  0  0  0  0  0  0  0  0  0  0  0
  140.9493   72.6427  226.1576 H   0  0  0  0  0  0  0  0  0  0  0  0
  1  2  2  0
  2  3  1  0
  3  4  1  0
  4  5  1  0
  5  6  2  0
  5  7  1  0
  7  8  1  0
  8  9  1  0
  9 10  1  0
 10 11  1  0
 11 12  1  0
 12 13  2  0
 13 14  1  0
 14 15  2  0
 15 16  1  0
 15 17  1  0
 17 18  2  0
  2 19  1  0
 19 20  2  0
 20 21  1  0
 21 22  2  0
 22 23  1  0
 23 24  2  0
 24 25  1  0
 24 26  1  0
 26 27  2  0
 27 28  1  0
 28 29  2  0
 11  7  1  0
 18 12  1  0
 29 19  1  0
 28 22  1  0
  3 30  1  0
  4 31  1  0
  4 32  1  0
  8 33  1  0
  8 34  1  0
  9 35  1  0
  9 36  1  0
 10 37  1  0
 10 38  1  0
 11 39  1  6
 13 40  1  0
 14 41  1  0
 17 42  1  0
 18 43  1  0
 20 44  1  0
 21 45  1  0
 23 46  1  0
 26 47  1  0
 27 48  1  0
M  END
>  <smiles>  (56) 
O=C(NCC(=O)N1CCCC1c1ccc(Br)cc1)c1ccc2cc(Cl)ccc2n1

>  <score_type>  (56) 
oracle

>  <origin>  (56) 
autodockgpu

>  <m_score__min__energy>  (56) 
-8.7799999999999994

>  <m_primary>  (56) 
energy

>  <rmsd>  (56) 
2.4167935238999334

>  <m_score__min__rmsd>  (56) 
2.4167935238999334

>  <meeko>  (56) 
{"free_energy": -8.18, "intermolecular_energy": -9.67, "internal_energy": -1.66, "cluster_size": 28, "cluster_id": 1, "rank_in_cluster": 22}

>  <energy>  (56) 
-8.62

>  <cluster_rmsd>  (56) 
0.68

>  <cluster>  (56) 
1

$$$$

     RDKit          3D

 48 51  0  0  0  0  0  0  0  0999 V2000
  138.8550   70.8960  221.1780 O   0  0  0  0  0  0  0  0  0  0  0  0
  139.0160   71.6480  222.1860 C   0  0  0  0  0  0  0  0  0  0  0  0
  138.7030   73.0370  222.0590 N   0  0  0  0  0  0  0  0  0  0  0  0
  138.2200   73.4740  220.7630 C   0  0  0  0  0  0  0  0  0  0  0  0
  138.1570   74.9620  220.6840 C   0  0  0  0  0  0  0  0  0  0  0  0
  137.1220   75.5870  220.3400 O   0  0  0  0  0  0  0  0  0  0  0  0
  139.3430   75.6740  221.0210 N   0  0  0  0  0  0  0  0  0  0  0  0
  139.8290   76.0760  222.3330 C   0  0  0  0  0  0  0  0  0  0  0  0
  140.7000   77.2890  222.1070 C   0  0  0  0  0  0  0  0  0  0  0  0
  140.4530   77.5900  220.6430 C   0  0  0  0  0  0  0  0  0  0  0  0
  140.3670   76.1750  220.0930 C   0  0  1  0  0  0  0  0  0  0  0  0
  141.6490   75.4460  220.2340 C   0  0  0  0  0  0  0  0  0  0  0  0
  141.6630   74.1340  220.6940 C   0  0  0  0  0  0  0  0  0  0  0  0
  142.8470   73.4230  220.8370 C   0  0  0  0  0  0  0  0  0  0  0  0
  144.0490   74.0000  220.5260 C   0  0  0  0  0  0  0  0  0  0  0  0
  145.7210   73.0840  220.6970 Br  0  0  0  0  0  0  0  0  0  0  0  0
  144.0680   75.3010  220.0670 C   0  0  0  0  0  0  0  0  0  0  0  0
  142.8780   75.9970  219.9300 C   0  0  0  0  0  0  0  0  0  0  0  0
  139.5080   71.1240  223.4500 C   0  0  0  0  0  0  0  0  0  0  0  0
  140.3710   71.9120  224.2010 C   0  0  0  0  0  0  0  0  0  0  0  0
  140.8930   71.5170  225.4040 C   0  0  0  0  0  0  0  0  0  0  0  0
  140.5370   70.2770  225.8780 C   0  0  0  0  0  0  0  0  0  0  0  0
  141.0570   69.8770  227.0840 C   0  0  0  0  0  0  0  0  0  0  0  0
  140.6980   68.6360  227.5540 C   0  0  0  0  0  0  0  0  0  0  0  0
  141.3310   68.0850  229.0740 Cl  0  0  0  0  0  0  0  0  0  0  0  0
  139.8440   67.8190  226.8440 C   0  0  0  0  0  0  0  0  0  0  0  0
  139.3250   68.2450  225.6200 C   0  0  0  0  0  0  0  0  0  0  0  0
  139.6720   69.4850  225.1300 C   0  0  0  0  0  0  0  0  0  0  0  0
  139.1780   69.9210  223.9380 N   0  0  0  0  0  0  0  0  0  0  0  0
  138.8220   73.7060  222.8730 H   0  0  0  0  0  0  0  0  0  0  0  0
  138.9001   73.1018  219.9826 H   0  0  0  0  0  0  0  0  0  0  0  0
  137.2056   73.0744  220.6167 H   0  0  0  0  0  0  0  0  0  0  0  0
  138.9848   76.3301  222.9908 H   0  0  0  0  0  0  0  0  0  0  0  0
  140.3909   75.2642  222.8180 H   0  0  0  0  0  0  0  0  0  0  0  0
  140.3881   78.1288  222.7453 H   0  0  0  0  0  0  0  0  0  0  0  0
  141.7597   77.1243  222.3519 H   0  0  0  0  0  0  0  0  0  0  0  0
  139.5146   78.1440  220.4929 H   0  0  0  0  0  0  0  0  0  0  0  0
  141.2129   78.2268  220.1665 H   0  0  0  0  0  0  0  0  0  0  0  0
  140.1449   76.0787  219.0200 H   0  0  0  0  0  0  0  0  0  0  0  0
  140.7111   73.6465  220.9514 H   0  0  0  0  0  0  0  0  0  0  0  0
  142.8190   72.3863  221.2037 H   0  0  0  0  0  0  0  0  0  0  0  0
  145.0230   75.7831  219.8112 H   0  0  0  0  0  0  0  0  0  0  0  0
  142.9138   77.0334  219.5632 H   0  0  0  0  0  0  0  0  0  0  0  0
  140.6488   72.9020  223.8102 H   0  0  0  0  0  0  0  0  0  0  0  0
  141.5734   72.1693  225.9710 H   0  0  0  0  0  0  0  0  0  0  0  0
  141.7371   70.5268  227.6543 H   0  0  0  0  0  0  0  0  0  0  0  0
  139.5713   66.8306  227.2423 H   0  0  0  0  0  0  0  0  0  0  0  0
  138.6439   67.5953  225.0509 H   0  0  0  0  0  0  0  0  0  0  0  0
  1  2  2  0
  2  3  1  0
  3  4  1  0
  4  5  1  0
  5  6  2  0
  5  7  1  0
  7  8  1  0
  8  9  1  0
  9 10  1  0
 10 11  1  0
 11 12  1  0
 12 13  2  0
 13 14  1  0
 14 15  2  0
 15 16  1  0
 15 17  1  0
 17 18  2  0
  2 19  1  0
 19 20  2  0
 20 21  1  0
 21 22  2  0
 22 23  1  0
 23 24  2  0
 24 25  1  0
 24 26  1  0
 26 27  2  0
 27 28  1  0
 28 29  2  0
 11  7  1  0
 18 12  1  0
 29 19  1  0
 28 22  1  0
  3 30  1  0
  4 31  1  0
  4 32  1  0
  8 33  1  0
  8 34  1  0
  9 35  1  0
  9 36  1  0
 10 37  1  0
 10 38  1  0
 11 39  1  6
 13 40  1  0
 14 41  1  0
 17 42  1  0
 18 43  1  0
 20 44  1  0
 21 45  1  0
 23 46  1  0
 26 47  1  0
 27 48  1  0
M  END
>  <smiles>  (57) 
O=C(NCC(=O)N1CCCC1c1ccc(Br)cc1)c1ccc2cc(Cl)ccc2n1

>  <score_type>  (57) 
oracle

>  <origin>  (57) 
autodockgpu

>  <m_score__min__energy>  (57) 
-8.7799999999999994

>  <m_primary>  (57) 
energy

>  <rmsd>  (57) 
3.1157697211186197

>  <m_score__min__rmsd>  (57) 
3.1157697211186197

>  <meeko>  (57) 
{"free_energy": -8.58, "intermolecular_energy": -10.07, "internal_energy": -1.59, "cluster_size": 28, "cluster_id": 1, "rank_in_cluster": 7}

>  <energy>  (57) 
-8.58

>  <cluster_rmsd>  (57) 
0.89

>  <cluster>  (57) 
1

$$$$

     RDKit          3D

 48 51  0  0  0  0  0  0  0  0999 V2000
  138.9310   70.9600  221.0120 O   0  0  0  0  0  0  0  0  0  0  0  0
  139.0000   71.6910  222.0460 C   0  0  0  0  0  0  0  0  0  0  0  0
  138.5910   73.0560  221.9460 N   0  0  0  0  0  0  0  0  0  0  0  0
  138.1240   73.4970  220.6450 C   0  0  0  0  0  0  0  0  0  0  0  0
  138.1520   74.9840  220.5370 C   0  0  0  0  0  0  0  0  0  0  0  0
  137.1960   75.6560  220.0730 O   0  0  0  0  0  0  0  0  0  0  0  0
  139.3330   75.6380  220.9890 N   0  0  0  0  0  0  0  0  0  0  0  0
  139.7760   75.8910  222.3530 C   0  0  0  0  0  0  0  0  0  0  0  0
  140.6680   77.1080  222.2870 C   0  0  0  0  0  0  0  0  0  0  0  0
  140.4760   77.5680  220.8570 C   0  0  0  0  0  0  0  0  0  0  0  0
  140.3950   76.2210  220.1560 C   0  0  1  0  0  0  0  0  0  0  0  0
  141.6630   75.4630  220.2620 C   0  0  0  0  0  0  0  0  0  0  0  0
  141.6550   74.1360  220.6770 C   0  0  0  0  0  0  0  0  0  0  0  0
  142.8250   73.3970  220.7870 C   0  0  0  0  0  0  0  0  0  0  0  0
  144.0360   73.9610  220.4860 C   0  0  0  0  0  0  0  0  0  0  0  0
  145.6910   73.0070  220.6130 Br  0  0  0  0  0  0  0  0  0  0  0  0
  144.0780   75.2750  220.0710 C   0  0  0  0  0  0  0  0  0  0  0  0
  142.9000   75.9990  219.9670 C   0  0  0  0  0  0  0  0  0  0  0  0
  139.4840   71.1650  223.3140 C   0  0  0  0  0  0  0  0  0  0  0  0
  140.3810   71.9310  224.0470 C   0  0  0  0  0  0  0  0  0  0  0  0
  140.8990   71.5320  225.2510 C   0  0  0  0  0  0  0  0  0  0  0  0
  140.5020   70.3120  225.7440 C   0  0  0  0  0  0  0  0  0  0  0  0
  141.0180   69.9090  226.9510 C   0  0  0  0  0  0  0  0  0  0  0  0
  140.6200   68.6880  227.4400 C   0  0  0  0  0  0  0  0  0  0  0  0
  141.2450   68.1330  228.9610 Cl  0  0  0  0  0  0  0  0  0  0  0  0
  139.7310   67.8930  226.7470 C   0  0  0  0  0  0  0  0  0  0  0  0
  139.2170   68.3210  225.5220 C   0  0  0  0  0  0  0  0  0  0  0  0
  139.6040   69.5420  225.0130 C   0  0  0  0  0  0  0  0  0  0  0  0
  139.1160   69.9810  223.8190 N   0  0  0  0  0  0  0  0  0  0  0  0
  138.6310   73.7070  222.7830 H   0  0  0  0  0  0  0  0  0  0  0  0
  138.7728   73.0686  219.8669 H   0  0  0  0  0  0  0  0  0  0  0  0
  137.0857   73.1580  220.5146 H   0  0  0  0  0  0  0  0  0  0  0  0
  138.9116   76.0865  223.0047 H   0  0  0  0  0  0  0  0  0  0  0  0
  140.3106   75.0240  222.7683 H   0  0  0  0  0  0  0  0  0  0  0  0
  140.3438   77.8794  223.0011 H   0  0  0  0  0  0  0  0  0  0  0  0
  141.7166   76.9016  222.5475 H   0  0  0  0  0  0  0  0  0  0  0  0
  139.5493   78.1480  220.7355 H   0  0  0  0  0  0  0  0  0  0  0  0
  141.2583   78.2418  220.4777 H   0  0  0  0  0  0  0  0  0  0  0  0
  140.2105   76.2432  219.0718 H   0  0  0  0  0  0  0  0  0  0  0  0
  140.6954   73.6587  220.9249 H   0  0  0  0  0  0  0  0  0  0  0  0
  142.7789   72.3493  221.1188 H   0  0  0  0  0  0  0  0  0  0  0  0
  145.0406   75.7464  219.8238 H   0  0  0  0  0  0  0  0  0  0  0  0
  142.9538   77.0463  219.6349 H   0  0  0  0  0  0  0  0  0  0  0  0
  140.6906   72.9054  223.6412 H   0  0  0  0  0  0  0  0  0  0  0  0
  141.6079   72.1659  225.8038 H   0  0  0  0  0  0  0  0  0  0  0  0
  141.7254   70.5416  227.5072 H   0  0  0  0  0  0  0  0  0  0  0  0
  139.4267   66.9201  227.1604 H   0  0  0  0  0  0  0  0  0  0  0  0
  138.5084   67.6887  224.9670 H   0  0  0  0  0  0  0  0  0  0  0  0
  1  2  2  0
  2  3  1  0
  3  4  1  0
  4  5  1  0
  5  6  2  0
  5  7  1  0
  7  8  1  0
  8  9  1  0
  9 10  1  0
 10 11  1  0
 11 12  1  0
 12 13  2  0
 13 14  1  0
 14 15  2  0
 15 16  1  0
 15 17  1  0
 17 18  2  0
  2 19  1  0
 19 20  2  0
 20 21  1  0
 21 22  2  0
 22 23  1  0
 23 24  2  0
 24 25  1  0
 24 26  1  0
 26 27  2  0
 27 28  1  0
 28 29  2  0
 11  7  1  0
 18 12  1  0
 29 19  1  0
 28 22  1  0
  3 30  1  0
  4 31  1  0
  4 32  1  0
  8 33  1  0
  8 34  1  0
  9 35  1  0
  9 36  1  0
 10 37  1  0
 10 38  1  0
 11 39  1  6
 13 40  1  0
 14 41  1  0
 17 42  1  0
 18 43  1  0
 20 44  1  0
 21 45  1  0
 23 46  1  0
 26 47  1  0
 27 48  1  0
M  END
>  <smiles>  (58) 
O=C(NCC(=O)N1CCCC1c1ccc(Br)cc1)c1ccc2cc(Cl)ccc2n1

>  <score_type>  (58) 
oracle

>  <origin>  (58) 
autodockgpu

>  <m_score__min__energy>  (58) 
-8.7799999999999994

>  <m_primary>  (58) 
energy

>  <rmsd>  (58) 
3.133399185595996

>  <m_score__min__rmsd>  (58) 
3.133399185595996

>  <meeko>  (58) 
{"free_energy": -8.49, "intermolecular_energy": -9.98, "internal_energy": -1.61, "cluster_size": 28, "cluster_id": 1, "rank_in_cluster": 11}

>  <energy>  (58) 
-8.58

>  <cluster_rmsd>  (58) 
0.36

>  <cluster>  (58) 
1

$$$$

     RDKit          3D

 48 51  0  0  0  0  0  0  0  0999 V2000
  138.5930   71.2600  221.0680 O   0  0  0  0  0  0  0  0  0  0  0  0
  138.9310   71.8170  222.1560 C   0  0  0  0  0  0  0  0  0  0  0  0
  138.9730   73.2440  222.2080 N   0  0  0  0  0  0  0  0  0  0  0  0
  138.6190   73.9460  220.9890 C   0  0  0  0  0  0  0  0  0  0  0  0
  139.7650   73.9840  220.0350 C   0  0  0  0  0  0  0  0  0  0  0  0
  140.1170   72.9920  219.3470 O   0  0  0  0  0  0  0  0  0  0  0  0
  140.4680   75.2160  219.9250 N   0  0  0  0  0  0  0  0  0  0  0  0
  140.4330   76.1990  218.8510 C   0  0  0  0  0  0  0  0  0  0  0  0
  141.7570   76.9250  218.9010 C   0  0  0  0  0  0  0  0  0  0  0  0
  142.5290   76.1120  219.9190 C   0  0  0  0  0  0  0  0  0  0  0  0
  141.4120   75.7860  220.8980 C   0  0  1  0  0  0  0  0  0  0  0  0
  140.8720   77.0030  221.5490 C   0  0  0  0  0  0  0  0  0  0  0  0
  139.5800   77.0100  222.0610 C   0  0  0  0  0  0  0  0  0  0  0  0
  139.0430   78.1330  222.6770 C   0  0  0  0  0  0  0  0  0  0  0  0
  139.7820   79.2800  222.8000 C   0  0  0  0  0  0  0  0  0  0  0  0
  139.1130   80.8660  223.6360 Br  0  0  0  0  0  0  0  0  0  0  0  0
  141.0680   79.3040  222.3020 C   0  0  0  0  0  0  0  0  0  0  0  0
  141.5880   78.1740  221.6890 C   0  0  0  0  0  0  0  0  0  0  0  0
  139.2720   71.0330  223.3330 C   0  0  0  0  0  0  0  0  0  0  0  0
  138.9630   69.6790  223.3380 C   0  0  0  0  0  0  0  0  0  0  0  0
  139.2400   68.8500  224.3930 C   0  0  0  0  0  0  0  0  0  0  0  0
  139.8520   69.4000  225.4930 C   0  0  0  0  0  0  0  0  0  0  0  0
  140.1320   68.5730  226.5530 C   0  0  0  0  0  0  0  0  0  0  0  0
  140.7440   69.1280  227.6520 C   0  0  0  0  0  0  0  0  0  0  0  0
  141.1170   68.1230  229.0170 Cl  0  0  0  0  0  0  0  0  0  0  0  0
  141.0700   70.4670  227.6930 C   0  0  0  0  0  0  0  0  0  0  0  0
  140.7770   71.2910  226.6040 C   0  0  0  0  0  0  0  0  0  0  0  0
  140.1630   70.7560  225.4930 C   0  0  0  0  0  0  0  0  0  0  0  0
  139.8690   71.5420  224.4190 N   0  0  0  0  0  0  0  0  0  0  0  0
  139.2500   73.7560  223.0950 H   0  0  0  0  0  0  0  0  0  0  0  0
  137.7721   73.4312  220.5118 H   0  0  0  0  0  0  0  0  0  0  0  0
  138.3485   74.9800  221.2491 H   0  0  0  0  0  0  0  0  0  0  0  0
  140.3092   75.6981  217.8795 H   0  0  0  0  0  0  0  0  0  0  0  0
  139.5895   76.8947  218.9716 H   0  0  0  0  0  0  0  0  0  0  0  0
  142.2555   76.9136  217.9205 H   0  0  0  0  0  0  0  0  0  0  0  0
  141.6673   77.9897  219.1623 H   0  0  0  0  0  0  0  0  0  0  0  0
  142.9599   75.2031  219.4738 H   0  0  0  0  0  0  0  0  0  0  0  0
  143.3967   76.6247  220.3598 H   0  0  0  0  0  0  0  0  0  0  0  0
  141.6800   75.1469  221.7523 H   0  0  0  0  0  0  0  0  0  0  0  0
  138.9659   76.1013  221.9761 H   0  0  0  0  0  0  0  0  0  0  0  0
  138.0158   78.1012  223.0694 H   0  0  0  0  0  0  0  0  0  0  0  0
  141.6781   80.2150  222.3906 H   0  0  0  0  0  0  0  0  0  0  0  0
  142.6153   78.2130  221.2976 H   0  0  0  0  0  0  0  0  0  0  0  0
  138.4718   69.2513  222.4516 H   0  0  0  0  0  0  0  0  0  0  0  0
  138.9814   67.7813  224.3604 H   0  0  0  0  0  0  0  0  0  0  0  0
  139.8756   67.5037  226.5238 H   0  0  0  0  0  0  0  0  0  0  0  0
  141.5610   70.8864  228.5835 H   0  0  0  0  0  0  0  0  0  0  0  0
  141.0348   72.3600  226.6333 H   0  0  0  0  0  0  0  0  0  0  0  0
  1  2  2  0
  2  3  1  0
  3  4  1  0
  4  5  1  0
  5  6  2  0
  5  7  1  0
  7  8  1  0
  8  9  1  0
  9 10  1  0
 10 11  1  0
 11 12  1  0
 12 13  2  0
 13 14  1  0
 14 15  2  0
 15 16  1  0
 15 17  1  0
 17 18  2  0
  2 19  1  0
 19 20  2  0
 20 21  1  0
 21 22  2  0
 22 23  1  0
 23 24  2  0
 24 25  1  0
 24 26  1  0
 26 27  2  0
 27 28  1  0
 28 29  2  0
 11  7  1  0
 18 12  1  0
 29 19  1  0
 28 22  1  0
  3 30  1  0
  4 31  1  0
  4 32  1  0
  8 33  1  0
  8 34  1  0
  9 35  1  0
  9 36  1  0
 10 37  1  0
 10 38  1  0
 11 39  1  1
 13 40  1  0
 14 41  1  0
 17 42  1  0
 18 43  1  0
 20 44  1  0
 21 45  1  0
 23 46  1  0
 26 47  1  0
 27 48  1  0
M  END
>  <smiles>  (59) 
O=C(NCC(=O)N1CCCC1c1ccc(Br)cc1)c1ccc2cc(Cl)ccc2n1

>  <score_type>  (59) 
oracle

>  <origin>  (59) 
autodockgpu

>  <m_score__min__energy>  (59) 
-8.7799999999999994

>  <m_primary>  (59) 
energy

>  <rmsd>  (59) 
1.5101542252620161

>  <m_score__min__rmsd>  (59) 
1.5101542252620161

>  <meeko>  (59) 
{"free_energy": -7.91, "intermolecular_energy": -9.41, "internal_energy": -1.41, "cluster_size": 16, "cluster_id": 2, "rank_in_cluster": 16}

>  <energy>  (59) 
-8.57

>  <cluster_rmsd>  (59) 
0.28

>  <cluster>  (59) 
1

$$$$

     RDKit          3D

 48 51  0  0  0  0  0  0  0  0999 V2000
  137.6750   71.2120  221.4540 O   0  0  0  0  0  0  0  0  0  0  0  0
  138.3190   71.7610  222.3980 C   0  0  0  0  0  0  0  0  0  0  0  0
  138.5880   73.1620  222.3170 N   0  0  0  0  0  0  0  0  0  0  0  0
  138.0930   73.8480  221.1390 C   0  0  0  0  0  0  0  0  0  0  0  0
  137.8940   75.3020  221.4040 C   0  0  0  0  0  0  0  0  0  0  0  0
  138.7500   76.1760  221.1110 O   0  0  0  0  0  0  0  0  0  0  0  0
  136.6670   75.6810  222.0170 N   0  0  0  0  0  0  0  0  0  0  0  0
  135.3290   75.7210  221.4440 C   0  0  0  0  0  0  0  0  0  0  0  0
  134.5600   76.7510  222.2370 C   0  0  0  0  0  0  0  0  0  0  0  0
  135.6450   77.3670  223.0940 C   0  0  0  0  0  0  0  0  0  0  0  0
  136.4730   76.1300  223.4040 C   0  0  1  0  0  0  0  0  0  0  0  0
  135.7140   75.1420  224.2070 C   0  0  0  0  0  0  0  0  0  0  0  0
  135.7520   73.7920  223.8760 C   0  0  0  0  0  0  0  0  0  0  0  0
  135.0540   72.8400  224.6070 C   0  0  0  0  0  0  0  0  0  0  0  0
  134.2980   73.2090  225.6880 C   0  0  0  0  0  0  0  0  0  0  0  0
  133.3080   71.9570  226.7440 Br  0  0  0  0  0  0  0  0  0  0  0  0
  134.2400   74.5410  226.0410 C   0  0  0  0  0  0  0  0  0  0  0  0
  134.9430   75.4780  225.3000 C   0  0  0  0  0  0  0  0  0  0  0  0
  138.7800   70.9950  223.5450 C   0  0  0  0  0  0  0  0  0  0  0  0
  138.4400   69.6500  223.6220 C   0  0  0  0  0  0  0  0  0  0  0  0
  138.8220   68.8380  224.6570 C   0  0  0  0  0  0  0  0  0  0  0  0
  139.5760   69.3950  225.6610 C   0  0  0  0  0  0  0  0  0  0  0  0
  139.9610   68.5840  226.7010 C   0  0  0  0  0  0  0  0  0  0  0  0
  140.7150   69.1460  227.7030 C   0  0  0  0  0  0  0  0  0  0  0  0
  141.2250   68.1610  229.0390 Cl  0  0  0  0  0  0  0  0  0  0  0  0
  141.0760   70.4760  227.6710 C   0  0  0  0  0  0  0  0  0  0  0  0
  140.6750   71.2840  226.6050 C   0  0  0  0  0  0  0  0  0  0  0  0
  139.9180   70.7420  225.5890 C   0  0  0  0  0  0  0  0  0  0  0  0
  139.5160   71.5110  224.5390 N   0  0  0  0  0  0  0  0  0  0  0  0
  139.1230   73.6660  223.0820 H   0  0  0  0  0  0  0  0  0  0  0  0
  138.8203   73.7286  220.3224 H   0  0  0  0  0  0  0  0  0  0  0  0
  137.1231   73.4089  220.8627 H   0  0  0  0  0  0  0  0  0  0  0  0
  135.3767   76.0135  220.3847 H   0  0  0  0  0  0  0  0  0  0  0  0
  134.8436   74.7350  221.4916 H   0  0  0  0  0  0  0  0  0  0  0  0
  134.0990   77.5005  221.5768 H   0  0  0  0  0  0  0  0  0  0  0  0
  133.7245   76.3303  222.8158 H   0  0  0  0  0  0  0  0  0  0  0  0
  136.2260   78.1183  222.5390 H   0  0  0  0  0  0  0  0  0  0  0  0
  135.2826   77.9143  223.9766 H   0  0  0  0  0  0  0  0  0  0  0  0
  137.3841   76.2860  224.0003 H   0  0  0  0  0  0  0  0  0  0  0  0
  136.3512   73.4696  223.0117 H   0  0  0  0  0  0  0  0  0  0  0  0
  135.1086   71.7807  224.3156 H   0  0  0  0  0  0  0  0  0  0  0  0
  133.6390   74.8581  226.9060 H   0  0  0  0  0  0  0  0  0  0  0  0
  134.8833   76.5356  225.5966 H   0  0  0  0  0  0  0  0  0  0  0  0
  137.8347   69.2161  222.8125 H   0  0  0  0  0  0  0  0  0  0  0  0
  138.5348   67.7765  224.6832 H   0  0  0  0  0  0  0  0  0  0  0  0
  139.6757   67.5221  226.7306 H   0  0  0  0  0  0  0  0  0  0  0  0
  141.6804   70.9012  228.4858 H   0  0  0  0  0  0  0  0  0  0  0  0
  140.9614   72.3457  226.5765 H   0  0  0  0  0  0  0  0  0  0  0  0
  1  2  2  0
  2  3  1  0
  3  4  1  0
  4  5  1  0
  5  6  2  0
  5  7  1  0
  7  8  1  0
  8  9  1  0
  9 10  1  0
 10 11  1  0
 11 12  1  0
 12 13  2  0
 13 14  1  0
 14 15  2  0
 15 16  1  0
 15 17  1  0
 17 18  2  0
  2 19  1  0
 19 20  2  0
 20 21  1  0
 21 22  2  0
 22 23  1  0
 23 24  2  0
 24 25  1  0
 24 26  1  0
 26 27  2  0
 27 28  1  0
 28 29  2  0
 11  7  1  0
 18 12  1  0
 29 19  1  0
 28 22  1  0
  3 30  1  0
  4 31  1  0
  4 32  1  0
  8 33  1  0
  8 34  1  0
  9 35  1  0
  9 36  1  0
 10 37  1  0
 10 38  1  0
 11 39  1  1
 13 40  1  0
 14 41  1  0
 17 42  1  0
 18 43  1  0
 20 44  1  0
 21 45  1  0
 23 46  1  0
 26 47  1  0
 27 48  1  0
M  END
>  <smiles>  (60) 
O=C(NCC(=O)N1CCCC1c1ccc(Br)cc1)c1ccc2cc(Cl)ccc2n1

>  <score_type>  (60) 
oracle

>  <origin>  (60) 
autodockgpu

>  <m_score__min__energy>  (60) 
-8.7799999999999994

>  <m_primary>  (60) 
energy

>  <rmsd>  (60) 
3.6546822946310376

>  <m_score__min__rmsd>  (60) 
3.6546822946310376

>  <meeko>  (60) 
{"free_energy": -7.43, "intermolecular_energy": -8.92, "internal_energy": -1.92, "cluster_size": 2, "cluster_id": 5, "rank_in_cluster": 1}

>  <energy>  (60) 
-8.56

>  <cluster_rmsd>  (60) 
0.67

>  <cluster>  (60) 
1

$$$$

     RDKit          3D

 48 51  0  0  0  0  0  0  0  0999 V2000
  138.6970   71.0010  221.0930 O   0  0  0  0  0  0  0  0  0  0  0  0
  138.5780   71.6270  222.1890 C   0  0  0  0  0  0  0  0  0  0  0  0
  137.8370   72.8480  222.2020 N   0  0  0  0  0  0  0  0  0  0  0  0
  137.2740   73.2750  220.9350 C   0  0  0  0  0  0  0  0  0  0  0  0
  138.3320   73.7970  220.0220 C   0  0  0  0  0  0  0  0  0  0  0  0
  138.3860   73.5070  218.8000 O   0  0  0  0  0  0  0  0  0  0  0  0
  139.3080   74.6590  220.5970 N   0  0  0  0  0  0  0  0  0  0  0  0
  139.5440   74.9700  221.9990 C   0  0  0  0  0  0  0  0  0  0  0  0
  140.1860   76.3370  222.0260 C   0  0  0  0  0  0  0  0  0  0  0  0
  140.0640   76.7740  220.5810 C   0  0  0  0  0  0  0  0  0  0  0  0
  140.3210   75.4490  219.8810 C   0  0  1  0  0  0  0  0  0  0  0  0
  141.6930   74.9470  220.1290 C   0  0  0  0  0  0  0  0  0  0  0  0
  142.7920   75.7600  219.8770 C   0  0  0  0  0  0  0  0  0  0  0  0
  144.0910   75.3220  220.0980 C   0  0  0  0  0  0  0  0  0  0  0  0
  144.3290   74.0600  220.5760 C   0  0  0  0  0  0  0  0  0  0  0  0
  146.0890   73.3850  220.9060 Br  0  0  0  0  0  0  0  0  0  0  0  0
  143.2590   73.2300  220.8360 C   0  0  0  0  0  0  0  0  0  0  0  0
  141.9690   73.6830  220.6090 C   0  0  0  0  0  0  0  0  0  0  0  0
  139.1780   71.1250  223.4160 C   0  0  0  0  0  0  0  0  0  0  0  0
  140.1860   71.8730  224.0120 C   0  0  0  0  0  0  0  0  0  0  0  0
  140.8180   71.4940  225.1670 C   0  0  0  0  0  0  0  0  0  0  0  0
  140.4260   70.3140  225.7510 C   0  0  0  0  0  0  0  0  0  0  0  0
  141.0570   69.9300  226.9090 C   0  0  0  0  0  0  0  0  0  0  0  0
  140.6620   68.7490  227.4900 C   0  0  0  0  0  0  0  0  0  0  0  0
  141.4300   68.2210  228.9540 Cl  0  0  0  0  0  0  0  0  0  0  0  0
  139.6660   67.9730  226.9350 C   0  0  0  0  0  0  0  0  0  0  0  0
  139.0370   68.3810  225.7570 C   0  0  0  0  0  0  0  0  0  0  0  0
  139.4170   69.5620  225.1580 C   0  0  0  0  0  0  0  0  0  0  0  0
  138.8170   69.9800  224.0080 N   0  0  0  0  0  0  0  0  0  0  0  0
  137.7100   73.4070  223.0940 H   0  0  0  0  0  0  0  0  0  0  0  0
  136.7778   72.4180  220.4560 H   0  0  0  0  0  0  0  0  0  0  0  0
  136.5527   74.0825  221.1293 H   0  0  0  0  0  0  0  0  0  0  0  0
  138.5930   74.9846  222.5515 H   0  0  0  0  0  0  0  0  0  0  0  0
  140.1885   74.2154  222.4736 H   0  0  0  0  0  0  0  0  0  0  0  0
  139.6435   77.0196  222.6966 H   0  0  0  0  0  0  0  0  0  0  0  0
  141.2201   76.3328  222.4011 H   0  0  0  0  0  0  0  0  0  0  0  0
  139.0611   77.1663  220.3566 H   0  0  0  0  0  0  0  0  0  0  0  0
  140.7380   77.5918  220.2861 H   0  0  0  0  0  0  0  0  0  0  0  0
  140.2540   75.4534  218.7830 H   0  0  0  0  0  0  0  0  0  0  0  0
  142.6283   76.7774  219.4923 H   0  0  0  0  0  0  0  0  0  0  0  0
  144.9362   75.9938  219.8876 H   0  0  0  0  0  0  0  0  0  0  0  0
  143.4284   72.2138  221.2215 H   0  0  0  0  0  0  0  0  0  0  0  0
  141.1286   73.0055  220.8206 H   0  0  0  0  0  0  0  0  0  0  0  0
  140.4914   72.8151  223.5333 H   0  0  0  0  0  0  0  0  0  0  0  0
  141.6115   72.1129  225.6112 H   0  0  0  0  0  0  0  0  0  0  0  0
  141.8510   70.5464  227.3558 H   0  0  0  0  0  0  0  0  0  0  0  0
  139.3670   67.0323  227.4205 H   0  0  0  0  0  0  0  0  0  0  0  0
  138.2436   67.7637  225.3104 H   0  0  0  0  0  0  0  0  0  0  0  0
  1  2  2  0
  2  3  1  0
  3  4  1  0
  4  5  1  0
  5  6  2  0
  5  7  1  0
  7  8  1  0
  8  9  1  0
  9 10  1  0
 10 11  1  0
 11 12  1  0
 12 13  2  0
 13 14  1  0
 14 15  2  0
 15 16  1  0
 15 17  1  0
 17 18  2  0
  2 19  1  0
 19 20  2  0
 20 21  1  0
 21 22  2  0
 22 23  1  0
 23 24  2  0
 24 25  1  0
 24 26  1  0
 26 27  2  0
 27 28  1  0
 28 29  2  0
 11  7  1  0
 18 12  1  0
 29 19  1  0
 28 22  1  0
  3 30  1  0
  4 31  1  0
  4 32  1  0
  8 33  1  0
  8 34  1  0
  9 35  1  0
  9 36  1  0
 10 37  1  0
 10 38  1  0
 11 39  1  6
 13 40  1  0
 14 41  1  0
 17 42  1  0
 18 43  1  0
 20 44  1  0
 21 45  1  0
 23 46  1  0
 26 47  1  0
 27 48  1  0
M  END
>  <smiles>  (61) 
O=C(NCC(=O)N1CCCC1c1ccc(Br)cc1)c1ccc2cc(Cl)ccc2n1

>  <score_type>  (61) 
oracle

>  <origin>  (61) 
autodockgpu

>  <m_score__min__energy>  (61) 
-8.7799999999999994

>  <m_primary>  (61) 
energy

>  <rmsd>  (61) 
3.0476575015044456

>  <m_score__min__rmsd>  (61) 
3.0476575015044456

>  <meeko>  (61) 
{"free_energy": -8.24, "intermolecular_energy": -9.73, "internal_energy": -1.5, "cluster_size": 28, "cluster_id": 1, "rank_in_cluster": 18}

>  <energy>  (61) 
-8.49

>  <cluster_rmsd>  (61) 
0.89

>  <cluster>  (61) 
1

$$$$

     RDKit          3D

 48 51  0  0  0  0  0  0  0  0999 V2000
  139.9420   72.1260  220.8730 O   0  0  0  0  0  0  0  0  0  0  0  0
  139.3630   72.3300  221.9830 C   0  0  0  0  0  0  0  0  0  0  0  0
  138.4650   73.4350  222.0930 N   0  0  0  0  0  0  0  0  0  0  0  0
  138.2900   74.2460  220.9020 C   0  0  0  0  0  0  0  0  0  0  0  0
  138.2800   75.7000  221.2350 C   0  0  0  0  0  0  0  0  0  0  0  0
  137.2240   76.3440  221.4620 O   0  0  0  0  0  0  0  0  0  0  0  0
  139.5420   76.3540  221.2890 N   0  0  0  0  0  0  0  0  0  0  0  0
  140.2390   76.9100  222.4410 C   0  0  0  0  0  0  0  0  0  0  0  0
  141.1390   77.9980  221.9060 C   0  0  0  0  0  0  0  0  0  0  0  0
  140.6980   78.0940  220.4610 C   0  0  0  0  0  0  0  0  0  0  0  0
  140.4480   76.6230  220.1630 C   0  0  1  0  0  0  0  0  0  0  0  0
  141.6910   75.8210  220.2450 C   0  0  0  0  0  0  0  0  0  0  0  0
  142.8930   76.3400  219.7770 C   0  0  0  0  0  0  0  0  0  0  0  0
  144.0760   75.6160  219.8390 C   0  0  0  0  0  0  0  0  0  0  0  0
  144.0920   74.3540  220.3710 C   0  0  0  0  0  0  0  0  0  0  0  0
  145.6820   73.2940  220.4920 Br  0  0  0  0  0  0  0  0  0  0  0  0
  142.9160   73.8110  220.8440 C   0  0  0  0  0  0  0  0  0  0  0  0
  141.7440   74.5480  220.7740 C   0  0  0  0  0  0  0  0  0  0  0  0
  139.5980   71.4650  223.1290 C   0  0  0  0  0  0  0  0  0  0  0  0
  139.2490   70.1250  223.0280 C   0  0  0  0  0  0  0  0  0  0  0  0
  139.4270   69.2240  224.0460 C   0  0  0  0  0  0  0  0  0  0  0  0
  139.9780   69.6850  225.2170 C   0  0  0  0  0  0  0  0  0  0  0  0
  140.1590   68.7860  226.2390 C   0  0  0  0  0  0  0  0  0  0  0  0
  140.7100   69.2520  227.4090 C   0  0  0  0  0  0  0  0  0  0  0  0
  140.9570   68.1540  228.7300 Cl  0  0  0  0  0  0  0  0  0  0  0  0
  141.0720   70.5740  227.5560 C   0  0  0  0  0  0  0  0  0  0  0  0
  140.8810   71.4730  226.5040 C   0  0  0  0  0  0  0  0  0  0  0  0
  140.3290   71.0270  225.3220 C   0  0  0  0  0  0  0  0  0  0  0  0
  140.1330   71.8860  224.2830 N   0  0  0  0  0  0  0  0  0  0  0  0
  137.9580   73.6460  223.0000 H   0  0  0  0  0  0  0  0  0  0  0  0
  139.1168   74.0433  220.2054 H   0  0  0  0  0  0  0  0  0  0  0  0
  137.3240   73.9874  220.4438 H   0  0  0  0  0  0  0  0  0  0  0  0
  139.5171   77.3303  223.1567 H   0  0  0  0  0  0  0  0  0  0  0  0
  140.8160   76.1377  222.9707 H   0  0  0  0  0  0  0  0  0  0  0  0
  140.9762   78.9476  222.4369 H   0  0  0  0  0  0  0  0  0  0  0  0
  142.2112   77.7846  222.0278 H   0  0  0  0  0  0  0  0  0  0  0  0
  139.7824   78.6939  220.3526 H   0  0  0  0  0  0  0  0  0  0  0  0
  141.4158   78.5874  219.7892 H   0  0  0  0  0  0  0  0  0  0  0  0
  140.0662   76.3838  219.1595 H   0  0  0  0  0  0  0  0  0  0  0  0
  142.9070   77.3519  219.3458 H   0  0  0  0  0  0  0  0  0  0  0  0
  145.0078   76.0594  219.4579 H   0  0  0  0  0  0  0  0  0  0  0  0
  142.9080   72.7987  221.2744 H   0  0  0  0  0  0  0  0  0  0  0  0
  140.8160   74.0983  221.1569 H   0  0  0  0  0  0  0  0  0  0  0  0
  138.8081   69.7688  222.0852 H   0  0  0  0  0  0  0  0  0  0  0  0
  139.1387   68.1689  223.9292 H   0  0  0  0  0  0  0  0  0  0  0  0
  139.8731   67.7299  226.1255 H   0  0  0  0  0  0  0  0  0  0  0  0
  141.5117   70.9213  228.5026 H   0  0  0  0  0  0  0  0  0  0  0  0
  141.1688   72.5286  226.6178 H   0  0  0  0  0  0  0  0  0  0  0  0
  1  2  2  0
  2  3  1  0
  3  4  1  0
  4  5  1  0
  5  6  2  0
  5  7  1  0
  7  8  1  0
  8  9  1  0
  9 10  1  0
 10 11  1  0
 11 12  1  0
 12 13  2  0
 13 14  1  0
 14 15  2  0
 15 16  1  0
 15 17  1  0
 17 18  2  0
  2 19  1  0
 19 20  2  0
 20 21  1  0
 21 22  2  0
 22 23  1  0
 23 24  2  0
 24 25  1  0
 24 26  1  0
 26 27  2  0
 27 28  1  0
 28 29  2  0
 11  7  1  0
 18 12  1  0
 29 19  1  0
 28 22  1  0
  3 30  1  0
  4 31  1  0
  4 32  1  0
  8 33  1  0
  8 34  1  0
  9 35  1  0
  9 36  1  0
 10 37  1  0
 10 38  1  0
 11 39  1  6
 13 40  1  0
 14 41  1  0
 17 42  1  0
 18 43  1  0
 20 44  1  0
 21 45  1  0
 23 46  1  0
 26 47  1  0
 27 48  1  0
M  END
>  <smiles>  (62) 
O=C(NCC(=O)N1CCCC1c1ccc(Br)cc1)c1ccc2cc(Cl)ccc2n1

>  <score_type>  (62) 
oracle

>  <origin>  (62) 
autodockgpu

>  <m_score__min__energy>  (62) 
-8.7799999999999994

>  <m_primary>  (62) 
energy

>  <rmsd>  (62) 
2.3715490393948944

>  <m_score__min__rmsd>  (62) 
2.3715490393948944

>  <meeko>  (62) 
{"free_energy": -8.78, "intermolecular_energy": -10.27, "internal_energy": -1.67, "cluster_size": 28, "cluster_id": 1, "rank_in_cluster": 1}

>  <energy>  (62) 
-8.49

>  <cluster_rmsd>  (62) 
0.38

>  <cluster>  (62) 
1

$$$$

     RDKit          3D

 48 51  0  0  0  0  0  0  0  0999 V2000
  138.0490   71.1610  221.3780 O   0  0  0  0  0  0  0  0  0  0  0  0
  138.6340   71.7170  222.3570 C   0  0  0  0  0  0  0  0  0  0  0  0
  138.8470   73.1290  222.3120 N   0  0  0  0  0  0  0  0  0  0  0  0
  138.3690   73.8180  221.1280 C   0  0  0  0  0  0  0  0  0  0  0  0
  138.3060   75.2920  221.3490 C   0  0  0  0  0  0  0  0  0  0  0  0
  137.2270   75.9160  221.5070 O   0  0  0  0  0  0  0  0  0  0  0  0
  139.5460   75.9900  221.3750 N   0  0  0  0  0  0  0  0  0  0  0  0
  140.2480   76.5700  222.5120 C   0  0  0  0  0  0  0  0  0  0  0  0
  141.0980   77.6880  221.9570 C   0  0  0  0  0  0  0  0  0  0  0  0
  140.6230   77.7670  220.5210 C   0  0  0  0  0  0  0  0  0  0  0  0
  140.4180   76.2890  220.2290 C   0  0  1  0  0  0  0  0  0  0  0  0
  141.6890   75.5300  220.2850 C   0  0  0  0  0  0  0  0  0  0  0  0
  141.7080   74.2270  220.7670 C   0  0  0  0  0  0  0  0  0  0  0  0
  142.8820   73.4880  220.8330 C   0  0  0  0  0  0  0  0  0  0  0  0
  144.0700   74.0300  220.4200 C   0  0  0  0  0  0  0  0  0  0  0  0
  145.7280   73.0750  220.4790 Br  0  0  0  0  0  0  0  0  0  0  0  0
  144.0840   75.3210  219.9360 C   0  0  0  0  0  0  0  0  0  0  0  0
  142.9030   76.0450  219.8780 C   0  0  0  0  0  0  0  0  0  0  0  0
  139.0830   70.9480  223.5060 C   0  0  0  0  0  0  0  0  0  0  0  0
  138.8900   69.5720  223.4970 C   0  0  0  0  0  0  0  0  0  0  0  0
  139.2740   68.7540  224.5260 C   0  0  0  0  0  0  0  0  0  0  0  0
  139.8770   69.3370  225.6140 C   0  0  0  0  0  0  0  0  0  0  0  0
  140.2650   68.5200  226.6480 C   0  0  0  0  0  0  0  0  0  0  0  0
  140.8670   69.1080  227.7350 C   0  0  0  0  0  0  0  0  0  0  0  0
  141.3740   68.1170  229.0670 Cl  0  0  0  0  0  0  0  0  0  0  0  0
  141.0800   70.4690  227.7890 C   0  0  0  0  0  0  0  0  0  0  0  0
  140.6790   71.2820  226.7270 C   0  0  0  0  0  0  0  0  0  0  0  0
  140.0730   70.7140  225.6280 C   0  0  0  0  0  0  0  0  0  0  0  0
  139.6730   71.4880  224.5800 N   0  0  0  0  0  0  0  0  0  0  0  0
  139.3310   73.6400  223.1060 H   0  0  0  0  0  0  0  0  0  0  0  0
  139.0522   73.6097  220.2915 H   0  0  0  0  0  0  0  0  0  0  0  0
  137.3552   73.4566  220.9007 H   0  0  0  0  0  0  0  0  0  0  0  0
  139.5278   76.9656  223.2433 H   0  0  0  0  0  0  0  0  0  0  0  0
  140.8624   75.8185  223.0294 H   0  0  0  0  0  0  0  0  0  0  0  0
  140.9137   78.6320  222.4907 H   0  0  0  0  0  0  0  0  0  0  0  0
  142.1793   77.5119  222.0558 H   0  0  0  0  0  0  0  0  0  0  0  0
  139.6850   78.3346  220.4319 H   0  0  0  0  0  0  0  0  0  0  0  0
  141.3089   78.2842  219.8339 H   0  0  0  0  0  0  0  0  0  0  0  0
  140.0236   76.0361  219.2338 H   0  0  0  0  0  0  0  0  0  0  0  0
  140.7674   73.7682  221.1056 H   0  0  0  0  0  0  0  0  0  0  0  0
  142.8575   72.4587  221.2202 H   0  0  0  0  0  0  0  0  0  0  0  0
  145.0274   75.7743  219.5976 H   0  0  0  0  0  0  0  0  0  0  0  0
  142.9350   77.0742  219.4909 H   0  0  0  0  0  0  0  0  0  0  0  0
  138.4051   69.1175  222.6205 H   0  0  0  0  0  0  0  0  0  0  0  0
  139.1055   67.6678  224.4829 H   0  0  0  0  0  0  0  0  0  0  0  0
  140.0997   67.4332  226.6076 H   0  0  0  0  0  0  0  0  0  0  0  0
  141.5662   70.9147  228.6693 H   0  0  0  0  0  0  0  0  0  0  0  0
  140.8458   72.3685  226.7676 H   0  0  0  0  0  0  0  0  0  0  0  0
  1  2  2  0
  2  3  1  0
  3  4  1  0
  4  5  1  0
  5  6  2  0
  5  7  1  0
  7  8  1  0
  8  9  1  0
  9 10  1  0
 10 11  1  0
 11 12  1  0
 12 13  2  0
 13 14  1  0
 14 15  2  0
 15 16  1  0
 15 17  1  0
 17 18  2  0
  2 19  1  0
 19 20  2  0
 20 21  1  0
 21 22  2  0
 22 23  1  0
 23 24  2  0
 24 25  1  0
 24 26  1  0
 26 27  2  0
 27 28  1  0
 28 29  2  0
 11  7  1  0
 18 12  1  0
 29 19  1  0
 28 22  1  0
  3 30  1  0
  4 31  1  0
  4 32  1  0
  8 33  1  0
  8 34  1  0
  9 35  1  0
  9 36  1  0
 10 37  1  0
 10 38  1  0
 11 39  1  6
 13 40  1  0
 14 41  1  0
 17 42  1  0
 18 43  1  0
 20 44  1  0
 21 45  1  0
 23 46  1  0
 26 47  1  0
 27 48  1  0
M  END
>  <smiles>  (63) 
O=C(NCC(=O)N1CCCC1c1ccc(Br)cc1)c1ccc2cc(Cl)ccc2n1

>  <score_type>  (63) 
oracle

>  <origin>  (63) 
autodockgpu

>  <m_score__min__energy>  (63) 
-8.7799999999999994

>  <m_primary>  (63) 
energy

>  <rmsd>  (63) 
2.289971731240287

>  <m_score__min__rmsd>  (63) 
2.289971731240287

>  <meeko>  (63) 
{"free_energy": -8.56, "intermolecular_energy": -10.05, "internal_energy": -1.59, "cluster_size": 28, "cluster_id": 1, "rank_in_cluster": 10}

>  <energy>  (63) 
-8.47

>  <cluster_rmsd>  (63) 
0.38

>  <cluster>  (63) 
1

$$$$

     RDKit          3D

 48 51  0  0  0  0  0  0  0  0999 V2000
  140.6650   73.7170  222.1530 O   0  0  0  0  0  0  0  0  0  0  0  0
  139.8150   72.7920  222.3290 C   0  0  0  0  0  0  0  0  0  0  0  0
  138.7210   72.6870  221.4160 N   0  0  0  0  0  0  0  0  0  0  0  0
  138.6770   73.6670  220.3460 C   0  0  0  0  0  0  0  0  0  0  0  0
  138.3930   75.0320  220.8750 C   0  0  0  0  0  0  0  0  0  0  0  0
  137.5550   75.2530  221.7860 O   0  0  0  0  0  0  0  0  0  0  0  0
  139.1230   76.1090  220.2980 N   0  0  0  0  0  0  0  0  0  0  0  0
  138.6270   77.2610  219.5580 C   0  0  0  0  0  0  0  0  0  0  0  0
  139.7570   77.7020  218.6580 C   0  0  0  0  0  0  0  0  0  0  0  0
  140.7630   76.5850  218.8390 C   0  0  0  0  0  0  0  0  0  0  0  0
  140.5800   76.3010  220.3210 C   0  0  1  0  0  0  0  0  0  0  0  0
  140.9750   77.4580  221.1600 C   0  0  0  0  0  0  0  0  0  0  0  0
  140.4960   77.5760  222.4600 C   0  0  0  0  0  0  0  0  0  0  0  0
  140.8460   78.6470  223.2730 C   0  0  0  0  0  0  0  0  0  0  0  0
  141.6830   79.6280  222.8110 C   0  0  0  0  0  0  0  0  0  0  0  0
  142.2110   81.1320  223.8700 Br  0  0  0  0  0  0  0  0  0  0  0  0
  142.1750   79.5380  221.5260 C   0  0  0  0  0  0  0  0  0  0  0  0
  141.8150   78.4630  220.7270 C   0  0  0  0  0  0  0  0  0  0  0  0
  139.9370   71.8520  223.4320 C   0  0  0  0  0  0  0  0  0  0  0  0
  139.5290   70.5390  223.2290 C   0  0  0  0  0  0  0  0  0  0  0  0
  139.5990   69.5740  224.1990 C   0  0  0  0  0  0  0  0  0  0  0  0
  140.0990   69.9370  225.4260 C   0  0  0  0  0  0  0  0  0  0  0  0
  140.1720   68.9720  226.4010 C   0  0  0  0  0  0  0  0  0  0  0  0
  140.6710   69.3390  227.6270 C   0  0  0  0  0  0  0  0  0  0  0  0
  140.7820   68.1550  228.8910 Cl  0  0  0  0  0  0  0  0  0  0  0  0
  141.0870   70.6300  227.8750 C   0  0  0  0  0  0  0  0  0  0  0  0
  141.0060   71.5970  226.8710 C   0  0  0  0  0  0  0  0  0  0  0  0
  140.5080   71.2500  225.6340 C   0  0  0  0  0  0  0  0  0  0  0  0
  140.4190   72.1760  224.6390 N   0  0  0  0  0  0  0  0  0  0  0  0
  137.9850   71.9310  221.5210 H   0  0  0  0  0  0  0  0  0  0  0  0
  139.6480   73.6775  219.8292 H   0  0  0  0  0  0  0  0  0  0  0  0
  137.8706   73.3882  219.6518 H   0  0  0  0  0  0  0  0  0  0  0  0
  137.7491   76.9796  218.9579 H   0  0  0  0  0  0  0  0  0  0  0  0
  138.3158   78.0693  220.2361 H   0  0  0  0  0  0  0  0  0  0  0  0
  139.4275   77.7765  217.6112 H   0  0  0  0  0  0  0  0  0  0  0  0
  140.1539   78.6983  218.9027 H   0  0  0  0  0  0  0  0  0  0  0  0
  140.5152   75.7087  218.2220 H   0  0  0  0  0  0  0  0  0  0  0  0
  141.7914   76.8352  218.5392 H   0  0  0  0  0  0  0  0  0  0  0  0
  141.1758   75.4766  220.7397 H   0  0  0  0  0  0  0  0  0  0  0  0
  139.8224   76.8013  222.8551 H   0  0  0  0  0  0  0  0  0  0  0  0
  140.4475   78.7077  224.2965 H   0  0  0  0  0  0  0  0  0  0  0  0
  142.8495   80.3148  221.1366 H   0  0  0  0  0  0  0  0  0  0  0  0
  142.2165   78.4095  219.7043 H   0  0  0  0  0  0  0  0  0  0  0  0
  139.1307   70.2612  222.2420 H   0  0  0  0  0  0  0  0  0  0  0  0
  139.2663   68.5441  224.0022 H   0  0  0  0  0  0  0  0  0  0  0  0
  139.8422   67.9408  226.2066 H   0  0  0  0  0  0  0  0  0  0  0  0
  141.4833   70.8985  228.8654 H   0  0  0  0  0  0  0  0  0  0  0  0
  141.3371   72.6277  227.0660 H   0  0  0  0  0  0  0  0  0  0  0  0
  1  2  2  0
  2  3  1  0
  3  4  1  0
  4  5  1  0
  5  6  2  0
  5  7  1  0
  7  8  1  0
  8  9  1  0
  9 10  1  0
 10 11  1  0
 11 12  1  0
 12 13  2  0
 13 14  1  0
 14 15  2  0
 15 16  1  0
 15 17  1  0
 17 18  2  0
  2 19  1  0
 19 20  2  0
 20 21  1  0
 21 22  2  0
 22 23  1  0
 23 24  2  0
 24 25  1  0
 24 26  1  0
 26 27  2  0
 27 28  1  0
 28 29  2  0
 11  7  1  0
 18 12  1  0
 29 19  1  0
 28 22  1  0
  3 30  1  0
  4 31  1  0
  4 32  1  0
  8 33  1  0
  8 34  1  0
  9 35  1  0
  9 36  1  0
 10 37  1  0
 10 38  1  0
 11 39  1  1
 13 40  1  0
 14 41  1  0
 17 42  1  0
 18 43  1  0
 20 44  1  0
 21 45  1  0
 23 46  1  0
 26 47  1  0
 27 48  1  0
M  END
>  <smiles>  (64) 
O=C(NCC(=O)N1CCCC1c1ccc(Br)cc1)c1ccc2cc(Cl)ccc2n1

>  <score_type>  (64) 
oracle

>  <origin>  (64) 
autodockgpu

>  <m_score__min__energy>  (64) 
-8.7799999999999994

>  <m_primary>  (64) 
energy

>  <rmsd>  (64) 
1.6476529329073089

>  <m_score__min__rmsd>  (64) 
1.6476529329073089

>  <meeko>  (64) 
{"free_energy": -8.34, "intermolecular_energy": -9.83, "internal_energy": -1.34, "cluster_size": 16, "cluster_id": 2, "rank_in_cluster": 3}

>  <energy>  (64) 
-8.39

>  <cluster_rmsd>  (64) 
0.92

>  <cluster>  (64) 
1

$$$$

     RDKit          3D

 48 51  0  0  0  0  0  0  0  0999 V2000
  139.0850   71.8200  220.7950 O   0  0  0  0  0  0  0  0  0  0  0  0
  139.1070   72.3020  221.9680 C   0  0  0  0  0  0  0  0  0  0  0  0
  138.8770   73.7020  222.1350 N   0  0  0  0  0  0  0  0  0  0  0  0
  138.6350   74.4660  220.9260 C   0  0  0  0  0  0  0  0  0  0  0  0
  137.1830   74.4930  220.5860 C   0  0  0  0  0  0  0  0  0  0  0  0
  136.7100   73.9560  219.5520 O   0  0  0  0  0  0  0  0  0  0  0  0
  136.3230   75.1670  221.4980 N   0  0  0  0  0  0  0  0  0  0  0  0
  134.9750   75.6750  221.2840 C   0  0  0  0  0  0  0  0  0  0  0  0
  134.7880   76.8060  222.2670 C   0  0  0  0  0  0  0  0  0  0  0  0
  136.1820   76.9680  222.8350 C   0  0  0  0  0  0  0  0  0  0  0  0
  136.6130   75.5110  222.8980 C   0  0  1  0  0  0  0  0  0  0  0  0
  135.7850   74.7290  223.8460 C   0  0  0  0  0  0  0  0  0  0  0  0
  135.6100   73.3620  223.6610 C   0  0  0  0  0  0  0  0  0  0  0  0
  134.8410   72.5990  224.5300 C   0  0  0  0  0  0  0  0  0  0  0  0
  134.2250   73.1790  225.6070 C   0  0  0  0  0  0  0  0  0  0  0  0
  133.1510   72.1950  226.8480 Br  0  0  0  0  0  0  0  0  0  0  0  0
  134.3800   74.5330  225.8170 C   0  0  0  0  0  0  0  0  0  0  0  0
  135.1500   75.2800  224.9400 C   0  0  0  0  0  0  0  0  0  0  0  0
  139.3600   71.4610  223.1280 C   0  0  0  0  0  0  0  0  0  0  0  0
  138.9110   70.1470  223.1010 C   0  0  0  0  0  0  0  0  0  0  0  0
  139.0950   69.2700  224.1380 C   0  0  0  0  0  0  0  0  0  0  0  0
  139.7570   69.7280  225.2510 C   0  0  0  0  0  0  0  0  0  0  0  0
  139.9440   68.8530  226.2930 C   0  0  0  0  0  0  0  0  0  0  0  0
  140.6060   69.3150  227.4050 C   0  0  0  0  0  0  0  0  0  0  0  0
  140.8670   68.2460  228.7470 Cl  0  0  0  0  0  0  0  0  0  0  0  0
  141.0700   70.6120  227.4770 C   0  0  0  0  0  0  0  0  0  0  0  0
  140.8700   71.4860  226.4070 C   0  0  0  0  0  0  0  0  0  0  0  0
  140.2080   71.0440  225.2820 C   0  0  0  0  0  0  0  0  0  0  0  0
  140.0010   71.8790  224.2260 N   0  0  0  0  0  0  0  0  0  0  0  0
  138.8860   74.1520  223.0960 H   0  0  0  0  0  0  0  0  0  0  0  0
  138.9874   75.4971  221.0767 H   0  0  0  0  0  0  0  0  0  0  0  0
  139.1777   73.9876  220.0974 H   0  0  0  0  0  0  0  0  0  0  0  0
  134.8660   76.0440  220.2535 H   0  0  0  0  0  0  0  0  0  0  0  0
  134.2221   74.8869  221.4329 H   0  0  0  0  0  0  0  0  0  0  0  0
  134.4543   77.7237  221.7607 H   0  0  0  0  0  0  0  0  0  0  0  0
  134.0204   76.6068  223.0293 H   0  0  0  0  0  0  0  0  0  0  0  0
  136.8288   77.5565  222.1677 H   0  0  0  0  0  0  0  0  0  0  0  0
  136.2322   77.5076  223.7922 H   0  0  0  0  0  0  0  0  0  0  0  0
  137.6381   75.3173  223.2468 H   0  0  0  0  0  0  0  0  0  0  0  0
  136.0937   72.8718  222.8033 H   0  0  0  0  0  0  0  0  0  0  0  0
  134.7257   71.5197  224.3518 H   0  0  0  0  0  0  0  0  0  0  0  0
  133.8946   75.0179  226.6768 H   0  0  0  0  0  0  0  0  0  0  0  0
  135.2597   76.3589  225.1239 H   0  0  0  0  0  0  0  0  0  0  0  0
  138.3821   69.7930  222.2038 H   0  0  0  0  0  0  0  0  0  0  0  0
  138.7255   68.2355  224.0810 H   0  0  0  0  0  0  0  0  0  0  0  0
  139.5764   67.8176  226.2392 H   0  0  0  0  0  0  0  0  0  0  0  0
  141.5979   70.9578  228.3780 H   0  0  0  0  0  0  0  0  0  0  0  0
  141.2385   72.5210  226.4615 H   0  0  0  0  0  0  0  0  0  0  0  0
  1  2  2  0
  2  3  1  0
  3  4  1  0
  4  5  1  0
  5  6  2  0
  5  7  1  0
  7  8  1  0
  8  9  1  0
  9 10  1  0
 10 11  1  0
 11 12  1  0
 12 13  2  0
 13 14  1  0
 14 15  2  0
 15 16  1  0
 15 17  1  0
 17 18  2  0
  2 19  1  0
 19 20  2  0
 20 21  1  0
 21 22  2  0
 22 23  1  0
 23 24  2  0
 24 25  1  0
 24 26  1  0
 26 27  2  0
 27 28  1  0
 28 29  2  0
 11  7  1  0
 18 12  1  0
 29 19  1  0
 28 22  1  0
  3 30  1  0
  4 31  1  0
  4 32  1  0
  8 33  1  0
  8 34  1  0
  9 35  1  0
  9 36  1  0
 10 37  1  0
 10 38  1  0
 11 39  1  1
 13 40  1  0
 14 41  1  0
 17 42  1  0
 18 43  1  0
 20 44  1  0
 21 45  1  0
 23 46  1  0
 26 47  1  0
 27 48  1  0
M  END
>  <smiles>  (65) 
O=C(NCC(=O)N1CCCC1c1ccc(Br)cc1)c1ccc2cc(Cl)ccc2n1

>  <score_type>  (65) 
oracle

>  <origin>  (65) 
autodockgpu

>  <m_score__min__energy>  (65) 
-8.7799999999999994

>  <m_primary>  (65) 
energy

>  <rmsd>  (65) 
3.6489863822951163

>  <m_score__min__rmsd>  (65) 
3.6489863822951163

>  <meeko>  (65) 
{"free_energy": -7.41, "intermolecular_energy": -8.91, "internal_energy": -1.81, "cluster_size": 2, "cluster_id": 5, "rank_in_cluster": 2}

>  <energy>  (65) 
-8.36

>  <cluster_rmsd>  (65) 
0.87

>  <cluster>  (65) 
1

$$$$

     RDKit          3D

 48 51  0  0  0  0  0  0  0  0999 V2000
  139.3220   71.3190  220.7450 O   0  0  0  0  0  0  0  0  0  0  0  0
  139.1050   71.9040  221.8480 C   0  0  0  0  0  0  0  0  0  0  0  0
  138.4060   73.1500  221.8350 N   0  0  0  0  0  0  0  0  0  0  0  0
  137.9980   73.6480  220.5350 C   0  0  0  0  0  0  0  0  0  0  0  0
  138.1040   75.1350  220.4690 C   0  0  0  0  0  0  0  0  0  0  0  0
  137.1960   75.8660  219.9990 O   0  0  0  0  0  0  0  0  0  0  0  0
  139.3020   75.7160  220.9710 N   0  0  0  0  0  0  0  0  0  0  0  0
  139.7350   75.8760  222.3520 C   0  0  0  0  0  0  0  0  0  0  0  0
  140.6750   77.0580  222.3650 C   0  0  0  0  0  0  0  0  0  0  0  0
  140.5220   77.6020  220.9600 C   0  0  0  0  0  0  0  0  0  0  0  0
  140.3990   76.3000  220.1850 C   0  0  1  0  0  0  0  0  0  0  0  0
  141.6350   75.4870  220.2650 C   0  0  0  0  0  0  0  0  0  0  0  0
  142.8670   76.0510  219.9540 C   0  0  0  0  0  0  0  0  0  0  0  0
  144.0440   75.3180  220.0190 C   0  0  0  0  0  0  0  0  0  0  0  0
  144.0250   74.0010  220.3960 C   0  0  0  0  0  0  0  0  0  0  0  0
  145.6040   72.9260  220.5100 Br  0  0  0  0  0  0  0  0  0  0  0  0
  142.8180   73.4130  220.7110 C   0  0  0  0  0  0  0  0  0  0  0  0
  141.6520   74.1590  220.6410 C   0  0  0  0  0  0  0  0  0  0  0  0
  139.5510   71.3320  223.1090 C   0  0  0  0  0  0  0  0  0  0  0  0
  140.5310   72.0030  223.8290 C   0  0  0  0  0  0  0  0  0  0  0  0
  141.0240   71.5540  225.0260 C   0  0  0  0  0  0  0  0  0  0  0  0
  140.5140   70.3790  225.5240 C   0  0  0  0  0  0  0  0  0  0  0  0
  141.0050   69.9240  226.7240 C   0  0  0  0  0  0  0  0  0  0  0  0
  140.4930   68.7490  227.2190 C   0  0  0  0  0  0  0  0  0  0  0  0
  141.0820   68.1330  228.7320 Cl  0  0  0  0  0  0  0  0  0  0  0  0
  139.5200   68.0470  226.5400 C   0  0  0  0  0  0  0  0  0  0  0  0
  139.0340   68.5260  225.3220 C   0  0  0  0  0  0  0  0  0  0  0  0
  139.5330   69.7030  224.8070 C   0  0  0  0  0  0  0  0  0  0  0  0
  139.0740   70.1890  223.6200 N   0  0  0  0  0  0  0  0  0  0  0  0
  138.2010   73.6770  222.7320 H   0  0  0  0  0  0  0  0  0  0  0  0
  138.6456   73.2075  219.7626 H   0  0  0  0  0  0  0  0  0  0  0  0
  136.9480   73.3660  220.3679 H   0  0  0  0  0  0  0  0  0  0  0  0
  138.8697   76.0699  223.0028 H   0  0  0  0  0  0  0  0  0  0  0  0
  140.2293   74.9668  222.7248 H   0  0  0  0  0  0  0  0  0  0  0  0
  140.3707   77.8017  223.1162 H   0  0  0  0  0  0  0  0  0  0  0  0
  141.7107   76.7964  222.6275 H   0  0  0  0  0  0  0  0  0  0  0  0
  139.6204   78.2240  220.8590 H   0  0  0  0  0  0  0  0  0  0  0  0
  141.3356   78.2637  220.6281 H   0  0  0  0  0  0  0  0  0  0  0  0
  140.2321   76.3882  219.1013 H   0  0  0  0  0  0  0  0  0  0  0  0
  142.9103   77.1067  219.6481 H   0  0  0  0  0  0  0  0  0  0  0  0
  145.0004   75.7988  219.7656 H   0  0  0  0  0  0  0  0  0  0  0  0
  142.7808   72.3569  221.0164 H   0  0  0  0  0  0  0  0  0  0  0  0
  140.6993   73.6719  220.8960 H   0  0  0  0  0  0  0  0  0  0  0  0
  140.9313   72.9415  223.4179 H   0  0  0  0  0  0  0  0  0  0  0  0
  141.7999   72.1138  225.5687 H   0  0  0  0  0  0  0  0  0  0  0  0
  141.7810   70.4811  227.2694 H   0  0  0  0  0  0  0  0  0  0  0  0
  139.1263   67.1088  226.9581 H   0  0  0  0  0  0  0  0  0  0  0  0
  138.2583   67.9679  224.7772 H   0  0  0  0  0  0  0  0  0  0  0  0
  1  2  2  0
  2  3  1  0
  3  4  1  0
  4  5  1  0
  5  6  2  0
  5  7  1  0
  7  8  1  0
  8  9  1  0
  9 10  1  0
 10 11  1  0
 11 12  1  0
 12 13  2  0
 13 14  1  0
 14 15  2  0
 15 16  1  0
 15 17  1  0
 17 18  2  0
  2 19  1  0
 19 20  2  0
 20 21  1  0
 21 22  2  0
 22 23  1  0
 23 24  2  0
 24 25  1  0
 24 26  1  0
 26 27  2  0
 27 28  1  0
 28 29  2  0
 11  7  1  0
 18 12  1  0
 29 19  1  0
 28 22  1  0
  3 30  1  0
  4 31  1  0
  4 32  1  0
  8 33  1  0
  8 34  1  0
  9 35  1  0
  9 36  1  0
 10 37  1  0
 10 38  1  0
 11 39  1  6
 13 40  1  0
 14 41  1  0
 17 42  1  0
 18 43  1  0
 20 44  1  0
 21 45  1  0
 23 46  1  0
 26 47  1  0
 27 48  1  0
M  END
>  <smiles>  (66) 
O=C(NCC(=O)N1CCCC1c1ccc(Br)cc1)c1ccc2cc(Cl)ccc2n1

>  <score_type>  (66) 
oracle

>  <origin>  (66) 
autodockgpu

>  <m_score__min__energy>  (66) 
-8.7799999999999994

>  <m_primary>  (66) 
energy

>  <rmsd>  (66) 
3.158393450086871

>  <m_score__min__rmsd>  (66) 
3.158393450086871

>  <meeko>  (66) 
{"free_energy": -8.26, "intermolecular_energy": -9.76, "internal_energy": -1.74, "cluster_size": 28, "cluster_id": 1, "rank_in_cluster": 16}

>  <energy>  (66) 
-8.26

>  <cluster_rmsd>  (66) 
0.85

>  <cluster>  (66) 
1

$$$$

     RDKit          3D

 48 51  0  0  0  0  0  0  0  0999 V2000
  137.6550   70.8040  221.1140 O   0  0  0  0  0  0  0  0  0  0  0  0
  137.9860   71.4150  222.1740 C   0  0  0  0  0  0  0  0  0  0  0  0
  137.8100   72.8320  222.2300 N   0  0  0  0  0  0  0  0  0  0  0  0
  137.2560   73.4610  221.0460 C   0  0  0  0  0  0  0  0  0  0  0  0
  138.3330   73.8760  220.1010 C   0  0  0  0  0  0  0  0  0  0  0  0
  138.3840   73.4860  218.9070 O   0  0  0  0  0  0  0  0  0  0  0  0
  139.3310   74.7540  220.6100 N   0  0  0  0  0  0  0  0  0  0  0  0
  139.5900   75.1460  221.9880 C   0  0  0  0  0  0  0  0  0  0  0  0
  140.2560   76.5000  221.9230 C   0  0  0  0  0  0  0  0  0  0  0  0
  140.1240   76.8500  220.4550 C   0  0  0  0  0  0  0  0  0  0  0  0
  140.3480   75.4790  219.8360 C   0  0  1  0  0  0  0  0  0  0  0  0
  141.7150   74.9690  220.0980 C   0  0  0  0  0  0  0  0  0  0  0  0
  142.8220   75.7770  219.8670 C   0  0  0  0  0  0  0  0  0  0  0  0
  144.1150   75.3300  220.1020 C   0  0  0  0  0  0  0  0  0  0  0  0
  144.3400   74.0640  220.5750 C   0  0  0  0  0  0  0  0  0  0  0  0
  146.0920   73.3780  220.9240 Br  0  0  0  0  0  0  0  0  0  0  0  0
  143.2620   73.2380  220.8140 C   0  0  0  0  0  0  0  0  0  0  0  0
  141.9770   73.7000  220.5730 C   0  0  0  0  0  0  0  0  0  0  0  0
  138.5370   70.7040  223.3170 C   0  0  0  0  0  0  0  0  0  0  0  0
  138.3350   69.3320  223.4010 C   0  0  0  0  0  0  0  0  0  0  0  0
  138.8090   68.5650  224.4330 C   0  0  0  0  0  0  0  0  0  0  0  0
  139.5160   69.1990  225.4260 C   0  0  0  0  0  0  0  0  0  0  0  0
  139.9940   68.4350  226.4620 C   0  0  0  0  0  0  0  0  0  0  0  0
  140.7000   69.0730  227.4540 C   0  0  0  0  0  0  0  0  0  0  0  0
  141.3230   68.1500  228.7850 Cl  0  0  0  0  0  0  0  0  0  0  0  0
  140.9250   70.4320  227.4140 C   0  0  0  0  0  0  0  0  0  0  0  0
  140.4310   71.1920  226.3520 C   0  0  0  0  0  0  0  0  0  0  0  0
  139.7200   70.5730  225.3470 C   0  0  0  0  0  0  0  0  0  0  0  0
  139.2290   71.2940  224.3000 N   0  0  0  0  0  0  0  0  0  0  0  0
  138.0720   73.3870  223.0940 H   0  0  0  0  0  0  0  0  0  0  0  0
  136.5895   72.7475  220.5393 H   0  0  0  0  0  0  0  0  0  0  0  0
  136.7003   74.3582  221.3562 H   0  0  0  0  0  0  0  0  0  0  0  0
  138.6464   75.2118  222.5495 H   0  0  0  0  0  0  0  0  0  0  0  0
  140.2269   74.4103  222.5010 H   0  0  0  0  0  0  0  0  0  0  0  0
  139.7339   77.2323  222.5563 H   0  0  0  0  0  0  0  0  0  0  0  0
  141.2945   76.4997  222.2857 H   0  0  0  0  0  0  0  0  0  0  0  0
  139.1258   77.2468  220.2180 H   0  0  0  0  0  0  0  0  0  0  0  0
  140.8088   77.6353  220.1023 H   0  0  0  0  0  0  0  0  0  0  0  0
  140.2664   75.4159  218.7408 H   0  0  0  0  0  0  0  0  0  0  0  0
  142.6694   76.7982  219.4877 H   0  0  0  0  0  0  0  0  0  0  0  0
  144.9667   75.9982  219.9067 H   0  0  0  0  0  0  0  0  0  0  0  0
  143.4206   72.2179  221.1938 H   0  0  0  0  0  0  0  0  0  0  0  0
  141.1300   73.0260  220.7688 H   0  0  0  0  0  0  0  0  0  0  0  0
  137.7667   68.8371  222.5997 H   0  0  0  0  0  0  0  0  0  0  0  0
  138.6298   67.4802  224.4652 H   0  0  0  0  0  0  0  0  0  0  0  0
  139.8180   67.3497  226.4969 H   0  0  0  0  0  0  0  0  0  0  0  0
  141.4944   70.9185  228.2196 H   0  0  0  0  0  0  0  0  0  0  0  0
  140.6081   72.2771  226.3179 H   0  0  0  0  0  0  0  0  0  0  0  0
  1  2  2  0
  2  3  1  0
  3  4  1  0
  4  5  1  0
  5  6  2  0
  5  7  1  0
  7  8  1  0
  8  9  1  0
  9 10  1  0
 10 11  1  0
 11 12  1  0
 12 13  2  0
 13 14  1  0
 14 15  2  0
 15 16  1  0
 15 17  1  0
 17 18  2  0
  2 19  1  0
 19 20  2  0
 20 21  1  0
 21 22  2  0
 22 23  1  0
 23 24  2  0
 24 25  1  0
 24 26  1  0
 26 27  2  0
 27 28  1  0
 28 29  2  0
 11  7  1  0
 18 12  1  0
 29 19  1  0
 28 22  1  0
  3 30  1  0
  4 31  1  0
  4 32  1  0
  8 33  1  0
  8 34  1  0
  9 35  1  0
  9 36  1  0
 10 37  1  0
 10 38  1  0
 11 39  1  6
 13 40  1  0
 14 41  1  0
 17 42  1  0
 18 43  1  0
 20 44  1  0
 21 45  1  0
 23 46  1  0
 26 47  1  0
 27 48  1  0
M  END
>  <smiles>  (67) 
O=C(NCC(=O)N1CCCC1c1ccc(Br)cc1)c1ccc2cc(Cl)ccc2n1

>  <score_type>  (67) 
oracle

>  <origin>  (67) 
autodockgpu

>  <m_score__min__energy>  (67) 
-8.7799999999999994

>  <m_primary>  (67) 
energy

>  <rmsd>  (67) 
2.1618418194967024

>  <m_score__min__rmsd>  (67) 
2.1618418194967024

>  <meeko>  (67) 
{"free_energy": -8.12, "intermolecular_energy": -9.61, "internal_energy": -1.54, "cluster_size": 28, "cluster_id": 1, "rank_in_cluster": 25}

>  <energy>  (67) 
-8.26

>  <cluster_rmsd>  (67) 
0.84

>  <cluster>  (67) 
1

$$$$

     RDKit          3D

 48 51  0  0  0  0  0  0  0  0999 V2000
  139.5660   71.8340  220.9060 O   0  0  0  0  0  0  0  0  0  0  0  0
  139.6110   72.3110  222.0790 C   0  0  0  0  0  0  0  0  0  0  0  0
  139.4770   73.7230  222.2480 N   0  0  0  0  0  0  0  0  0  0  0  0
  139.2990   74.5050  221.0390 C   0  0  0  0  0  0  0  0  0  0  0  0
  138.0390   75.3010  221.0920 C   0  0  0  0  0  0  0  0  0  0  0  0
  136.9110   74.7870  221.2970 O   0  0  0  0  0  0  0  0  0  0  0  0
  138.1590   76.7060  220.8960 N   0  0  0  0  0  0  0  0  0  0  0  0
  137.3050   77.7770  221.3900 C   0  0  0  0  0  0  0  0  0  0  0  0
  137.4640   78.9240  220.4200 C   0  0  0  0  0  0  0  0  0  0  0  0
  138.2770   78.2930  219.3100 C   0  0  0  0  0  0  0  0  0  0  0  0
  139.2010   77.4060  220.1310 C   0  0  1  0  0  0  0  0  0  0  0  0
  140.0970   78.1980  221.0070 C   0  0  0  0  0  0  0  0  0  0  0  0
  140.4090   77.7450  222.2830 C   0  0  0  0  0  0  0  0  0  0  0  0
  141.2450   78.4620  223.1290 C   0  0  0  0  0  0  0  0  0  0  0  0
  141.7920   79.6520  222.7240 C   0  0  0  0  0  0  0  0  0  0  0  0
  142.9520   80.6960  223.8320 Br  0  0  0  0  0  0  0  0  0  0  0  0
  141.5000   80.1270  221.4630 C   0  0  0  0  0  0  0  0  0  0  0  0
  140.6640   79.3990  220.6320 C   0  0  0  0  0  0  0  0  0  0  0  0
  139.7950   71.4520  223.2390 C   0  0  0  0  0  0  0  0  0  0  0  0
  139.4360   70.1140  223.1340 C   0  0  0  0  0  0  0  0  0  0  0  0
  139.5670   69.2190  224.1630 C   0  0  0  0  0  0  0  0  0  0  0  0
  140.0780   69.6830  225.3510 C   0  0  0  0  0  0  0  0  0  0  0  0
  140.2120   68.7890  226.3850 C   0  0  0  0  0  0  0  0  0  0  0  0
  140.7240   69.2570  227.5720 C   0  0  0  0  0  0  0  0  0  0  0  0
  140.9110   68.1660  228.9080 Cl  0  0  0  0  0  0  0  0  0  0  0  0
  141.0940   70.5760  227.7230 C   0  0  0  0  0  0  0  0  0  0  0  0
  140.9510   71.4700  226.6590 C   0  0  0  0  0  0  0  0  0  0  0  0
  140.4390   71.0220  225.4610 C   0  0  0  0  0  0  0  0  0  0  0  0
  140.2910   71.8750  224.4090 N   0  0  0  0  0  0  0  0  0  0  0  0
  139.5080   74.1700  223.2100 H   0  0  0  0  0  0  0  0  0  0  0  0
  140.1519   75.1904  220.9262 H   0  0  0  0  0  0  0  0  0  0  0  0
  139.2397   73.8156  220.1839 H   0  0  0  0  0  0  0  0  0  0  0  0
  136.2565   77.4456  221.4201 H   0  0  0  0  0  0  0  0  0  0  0  0
  137.5849   78.0741  222.4115 H   0  0  0  0  0  0  0  0  0  0  0  0
  136.4881   79.2726  220.0511 H   0  0  0  0  0  0  0  0  0  0  0  0
  137.9357   79.8141  220.8619 H   0  0  0  0  0  0  0  0  0  0  0  0
  137.6472   77.7046  218.6265 H   0  0  0  0  0  0  0  0  0  0  0  0
  138.7881   79.0065  218.6469 H   0  0  0  0  0  0  0  0  0  0  0  0
  139.9028   76.7738  219.5673 H   0  0  0  0  0  0  0  0  0  0  0  0
  139.9825   76.7931  222.6324 H   0  0  0  0  0  0  0  0  0  0  0  0
  141.4701   78.0718  224.1325 H   0  0  0  0  0  0  0  0  0  0  0  0
  141.9288   81.0795  221.1183 H   0  0  0  0  0  0  0  0  0  0  0  0
  140.4426   79.7954  219.6301 H   0  0  0  0  0  0  0  0  0  0  0  0
  139.0266   69.7557  222.1780 H   0  0  0  0  0  0  0  0  0  0  0  0
  139.2734   68.1658  224.0423 H   0  0  0  0  0  0  0  0  0  0  0  0
  139.9198   67.7351  226.2675 H   0  0  0  0  0  0  0  0  0  0  0  0
  141.5025   70.9254  228.6827 H   0  0  0  0  0  0  0  0  0  0  0  0
  141.2449   72.5234  226.7768 H   0  0  0  0  0  0  0  0  0  0  0  0
  1  2  2  0
  2  3  1  0
  3  4  1  0
  4  5  1  0
  5  6  2  0
  5  7  1  0
  7  8  1  0
  8  9  1  0
  9 10  1  0
 10 11  1  0
 11 12  1  0
 12 13  2  0
 13 14  1  0
 14 15  2  0
 15 16  1  0
 15 17  1  0
 17 18  2  0
  2 19  1  0
 19 20  2  0
 20 21  1  0
 21 22  2  0
 22 23  1  0
 23 24  2  0
 24 25  1  0
 24 26  1  0
 26 27  2  0
 27 28  1  0
 28 29  2  0
 11  7  1  0
 18 12  1  0
 29 19  1  0
 28 22  1  0
  3 30  1  0
  4 31  1  0
  4 32  1  0
  8 33  1  0
  8 34  1  0
  9 35  1  0
  9 36  1  0
 10 37  1  0
 10 38  1  0
 11 39  1  6
 13 40  1  0
 14 41  1  0
 17 42  1  0
 18 43  1  0
 20 44  1  0
 21 45  1  0
 23 46  1  0
 26 47  1  0
 27 48  1  0
M  END
>  <smiles>  (68) 
O=C(NCC(=O)N1CCCC1c1ccc(Br)cc1)c1ccc2cc(Cl)ccc2n1

>  <score_type>  (68) 
oracle

>  <origin>  (68) 
autodockgpu

>  <m_score__min__energy>  (68) 
-8.7799999999999994

>  <m_primary>  (68) 
energy

>  <rmsd>  (68) 
2.4496700809243053

>  <m_score__min__rmsd>  (68) 
2.4496700809243053

>  <meeko>  (68) 
{"free_energy": -8.07, "intermolecular_energy": -9.56, "internal_energy": -1.35, "cluster_size": 16, "cluster_id": 2, "rank_in_cluster": 14}

>  <energy>  (68) 
-8.24

>  <cluster_rmsd>  (68) 
1.17

>  <cluster>  (68) 
1

$$$$

     RDKit          3D

 48 51  0  0  0  0  0  0  0  0999 V2000
  139.2660   71.6040  220.5850 O   0  0  0  0  0  0  0  0  0  0  0  0
  139.0520   72.0820  221.7400 C   0  0  0  0  0  0  0  0  0  0  0  0
  138.5020   73.3970  221.8440 N   0  0  0  0  0  0  0  0  0  0  0  0
  138.2310   74.0840  220.5950 C   0  0  0  0  0  0  0  0  0  0  0  0
  138.2220   75.5640  220.7840 C   0  0  0  0  0  0  0  0  0  0  0  0
  137.1920   76.2680  220.6330 O   0  0  0  0  0  0  0  0  0  0  0  0
  139.4560   76.1710  221.1520 N   0  0  0  0  0  0  0  0  0  0  0  0
  139.9840   76.4420  222.4820 C   0  0  0  0  0  0  0  0  0  0  0  0
  140.9300   77.6100  222.3300 C   0  0  0  0  0  0  0  0  0  0  0  0
  140.6850   78.0340  220.8970 C   0  0  0  0  0  0  0  0  0  0  0  0
  140.5000   76.6720  220.2460 C   0  0  1  0  0  0  0  0  0  0  0  0
  141.7330   75.8540  220.3120 C   0  0  0  0  0  0  0  0  0  0  0  0
  141.6820   74.5440  220.7750 C   0  0  0  0  0  0  0  0  0  0  0  0
  142.8190   73.7500  220.8490 C   0  0  0  0  0  0  0  0  0  0  0  0
  144.0380   74.2410  220.4630 C   0  0  0  0  0  0  0  0  0  0  0  0
  145.6470   73.2080  220.5360 Br  0  0  0  0  0  0  0  0  0  0  0  0
  144.1210   75.5360  219.9980 C   0  0  0  0  0  0  0  0  0  0  0  0
  142.9770   76.3160  219.9320 C   0  0  0  0  0  0  0  0  0  0  0  0
  139.3560   71.3220  222.9420 C   0  0  0  0  0  0  0  0  0  0  0  0
  139.0000   69.9790  222.9820 C   0  0  0  0  0  0  0  0  0  0  0  0
  139.2380   69.1720  224.0630 C   0  0  0  0  0  0  0  0  0  0  0  0
  139.8590   69.7320  225.1530 C   0  0  0  0  0  0  0  0  0  0  0  0
  140.1000   68.9260  226.2390 C   0  0  0  0  0  0  0  0  0  0  0  0
  140.7210   69.4900  227.3270 C   0  0  0  0  0  0  0  0  0  0  0  0
  141.0470   68.5120  228.7240 Cl  0  0  0  0  0  0  0  0  0  0  0  0
  141.0930   70.8180  227.3330 C   0  0  0  0  0  0  0  0  0  0  0  0
  140.8390   71.6210  226.2200 C   0  0  0  0  0  0  0  0  0  0  0  0
  140.2170   71.0760  225.1170 C   0  0  0  0  0  0  0  0  0  0  0  0
  139.9590   71.8400  224.0190 N   0  0  0  0  0  0  0  0  0  0  0  0
  138.3050   73.8400  222.7870 H   0  0  0  0  0  0  0  0  0  0  0  0
  139.0098   73.8204  219.8642 H   0  0  0  0  0  0  0  0  0  0  0  0
  137.2394   73.7729  220.2345 H   0  0  0  0  0  0  0  0  0  0  0  0
  139.1667   76.7005  223.1713 H   0  0  0  0  0  0  0  0  0  0  0  0
  140.4972   75.5618  222.8965 H   0  0  0  0  0  0  0  0  0  0  0  0
  140.6820   78.4186  223.0334 H   0  0  0  0  0  0  0  0  0  0  0  0
  141.9796   77.3595  222.5436 H   0  0  0  0  0  0  0  0  0  0  0  0
  139.7830   78.6567  220.8041 H   0  0  0  0  0  0  0  0  0  0  0  0
  141.4788   78.6544  220.4554 H   0  0  0  0  0  0  0  0  0  0  0  0
  140.2594   76.6695  219.1726 H   0  0  0  0  0  0  0  0  0  0  0  0
  140.7152   74.1253  221.0911 H   0  0  0  0  0  0  0  0  0  0  0  0
  142.7399   72.7178  221.2209 H   0  0  0  0  0  0  0  0  0  0  0  0
  145.0902   75.9484  219.6809 H   0  0  0  0  0  0  0  0  0  0  0  0
  143.0643   77.3478  219.5608 H   0  0  0  0  0  0  0  0  0  0  0  0
  138.5030   69.5430  222.1029 H   0  0  0  0  0  0  0  0  0  0  0  0
  138.9422   68.1125  224.0585 H   0  0  0  0  0  0  0  0  0  0  0  0
  139.8060   67.8660  226.2375 H   0  0  0  0  0  0  0  0  0  0  0  0
  141.5906   71.2450  228.2162 H   0  0  0  0  0  0  0  0  0  0  0  0
  141.1330   72.6810  226.2229 H   0  0  0  0  0  0  0  0  0  0  0  0
  1  2  2  0
  2  3  1  0
  3  4  1  0
  4  5  1  0
  5  6  2  0
  5  7  1  0
  7  8  1  0
  8  9  1  0
  9 10  1  0
 10 11  1  0
 11 12  1  0
 12 13  2  0
 13 14  1  0
 14 15  2  0
 15 16  1  0
 15 17  1  0
 17 18  2  0
  2 19  1  0
 19 20  2  0
 20 21  1  0
 21 22  2  0
 22 23  1  0
 23 24  2  0
 24 25  1  0
 24 26  1  0
 26 27  2  0
 27 28  1  0
 28 29  2  0
 11  7  1  0
 18 12  1  0
 29 19  1  0
 28 22  1  0
  3 30  1  0
  4 31  1  0
  4 32  1  0
  8 33  1  0
  8 34  1  0
  9 35  1  0
  9 36  1  0
 10 37  1  0
 10 38  1  0
 11 39  1  6
 13 40  1  0
 14 41  1  0
 17 42  1  0
 18 43  1  0
 20 44  1  0
 21 45  1  0
 23 46  1  0
 26 47  1  0
 27 48  1  0
M  END
>  <smiles>  (69) 
O=C(NCC(=O)N1CCCC1c1ccc(Br)cc1)c1ccc2cc(Cl)ccc2n1

>  <score_type>  (69) 
oracle

>  <origin>  (69) 
autodockgpu

>  <m_score__min__energy>  (69) 
-8.7799999999999994

>  <m_primary>  (69) 
energy

>  <rmsd>  (69) 
2.3858748548682813

>  <m_score__min__rmsd>  (69) 
2.3858748548682813

>  <meeko>  (69) 
{"free_energy": -8.49, "intermolecular_energy": -9.98, "internal_energy": -1.67, "cluster_size": 28, "cluster_id": 1, "rank_in_cluster": 12}

>  <energy>  (69) 
-8.22

>  <cluster_rmsd>  (69) 
0.58

>  <cluster>  (69) 
1

$$$$

     RDKit          3D

 48 51  0  0  0  0  0  0  0  0999 V2000
  138.4660   71.9850  221.2020 O   0  0  0  0  0  0  0  0  0  0  0  0
  138.0070   72.1560  222.3720 C   0  0  0  0  0  0  0  0  0  0  0  0
  137.0260   73.1740  222.5790 N   0  0  0  0  0  0  0  0  0  0  0  0
  136.6330   73.9390  221.4120 C   0  0  0  0  0  0  0  0  0  0  0  0
  137.0100   75.3750  221.5540 C   0  0  0  0  0  0  0  0  0  0  0  0
  136.2180   76.2530  221.9810 O   0  0  0  0  0  0  0  0  0  0  0  0
  138.3370   75.7300  221.1810 N   0  0  0  0  0  0  0  0  0  0  0  0
  138.8260   76.2420  219.9090 C   0  0  0  0  0  0  0  0  0  0  0  0
  140.2800   75.8440  219.8250 C   0  0  0  0  0  0  0  0  0  0  0  0
  140.4310   74.9310  221.0230 C   0  0  0  0  0  0  0  0  0  0  0  0
  139.5410   75.6560  222.0210 C   0  0  1  0  0  0  0  0  0  0  0  0
  140.0670   77.0000  222.3580 C   0  0  0  0  0  0  0  0  0  0  0  0
  139.2130   77.9870  222.8390 C   0  0  0  0  0  0  0  0  0  0  0  0
  139.6730   79.2560  223.1650 C   0  0  0  0  0  0  0  0  0  0  0  0
  140.9970   79.5760  223.0200 C   0  0  0  0  0  0  0  0  0  0  0  0
  141.7060   81.3010  223.4480 Br  0  0  0  0  0  0  0  0  0  0  0  0
  141.8690   78.6180  222.5460 C   0  0  0  0  0  0  0  0  0  0  0  0
  141.3930   77.3560  222.2250 C   0  0  0  0  0  0  0  0  0  0  0  0
  138.4600   71.3420  223.4890 C   0  0  0  0  0  0  0  0  0  0  0  0
  137.7210   70.2160  223.8290 C   0  0  0  0  0  0  0  0  0  0  0  0
  138.0570   69.3810  224.8620 C   0  0  0  0  0  0  0  0  0  0  0  0
  139.1830   69.6860  225.5880 C   0  0  0  0  0  0  0  0  0  0  0  0
  139.5240   68.8510  226.6240 C   0  0  0  0  0  0  0  0  0  0  0  0
  140.6510   69.1600  227.3490 C   0  0  0  0  0  0  0  0  0  0  0  0
  141.1230   68.1360  228.6680 Cl  0  0  0  0  0  0  0  0  0  0  0  0
  141.4160   70.2670  227.0490 C   0  0  0  0  0  0  0  0  0  0  0  0
  141.0520   71.1030  225.9910 C   0  0  0  0  0  0  0  0  0  0  0  0
  139.9270   70.8130  225.2520 C   0  0  0  0  0  0  0  0  0  0  0  0
  139.5530   71.6140  224.2150 N   0  0  0  0  0  0  0  0  0  0  0  0
  136.6130   73.3550  223.5390 H   0  0  0  0  0  0  0  0  0  0  0  0
  137.1337   73.5229  220.5254 H   0  0  0  0  0  0  0  0  0  0  0  0
  135.5399   73.8755  221.3069 H   0  0  0  0  0  0  0  0  0  0  0  0
  138.2605   75.7979  219.0766 H   0  0  0  0  0  0  0  0  0  0  0  0
  138.7050   77.3333  219.8433 H   0  0  0  0  0  0  0  0  0  0  0  0
  140.4939   75.3103  218.8872 H   0  0  0  0  0  0  0  0  0  0  0  0
  140.9728   76.6984  219.8307 H   0  0  0  0  0  0  0  0  0  0  0  0
  140.0644   73.9157  220.8114 H   0  0  0  0  0  0  0  0  0  0  0  0
  141.4670   74.7715  221.3564 H   0  0  0  0  0  0  0  0  0  0  0  0
  139.4218   75.1824  223.0067 H   0  0  0  0  0  0  0  0  0  0  0  0
  138.1448   77.7561  222.9645 H   0  0  0  0  0  0  0  0  0  0  0  0
  138.9679   80.0110  223.5430 H   0  0  0  0  0  0  0  0  0  0  0  0
  142.9364   78.8541  222.4234 H   0  0  0  0  0  0  0  0  0  0  0  0
  142.1038   76.6060  221.8478 H   0  0  0  0  0  0  0  0  0  0  0  0
  136.8217   69.9833  223.2398 H   0  0  0  0  0  0  0  0  0  0  0  0
  137.4469   68.4976  225.1017 H   0  0  0  0  0  0  0  0  0  0  0  0
  138.9168   67.9661  226.8653 H   0  0  0  0  0  0  0  0  0  0  0  0
  142.3138   70.4920  227.6434 H   0  0  0  0  0  0  0  0  0  0  0  0
  141.6601   71.9873  225.7497 H   0  0  0  0  0  0  0  0  0  0  0  0
  1  2  2  0
  2  3  1  0
  3  4  1  0
  4  5  1  0
  5  6  2  0
  5  7  1  0
  7  8  1  0
  8  9  1  0
  9 10  1  0
 10 11  1  0
 11 12  1  0
 12 13  2  0
 13 14  1  0
 14 15  2  0
 15 16  1  0
 15 17  1  0
 17 18  2  0
  2 19  1  0
 19 20  2  0
 20 21  1  0
 21 22  2  0
 22 23  1  0
 23 24  2  0
 24 25  1  0
 24 26  1  0
 26 27  2  0
 27 28  1  0
 28 29  2  0
 11  7  1  0
 18 12  1  0
 29 19  1  0
 28 22  1  0
  3 30  1  0
  4 31  1  0
  4 32  1  0
  8 33  1  0
  8 34  1  0
  9 35  1  0
  9 36  1  0
 10 37  1  0
 10 38  1  0
 11 39  1  1
 13 40  1  0
 14 41  1  0
 17 42  1  0
 18 43  1  0
 20 44  1  0
 21 45  1  0
 23 46  1  0
 26 47  1  0
 27 48  1  0
M  END
>  <smiles>  (70) 
O=C(NCC(=O)N1CCCC1c1ccc(Br)cc1)c1ccc2cc(Cl)ccc2n1

>  <score_type>  (70) 
oracle

>  <origin>  (70) 
autodockgpu

>  <m_score__min__energy>  (70) 
-8.7799999999999994

>  <m_primary>  (70) 
energy

>  <rmsd>  (70) 
2.196249254068077

>  <m_score__min__rmsd>  (70) 
2.196249254068077

>  <meeko>  (70) 
{"free_energy": -7.74, "intermolecular_energy": -9.23, "internal_energy": -1.46, "cluster_size": 3, "cluster_id": 3, "rank_in_cluster": 3}

>  <energy>  (70) 
-8.19

>  <cluster_rmsd>  (70) 
1.02

>  <cluster>  (70) 
1

$$$$

     RDKit          3D

 48 51  0  0  0  0  0  0  0  0999 V2000
  140.0040   74.0760  222.0430 O   0  0  0  0  0  0  0  0  0  0  0  0
  140.3410   72.8580  221.9400 C   0  0  0  0  0  0  0  0  0  0  0  0
  140.7980   72.3800  220.6740 N   0  0  0  0  0  0  0  0  0  0  0  0
  140.8370   73.3470  219.5940 C   0  0  0  0  0  0  0  0  0  0  0  0
  141.9750   74.2970  219.7610 C   0  0  0  0  0  0  0  0  0  0  0  0
  143.1160   73.9390  220.1470 O   0  0  0  0  0  0  0  0  0  0  0  0
  141.7190   75.6650  219.4600 N   0  0  0  0  0  0  0  0  0  0  0  0
  140.6890   76.2380  218.6050 C   0  0  0  0  0  0  0  0  0  0  0  0
  141.2290   77.5650  218.1260 C   0  0  0  0  0  0  0  0  0  0  0  0
  142.6600   77.5230  218.6190 C   0  0  0  0  0  0  0  0  0  0  0  0
  142.4580   76.8330  219.9590 C   0  0  1  0  0  0  0  0  0  0  0  0
  141.6430   77.6520  220.8870 C   0  0  0  0  0  0  0  0  0  0  0  0
  141.7950   79.0330  220.9210 C   0  0  0  0  0  0  0  0  0  0  0  0
  141.0470   79.8300  221.7780 C   0  0  0  0  0  0  0  0  0  0  0  0
  140.1270   79.2700  222.6250 C   0  0  0  0  0  0  0  0  0  0  0  0
  139.0600   80.3010  223.8330 Br  0  0  0  0  0  0  0  0  0  0  0  0
  139.9540   77.9020  222.6140 C   0  0  0  0  0  0  0  0  0  0  0  0
  140.7090   77.1220  221.7530 C   0  0  0  0  0  0  0  0  0  0  0  0
  140.2690   71.9540  223.0780 C   0  0  0  0  0  0  0  0  0  0  0  0
  139.7070   70.6980  222.8890 C   0  0  0  0  0  0  0  0  0  0  0  0
  139.5900   69.7700  223.8910 C   0  0  0  0  0  0  0  0  0  0  0  0
  140.0530   70.1150  225.1370 C   0  0  0  0  0  0  0  0  0  0  0  0
  139.9370   69.1880  226.1440 C   0  0  0  0  0  0  0  0  0  0  0  0
  140.4010   69.5370  227.3900 C   0  0  0  0  0  0  0  0  0  0  0  0
  140.2770   68.4000  228.6950 Cl  0  0  0  0  0  0  0  0  0  0  0  0
  140.9660   70.7730  227.6250 C   0  0  0  0  0  0  0  0  0  0  0  0
  141.0750   71.7010  226.5880 C   0  0  0  0  0  0  0  0  0  0  0  0
  140.6150   71.3720  225.3310 C   0  0  0  0  0  0  0  0  0  0  0  0
  140.7110   72.2620  224.3040 N   0  0  0  0  0  0  0  0  0  0  0  0
  141.0900   71.3690  220.5380 H   0  0  0  0  0  0  0  0  0  0  0  0
  140.9521   72.8136  218.6389 H   0  0  0  0  0  0  0  0  0  0  0  0
  139.8990   73.9215  219.6069 H   0  0  0  0  0  0  0  0  0  0  0  0
  140.4916   75.5754  217.7494 H   0  0  0  0  0  0  0  0  0  0  0  0
  139.7410   76.3637  219.1486 H   0  0  0  0  0  0  0  0  0  0  0  0
  141.1867   77.6407  217.0294 H   0  0  0  0  0  0  0  0  0  0  0  0
  140.6603   78.4322  218.4928 H   0  0  0  0  0  0  0  0  0  0  0  0
  143.3051   76.9345  217.9500 H   0  0  0  0  0  0  0  0  0  0  0  0
  143.1603   78.5012  218.6725 H   0  0  0  0  0  0  0  0  0  0  0  0
  143.3651   76.6244  220.5452 H   0  0  0  0  0  0  0  0  0  0  0  0
  142.5273   79.5076  220.2513 H   0  0  0  0  0  0  0  0  0  0  0  0
  141.1944   80.9201  221.7767 H   0  0  0  0  0  0  0  0  0  0  0  0
  139.2202   77.4323  223.2855 H   0  0  0  0  0  0  0  0  0  0  0  0
  140.5570   76.0326  221.7603 H   0  0  0  0  0  0  0  0  0  0  0  0
  139.3379   70.4352  221.8866 H   0  0  0  0  0  0  0  0  0  0  0  0
  139.1410   68.7835  223.7036 H   0  0  0  0  0  0  0  0  0  0  0  0
  139.4884   68.2007  225.9597 H   0  0  0  0  0  0  0  0  0  0  0  0
  141.3312   71.0278  228.6308 H   0  0  0  0  0  0  0  0  0  0  0  0
  141.5247   72.6877  226.7726 H   0  0  0  0  0  0  0  0  0  0  0  0
  1  2  2  0
  2  3  1  0
  3  4  1  0
  4  5  1  0
  5  6  2  0
  5  7  1  0
  7  8  1  0
  8  9  1  0
  9 10  1  0
 10 11  1  0
 11 12  1  0
 12 13  2  0
 13 14  1  0
 14 15  2  0
 15 16  1  0
 15 17  1  0
 17 18  2  0
  2 19  1  0
 19 20  2  0
 20 21  1  0
 21 22  2  0
 22 23  1  0
 23 24  2  0
 24 25  1  0
 24 26  1  0
 26 27  2  0
 27 28  1  0
 28 29  2  0
 11  7  1  0
 18 12  1  0
 29 19  1  0
 28 22  1  0
  3 30  1  0
  4 31  1  0
  4 32  1  0
  8 33  1  0
  8 34  1  0
  9 35  1  0
  9 36  1  0
 10 37  1  0
 10 38  1  0
 11 39  1  1
 13 40  1  0
 14 41  1  0
 17 42  1  0
 18 43  1  0
 20 44  1  0
 21 45  1  0
 23 46  1  0
 26 47  1  0
 27 48  1  0
M  END
>  <smiles>  (71) 
O=C(NCC(=O)N1CCCC1c1ccc(Br)cc1)c1ccc2cc(Cl)ccc2n1

>  <score_type>  (71) 
oracle

>  <origin>  (71) 
autodockgpu

>  <m_score__min__energy>  (71) 
-8.7799999999999994

>  <m_primary>  (71) 
energy

>  <rmsd>  (71) 
2.0785616866654886

>  <m_score__min__rmsd>  (71) 
2.0785616866654886

>  <meeko>  (71) 
{"free_energy": -8.22, "intermolecular_energy": -9.71, "internal_energy": -1.45, "cluster_size": 16, "cluster_id": 2, "rank_in_cluster": 7}

>  <energy>  (71) 
-8.19

>  <cluster_rmsd>  (71) 
0.91

>  <cluster>  (71) 
1

$$$$

     RDKit          3D

 48 51  0  0  0  0  0  0  0  0999 V2000
  137.7200   72.3410  220.7670 O   0  0  0  0  0  0  0  0  0  0  0  0
  138.3250   72.7010  221.8220 C   0  0  0  0  0  0  0  0  0  0  0  0
  138.6140   74.0890  222.0040 N   0  0  0  0  0  0  0  0  0  0  0  0
  138.1830   74.9830  220.9450 C   0  0  0  0  0  0  0  0  0  0  0  0
  138.3560   76.4100  221.3400 C   0  0  0  0  0  0  0  0  0  0  0  0
  137.3980   77.1480  221.6840 O   0  0  0  0  0  0  0  0  0  0  0  0
  139.6820   76.9270  221.3140 N   0  0  0  0  0  0  0  0  0  0  0  0
  140.4810   77.4600  222.4090 C   0  0  0  0  0  0  0  0  0  0  0  0
  141.4670   78.4170  221.7850 C   0  0  0  0  0  0  0  0  0  0  0  0
  140.9800   78.4890  220.3530 C   0  0  0  0  0  0  0  0  0  0  0  0
  140.5640   77.0410  220.1430 C   0  0  1  0  0  0  0  0  0  0  0  0
  141.7170   76.1150  220.2230 C   0  0  0  0  0  0  0  0  0  0  0  0
  142.9580   76.4940  219.7230 C   0  0  0  0  0  0  0  0  0  0  0  0
  144.0590   75.6510  219.7820 C   0  0  0  0  0  0  0  0  0  0  0  0
  143.9530   74.4060  220.3430 C   0  0  0  0  0  0  0  0  0  0  0  0
  145.4250   73.1880  220.4610 Br  0  0  0  0  0  0  0  0  0  0  0  0
  142.7360   74.0000  220.8480 C   0  0  0  0  0  0  0  0  0  0  0  0
  141.6460   74.8540  220.7800 C   0  0  0  0  0  0  0  0  0  0  0  0
  138.7230   71.7350  222.8340 C   0  0  0  0  0  0  0  0  0  0  0  0
  138.0790   70.5040  222.8600 C   0  0  0  0  0  0  0  0  0  0  0  0
  138.3750   69.5230  223.7700 C   0  0  0  0  0  0  0  0  0  0  0  0
  139.3580   69.7840  224.6940 C   0  0  0  0  0  0  0  0  0  0  0  0
  139.6580   68.8030  225.6070 C   0  0  0  0  0  0  0  0  0  0  0  0
  140.6410   69.0690  226.5310 C   0  0  0  0  0  0  0  0  0  0  0  0
  141.0550   67.8610  227.7060 Cl  0  0  0  0  0  0  0  0  0  0  0  0
  141.3060   70.2770  226.5430 C   0  0  0  0  0  0  0  0  0  0  0  0
  140.9870   71.2610  225.6060 C   0  0  0  0  0  0  0  0  0  0  0  0
  140.0040   71.0160  224.6710 C   0  0  0  0  0  0  0  0  0  0  0  0
  139.6760   71.9620  223.7470 N   0  0  0  0  0  0  0  0  0  0  0  0
  139.1170   74.4390  222.8690 H   0  0  0  0  0  0  0  0  0  0  0  0
  138.7810   74.7854  220.0431 H   0  0  0  0  0  0  0  0  0  0  0  0
  137.1155   74.8027  220.7500 H   0  0  0  0  0  0  0  0  0  0  0  0
  139.8380   77.9898  223.1273 H   0  0  0  0  0  0  0  0  0  0  0  0
  140.9948   76.6569  222.9577 H   0  0  0  0  0  0  0  0  0  0  0  0
  141.4270   79.4035  222.2700 H   0  0  0  0  0  0  0  0  0  0  0  0
  142.5147   78.0956  221.8796 H   0  0  0  0  0  0  0  0  0  0  0  0
  140.1293   79.1780  220.2452 H   0  0  0  0  0  0  0  0  0  0  0  0
  141.7179   78.8687  219.6310 H   0  0  0  0  0  0  0  0  0  0  0  0
  140.1179   76.7953  219.1680 H   0  0  0  0  0  0  0  0  0  0  0  0
  143.0701   77.4893  219.2682 H   0  0  0  0  0  0  0  0  0  0  0  0
  145.0246   75.9855  219.3749 H   0  0  0  0  0  0  0  0  0  0  0  0
  142.6304   73.0038  221.3024 H   0  0  0  0  0  0  0  0  0  0  0  0
  140.6832   74.5120  221.1874 H   0  0  0  0  0  0  0  0  0  0  0  0
  137.2942   70.3076  222.1147 H   0  0  0  0  0  0  0  0  0  0  0  0
  137.8439   68.5597  223.7611 H   0  0  0  0  0  0  0  0  0  0  0  0
  139.1303   67.8379  225.5994 H   0  0  0  0  0  0  0  0  0  0  0  0
  142.0891   70.4654  227.2922 H   0  0  0  0  0  0  0  0  0  0  0  0
  141.5162   72.2253  225.6135 H   0  0  0  0  0  0  0  0  0  0  0  0
  1  2  2  0
  2  3  1  0
  3  4  1  0
  4  5  1  0
  5  6  2  0
  5  7  1  0
  7  8  1  0
  8  9  1  0
  9 10  1  0
 10 11  1  0
 11 12  1  0
 12 13  2  0
 13 14  1  0
 14 15  2  0
 15 16  1  0
 15 17  1  0
 17 18  2  0
  2 19  1  0
 19 20  2  0
 20 21  1  0
 21 22  2  0
 22 23  1  0
 23 24  2  0
 24 25  1  0
 24 26  1  0
 26 27  2  0
 27 28  1  0
 28 29  2  0
 11  7  1  0
 18 12  1  0
 29 19  1  0
 28 22  1  0
  3 30  1  0
  4 31  1  0
  4 32  1  0
  8 33  1  0
  8 34  1  0
  9 35  1  0
  9 36  1  0
 10 37  1  0
 10 38  1  0
 11 39  1  6
 13 40  1  0
 14 41  1  0
 17 42  1  0
 18 43  1  0
 20 44  1  0
 21 45  1  0
 23 46  1  0
 26 47  1  0
 27 48  1  0
M  END
>  <smiles>  (72) 
O=C(NCC(=O)N1CCCC1c1ccc(Br)cc1)c1ccc2cc(Cl)ccc2n1

>  <score_type>  (72) 
oracle

>  <origin>  (72) 
autodockgpu

>  <m_score__min__energy>  (72) 
-8.7799999999999994

>  <m_primary>  (72) 
energy

>  <rmsd>  (72) 
2.63298743456107

>  <m_score__min__rmsd>  (72) 
2.63298743456107

>  <meeko>  (72) 
{"free_energy": -8.04, "intermolecular_energy": -9.53, "internal_energy": -1.65, "cluster_size": 28, "cluster_id": 1, "rank_in_cluster": 26}

>  <energy>  (72) 
-8.18

>  <cluster_rmsd>  (72) 
0.62

>  <cluster>  (72) 
1

$$$$

     RDKit          3D

 48 51  0  0  0  0  0  0  0  0999 V2000
  139.8930   72.1510  220.9230 O   0  0  0  0  0  0  0  0  0  0  0  0
  139.3300   72.3640  222.0390 C   0  0  0  0  0  0  0  0  0  0  0  0
  138.4430   73.4780  222.1550 N   0  0  0  0  0  0  0  0  0  0  0  0
  138.2600   74.2850  220.9640 C   0  0  0  0  0  0  0  0  0  0  0  0
  138.2890   75.7400  221.2870 C   0  0  0  0  0  0  0  0  0  0  0  0
  137.2500   76.4190  221.4870 O   0  0  0  0  0  0  0  0  0  0  0  0
  139.5710   76.3550  221.3650 N   0  0  0  0  0  0  0  0  0  0  0  0
  140.2850   76.8400  222.5370 C   0  0  0  0  0  0  0  0  0  0  0  0
  141.2160   77.9240  222.0460 C   0  0  0  0  0  0  0  0  0  0  0  0
  140.7760   78.0930  220.6070 C   0  0  0  0  0  0  0  0  0  0  0  0
  140.4820   76.6440  220.2480 C   0  0  1  0  0  0  0  0  0  0  0  0
  141.7010   75.8030  220.2930 C   0  0  0  0  0  0  0  0  0  0  0  0
  141.6470   74.5180  220.8200 C   0  0  0  0  0  0  0  0  0  0  0  0
  142.7710   73.7040  220.8770 C   0  0  0  0  0  0  0  0  0  0  0  0
  143.9790   74.1500  220.4100 C   0  0  0  0  0  0  0  0  0  0  0  0
  145.5700   73.0870  220.4540 Br  0  0  0  0  0  0  0  0  0  0  0  0
  144.0640   75.4200  219.8810 C   0  0  0  0  0  0  0  0  0  0  0  0
  142.9330   76.2200  219.8330 C   0  0  0  0  0  0  0  0  0  0  0  0
  139.5730   71.5030  223.1860 C   0  0  0  0  0  0  0  0  0  0  0  0
  139.2060   70.1660  223.0970 C   0  0  0  0  0  0  0  0  0  0  0  0
  139.3890   69.2680  224.1170 C   0  0  0  0  0  0  0  0  0  0  0  0
  139.9630   69.7290  225.2770 C   0  0  0  0  0  0  0  0  0  0  0  0
  140.1480   68.8330  226.3010 C   0  0  0  0  0  0  0  0  0  0  0  0
  140.7220   69.2980  227.4610 C   0  0  0  0  0  0  0  0  0  0  0  0
  140.9760   68.2030  228.7840 Cl  0  0  0  0  0  0  0  0  0  0  0  0
  141.1020   70.6160  227.5950 C   0  0  0  0  0  0  0  0  0  0  0  0
  140.9050   71.5120  226.5420 C   0  0  0  0  0  0  0  0  0  0  0  0
  140.3310   71.0670  225.3710 C   0  0  0  0  0  0  0  0  0  0  0  0
  140.1300   71.9230  224.3300 N   0  0  0  0  0  0  0  0  0  0  0  0
  137.9490   73.6980  223.0680 H   0  0  0  0  0  0  0  0  0  0  0  0
  139.0668   74.0599  220.2510 H   0  0  0  0  0  0  0  0  0  0  0  0
  137.2786   74.0450  220.5289 H   0  0  0  0  0  0  0  0  0  0  0  0
  139.5768   77.2499  223.2721 H   0  0  0  0  0  0  0  0  0  0  0  0
  140.8400   76.0293  223.0317 H   0  0  0  0  0  0  0  0  0  0  0  0
  141.0811   78.8547  222.6166 H   0  0  0  0  0  0  0  0  0  0  0  0
  142.2818   77.6752  222.1564 H   0  0  0  0  0  0  0  0  0  0  0  0
  139.8784   78.7237  220.5261 H   0  0  0  0  0  0  0  0  0  0  0  0
  141.5075   78.5924  219.9547 H   0  0  0  0  0  0  0  0  0  0  0  0
  140.0914   76.4585  219.2366 H   0  0  0  0  0  0  0  0  0  0  0  0
  140.6889   74.1356  221.2020 H   0  0  0  0  0  0  0  0  0  0  0  0
  142.6903   72.6922  221.3009 H   0  0  0  0  0  0  0  0  0  0  0  0
  145.0243   75.7967  219.4989 H   0  0  0  0  0  0  0  0  0  0  0  0
  143.0217   77.2314  219.4097 H   0  0  0  0  0  0  0  0  0  0  0  0
  138.7463   69.8106  222.1630 H   0  0  0  0  0  0  0  0  0  0  0  0
  139.0869   68.2157  224.0103 H   0  0  0  0  0  0  0  0  0  0  0  0
  139.8475   67.7800  226.1971 H   0  0  0  0  0  0  0  0  0  0  0  0
  141.5611   70.9627  228.5326 H   0  0  0  0  0  0  0  0  0  0  0  0
  141.2057   72.5649  226.6466 H   0  0  0  0  0  0  0  0  0  0  0  0
  1  2  2  0
  2  3  1  0
  3  4  1  0
  4  5  1  0
  5  6  2  0
  5  7  1  0
  7  8  1  0
  8  9  1  0
  9 10  1  0
 10 11  1  0
 11 12  1  0
 12 13  2  0
 13 14  1  0
 14 15  2  0
 15 16  1  0
 15 17  1  0
 17 18  2  0
  2 19  1  0
 19 20  2  0
 20 21  1  0
 21 22  2  0
 22 23  1  0
 23 24  2  0
 24 25  1  0
 24 26  1  0
 26 27  2  0
 27 28  1  0
 28 29  2  0
 11  7  1  0
 18 12  1  0
 29 19  1  0
 28 22  1  0
  3 30  1  0
  4 31  1  0
  4 32  1  0
  8 33  1  0
  8 34  1  0
  9 35  1  0
  9 36  1  0
 10 37  1  0
 10 38  1  0
 11 39  1  6
 13 40  1  0
 14 41  1  0
 17 42  1  0
 18 43  1  0
 20 44  1  0
 21 45  1  0
 23 46  1  0
 26 47  1  0
 27 48  1  0
M  END
>  <smiles>  (73) 
O=C(NCC(=O)N1CCCC1c1ccc(Br)cc1)c1ccc2cc(Cl)ccc2n1

>  <score_type>  (73) 
oracle

>  <origin>  (73) 
autodockgpu

>  <m_score__min__energy>  (73) 
-8.7799999999999994

>  <m_primary>  (73) 
energy

>  <rmsd>  (73) 
2.411321133511933

>  <m_score__min__rmsd>  (73) 
2.411321133511933

>  <meeko>  (73) 
{"free_energy": -8.69, "intermolecular_energy": -10.18, "internal_energy": -1.67, "cluster_size": 28, "cluster_id": 1, "rank_in_cluster": 3}

>  <energy>  (73) 
-8.18

>  <cluster_rmsd>  (73) 
1.04

>  <cluster>  (73) 
1

$$$$

     RDKit          3D

 48 51  0  0  0  0  0  0  0  0999 V2000
  137.8700   71.3590  221.5210 O   0  0  0  0  0  0  0  0  0  0  0  0
  138.5830   71.8670  222.4380 C   0  0  0  0  0  0  0  0  0  0  0  0
  138.9340   73.2490  222.3440 N   0  0  0  0  0  0  0  0  0  0  0  0
  138.4350   73.9650  221.1850 C   0  0  0  0  0  0  0  0  0  0  0  0
  138.3540   75.4300  221.4490 C   0  0  0  0  0  0  0  0  0  0  0  0
  137.2860   76.0120  221.7670 O   0  0  0  0  0  0  0  0  0  0  0  0
  139.5630   76.1720  221.3260 N   0  0  0  0  0  0  0  0  0  0  0  0
  140.2830   76.9270  222.3420 C   0  0  0  0  0  0  0  0  0  0  0  0
  141.0600   77.9920  221.6050 C   0  0  0  0  0  0  0  0  0  0  0  0
  140.5260   77.8570  220.1940 C   0  0  0  0  0  0  0  0  0  0  0  0
  140.3740   76.3460  220.1120 C   0  0  1  0  0  0  0  0  0  0  0  0
  141.6790   75.6510  220.2110 C   0  0  0  0  0  0  0  0  0  0  0  0
  141.7500   74.3640  220.7320 C   0  0  0  0  0  0  0  0  0  0  0  0
  142.9560   73.6840  220.8390 C   0  0  0  0  0  0  0  0  0  0  0  0
  144.1250   74.2700  220.4290 C   0  0  0  0  0  0  0  0  0  0  0  0
  145.8240   73.3980  220.5440 Br  0  0  0  0  0  0  0  0  0  0  0  0
  144.0870   75.5470  219.9080 C   0  0  0  0  0  0  0  0  0  0  0  0
  142.8740   76.2110  219.8090 C   0  0  0  0  0  0  0  0  0  0  0  0
  139.0430   71.0730  223.5670 C   0  0  0  0  0  0  0  0  0  0  0  0
  138.8530   69.6980  223.5280 C   0  0  0  0  0  0  0  0  0  0  0  0
  139.2470   68.8570  224.5360 C   0  0  0  0  0  0  0  0  0  0  0  0
  139.8560   69.4180  225.6330 C   0  0  0  0  0  0  0  0  0  0  0  0
  140.2530   68.5790  226.6460 C   0  0  0  0  0  0  0  0  0  0  0  0
  140.8610   69.1440  227.7410 C   0  0  0  0  0  0  0  0  0  0  0  0
  141.3800   68.1250  229.0470 Cl  0  0  0  0  0  0  0  0  0  0  0  0
  141.0700   70.5040  227.8240 C   0  0  0  0  0  0  0  0  0  0  0  0
  140.6600   71.3400  226.7840 C   0  0  0  0  0  0  0  0  0  0  0  0
  140.0480   70.7950  225.6760 C   0  0  0  0  0  0  0  0  0  0  0  0
  139.6390   71.5910  224.6490 N   0  0  0  0  0  0  0  0  0  0  0  0
  139.5290   73.7190  223.0850 H   0  0  0  0  0  0  0  0  0  0  0  0
  139.1128   73.7904  220.3364 H   0  0  0  0  0  0  0  0  0  0  0  0
  137.4241   73.5962  220.9568 H   0  0  0  0  0  0  0  0  0  0  0  0
  139.5756   77.3897  223.0459 H   0  0  0  0  0  0  0  0  0  0  0  0
  140.9503   76.2766  222.9265 H   0  0  0  0  0  0  0  0  0  0  0  0
  140.8547   78.9917  222.0154 H   0  0  0  0  0  0  0  0  0  0  0  0
  142.1511   77.8734  221.6780 H   0  0  0  0  0  0  0  0  0  0  0  0
  139.5614   78.3715  220.0717 H   0  0  0  0  0  0  0  0  0  0  0  0
  141.1614   78.3015  219.4139 H   0  0  0  0  0  0  0  0  0  0  0  0
  139.9510   75.9455  219.1789 H   0  0  0  0  0  0  0  0  0  0  0  0
  140.8260   73.8711  221.0685 H   0  0  0  0  0  0  0  0  0  0  0  0
  142.9731   72.6664  221.2564 H   0  0  0  0  0  0  0  0  0  0  0  0
  145.0139   76.0355  219.5731 H   0  0  0  0  0  0  0  0  0  0  0  0
  142.8640   77.2287  219.3917 H   0  0  0  0  0  0  0  0  0  0  0  0
  138.3623   69.2625  222.6451 H   0  0  0  0  0  0  0  0  0  0  0  0
  139.0816   67.7715  224.4694 H   0  0  0  0  0  0  0  0  0  0  0  0
  140.0898   67.4930  226.5826 H   0  0  0  0  0  0  0  0  0  0  0  0
  141.5606   70.9311  228.7111 H   0  0  0  0  0  0  0  0  0  0  0  0
  140.8242   72.4258  226.8484 H   0  0  0  0  0  0  0  0  0  0  0  0
  1  2  2  0
  2  3  1  0
  3  4  1  0
  4  5  1  0
  5  6  2  0
  5  7  1  0
  7  8  1  0
  8  9  1  0
  9 10  1  0
 10 11  1  0
 11 12  1  0
 12 13  2  0
 13 14  1  0
 14 15  2  0
 15 16  1  0
 15 17  1  0
 17 18  2  0
  2 19  1  0
 19 20  2  0
 20 21  1  0
 21 22  2  0
 22 23  1  0
 23 24  2  0
 24 25  1  0
 24 26  1  0
 26 27  2  0
 27 28  1  0
 28 29  2  0
 11  7  1  0
 18 12  1  0
 29 19  1  0
 28 22  1  0
  3 30  1  0
  4 31  1  0
  4 32  1  0
  8 33  1  0
  8 34  1  0
  9 35  1  0
  9 36  1  0
 10 37  1  0
 10 38  1  0
 11 39  1  6
 13 40  1  0
 14 41  1  0
 17 42  1  0
 18 43  1  0
 20 44  1  0
 21 45  1  0
 23 46  1  0
 26 47  1  0
 27 48  1  0
M  END
>  <smiles>  (74) 
O=C(NCC(=O)N1CCCC1c1ccc(Br)cc1)c1ccc2cc(Cl)ccc2n1

>  <score_type>  (74) 
oracle

>  <origin>  (74) 
autodockgpu

>  <m_score__min__energy>  (74) 
-8.7799999999999994

>  <m_primary>  (74) 
energy

>  <rmsd>  (74) 
2.2583115175721558

>  <m_score__min__rmsd>  (74) 
2.2583115175721558

>  <meeko>  (74) 
{"free_energy": -8.62, "intermolecular_energy": -10.11, "internal_energy": -1.53, "cluster_size": 28, "cluster_id": 1, "rank_in_cluster": 6}

>  <energy>  (74) 
-8.17

>  <cluster_rmsd>  (74) 
1.19

>  <cluster>  (74) 
1

$$$$

     RDKit          3D

 48 51  0  0  0  0  0  0  0  0999 V2000
  138.5350   71.3340  220.6550 O   0  0  0  0  0  0  0  0  0  0  0  0
  138.6640   71.9220  221.7710 C   0  0  0  0  0  0  0  0  0  0  0  0
  138.4200   73.3280  221.8350 N   0  0  0  0  0  0  0  0  0  0  0  0
  138.0400   73.9750  220.5930 C   0  0  0  0  0  0  0  0  0  0  0  0
  138.1280   75.4590  220.7080 C   0  0  0  0  0  0  0  0  0  0  0  0
  137.1810   76.2270  220.4030 O   0  0  0  0  0  0  0  0  0  0  0  0
  139.3560   75.9950  221.1880 N   0  0  0  0  0  0  0  0  0  0  0  0
  139.8280   76.1200  222.5600 C   0  0  0  0  0  0  0  0  0  0  0  0
  140.8050   77.2710  222.5680 C   0  0  0  0  0  0  0  0  0  0  0  0
  140.6350   77.8420  221.1750 C   0  0  0  0  0  0  0  0  0  0  0  0
  140.4510   76.5560  220.3840 C   0  0  1  0  0  0  0  0  0  0  0  0
  141.6620   75.7030  220.4210 C   0  0  0  0  0  0  0  0  0  0  0  0
  142.8960   76.2210  220.0430 C   0  0  0  0  0  0  0  0  0  0  0  0
  144.0510   75.4500  220.0670 C   0  0  0  0  0  0  0  0  0  0  0  0
  144.0060   74.1400  220.4680 C   0  0  0  0  0  0  0  0  0  0  0  0
  145.5520   73.0150  220.5270 Br  0  0  0  0  0  0  0  0  0  0  0  0
  142.7960   73.5980  220.8480 C   0  0  0  0  0  0  0  0  0  0  0  0
  141.6530   74.3820  220.8180 C   0  0  0  0  0  0  0  0  0  0  0  0
  139.0510   71.1940  222.9700 C   0  0  0  0  0  0  0  0  0  0  0  0
  138.7420   69.8420  223.0500 C   0  0  0  0  0  0  0  0  0  0  0  0
  139.0590   69.0630  224.1320 C   0  0  0  0  0  0  0  0  0  0  0  0
  139.7140   69.6630  225.1800 C   0  0  0  0  0  0  0  0  0  0  0  0
  140.0350   68.8860  226.2670 C   0  0  0  0  0  0  0  0  0  0  0  0
  140.6890   69.4900  227.3130 C   0  0  0  0  0  0  0  0  0  0  0  0
  141.1150   68.5500  228.7080 Cl  0  0  0  0  0  0  0  0  0  0  0  0
  141.0160   70.8290  227.2780 C   0  0  0  0  0  0  0  0  0  0  0  0
  140.6820   71.6020  226.1650 C   0  0  0  0  0  0  0  0  0  0  0  0
  140.0250   71.0170  225.1040 C   0  0  0  0  0  0  0  0  0  0  0  0
  139.6890   71.7520  224.0070 N   0  0  0  0  0  0  0  0  0  0  0  0
  138.5150   73.8640  222.7450 H   0  0  0  0  0  0  0  0  0  0  0  0
  138.7135   73.6368  219.7918 H   0  0  0  0  0  0  0  0  0  0  0  0
  136.9984   73.7049  220.3646 H   0  0  0  0  0  0  0  0  0  0  0  0
  138.9855   76.3307  223.2351 H   0  0  0  0  0  0  0  0  0  0  0  0
  140.3026   75.1900  222.9062 H   0  0  0  0  0  0  0  0  0  0  0  0
  140.5429   78.0118  223.3378 H   0  0  0  0  0  0  0  0  0  0  0  0
  141.8379   76.9729  222.8009 H   0  0  0  0  0  0  0  0  0  0  0  0
  139.7517   78.4939  221.1059 H   0  0  0  0  0  0  0  0  0  0  0  0
  141.4609   78.4828  220.8326 H   0  0  0  0  0  0  0  0  0  0  0  0
  140.2603   76.6664  219.3063 H   0  0  0  0  0  0  0  0  0  0  0  0
  142.9590   77.2695  219.7162 H   0  0  0  0  0  0  0  0  0  0  0  0
  145.0098   75.8943  219.7617 H   0  0  0  0  0  0  0  0  0  0  0  0
  142.7382   72.5488  221.1733 H   0  0  0  0  0  0  0  0  0  0  0  0
  140.6975   73.9311  221.1240 H   0  0  0  0  0  0  0  0  0  0  0  0
  138.2175   69.3741  222.2039 H   0  0  0  0  0  0  0  0  0  0  0  0
  138.7981   67.9948  224.1604 H   0  0  0  0  0  0  0  0  0  0  0  0
  139.7771   67.8171  226.2984 H   0  0  0  0  0  0  0  0  0  0  0  0
  141.5409   71.2886  228.1285 H   0  0  0  0  0  0  0  0  0  0  0  0
  140.9413   72.6706  226.1348 H   0  0  0  0  0  0  0  0  0  0  0  0
  1  2  2  0
  2  3  1  0
  3  4  1  0
  4  5  1  0
  5  6  2  0
  5  7  1  0
  7  8  1  0
  8  9  1  0
  9 10  1  0
 10 11  1  0
 11 12  1  0
 12 13  2  0
 13 14  1  0
 14 15  2  0
 15 16  1  0
 15 17  1  0
 17 18  2  0
  2 19  1  0
 19 20  2  0
 20 21  1  0
 21 22  2  0
 22 23  1  0
 23 24  2  0
 24 25  1  0
 24 26  1  0
 26 27  2  0
 27 28  1  0
 28 29  2  0
 11  7  1  0
 18 12  1  0
 29 19  1  0
 28 22  1  0
  3 30  1  0
  4 31  1  0
  4 32  1  0
  8 33  1  0
  8 34  1  0
  9 35  1  0
  9 36  1  0
 10 37  1  0
 10 38  1  0
 11 39  1  6
 13 40  1  0
 14 41  1  0
 17 42  1  0
 18 43  1  0
 20 44  1  0
 21 45  1  0
 23 46  1  0
 26 47  1  0
 27 48  1  0
M  END
>  <smiles>  (75) 
O=C(NCC(=O)N1CCCC1c1ccc(Br)cc1)c1ccc2cc(Cl)ccc2n1

>  <score_type>  (75) 
oracle

>  <origin>  (75) 
autodockgpu

>  <m_score__min__energy>  (75) 
-8.7799999999999994

>  <m_primary>  (75) 
energy

>  <rmsd>  (75) 
2.4073504757431228

>  <m_score__min__rmsd>  (75) 
2.4073504757431228

>  <meeko>  (75) 
{"free_energy": -8.22, "intermolecular_energy": -9.71, "internal_energy": -1.68, "cluster_size": 28, "cluster_id": 1, "rank_in_cluster": 19}

>  <energy>  (75) 
-8.12

>  <cluster_rmsd>  (75) 
1.13

>  <cluster>  (75) 
1

$$$$

     RDKit          3D

 48 51  0  0  0  0  0  0  0  0999 V2000
  139.9520   74.0620  222.0370 O   0  0  0  0  0  0  0  0  0  0  0  0
  140.3790   72.8700  221.9600 C   0  0  0  0  0  0  0  0  0  0  0  0
  140.9390   72.4240  220.7240 N   0  0  0  0  0  0  0  0  0  0  0  0
  140.9700   73.3900  219.6420 C   0  0  0  0  0  0  0  0  0  0  0  0
  142.0790   74.3700  219.8260 C   0  0  0  0  0  0  0  0  0  0  0  0
  143.2140   74.0480  220.2580 O   0  0  0  0  0  0  0  0  0  0  0  0
  141.8020   75.7240  219.4840 N   0  0  0  0  0  0  0  0  0  0  0  0
  140.7440   76.2580  218.6380 C   0  0  0  0  0  0  0  0  0  0  0  0
  141.2590   77.5720  218.0990 C   0  0  0  0  0  0  0  0  0  0  0  0
  142.7030   77.5600  218.5550 C   0  0  0  0  0  0  0  0  0  0  0  0
  142.5430   76.9150  219.9230 C   0  0  1  0  0  0  0  0  0  0  0  0
  141.7450   77.7590  220.8440 C   0  0  0  0  0  0  0  0  0  0  0  0
  140.8840   77.1720  221.7640 C   0  0  0  0  0  0  0  0  0  0  0  0
  140.1220   77.9330  222.6410 C   0  0  0  0  0  0  0  0  0  0  0  0
  140.1990   79.3000  222.6240 C   0  0  0  0  0  0  0  0  0  0  0  0
  139.1820   80.4160  223.8000 Br  0  0  0  0  0  0  0  0  0  0  0  0
  141.0440   79.9120  221.7230 C   0  0  0  0  0  0  0  0  0  0  0  0
  141.7970   79.1380  220.8540 C   0  0  0  0  0  0  0  0  0  0  0  0
  140.3070   71.9660  223.0970 C   0  0  0  0  0  0  0  0  0  0  0  0
  139.7300   70.7160  222.9110 C   0  0  0  0  0  0  0  0  0  0  0  0
  139.6110   69.7880  223.9130 C   0  0  0  0  0  0  0  0  0  0  0  0
  140.0890   70.1260  225.1560 C   0  0  0  0  0  0  0  0  0  0  0  0
  139.9720   69.2000  226.1630 C   0  0  0  0  0  0  0  0  0  0  0  0
  140.4510   69.5420  227.4050 C   0  0  0  0  0  0  0  0  0  0  0  0
  140.3260   68.4040  228.7090 Cl  0  0  0  0  0  0  0  0  0  0  0  0
  141.0310   70.7710  227.6370 C   0  0  0  0  0  0  0  0  0  0  0  0
  141.1410   71.7000  226.6000 C   0  0  0  0  0  0  0  0  0  0  0  0
  140.6670   71.3780  225.3470 C   0  0  0  0  0  0  0  0  0  0  0  0
  140.7630   72.2680  224.3200 N   0  0  0  0  0  0  0  0  0  0  0  0
  141.3090   71.4360  220.6110 H   0  0  0  0  0  0  0  0  0  0  0  0
  141.1153   72.8581  218.6902 H   0  0  0  0  0  0  0  0  0  0  0  0
  140.0169   73.9391  219.6377 H   0  0  0  0  0  0  0  0  0  0  0  0
  140.5298   75.5644  217.8115 H   0  0  0  0  0  0  0  0  0  0  0  0
  139.8097   76.3945  219.2023 H   0  0  0  0  0  0  0  0  0  0  0  0
  141.1873   77.6088  217.0020 H   0  0  0  0  0  0  0  0  0  0  0  0
  140.6919   78.4465  218.4506 H   0  0  0  0  0  0  0  0  0  0  0  0
  143.3361   76.9545  217.8898 H   0  0  0  0  0  0  0  0  0  0  0  0
  143.1948   78.5439  218.5615 H   0  0  0  0  0  0  0  0  0  0  0  0
  143.4671   76.7344  220.4918 H   0  0  0  0  0  0  0  0  0  0  0  0
  140.8041   76.0754  221.7984 H   0  0  0  0  0  0  0  0  0  0  0  0
  139.4510   77.4334  223.3552 H   0  0  0  0  0  0  0  0  0  0  0  0
  141.1203   81.0090  221.6939 H   0  0  0  0  0  0  0  0  0  0  0  0
  142.4647   79.6447  220.1417 H   0  0  0  0  0  0  0  0  0  0  0  0
  139.3502   70.4584  221.9113 H   0  0  0  0  0  0  0  0  0  0  0  0
  139.1489   68.8070  223.7283 H   0  0  0  0  0  0  0  0  0  0  0  0
  139.5107   68.2180  225.9819 H   0  0  0  0  0  0  0  0  0  0  0  0
  141.4076   71.0202  228.6400 H   0  0  0  0  0  0  0  0  0  0  0  0
  141.6027   72.6816  226.7823 H   0  0  0  0  0  0  0  0  0  0  0  0
  1  2  2  0
  2  3  1  0
  3  4  1  0
  4  5  1  0
  5  6  2  0
  5  7  1  0
  7  8  1  0
  8  9  1  0
  9 10  1  0
 10 11  1  0
 11 12  1  0
 12 13  2  0
 13 14  1  0
 14 15  2  0
 15 16  1  0
 15 17  1  0
 17 18  2  0
  2 19  1  0
 19 20  2  0
 20 21  1  0
 21 22  2  0
 22 23  1  0
 23 24  2  0
 24 25  1  0
 24 26  1  0
 26 27  2  0
 27 28  1  0
 28 29  2  0
 11  7  1  0
 18 12  1  0
 29 19  1  0
 28 22  1  0
  3 30  1  0
  4 31  1  0
  4 32  1  0
  8 33  1  0
  8 34  1  0
  9 35  1  0
  9 36  1  0
 10 37  1  0
 10 38  1  0
 11 39  1  1
 13 40  1  0
 14 41  1  0
 17 42  1  0
 18 43  1  0
 20 44  1  0
 21 45  1  0
 23 46  1  0
 26 47  1  0
 27 48  1  0
M  END
>  <smiles>  (76) 
O=C(NCC(=O)N1CCCC1c1ccc(Br)cc1)c1ccc2cc(Cl)ccc2n1

>  <score_type>  (76) 
oracle

>  <origin>  (76) 
autodockgpu

>  <m_score__min__energy>  (76) 
-8.7799999999999994

>  <m_primary>  (76) 
energy

>  <rmsd>  (76) 
2.11725138712626

>  <m_score__min__rmsd>  (76) 
2.11725138712626

>  <meeko>  (76) 
{"free_energy": -8.23, "intermolecular_energy": -9.73, "internal_energy": -1.45, "cluster_size": 16, "cluster_id": 2, "rank_in_cluster": 6}

>  <energy>  (76) 
-8.04

>  <cluster_rmsd>  (76) 
0.85

>  <cluster>  (76) 
1

$$$$

     RDKit          3D

 48 51  0  0  0  0  0  0  0  0999 V2000
  139.7780   72.0840  220.8160 O   0  0  0  0  0  0  0  0  0  0  0  0
  139.3020   72.3530  221.9600 C   0  0  0  0  0  0  0  0  0  0  0  0
  138.4960   73.5230  222.1070 N   0  0  0  0  0  0  0  0  0  0  0  0
  138.2890   74.3190  220.9120 C   0  0  0  0  0  0  0  0  0  0  0  0
  138.3290   75.7780  221.2210 C   0  0  0  0  0  0  0  0  0  0  0  0
  137.2990   76.4530  221.4750 O   0  0  0  0  0  0  0  0  0  0  0  0
  139.6090   76.4000  221.2200 N   0  0  0  0  0  0  0  0  0  0  0  0
  140.3400   76.9960  222.3300 C   0  0  0  0  0  0  0  0  0  0  0  0
  141.2590   78.0290  221.7230 C   0  0  0  0  0  0  0  0  0  0  0  0
  140.7960   78.0600  220.2810 C   0  0  0  0  0  0  0  0  0  0  0  0
  140.5010   76.5840  220.0660 C   0  0  1  0  0  0  0  0  0  0  0  0
  141.7240   75.7540  220.1710 C   0  0  0  0  0  0  0  0  0  0  0  0
  141.6630   74.4830  220.7310 C   0  0  0  0  0  0  0  0  0  0  0  0
  142.7890   73.6780  220.8440 C   0  0  0  0  0  0  0  0  0  0  0  0
  144.0080   74.1200  220.4020 C   0  0  0  0  0  0  0  0  0  0  0  0
  145.6040   73.0710  220.5240 Br  0  0  0  0  0  0  0  0  0  0  0  0
  144.1010   75.3770  219.8420 C   0  0  0  0  0  0  0  0  0  0  0  0
  142.9670   76.1670  219.7370 C   0  0  0  0  0  0  0  0  0  0  0  0
  139.5620   71.4980  223.1080 C   0  0  0  0  0  0  0  0  0  0  0  0
  139.2410   70.1490  223.0130 C   0  0  0  0  0  0  0  0  0  0  0  0
  139.4440   69.2560  224.0330 C   0  0  0  0  0  0  0  0  0  0  0  0
  139.9900   69.7340  225.1990 C   0  0  0  0  0  0  0  0  0  0  0  0
  140.1950   68.8420  226.2240 C   0  0  0  0  0  0  0  0  0  0  0  0
  140.7410   69.3240  227.3900 C   0  0  0  0  0  0  0  0  0  0  0  0
  141.0190   68.2360  228.7130 Cl  0  0  0  0  0  0  0  0  0  0  0  0
  141.0750   70.6540  227.5300 C   0  0  0  0  0  0  0  0  0  0  0  0
  140.8590   71.5440  226.4770 C   0  0  0  0  0  0  0  0  0  0  0  0
  140.3120   71.0830  225.2990 C   0  0  0  0  0  0  0  0  0  0  0  0
  140.0920   71.9340  224.2580 N   0  0  0  0  0  0  0  0  0  0  0  0
  138.0760   73.7900  223.0440 H   0  0  0  0  0  0  0  0  0  0  0  0
  139.0794   74.0848  220.1837 H   0  0  0  0  0  0  0  0  0  0  0  0
  137.2979   74.0775  220.5004 H   0  0  0  0  0  0  0  0  0  0  0  0
  139.6421   77.4731  223.0338 H   0  0  0  0  0  0  0  0  0  0  0  0
  140.9050   76.2372  222.8913 H   0  0  0  0  0  0  0  0  0  0  0  0
  141.1304   79.0096  222.2045 H   0  0  0  0  0  0  0  0  0  0  0  0
  142.3271   77.7930  221.8392 H   0  0  0  0  0  0  0  0  0  0  0  0
  139.8954   78.6788  220.1547 H   0  0  0  0  0  0  0  0  0  0  0  0
  141.5158   78.4963  219.5728 H   0  0  0  0  0  0  0  0  0  0  0  0
  140.0944   76.3027  219.0834 H   0  0  0  0  0  0  0  0  0  0  0  0
  140.6963   74.1046  221.0946 H   0  0  0  0  0  0  0  0  0  0  0  0
  142.7013   72.6772  221.2921 H   0  0  0  0  0  0  0  0  0  0  0  0
  145.0704   75.7507  219.4805 H   0  0  0  0  0  0  0  0  0  0  0  0
  143.0621   77.1667  219.2881 H   0  0  0  0  0  0  0  0  0  0  0  0
  138.8029   69.7801  222.0739 H   0  0  0  0  0  0  0  0  0  0  0  0
  139.1790   68.1942  223.9216 H   0  0  0  0  0  0  0  0  0  0  0  0
  139.9315   67.7796  226.1154 H   0  0  0  0  0  0  0  0  0  0  0  0
  141.5123   71.0143  228.4728 H   0  0  0  0  0  0  0  0  0  0  0  0
  141.1235   72.6061  226.5865 H   0  0  0  0  0  0  0  0  0  0  0  0
  1  2  2  0
  2  3  1  0
  3  4  1  0
  4  5  1  0
  5  6  2  0
  5  7  1  0
  7  8  1  0
  8  9  1  0
  9 10  1  0
 10 11  1  0
 11 12  1  0
 12 13  2  0
 13 14  1  0
 14 15  2  0
 15 16  1  0
 15 17  1  0
 17 18  2  0
  2 19  1  0
 19 20  2  0
 20 21  1  0
 21 22  2  0
 22 23  1  0
 23 24  2  0
 24 25  1  0
 24 26  1  0
 26 27  2  0
 27 28  1  0
 28 29  2  0
 11  7  1  0
 18 12  1  0
 29 19  1  0
 28 22  1  0
  3 30  1  0
  4 31  1  0
  4 32  1  0
  8 33  1  0
  8 34  1  0
  9 35  1  0
  9 36  1  0
 10 37  1  0
 10 38  1  0
 11 39  1  6
 13 40  1  0
 14 41  1  0
 17 42  1  0
 18 43  1  0
 20 44  1  0
 21 45  1  0
 23 46  1  0
 26 47  1  0
 27 48  1  0
M  END
>  <smiles>  (77) 
O=C(NCC(=O)N1CCCC1c1ccc(Br)cc1)c1ccc2cc(Cl)ccc2n1

>  <score_type>  (77) 
oracle

>  <origin>  (77) 
autodockgpu

>  <m_score__min__energy>  (77) 
-8.7799999999999994

>  <m_primary>  (77) 
energy

>  <rmsd>  (77) 
2.3390507214183867

>  <m_score__min__rmsd>  (77) 
2.3390507214183867

>  <meeko>  (77) 
{"free_energy": -8.74, "intermolecular_energy": -10.24, "internal_energy": -1.69, "cluster_size": 28, "cluster_id": 1, "rank_in_cluster": 2}

>  <energy>  (77) 
-7.97

>  <cluster_rmsd>  (77) 
0.81

>  <cluster>  (77) 
1

$$$$

     RDKit          3D

 48 51  0  0  0  0  0  0  0  0999 V2000
  137.2950   71.1620  221.7570 O   0  0  0  0  0  0  0  0  0  0  0  0
  138.1300   71.6810  222.5580 C   0  0  0  0  0  0  0  0  0  0  0  0
  138.5300   73.0360  222.3440 N   0  0  0  0  0  0  0  0  0  0  0  0
  137.9370   73.7130  221.2070 C   0  0  0  0  0  0  0  0  0  0  0  0
  137.8380   75.1820  221.4440 C   0  0  0  0  0  0  0  0  0  0  0  0
  136.9640   75.6990  222.1840 O   0  0  0  0  0  0  0  0  0  0  0  0
  138.7950   76.0050  220.7850 N   0  0  0  0  0  0  0  0  0  0  0  0
  138.5830   77.0160  219.7580 C   0  0  0  0  0  0  0  0  0  0  0  0
  139.8730   77.1030  218.9790 C   0  0  0  0  0  0  0  0  0  0  0  0
  140.6630   75.9380  219.5390 C   0  0  0  0  0  0  0  0  0  0  0  0
  140.2490   76.0160  221.0000 C   0  0  1  0  0  0  0  0  0  0  0  0
  140.7060   77.2720  221.6400 C   0  0  0  0  0  0  0  0  0  0  0  0
  140.0120   77.8010  222.7220 C   0  0  0  0  0  0  0  0  0  0  0  0
  140.4140   78.9760  223.3450 C   0  0  0  0  0  0  0  0  0  0  0  0
  141.5190   79.6550  222.9040 C   0  0  0  0  0  0  0  0  0  0  0  0
  142.1340   81.2780  223.7100 Br  0  0  0  0  0  0  0  0  0  0  0  0
  142.2290   79.1550  221.8330 C   0  0  0  0  0  0  0  0  0  0  0  0
  141.8140   77.9820  221.2220 C   0  0  0  0  0  0  0  0  0  0  0  0
  138.6760   70.9270  223.6750 C   0  0  0  0  0  0  0  0  0  0  0  0
  138.4690   69.5540  223.7100 C   0  0  0  0  0  0  0  0  0  0  0  0
  138.9390   68.7490  224.7140 C   0  0  0  0  0  0  0  0  0  0  0  0
  139.6470   69.3440  225.7300 C   0  0  0  0  0  0  0  0  0  0  0  0
  140.1210   68.5410  226.7390 C   0  0  0  0  0  0  0  0  0  0  0  0
  140.8290   69.1400  227.7530 C   0  0  0  0  0  0  0  0  0  0  0  0
  141.4470   68.1680  229.0510 Cl  0  0  0  0  0  0  0  0  0  0  0  0
  141.0590   70.5000  227.7620 C   0  0  0  0  0  0  0  0  0  0  0  0
  140.5700   71.2990  226.7270 C   0  0  0  0  0  0  0  0  0  0  0  0
  139.8570   70.7190  225.7000 C   0  0  0  0  0  0  0  0  0  0  0  0
  139.3700   71.4790  224.6790 N   0  0  0  0  0  0  0  0  0  0  0  0
  139.2250   73.5140  222.9870 H   0  0  0  0  0  0  0  0  0  0  0  0
  138.5601   73.5344  220.3183 H   0  0  0  0  0  0  0  0  0  0  0  0
  136.9223   73.3159  221.0562 H   0  0  0  0  0  0  0  0  0  0  0  0
  137.7568   76.7188  219.0953 H   0  0  0  0  0  0  0  0  0  0  0  0
  138.3162   77.9870  220.2008 H   0  0  0  0  0  0  0  0  0  0  0  0
  139.6963   76.9833  217.8999 H   0  0  0  0  0  0  0  0  0  0  0  0
  140.3844   78.0719  219.0777 H   0  0  0  0  0  0  0  0  0  0  0  0
  140.3639   74.9840  219.0804 H   0  0  0  0  0  0  0  0  0  0  0  0
  141.7476   75.9858  219.3617 H   0  0  0  0  0  0  0  0  0  0  0  0
  140.6518   75.2384  221.6657 H   0  0  0  0  0  0  0  0  0  0  0  0
  139.1206   77.2753  223.0950 H   0  0  0  0  0  0  0  0  0  0  0  0
  139.8402   79.3642  224.1994 H   0  0  0  0  0  0  0  0  0  0  0  0
  143.1204   79.6843  221.4652 H   0  0  0  0  0  0  0  0  0  0  0  0
  142.3922   77.6004  220.3675 H   0  0  0  0  0  0  0  0  0  0  0  0
  137.8996   69.0901  222.8912 H   0  0  0  0  0  0  0  0  0  0  0  0
  138.7559   67.6644  224.7069 H   0  0  0  0  0  0  0  0  0  0  0  0
  139.9400   67.4560  226.7353 H   0  0  0  0  0  0  0  0  0  0  0  0
  141.6284   70.9555  228.5856 H   0  0  0  0  0  0  0  0  0  0  0  0
  140.7525   72.3838  226.7311 H   0  0  0  0  0  0  0  0  0  0  0  0
  1  2  2  0
  2  3  1  0
  3  4  1  0
  4  5  1  0
  5  6  2  0
  5  7  1  0
  7  8  1  0
  8  9  1  0
  9 10  1  0
 10 11  1  0
 11 12  1  0
 12 13  2  0
 13 14  1  0
 14 15  2  0
 15 16  1  0
 15 17  1  0
 17 18  2  0
  2 19  1  0
 19 20  2  0
 20 21  1  0
 21 22  2  0
 22 23  1  0
 23 24  2  0
 24 25  1  0
 24 26  1  0
 26 27  2  0
 27 28  1  0
 28 29  2  0
 11  7  1  0
 18 12  1  0
 29 19  1  0
 28 22  1  0
  3 30  1  0
  4 31  1  0
  4 32  1  0
  8 33  1  0
  8 34  1  0
  9 35  1  0
  9 36  1  0
 10 37  1  0
 10 38  1  0
 11 39  1  1
 13 40  1  0
 14 41  1  0
 17 42  1  0
 18 43  1  0
 20 44  1  0
 21 45  1  0
 23 46  1  0
 26 47  1  0
 27 48  1  0
M  END
>  <smiles>  (78) 
O=C(NCC(=O)N1CCCC1c1ccc(Br)cc1)c1ccc2cc(Cl)ccc2n1

>  <score_type>  (78) 
oracle

>  <origin>  (78) 
autodockgpu

>  <m_score__min__energy>  (78) 
-8.7799999999999994

>  <m_primary>  (78) 
energy

>  <rmsd>  (78) 
1.539528436326394

>  <m_score__min__rmsd>  (78) 
1.539528436326394

>  <meeko>  (78) 
{"free_energy": -8.17, "intermolecular_energy": -9.66, "internal_energy": -1.33, "cluster_size": 16, "cluster_id": 2, "rank_in_cluster": 10}

>  <energy>  (78) 
-7.78

>  <cluster_rmsd>  (78) 
1.15

>  <cluster>  (78) 
1

$$$$

     RDKit          3D

 48 51  0  0  0  0  0  0  0  0999 V2000
  139.5040   71.8760  220.8590 O   0  0  0  0  0  0  0  0  0  0  0  0
  139.5920   72.3470  222.0330 C   0  0  0  0  0  0  0  0  0  0  0  0
  139.5040   73.7620  222.2090 N   0  0  0  0  0  0  0  0  0  0  0  0
  139.3180   74.5530  221.0080 C   0  0  0  0  0  0  0  0  0  0  0  0
  137.9540   75.1540  220.9610 C   0  0  0  0  0  0  0  0  0  0  0  0
  136.9880   74.6150  220.3650 O   0  0  0  0  0  0  0  0  0  0  0  0
  137.7770   76.3960  221.6340 N   0  0  0  0  0  0  0  0  0  0  0  0
  137.3060   76.6450  222.9900 C   0  0  0  0  0  0  0  0  0  0  0  0
  136.7050   78.0300  222.9800 C   0  0  0  0  0  0  0  0  0  0  0  0
  136.7140   78.3710  221.5040 C   0  0  0  0  0  0  0  0  0  0  0  0
  138.0350   77.7390  221.0950 C   0  0  1  0  0  0  0  0  0  0  0  0
  139.1900   78.3910  221.7560 C   0  0  0  0  0  0  0  0  0  0  0  0
  139.2600   79.7770  221.8390 C   0  0  0  0  0  0  0  0  0  0  0  0
  140.3270   80.4190  222.4520 C   0  0  0  0  0  0  0  0  0  0  0  0
  141.3550   79.6970  222.9990 C   0  0  0  0  0  0  0  0  0  0  0  0
  142.8580   80.5100  223.8590 Br  0  0  0  0  0  0  0  0  0  0  0  0
  141.3140   78.3200  222.9320 C   0  0  0  0  0  0  0  0  0  0  0  0
  140.2410   77.6940  222.3160 C   0  0  0  0  0  0  0  0  0  0  0  0
  139.7790   71.4790  223.1840 C   0  0  0  0  0  0  0  0  0  0  0  0
  139.4200   70.1420  223.0690 C   0  0  0  0  0  0  0  0  0  0  0  0
  139.5540   69.2380  224.0900 C   0  0  0  0  0  0  0  0  0  0  0  0
  140.0690   69.6920  225.2800 C   0  0  0  0  0  0  0  0  0  0  0  0
  140.2050   68.7900  226.3070 C   0  0  0  0  0  0  0  0  0  0  0  0
  140.7200   69.2470  227.4960 C   0  0  0  0  0  0  0  0  0  0  0  0
  140.9110   68.1450  228.8230 Cl  0  0  0  0  0  0  0  0  0  0  0  0
  141.0900   70.5660  227.6570 C   0  0  0  0  0  0  0  0  0  0  0  0
  140.9440   71.4680  226.6020 C   0  0  0  0  0  0  0  0  0  0  0  0
  140.4290   71.0300  225.4010 C   0  0  0  0  0  0  0  0  0  0  0  0
  140.2780   71.8920  224.3570 N   0  0  0  0  0  0  0  0  0  0  0  0
  139.5720   74.2030  223.1710 H   0  0  0  0  0  0  0  0  0  0  0  0
  140.0658   75.3596  220.9908 H   0  0  0  0  0  0  0  0  0  0  0  0
  139.4370   73.8933  220.1358 H   0  0  0  0  0  0  0  0  0  0  0  0
  136.5459   75.9016  223.2721 H   0  0  0  0  0  0  0  0  0  0  0  0
  138.1261   76.5694  223.7192 H   0  0  0  0  0  0  0  0  0  0  0  0
  135.6810   78.0235  223.3818 H   0  0  0  0  0  0  0  0  0  0  0  0
  137.2507   78.7531  223.6040 H   0  0  0  0  0  0  0  0  0  0  0  0
  135.8631   77.9170  220.9749 H   0  0  0  0  0  0  0  0  0  0  0  0
  136.6231   79.4432  221.2757 H   0  0  0  0  0  0  0  0  0  0  0  0
  138.2963   77.7962  220.0280 H   0  0  0  0  0  0  0  0  0  0  0  0
  138.4482   80.3809  221.4074 H   0  0  0  0  0  0  0  0  0  0  0  0
  140.3475   81.5178  222.4991 H   0  0  0  0  0  0  0  0  0  0  0  0
  142.1287   77.7212  223.3652 H   0  0  0  0  0  0  0  0  0  0  0  0
  140.2270   76.5950  222.2719 H   0  0  0  0  0  0  0  0  0  0  0  0
  139.0079   69.7917  222.1112 H   0  0  0  0  0  0  0  0  0  0  0  0
  139.2596   68.1860  223.9614 H   0  0  0  0  0  0  0  0  0  0  0  0
  139.9115   67.7373  226.1817 H   0  0  0  0  0  0  0  0  0  0  0  0
  141.5008   70.9076  228.6185 H   0  0  0  0  0  0  0  0  0  0  0  0
  141.2377   72.5205  226.7281 H   0  0  0  0  0  0  0  0  0  0  0  0
  1  2  2  0
  2  3  1  0
  3  4  1  0
  4  5  1  0
  5  6  2  0
  5  7  1  0
  7  8  1  0
  8  9  1  0
  9 10  1  0
 10 11  1  0
 11 12  1  0
 12 13  2  0
 13 14  1  0
 14 15  2  0
 15 16  1  0
 15 17  1  0
 17 18  2  0
  2 19  1  0
 19 20  2  0
 20 21  1  0
 21 22  2  0
 22 23  1  0
 23 24  2  0
 24 25  1  0
 24 26  1  0
 26 27  2  0
 27 28  1  0
 28 29  2  0
 11  7  1  0
 18 12  1  0
 29 19  1  0
 28 22  1  0
  3 30  1  0
  4 31  1  0
  4 32  1  0
  8 33  1  0
  8 34  1  0
  9 35  1  0
  9 36  1  0
 10 37  1  0
 10 38  1  0
 11 39  1  6
 13 40  1  0
 14 41  1  0
 17 42  1  0
 18 43  1  0
 20 44  1  0
 21 45  1  0
 23 46  1  0
 26 47  1  0
 27 48  1  0
M  END
>  <smiles>  (79) 
O=C(NCC(=O)N1CCCC1c1ccc(Br)cc1)c1ccc2cc(Cl)ccc2n1

>  <score_type>  (79) 
oracle

>  <origin>  (79) 
autodockgpu

>  <m_score__min__energy>  (79) 
-8.7799999999999994

>  <m_primary>  (79) 
energy

>  <rmsd>  (79) 
3.2482102587747566

>  <m_score__min__rmsd>  (79) 
3.2482102587747566

>  <meeko>  (79) 
{"free_energy": -8.28, "intermolecular_energy": -9.77, "internal_energy": -1.41, "cluster_size": 3, "cluster_id": 3, "rank_in_cluster": 1}

>  <energy>  (79) 
-8.44

>  <cluster_rmsd>  (79) 
0.0

>  <cluster>  (79) 
2

$$$$

     RDKit          3D

 48 51  0  0  0  0  0  0  0  0999 V2000
  139.0210   71.0370  220.9380 O   0  0  0  0  0  0  0  0  0  0  0  0
  139.0320   71.7250  222.0040 C   0  0  0  0  0  0  0  0  0  0  0  0
  138.5640   73.0740  221.9500 N   0  0  0  0  0  0  0  0  0  0  0  0
  138.1090   73.5500  220.6580 C   0  0  0  0  0  0  0  0  0  0  0  0
  138.1160   75.0400  220.5970 C   0  0  0  0  0  0  0  0  0  0  0  0
  137.1290   75.7150  220.2100 O   0  0  0  0  0  0  0  0  0  0  0  0
  139.3130   75.6930  221.0050 N   0  0  0  0  0  0  0  0  0  0  0  0
  139.7870   75.9810  222.3510 C   0  0  0  0  0  0  0  0  0  0  0  0
  140.6910   77.1850  222.2310 C   0  0  0  0  0  0  0  0  0  0  0  0
  140.4750   77.6040  220.7920 C   0  0  0  0  0  0  0  0  0  0  0  0
  140.3640   76.2380  220.1330 C   0  0  1  0  0  0  0  0  0  0  0  0
  141.6260   75.4680  220.2360 C   0  0  0  0  0  0  0  0  0  0  0  0
  141.6060   74.1430  220.6570 C   0  0  0  0  0  0  0  0  0  0  0  0
  142.7700   73.3930  220.7640 C   0  0  0  0  0  0  0  0  0  0  0  0
  143.9850   73.9450  220.4550 C   0  0  0  0  0  0  0  0  0  0  0  0
  145.6310   72.9750  220.5770 Br  0  0  0  0  0  0  0  0  0  0  0  0
  144.0370   75.2570  220.0350 C   0  0  0  0  0  0  0  0  0  0  0  0
  142.8660   75.9920  219.9340 C   0  0  0  0  0  0  0  0  0  0  0  0
  139.5080   71.1670  223.2600 C   0  0  0  0  0  0  0  0  0  0  0  0
  140.4440   71.8880  223.9900 C   0  0  0  0  0  0  0  0  0  0  0  0
  140.9580   71.4560  225.1850 C   0  0  0  0  0  0  0  0  0  0  0  0
  140.5170   70.2480  225.6690 C   0  0  0  0  0  0  0  0  0  0  0  0
  141.0300   69.8110  226.8660 C   0  0  0  0  0  0  0  0  0  0  0  0
  140.5870   68.6030  227.3480 C   0  0  0  0  0  0  0  0  0  0  0  0
  141.2060   68.0080  228.8560 Cl  0  0  0  0  0  0  0  0  0  0  0  0
  139.6590   67.8520  226.6580 C   0  0  0  0  0  0  0  0  0  0  0  0
  139.1490   68.3140  225.4430 C   0  0  0  0  0  0  0  0  0  0  0  0
  139.5800   69.5230  224.9410 C   0  0  0  0  0  0  0  0  0  0  0  0
  139.0970   69.9940  223.7580 N   0  0  0  0  0  0  0  0  0  0  0  0
  138.5530   73.6890  222.8150 H   0  0  0  0  0  0  0  0  0  0  0  0
  138.7749   73.1561  219.8761 H   0  0  0  0  0  0  0  0  0  0  0  0
  137.0776   73.2007  220.5026 H   0  0  0  0  0  0  0  0  0  0  0  0
  138.9386   76.2058  223.0141 H   0  0  0  0  0  0  0  0  0  0  0  0
  140.3207   75.1204  222.7807 H   0  0  0  0  0  0  0  0  0  0  0  0
  140.3898   77.9811  222.9278 H   0  0  0  0  0  0  0  0  0  0  0  0
  141.7423   76.9745  222.4769 H   0  0  0  0  0  0  0  0  0  0  0  0
  139.5527   78.1913  220.6719 H   0  0  0  0  0  0  0  0  0  0  0  0
  141.2574   78.2564  220.3770 H   0  0  0  0  0  0  0  0  0  0  0  0
  140.1572   76.2301  219.0526 H   0  0  0  0  0  0  0  0  0  0  0  0
  140.6430   73.6765  220.9120 H   0  0  0  0  0  0  0  0  0  0  0  0
  142.7158   72.3469  221.0997 H   0  0  0  0  0  0  0  0  0  0  0  0
  145.0028   75.7183  219.7813 H   0  0  0  0  0  0  0  0  0  0  0  0
  142.9281   77.0378  219.5987 H   0  0  0  0  0  0  0  0  0  0  0  0
  140.7896   72.8526  223.5898 H   0  0  0  0  0  0  0  0  0  0  0  0
  141.6972   72.0551  225.7369 H   0  0  0  0  0  0  0  0  0  0  0  0
  141.7700   70.4076  227.4196 H   0  0  0  0  0  0  0  0  0  0  0  0
  139.3201   66.8879  227.0651 H   0  0  0  0  0  0  0  0  0  0  0  0
  138.4084   67.7172  224.8904 H   0  0  0  0  0  0  0  0  0  0  0  0
  1  2  2  0
  2  3  1  0
  3  4  1  0
  4  5  1  0
  5  6  2  0
  5  7  1  0
  7  8  1  0
  8  9  1  0
  9 10  1  0
 10 11  1  0
 11 12  1  0
 12 13  2  0
 13 14  1  0
 14 15  2  0
 15 16  1  0
 15 17  1  0
 17 18  2  0
  2 19  1  0
 19 20  2  0
 20 21  1  0
 21 22  2  0
 22 23  1  0
 23 24  2  0
 24 25  1  0
 24 26  1  0
 26 27  2  0
 27 28  1  0
 28 29  2  0
 11  7  1  0
 18 12  1  0
 29 19  1  0
 28 22  1  0
  3 30  1  0
  4 31  1  0
  4 32  1  0
  8 33  1  0
  8 34  1  0
  9 35  1  0
  9 36  1  0
 10 37  1  0
 10 38  1  0
 11 39  1  6
 13 40  1  0
 14 41  1  0
 17 42  1  0
 18 43  1  0
 20 44  1  0
 21 45  1  0
 23 46  1  0
 26 47  1  0
 27 48  1  0
M  END
>  <smiles>  (80) 
O=C(NCC(=O)N1CCCC1c1ccc(Br)cc1)c1ccc2cc(Cl)ccc2n1

>  <score_type>  (80) 
oracle

>  <origin>  (80) 
autodockgpu

>  <m_score__min__energy>  (80) 
-8.7799999999999994

>  <m_primary>  (80) 
energy

>  <rmsd>  (80) 
3.130859125510376

>  <m_score__min__rmsd>  (80) 
3.130859125510376

>  <meeko>  (80) 
{"free_energy": -8.36, "intermolecular_energy": -9.85, "internal_energy": -1.65, "cluster_size": 28, "cluster_id": 1, "rank_in_cluster": 15}

>  <energy>  (80) 
-8.39

>  <cluster_rmsd>  (80) 
1.7

>  <cluster>  (80) 
2

$$$$

     RDKit          3D

 48 51  0  0  0  0  0  0  0  0999 V2000
  138.8340   71.7590  220.7390 O   0  0  0  0  0  0  0  0  0  0  0  0
  138.8710   72.2280  221.9160 C   0  0  0  0  0  0  0  0  0  0  0  0
  138.5680   73.6110  222.1100 N   0  0  0  0  0  0  0  0  0  0  0  0
  138.2400   74.3730  220.9200 C   0  0  0  0  0  0  0  0  0  0  0  0
  138.3040   75.8400  221.1830 C   0  0  0  0  0  0  0  0  0  0  0  0
  137.2870   76.5360  221.4310 O   0  0  0  0  0  0  0  0  0  0  0  0
  139.5920   76.4440  221.1430 N   0  0  0  0  0  0  0  0  0  0  0  0
  140.3320   77.0980  222.2130 C   0  0  0  0  0  0  0  0  0  0  0  0
  141.2630   78.0800  221.5430 C   0  0  0  0  0  0  0  0  0  0  0  0
  140.7990   78.0270  220.1020 C   0  0  0  0  0  0  0  0  0  0  0  0
  140.4850   76.5440  219.9800 C   0  0  1  0  0  0  0  0  0  0  0  0
  141.6980   75.7060  220.1370 C   0  0  0  0  0  0  0  0  0  0  0  0
  142.9330   76.1720  219.7030 C   0  0  0  0  0  0  0  0  0  0  0  0
  144.0890   75.4130  219.8350 C   0  0  0  0  0  0  0  0  0  0  0  0
  144.0420   74.1670  220.4030 C   0  0  0  0  0  0  0  0  0  0  0  0
  145.5900   73.0630  220.6200 Br  0  0  0  0  0  0  0  0  0  0  0  0
  142.8310   73.6770  220.8430 C   0  0  0  0  0  0  0  0  0  0  0  0
  141.6870   74.4480  220.7030 C   0  0  0  0  0  0  0  0  0  0  0  0
  139.2130   71.3900  223.0550 C   0  0  0  0  0  0  0  0  0  0  0  0
  138.8880   70.0410  223.0030 C   0  0  0  0  0  0  0  0  0  0  0  0
  139.1640   69.1630  224.0190 C   0  0  0  0  0  0  0  0  0  0  0  0
  139.7910   69.6580  225.1370 C   0  0  0  0  0  0  0  0  0  0  0  0
  140.0690   68.7820  226.1580 C   0  0  0  0  0  0  0  0  0  0  0  0
  140.6960   69.2800  227.2740 C   0  0  0  0  0  0  0  0  0  0  0  0
  141.0690   68.2130  228.5910 Cl  0  0  0  0  0  0  0  0  0  0  0  0
  141.0370   70.6130  227.3710 C   0  0  0  0  0  0  0  0  0  0  0  0
  140.7460   71.4880  226.3230 C   0  0  0  0  0  0  0  0  0  0  0  0
  140.1180   71.0090  225.1940 C   0  0  0  0  0  0  0  0  0  0  0  0
  139.8230   71.8440  224.1580 N   0  0  0  0  0  0  0  0  0  0  0  0
  138.5860   74.0500  223.0750 H   0  0  0  0  0  0  0  0  0  0  0  0
  138.9553   74.1199  220.1236 H   0  0  0  0  0  0  0  0  0  0  0  0
  137.2140   74.1185  220.6157 H   0  0  0  0  0  0  0  0  0  0  0  0
  139.6412   77.6263  222.8866 H   0  0  0  0  0  0  0  0  0  0  0  0
  140.8885   76.3682  222.8194 H   0  0  0  0  0  0  0  0  0  0  0  0
  141.1468   79.0901  221.9627 H   0  0  0  0  0  0  0  0  0  0  0  0
  142.3283   77.8387  221.6735 H   0  0  0  0  0  0  0  0  0  0  0  0
  139.9062   78.6482  219.9375 H   0  0  0  0  0  0  0  0  0  0  0  0
  141.5234   78.4091  219.3677 H   0  0  0  0  0  0  0  0  0  0  0  0
  140.0741   76.2071  219.0168 H   0  0  0  0  0  0  0  0  0  0  0  0
  142.9971   77.1689  219.2424 H   0  0  0  0  0  0  0  0  0  0  0  0
  145.0495   75.8154  219.4808 H   0  0  0  0  0  0  0  0  0  0  0  0
  142.7725   72.6794  221.3028 H   0  0  0  0  0  0  0  0  0  0  0  0
  140.7297   74.0390  221.0585 H   0  0  0  0  0  0  0  0  0  0  0  0
  138.3847   69.6583  222.1029 H   0  0  0  0  0  0  0  0  0  0  0  0
  138.8931   68.0997  223.9419 H   0  0  0  0  0  0  0  0  0  0  0  0
  139.7988   67.7183  226.0843 H   0  0  0  0  0  0  0  0  0  0  0  0
  141.5390   70.9871  228.2755 H   0  0  0  0  0  0  0  0  0  0  0  0
  141.0160   72.5517  226.3979 H   0  0  0  0  0  0  0  0  0  0  0  0
  1  2  2  0
  2  3  1  0
  3  4  1  0
  4  5  1  0
  5  6  2  0
  5  7  1  0
  7  8  1  0
  8  9  1  0
  9 10  1  0
 10 11  1  0
 11 12  1  0
 12 13  2  0
 13 14  1  0
 14 15  2  0
 15 16  1  0
 15 17  1  0
 17 18  2  0
  2 19  1  0
 19 20  2  0
 20 21  1  0
 21 22  2  0
 22 23  1  0
 23 24  2  0
 24 25  1  0
 24 26  1  0
 26 27  2  0
 27 28  1  0
 28 29  2  0
 11  7  1  0
 18 12  1  0
 29 19  1  0
 28 22  1  0
  3 30  1  0
  4 31  1  0
  4 32  1  0
  8 33  1  0
  8 34  1  0
  9 35  1  0
  9 36  1  0
 10 37  1  0
 10 38  1  0
 11 39  1  6
 13 40  1  0
 14 41  1  0
 17 42  1  0
 18 43  1  0
 20 44  1  0
 21 45  1  0
 23 46  1  0
 26 47  1  0
 27 48  1  0
M  END
>  <smiles>  (81) 
O=C(NCC(=O)N1CCCC1c1ccc(Br)cc1)c1ccc2cc(Cl)ccc2n1

>  <score_type>  (81) 
oracle

>  <origin>  (81) 
autodockgpu

>  <m_score__min__energy>  (81) 
-8.7799999999999994

>  <m_primary>  (81) 
energy

>  <rmsd>  (81) 
2.287226698585988

>  <m_score__min__rmsd>  (81) 
2.287226698585988

>  <meeko>  (81) 
{"free_energy": -8.58, "intermolecular_energy": -10.07, "internal_energy": -1.65, "cluster_size": 28, "cluster_id": 1, "rank_in_cluster": 8}

>  <energy>  (81) 
-8.34

>  <cluster_rmsd>  (81) 
1.74

>  <cluster>  (81) 
2

$$$$

     RDKit          3D

 48 51  0  0  0  0  0  0  0  0999 V2000
  138.4460   71.0930  221.0060 O   0  0  0  0  0  0  0  0  0  0  0  0
  138.2920   71.5470  222.1800 C   0  0  0  0  0  0  0  0  0  0  0  0
  137.6350   72.8040  222.3450 N   0  0  0  0  0  0  0  0  0  0  0  0
  137.1930   73.4670  221.1330 C   0  0  0  0  0  0  0  0  0  0  0  0
  138.3370   73.7250  220.2110 C   0  0  0  0  0  0  0  0  0  0  0  0
  138.4440   73.1810  219.0820 O   0  0  0  0  0  0  0  0  0  0  0  0
  139.3340   74.6350  220.6630 N   0  0  0  0  0  0  0  0  0  0  0  0
  139.6220   75.0800  222.0190 C   0  0  0  0  0  0  0  0  0  0  0  0
  140.2650   76.4400  221.8890 C   0  0  0  0  0  0  0  0  0  0  0  0
  140.0910   76.7360  220.4140 C   0  0  0  0  0  0  0  0  0  0  0  0
  140.3200   75.3470  219.8380 C   0  0  1  0  0  0  0  0  0  0  0  0
  141.7000   74.8660  220.0820 C   0  0  0  0  0  0  0  0  0  0  0  0
  142.7860   75.7030  219.8500 C   0  0  0  0  0  0  0  0  0  0  0  0
  144.0920   75.2850  220.0690 C   0  0  0  0  0  0  0  0  0  0  0  0
  144.3500   74.0200  220.5270 C   0  0  0  0  0  0  0  0  0  0  0  0
  146.1210   73.3710  220.8530 Br  0  0  0  0  0  0  0  0  0  0  0  0
  143.2940   73.1660  220.7670 C   0  0  0  0  0  0  0  0  0  0  0  0
  141.9970   73.6000  220.5420 C   0  0  0  0  0  0  0  0  0  0  0  0
  138.7690   70.8140  223.3430 C   0  0  0  0  0  0  0  0  0  0  0  0
  138.4700   69.4610  223.4390 C   0  0  0  0  0  0  0  0  0  0  0  0
  138.8690   68.6780  224.4900 C   0  0  0  0  0  0  0  0  0  0  0  0
  139.5980   69.2750  225.4900 C   0  0  0  0  0  0  0  0  0  0  0  0
  140.0000   68.4940  226.5460 C   0  0  0  0  0  0  0  0  0  0  0  0
  140.7290   69.0950  227.5440 C   0  0  0  0  0  0  0  0  0  0  0  0
  141.2600   68.1490  228.8990 Cl  0  0  0  0  0  0  0  0  0  0  0  0
  141.0490   70.4350  227.4920 C   0  0  0  0  0  0  0  0  0  0  0  0
  140.6310   71.2120  226.4100 C   0  0  0  0  0  0  0  0  0  0  0  0
  139.8990   70.6300  225.3980 C   0  0  0  0  0  0  0  0  0  0  0  0
  139.4800   71.3690  224.3330 N   0  0  0  0  0  0  0  0  0  0  0  0
  137.4830   73.2250  223.3070 H   0  0  0  0  0  0  0  0  0  0  0  0
  136.4577   72.8279  220.6222 H   0  0  0  0  0  0  0  0  0  0  0  0
  136.7432   74.4323  221.4084 H   0  0  0  0  0  0  0  0  0  0  0  0
  138.6921   75.1521  222.6021 H   0  0  0  0  0  0  0  0  0  0  0  0
  140.2831   74.3725  222.5409 H   0  0  0  0  0  0  0  0  0  0  0  0
  139.7478   77.1867  222.5094 H   0  0  0  0  0  0  0  0  0  0  0  0
  141.3122   76.4674  222.2245 H   0  0  0  0  0  0  0  0  0  0  0  0
  139.0814   77.1101  220.1889 H   0  0  0  0  0  0  0  0  0  0  0  0
  140.7548   77.5180  220.0166 H   0  0  0  0  0  0  0  0  0  0  0  0
  140.2116   75.2443  218.7482 H   0  0  0  0  0  0  0  0  0  0  0  0
  142.6056   76.7241  219.4830 H   0  0  0  0  0  0  0  0  0  0  0  0
  144.9259   75.9751  219.8732 H   0  0  0  0  0  0  0  0  0  0  0  0
  143.4800   72.1462  221.1349 H   0  0  0  0  0  0  0  0  0  0  0  0
  141.1681   72.9042  220.7390 H   0  0  0  0  0  0  0  0  0  0  0  0
  137.8846   68.9957  222.6322 H   0  0  0  0  0  0  0  0  0  0  0  0
  138.6146   67.6086  224.5318 H   0  0  0  0  0  0  0  0  0  0  0  0
  139.7471   67.4244  226.5913 H   0  0  0  0  0  0  0  0  0  0  0  0
  141.6340   70.8923  228.3036 H   0  0  0  0  0  0  0  0  0  0  0  0
  140.8843   72.2815  226.3657 H   0  0  0  0  0  0  0  0  0  0  0  0
  1  2  2  0
  2  3  1  0
  3  4  1  0
  4  5  1  0
  5  6  2  0
  5  7  1  0
  7  8  1  0
  8  9  1  0
  9 10  1  0
 10 11  1  0
 11 12  1  0
 12 13  2  0
 13 14  1  0
 14 15  2  0
 15 16  1  0
 15 17  1  0
 17 18  2  0
  2 19  1  0
 19 20  2  0
 20 21  1  0
 21 22  2  0
 22 23  1  0
 23 24  2  0
 24 25  1  0
 24 26  1  0
 26 27  2  0
 27 28  1  0
 28 29  2  0
 11  7  1  0
 18 12  1  0
 29 19  1  0
 28 22  1  0
  3 30  1  0
  4 31  1  0
  4 32  1  0
  8 33  1  0
  8 34  1  0
  9 35  1  0
  9 36  1  0
 10 37  1  0
 10 38  1  0
 11 39  1  6
 13 40  1  0
 14 41  1  0
 17 42  1  0
 18 43  1  0
 20 44  1  0
 21 45  1  0
 23 46  1  0
 26 47  1  0
 27 48  1  0
M  END
>  <smiles>  (82) 
O=C(NCC(=O)N1CCCC1c1ccc(Br)cc1)c1ccc2cc(Cl)ccc2n1

>  <score_type>  (82) 
oracle

>  <origin>  (82) 
autodockgpu

>  <m_score__min__energy>  (82) 
-8.7799999999999994

>  <m_primary>  (82) 
energy

>  <rmsd>  (82) 
2.160305579302207

>  <m_score__min__rmsd>  (82) 
2.160305579302207

>  <meeko>  (82) 
{"free_energy": -8.18, "intermolecular_energy": -9.67, "internal_energy": -1.49, "cluster_size": 28, "cluster_id": 1, "rank_in_cluster": 23}

>  <energy>  (82) 
-8.27

>  <cluster_rmsd>  (82) 
1.5

>  <cluster>  (82) 
2

$$$$

     RDKit          3D

 48 51  0  0  0  0  0  0  0  0999 V2000
  138.7660   70.9270  221.0010 O   0  0  0  0  0  0  0  0  0  0  0  0
  138.9110   71.6710  222.0180 C   0  0  0  0  0  0  0  0  0  0  0  0
  138.5530   73.0500  221.9110 N   0  0  0  0  0  0  0  0  0  0  0  0
  138.0460   73.4880  220.6240 C   0  0  0  0  0  0  0  0  0  0  0  0
  138.1400   74.9700  220.4820 C   0  0  0  0  0  0  0  0  0  0  0  0
  137.2340   75.6670  219.9600 O   0  0  0  0  0  0  0  0  0  0  0  0
  139.3250   75.5870  220.9720 N   0  0  0  0  0  0  0  0  0  0  0  0
  139.7600   75.7730  222.3500 C   0  0  0  0  0  0  0  0  0  0  0  0
  140.6690   76.9800  222.3460 C   0  0  0  0  0  0  0  0  0  0  0  0
  140.4950   77.5050  220.9360 C   0  0  0  0  0  0  0  0  0  0  0  0
  140.4020   76.1920  220.1740 C   0  0  1  0  0  0  0  0  0  0  0  0
  141.6600   75.4120  220.2570 C   0  0  0  0  0  0  0  0  0  0  0  0
  141.6340   74.0790  220.6510 C   0  0  0  0  0  0  0  0  0  0  0  0
  142.7930   73.3200  220.7380 C   0  0  0  0  0  0  0  0  0  0  0  0
  144.0110   73.8700  220.4350 C   0  0  0  0  0  0  0  0  0  0  0  0
  145.6510   72.8890  220.5310 Br  0  0  0  0  0  0  0  0  0  0  0  0
  144.0690   75.1910  220.0410 C   0  0  0  0  0  0  0  0  0  0  0  0
  142.9020   75.9340  219.9590 C   0  0  0  0  0  0  0  0  0  0  0  0
  139.4300   71.1470  223.2720 C   0  0  0  0  0  0  0  0  0  0  0  0
  140.3650   71.9040  223.9670 C   0  0  0  0  0  0  0  0  0  0  0  0
  140.9180   71.5060  225.1560 C   0  0  0  0  0  0  0  0  0  0  0  0
  140.5190   70.2960  225.6710 C   0  0  0  0  0  0  0  0  0  0  0  0
  141.0710   69.8930  226.8630 C   0  0  0  0  0  0  0  0  0  0  0  0
  140.6700   68.6820  227.3750 C   0  0  0  0  0  0  0  0  0  0  0  0
  141.3380   68.1290  228.8780 Cl  0  0  0  0  0  0  0  0  0  0  0  0
  139.7450   67.8970  226.7200 C   0  0  0  0  0  0  0  0  0  0  0  0
  139.1950   68.3240  225.5100 C   0  0  0  0  0  0  0  0  0  0  0  0
  139.5840   69.5350  224.9780 C   0  0  0  0  0  0  0  0  0  0  0  0
  139.0610   69.9730  223.7990 N   0  0  0  0  0  0  0  0  0  0  0  0
  138.6570   73.7120  222.7330 H   0  0  0  0  0  0  0  0  0  0  0  0
  138.6355   73.0132  219.8259 H   0  0  0  0  0  0  0  0  0  0  0  0
  136.9875   73.1979  220.5500 H   0  0  0  0  0  0  0  0  0  0  0  0
  138.8928   75.9510  223.0029 H   0  0  0  0  0  0  0  0  0  0  0  0
  140.2797   74.8811  222.7301 H   0  0  0  0  0  0  0  0  0  0  0  0
  140.3487   77.7233  223.0910 H   0  0  0  0  0  0  0  0  0  0  0  0
  141.7125   76.7485  222.6060 H   0  0  0  0  0  0  0  0  0  0  0  0
  139.5770   78.1023  220.8333 H   0  0  0  0  0  0  0  0  0  0  0  0
  141.2898   78.1839  220.5934 H   0  0  0  0  0  0  0  0  0  0  0  0
  140.2272   76.2652  219.0904 H   0  0  0  0  0  0  0  0  0  0  0  0
  140.6692   73.6133  220.9005 H   0  0  0  0  0  0  0  0  0  0  0  0
  142.7332   72.2678  221.0530 H   0  0  0  0  0  0  0  0  0  0  0  0
  145.0365   75.6521  219.7933 H   0  0  0  0  0  0  0  0  0  0  0  0
  142.9688   76.9854  219.6426 H   0  0  0  0  0  0  0  0  0  0  0  0
  140.6765   72.8697  223.5422 H   0  0  0  0  0  0  0  0  0  0  0  0
  141.6550   72.1327  225.6795 H   0  0  0  0  0  0  0  0  0  0  0  0
  141.8080   70.5176  227.3891 H   0  0  0  0  0  0  0  0  0  0  0  0
  139.4398   66.9324  227.1517 H   0  0  0  0  0  0  0  0  0  0  0  0
  138.4572   67.6993  224.9852 H   0  0  0  0  0  0  0  0  0  0  0  0
  1  2  2  0
  2  3  1  0
  3  4  1  0
  4  5  1  0
  5  6  2  0
  5  7  1  0
  7  8  1  0
  8  9  1  0
  9 10  1  0
 10 11  1  0
 11 12  1  0
 12 13  2  0
 13 14  1  0
 14 15  2  0
 15 16  1  0
 15 17  1  0
 17 18  2  0
  2 19  1  0
 19 20  2  0
 20 21  1  0
 21 22  2  0
 22 23  1  0
 23 24  2  0
 24 25  1  0
 24 26  1  0
 26 27  2  0
 27 28  1  0
 28 29  2  0
 11  7  1  0
 18 12  1  0
 29 19  1  0
 28 22  1  0
  3 30  1  0
  4 31  1  0
  4 32  1  0
  8 33  1  0
  8 34  1  0
  9 35  1  0
  9 36  1  0
 10 37  1  0
 10 38  1  0
 11 39  1  6
 13 40  1  0
 14 41  1  0
 17 42  1  0
 18 43  1  0
 20 44  1  0
 21 45  1  0
 23 46  1  0
 26 47  1  0
 27 48  1  0
M  END
>  <smiles>  (83) 
O=C(NCC(=O)N1CCCC1c1ccc(Br)cc1)c1ccc2cc(Cl)ccc2n1

>  <score_type>  (83) 
oracle

>  <origin>  (83) 
autodockgpu

>  <m_score__min__energy>  (83) 
-8.7799999999999994

>  <m_primary>  (83) 
energy

>  <rmsd>  (83) 
3.1341423747935213

>  <m_score__min__rmsd>  (83) 
3.1341423747935213

>  <meeko>  (83) 
{"free_energy": -8.39, "intermolecular_energy": -9.88, "internal_energy": -1.58, "cluster_size": 28, "cluster_id": 1, "rank_in_cluster": 14}

>  <energy>  (83) 
-8.24

>  <cluster_rmsd>  (83) 
0.78

>  <cluster>  (83) 
2

$$$$

     RDKit          3D

 48 51  0  0  0  0  0  0  0  0999 V2000
  139.5940   71.9110  220.7440 O   0  0  0  0  0  0  0  0  0  0  0  0
  139.4600   72.3500  221.9260 C   0  0  0  0  0  0  0  0  0  0  0  0
  139.1070   73.7230  222.1090 N   0  0  0  0  0  0  0  0  0  0  0  0
  138.9290   74.5100  220.9040 C   0  0  0  0  0  0  0  0  0  0  0  0
  140.2420   74.9360  220.3380 C   0  0  0  0  0  0  0  0  0  0  0  0
  141.0880   74.1250  219.8840 O   0  0  0  0  0  0  0  0  0  0  0  0
  140.5140   76.3330  220.3290 N   0  0  0  0  0  0  0  0  0  0  0  0
  140.0930   77.3430  219.3690 C   0  0  0  0  0  0  0  0  0  0  0  0
  141.1230   78.4450  219.4370 C   0  0  0  0  0  0  0  0  0  0  0  0
  142.1850   77.8350  220.3280 C   0  0  0  0  0  0  0  0  0  0  0  0
  141.3030   77.0860  221.3150 C   0  0  1  0  0  0  0  0  0  0  0  0
  140.4610   78.0060  222.1150 C   0  0  0  0  0  0  0  0  0  0  0  0
  139.1200   77.7160  222.3360 C   0  0  0  0  0  0  0  0  0  0  0  0
  138.3030   78.5560  223.0810 C   0  0  0  0  0  0  0  0  0  0  0  0
  138.8020   79.7090  223.6260 C   0  0  0  0  0  0  0  0  0  0  0  0
  137.7400   80.9170  224.6640 Br  0  0  0  0  0  0  0  0  0  0  0  0
  140.1290   80.0250  223.4240 C   0  0  0  0  0  0  0  0  0  0  0  0
  140.9310   79.1750  222.6780 C   0  0  0  0  0  0  0  0  0  0  0  0
  139.6590   71.4880  223.0810 C   0  0  0  0  0  0  0  0  0  0  0  0
  139.2600   70.1610  222.9920 C   0  0  0  0  0  0  0  0  0  0  0  0
  139.4000   69.2640  224.0180 C   0  0  0  0  0  0  0  0  0  0  0  0
  139.9650   69.7150  225.1870 C   0  0  0  0  0  0  0  0  0  0  0  0
  140.1080   68.8200  226.2180 C   0  0  0  0  0  0  0  0  0  0  0  0
  140.6730   69.2750  227.3850 C   0  0  0  0  0  0  0  0  0  0  0  0
  140.8750   68.1810  228.7180 Cl  0  0  0  0  0  0  0  0  0  0  0  0
  141.0850   70.5840  227.5210 C   0  0  0  0  0  0  0  0  0  0  0  0
  140.9310   71.4790  226.4600 C   0  0  0  0  0  0  0  0  0  0  0  0
  140.3670   71.0440  225.2810 C   0  0  0  0  0  0  0  0  0  0  0  0
  140.2060   71.8990  224.2330 N   0  0  0  0  0  0  0  0  0  0  0  0
  138.9840   74.1360  223.0780 H   0  0  0  0  0  0  0  0  0  0  0  0
  138.3953   73.9051  220.1561 H   0  0  0  0  0  0  0  0  0  0  0  0
  138.3513   75.4107  221.1589 H   0  0  0  0  0  0  0  0  0  0  0  0
  140.0586   76.9153  218.3561 H   0  0  0  0  0  0  0  0  0  0  0  0
  139.0862   77.7208  219.6006 H   0  0  0  0  0  0  0  0  0  0  0  0
  141.5245   78.6778  218.4397 H   0  0  0  0  0  0  0  0  0  0  0  0
  140.7251   79.3990  219.8134 H   0  0  0  0  0  0  0  0  0  0  0  0
  142.8437   77.1532  219.7701 H   0  0  0  0  0  0  0  0  0  0  0  0
  142.8794   78.5571  220.7824 H   0  0  0  0  0  0  0  0  0  0  0  0
  141.8205   76.4933  222.0836 H   0  0  0  0  0  0  0  0  0  0  0  0
  138.6942   76.7960  221.9091 H   0  0  0  0  0  0  0  0  0  0  0  0
  137.2460   78.2931  223.2347 H   0  0  0  0  0  0  0  0  0  0  0  0
  140.5491   80.9468  223.8526 H   0  0  0  0  0  0  0  0  0  0  0  0
  141.9871   79.4439  222.5285 H   0  0  0  0  0  0  0  0  0  0  0  0
  138.8091   69.8127  222.0510 H   0  0  0  0  0  0  0  0  0  0  0  0
  139.0718   68.2197  223.9101 H   0  0  0  0  0  0  0  0  0  0  0  0
  139.7816   67.7748  226.1136 H   0  0  0  0  0  0  0  0  0  0  0  0
  141.5351   70.9234  228.4656 H   0  0  0  0  0  0  0  0  0  0  0  0
  141.2578   72.5240  226.5651 H   0  0  0  0  0  0  0  0  0  0  0  0
  1  2  2  0
  2  3  1  0
  3  4  1  0
  4  5  1  0
  5  6  2  0
  5  7  1  0
  7  8  1  0
  8  9  1  0
  9 10  1  0
 10 11  1  0
 11 12  1  0
 12 13  2  0
 13 14  1  0
 14 15  2  0
 15 16  1  0
 15 17  1  0
 17 18  2  0
  2 19  1  0
 19 20  2  0
 20 21  1  0
 21 22  2  0
 22 23  1  0
 23 24  2  0
 24 25  1  0
 24 26  1  0
 26 27  2  0
 27 28  1  0
 28 29  2  0
 11  7  1  0
 18 12  1  0
 29 19  1  0
 28 22  1  0
  3 30  1  0
  4 31  1  0
  4 32  1  0
  8 33  1  0
  8 34  1  0
  9 35  1  0
  9 36  1  0
 10 37  1  0
 10 38  1  0
 11 39  1  1
 13 40  1  0
 14 41  1  0
 17 42  1  0
 18 43  1  0
 20 44  1  0
 21 45  1  0
 23 46  1  0
 26 47  1  0
 27 48  1  0
M  END
>  <smiles>  (84) 
O=C(NCC(=O)N1CCCC1c1ccc(Br)cc1)c1ccc2cc(Cl)ccc2n1

>  <score_type>  (84) 
oracle

>  <origin>  (84) 
autodockgpu

>  <m_score__min__energy>  (84) 
-8.7799999999999994

>  <m_primary>  (84) 
energy

>  <rmsd>  (84) 
1.7364468315848391

>  <m_score__min__rmsd>  (84) 
1.7364468315848391

>  <meeko>  (84) 
{"free_energy": -8.24, "intermolecular_energy": -9.73, "internal_energy": -1.34, "cluster_size": 16, "cluster_id": 2, "rank_in_cluster": 5}

>  <energy>  (84) 
-8.23

>  <cluster_rmsd>  (84) 
1.69

>  <cluster>  (84) 
2

$$$$

     RDKit          3D

 48 51  0  0  0  0  0  0  0  0999 V2000
  140.7320   72.4750  221.3930 O   0  0  0  0  0  0  0  0  0  0  0  0
  139.8400   72.4380  222.2930 C   0  0  0  0  0  0  0  0  0  0  0  0
  138.6990   73.2870  222.1610 N   0  0  0  0  0  0  0  0  0  0  0  0
  138.6590   74.1360  220.9850 C   0  0  0  0  0  0  0  0  0  0  0  0
  138.1770   75.5060  221.3230 C   0  0  0  0  0  0  0  0  0  0  0  0
  137.2070   75.7210  222.0930 O   0  0  0  0  0  0  0  0  0  0  0  0
  138.8720   76.5960  220.7290 N   0  0  0  0  0  0  0  0  0  0  0  0
  138.3350   77.8110  220.1310 C   0  0  0  0  0  0  0  0  0  0  0  0
  139.3620   78.2770  219.1270 C   0  0  0  0  0  0  0  0  0  0  0  0
  140.3380   77.1200  219.1090 C   0  0  0  0  0  0  0  0  0  0  0  0
  140.3280   76.7420  220.5820 C   0  0  1  0  0  0  0  0  0  0  0  0
  140.8670   77.8260  221.4360 C   0  0  0  0  0  0  0  0  0  0  0  0
  140.4690   77.9370  222.7630 C   0  0  0  0  0  0  0  0  0  0  0  0
  140.9550   78.9400  223.5910 C   0  0  0  0  0  0  0  0  0  0  0  0
  141.8520   79.8600  223.1180 C   0  0  0  0  0  0  0  0  0  0  0  0
  142.5670   81.2700  224.1970 Br  0  0  0  0  0  0  0  0  0  0  0  0
  142.2670   79.7760  221.8050 C   0  0  0  0  0  0  0  0  0  0  0  0
  141.7720   78.7690  220.9920 C   0  0  0  0  0  0  0  0  0  0  0  0
  139.9620   71.5550  223.4430 C   0  0  0  0  0  0  0  0  0  0  0  0
  139.5480   70.2360  223.3100 C   0  0  0  0  0  0  0  0  0  0  0  0
  139.6190   69.3220  224.3280 C   0  0  0  0  0  0  0  0  0  0  0  0
  140.1250   69.7460  225.5330 C   0  0  0  0  0  0  0  0  0  0  0  0
  140.1980   68.8320  226.5570 C   0  0  0  0  0  0  0  0  0  0  0  0
  140.7040   69.2610  227.7600 C   0  0  0  0  0  0  0  0  0  0  0  0
  140.8150   68.1430  229.0840 Cl  0  0  0  0  0  0  0  0  0  0  0  0
  141.1270   70.5610  227.9390 C   0  0  0  0  0  0  0  0  0  0  0  0
  141.0450   71.4740  226.8870 C   0  0  0  0  0  0  0  0  0  0  0  0
  140.5400   71.0660  225.6710 C   0  0  0  0  0  0  0  0  0  0  0  0
  140.4510   71.9400  224.6300 N   0  0  0  0  0  0  0  0  0  0  0  0
  137.9270   73.2920  222.8880 H   0  0  0  0  0  0  0  0  0  0  0  0
  139.6709   74.2068  220.5594 H   0  0  0  0  0  0  0  0  0  0  0  0
  137.9622   73.6916  220.2591 H   0  0  0  0  0  0  0  0  0  0  0  0
  137.3798   77.5985  219.6285 H   0  0  0  0  0  0  0  0  0  0  0  0
  138.1418   78.5806  220.8928 H   0  0  0  0  0  0  0  0  0  0  0  0
  138.9096   78.4328  218.1365 H   0  0  0  0  0  0  0  0  0  0  0  0
  139.8246   79.2415  219.3832 H   0  0  0  0  0  0  0  0  0  0  0  0
  139.9819   76.2956  218.4737 H   0  0  0  0  0  0  0  0  0  0  0  0
  141.3305   77.3579  218.6988 H   0  0  0  0  0  0  0  0  0  0  0  0
  140.9388   75.8737  220.8700 H   0  0  0  0  0  0  0  0  0  0  0  0
  139.7494   77.2105  223.1683 H   0  0  0  0  0  0  0  0  0  0  0  0
  140.6165   78.9960  224.6361 H   0  0  0  0  0  0  0  0  0  0  0  0
  142.9874   80.5049  221.4054 H   0  0  0  0  0  0  0  0  0  0  0  0
  142.1149   78.7189  219.9480 H   0  0  0  0  0  0  0  0  0  0  0  0
  139.1436   69.9095  222.3405 H   0  0  0  0  0  0  0  0  0  0  0  0
  139.2825   68.2845  224.1856 H   0  0  0  0  0  0  0  0  0  0  0  0
  139.8630   67.7935  226.4181 H   0  0  0  0  0  0  0  0  0  0  0  0
  141.5295   70.8787  228.9121 H   0  0  0  0  0  0  0  0  0  0  0  0
  141.3810   72.5120  227.0270 H   0  0  0  0  0  0  0  0  0  0  0  0
  1  2  2  0
  2  3  1  0
  3  4  1  0
  4  5  1  0
  5  6  2  0
  5  7  1  0
  7  8  1  0
  8  9  1  0
  9 10  1  0
 10 11  1  0
 11 12  1  0
 12 13  2  0
 13 14  1  0
 14 15  2  0
 15 16  1  0
 15 17  1  0
 17 18  2  0
  2 19  1  0
 19 20  2  0
 20 21  1  0
 21 22  2  0
 22 23  1  0
 23 24  2  0
 24 25  1  0
 24 26  1  0
 26 27  2  0
 27 28  1  0
 28 29  2  0
 11  7  1  0
 18 12  1  0
 29 19  1  0
 28 22  1  0
  3 30  1  0
  4 31  1  0
  4 32  1  0
  8 33  1  0
  8 34  1  0
  9 35  1  0
  9 36  1  0
 10 37  1  0
 10 38  1  0
 11 39  1  6
 13 40  1  0
 14 41  1  0
 17 42  1  0
 18 43  1  0
 20 44  1  0
 21 45  1  0
 23 46  1  0
 26 47  1  0
 27 48  1  0
M  END
>  <smiles>  (85) 
O=C(NCC(=O)N1CCCC1c1ccc(Br)cc1)c1ccc2cc(Cl)ccc2n1

>  <score_type>  (85) 
oracle

>  <origin>  (85) 
autodockgpu

>  <m_score__min__energy>  (85) 
-8.7799999999999994

>  <m_primary>  (85) 
energy

>  <rmsd>  (85) 
1.760333384944405

>  <m_score__min__rmsd>  (85) 
1.760333384944405

>  <meeko>  (85) 
{"free_energy": -8.39, "intermolecular_energy": -9.88, "internal_energy": -1.35, "cluster_size": 16, "cluster_id": 2, "rank_in_cluster": 2}

>  <energy>  (85) 
-8.22

>  <cluster_rmsd>  (85) 
1.67

>  <cluster>  (85) 
2

$$$$

     RDKit          3D

 48 51  0  0  0  0  0  0  0  0999 V2000
  139.9720   74.0310  222.1000 O   0  0  0  0  0  0  0  0  0  0  0  0
  140.2870   72.8080  221.9830 C   0  0  0  0  0  0  0  0  0  0  0  0
  140.6920   72.3260  220.7000 N   0  0  0  0  0  0  0  0  0  0  0  0
  140.7090   73.2960  219.6220 C   0  0  0  0  0  0  0  0  0  0  0  0
  141.9140   74.1710  219.7010 C   0  0  0  0  0  0  0  0  0  0  0  0
  143.0590   73.7370  219.9860 O   0  0  0  0  0  0  0  0  0  0  0  0
  141.7200   75.5560  219.4350 N   0  0  0  0  0  0  0  0  0  0  0  0
  140.7510   76.1940  218.5550 C   0  0  0  0  0  0  0  0  0  0  0  0
  141.3590   77.5140  218.1450 C   0  0  0  0  0  0  0  0  0  0  0  0
  142.7640   77.4040  218.6990 C   0  0  0  0  0  0  0  0  0  0  0  0
  142.4770   76.6800  220.0050 C   0  0  1  0  0  0  0  0  0  0  0  0
  141.6500   77.4980  220.9230 C   0  0  0  0  0  0  0  0  0  0  0  0
  141.8200   78.8770  220.9780 C   0  0  0  0  0  0  0  0  0  0  0  0
  141.0620   79.6730  221.8270 C   0  0  0  0  0  0  0  0  0  0  0  0
  140.1140   79.1150  222.6430 C   0  0  0  0  0  0  0  0  0  0  0  0
  139.0300   80.1460  223.8380 Br  0  0  0  0  0  0  0  0  0  0  0  0
  139.9220   77.7500  222.6110 C   0  0  0  0  0  0  0  0  0  0  0  0
  140.6880   76.9700  221.7590 C   0  0  0  0  0  0  0  0  0  0  0  0
  140.2400   71.9020  223.1200 C   0  0  0  0  0  0  0  0  0  0  0  0
  139.6610   70.6510  222.9460 C   0  0  0  0  0  0  0  0  0  0  0  0
  139.5640   69.7230  223.9490 C   0  0  0  0  0  0  0  0  0  0  0  0
  140.0680   70.0610  225.1820 C   0  0  0  0  0  0  0  0  0  0  0  0
  139.9730   69.1330  226.1900 C   0  0  0  0  0  0  0  0  0  0  0  0
  140.4780   69.4750  227.4220 C   0  0  0  0  0  0  0  0  0  0  0  0
  140.3810   68.3360  228.7280 Cl  0  0  0  0  0  0  0  0  0  0  0  0
  141.0610   70.7050  227.6430 C   0  0  0  0  0  0  0  0  0  0  0  0
  141.1470   71.6340  226.6040 C   0  0  0  0  0  0  0  0  0  0  0  0
  140.6480   71.3120  225.3610 C   0  0  0  0  0  0  0  0  0  0  0  0
  140.7210   72.2030  224.3330 N   0  0  0  0  0  0  0  0  0  0  0  0
  140.9640   71.3120  220.5530 H   0  0  0  0  0  0  0  0  0  0  0  0
  140.7156   72.7628  218.6599 H   0  0  0  0  0  0  0  0  0  0  0  0
  139.8135   73.9287  219.7094 H   0  0  0  0  0  0  0  0  0  0  0  0
  140.5689   75.5668  217.6699 H   0  0  0  0  0  0  0  0  0  0  0  0
  139.7845   76.3377  219.0603 H   0  0  0  0  0  0  0  0  0  0  0  0
  141.3692   77.6258  217.0507 H   0  0  0  0  0  0  0  0  0  0  0  0
  140.8053   78.3894  218.5152 H   0  0  0  0  0  0  0  0  0  0  0  0
  143.4176   76.8136  218.0400 H   0  0  0  0  0  0  0  0  0  0  0  0
  143.2957   78.3609  218.8069 H   0  0  0  0  0  0  0  0  0  0  0  0
  143.3489   76.4201  220.6233 H   0  0  0  0  0  0  0  0  0  0  0  0
  142.5746   79.3498  220.3322 H   0  0  0  0  0  0  0  0  0  0  0  0
  141.2244   80.7608  221.8442 H   0  0  0  0  0  0  0  0  0  0  0  0
  139.1651   77.2826  223.2580 H   0  0  0  0  0  0  0  0  0  0  0  0
  140.5216   75.8827  221.7490 H   0  0  0  0  0  0  0  0  0  0  0  0
  139.2609   70.3931  221.9543 H   0  0  0  0  0  0  0  0  0  0  0  0
  139.0990   68.7417  223.7736 H   0  0  0  0  0  0  0  0  0  0  0  0
  139.5091   68.1506  226.0176 H   0  0  0  0  0  0  0  0  0  0  0  0
  141.4584   70.9544  228.6379 H   0  0  0  0  0  0  0  0  0  0  0  0
  141.6102   72.6166  226.7770 H   0  0  0  0  0  0  0  0  0  0  0  0
  1  2  2  0
  2  3  1  0
  3  4  1  0
  4  5  1  0
  5  6  2  0
  5  7  1  0
  7  8  1  0
  8  9  1  0
  9 10  1  0
 10 11  1  0
 11 12  1  0
 12 13  2  0
 13 14  1  0
 14 15  2  0
 15 16  1  0
 15 17  1  0
 17 18  2  0
  2 19  1  0
 19 20  2  0
 20 21  1  0
 21 22  2  0
 22 23  1  0
 23 24  2  0
 24 25  1  0
 24 26  1  0
 26 27  2  0
 27 28  1  0
 28 29  2  0
 11  7  1  0
 18 12  1  0
 29 19  1  0
 28 22  1  0
  3 30  1  0
  4 31  1  0
  4 32  1  0
  8 33  1  0
  8 34  1  0
  9 35  1  0
  9 36  1  0
 10 37  1  0
 10 38  1  0
 11 39  1  1
 13 40  1  0
 14 41  1  0
 17 42  1  0
 18 43  1  0
 20 44  1  0
 21 45  1  0
 23 46  1  0
 26 47  1  0
 27 48  1  0
M  END
>  <smiles>  (86) 
O=C(NCC(=O)N1CCCC1c1ccc(Br)cc1)c1ccc2cc(Cl)ccc2n1

>  <score_type>  (86) 
oracle

>  <origin>  (86) 
autodockgpu

>  <m_score__min__energy>  (86) 
-8.7799999999999994

>  <m_primary>  (86) 
energy

>  <rmsd>  (86) 
2.060320448529155

>  <m_score__min__rmsd>  (86) 
2.060320448529155

>  <meeko>  (86) 
{"free_energy": -8.2, "intermolecular_energy": -9.7, "internal_energy": -1.46, "cluster_size": 16, "cluster_id": 2, "rank_in_cluster": 8}

>  <energy>  (86) 
-8.2

>  <cluster_rmsd>  (86) 
1.7

>  <cluster>  (86) 
2

$$$$

     RDKit          3D

 48 51  0  0  0  0  0  0  0  0999 V2000
  138.2920   71.2030  220.9570 O   0  0  0  0  0  0  0  0  0  0  0  0
  138.2010   71.6600  222.1360 C   0  0  0  0  0  0  0  0  0  0  0  0
  137.6060   72.9450  222.3260 N   0  0  0  0  0  0  0  0  0  0  0  0
  137.1480   73.6280  221.1310 C   0  0  0  0  0  0  0  0  0  0  0  0
  138.2830   73.9200  220.2080 C   0  0  0  0  0  0  0  0  0  0  0  0
  138.3740   73.4260  219.0560 O   0  0  0  0  0  0  0  0  0  0  0  0
  139.2900   74.8040  220.6890 N   0  0  0  0  0  0  0  0  0  0  0  0
  139.5870   75.1980  222.0580 C   0  0  0  0  0  0  0  0  0  0  0  0
  140.2430   76.5560  221.9740 C   0  0  0  0  0  0  0  0  0  0  0  0
  140.0680   76.9040  220.5110 C   0  0  0  0  0  0  0  0  0  0  0  0
  140.2820   75.5340  219.8850 C   0  0  1  0  0  0  0  0  0  0  0  0
  141.6580   75.0320  220.1090 C   0  0  0  0  0  0  0  0  0  0  0  0
  141.8650   73.7370  220.5700 C   0  0  0  0  0  0  0  0  0  0  0  0
  143.1400   73.2340  220.7900 C   0  0  0  0  0  0  0  0  0  0  0  0
  144.2450   74.0100  220.5540 C   0  0  0  0  0  0  0  0  0  0  0  0
  146.0330   73.3880  220.8320 Br  0  0  0  0  0  0  0  0  0  0  0  0
  144.0720   75.2990  220.0960 C   0  0  0  0  0  0  0  0  0  0  0  0
  142.7910   75.7850  219.8830 C   0  0  0  0  0  0  0  0  0  0  0  0
  138.6880   70.9050  223.2800 C   0  0  0  0  0  0  0  0  0  0  0  0
  138.3880   69.5510  223.3550 C   0  0  0  0  0  0  0  0  0  0  0  0
  138.7960   68.7480  224.3870 C   0  0  0  0  0  0  0  0  0  0  0  0
  139.5370   69.3250  225.3900 C   0  0  0  0  0  0  0  0  0  0  0  0
  139.9480   68.5240  226.4270 C   0  0  0  0  0  0  0  0  0  0  0  0
  140.6890   69.1050  227.4290 C   0  0  0  0  0  0  0  0  0  0  0  0
  141.2310   68.1330  228.7600 Cl  0  0  0  0  0  0  0  0  0  0  0  0
  141.0110   70.4450  227.3980 C   0  0  0  0  0  0  0  0  0  0  0  0
  140.5830   71.2430  226.3350 C   0  0  0  0  0  0  0  0  0  0  0  0
  139.8390   70.6810  225.3200 C   0  0  0  0  0  0  0  0  0  0  0  0
  139.4110   71.4400  224.2730 N   0  0  0  0  0  0  0  0  0  0  0  0
  137.5070   73.3700  223.2930 H   0  0  0  0  0  0  0  0  0  0  0  0
  136.4176   72.9906  220.6111 H   0  0  0  0  0  0  0  0  0  0  0  0
  136.6877   74.5814  221.4295 H   0  0  0  0  0  0  0  0  0  0  0  0
  138.6599   75.2584  222.6469 H   0  0  0  0  0  0  0  0  0  0  0  0
  140.2432   74.4662  222.5518 H   0  0  0  0  0  0  0  0  0  0  0  0
  139.7345   77.2856  222.6214 H   0  0  0  0  0  0  0  0  0  0  0  0
  141.2912   76.5621  222.3077 H   0  0  0  0  0  0  0  0  0  0  0  0
  139.0614   77.2953  220.3022 H   0  0  0  0  0  0  0  0  0  0  0  0
  140.7388   77.6926  220.1393 H   0  0  0  0  0  0  0  0  0  0  0  0
  140.1702   75.4696  218.7926 H   0  0  0  0  0  0  0  0  0  0  0  0
  140.9948   73.0933  220.7658 H   0  0  0  0  0  0  0  0  0  0  0  0
  143.2646   72.2044  221.1566 H   0  0  0  0  0  0  0  0  0  0  0  0
  144.9456   75.9383  219.9006 H   0  0  0  0  0  0  0  0  0  0  0  0
  142.6734   76.8160  219.5179 H   0  0  0  0  0  0  0  0  0  0  0  0
  137.7936   69.1014  222.5460 H   0  0  0  0  0  0  0  0  0  0  0  0
  138.5394   67.6786  224.4119 H   0  0  0  0  0  0  0  0  0  0  0  0
  139.6932   67.4543  226.4551 H   0  0  0  0  0  0  0  0  0  0  0  0
  141.6057   70.8861  228.2115 H   0  0  0  0  0  0  0  0  0  0  0  0
  140.8378   72.3127  226.3079 H   0  0  0  0  0  0  0  0  0  0  0  0
  1  2  2  0
  2  3  1  0
  3  4  1  0
  4  5  1  0
  5  6  2  0
  5  7  1  0
  7  8  1  0
  8  9  1  0
  9 10  1  0
 10 11  1  0
 11 12  1  0
 12 13  2  0
 13 14  1  0
 14 15  2  0
 15 16  1  0
 15 17  1  0
 17 18  2  0
  2 19  1  0
 19 20  2  0
 20 21  1  0
 21 22  2  0
 22 23  1  0
 23 24  2  0
 24 25  1  0
 24 26  1  0
 26 27  2  0
 27 28  1  0
 28 29  2  0
 11  7  1  0
 18 12  1  0
 29 19  1  0
 28 22  1  0
  3 30  1  0
  4 31  1  0
  4 32  1  0
  8 33  1  0
  8 34  1  0
  9 35  1  0
  9 36  1  0
 10 37  1  0
 10 38  1  0
 11 39  1  6
 13 40  1  0
 14 41  1  0
 17 42  1  0
 18 43  1  0
 20 44  1  0
 21 45  1  0
 23 46  1  0
 26 47  1  0
 27 48  1  0
M  END
>  <smiles>  (87) 
O=C(NCC(=O)N1CCCC1c1ccc(Br)cc1)c1ccc2cc(Cl)ccc2n1

>  <score_type>  (87) 
oracle

>  <origin>  (87) 
autodockgpu

>  <m_score__min__energy>  (87) 
-8.7799999999999994

>  <m_primary>  (87) 
energy

>  <rmsd>  (87) 
2.1845616621841284

>  <m_score__min__rmsd>  (87) 
2.1845616621841284

>  <meeko>  (87) 
{"free_energy": -8.19, "intermolecular_energy": -9.68, "internal_energy": -1.51, "cluster_size": 28, "cluster_id": 1, "rank_in_cluster": 20}

>  <energy>  (87) 
-8.18

>  <cluster_rmsd>  (87) 
1.68

>  <cluster>  (87) 
2

$$$$

     RDKit          3D

 48 51  0  0  0  0  0  0  0  0999 V2000
  138.5790   70.9180  221.2900 O   0  0  0  0  0  0  0  0  0  0  0  0
  138.7640   71.6620  222.3010 C   0  0  0  0  0  0  0  0  0  0  0  0
  138.4080   73.0420  222.2070 N   0  0  0  0  0  0  0  0  0  0  0  0
  137.8550   73.4820  220.9400 C   0  0  0  0  0  0  0  0  0  0  0  0
  138.9230   73.6400  219.9110 C   0  0  0  0  0  0  0  0  0  0  0  0
  138.9700   72.9510  218.8610 O   0  0  0  0  0  0  0  0  0  0  0  0
  139.9170   74.6270  220.1630 N   0  0  0  0  0  0  0  0  0  0  0  0
  140.5190   75.5800  219.2400 C   0  0  0  0  0  0  0  0  0  0  0  0
  141.8820   75.9070  219.8010 C   0  0  0  0  0  0  0  0  0  0  0  0
  142.0070   74.9110  220.9360 C   0  0  0  0  0  0  0  0  0  0  0  0
  140.5750   74.9110  221.4470 C   0  0  1  0  0  0  0  0  0  0  0  0
  140.1810   76.2310  221.9930 C   0  0  0  0  0  0  0  0  0  0  0  0
  138.8470   76.6210  221.9910 C   0  0  0  0  0  0  0  0  0  0  0  0
  138.4430   77.8500  222.4960 C   0  0  0  0  0  0  0  0  0  0  0  0
  139.3610   78.7250  223.0160 C   0  0  0  0  0  0  0  0  0  0  0  0
  138.8830   80.4350  223.7290 Br  0  0  0  0  0  0  0  0  0  0  0  0
  140.6920   78.3660  223.0320 C   0  0  0  0  0  0  0  0  0  0  0  0
  141.0780   77.1360  222.5240 C   0  0  0  0  0  0  0  0  0  0  0  0
  139.3270   71.1360  223.5350 C   0  0  0  0  0  0  0  0  0  0  0  0
  140.2970   71.8830  224.1890 C   0  0  0  0  0  0  0  0  0  0  0  0
  140.8930   71.4820  225.3570 C   0  0  0  0  0  0  0  0  0  0  0  0
  140.5010   70.2790  225.8920 C   0  0  0  0  0  0  0  0  0  0  0  0
  141.0950   69.8730  227.0620 C   0  0  0  0  0  0  0  0  0  0  0  0
  140.7010   68.6680  227.5940 C   0  0  0  0  0  0  0  0  0  0  0  0
  141.4230   68.1120  229.0710 Cl  0  0  0  0  0  0  0  0  0  0  0  0
  139.7410   67.8920  226.9790 C   0  0  0  0  0  0  0  0  0  0  0  0
  139.1490   68.3220  225.7900 C   0  0  0  0  0  0  0  0  0  0  0  0
  139.5300   69.5260  225.2390 C   0  0  0  0  0  0  0  0  0  0  0  0
  138.9650   69.9670  224.0800 N   0  0  0  0  0  0  0  0  0  0  0  0
  138.5450   73.7040  223.0250 H   0  0  0  0  0  0  0  0  0  0  0  0
  137.1258   72.7371  220.5888 H   0  0  0  0  0  0  0  0  0  0  0  0
  137.3704   74.4578  221.0916 H   0  0  0  0  0  0  0  0  0  0  0  0
  140.6157   75.1329  218.2396 H   0  0  0  0  0  0  0  0  0  0  0  0
  139.9005   76.4839  219.1375 H   0  0  0  0  0  0  0  0  0  0  0  0
  142.6700   75.7555  219.0486 H   0  0  0  0  0  0  0  0  0  0  0  0
  141.9896   76.9547  220.1184 H   0  0  0  0  0  0  0  0  0  0  0  0
  142.3117   73.9174  220.5754 H   0  0  0  0  0  0  0  0  0  0  0  0
  142.7678   75.1613  221.6901 H   0  0  0  0  0  0  0  0  0  0  0  0
  140.3498   74.2235  222.2756 H   0  0  0  0  0  0  0  0  0  0  0  0
  138.0905   75.9375  221.5781 H   0  0  0  0  0  0  0  0  0  0  0  0
  137.3777   78.1234  222.4785 H   0  0  0  0  0  0  0  0  0  0  0  0
  141.4444   79.0532  223.4463 H   0  0  0  0  0  0  0  0  0  0  0  0
  142.1450   76.8693  222.5447 H   0  0  0  0  0  0  0  0  0  0  0  0
  140.6025   72.8437  223.7488 H   0  0  0  0  0  0  0  0  0  0  0  0
  141.6578   72.1016  225.8481 H   0  0  0  0  0  0  0  0  0  0  0  0
  141.8594   70.4905  227.5562 H   0  0  0  0  0  0  0  0  0  0  0  0
  139.4412   66.9327  227.4261 H   0  0  0  0  0  0  0  0  0  0  0  0
  138.3841   67.7042  225.2968 H   0  0  0  0  0  0  0  0  0  0  0  0
  1  2  2  0
  2  3  1  0
  3  4  1  0
  4  5  1  0
  5  6  2  0
  5  7  1  0
  7  8  1  0
  8  9  1  0
  9 10  1  0
 10 11  1  0
 11 12  1  0
 12 13  2  0
 13 14  1  0
 14 15  2  0
 15 16  1  0
 15 17  1  0
 17 18  2  0
  2 19  1  0
 19 20  2  0
 20 21  1  0
 21 22  2  0
 22 23  1  0
 23 24  2  0
 24 25  1  0
 24 26  1  0
 26 27  2  0
 27 28  1  0
 28 29  2  0
 11  7  1  0
 18 12  1  0
 29 19  1  0
 28 22  1  0
  3 30  1  0
  4 31  1  0
  4 32  1  0
  8 33  1  0
  8 34  1  0
  9 35  1  0
  9 36  1  0
 10 37  1  0
 10 38  1  0
 11 39  1  1
 13 40  1  0
 14 41  1  0
 17 42  1  0
 18 43  1  0
 20 44  1  0
 21 45  1  0
 23 46  1  0
 26 47  1  0
 27 48  1  0
M  END
>  <smiles>  (88) 
O=C(NCC(=O)N1CCCC1c1ccc(Br)cc1)c1ccc2cc(Cl)ccc2n1

>  <score_type>  (88) 
oracle

>  <origin>  (88) 
autodockgpu

>  <m_score__min__energy>  (88) 
-8.7799999999999994

>  <m_primary>  (88) 
energy

>  <rmsd>  (88) 
2.886778109768061

>  <m_score__min__rmsd>  (88) 
2.886778109768061

>  <meeko>  (88) 
{"free_energy": -8.07, "intermolecular_energy": -9.56, "internal_energy": -1.49, "cluster_size": 16, "cluster_id": 2, "rank_in_cluster": 13}

>  <energy>  (88) 
-8.17

>  <cluster_rmsd>  (88) 
1.99

>  <cluster>  (88) 
2

$$$$

     RDKit          3D

 48 51  0  0  0  0  0  0  0  0999 V2000
  140.8200   72.4560  220.8500 O   0  0  0  0  0  0  0  0  0  0  0  0
  140.2220   72.7850  221.9190 C   0  0  0  0  0  0  0  0  0  0  0  0
  139.5730   74.0560  221.9750 N   0  0  0  0  0  0  0  0  0  0  0  0
  139.6560   74.8770  220.7820 C   0  0  0  0  0  0  0  0  0  0  0  0
  140.8940   75.7090  220.7840 C   0  0  0  0  0  0  0  0  0  0  0  0
  142.0440   75.2250  220.9320 O   0  0  0  0  0  0  0  0  0  0  0  0
  140.7250   77.1110  220.6060 N   0  0  0  0  0  0  0  0  0  0  0  0
  139.8690   77.8200  219.6660 C   0  0  0  0  0  0  0  0  0  0  0  0
  140.5140   79.1670  219.4410 C   0  0  0  0  0  0  0  0  0  0  0  0
  141.8400   79.0090  220.1550 C   0  0  0  0  0  0  0  0  0  0  0  0
  141.3980   78.1840  221.3530 C   0  0  1  0  0  0  0  0  0  0  0  0
  140.4580   78.9290  222.2230 C   0  0  0  0  0  0  0  0  0  0  0  0
  139.2540   78.3530  222.6110 C   0  0  0  0  0  0  0  0  0  0  0  0
  138.3510   79.0230  223.4250 C   0  0  0  0  0  0  0  0  0  0  0  0
  138.6240   80.2880  223.8750 C   0  0  0  0  0  0  0  0  0  0  0  0
  137.4310   81.2750  224.9990 Br  0  0  0  0  0  0  0  0  0  0  0  0
  139.8110   80.8860  223.5080 C   0  0  0  0  0  0  0  0  0  0  0  0
  140.7010   80.2030  222.6940 C   0  0  0  0  0  0  0  0  0  0  0  0
  140.1900   71.8980  223.0720 C   0  0  0  0  0  0  0  0  0  0  0  0
  139.6210   70.6390  222.9210 C   0  0  0  0  0  0  0  0  0  0  0  0
  139.5390   69.7270  223.9400 C   0  0  0  0  0  0  0  0  0  0  0  0
  140.0460   70.0890  225.1640 C   0  0  0  0  0  0  0  0  0  0  0  0
  139.9660   69.1770  226.1880 C   0  0  0  0  0  0  0  0  0  0  0  0
  140.4740   69.5440  227.4110 C   0  0  0  0  0  0  0  0  0  0  0  0
  140.3960   68.4260  228.7370 Cl  0  0  0  0  0  0  0  0  0  0  0  0
  141.0480   70.7830  227.6080 C   0  0  0  0  0  0  0  0  0  0  0  0
  141.1200   71.6960  226.5540 C   0  0  0  0  0  0  0  0  0  0  0  0
  140.6160   71.3490  225.3200 C   0  0  0  0  0  0  0  0  0  0  0  0
  140.6760   72.2230  224.2770 N   0  0  0  0  0  0  0  0  0  0  0  0
  139.0600   74.3760  222.8470 H   0  0  0  0  0  0  0  0  0  0  0  0
  139.6643   74.2238  219.8970 H   0  0  0  0  0  0  0  0  0  0  0  0
  138.7852   75.5488  220.7606 H   0  0  0  0  0  0  0  0  0  0  0  0
  139.8028   77.2659  218.7180 H   0  0  0  0  0  0  0  0  0  0  0  0
  138.8463   77.9259  220.0569 H   0  0  0  0  0  0  0  0  0  0  0  0
  140.6593   79.3657  218.3689 H   0  0  0  0  0  0  0  0  0  0  0  0
  139.9125   80.0118  219.8078 H   0  0  0  0  0  0  0  0  0  0  0  0
  142.5746   78.4712  219.5376 H   0  0  0  0  0  0  0  0  0  0  0  0
  142.3474   79.9526  220.4041 H   0  0  0  0  0  0  0  0  0  0  0  0
  142.1882   77.8726  222.0520 H   0  0  0  0  0  0  0  0  0  0  0  0
  139.0100   77.3383  222.2634 H   0  0  0  0  0  0  0  0  0  0  0  0
  137.4081   78.5341  223.7112 H   0  0  0  0  0  0  0  0  0  0  0  0
  140.0505   81.9004  223.8596 H   0  0  0  0  0  0  0  0  0  0  0  0
  141.6418   80.6980  222.4112 H   0  0  0  0  0  0  0  0  0  0  0  0
  139.2172   70.3615  221.9362 H   0  0  0  0  0  0  0  0  0  0  0  0
  139.0826   68.7385  223.7832 H   0  0  0  0  0  0  0  0  0  0  0  0
  139.5111   68.1873  226.0344 H   0  0  0  0  0  0  0  0  0  0  0  0
  141.4493   71.0518  228.5963 H   0  0  0  0  0  0  0  0  0  0  0  0
  141.5759   72.6852  226.7080 H   0  0  0  0  0  0  0  0  0  0  0  0
  1  2  2  0
  2  3  1  0
  3  4  1  0
  4  5  1  0
  5  6  2  0
  5  7  1  0
  7  8  1  0
  8  9  1  0
  9 10  1  0
 10 11  1  0
 11 12  1  0
 12 13  2  0
 13 14  1  0
 14 15  2  0
 15 16  1  0
 15 17  1  0
 17 18  2  0
  2 19  1  0
 19 20  2  0
 20 21  1  0
 21 22  2  0
 22 23  1  0
 23 24  2  0
 24 25  1  0
 24 26  1  0
 26 27  2  0
 27 28  1  0
 28 29  2  0
 11  7  1  0
 18 12  1  0
 29 19  1  0
 28 22  1  0
  3 30  1  0
  4 31  1  0
  4 32  1  0
  8 33  1  0
  8 34  1  0
  9 35  1  0
  9 36  1  0
 10 37  1  0
 10 38  1  0
 11 39  1  1
 13 40  1  0
 14 41  1  0
 17 42  1  0
 18 43  1  0
 20 44  1  0
 21 45  1  0
 23 46  1  0
 26 47  1  0
 27 48  1  0
M  END
>  <smiles>  (89) 
O=C(NCC(=O)N1CCCC1c1ccc(Br)cc1)c1ccc2cc(Cl)ccc2n1

>  <score_type>  (89) 
oracle

>  <origin>  (89) 
autodockgpu

>  <m_score__min__energy>  (89) 
-8.7799999999999994

>  <m_primary>  (89) 
energy

>  <rmsd>  (89) 
2.10120365023574

>  <m_score__min__rmsd>  (89) 
2.10120365023574

>  <meeko>  (89) 
{"free_energy": -8.44, "intermolecular_energy": -9.93, "internal_energy": -1.19, "cluster_size": 16, "cluster_id": 2, "rank_in_cluster": 1}

>  <energy>  (89) 
-8.12

>  <cluster_rmsd>  (89) 
0.95

>  <cluster>  (89) 
2

$$$$

     RDKit          3D

 48 51  0  0  0  0  0  0  0  0999 V2000
  138.5950   70.9780  221.1760 O   0  0  0  0  0  0  0  0  0  0  0  0
  138.6500   71.6760  222.2330 C   0  0  0  0  0  0  0  0  0  0  0  0
  138.1180   73.0020  222.2040 N   0  0  0  0  0  0  0  0  0  0  0  0
  137.5520   73.4440  220.9430 C   0  0  0  0  0  0  0  0  0  0  0  0
  138.6170   73.6800  219.9260 C   0  0  0  0  0  0  0  0  0  0  0  0
  138.6690   73.0630  218.8320 O   0  0  0  0  0  0  0  0  0  0  0  0
  139.6020   74.6570  220.2430 N   0  0  0  0  0  0  0  0  0  0  0  0
  139.8000   75.3900  221.4860 C   0  0  0  0  0  0  0  0  0  0  0  0
  140.4890   76.6800  221.1100 C   0  0  0  0  0  0  0  0  0  0  0  0
  140.4340   76.6410  219.5970 C   0  0  0  0  0  0  0  0  0  0  0  0
  140.6670   75.1570  219.3620 C   0  0  1  0  0  0  0  0  0  0  0  0
  142.0110   74.7280  219.8160 C   0  0  0  0  0  0  0  0  0  0  0  0
  143.0990   75.5840  219.6930 C   0  0  0  0  0  0  0  0  0  0  0  0
  144.3720   75.2140  220.1080 C   0  0  0  0  0  0  0  0  0  0  0  0
  144.5930   73.9790  220.6580 C   0  0  0  0  0  0  0  0  0  0  0  0
  146.3160   73.3970  221.2530 Br  0  0  0  0  0  0  0  0  0  0  0  0
  143.5330   73.1070  220.7930 C   0  0  0  0  0  0  0  0  0  0  0  0
  142.2700   73.4930  220.3730 C   0  0  0  0  0  0  0  0  0  0  0  0
  139.2380   71.1540  223.4560 C   0  0  0  0  0  0  0  0  0  0  0  0
  140.2280   71.9000  224.0850 C   0  0  0  0  0  0  0  0  0  0  0  0
  140.8480   71.5010  225.2400 C   0  0  0  0  0  0  0  0  0  0  0  0
  140.4630   70.3020  225.7900 C   0  0  0  0  0  0  0  0  0  0  0  0
  141.0820   69.8990  226.9480 C   0  0  0  0  0  0  0  0  0  0  0  0
  140.6940   68.6990  227.4950 C   0  0  0  0  0  0  0  0  0  0  0  0
  141.4470   68.1460  228.9570 Cl  0  0  0  0  0  0  0  0  0  0  0  0
  139.7170   67.9250  226.9060 C   0  0  0  0  0  0  0  0  0  0  0  0
  139.0990   68.3520  225.7300 C   0  0  0  0  0  0  0  0  0  0  0  0
  139.4730   69.5520  225.1640 C   0  0  0  0  0  0  0  0  0  0  0  0
  138.8840   69.9890  224.0160 N   0  0  0  0  0  0  0  0  0  0  0  0
  138.1410   73.6250  223.0620 H   0  0  0  0  0  0  0  0  0  0  0  0
  136.8635   72.6721  220.5688 H   0  0  0  0  0  0  0  0  0  0  0  0
  137.0183   74.3905  221.1139 H   0  0  0  0  0  0  0  0  0  0  0  0
  138.8314   75.6002  221.9630 H   0  0  0  0  0  0  0  0  0  0  0  0
  140.4000   74.8094  222.2022 H   0  0  0  0  0  0  0  0  0  0  0  0
  139.9480   77.5517  221.5067 H   0  0  0  0  0  0  0  0  0  0  0  0
  141.5084   76.7707  221.5132 H   0  0  0  0  0  0  0  0  0  0  0  0
  139.4547   76.9658  219.2157 H   0  0  0  0  0  0  0  0  0  0  0  0
  141.1473   77.3077  219.0903 H   0  0  0  0  0  0  0  0  0  0  0  0
  140.6384   74.8155  218.3167 H   0  0  0  0  0  0  0  0  0  0  0  0
  142.9479   76.5817  219.2551 H   0  0  0  0  0  0  0  0  0  0  0  0
  145.2092   75.9183  219.9941 H   0  0  0  0  0  0  0  0  0  0  0  0
  143.6893   72.1104  221.2317 H   0  0  0  0  0  0  0  0  0  0  0  0
  141.4376   72.7834  220.4889 H   0  0  0  0  0  0  0  0  0  0  0  0
  140.5283   72.8571  223.6337 H   0  0  0  0  0  0  0  0  0  0  0  0
  141.6269   72.1190  225.7106 H   0  0  0  0  0  0  0  0  0  0  0  0
  141.8610   70.5149  227.4211 H   0  0  0  0  0  0  0  0  0  0  0  0
  139.4240   66.9688  227.3640 H   0  0  0  0  0  0  0  0  0  0  0  0
  138.3194   67.7358  225.2583 H   0  0  0  0  0  0  0  0  0  0  0  0
  1  2  2  0
  2  3  1  0
  3  4  1  0
  4  5  1  0
  5  6  2  0
  5  7  1  0
  7  8  1  0
  8  9  1  0
  9 10  1  0
 10 11  1  0
 11 12  1  0
 12 13  2  0
 13 14  1  0
 14 15  2  0
 15 16  1  0
 15 17  1  0
 17 18  2  0
  2 19  1  0
 19 20  2  0
 20 21  1  0
 21 22  2  0
 22 23  1  0
 23 24  2  0
 24 25  1  0
 24 26  1  0
 26 27  2  0
 27 28  1  0
 28 29  2  0
 11  7  1  0
 18 12  1  0
 29 19  1  0
 28 22  1  0
  3 30  1  0
  4 31  1  0
  4 32  1  0
  8 33  1  0
  8 34  1  0
  9 35  1  0
  9 36  1  0
 10 37  1  0
 10 38  1  0
 11 39  1  6
 13 40  1  0
 14 41  1  0
 17 42  1  0
 18 43  1  0
 20 44  1  0
 21 45  1  0
 23 46  1  0
 26 47  1  0
 27 48  1  0
M  END
>  <smiles>  (90) 
O=C(NCC(=O)N1CCCC1c1ccc(Br)cc1)c1ccc2cc(Cl)ccc2n1

>  <score_type>  (90) 
oracle

>  <origin>  (90) 
autodockgpu

>  <m_score__min__energy>  (90) 
-8.7799999999999994

>  <m_primary>  (90) 
energy

>  <rmsd>  (90) 
2.888789175089945

>  <m_score__min__rmsd>  (90) 
2.888789175089945

>  <meeko>  (90) 
{"free_energy": -8.17, "intermolecular_energy": -9.67, "internal_energy": -1.55, "cluster_size": 28, "cluster_id": 1, "rank_in_cluster": 24}

>  <energy>  (90) 
-8.09

>  <cluster_rmsd>  (90) 
1.6

>  <cluster>  (90) 
2

$$$$

     RDKit          3D

 48 51  0  0  0  0  0  0  0  0999 V2000
  138.8820   71.6110  220.7770 O   0  0  0  0  0  0  0  0  0  0  0  0
  138.9010   72.1140  221.9400 C   0  0  0  0  0  0  0  0  0  0  0  0
  138.5780   73.4980  222.0920 N   0  0  0  0  0  0  0  0  0  0  0  0
  138.2500   74.2220  220.8790 C   0  0  0  0  0  0  0  0  0  0  0  0
  138.2350   75.6940  221.1150 C   0  0  0  0  0  0  0  0  0  0  0  0
  137.1750   76.3640  221.1940 O   0  0  0  0  0  0  0  0  0  0  0  0
  139.4980   76.3350  221.2540 N   0  0  0  0  0  0  0  0  0  0  0  0
  140.1560   76.8150  222.4610 C   0  0  0  0  0  0  0  0  0  0  0  0
  141.0800   77.9270  222.0240 C   0  0  0  0  0  0  0  0  0  0  0  0
  140.6920   78.1120  220.5720 C   0  0  0  0  0  0  0  0  0  0  0  0
  140.4450   76.6650  220.1780 C   0  0  1  0  0  0  0  0  0  0  0  0
  141.6800   75.8500  220.2560 C   0  0  0  0  0  0  0  0  0  0  0  0
  142.8860   76.3580  219.7870 C   0  0  0  0  0  0  0  0  0  0  0  0
  144.0620   75.6220  219.8450 C   0  0  0  0  0  0  0  0  0  0  0  0
  144.0670   74.3580  220.3730 C   0  0  0  0  0  0  0  0  0  0  0  0
  145.6460   73.2830  220.4880 Br  0  0  0  0  0  0  0  0  0  0  0  0
  142.8860   73.8260  220.8460 C   0  0  0  0  0  0  0  0  0  0  0  0
  141.7210   74.5740  220.7800 C   0  0  0  0  0  0  0  0  0  0  0  0
  139.2430   71.3130  223.1050 C   0  0  0  0  0  0  0  0  0  0  0  0
  138.9320   69.9590  223.0900 C   0  0  0  0  0  0  0  0  0  0  0  0
  139.2090   69.1140  224.1330 C   0  0  0  0  0  0  0  0  0  0  0  0
  139.8230   69.6470  225.2400 C   0  0  0  0  0  0  0  0  0  0  0  0
  140.1030   68.8040  226.2880 C   0  0  0  0  0  0  0  0  0  0  0  0
  140.7170   69.3410  227.3940 C   0  0  0  0  0  0  0  0  0  0  0  0
  141.0910   68.3160  228.7430 Cl  0  0  0  0  0  0  0  0  0  0  0  0
  141.0440   70.6790  227.4540 C   0  0  0  0  0  0  0  0  0  0  0  0
  140.7520   71.5200  226.3790 C   0  0  0  0  0  0  0  0  0  0  0  0
  140.1360   71.0030  225.2600 C   0  0  0  0  0  0  0  0  0  0  0  0
  139.8410   71.8040  224.1990 N   0  0  0  0  0  0  0  0  0  0  0  0
  138.5800   73.9630  223.0450 H   0  0  0  0  0  0  0  0  0  0  0  0
  139.0005   73.9900  220.1090 H   0  0  0  0  0  0  0  0  0  0  0  0
  137.2470   73.9125  220.5500 H   0  0  0  0  0  0  0  0  0  0  0  0
  139.4114   77.1966  223.1751 H   0  0  0  0  0  0  0  0  0  0  0  0
  140.7097   76.0081  222.9633 H   0  0  0  0  0  0  0  0  0  0  0  0
  140.9026   78.8444  222.6044 H   0  0  0  0  0  0  0  0  0  0  0  0
  142.1461   77.6992  222.1710 H   0  0  0  0  0  0  0  0  0  0  0  0
  139.7842   78.7243  220.4669 H   0  0  0  0  0  0  0  0  0  0  0  0
  141.4366   78.6388  219.9571 H   0  0  0  0  0  0  0  0  0  0  0  0
  140.0977   76.4898  219.1491 H   0  0  0  0  0  0  0  0  0  0  0  0
  142.9093   77.3707  219.3582 H   0  0  0  0  0  0  0  0  0  0  0  0
  144.9974   76.0576  219.4638 H   0  0  0  0  0  0  0  0  0  0  0  0
  142.8686   72.8127  221.2737 H   0  0  0  0  0  0  0  0  0  0  0  0
  140.7890   74.1315  221.1617 H   0  0  0  0  0  0  0  0  0  0  0  0
  138.4396   69.5450  222.1977 H   0  0  0  0  0  0  0  0  0  0  0  0
  138.9487   68.0463  224.0852 H   0  0  0  0  0  0  0  0  0  0  0  0
  139.8446   67.7357  226.2434 H   0  0  0  0  0  0  0  0  0  0  0  0
  141.5358   71.0844  228.3505 H   0  0  0  0  0  0  0  0  0  0  0  0
  141.0117   72.5879  226.4247 H   0  0  0  0  0  0  0  0  0  0  0  0
  1  2  2  0
  2  3  1  0
  3  4  1  0
  4  5  1  0
  5  6  2  0
  5  7  1  0
  7  8  1  0
  8  9  1  0
  9 10  1  0
 10 11  1  0
 11 12  1  0
 12 13  2  0
 13 14  1  0
 14 15  2  0
 15 16  1  0
 15 17  1  0
 17 18  2  0
  2 19  1  0
 19 20  2  0
 20 21  1  0
 21 22  2  0
 22 23  1  0
 23 24  2  0
 24 25  1  0
 24 26  1  0
 26 27  2  0
 27 28  1  0
 28 29  2  0
 11  7  1  0
 18 12  1  0
 29 19  1  0
 28 22  1  0
  3 30  1  0
  4 31  1  0
  4 32  1  0
  8 33  1  0
  8 34  1  0
  9 35  1  0
  9 36  1  0
 10 37  1  0
 10 38  1  0
 11 39  1  6
 13 40  1  0
 14 41  1  0
 17 42  1  0
 18 43  1  0
 20 44  1  0
 21 45  1  0
 23 46  1  0
 26 47  1  0
 27 48  1  0
M  END
>  <smiles>  (91) 
O=C(NCC(=O)N1CCCC1c1ccc(Br)cc1)c1ccc2cc(Cl)ccc2n1

>  <score_type>  (91) 
oracle

>  <origin>  (91) 
autodockgpu

>  <m_score__min__energy>  (91) 
-8.7799999999999994

>  <m_primary>  (91) 
energy

>  <rmsd>  (91) 
2.35765705071359

>  <m_score__min__rmsd>  (91) 
2.35765705071359

>  <meeko>  (91) 
{"free_energy": -8.64, "intermolecular_energy": -10.13, "internal_energy": -1.65, "cluster_size": 28, "cluster_id": 1, "rank_in_cluster": 4}

>  <energy>  (91) 
-8.07

>  <cluster_rmsd>  (91) 
1.62

>  <cluster>  (91) 
2

$$$$

     RDKit          3D

 48 51  0  0  0  0  0  0  0  0999 V2000
  138.8270   70.9420  221.2340 O   0  0  0  0  0  0  0  0  0  0  0  0
  138.8830   71.6530  222.2820 C   0  0  0  0  0  0  0  0  0  0  0  0
  138.4100   73.0000  222.2200 N   0  0  0  0  0  0  0  0  0  0  0  0
  137.8980   73.4470  220.9390 C   0  0  0  0  0  0  0  0  0  0  0  0
  138.9930   73.5780  219.9350 C   0  0  0  0  0  0  0  0  0  0  0  0
  139.0950   72.8300  218.9300 O   0  0  0  0  0  0  0  0  0  0  0  0
  139.9480   74.6100  220.1580 N   0  0  0  0  0  0  0  0  0  0  0  0
  140.4660   75.5980  219.2220 C   0  0  0  0  0  0  0  0  0  0  0  0
  141.8330   75.9860  219.7330 C   0  0  0  0  0  0  0  0  0  0  0  0
  142.0510   74.9890  220.8510 C   0  0  0  0  0  0  0  0  0  0  0  0
  140.6410   74.9150  221.4180 C   0  0  1  0  0  0  0  0  0  0  0  0
  140.2060   76.2100  221.9920 C   0  0  0  0  0  0  0  0  0  0  0  0
  138.8610   76.5590  221.9960 C   0  0  0  0  0  0  0  0  0  0  0  0
  138.4190   77.7640  222.5270 C   0  0  0  0  0  0  0  0  0  0  0  0
  139.3090   78.6540  223.0680 C   0  0  0  0  0  0  0  0  0  0  0  0
  138.7770   80.3330  223.8180 Br  0  0  0  0  0  0  0  0  0  0  0  0
  140.6500   78.3370  223.0790 C   0  0  0  0  0  0  0  0  0  0  0  0
  141.0740   77.1300  222.5440 C   0  0  0  0  0  0  0  0  0  0  0  0
  139.4150   71.1240  223.5280 C   0  0  0  0  0  0  0  0  0  0  0  0
  140.3490   71.8820  224.2230 C   0  0  0  0  0  0  0  0  0  0  0  0
  140.9140   71.4790  225.4040 C   0  0  0  0  0  0  0  0  0  0  0  0
  140.5280   70.2620  225.9130 C   0  0  0  0  0  0  0  0  0  0  0  0
  141.0910   69.8540  227.0970 C   0  0  0  0  0  0  0  0  0  0  0  0
  140.7040   68.6360  227.6030 C   0  0  0  0  0  0  0  0  0  0  0  0
  141.3880   68.0770  229.0970 Cl  0  0  0  0  0  0  0  0  0  0  0  0
  139.7800   67.8490  226.9490 C   0  0  0  0  0  0  0  0  0  0  0  0
  139.2190   68.2820  225.7460 C   0  0  0  0  0  0  0  0  0  0  0  0
  139.5940   69.4990  225.2210 C   0  0  0  0  0  0  0  0  0  0  0  0
  139.0590   69.9420  224.0490 N   0  0  0  0  0  0  0  0  0  0  0  0
  138.4370   73.6340  223.0700 H   0  0  0  0  0  0  0  0  0  0  0  0
  137.1612   72.7169  220.5728 H   0  0  0  0  0  0  0  0  0  0  0  0
  137.4319   74.4339  221.0760 H   0  0  0  0  0  0  0  0  0  0  0  0
  140.5446   75.1642  218.2142 H   0  0  0  0  0  0  0  0  0  0  0  0
  139.8012   76.4716  219.1524 H   0  0  0  0  0  0  0  0  0  0  0  0
  142.5970   75.8794  218.9488 H   0  0  0  0  0  0  0  0  0  0  0  0
  141.9021   77.0349  220.0570 H   0  0  0  0  0  0  0  0  0  0  0  0
  142.3889   74.0145  220.4687 H   0  0  0  0  0  0  0  0  0  0  0  0
  142.8281   75.2698  221.5771 H   0  0  0  0  0  0  0  0  0  0  0  0
  140.4817   74.2107  222.2478 H   0  0  0  0  0  0  0  0  0  0  0  0
  138.1262   75.8619  221.5669 H   0  0  0  0  0  0  0  0  0  0  0  0
  137.3460   78.0056  222.5130 H   0  0  0  0  0  0  0  0  0  0  0  0
  141.3803   79.0377  223.5099 H   0  0  0  0  0  0  0  0  0  0  0  0
  142.1486   76.8957  222.5603 H   0  0  0  0  0  0  0  0  0  0  0  0
  140.6497   72.8537  223.8043 H   0  0  0  0  0  0  0  0  0  0  0  0
  141.6505   72.1071  225.9265 H   0  0  0  0  0  0  0  0  0  0  0  0
  141.8267   70.4805  227.6227 H   0  0  0  0  0  0  0  0  0  0  0  0
  139.4845   66.8790  227.3754 H   0  0  0  0  0  0  0  0  0  0  0  0
  138.4827   67.6556  225.2211 H   0  0  0  0  0  0  0  0  0  0  0  0
  1  2  2  0
  2  3  1  0
  3  4  1  0
  4  5  1  0
  5  6  2  0
  5  7  1  0
  7  8  1  0
  8  9  1  0
  9 10  1  0
 10 11  1  0
 11 12  1  0
 12 13  2  0
 13 14  1  0
 14 15  2  0
 15 16  1  0
 15 17  1  0
 17 18  2  0
  2 19  1  0
 19 20  2  0
 20 21  1  0
 21 22  2  0
 22 23  1  0
 23 24  2  0
 24 25  1  0
 24 26  1  0
 26 27  2  0
 27 28  1  0
 28 29  2  0
 11  7  1  0
 18 12  1  0
 29 19  1  0
 28 22  1  0
  3 30  1  0
  4 31  1  0
  4 32  1  0
  8 33  1  0
  8 34  1  0
  9 35  1  0
  9 36  1  0
 10 37  1  0
 10 38  1  0
 11 39  1  1
 13 40  1  0
 14 41  1  0
 17 42  1  0
 18 43  1  0
 20 44  1  0
 21 45  1  0
 23 46  1  0
 26 47  1  0
 27 48  1  0
M  END
>  <smiles>  (92) 
O=C(NCC(=O)N1CCCC1c1ccc(Br)cc1)c1ccc2cc(Cl)ccc2n1

>  <score_type>  (92) 
oracle

>  <origin>  (92) 
autodockgpu

>  <m_score__min__energy>  (92) 
-8.7799999999999994

>  <m_primary>  (92) 
energy

>  <rmsd>  (92) 
2.8668538547037907

>  <m_score__min__rmsd>  (92) 
2.8668538547037907

>  <meeko>  (92) 
{"free_energy": -8.09, "intermolecular_energy": -9.58, "internal_energy": -1.51, "cluster_size": 16, "cluster_id": 2, "rank_in_cluster": 12}

>  <energy>  (92) 
-8.07

>  <cluster_rmsd>  (92) 
1.84

>  <cluster>  (92) 
2

$$$$

     RDKit          3D

 48 51  0  0  0  0  0  0  0  0999 V2000
  140.0290   74.1280  222.2260 O   0  0  0  0  0  0  0  0  0  0  0  0
  140.2040   72.8840  222.0520 C   0  0  0  0  0  0  0  0  0  0  0  0
  140.4080   72.4030  220.7220 N   0  0  0  0  0  0  0  0  0  0  0  0
  140.3960   73.3980  219.6660 C   0  0  0  0  0  0  0  0  0  0  0  0
  141.6840   74.1490  219.6170 C   0  0  0  0  0  0  0  0  0  0  0  0
  142.8030   73.6010  219.7830 O   0  0  0  0  0  0  0  0  0  0  0  0
  141.6020   75.5480  219.3680 N   0  0  0  0  0  0  0  0  0  0  0  0
  140.7020   76.2710  218.4810 C   0  0  0  0  0  0  0  0  0  0  0  0
  141.4170   77.5460  218.1020 C   0  0  0  0  0  0  0  0  0  0  0  0
  142.7980   77.3210  218.6810 C   0  0  0  0  0  0  0  0  0  0  0  0
  142.4310   76.6030  219.9700 C   0  0  1  0  0  0  0  0  0  0  0  0
  141.6510   77.4690  220.8840 C   0  0  0  0  0  0  0  0  0  0  0  0
  140.6640   76.9230  221.6970 C   0  0  0  0  0  0  0  0  0  0  0  0
  139.9150   77.7060  222.5650 C   0  0  0  0  0  0  0  0  0  0  0  0
  140.1310   79.0560  222.6470 C   0  0  0  0  0  0  0  0  0  0  0  0
  139.1410   80.2010  223.8190 Br  0  0  0  0  0  0  0  0  0  0  0  0
  141.1040   79.6280  221.8540 C   0  0  0  0  0  0  0  0  0  0  0  0
  141.8420   78.8320  220.9920 C   0  0  0  0  0  0  0  0  0  0  0  0
  140.2000   71.9550  223.1710 C   0  0  0  0  0  0  0  0  0  0  0  0
  139.6800   70.6820  222.9700 C   0  0  0  0  0  0  0  0  0  0  0  0
  139.6270   69.7300  223.9540 C   0  0  0  0  0  0  0  0  0  0  0  0
  140.1140   70.0660  225.1940 C   0  0  0  0  0  0  0  0  0  0  0  0
  140.0640   69.1140  226.1830 C   0  0  0  0  0  0  0  0  0  0  0  0
  140.5510   69.4540  227.4220 C   0  0  0  0  0  0  0  0  0  0  0  0
  140.5080   68.2860  228.7050 Cl  0  0  0  0  0  0  0  0  0  0  0  0
  141.0760   70.7050  227.6690 C   0  0  0  0  0  0  0  0  0  0  0  0
  141.1190   71.6590  226.6500 C   0  0  0  0  0  0  0  0  0  0  0  0
  140.6350   71.3390  225.4000 C   0  0  0  0  0  0  0  0  0  0  0  0
  140.6670   72.2530  224.3900 N   0  0  0  0  0  0  0  0  0  0  0  0
  140.5590   71.3720  220.5250 H   0  0  0  0  0  0  0  0  0  0  0  0
  140.2372   72.8948  218.7008 H   0  0  0  0  0  0  0  0  0  0  0  0
  139.5843   74.1119  219.8697 H   0  0  0  0  0  0  0  0  0  0  0  0
  140.4890   75.6721  217.5833 H   0  0  0  0  0  0  0  0  0  0  0  0
  139.7402   76.4818  218.9714 H   0  0  0  0  0  0  0  0  0  0  0  0
  141.4577   77.6712  217.0099 H   0  0  0  0  0  0  0  0  0  0  0  0
  140.9245   78.4564  218.4743 H   0  0  0  0  0  0  0  0  0  0  0  0
  143.4178   76.6916  218.0255 H   0  0  0  0  0  0  0  0  0  0  0  0
  143.3986   78.2330  218.8139 H   0  0  0  0  0  0  0  0  0  0  0  0
  143.2677   76.2684  220.6008 H   0  0  0  0  0  0  0  0  0  0  0  0
  140.4713   75.8410  221.6512 H   0  0  0  0  0  0  0  0  0  0  0  0
  139.1417   77.2383  223.1921 H   0  0  0  0  0  0  0  0  0  0  0  0
  141.2933   80.7104  221.9054 H   0  0  0  0  0  0  0  0  0  0  0  0
  142.6129   79.3067  220.3672 H   0  0  0  0  0  0  0  0  0  0  0  0
  139.2922   70.4263  221.9729 H   0  0  0  0  0  0  0  0  0  0  0  0
  139.2091   68.7315  223.7580 H   0  0  0  0  0  0  0  0  0  0  0  0
  139.6484   68.1140  225.9897 H   0  0  0  0  0  0  0  0  0  0  0  0
  141.4612   70.9517  228.6694 H   0  0  0  0  0  0  0  0  0  0  0  0
  141.5361   72.6583  226.8436 H   0  0  0  0  0  0  0  0  0  0  0  0
  1  2  2  0
  2  3  1  0
  3  4  1  0
  4  5  1  0
  5  6  2  0
  5  7  1  0
  7  8  1  0
  8  9  1  0
  9 10  1  0
 10 11  1  0
 11 12  1  0
 12 13  2  0
 13 14  1  0
 14 15  2  0
 15 16  1  0
 15 17  1  0
 17 18  2  0
  2 19  1  0
 19 20  2  0
 20 21  1  0
 21 22  2  0
 22 23  1  0
 23 24  2  0
 24 25  1  0
 24 26  1  0
 26 27  2  0
 27 28  1  0
 28 29  2  0
 11  7  1  0
 18 12  1  0
 29 19  1  0
 28 22  1  0
  3 30  1  0
  4 31  1  0
  4 32  1  0
  8 33  1  0
  8 34  1  0
  9 35  1  0
  9 36  1  0
 10 37  1  0
 10 38  1  0
 11 39  1  1
 13 40  1  0
 14 41  1  0
 17 42  1  0
 18 43  1  0
 20 44  1  0
 21 45  1  0
 23 46  1  0
 26 47  1  0
 27 48  1  0
M  END
>  <smiles>  (93) 
O=C(NCC(=O)N1CCCC1c1ccc(Br)cc1)c1ccc2cc(Cl)ccc2n1

>  <score_type>  (93) 
oracle

>  <origin>  (93) 
autodockgpu

>  <m_score__min__energy>  (93) 
-8.7799999999999994

>  <m_primary>  (93) 
energy

>  <rmsd>  (93) 
2.012830052544148

>  <m_score__min__rmsd>  (93) 
2.012830052544148

>  <meeko>  (93) 
{"free_energy": -8.18, "intermolecular_energy": -9.67, "internal_energy": -1.45, "cluster_size": 16, "cluster_id": 2, "rank_in_cluster": 9}

>  <energy>  (93) 
-7.95

>  <cluster_rmsd>  (93) 
1.96

>  <cluster>  (93) 
2

$$$$

     RDKit          3D

 48 51  0  0  0  0  0  0  0  0999 V2000
  139.4980   71.8450  220.6630 O   0  0  0  0  0  0  0  0  0  0  0  0
  139.1270   72.2170  221.8160 C   0  0  0  0  0  0  0  0  0  0  0  0
  138.4260   73.4560  221.9420 N   0  0  0  0  0  0  0  0  0  0  0  0
  138.1940   74.1940  220.7150 C   0  0  0  0  0  0  0  0  0  0  0  0
  138.2150   75.6650  220.9580 C   0  0  0  0  0  0  0  0  0  0  0  0
  137.1780   76.3760  220.9570 O   0  0  0  0  0  0  0  0  0  0  0  0
  139.4870   76.2580  221.1980 N   0  0  0  0  0  0  0  0  0  0  0  0
  140.1030   76.6260  222.4660 C   0  0  0  0  0  0  0  0  0  0  0  0
  141.0730   77.7410  222.1550 C   0  0  0  0  0  0  0  0  0  0  0  0
  140.7550   78.0470  220.7070 C   0  0  0  0  0  0  0  0  0  0  0  0
  140.4890   76.6400  220.1920 C   0  0  1  0  0  0  0  0  0  0  0  0
  141.6980   75.7870  220.2600 C   0  0  0  0  0  0  0  0  0  0  0  0
  141.6140   74.4890  220.7500 C   0  0  0  0  0  0  0  0  0  0  0  0
  142.7280   73.6630  220.8260 C   0  0  0  0  0  0  0  0  0  0  0  0
  143.9560   74.1100  220.4160 C   0  0  0  0  0  0  0  0  0  0  0  0
  145.5360   73.0310  220.4900 Br  0  0  0  0  0  0  0  0  0  0  0  0
  144.0720   75.3930  219.9250 C   0  0  0  0  0  0  0  0  0  0  0  0
  142.9500   76.2050  219.8550 C   0  0  0  0  0  0  0  0  0  0  0  0
  139.4030   71.4130  222.9970 C   0  0  0  0  0  0  0  0  0  0  0  0
  139.0480   70.0700  222.9790 C   0  0  0  0  0  0  0  0  0  0  0  0
  139.2620   69.2230  224.0350 C   0  0  0  0  0  0  0  0  0  0  0  0
  139.8570   69.7430  225.1590 C   0  0  0  0  0  0  0  0  0  0  0  0
  140.0740   68.8980  226.2200 C   0  0  0  0  0  0  0  0  0  0  0  0
  140.6680   69.4220  227.3430 C   0  0  0  0  0  0  0  0  0  0  0  0
  140.9630   68.3930  228.7090 Cl  0  0  0  0  0  0  0  0  0  0  0  0
  141.0380   70.7490  227.4060 C   0  0  0  0  0  0  0  0  0  0  0  0
  140.8090   71.5920  226.3170 C   0  0  0  0  0  0  0  0  0  0  0  0
  140.2140   71.0870  225.1810 C   0  0  0  0  0  0  0  0  0  0  0  0
  139.9810   71.8910  224.1060 N   0  0  0  0  0  0  0  0  0  0  0  0
  138.0950   73.8100  222.8860 H   0  0  0  0  0  0  0  0  0  0  0  0
  138.9800   73.9391  219.9889 H   0  0  0  0  0  0  0  0  0  0  0  0
  137.2025   73.9195  220.3258 H   0  0  0  0  0  0  0  0  0  0  0  0
  139.3374   76.9734  223.1753 H   0  0  0  0  0  0  0  0  0  0  0  0
  140.6132   75.7679  222.9279 H   0  0  0  0  0  0  0  0  0  0  0  0
  140.8933   78.6164  222.7964 H   0  0  0  0  0  0  0  0  0  0  0  0
  142.1254   77.4719  222.3286 H   0  0  0  0  0  0  0  0  0  0  0  0
  139.8686   78.6913  220.6110 H   0  0  0  0  0  0  0  0  0  0  0  0
  141.5392   78.5976  220.1667 H   0  0  0  0  0  0  0  0  0  0  0  0
  140.1839   76.5524  219.1388 H   0  0  0  0  0  0  0  0  0  0  0  0
  140.6394   74.1058  221.0865 H   0  0  0  0  0  0  0  0  0  0  0  0
  142.6231   72.6409  221.2189 H   0  0  0  0  0  0  0  0  0  0  0  0
  145.0495   75.7707  219.5905 H   0  0  0  0  0  0  0  0  0  0  0  0
  143.0623   77.2255  219.4600 H   0  0  0  0  0  0  0  0  0  0  0  0
  138.5720   69.6668  222.0730 H   0  0  0  0  0  0  0  0  0  0  0  0
  138.9678   68.1643  223.9845 H   0  0  0  0  0  0  0  0  0  0  0  0
  139.7824   67.8384  226.1724 H   0  0  0  0  0  0  0  0  0  0  0  0
  141.5142   71.1438  228.3156 H   0  0  0  0  0  0  0  0  0  0  0  0
  141.1013   72.6514  226.3652 H   0  0  0  0  0  0  0  0  0  0  0  0
  1  2  2  0
  2  3  1  0
  3  4  1  0
  4  5  1  0
  5  6  2  0
  5  7  1  0
  7  8  1  0
  8  9  1  0
  9 10  1  0
 10 11  1  0
 11 12  1  0
 12 13  2  0
 13 14  1  0
 14 15  2  0
 15 16  1  0
 15 17  1  0
 17 18  2  0
  2 19  1  0
 19 20  2  0
 20 21  1  0
 21 22  2  0
 22 23  1  0
 23 24  2  0
 24 25  1  0
 24 26  1  0
 26 27  2  0
 27 28  1  0
 28 29  2  0
 11  7  1  0
 18 12  1  0
 29 19  1  0
 28 22  1  0
  3 30  1  0
  4 31  1  0
  4 32  1  0
  8 33  1  0
  8 34  1  0
  9 35  1  0
  9 36  1  0
 10 37  1  0
 10 38  1  0
 11 39  1  6
 13 40  1  0
 14 41  1  0
 17 42  1  0
 18 43  1  0
 20 44  1  0
 21 45  1  0
 23 46  1  0
 26 47  1  0
 27 48  1  0
M  END
>  <smiles>  (94) 
O=C(NCC(=O)N1CCCC1c1ccc(Br)cc1)c1ccc2cc(Cl)ccc2n1

>  <score_type>  (94) 
oracle

>  <origin>  (94) 
autodockgpu

>  <m_score__min__energy>  (94) 
-8.7799999999999994

>  <m_primary>  (94) 
energy

>  <rmsd>  (94) 
2.3781593399518717

>  <m_score__min__rmsd>  (94) 
2.3781593399518717

>  <meeko>  (94) 
{"free_energy": -8.62, "intermolecular_energy": -10.11, "internal_energy": -1.71, "cluster_size": 28, "cluster_id": 1, "rank_in_cluster": 5}

>  <energy>  (94) 
-7.91

>  <cluster_rmsd>  (94) 
1.35

>  <cluster>  (94) 
2

$$$$

     RDKit          3D

 48 51  0  0  0  0  0  0  0  0999 V2000
  138.8070   71.0810  221.2380 O   0  0  0  0  0  0  0  0  0  0  0  0
  138.5030   71.5560  222.3740 C   0  0  0  0  0  0  0  0  0  0  0  0
  137.5360   72.6060  222.4380 N   0  0  0  0  0  0  0  0  0  0  0  0
  136.9750   73.0460  221.1750 C   0  0  0  0  0  0  0  0  0  0  0  0
  137.1870   74.5080  220.9700 C   0  0  0  0  0  0  0  0  0  0  0  0
  136.2420   75.3300  220.8650 O   0  0  0  0  0  0  0  0  0  0  0  0
  138.5360   74.9560  220.8940 N   0  0  0  0  0  0  0  0  0  0  0  0
  139.2810   75.4310  219.7370 C   0  0  0  0  0  0  0  0  0  0  0  0
  140.7370   75.1590  220.0320 C   0  0  0  0  0  0  0  0  0  0  0  0
  140.6570   74.3380  221.3010 C   0  0  0  0  0  0  0  0  0  0  0  0
  139.5030   75.0400  221.9990 C   0  0  1  0  0  0  0  0  0  0  0  0
  139.8330   76.4430  222.3420 C   0  0  0  0  0  0  0  0  0  0  0  0
  138.8420   77.4180  222.3390 C   0  0  0  0  0  0  0  0  0  0  0  0
  139.1180   78.7420  222.6560 C   0  0  0  0  0  0  0  0  0  0  0  0
  140.3900   79.1290  222.9850 C   0  0  0  0  0  0  0  0  0  0  0  0
  140.8480   80.9320  223.4340 Br  0  0  0  0  0  0  0  0  0  0  0  0
  141.3950   78.1850  222.9970 C   0  0  0  0  0  0  0  0  0  0  0  0
  141.1030   76.8680  222.6770 C   0  0  0  0  0  0  0  0  0  0  0  0
  139.1180   71.0550  223.5930 C   0  0  0  0  0  0  0  0  0  0  0  0
  140.0770   71.8400  224.2200 C   0  0  0  0  0  0  0  0  0  0  0  0
  140.7180   71.4640  225.3720 C   0  0  0  0  0  0  0  0  0  0  0  0
  140.3850   70.2490  225.9200 C   0  0  0  0  0  0  0  0  0  0  0  0
  141.0250   69.8680  227.0740 C   0  0  0  0  0  0  0  0  0  0  0  0
  140.6900   68.6520  227.6190 C   0  0  0  0  0  0  0  0  0  0  0  0
  141.4710   68.1270  229.0770 Cl  0  0  0  0  0  0  0  0  0  0  0  0
  139.7430   67.8390  227.0320 C   0  0  0  0  0  0  0  0  0  0  0  0
  139.1040   68.2440  225.8590 C   0  0  0  0  0  0  0  0  0  0  0  0
  139.4250   69.4590  225.2950 C   0  0  0  0  0  0  0  0  0  0  0  0
  138.8140   69.8750  224.1510 N   0  0  0  0  0  0  0  0  0  0  0  0
  137.2490   73.0350  223.3650 H   0  0  0  0  0  0  0  0  0  0  0  0
  137.4599   72.4949  220.3558 H   0  0  0  0  0  0  0  0  0  0  0  0
  135.8927   72.8497  221.1877 H   0  0  0  0  0  0  0  0  0  0  0  0
  138.9675   74.8887  218.8328 H   0  0  0  0  0  0  0  0  0  0  0  0
  139.1019   76.5013  219.5570 H   0  0  0  0  0  0  0  0  0  0  0  0
  141.2096   74.5900  219.2178 H   0  0  0  0  0  0  0  0  0  0  0  0
  141.3453   76.0700  220.1326 H   0  0  0  0  0  0  0  0  0  0  0  0
  140.4258   73.2833  221.0907 H   0  0  0  0  0  0  0  0  0  0  0  0
  141.5900   74.2918  221.8819 H   0  0  0  0  0  0  0  0  0  0  0  0
  139.1836   74.6182  222.9634 H   0  0  0  0  0  0  0  0  0  0  0  0
  137.8118   77.1334  222.0787 H   0  0  0  0  0  0  0  0  0  0  0  0
  138.3080   79.4861  222.6427 H   0  0  0  0  0  0  0  0  0  0  0  0
  142.4231   78.4753  223.2591 H   0  0  0  0  0  0  0  0  0  0  0  0
  141.9185   76.1299  222.6906 H   0  0  0  0  0  0  0  0  0  0  0  0
  140.3346   72.8103  223.7705 H   0  0  0  0  0  0  0  0  0  0  0  0
  141.4726   72.1124  225.8412 H   0  0  0  0  0  0  0  0  0  0  0  0
  141.7799   70.5142  227.5457 H   0  0  0  0  0  0  0  0  0  0  0  0
  139.4911   66.8705  227.4887 H   0  0  0  0  0  0  0  0  0  0  0  0
  138.3491   67.5972  225.3881 H   0  0  0  0  0  0  0  0  0  0  0  0
  1  2  2  0
  2  3  1  0
  3  4  1  0
  4  5  1  0
  5  6  2  0
  5  7  1  0
  7  8  1  0
  8  9  1  0
  9 10  1  0
 10 11  1  0
 11 12  1  0
 12 13  2  0
 13 14  1  0
 14 15  2  0
 15 16  1  0
 15 17  1  0
 17 18  2  0
  2 19  1  0
 19 20  2  0
 20 21  1  0
 21 22  2  0
 22 23  1  0
 23 24  2  0
 24 25  1  0
 24 26  1  0
 26 27  2  0
 27 28  1  0
 28 29  2  0
 11  7  1  0
 18 12  1  0
 29 19  1  0
 28 22  1  0
  3 30  1  0
  4 31  1  0
  4 32  1  0
  8 33  1  0
  8 34  1  0
  9 35  1  0
  9 36  1  0
 10 37  1  0
 10 38  1  0
 11 39  1  1
 13 40  1  0
 14 41  1  0
 17 42  1  0
 18 43  1  0
 20 44  1  0
 21 45  1  0
 23 46  1  0
 26 47  1  0
 27 48  1  0
M  END
>  <smiles>  (95) 
O=C(NCC(=O)N1CCCC1c1ccc(Br)cc1)c1ccc2cc(Cl)ccc2n1

>  <score_type>  (95) 
oracle

>  <origin>  (95) 
autodockgpu

>  <m_score__min__energy>  (95) 
-8.7799999999999994

>  <m_primary>  (95) 
energy

>  <rmsd>  (95) 
3.023983999875776

>  <m_score__min__rmsd>  (95) 
3.023983999875776

>  <meeko>  (95) 
{"free_energy": -8.09, "intermolecular_energy": -9.59, "internal_energy": -1.62, "cluster_size": 3, "cluster_id": 3, "rank_in_cluster": 2}

>  <energy>  (95) 
-8.28

>  <cluster_rmsd>  (95) 
0.0

>  <cluster>  (95) 
3

$$$$

     RDKit          3D

 48 51  0  0  0  0  0  0  0  0999 V2000
  139.6670   73.7190  222.3020 O   0  0  0  0  0  0  0  0  0  0  0  0
  139.8450   72.4720  222.1550 C   0  0  0  0  0  0  0  0  0  0  0  0
  139.9390   71.9470  220.8300 N   0  0  0  0  0  0  0  0  0  0  0  0
  139.8190   72.9030  219.7460 C   0  0  0  0  0  0  0  0  0  0  0  0
  141.1580   73.3000  219.2240 C   0  0  0  0  0  0  0  0  0  0  0  0
  142.0770   72.4730  218.9960 O   0  0  0  0  0  0  0  0  0  0  0  0
  141.3700   74.6870  218.9870 N   0  0  0  0  0  0  0  0  0  0  0  0
  140.6370   75.5900  218.1110 C   0  0  0  0  0  0  0  0  0  0  0  0
  141.6010   76.6900  217.7370 C   0  0  0  0  0  0  0  0  0  0  0  0
  142.9070   76.1760  218.3040 C   0  0  0  0  0  0  0  0  0  0  0  0
  142.4050   75.5400  219.5900 C   0  0  1  0  0  0  0  0  0  0  0  0
  141.8280   76.5420  220.5170 C   0  0  0  0  0  0  0  0  0  0  0  0
  142.1970   77.8790  220.4210 C   0  0  0  0  0  0  0  0  0  0  0  0
  141.6750   78.8450  221.2720 C   0  0  0  0  0  0  0  0  0  0  0  0
  140.7720   78.5020  222.2440 C   0  0  0  0  0  0  0  0  0  0  0  0
  140.0100   79.7740  223.4530 Br  0  0  0  0  0  0  0  0  0  0  0  0
  140.3870   77.1830  222.3640 C   0  0  0  0  0  0  0  0  0  0  0  0
  140.9170   76.2320  221.5060 C   0  0  0  0  0  0  0  0  0  0  0  0
  139.9530   71.5830  223.3010 C   0  0  0  0  0  0  0  0  0  0  0  0
  139.5280   70.2680  223.1600 C   0  0  0  0  0  0  0  0  0  0  0  0
  139.5850   69.3480  224.1740 C   0  0  0  0  0  0  0  0  0  0  0  0
  140.0880   69.7620  225.3830 C   0  0  0  0  0  0  0  0  0  0  0  0
  140.1470   68.8430  226.4030 C   0  0  0  0  0  0  0  0  0  0  0  0
  140.6520   69.2610  227.6110 C   0  0  0  0  0  0  0  0  0  0  0  0
  140.7460   68.1360  228.9300 Cl  0  0  0  0  0  0  0  0  0  0  0  0
  141.0860   70.5560  227.7980 C   0  0  0  0  0  0  0  0  0  0  0  0
  141.0180   71.4760  226.7500 C   0  0  0  0  0  0  0  0  0  0  0  0
  140.5150   71.0780  225.5300 C   0  0  0  0  0  0  0  0  0  0  0  0
  140.4390   71.9580  224.4920 N   0  0  0  0  0  0  0  0  0  0  0  0
  140.0870   70.9110  220.6560 H   0  0  0  0  0  0  0  0  0  0  0  0
  139.2366   72.4492  218.9306 H   0  0  0  0  0  0  0  0  0  0  0  0
  139.3151   73.8023  220.1300 H   0  0  0  0  0  0  0  0  0  0  0  0
  140.2992   75.0566  217.2102 H   0  0  0  0  0  0  0  0  0  0  0  0
  139.7429   75.9932  218.6090 H   0  0  0  0  0  0  0  0  0  0  0  0
  141.6611   76.8138  216.6456 H   0  0  0  0  0  0  0  0  0  0  0  0
  141.3121   77.6798  218.1201 H   0  0  0  0  0  0  0  0  0  0  0  0
  143.3774   75.4364  217.6395 H   0  0  0  0  0  0  0  0  0  0  0  0
  143.6861   76.9407  218.4390 H   0  0  0  0  0  0  0  0  0  0  0  0
  143.1573   75.0327  220.2118 H   0  0  0  0  0  0  0  0  0  0  0  0
  142.9219   78.1801  219.6504 H   0  0  0  0  0  0  0  0  0  0  0  0
  141.9891   79.8937  221.1647 H   0  0  0  0  0  0  0  0  0  0  0  0
  139.6626   76.8871  223.1371 H   0  0  0  0  0  0  0  0  0  0  0  0
  140.5977   75.1854  221.6183 H   0  0  0  0  0  0  0  0  0  0  0  0
  139.1260   69.9496  222.1868 H   0  0  0  0  0  0  0  0  0  0  0  0
  139.2400   68.3142  224.0248 H   0  0  0  0  0  0  0  0  0  0  0  0
  139.8020   67.8087  226.2577 H   0  0  0  0  0  0  0  0  0  0  0  0
  141.4866   70.8651  228.7747 H   0  0  0  0  0  0  0  0  0  0  0  0
  141.3631   72.5101  226.8968 H   0  0  0  0  0  0  0  0  0  0  0  0
  1  2  2  0
  2  3  1  0
  3  4  1  0
  4  5  1  0
  5  6  2  0
  5  7  1  0
  7  8  1  0
  8  9  1  0
  9 10  1  0
 10 11  1  0
 11 12  1  0
 12 13  2  0
 13 14  1  0
 14 15  2  0
 15 16  1  0
 15 17  1  0
 17 18  2  0
  2 19  1  0
 19 20  2  0
 20 21  1  0
 21 22  2  0
 22 23  1  0
 23 24  2  0
 24 25  1  0
 24 26  1  0
 26 27  2  0
 27 28  1  0
 28 29  2  0
 11  7  1  0
 18 12  1  0
 29 19  1  0
 28 22  1  0
  3 30  1  0
  4 31  1  0
  4 32  1  0
  8 33  1  0
  8 34  1  0
  9 35  1  0
  9 36  1  0
 10 37  1  0
 10 38  1  0
 11 39  1  1
 13 40  1  0
 14 41  1  0
 17 42  1  0
 18 43  1  0
 20 44  1  0
 21 45  1  0
 23 46  1  0
 26 47  1  0
 27 48  1  0
M  END
>  <smiles>  (96) 
O=C(NCC(=O)N1CCCC1c1ccc(Br)cc1)c1ccc2cc(Cl)ccc2n1

>  <score_type>  (96) 
oracle

>  <origin>  (96) 
autodockgpu

>  <m_score__min__energy>  (96) 
-8.7799999999999994

>  <m_primary>  (96) 
energy

>  <rmsd>  (96) 
1.9150402868179854

>  <m_score__min__rmsd>  (96) 
1.9150402868179854

>  <meeko>  (96) 
{"free_energy": -8.01, "intermolecular_energy": -9.5, "internal_energy": -1.38, "cluster_size": 1, "cluster_id": 4, "rank_in_cluster": 1}

>  <energy>  (96) 
-8.09

>  <cluster_rmsd>  (96) 
1.43

>  <cluster>  (96) 
3

$$$$

     RDKit          3D

 48 51  0  0  0  0  0  0  0  0999 V2000
  139.6250   71.8760  220.6810 O   0  0  0  0  0  0  0  0  0  0  0  0
  139.1840   72.2150  221.8210 C   0  0  0  0  0  0  0  0  0  0  0  0
  138.4140   73.4140  221.9260 N   0  0  0  0  0  0  0  0  0  0  0  0
  138.2000   74.1550  220.6970 C   0  0  0  0  0  0  0  0  0  0  0  0
  138.2310   75.6260  220.9400 C   0  0  0  0  0  0  0  0  0  0  0  0
  137.2050   76.3510  220.8860 O   0  0  0  0  0  0  0  0  0  0  0  0
  139.4970   76.2000  221.2470 N   0  0  0  0  0  0  0  0  0  0  0  0
  140.0830   76.4870  222.5480 C   0  0  0  0  0  0  0  0  0  0  0  0
  141.0610   77.6170  222.3300 C   0  0  0  0  0  0  0  0  0  0  0  0
  140.7760   78.0130  220.8970 C   0  0  0  0  0  0  0  0  0  0  0  0
  140.5210   76.6430  220.2900 C   0  0  1  0  0  0  0  0  0  0  0  0
  141.7290   75.7850  220.3310 C   0  0  0  0  0  0  0  0  0  0  0  0
  141.6400   74.4710  220.7770 C   0  0  0  0  0  0  0  0  0  0  0  0
  142.7520   73.6400  220.8280 C   0  0  0  0  0  0  0  0  0  0  0  0
  143.9820   74.0970  220.4370 C   0  0  0  0  0  0  0  0  0  0  0  0
  145.5590   73.0130  220.4790 Br  0  0  0  0  0  0  0  0  0  0  0  0
  144.1020   75.3960  219.9900 C   0  0  0  0  0  0  0  0  0  0  0  0
  142.9830   76.2130  219.9450 C   0  0  0  0  0  0  0  0  0  0  0  0
  139.4470   71.4120  223.0040 C   0  0  0  0  0  0  0  0  0  0  0  0
  139.0740   70.0740  222.9910 C   0  0  0  0  0  0  0  0  0  0  0  0
  139.2760   69.2280  224.0500 C   0  0  0  0  0  0  0  0  0  0  0  0
  139.8750   69.7440  225.1730 C   0  0  0  0  0  0  0  0  0  0  0  0
  140.0790   68.9000  226.2380 C   0  0  0  0  0  0  0  0  0  0  0  0
  140.6790   69.4200  227.3600 C   0  0  0  0  0  0  0  0  0  0  0  0
  140.9570   68.3930  228.7310 Cl  0  0  0  0  0  0  0  0  0  0  0  0
  141.0660   70.7420  227.4190 C   0  0  0  0  0  0  0  0  0  0  0  0
  140.8500   71.5840  226.3260 C   0  0  0  0  0  0  0  0  0  0  0  0
  140.2500   71.0840  225.1920 C   0  0  0  0  0  0  0  0  0  0  0  0
  140.0300   71.8860  224.1130 N   0  0  0  0  0  0  0  0  0  0  0  0
  138.0230   73.7390  222.8570 H   0  0  0  0  0  0  0  0  0  0  0  0
  138.9908   73.8936  219.9784 H   0  0  0  0  0  0  0  0  0  0  0  0
  137.2096   73.8892  220.2988 H   0  0  0  0  0  0  0  0  0  0  0  0
  139.3012   76.7913  223.2595 H   0  0  0  0  0  0  0  0  0  0  0  0
  140.5817   75.6007  222.9671 H   0  0  0  0  0  0  0  0  0  0  0  0
  140.8674   78.4511  223.0205 H   0  0  0  0  0  0  0  0  0  0  0  0
  142.1089   77.3357  222.5108 H   0  0  0  0  0  0  0  0  0  0  0  0
  139.8924   78.6638  220.8214 H   0  0  0  0  0  0  0  0  0  0  0  0
  141.5727   78.5944  220.4099 H   0  0  0  0  0  0  0  0  0  0  0  0
  140.2389   76.6222  219.2270 H   0  0  0  0  0  0  0  0  0  0  0  0
  140.6635   74.0793  221.0978 H   0  0  0  0  0  0  0  0  0  0  0  0
  142.6434   72.6055  221.1858 H   0  0  0  0  0  0  0  0  0  0  0  0
  145.0812   75.7822  219.6706 H   0  0  0  0  0  0  0  0  0  0  0  0
  143.0995   77.2464  219.5864 H   0  0  0  0  0  0  0  0  0  0  0  0
  138.5929   69.6739  222.0863 H   0  0  0  0  0  0  0  0  0  0  0  0
  138.9692   68.1727  224.0023 H   0  0  0  0  0  0  0  0  0  0  0  0
  139.7726   67.8444  226.1941 H   0  0  0  0  0  0  0  0  0  0  0  0
  141.5455   71.1340  228.3281 H   0  0  0  0  0  0  0  0  0  0  0  0
  141.1571   72.6393  226.3707 H   0  0  0  0  0  0  0  0  0  0  0  0
  1  2  2  0
  2  3  1  0
  3  4  1  0
  4  5  1  0
  5  6  2  0
  5  7  1  0
  7  8  1  0
  8  9  1  0
  9 10  1  0
 10 11  1  0
 11 12  1  0
 12 13  2  0
 13 14  1  0
 14 15  2  0
 15 16  1  0
 15 17  1  0
 17 18  2  0
  2 19  1  0
 19 20  2  0
 20 21  1  0
 21 22  2  0
 22 23  1  0
 23 24  2  0
 24 25  1  0
 24 26  1  0
 26 27  2  0
 27 28  1  0
 28 29  2  0
 11  7  1  0
 18 12  1  0
 29 19  1  0
 28 22  1  0
  3 30  1  0
  4 31  1  0
  4 32  1  0
  8 33  1  0
  8 34  1  0
  9 35  1  0
  9 36  1  0
 10 37  1  0
 10 38  1  0
 11 39  1  6
 13 40  1  0
 14 41  1  0
 17 42  1  0
 18 43  1  0
 20 44  1  0
 21 45  1  0
 23 46  1  0
 26 47  1  0
 27 48  1  0
M  END
>  <smiles>  (97) 
O=C(NCC(=O)N1CCCC1c1ccc(Br)cc1)c1ccc2cc(Cl)ccc2n1

>  <score_type>  (97) 
oracle

>  <origin>  (97) 
autodockgpu

>  <m_score__min__energy>  (97) 
-8.7799999999999994

>  <m_primary>  (97) 
energy

>  <rmsd>  (97) 
2.4107188231404684

>  <m_score__min__rmsd>  (97) 
2.4107188231404684

>  <meeko>  (97) 
{"free_energy": -8.57, "intermolecular_energy": -10.06, "internal_energy": -1.71, "cluster_size": 28, "cluster_id": 1, "rank_in_cluster": 9}

>  <energy>  (97) 
-7.74

>  <cluster_rmsd>  (97) 
1.44

>  <cluster>  (97) 
3

$$$$

     RDKit          3D

 48 51  0  0  0  0  0  0  0  0999 V2000
  139.9010   71.3750  220.9510 O   0  0  0  0  0  0  0  0  0  0  0  0
  139.4130   71.8280  222.0300 C   0  0  0  0  0  0  0  0  0  0  0  0
  138.4730   72.9010  221.9570 N   0  0  0  0  0  0  0  0  0  0  0  0
  138.1510   73.3900  220.6300 C   0  0  0  0  0  0  0  0  0  0  0  0
  138.1000   74.8800  220.6010 C   0  0  0  0  0  0  0  0  0  0  0  0
  137.0830   75.5240  220.2380 O   0  0  0  0  0  0  0  0  0  0  0  0
  139.2740   75.5710  221.0110 N   0  0  0  0  0  0  0  0  0  0  0  0
  139.7330   75.8820  222.3570 C   0  0  0  0  0  0  0  0  0  0  0  0
  140.6020   77.1110  222.2340 C   0  0  0  0  0  0  0  0  0  0  0  0
  140.3810   77.5150  220.7910 C   0  0  0  0  0  0  0  0  0  0  0  0
  140.3130   76.1420  220.1410 C   0  0  1  0  0  0  0  0  0  0  0  0
  141.5970   75.4100  220.2550 C   0  0  0  0  0  0  0  0  0  0  0  0
  141.6130   74.0820  220.6650 C   0  0  0  0  0  0  0  0  0  0  0  0
  142.7980   73.3670  220.7820 C   0  0  0  0  0  0  0  0  0  0  0  0
  143.9990   73.9580  220.4940 C   0  0  0  0  0  0  0  0  0  0  0  0
  145.6730   73.0400  220.6310 Br  0  0  0  0  0  0  0  0  0  0  0  0
  144.0160   75.2750  220.0840 C   0  0  0  0  0  0  0  0  0  0  0  0
  142.8240   75.9740  219.9730 C   0  0  0  0  0  0  0  0  0  0  0  0
  139.7930   71.2770  223.3220 C   0  0  0  0  0  0  0  0  0  0  0  0
  140.6450   72.0180  224.1300 C   0  0  0  0  0  0  0  0  0  0  0  0
  141.0660   71.5940  225.3640 C   0  0  0  0  0  0  0  0  0  0  0  0
  140.6150   70.3750  225.8070 C   0  0  0  0  0  0  0  0  0  0  0  0
  141.0340   69.9460  227.0430 C   0  0  0  0  0  0  0  0  0  0  0  0
  140.5810   68.7250  227.4830 C   0  0  0  0  0  0  0  0  0  0  0  0
  141.0840   68.1400  229.0380 Cl  0  0  0  0  0  0  0  0  0  0  0  0
  139.7340   67.9550  226.7150 C   0  0  0  0  0  0  0  0  0  0  0  0
  139.3200   68.4080  225.4610 C   0  0  0  0  0  0  0  0  0  0  0  0
  139.7620   69.6290  225.0010 C   0  0  0  0  0  0  0  0  0  0  0  0
  139.3700   70.0920  223.7810 N   0  0  0  0  0  0  0  0  0  0  0  0
  138.0370   73.3130  222.8320 H   0  0  0  0  0  0  0  0  0  0  0  0
  138.9200   73.0437  219.9238 H   0  0  0  0  0  0  0  0  0  0  0  0
  137.1612   73.0025  220.3471 H   0  0  0  0  0  0  0  0  0  0  0  0
  138.8751   76.0862  223.0145 H   0  0  0  0  0  0  0  0  0  0  0  0
  140.2899   75.0402  222.7944 H   0  0  0  0  0  0  0  0  0  0  0  0
  140.2743   77.9021  222.9245 H   0  0  0  0  0  0  0  0  0  0  0  0
  141.6578   76.9327  222.4862 H   0  0  0  0  0  0  0  0  0  0  0  0
  139.4427   78.0745  220.6627 H   0  0  0  0  0  0  0  0  0  0  0  0
  141.1459   78.1875  220.3754 H   0  0  0  0  0  0  0  0  0  0  0  0
  140.1114   76.1214  219.0598 H   0  0  0  0  0  0  0  0  0  0  0  0
  140.6616   73.5839  220.9032 H   0  0  0  0  0  0  0  0  0  0  0  0
  142.7714   72.3170  221.1088 H   0  0  0  0  0  0  0  0  0  0  0  0
  144.9703   75.7679  219.8464 H   0  0  0  0  0  0  0  0  0  0  0  0
  142.8580   77.0237  219.6460 H   0  0  0  0  0  0  0  0  0  0  0  0
  140.9993   72.9923  223.7623 H   0  0  0  0  0  0  0  0  0  0  0  0
  141.7412   72.2086  225.9775 H   0  0  0  0  0  0  0  0  0  0  0  0
  141.7087   70.5584  227.6593 H   0  0  0  0  0  0  0  0  0  0  0  0
  139.3838   66.9823  227.0907 H   0  0  0  0  0  0  0  0  0  0  0  0
  138.6460   67.7946  224.8449 H   0  0  0  0  0  0  0  0  0  0  0  0
  1  2  2  0
  2  3  1  0
  3  4  1  0
  4  5  1  0
  5  6  2  0
  5  7  1  0
  7  8  1  0
  8  9  1  0
  9 10  1  0
 10 11  1  0
 11 12  1  0
 12 13  2  0
 13 14  1  0
 14 15  2  0
 15 16  1  0
 15 17  1  0
 17 18  2  0
  2 19  1  0
 19 20  2  0
 20 21  1  0
 21 22  2  0
 22 23  1  0
 23 24  2  0
 24 25  1  0
 24 26  1  0
 26 27  2  0
 27 28  1  0
 28 29  2  0
 11  7  1  0
 18 12  1  0
 29 19  1  0
 28 22  1  0
  3 30  1  0
  4 31  1  0
  4 32  1  0
  8 33  1  0
  8 34  1  0
  9 35  1  0
  9 36  1  0
 10 37  1  0
 10 38  1  0
 11 39  1  6
 13 40  1  0
 14 41  1  0
 17 42  1  0
 18 43  1  0
 20 44  1  0
 21 45  1  0
 23 46  1  0
 26 47  1  0
 27 48  1  0
M  END
>  <smiles>  (98) 
O=C(NCC(=O)N1CCCC1c1ccc(Br)cc1)c1ccc2cc(Cl)ccc2n1

>  <score_type>  (98) 
oracle

>  <origin>  (98) 
autodockgpu

>  <m_score__min__energy>  (98) 
-8.7799999999999994

>  <m_primary>  (98) 
energy

>  <rmsd>  (98) 
3.1545463501864788

>  <m_score__min__rmsd>  (98) 
3.1545463501864788

>  <meeko>  (98) 
{"free_energy": -8.26, "intermolecular_energy": -9.75, "internal_energy": -1.76, "cluster_size": 28, "cluster_id": 1, "rank_in_cluster": 17}

>  <energy>  (98) 
-8.01

>  <cluster_rmsd>  (98) 
0.0

>  <cluster>  (98) 
4

$$$$

     RDKit          3D

 48 51  0  0  0  0  0  0  0  0999 V2000
  138.8770   71.7960  220.8640 O   0  0  0  0  0  0  0  0  0  0  0  0
  139.0970   72.2890  222.0120 C   0  0  0  0  0  0  0  0  0  0  0  0
  139.0460   73.7080  222.1680 N   0  0  0  0  0  0  0  0  0  0  0  0
  138.7420   74.4780  220.9770 C   0  0  0  0  0  0  0  0  0  0  0  0
  139.9840   74.8330  220.2320 C   0  0  0  0  0  0  0  0  0  0  0  0
  140.6480   73.9970  219.5680 O   0  0  0  0  0  0  0  0  0  0  0  0
  140.4070   76.1910  220.2980 N   0  0  0  0  0  0  0  0  0  0  0  0
  140.1640   77.2740  219.3560 C   0  0  0  0  0  0  0  0  0  0  0  0
  141.3010   78.2520  219.5350 C   0  0  0  0  0  0  0  0  0  0  0  0
  142.2270   77.4970  220.4640 C   0  0  0  0  0  0  0  0  0  0  0  0
  141.2050   76.8170  221.3620 C   0  0  1  0  0  0  0  0  0  0  0  0
  140.4170   77.7970  222.1450 C   0  0  0  0  0  0  0  0  0  0  0  0
  139.0430   77.6360  222.2900 C   0  0  0  0  0  0  0  0  0  0  0  0
  138.2740   78.5360  223.0170 C   0  0  0  0  0  0  0  0  0  0  0  0
  138.8550   79.6200  223.6200 C   0  0  0  0  0  0  0  0  0  0  0  0
  137.8630   80.9020  224.6380 Br  0  0  0  0  0  0  0  0  0  0  0  0
  140.2160   79.8070  223.4950 C   0  0  0  0  0  0  0  0  0  0  0  0
  140.9680   78.9000  222.7650 C   0  0  0  0  0  0  0  0  0  0  0  0
  139.3970   71.4400  223.1550 C   0  0  0  0  0  0  0  0  0  0  0  0
  139.0640   70.0930  223.0820 C   0  0  0  0  0  0  0  0  0  0  0  0
  139.3010   69.2060  224.1000 C   0  0  0  0  0  0  0  0  0  0  0  0
  139.8960   69.6880  225.2400 C   0  0  0  0  0  0  0  0  0  0  0  0
  140.1360   68.8020  226.2630 C   0  0  0  0  0  0  0  0  0  0  0  0
  140.7310   69.2880  227.4020 C   0  0  0  0  0  0  0  0  0  0  0  0
  141.0530   68.2070  228.7220 Cl  0  0  0  0  0  0  0  0  0  0  0  0
  141.0780   70.6170  227.5200 C   0  0  0  0  0  0  0  0  0  0  0  0
  140.8270   71.5010  226.4690 C   0  0  0  0  0  0  0  0  0  0  0  0
  140.2300   71.0360  225.3180 C   0  0  0  0  0  0  0  0  0  0  0  0
  139.9750   71.8800  224.2800 N   0  0  0  0  0  0  0  0  0  0  0  0
  139.2230   74.1660  223.1080 H   0  0  0  0  0  0  0  0  0  0  0  0
  138.0887   73.8828  220.3221 H   0  0  0  0  0  0  0  0  0  0  0  0
  138.2414   75.4086  221.2826 H   0  0  0  0  0  0  0  0  0  0  0  0
  140.1519   76.8879  218.3261 H   0  0  0  0  0  0  0  0  0  0  0  0
  139.1909   77.7532  219.5388 H   0  0  0  0  0  0  0  0  0  0  0  0
  141.7917   78.4734  218.5757 H   0  0  0  0  0  0  0  0  0  0  0  0
  140.9850   79.2307  219.9252 H   0  0  0  0  0  0  0  0  0  0  0  0
  142.8431   76.7657  219.9203 H   0  0  0  0  0  0  0  0  0  0  0  0
  142.9637   78.1211  220.9910 H   0  0  0  0  0  0  0  0  0  0  0  0
  141.6020   76.1441  222.1363 H   0  0  0  0  0  0  0  0  0  0  0  0
  138.5522   76.7730  221.8163 H   0  0  0  0  0  0  0  0  0  0  0  0
  137.1895   78.3768  223.1092 H   0  0  0  0  0  0  0  0  0  0  0  0
  140.7017   80.6710  223.9720 H   0  0  0  0  0  0  0  0  0  0  0  0
  142.0516   79.0667  222.6759 H   0  0  0  0  0  0  0  0  0  0  0  0
  138.5873   69.7205  222.1633 H   0  0  0  0  0  0  0  0  0  0  0  0
  139.0243   68.1454  224.0070 H   0  0  0  0  0  0  0  0  0  0  0  0
  139.8612   67.7407  226.1729 H   0  0  0  0  0  0  0  0  0  0  0  0
  141.5530   70.9812  228.4429 H   0  0  0  0  0  0  0  0  0  0  0  0
  141.1041   72.5617  226.5594 H   0  0  0  0  0  0  0  0  0  0  0  0
  1  2  2  0
  2  3  1  0
  3  4  1  0
  4  5  1  0
  5  6  2  0
  5  7  1  0
  7  8  1  0
  8  9  1  0
  9 10  1  0
 10 11  1  0
 11 12  1  0
 12 13  2  0
 13 14  1  0
 14 15  2  0
 15 16  1  0
 15 17  1  0
 17 18  2  0
  2 19  1  0
 19 20  2  0
 20 21  1  0
 21 22  2  0
 22 23  1  0
 23 24  2  0
 24 25  1  0
 24 26  1  0
 26 27  2  0
 27 28  1  0
 28 29  2  0
 11  7  1  0
 18 12  1  0
 29 19  1  0
 28 22  1  0
  3 30  1  0
  4 31  1  0
  4 32  1  0
  8 33  1  0
  8 34  1  0
  9 35  1  0
  9 36  1  0
 10 37  1  0
 10 38  1  0
 11 39  1  1
 13 40  1  0
 14 41  1  0
 17 42  1  0
 18 43  1  0
 20 44  1  0
 21 45  1  0
 23 46  1  0
 26 47  1  0
 27 48  1  0
M  END
>  <smiles>  (99) 
O=C(NCC(=O)N1CCCC1c1ccc(Br)cc1)c1ccc2cc(Cl)ccc2n1

>  <score_type>  (99) 
oracle

>  <origin>  (99) 
autodockgpu

>  <m_score__min__energy>  (99) 
-8.7799999999999994

>  <m_primary>  (99) 
energy

>  <rmsd>  (99) 
1.7368005153761539

>  <m_score__min__rmsd>  (99) 
1.7368005153761539

>  <meeko>  (99) 
{"free_energy": -8.12, "intermolecular_energy": -9.61, "internal_energy": -1.42, "cluster_size": 16, "cluster_id": 2, "rank_in_cluster": 11}

>  <energy>  (99) 
-7.43

>  <cluster_rmsd>  (99) 
0.0

>  <cluster>  (99) 
5

$$$$

     RDKit          3D

 48 51  0  0  0  0  0  0  0  0999 V2000
  140.2530   72.6790  221.0160 O   0  0  0  0  0  0  0  0  0  0  0  0
  139.5730   72.7700  222.0830 C   0  0  0  0  0  0  0  0  0  0  0  0
  138.6110   73.8210  222.1910 N   0  0  0  0  0  0  0  0  0  0  0  0
  138.4940   74.7100  221.0510 C   0  0  0  0  0  0  0  0  0  0  0  0
  138.9780   76.0810  221.3830 C   0  0  0  0  0  0  0  0  0  0  0  0
  138.4080   76.8250  222.2200 O   0  0  0  0  0  0  0  0  0  0  0  0
  140.1420   76.5330  220.7010 N   0  0  0  0  0  0  0  0  0  0  0  0
  141.0970   77.5590  221.0960 C   0  0  0  0  0  0  0  0  0  0  0  0
  141.7070   78.0830  219.8180 C   0  0  0  0  0  0  0  0  0  0  0  0
  140.8570   77.4100  218.7600 C   0  0  0  0  0  0  0  0  0  0  0  0
  140.6540   76.0500  219.4100 C   0  0  1  0  0  0  0  0  0  0  0  0
  141.9290   75.3100  219.5580 C   0  0  0  0  0  0  0  0  0  0  0  0
  142.8220   75.2320  218.4960 C   0  0  0  0  0  0  0  0  0  0  0  0
  144.0260   74.5470  218.6010 C   0  0  0  0  0  0  0  0  0  0  0  0
  144.3710   73.9220  219.7700 C   0  0  0  0  0  0  0  0  0  0  0  0
  146.0110   72.9600  219.9930 Br  0  0  0  0  0  0  0  0  0  0  0  0
  143.5060   73.9820  220.8420 C   0  0  0  0  0  0  0  0  0  0  0  0
  142.3080   74.6690  220.7200 C   0  0  0  0  0  0  0  0  0  0  0  0
  139.7570   71.8330  223.1800 C   0  0  0  0  0  0  0  0  0  0  0  0
  139.3470   70.5180  223.0020 C   0  0  0  0  0  0  0  0  0  0  0  0
  139.4730   69.5550  223.9690 C   0  0  0  0  0  0  0  0  0  0  0  0
  140.0330   69.9250  225.1680 C   0  0  0  0  0  0  0  0  0  0  0  0
  140.1620   68.9630  226.1400 C   0  0  0  0  0  0  0  0  0  0  0  0
  140.7230   69.3370  227.3380 C   0  0  0  0  0  0  0  0  0  0  0  0
  140.9060   68.1570  228.5980 Cl  0  0  0  0  0  0  0  0  0  0  0  0
  141.1440   70.6300  227.5610 C   0  0  0  0  0  0  0  0  0  0  0  0
  141.0050   71.5940  226.5600 C   0  0  0  0  0  0  0  0  0  0  0  0
  140.4450   71.2410  225.3510 C   0  0  0  0  0  0  0  0  0  0  0  0
  140.2990   72.1640  224.3600 N   0  0  0  0  0  0  0  0  0  0  0  0
  138.0180   73.9380  223.0630 H   0  0  0  0  0  0  0  0  0  0  0  0
  139.0939   74.3092  220.2206 H   0  0  0  0  0  0  0  0  0  0  0  0
  137.4331   74.7747  220.7678 H   0  0  0  0  0  0  0  0  0  0  0  0
  140.5843   78.3700  221.6341 H   0  0  0  0  0  0  0  0  0  0  0  0
  141.8660   77.1522  221.7692 H   0  0  0  0  0  0  0  0  0  0  0  0
  141.6266   79.1784  219.7572 H   0  0  0  0  0  0  0  0  0  0  0  0
  142.7821   77.8712  219.7220 H   0  0  0  0  0  0  0  0  0  0  0  0
  139.9030   77.9360  218.6074 H   0  0  0  0  0  0  0  0  0  0  0  0
  141.3044   77.3813  217.7555 H   0  0  0  0  0  0  0  0  0  0  0  0
  140.0169   75.3365  218.8669 H   0  0  0  0  0  0  0  0  0  0  0  0
  142.5686   75.7261  217.5465 H   0  0  0  0  0  0  0  0  0  0  0  0
  144.7076   74.5062  217.7386 H   0  0  0  0  0  0  0  0  0  0  0  0
  143.7652   73.4871  221.7896 H   0  0  0  0  0  0  0  0  0  0  0  0
  141.6308   74.7047  221.5861 H   0  0  0  0  0  0  0  0  0  0  0  0
  138.8992   70.2356  222.0377 H   0  0  0  0  0  0  0  0  0  0  0  0
  139.1377   68.5225  223.7916 H   0  0  0  0  0  0  0  0  0  0  0  0
  139.8281   67.9295  225.9658 H   0  0  0  0  0  0  0  0  0  0  0  0
  141.5901   70.9033  228.5286 H   0  0  0  0  0  0  0  0  0  0  0  0
  141.3399   72.6271  226.7351 H   0  0  0  0  0  0  0  0  0  0  0  0
  1  2  2  0
  2  3  1  0
  3  4  1  0
  4  5  1  0
  5  6  2  0
  5  7  1  0
  7  8  1  0
  8  9  1  0
  9 10  1  0
 10 11  1  0
 11 12  1  0
 12 13  2  0
 13 14  1  0
 14 15  2  0
 15 16  1  0
 15 17  1  0
 17 18  2  0
  2 19  1  0
 19 20  2  0
 20 21  1  0
 21 22  2  0
 22 23  1  0
 23 24  2  0
 24 25  1  0
 24 26  1  0
 26 27  2  0
 27 28  1  0
 28 29  2  0
 11  7  1  0
 18 12  1  0
 29 19  1  0
 28 22  1  0
  3 30  1  0
  4 31  1  0
  4 32  1  0
  8 33  1  0
  8 34  1  0
  9 35  1  0
  9 36  1  0
 10 37  1  0
 10 38  1  0
 11 39  1  6
 13 40  1  0
 14 41  1  0
 17 42  1  0
 18 43  1  0
 20 44  1  0
 21 45  1  0
 23 46  1  0
 26 47  1  0
 27 48  1  0
M  END
>  <smiles>  (100) 
O=C(NCC(=O)N1CCCC1c1ccc(Br)cc1)c1ccc2cc(Cl)ccc2n1

>  <score_type>  (100) 
oracle

>  <origin>  (100) 
autodockgpu

>  <m_score__min__energy>  (100) 
-8.7799999999999994

>  <m_primary>  (100) 
energy

>  <rmsd>  (100) 
2.1242876118397938

>  <m_score__min__rmsd>  (100) 
2.1242876118397938

>  <meeko>  (100) 
{"free_energy": -7.97, "intermolecular_energy": -9.46, "internal_energy": -1.65, "cluster_size": 28, "cluster_id": 1, "rank_in_cluster": 27}

>  <energy>  (100) 
-7.41

>  <cluster_rmsd>  (100) 
0.92

>  <cluster>  (100) 
5

$$$$
