
     RDKit          3D

 50 52  0  0  0  0  0  0  0  0999 V2000
  140.2040   79.3630  223.8110 C   0  0  0  0  0  0  0  0  0  0  0  0
  141.2770   78.5280  223.1460 C   0  0  0  0  0  0  0  0  0  0  0  0
  142.5660   79.2620  222.9870 C   0  0  0  0  0  0  0  0  0  0  0  0
  140.7180   78.0570  221.7990 C   0  0  2  0  0  0  0  0  0  0  0  0
  140.9280   76.6280  221.6800 N   0  0  0  0  0  0  0  0  0  0  0  0
  139.9330   75.7650  221.1650 C   0  0  0  0  0  0  0  0  0  0  0  0
  138.8240   76.2460  220.7970 O   0  0  0  0  0  0  0  0  0  0  0  0
  140.2510   74.3170  221.0850 C   0  0  0  0  0  0  0  0  0  0  0  0
  139.9650   73.6290  222.3250 N   0  0  0  0  0  0  0  0  0  0  0  0
  140.4720   72.3100  222.4730 C   0  0  0  0  0  0  0  0  0  0  0  0
  141.1400   71.8370  221.5000 O   0  0  0  0  0  0  0  0  0  0  0  0
  140.2450   71.5380  223.6680 C   0  0  0  0  0  0  0  0  0  0  0  0
  139.5280   70.3570  223.5880 C   0  0  0  0  0  0  0  0  0  0  0  0
  139.2750   69.5750  224.6830 C   0  0  0  0  0  0  0  0  0  0  0  0
  139.7380   69.9530  225.9080 C   0  0  0  0  0  0  0  0  0  0  0  0
  139.4760   69.1590  226.9920 C   0  0  0  0  0  0  0  0  0  0  0  0
  139.9460   69.5530  228.2160 C   0  0  0  0  0  0  0  0  0  0  0  0
  140.6640   70.7240  228.3260 C   0  0  0  0  0  0  0  0  0  0  0  0
  140.9320   71.5340  227.2220 C   0  0  0  0  0  0  0  0  0  0  0  0
  140.4540   71.1340  225.9860 C   0  0  0  0  0  0  0  0  0  0  0  0
  140.6910   71.8900  224.8900 N   0  0  0  0  0  0  0  0  0  0  0  0
  141.2440   78.8290  220.6700 C   0  0  0  0  0  0  0  0  0  0  0  0
  140.9180   80.1870  220.6210 C   0  0  0  0  0  0  0  0  0  0  0  0
  141.3740   80.9940  219.5870 C   0  0  0  0  0  0  0  0  0  0  0  0
  142.1730   80.4680  218.5660 C   0  0  0  0  0  0  0  0  0  0  0  0
  142.4780   79.1260  218.6410 C   0  0  0  0  0  0  0  0  0  0  0  0
  142.0290   78.3160  219.6650 C   0  0  0  0  0  0  0  0  0  0  0  0
  140.3037   79.2854  224.9037 H   0  0  0  0  0  0  0  0  0  0  0  0
  140.3158   80.4140  223.5063 H   0  0  0  0  0  0  0  0  0  0  0  0
  139.2127   78.9964  223.5063 H   0  0  0  0  0  0  0  0  0  0  0  0
  141.5222   77.6667  223.7848 H   0  0  0  0  0  0  0  0  0  0  0  0
  142.9789   79.4971  223.9791 H   0  0  0  0  0  0  0  0  0  0  0  0
  143.2792   78.6346  222.4323 H   0  0  0  0  0  0  0  0  0  0  0  0
  142.3904   80.1955  222.4323 H   0  0  0  0  0  0  0  0  0  0  0  0
  139.6349   78.2464  221.7661 H   0  0  0  0  0  0  0  0  0  0  0  0
  141.8540   76.2340  221.9880 H   0  0  0  0  0  0  0  0  0  0  0  0
  139.6502   73.8655  220.2818 H   0  0  0  0  0  0  0  0  0  0  0  0
  141.3274   74.2167  220.8818 H   0  0  0  0  0  0  0  0  0  0  0  0
  139.4050   74.0730  223.0970 H   0  0  0  0  0  0  0  0  0  0  0  0
  139.1470   70.0344  222.6078 H   0  0  0  0  0  0  0  0  0  0  0  0
  138.6994   68.6439  224.5744 H   0  0  0  0  0  0  0  0  0  0  0  0
  138.9018   68.2272  226.8822 H   0  0  0  0  0  0  0  0  0  0  0  0
  139.7515   68.9380  229.1070 H   0  0  0  0  0  0  0  0  0  0  0  0
  141.0373   71.0296  229.3146 H   0  0  0  0  0  0  0  0  0  0  0  0
  141.5075   72.4651  227.3308 H   0  0  0  0  0  0  0  0  0  0  0  0
  140.2912   80.6229  221.4129 H   0  0  0  0  0  0  0  0  0  0  0  0
  141.1036   82.0601  219.5705 H   0  0  0  0  0  0  0  0  0  0  0  0
  142.5408   81.0965  217.7415 H   0  0  0  0  0  0  0  0  0  0  0  0
  143.1045   78.6823  217.8532 H   0  0  0  0  0  0  0  0  0  0  0  0
  142.3020   77.2505  219.6767 H   0  0  0  0  0  0  0  0  0  0  0  0
  1  2  1  0
  2  3  1  0
  2  4  1  0
  4  5  1  0
  5  6  1  0
  6  7  2  0
  6  8  1  0
  8  9  1  0
  9 10  1  0
 10 11  2  0
 10 12  1  0
 12 13  2  0
 13 14  1  0
 14 15  2  0
 15 16  1  0
 16 17  2  0
 17 18  1  0
 18 19  2  0
 19 20  1  0
 20 21  2  0
  4 22  1  0
 22 23  2  0
 23 24  1  0
 24 25  2  0
 25 26  1  0
 26 27  2  0
 21 12  1  0
 27 22  1  0
 20 15  1  0
  1 28  1  0
  1 29  1  0
  1 30  1  0
  2 31  1  0
  3 32  1  0
  3 33  1  0
  3 34  1  0
  4 35  1  1
  5 36  1  0
  8 37  1  0
  8 38  1  0
  9 39  1  0
 13 40  1  0
 14 41  1  0
 16 42  1  0
 17 43  1  0
 18 44  1  0
 19 45  1  0
 23 46  1  0
 24 47  1  0
 25 48  1  0
 26 49  1  0
 27 50  1  0
M  END
>  <smiles>  (1) 
CC(C)[C@H](NC(=O)CNC(=O)c1ccc2ccccc2n1)c1ccccc1

>  <score_type>  (1) 
oracle

>  <origin>  (1) 
autodockgpu

>  <m_score__min__energy>  (1) 
-8.8300000000000001

>  <m_primary>  (1) 
energy

>  <rmsd>  (1) 
3.716799663906747

>  <m_score__min__rmsd>  (1) 
3.716799663906747

>  <meeko>  (1) 
{"free_energy": -8.74, "intermolecular_energy": -10.53, "internal_energy": -1.1, "cluster_size": 23, "cluster_id": 1, "rank_in_cluster": 3}

>  <energy>  (1) 
-8.83

>  <cluster_rmsd>  (1) 
0.0

>  <cluster>  (1) 
1

$$$$

     RDKit          3D

 50 52  0  0  0  0  0  0  0  0999 V2000
  142.8840   76.7650  219.3270 C   0  0  0  0  0  0  0  0  0  0  0  0
  141.5460   77.3090  219.7810 C   0  0  0  0  0  0  0  0  0  0  0  0
  141.4370   78.7870  219.6160 C   0  0  0  0  0  0  0  0  0  0  0  0
  141.3510   76.8800  221.2390 C   0  0  2  0  0  0  0  0  0  0  0  0
  140.3550   75.8280  221.2880 N   0  0  0  0  0  0  0  0  0  0  0  0
  140.7100   74.4600  221.2660 C   0  0  0  0  0  0  0  0  0  0  0  0
  141.9300   74.1360  221.2010 O   0  0  0  0  0  0  0  0  0  0  0  0
  139.6120   73.4620  221.3220 C   0  0  0  0  0  0  0  0  0  0  0  0
  139.5150   72.8340  222.6220 N   0  0  0  0  0  0  0  0  0  0  0  0
  140.5270   71.9030  222.9750 C   0  0  0  0  0  0  0  0  0  0  0  0
  141.4430   71.6940  222.1190 O   0  0  0  0  0  0  0  0  0  0  0  0
  140.5240   71.2220  224.2460 C   0  0  0  0  0  0  0  0  0  0  0  0
  141.0140   71.8710  225.3650 C   0  0  0  0  0  0  0  0  0  0  0  0
  141.0410   71.2840  226.6020 C   0  0  0  0  0  0  0  0  0  0  0  0
  140.5720   70.0140  226.7610 C   0  0  0  0  0  0  0  0  0  0  0  0
  140.6070   69.4420  228.0040 C   0  0  0  0  0  0  0  0  0  0  0  0
  140.1340   68.1660  228.1480 C   0  0  0  0  0  0  0  0  0  0  0  0
  139.6390   67.4960  227.0500 C   0  0  0  0  0  0  0  0  0  0  0  0
  139.6030   68.0760  225.7820 C   0  0  0  0  0  0  0  0  0  0  0  0
  140.0830   69.3670  225.6400 C   0  0  0  0  0  0  0  0  0  0  0  0
  140.0670   69.9670  224.4280 N   0  0  0  0  0  0  0  0  0  0  0  0
  141.0610   78.0120  222.1240 C   0  0  0  0  0  0  0  0  0  0  0  0
  139.7210   78.2430  222.4430 C   0  0  0  0  0  0  0  0  0  0  0  0
  139.3550   79.2940  223.2760 C   0  0  0  0  0  0  0  0  0  0  0  0
  140.3210   80.1500  223.8160 C   0  0  0  0  0  0  0  0  0  0  0  0
  141.6350   79.8970  223.4820 C   0  0  0  0  0  0  0  0  0  0  0  0
  142.0070   78.8560  222.6560 C   0  0  0  0  0  0  0  0  0  0  0  0
  143.4961   76.5161  220.2064 H   0  0  0  0  0  0  0  0  0  0  0  0
  142.7257   75.8598  218.7224 H   0  0  0  0  0  0  0  0  0  0  0  0
  143.4023   77.5238  218.7224 H   0  0  0  0  0  0  0  0  0  0  0  0
  140.7463   76.8972  219.1479 H   0  0  0  0  0  0  0  0  0  0  0  0
  141.4018   79.2649  220.6061 H   0  0  0  0  0  0  0  0  0  0  0  0
  142.3101   79.1593  219.0601 H   0  0  0  0  0  0  0  0  0  0  0  0
  140.5187   79.0271  219.0601 H   0  0  0  0  0  0  0  0  0  0  0  0
  142.2951   76.4732  221.6303 H   0  0  0  0  0  0  0  0  0  0  0  0
  139.3410   76.1060  221.3430 H   0  0  0  0  0  0  0  0  0  0  0  0
  138.6608   73.9680  221.1003 H   0  0  0  0  0  0  0  0  0  0  0  0
  139.8280   72.6778  220.5815 H   0  0  0  0  0  0  0  0  0  0  0  0
  138.7300   73.0480  223.2910 H   0  0  0  0  0  0  0  0  0  0  0  0
  141.3962   72.8968  225.2572 H   0  0  0  0  0  0  0  0  0  0  0  0
  141.4403   71.8362  227.4655 H   0  0  0  0  0  0  0  0  0  0  0  0
  141.0060   69.9951  228.8671 H   0  0  0  0  0  0  0  0  0  0  0  0
  140.1488   67.6782  229.1338 H   0  0  0  0  0  0  0  0  0  0  0  0
  139.2603   66.4712  227.1777 H   0  0  0  0  0  0  0  0  0  0  0  0
  139.2043   67.5231  224.9187 H   0  0  0  0  0  0  0  0  0  0  0  0
  138.9439   77.5836  222.0290 H   0  0  0  0  0  0  0  0  0  0  0  0
  138.2930   79.4546  223.5135 H   0  0  0  0  0  0  0  0  0  0  0  0
  140.0454   80.9857  224.4760 H   0  0  0  0  0  0  0  0  0  0  0  0
  142.4186   80.5519  223.8908 H   0  0  0  0  0  0  0  0  0  0  0  0
  143.0702   78.7000  222.4211 H   0  0  0  0  0  0  0  0  0  0  0  0
  1  2  1  0
  2  3  1  0
  2  4  1  0
  4  5  1  0
  5  6  1  0
  6  7  2  0
  6  8  1  0
  8  9  1  0
  9 10  1  0
 10 11  2  0
 10 12  1  0
 12 13  2  0
 13 14  1  0
 14 15  2  0
 15 16  1  0
 16 17  2  0
 17 18  1  0
 18 19  2  0
 19 20  1  0
 20 21  2  0
  4 22  1  0
 22 23  2  0
 23 24  1  0
 24 25  2  0
 25 26  1  0
 26 27  2  0
 21 12  1  0
 27 22  1  0
 20 15  1  0
  1 28  1  0
  1 29  1  0
  1 30  1  0
  2 31  1  0
  3 32  1  0
  3 33  1  0
  3 34  1  0
  4 35  1  1
  5 36  1  0
  8 37  1  0
  8 38  1  0
  9 39  1  0
 13 40  1  0
 14 41  1  0
 16 42  1  0
 17 43  1  0
 18 44  1  0
 19 45  1  0
 23 46  1  0
 24 47  1  0
 25 48  1  0
 26 49  1  0
 27 50  1  0
M  END
>  <smiles>  (2) 
CC(C)[C@H](NC(=O)CNC(=O)c1ccc2ccccc2n1)c1ccccc1

>  <score_type>  (2) 
oracle

>  <origin>  (2) 
autodockgpu

>  <m_score__min__energy>  (2) 
-8.8300000000000001

>  <m_primary>  (2) 
energy

>  <rmsd>  (2) 
3.77885070162194

>  <m_score__min__rmsd>  (2) 
3.77885070162194

>  <meeko>  (2) 
{"free_energy": -8.42, "intermolecular_energy": -10.21, "internal_energy": -1.06, "cluster_size": 23, "cluster_id": 1, "rank_in_cluster": 18}

>  <energy>  (2) 
-8.82

>  <cluster_rmsd>  (2) 
0.13

>  <cluster>  (2) 
1

$$$$

     RDKit          3D

 50 52  0  0  0  0  0  0  0  0999 V2000
  142.9370   77.0080  219.2970 C   0  0  0  0  0  0  0  0  0  0  0  0
  141.6900   77.7400  219.7440 C   0  0  0  0  0  0  0  0  0  0  0  0
  141.8080   79.2200  219.6090 C   0  0  0  0  0  0  0  0  0  0  0  0
  141.4090   77.3190  221.1910 C   0  0  2  0  0  0  0  0  0  0  0  0
  140.3130   76.3700  221.1970 N   0  0  0  0  0  0  0  0  0  0  0  0
  140.5270   74.9800  221.0600 C   0  0  0  0  0  0  0  0  0  0  0  0
  141.7050   74.5420  220.9260 O   0  0  0  0  0  0  0  0  0  0  0  0
  139.3350   74.0940  221.0810 C   0  0  0  0  0  0  0  0  0  0  0  0
  139.2240   73.3630  222.3250 N   0  0  0  0  0  0  0  0  0  0  0  0
  140.1160   72.2760  222.5270 C   0  0  0  0  0  0  0  0  0  0  0  0
  140.9460   72.0310  221.5950 O   0  0  0  0  0  0  0  0  0  0  0  0
  140.0900   71.4840  223.7300 C   0  0  0  0  0  0  0  0  0  0  0  0
  139.5250   70.2210  223.7000 C   0  0  0  0  0  0  0  0  0  0  0  0
  139.4650   69.4160  224.8060 C   0  0  0  0  0  0  0  0  0  0  0  0
  139.9760   69.8530  225.9920 C   0  0  0  0  0  0  0  0  0  0  0  0
  139.9080   69.0340  227.0870 C   0  0  0  0  0  0  0  0  0  0  0  0
  140.4240   69.4870  228.2710 C   0  0  0  0  0  0  0  0  0  0  0  0
  140.9940   70.7410  228.3310 C   0  0  0  0  0  0  0  0  0  0  0  0
  141.0630   71.5760  227.2160 C   0  0  0  0  0  0  0  0  0  0  0  0
  140.5400   71.1160  226.0190 C   0  0  0  0  0  0  0  0  0  0  0  0
  140.5870   71.8930  224.9150 N   0  0  0  0  0  0  0  0  0  0  0  0
  141.2060   78.4660  222.0810 C   0  0  0  0  0  0  0  0  0  0  0  0
  142.3470   79.0580  222.6250 C   0  0  0  0  0  0  0  0  0  0  0  0
  142.2480   80.1500  223.4790 C   0  0  0  0  0  0  0  0  0  0  0  0
  140.9990   80.6850  223.8160 C   0  0  0  0  0  0  0  0  0  0  0  0
  139.8910   80.0780  223.2630 C   0  0  0  0  0  0  0  0  0  0  0  0
  139.9810   78.9930  222.4140 C   0  0  0  0  0  0  0  0  0  0  0  0
  143.5033   76.6756  220.1795 H   0  0  0  0  0  0  0  0  0  0  0  0
  142.6524   76.1336  218.6933 H   0  0  0  0  0  0  0  0  0  0  0  0
  143.5617   77.6828  218.6933 H   0  0  0  0  0  0  0  0  0  0  0  0
  140.8481   77.4658  219.0913 H   0  0  0  0  0  0  0  0  0  0  0  0
  141.8445   79.6776  220.6086 H   0  0  0  0  0  0  0  0  0  0  0  0
  142.7286   79.4658  219.0594 H   0  0  0  0  0  0  0  0  0  0  0  0
  140.9380   79.6086  219.0594 H   0  0  0  0  0  0  0  0  0  0  0  0
  142.2957   76.8172  221.6057 H   0  0  0  0  0  0  0  0  0  0  0  0
  139.3350   76.7410  221.3100 H   0  0  0  0  0  0  0  0  0  0  0  0
  138.4329   74.7094  220.9491 H   0  0  0  0  0  0  0  0  0  0  0  0
  139.4410   73.3629  220.2659 H   0  0  0  0  0  0  0  0  0  0  0  0
  138.5150   73.6140  223.0620 H   0  0  0  0  0  0  0  0  0  0  0  0
  139.1084   69.8499  222.7520 H   0  0  0  0  0  0  0  0  0  0  0  0
  139.0055   68.4189  224.7377 H   0  0  0  0  0  0  0  0  0  0  0  0
  139.4499   68.0364  227.0169 H   0  0  0  0  0  0  0  0  0  0  0  0
  140.3842   68.8541  229.1698 H   0  0  0  0  0  0  0  0  0  0  0  0
  141.4070   71.0937  229.2876 H   0  0  0  0  0  0  0  0  0  0  0  0
  141.5208   72.5738  227.2855 H   0  0  0  0  0  0  0  0  0  0  0  0
  143.3390   78.6544  222.3741 H   0  0  0  0  0  0  0  0  0  0  0  0
  143.1618   80.5992  223.8950 H   0  0  0  0  0  0  0  0  0  0  0  0
  140.9057   81.5491  224.4903 H   0  0  0  0  0  0  0  0  0  0  0  0
  138.8947   80.4745  223.5084 H   0  0  0  0  0  0  0  0  0  0  0  0
  139.0646   78.5465  222.0006 H   0  0  0  0  0  0  0  0  0  0  0  0
  1  2  1  0
  2  3  1  0
  2  4  1  0
  4  5  1  0
  5  6  1  0
  6  7  2  0
  6  8  1  0
  8  9  1  0
  9 10  1  0
 10 11  2  0
 10 12  1  0
 12 13  2  0
 13 14  1  0
 14 15  2  0
 15 16  1  0
 16 17  2  0
 17 18  1  0
 18 19  2  0
 19 20  1  0
 20 21  2  0
  4 22  1  0
 22 23  2  0
 23 24  1  0
 24 25  2  0
 25 26  1  0
 26 27  2  0
 21 12  1  0
 27 22  1  0
 20 15  1  0
  1 28  1  0
  1 29  1  0
  1 30  1  0
  2 31  1  0
  3 32  1  0
  3 33  1  0
  3 34  1  0
  4 35  1  1
  5 36  1  0
  8 37  1  0
  8 38  1  0
  9 39  1  0
 13 40  1  0
 14 41  1  0
 16 42  1  0
 17 43  1  0
 18 44  1  0
 19 45  1  0
 23 46  1  0
 24 47  1  0
 25 48  1  0
 26 49  1  0
 27 50  1  0
M  END
>  <smiles>  (3) 
CC(C)[C@H](NC(=O)CNC(=O)c1ccc2ccccc2n1)c1ccccc1

>  <score_type>  (3) 
oracle

>  <origin>  (3) 
autodockgpu

>  <m_score__min__energy>  (3) 
-8.8300000000000001

>  <m_primary>  (3) 
energy

>  <rmsd>  (3) 
4.145277158934417

>  <m_score__min__rmsd>  (3) 
4.145277158934417

>  <meeko>  (3) 
{"free_energy": -8.74, "intermolecular_energy": -10.53, "internal_energy": -1.06, "cluster_size": 23, "cluster_id": 1, "rank_in_cluster": 5}

>  <energy>  (3) 
-8.74

>  <cluster_rmsd>  (3) 
0.18

>  <cluster>  (3) 
1

$$$$

     RDKit          3D

 50 52  0  0  0  0  0  0  0  0999 V2000
  142.6150   80.3140  223.8300 C   0  0  0  0  0  0  0  0  0  0  0  0
  142.2910   79.4020  222.6660 C   0  0  0  0  0  0  0  0  0  0  0  0
  142.1520   80.1380  221.3760 C   0  0  0  0  0  0  0  0  0  0  0  0
  141.0140   78.6360  223.0270 C   0  0  2  0  0  0  0  0  0  0  0  0
  141.0060   77.3750  222.3120 N   0  0  0  0  0  0  0  0  0  0  0  0
  139.8800   76.5220  222.3110 C   0  0  0  0  0  0  0  0  0  0  0  0
  138.8440   76.8600  222.9520 O   0  0  0  0  0  0  0  0  0  0  0  0
  139.9760   75.2540  221.5450 C   0  0  0  0  0  0  0  0  0  0  0  0
  139.5870   74.1090  222.3400 N   0  0  0  0  0  0  0  0  0  0  0  0
  140.4720   72.9990  222.3640 C   0  0  0  0  0  0  0  0  0  0  0  0
  141.5410   73.0990  221.6830 O   0  0  0  0  0  0  0  0  0  0  0  0
  140.1800   71.8090  223.1230 C   0  0  0  0  0  0  0  0  0  0  0  0
  139.3590   70.8390  222.5780 C   0  0  0  0  0  0  0  0  0  0  0  0
  139.0390   69.6860  223.2440 C   0  0  0  0  0  0  0  0  0  0  0  0
  139.5390   69.4640  224.4930 C   0  0  0  0  0  0  0  0  0  0  0  0
  139.2100   68.3060  225.1440 C   0  0  0  0  0  0  0  0  0  0  0  0
  139.7180   68.0970  226.3980 C   0  0  0  0  0  0  0  0  0  0  0  0
  140.5400   69.0450  226.9660 C   0  0  0  0  0  0  0  0  0  0  0  0
  140.8760   70.2260  226.3040 C   0  0  0  0  0  0  0  0  0  0  0  0
  140.3600   70.4350  225.0360 C   0  0  0  0  0  0  0  0  0  0  0  0
  140.6610   71.5660  224.3590 N   0  0  0  0  0  0  0  0  0  0  0  0
  139.8030   79.4370  222.8300 C   0  0  0  0  0  0  0  0  0  0  0  0
  139.2880   80.0980  223.9480 C   0  0  0  0  0  0  0  0  0  0  0  0
  138.1430   80.8790  223.8520 C   0  0  0  0  0  0  0  0  0  0  0  0
  137.4750   81.0250  222.6320 C   0  0  0  0  0  0  0  0  0  0  0  0
  138.0060   80.3600  221.5460 C   0  0  0  0  0  0  0  0  0  0  0  0
  139.1430   79.5820  221.6330 C   0  0  0  0  0  0  0  0  0  0  0  0
  142.4265   79.7835  224.7750 H   0  0  0  0  0  0  0  0  0  0  0  0
  143.6733   80.6099  223.7804 H   0  0  0  0  0  0  0  0  0  0  0  0
  141.9806   81.2113  223.7804 H   0  0  0  0  0  0  0  0  0  0  0  0
  143.1254   78.7042  222.5024 H   0  0  0  0  0  0  0  0  0  0  0  0
  141.9514   81.2002  221.5797 H   0  0  0  0  0  0  0  0  0  0  0  0
  143.0836   80.0450  220.7985 H   0  0  0  0  0  0  0  0  0  0  0  0
  141.3185   79.7116  220.7985 H   0  0  0  0  0  0  0  0  0  0  0  0
  141.0123   78.4154  224.1046 H   0  0  0  0  0  0  0  0  0  0  0  0
  141.8720   77.1010  221.7800 H   0  0  0  0  0  0  0  0  0  0  0  0
  139.3153   75.3182  220.6679 H   0  0  0  0  0  0  0  0  0  0  0  0
  141.0252   75.1177  221.2440 H   0  0  0  0  0  0  0  0  0  0  0  0
  138.6860   74.0830  222.8840 H   0  0  0  0  0  0  0  0  0  0  0  0
  138.9471   70.9997  221.5708 H   0  0  0  0  0  0  0  0  0  0  0  0
  138.3807   68.9413  222.7729 H   0  0  0  0  0  0  0  0  0  0  0  0
  138.5532   67.5611  224.6710 H   0  0  0  0  0  0  0  0  0  0  0  0
  139.4711   67.1773  226.9487 H   0  0  0  0  0  0  0  0  0  0  0  0
  140.9441   68.8652  227.9731 H   0  0  0  0  0  0  0  0  0  0  0  0
  141.5330   70.9711  226.7764 H   0  0  0  0  0  0  0  0  0  0  0  0
  139.7965   79.9986  224.9183 H   0  0  0  0  0  0  0  0  0  0  0  0
  137.7570   81.3890  224.7469 H   0  0  0  0  0  0  0  0  0  0  0  0
  136.5684   81.6414  222.5424 H   0  0  0  0  0  0  0  0  0  0  0  0
  137.5033   80.4535  220.5721 H   0  0  0  0  0  0  0  0  0  0  0  0
  139.5246   79.0731  220.7356 H   0  0  0  0  0  0  0  0  0  0  0  0
  1  2  1  0
  2  3  1  0
  2  4  1  0
  4  5  1  0
  5  6  1  0
  6  7  2  0
  6  8  1  0
  8  9  1  0
  9 10  1  0
 10 11  2  0
 10 12  1  0
 12 13  2  0
 13 14  1  0
 14 15  2  0
 15 16  1  0
 16 17  2  0
 17 18  1  0
 18 19  2  0
 19 20  1  0
 20 21  2  0
  4 22  1  0
 22 23  2  0
 23 24  1  0
 24 25  2  0
 25 26  1  0
 26 27  2  0
 21 12  1  0
 27 22  1  0
 20 15  1  0
  1 28  1  0
  1 29  1  0
  1 30  1  0
  2 31  1  0
  3 32  1  0
  3 33  1  0
  3 34  1  0
  4 35  1  1
  5 36  1  0
  8 37  1  0
  8 38  1  0
  9 39  1  0
 13 40  1  0
 14 41  1  0
 16 42  1  0
 17 43  1  0
 18 44  1  0
 19 45  1  0
 23 46  1  0
 24 47  1  0
 25 48  1  0
 26 49  1  0
 27 50  1  0
M  END
>  <smiles>  (4) 
CC(C)[C@H](NC(=O)CNC(=O)c1ccc2ccccc2n1)c1ccccc1

>  <score_type>  (4) 
oracle

>  <origin>  (4) 
autodockgpu

>  <m_score__min__energy>  (4) 
-8.8300000000000001

>  <m_primary>  (4) 
energy

>  <rmsd>  (4) 
3.2062946894600493

>  <m_score__min__rmsd>  (4) 
3.2062946894600493

>  <meeko>  (4) 
{"free_energy": -8.4, "intermolecular_energy": -10.19, "internal_energy": -1.1, "cluster_size": 23, "cluster_id": 1, "rank_in_cluster": 20}

>  <energy>  (4) 
-8.74

>  <cluster_rmsd>  (4) 
1.75

>  <cluster>  (4) 
1

$$$$

     RDKit          3D

 50 52  0  0  0  0  0  0  0  0999 V2000
  143.9870   72.2420  220.8440 C   0  0  0  0  0  0  0  0  0  0  0  0
  144.3680   73.5910  220.2720 C   0  0  0  0  0  0  0  0  0  0  0  0
  145.6430   74.1190  220.8370 C   0  0  0  0  0  0  0  0  0  0  0  0
  143.1930   74.5410  220.5260 C   0  0  2  0  0  0  0  0  0  0  0  0
  141.9830   73.7590  220.6820 N   0  0  0  0  0  0  0  0  0  0  0  0
  140.8060   74.3040  221.2440 C   0  0  0  0  0  0  0  0  0  0  0  0
  140.8000   75.5090  221.6260 O   0  0  0  0  0  0  0  0  0  0  0  0
  139.6210   73.4160  221.3560 C   0  0  0  0  0  0  0  0  0  0  0  0
  139.5190   72.8100  222.6670 N   0  0  0  0  0  0  0  0  0  0  0  0
  140.5320   71.8880  223.0410 C   0  0  0  0  0  0  0  0  0  0  0  0
  141.4530   71.6670  222.1930 O   0  0  0  0  0  0  0  0  0  0  0  0
  140.5250   71.2300  224.3230 C   0  0  0  0  0  0  0  0  0  0  0  0
  141.0300   71.8910  225.4290 C   0  0  0  0  0  0  0  0  0  0  0  0
  141.0540   71.3250  226.6760 C   0  0  0  0  0  0  0  0  0  0  0  0
  140.5670   70.0650  226.8590 C   0  0  0  0  0  0  0  0  0  0  0  0
  140.5990   69.5150  228.1120 C   0  0  0  0  0  0  0  0  0  0  0  0
  140.1080   68.2480  228.2800 C   0  0  0  0  0  0  0  0  0  0  0  0
  139.5990   67.5660  227.1960 C   0  0  0  0  0  0  0  0  0  0  0  0
  139.5660   68.1250  225.9180 C   0  0  0  0  0  0  0  0  0  0  0  0
  140.0640   69.4060  225.7510 C   0  0  0  0  0  0  0  0  0  0  0  0
  140.0510   69.9850  224.5300 N   0  0  0  0  0  0  0  0  0  0  0  0
  143.0910   75.5940  219.5110 C   0  0  0  0  0  0  0  0  0  0  0  0
  143.4620   75.2580  218.2070 C   0  0  0  0  0  0  0  0  0  0  0  0
  143.3970   76.1940  217.1820 C   0  0  0  0  0  0  0  0  0  0  0  0
  142.9590   77.4990  217.4310 C   0  0  0  0  0  0  0  0  0  0  0  0
  142.6010   77.8010  218.7270 C   0  0  0  0  0  0  0  0  0  0  0  0
  142.6620   76.8780  219.7520 C   0  0  0  0  0  0  0  0  0  0  0  0
  144.0012   72.2924  221.9427 H   0  0  0  0  0  0  0  0  0  0  0  0
  142.9771   71.9709  220.5024 H   0  0  0  0  0  0  0  0  0  0  0  0
  144.7058   71.4826  220.5024 H   0  0  0  0  0  0  0  0  0  0  0  0
  144.5592   73.4938  219.1931 H   0  0  0  0  0  0  0  0  0  0  0  0
  145.5935   74.0985  221.9357 H   0  0  0  0  0  0  0  0  0  0  0  0
  146.4817   73.4942  220.4961 H   0  0  0  0  0  0  0  0  0  0  0  0
  145.7944   75.1538  220.4961 H   0  0  0  0  0  0  0  0  0  0  0  0
  143.3648   75.0919  221.4625 H   0  0  0  0  0  0  0  0  0  0  0  0
  141.9950   72.7560  220.3610 H   0  0  0  0  0  0  0  0  0  0  0  0
  138.7139   74.0089  221.1673 H   0  0  0  0  0  0  0  0  0  0  0  0
  139.7301   72.6091  220.6164 H   0  0  0  0  0  0  0  0  0  0  0  0
  138.7310   73.0340  223.3280 H   0  0  0  0  0  0  0  0  0  0  0  0
  141.4269   72.9090  225.3019 H   0  0  0  0  0  0  0  0  0  0  0  0
  141.4654   71.8860  227.5281 H   0  0  0  0  0  0  0  0  0  0  0  0
  141.0094   70.0775  228.9636 H   0  0  0  0  0  0  0  0  0  0  0  0
  140.1197   67.7773  229.2741 H   0  0  0  0  0  0  0  0  0  0  0  0
  139.2064   66.5490  227.3429 H   0  0  0  0  0  0  0  0  0  0  0  0
  139.1554   67.5631  225.0661 H   0  0  0  0  0  0  0  0  0  0  0  0
  143.8106   74.2379  217.9883 H   0  0  0  0  0  0  0  0  0  0  0  0
  143.6935   75.9054  216.1628 H   0  0  0  0  0  0  0  0  0  0  0  0
  142.9029   78.2497  216.6290 H   0  0  0  0  0  0  0  0  0  0  0  0
  142.2523   78.8192  218.9542 H   0  0  0  0  0  0  0  0  0  0  0  0
  142.3651   77.1721  220.7695 H   0  0  0  0  0  0  0  0  0  0  0  0
  1  2  1  0
  2  3  1  0
  2  4  1  0
  4  5  1  0
  5  6  1  0
  6  7  2  0
  6  8  1  0
  8  9  1  0
  9 10  1  0
 10 11  2  0
 10 12  1  0
 12 13  2  0
 13 14  1  0
 14 15  2  0
 15 16  1  0
 16 17  2  0
 17 18  1  0
 18 19  2  0
 19 20  1  0
 20 21  2  0
  4 22  1  0
 22 23  2  0
 23 24  1  0
 24 25  2  0
 25 26  1  0
 26 27  2  0
 21 12  1  0
 27 22  1  0
 20 15  1  0
  1 28  1  0
  1 29  1  0
  1 30  1  0
  2 31  1  0
  3 32  1  0
  3 33  1  0
  3 34  1  0
  4 35  1  1
  5 36  1  0
  8 37  1  0
  8 38  1  0
  9 39  1  0
 13 40  1  0
 14 41  1  0
 16 42  1  0
 17 43  1  0
 18 44  1  0
 19 45  1  0
 23 46  1  0
 24 47  1  0
 25 48  1  0
 26 49  1  0
 27 50  1  0
M  END
>  <smiles>  (5) 
CC(C)[C@H](NC(=O)CNC(=O)c1ccc2ccccc2n1)c1ccccc1

>  <score_type>  (5) 
oracle

>  <origin>  (5) 
autodockgpu

>  <m_score__min__energy>  (5) 
-8.8300000000000001

>  <m_primary>  (5) 
energy

>  <rmsd>  (5) 
5.165276207601955

>  <m_score__min__rmsd>  (5) 
5.165276207601955

>  <meeko>  (5) 
{"free_energy": -8.17, "intermolecular_energy": -9.96, "internal_energy": -1.84, "cluster_size": 8, "cluster_id": 5, "rank_in_cluster": 2}

>  <energy>  (5) 
-8.74

>  <cluster_rmsd>  (5) 
1.73

>  <cluster>  (5) 
1

$$$$

     RDKit          3D

 50 52  0  0  0  0  0  0  0  0999 V2000
  140.4170   78.6610  218.9090 C   0  0  0  0  0  0  0  0  0  0  0  0
  141.8300   78.3030  219.3170 C   0  0  0  0  0  0  0  0  0  0  0  0
  142.5330   77.4720  218.2970 C   0  0  0  0  0  0  0  0  0  0  0  0
  141.7490   77.5960  220.6740 C   0  0  2  0  0  0  0  0  0  0  0  0
  140.6120   76.6970  220.6650 N   0  0  0  0  0  0  0  0  0  0  0  0
  140.7010   75.3730  221.1520 C   0  0  0  0  0  0  0  0  0  0  0  0
  141.8010   74.9520  221.6100 O   0  0  0  0  0  0  0  0  0  0  0  0
  139.4760   74.5350  221.0990 C   0  0  0  0  0  0  0  0  0  0  0  0
  139.3320   73.7090  222.2780 N   0  0  0  0  0  0  0  0  0  0  0  0
  140.1410   72.5450  222.3640 C   0  0  0  0  0  0  0  0  0  0  0  0
  140.9330   72.3210  221.3940 O   0  0  0  0  0  0  0  0  0  0  0  0
  140.0760   71.6550  223.4950 C   0  0  0  0  0  0  0  0  0  0  0  0
  139.4450   70.4310  223.3610 C   0  0  0  0  0  0  0  0  0  0  0  0
  139.3460   69.5380  224.3950 C   0  0  0  0  0  0  0  0  0  0  0  0
  139.8820   69.8450  225.6100 C   0  0  0  0  0  0  0  0  0  0  0  0
  139.7740   68.9400  226.6320 C   0  0  0  0  0  0  0  0  0  0  0  0
  140.3160   69.2620  227.8470 C   0  0  0  0  0  0  0  0  0  0  0  0
  140.9510   70.4740  228.0090 C   0  0  0  0  0  0  0  0  0  0  0  0
  141.0620   71.3970  226.9690 C   0  0  0  0  0  0  0  0  0  0  0  0
  140.5120   71.0690  225.7410 C   0  0  0  0  0  0  0  0  0  0  0  0
  140.5970   71.9350  224.7070 N   0  0  0  0  0  0  0  0  0  0  0  0
  141.7530   78.5350  221.7990 C   0  0  0  0  0  0  0  0  0  0  0  0
  142.1320   79.8520  221.5270 C   0  0  0  0  0  0  0  0  0  0  0  0
  142.1650   80.8080  222.5340 C   0  0  0  0  0  0  0  0  0  0  0  0
  141.8180   80.4770  223.8480 C   0  0  0  0  0  0  0  0  0  0  0  0
  141.4490   79.1700  224.0860 C   0  0  0  0  0  0  0  0  0  0  0  0
  141.4140   78.2130  223.0920 C   0  0  0  0  0  0  0  0  0  0  0  0
  139.8037   78.8164  219.8089 H   0  0  0  0  0  0  0  0  0  0  0  0
  140.4308   79.5840  218.3108 H   0  0  0  0  0  0  0  0  0  0  0  0
  139.9896   77.8428  218.3108 H   0  0  0  0  0  0  0  0  0  0  0  0
  142.4335   79.2192  219.3963 H   0  0  0  0  0  0  0  0  0  0  0  0
  143.1638   76.7263  218.8030 H   0  0  0  0  0  0  0  0  0  0  0  0
  141.7911   76.9584  217.6679 H   0  0  0  0  0  0  0  0  0  0  0  0
  143.1625   78.1185  217.6679 H   0  0  0  0  0  0  0  0  0  0  0  0
  142.6574   76.9953  220.8287 H   0  0  0  0  0  0  0  0  0  0  0  0
  139.6990   77.0540  220.2820 H   0  0  0  0  0  0  0  0  0  0  0  0
  138.5987   75.1935  221.0176 H   0  0  0  0  0  0  0  0  0  0  0  0
  139.5572   73.8700  220.2265 H   0  0  0  0  0  0  0  0  0  0  0  0
  138.6570   73.9470  223.0500 H   0  0  0  0  0  0  0  0  0  0  0  0
  139.0065   70.1651  222.3879 H   0  0  0  0  0  0  0  0  0  0  0  0
  138.8351   68.5754  224.2451 H   0  0  0  0  0  0  0  0  0  0  0  0
  139.2639   67.9773  226.4802 H   0  0  0  0  0  0  0  0  0  0  0  0
  140.2450   68.5575  228.6888 H   0  0  0  0  0  0  0  0  0  0  0  0
  141.3841   70.7216  228.9894 H   0  0  0  0  0  0  0  0  0  0  0  0
  141.5726   72.3595  227.1202 H   0  0  0  0  0  0  0  0  0  0  0  0
  142.4082   80.1358  220.5007 H   0  0  0  0  0  0  0  0  0  0  0  0
  142.4678   81.8382  222.2952 H   0  0  0  0  0  0  0  0  0  0  0  0
  141.8385   81.2250  224.6543 H   0  0  0  0  0  0  0  0  0  0  0  0
  141.1713   78.8781  225.1096 H   0  0  0  0  0  0  0  0  0  0  0  0
  141.1123   77.1838  223.3364 H   0  0  0  0  0  0  0  0  0  0  0  0
  1  2  1  0
  2  3  1  0
  2  4  1  0
  4  5  1  0
  5  6  1  0
  6  7  2  0
  6  8  1  0
  8  9  1  0
  9 10  1  0
 10 11  2  0
 10 12  1  0
 12 13  2  0
 13 14  1  0
 14 15  2  0
 15 16  1  0
 16 17  2  0
 17 18  1  0
 18 19  2  0
 19 20  1  0
 20 21  2  0
  4 22  1  0
 22 23  2  0
 23 24  1  0
 24 25  2  0
 25 26  1  0
 26 27  2  0
 21 12  1  0
 27 22  1  0
 20 15  1  0
  1 28  1  0
  1 29  1  0
  1 30  1  0
  2 31  1  0
  3 32  1  0
  3 33  1  0
  3 34  1  0
  4 35  1  1
  5 36  1  0
  8 37  1  0
  8 38  1  0
  9 39  1  0
 13 40  1  0
 14 41  1  0
 16 42  1  0
 17 43  1  0
 18 44  1  0
 19 45  1  0
 23 46  1  0
 24 47  1  0
 25 48  1  0
 26 49  1  0
 27 50  1  0
M  END
>  <smiles>  (6) 
CC(C)[C@H](NC(=O)CNC(=O)c1ccc2ccccc2n1)c1ccccc1

>  <score_type>  (6) 
oracle

>  <origin>  (6) 
autodockgpu

>  <m_score__min__energy>  (6) 
-8.8300000000000001

>  <m_primary>  (6) 
energy

>  <rmsd>  (6) 
4.119180410656638

>  <m_score__min__rmsd>  (6) 
4.119180410656638

>  <meeko>  (6) 
{"free_energy": -8.66, "intermolecular_energy": -10.45, "internal_energy": -1.16, "cluster_size": 23, "cluster_id": 1, "rank_in_cluster": 8}

>  <energy>  (6) 
-8.73

>  <cluster_rmsd>  (6) 
0.22

>  <cluster>  (6) 
1

$$$$

     RDKit          3D

 50 52  0  0  0  0  0  0  0  0999 V2000
  142.6490   77.7530  218.2090 C   0  0  0  0  0  0  0  0  0  0  0  0
  141.6080   78.3820  219.1100 C   0  0  0  0  0  0  0  0  0  0  0  0
  141.8510   79.8340  219.3490 C   0  0  0  0  0  0  0  0  0  0  0  0
  141.5940   77.5830  220.4180 C   0  0  2  0  0  0  0  0  0  0  0  0
  140.7030   76.4500  220.2640 N   0  0  0  0  0  0  0  0  0  0  0  0
  140.5410   75.4820  221.2810 C   0  0  0  0  0  0  0  0  0  0  0  0
  141.1890   75.5990  222.3600 O   0  0  0  0  0  0  0  0  0  0  0  0
  139.6020   74.3610  221.0220 C   0  0  0  0  0  0  0  0  0  0  0  0
  139.3890   73.5470  222.2000 N   0  0  0  0  0  0  0  0  0  0  0  0
  140.3180   72.5010  222.4480 C   0  0  0  0  0  0  0  0  0  0  0  0
  141.2660   72.3620  221.6120 O   0  0  0  0  0  0  0  0  0  0  0  0
  140.1980   71.6340  223.5920 C   0  0  0  0  0  0  0  0  0  0  0  0
  139.5410   70.4230  223.4610 C   0  0  0  0  0  0  0  0  0  0  0  0
  139.3900   69.5520  224.5070 C   0  0  0  0  0  0  0  0  0  0  0  0
  139.8990   69.8670  225.7320 C   0  0  0  0  0  0  0  0  0  0  0  0
  139.7400   68.9850  226.7660 C   0  0  0  0  0  0  0  0  0  0  0  0
  140.2550   69.3150  227.9900 C   0  0  0  0  0  0  0  0  0  0  0  0
  140.9150   70.5140  228.1500 C   0  0  0  0  0  0  0  0  0  0  0  0
  141.0780   71.4160  227.0970 C   0  0  0  0  0  0  0  0  0  0  0  0
  140.5550   71.0790  225.8600 C   0  0  0  0  0  0  0  0  0  0  0  0
  140.6910   71.9230  224.8130 N   0  0  0  0  0  0  0  0  0  0  0  0
  141.2950   78.4180  221.5850 C   0  0  0  0  0  0  0  0  0  0  0  0
  139.9470   78.6170  221.8950 C   0  0  0  0  0  0  0  0  0  0  0  0
  139.5730   79.3940  222.9840 C   0  0  0  0  0  0  0  0  0  0  0  0
  140.5370   79.9990  223.7990 C   0  0  0  0  0  0  0  0  0  0  0  0
  141.8570   79.7850  223.4660 C   0  0  0  0  0  0  0  0  0  0  0  0
  142.2390   79.0140  222.3860 C   0  0  0  0  0  0  0  0  0  0  0  0
  143.4295   77.2814  218.8241 H   0  0  0  0  0  0  0  0  0  0  0  0
  142.1725   76.9915  217.5741 H   0  0  0  0  0  0  0  0  0  0  0  0
  143.1015   78.5290  217.5741 H   0  0  0  0  0  0  0  0  0  0  0  0
  140.6237   78.3391  218.6207 H   0  0  0  0  0  0  0  0  0  0  0  0
  141.8833   80.0271  220.4314 H   0  0  0  0  0  0  0  0  0  0  0  0
  142.8103   80.1247  218.8959 H   0  0  0  0  0  0  0  0  0  0  0  0
  141.0386   80.4212  218.8959 H   0  0  0  0  0  0  0  0  0  0  0  0
  142.6037   77.1972  220.6218 H   0  0  0  0  0  0  0  0  0  0  0  0
  140.1660   76.3590  219.3630 H   0  0  0  0  0  0  0  0  0  0  0  0
  138.6360   74.7751  220.6974 H   0  0  0  0  0  0  0  0  0  0  0  0
  140.0436   73.7217  220.2433 H   0  0  0  0  0  0  0  0  0  0  0  0
  138.5830   73.7110  222.8570 H   0  0  0  0  0  0  0  0  0  0  0  0
  139.1246   70.1499  222.4802 H   0  0  0  0  0  0  0  0  0  0  0  0
  138.8590   68.6000  224.3591 H   0  0  0  0  0  0  0  0  0  0  0  0
  139.2103   68.0326  226.6167 H   0  0  0  0  0  0  0  0  0  0  0  0
  140.1428   68.6273  228.8412 H   0  0  0  0  0  0  0  0  0  0  0  0
  141.3262   70.7683  229.1381 H   0  0  0  0  0  0  0  0  0  0  0  0
  141.6076   72.3686  227.2460 H   0  0  0  0  0  0  0  0  0  0  0  0
  139.1717   78.1521  221.2683 H   0  0  0  0  0  0  0  0  0  0  0  0
  138.5056   79.5357  223.2088 H   0  0  0  0  0  0  0  0  0  0  0  0
  140.2542   80.6162  224.6645 H   0  0  0  0  0  0  0  0  0  0  0  0
  142.6388   80.2476  224.0863 H   0  0  0  0  0  0  0  0  0  0  0  0
  143.3077   78.8758  222.1651 H   0  0  0  0  0  0  0  0  0  0  0  0
  1  2  1  0
  2  3  1  0
  2  4  1  0
  4  5  1  0
  5  6  1  0
  6  7  2  0
  6  8  1  0
  8  9  1  0
  9 10  1  0
 10 11  2  0
 10 12  1  0
 12 13  2  0
 13 14  1  0
 14 15  2  0
 15 16  1  0
 16 17  2  0
 17 18  1  0
 18 19  2  0
 19 20  1  0
 20 21  2  0
  4 22  1  0
 22 23  2  0
 23 24  1  0
 24 25  2  0
 25 26  1  0
 26 27  2  0
 21 12  1  0
 27 22  1  0
 20 15  1  0
  1 28  1  0
  1 29  1  0
  1 30  1  0
  2 31  1  0
  3 32  1  0
  3 33  1  0
  3 34  1  0
  4 35  1  1
  5 36  1  0
  8 37  1  0
  8 38  1  0
  9 39  1  0
 13 40  1  0
 14 41  1  0
 16 42  1  0
 17 43  1  0
 18 44  1  0
 19 45  1  0
 23 46  1  0
 24 47  1  0
 25 48  1  0
 26 49  1  0
 27 50  1  0
M  END
>  <smiles>  (7) 
CC(C)[C@H](NC(=O)CNC(=O)c1ccc2ccccc2n1)c1ccccc1

>  <score_type>  (7) 
oracle

>  <origin>  (7) 
autodockgpu

>  <m_score__min__energy>  (7) 
-8.8300000000000001

>  <m_primary>  (7) 
energy

>  <rmsd>  (7) 
3.956662170887188

>  <m_score__min__rmsd>  (7) 
3.956662170887188

>  <meeko>  (7) 
{"free_energy": -8.53, "intermolecular_energy": -10.32, "internal_energy": -1.21, "cluster_size": 23, "cluster_id": 1, "rank_in_cluster": 15}

>  <energy>  (7) 
-8.68

>  <cluster_rmsd>  (7) 
0.29

>  <cluster>  (7) 
1

$$$$

     RDKit          3D

 50 52  0  0  0  0  0  0  0  0999 V2000
  140.5120   77.8280  218.8060 C   0  0  0  0  0  0  0  0  0  0  0  0
  141.9050   77.9090  219.3930 C   0  0  0  0  0  0  0  0  0  0  0  0
  142.9150   77.1580  218.5920 C   0  0  0  0  0  0  0  0  0  0  0  0
  141.8230   77.3950  220.8350 C   0  0  2  0  0  0  0  0  0  0  0  0
  140.7280   76.4500  220.9330 N   0  0  0  0  0  0  0  0  0  0  0  0
  140.9400   75.0530  220.8960 C   0  0  0  0  0  0  0  0  0  0  0  0
  142.1160   74.6060  220.7720 O   0  0  0  0  0  0  0  0  0  0  0  0
  139.7500   74.1720  221.0060 C   0  0  0  0  0  0  0  0  0  0  0  0
  139.6680   73.5300  222.3000 N   0  0  0  0  0  0  0  0  0  0  0  0
  140.1770   72.2080  222.4070 C   0  0  0  0  0  0  0  0  0  0  0  0
  140.6670   71.6920  221.3540 O   0  0  0  0  0  0  0  0  0  0  0  0
  140.1440   71.4790  223.6500 C   0  0  0  0  0  0  0  0  0  0  0  0
  139.5710   70.2200  223.6840 C   0  0  0  0  0  0  0  0  0  0  0  0
  139.5060   69.4730  224.8300 C   0  0  0  0  0  0  0  0  0  0  0  0
  140.0180   69.9680  225.9930 C   0  0  0  0  0  0  0  0  0  0  0  0
  139.9440   69.2080  227.1290 C   0  0  0  0  0  0  0  0  0  0  0  0
  140.4620   69.7180  228.2890 C   0  0  0  0  0  0  0  0  0  0  0  0
  141.0390   70.9700  228.2840 C   0  0  0  0  0  0  0  0  0  0  0  0
  141.1150   71.7460  227.1270 C   0  0  0  0  0  0  0  0  0  0  0  0
  140.5900   71.2280  225.9560 C   0  0  0  0  0  0  0  0  0  0  0  0
  140.6420   71.9470  224.8120 N   0  0  0  0  0  0  0  0  0  0  0  0
  141.7570   78.4820  221.8160 C   0  0  0  0  0  0  0  0  0  0  0  0
  141.4440   78.1330  223.1320 C   0  0  0  0  0  0  0  0  0  0  0  0
  141.3610   79.0990  224.1270 C   0  0  0  0  0  0  0  0  0  0  0  0
  141.5900   80.4480  223.8370 C   0  0  0  0  0  0  0  0  0  0  0  0
  141.8970   80.7620  222.5300 C   0  0  0  0  0  0  0  0  0  0  0  0
  141.9810   79.8090  221.5350 C   0  0  0  0  0  0  0  0  0  0  0  0
  139.7731   77.7850  219.6198 H   0  0  0  0  0  0  0  0  0  0  0  0
  140.3232   78.7167  218.1858 H   0  0  0  0  0  0  0  0  0  0  0  0
  140.4275   76.9234  218.1858 H   0  0  0  0  0  0  0  0  0  0  0  0
  142.2521   78.9526  219.3744 H   0  0  0  0  0  0  0  0  0  0  0  0
  143.6101   76.6412  219.2701 H   0  0  0  0  0  0  0  0  0  0  0  0
  142.4039   76.4188  217.9577 H   0  0  0  0  0  0  0  0  0  0  0  0
  143.4757   77.8603  217.9577 H   0  0  0  0  0  0  0  0  0  0  0  0
  142.7532   76.8656  221.0887 H   0  0  0  0  0  0  0  0  0  0  0  0
  139.7520   76.8290  221.0370 H   0  0  0  0  0  0  0  0  0  0  0  0
  138.8446   74.7774  220.8520 H   0  0  0  0  0  0  0  0  0  0  0  0
  139.8379   73.3857  220.2418 H   0  0  0  0  0  0  0  0  0  0  0  0
  139.2500   74.0090  223.1390 H   0  0  0  0  0  0  0  0  0  0  0  0
  139.1521   69.8036  222.7560 H   0  0  0  0  0  0  0  0  0  0  0  0
  139.0418   68.4759  224.8124 H   0  0  0  0  0  0  0  0  0  0  0  0
  139.4793   68.2111  227.1103 H   0  0  0  0  0  0  0  0  0  0  0  0
  140.4181   69.1325  229.2192 H   0  0  0  0  0  0  0  0  0  0  0  0
  141.4525   71.3698  229.2217 H   0  0  0  0  0  0  0  0  0  0  0  0
  141.5798   72.7428  227.1451 H   0  0  0  0  0  0  0  0  0  0  0  0
  141.2606   77.0781  223.3840 H   0  0  0  0  0  0  0  0  0  0  0  0
  141.1121   78.7992  225.1557 H   0  0  0  0  0  0  0  0  0  0  0  0
  141.5280   81.2226  224.6156 H   0  0  0  0  0  0  0  0  0  0  0  0
  142.0825   81.8145  222.2697 H   0  0  0  0  0  0  0  0  0  0  0  0
  142.2295   80.1141  220.5078 H   0  0  0  0  0  0  0  0  0  0  0  0
  1  2  1  0
  2  3  1  0
  2  4  1  0
  4  5  1  0
  5  6  1  0
  6  7  2  0
  6  8  1  0
  8  9  1  0
  9 10  1  0
 10 11  2  0
 10 12  1  0
 12 13  2  0
 13 14  1  0
 14 15  2  0
 15 16  1  0
 16 17  2  0
 17 18  1  0
 18 19  2  0
 19 20  1  0
 20 21  2  0
  4 22  1  0
 22 23  2  0
 23 24  1  0
 24 25  2  0
 25 26  1  0
 26 27  2  0
 21 12  1  0
 27 22  1  0
 20 15  1  0
  1 28  1  0
  1 29  1  0
  1 30  1  0
  2 31  1  0
  3 32  1  0
  3 33  1  0
  3 34  1  0
  4 35  1  1
  5 36  1  0
  8 37  1  0
  8 38  1  0
  9 39  1  0
 13 40  1  0
 14 41  1  0
 16 42  1  0
 17 43  1  0
 18 44  1  0
 19 45  1  0
 23 46  1  0
 24 47  1  0
 25 48  1  0
 26 49  1  0
 27 50  1  0
M  END
>  <smiles>  (8) 
CC(C)[C@H](NC(=O)CNC(=O)c1ccc2ccccc2n1)c1ccccc1

>  <score_type>  (8) 
oracle

>  <origin>  (8) 
autodockgpu

>  <m_score__min__energy>  (8) 
-8.8300000000000001

>  <m_primary>  (8) 
energy

>  <rmsd>  (8) 
3.993910204645878

>  <m_score__min__rmsd>  (8) 
3.993910204645878

>  <meeko>  (8) 
{"free_energy": -8.61, "intermolecular_energy": -10.4, "internal_energy": -1.25, "cluster_size": 23, "cluster_id": 1, "rank_in_cluster": 11}

>  <energy>  (8) 
-8.66

>  <cluster_rmsd>  (8) 
1.81

>  <cluster>  (8) 
1

$$$$

     RDKit          3D

 50 52  0  0  0  0  0  0  0  0999 V2000
  138.7270   68.7890  222.8510 C   0  0  0  0  0  0  0  0  0  0  0  0
  139.5540   69.0980  224.0800 C   0  0  0  0  0  0  0  0  0  0  0  0
  139.5670   67.9780  225.0650 C   0  0  0  0  0  0  0  0  0  0  0  0
  138.9990   70.3900  224.6900 C   0  0  2  0  0  0  0  0  0  0  0  0
  138.8170   71.3650  223.6340 N   0  0  0  0  0  0  0  0  0  0  0  0
  139.8980   71.8300  222.8500 C   0  0  0  0  0  0  0  0  0  0  0  0
  141.0610   71.3880  223.0700 O   0  0  0  0  0  0  0  0  0  0  0  0
  139.6020   72.8290  221.7920 C   0  0  0  0  0  0  0  0  0  0  0  0
  139.4960   74.1700  222.3250 N   0  0  0  0  0  0  0  0  0  0  0  0
  140.3460   75.1630  221.7710 C   0  0  0  0  0  0  0  0  0  0  0  0
  141.1360   74.7940  220.8450 O   0  0  0  0  0  0  0  0  0  0  0  0
  140.3200   76.5290  222.2300 C   0  0  0  0  0  0  0  0  0  0  0  0
  139.1040   77.1410  222.4730 C   0  0  0  0  0  0  0  0  0  0  0  0
  139.0060   78.4350  222.9100 C   0  0  0  0  0  0  0  0  0  0  0  0
  140.1370   79.1670  223.1210 C   0  0  0  0  0  0  0  0  0  0  0  0
  140.0210   80.4590  223.5580 C   0  0  0  0  0  0  0  0  0  0  0  0
  141.1650   81.1820  223.7640 C   0  0  0  0  0  0  0  0  0  0  0  0
  142.3910   80.5980  223.5300 C   0  0  0  0  0  0  0  0  0  0  0  0
  142.5110   79.2810  223.0850 C   0  0  0  0  0  0  0  0  0  0  0  0
  141.3520   78.5530  222.8760 C   0  0  0  0  0  0  0  0  0  0  0  0
  141.4230   77.2740  222.4450 N   0  0  0  0  0  0  0  0  0  0  0  0
  139.8080   70.8750  225.8120 C   0  0  0  0  0  0  0  0  0  0  0  0
  139.6170   70.2540  227.0490 C   0  0  0  0  0  0  0  0  0  0  0  0
  140.3410   70.6500  228.1660 C   0  0  0  0  0  0  0  0  0  0  0  0
  141.2820   71.6820  228.0820 C   0  0  0  0  0  0  0  0  0  0  0  0
  141.4490   72.2750  226.8480 C   0  0  0  0  0  0  0  0  0  0  0  0
  140.7330   71.8880  225.7330 C   0  0  0  0  0  0  0  0  0  0  0  0
  137.7376   68.4193  223.1583 H   0  0  0  0  0  0  0  0  0  0  0  0
  138.6068   69.7029  222.2507 H   0  0  0  0  0  0  0  0  0  0  0  0
  139.2355   68.0202  222.2507 H   0  0  0  0  0  0  0  0  0  0  0  0
  140.6074   69.2293  223.7918 H   0  0  0  0  0  0  0  0  0  0  0  0
  139.5622   68.3875  226.0859 H   0  0  0  0  0  0  0  0  0  0  0  0
  138.6761   67.3498  224.9177 H   0  0  0  0  0  0  0  0  0  0  0  0
  140.4723   67.3707  224.9177 H   0  0  0  0  0  0  0  0  0  0  0  0
  138.0158   70.1893  225.1407 H   0  0  0  0  0  0  0  0  0  0  0  0
  137.8460   71.7280  223.4550 H   0  0  0  0  0  0  0  0  0  0  0  0
  140.4105   72.8064  221.0464 H   0  0  0  0  0  0  0  0  0  0  0  0
  138.6345   72.5667  221.3391 H   0  0  0  0  0  0  0  0  0  0  0  0
  138.8210   74.4160  223.0950 H   0  0  0  0  0  0  0  0  0  0  0  0
  138.1804   76.5665  222.3090 H   0  0  0  0  0  0  0  0  0  0  0  0
  138.0176   78.8828  223.0904 H   0  0  0  0  0  0  0  0  0  0  0  0
  139.0322   80.9056  223.7393 H   0  0  0  0  0  0  0  0  0  0  0  0
  141.1059   82.2231  224.1143 H   0  0  0  0  0  0  0  0  0  0  0  0
  143.3035   81.1885  223.6993 H   0  0  0  0  0  0  0  0  0  0  0  0
  143.4995   78.8333  222.9051 H   0  0  0  0  0  0  0  0  0  0  0  0
  138.8828   69.4399  227.1394 H   0  0  0  0  0  0  0  0  0  0  0  0
  140.1725   70.1459  229.1290 H   0  0  0  0  0  0  0  0  0  0  0  0
  141.8616   72.0053  228.9592 H   0  0  0  0  0  0  0  0  0  0  0  0
  142.1822   73.0890  226.7483 H   0  0  0  0  0  0  0  0  0  0  0  0
  140.9046   72.3954  224.7722 H   0  0  0  0  0  0  0  0  0  0  0  0
  1  2  1  0
  2  3  1  0
  2  4  1  0
  4  5  1  0
  5  6  1  0
  6  7  2  0
  6  8  1  0
  8  9  1  0
  9 10  1  0
 10 11  2  0
 10 12  1  0
 12 13  2  0
 13 14  1  0
 14 15  2  0
 15 16  1  0
 16 17  2  0
 17 18  1  0
 18 19  2  0
 19 20  1  0
 20 21  2  0
  4 22  1  0
 22 23  2  0
 23 24  1  0
 24 25  2  0
 25 26  1  0
 26 27  2  0
 21 12  1  0
 27 22  1  0
 20 15  1  0
  1 28  1  0
  1 29  1  0
  1 30  1  0
  2 31  1  0
  3 32  1  0
  3 33  1  0
  3 34  1  0
  4 35  1  1
  5 36  1  0
  8 37  1  0
  8 38  1  0
  9 39  1  0
 13 40  1  0
 14 41  1  0
 16 42  1  0
 17 43  1  0
 18 44  1  0
 19 45  1  0
 23 46  1  0
 24 47  1  0
 25 48  1  0
 26 49  1  0
 27 50  1  0
M  END
>  <smiles>  (9) 
CC(C)[C@H](NC(=O)CNC(=O)c1ccc2ccccc2n1)c1ccccc1

>  <score_type>  (9) 
oracle

>  <origin>  (9) 
autodockgpu

>  <m_score__min__energy>  (9) 
-8.8300000000000001

>  <m_primary>  (9) 
energy

>  <rmsd>  (9) 
9.762474638580002

>  <m_score__min__rmsd>  (9) 
9.762474638580002

>  <meeko>  (9) 
{"free_energy": -8.69, "intermolecular_energy": -10.48, "internal_energy": -0.86, "cluster_size": 1, "cluster_id": 2, "rank_in_cluster": 1}

>  <energy>  (9) 
-8.65

>  <cluster_rmsd>  (9) 
1.48

>  <cluster>  (9) 
1

$$$$

     RDKit          3D

 50 52  0  0  0  0  0  0  0  0999 V2000
  143.7460   72.1660  220.8520 C   0  0  0  0  0  0  0  0  0  0  0  0
  144.4720   73.2900  220.1440 C   0  0  0  0  0  0  0  0  0  0  0  0
  145.7080   73.7210  220.8590 C   0  0  0  0  0  0  0  0  0  0  0  0
  143.4760   74.4430  219.9780 C   0  0  2  0  0  0  0  0  0  0  0  0
  142.1380   73.9450  220.2290 N   0  0  0  0  0  0  0  0  0  0  0  0
  141.1440   74.7440  220.8380 C   0  0  0  0  0  0  0  0  0  0  0  0
  141.4220   75.9290  221.1800 O   0  0  0  0  0  0  0  0  0  0  0  0
  139.8050   74.1370  221.0490 C   0  0  0  0  0  0  0  0  0  0  0  0
  139.7050   73.4740  222.3310 N   0  0  0  0  0  0  0  0  0  0  0  0
  140.2850   72.1830  222.4460 C   0  0  0  0  0  0  0  0  0  0  0  0
  140.8490   71.7100  221.4100 O   0  0  0  0  0  0  0  0  0  0  0  0
  140.2410   71.4370  223.6780 C   0  0  0  0  0  0  0  0  0  0  0  0
  139.7140   70.1580  223.6800 C   0  0  0  0  0  0  0  0  0  0  0  0
  139.6410   69.3940  224.8150 C   0  0  0  0  0  0  0  0  0  0  0  0
  140.1000   69.8910  225.9980 C   0  0  0  0  0  0  0  0  0  0  0  0
  140.0190   69.1140  227.1220 C   0  0  0  0  0  0  0  0  0  0  0  0
  140.4830   69.6270  228.3030 C   0  0  0  0  0  0  0  0  0  0  0  0
  141.0140   70.8980  228.3320 C   0  0  0  0  0  0  0  0  0  0  0  0
  141.0960   71.6920  227.1870 C   0  0  0  0  0  0  0  0  0  0  0  0
  140.6260   71.1710  225.9940 C   0  0  0  0  0  0  0  0  0  0  0  0
  140.6870   71.9060  224.8610 N   0  0  0  0  0  0  0  0  0  0  0  0
  143.6210   75.1310  218.6920 C   0  0  0  0  0  0  0  0  0  0  0  0
  143.2050   76.4630  218.6330 C   0  0  0  0  0  0  0  0  0  0  0  0
  143.3070   77.1920  217.4550 C   0  0  0  0  0  0  0  0  0  0  0  0
  143.8280   76.6090  216.2940 C   0  0  0  0  0  0  0  0  0  0  0  0
  144.2300   75.2930  216.3830 C   0  0  0  0  0  0  0  0  0  0  0  0
  144.1330   74.5620  217.5500 C   0  0  0  0  0  0  0  0  0  0  0  0
  143.8333   72.3012  221.9402 H   0  0  0  0  0  0  0  0  0  0  0  0
  142.6841   72.1773  220.5652 H   0  0  0  0  0  0  0  0  0  0  0  0
  144.1930   71.2027  220.5652 H   0  0  0  0  0  0  0  0  0  0  0  0
  144.8240   72.9403  219.1623 H   0  0  0  0  0  0  0  0  0  0  0  0
  145.5424   73.6633  221.9449 H   0  0  0  0  0  0  0  0  0  0  0  0
  146.5423   73.0607  220.5797 H   0  0  0  0  0  0  0  0  0  0  0  0
  145.9508   74.7569  220.5797 H   0  0  0  0  0  0  0  0  0  0  0  0
  143.6933   75.2243  220.7212 H   0  0  0  0  0  0  0  0  0  0  0  0
  141.9130   72.9570  219.9410 H   0  0  0  0  0  0  0  0  0  0  0  0
  139.0441   74.9298  220.9992 H   0  0  0  0  0  0  0  0  0  0  0  0
  139.6469   73.3829  220.2639 H   0  0  0  0  0  0  0  0  0  0  0  0
  139.2240   73.9170  223.1560 H   0  0  0  0  0  0  0  0  0  0  0  0
  139.3394   69.7385  222.7346 H   0  0  0  0  0  0  0  0  0  0  0  0
  139.2128   68.3817  224.7714 H   0  0  0  0  0  0  0  0  0  0  0  0
  139.5912   68.1016  227.0772 H   0  0  0  0  0  0  0  0  0  0  0  0
  140.4322   69.0278  229.2241 H   0  0  0  0  0  0  0  0  0  0  0  0
  141.3847   71.2993  229.2868 H   0  0  0  0  0  0  0  0  0  0  0  0
  141.5228   72.7049  227.2316 H   0  0  0  0  0  0  0  0  0  0  0  0
  142.7906   76.9417  219.5325 H   0  0  0  0  0  0  0  0  0  0  0  0
  142.9743   78.2403  217.4343 H   0  0  0  0  0  0  0  0  0  0  0  0
  143.9128   77.1744  215.3543 H   0  0  0  0  0  0  0  0  0  0  0  0
  144.6447   74.8061  215.4880 H   0  0  0  0  0  0  0  0  0  0  0  0
  144.4685   73.5145  217.5663 H   0  0  0  0  0  0  0  0  0  0  0  0
  1  2  1  0
  2  3  1  0
  2  4  1  0
  4  5  1  0
  5  6  1  0
  6  7  2  0
  6  8  1  0
  8  9  1  0
  9 10  1  0
 10 11  2  0
 10 12  1  0
 12 13  2  0
 13 14  1  0
 14 15  2  0
 15 16  1  0
 16 17  2  0
 17 18  1  0
 18 19  2  0
 19 20  1  0
 20 21  2  0
  4 22  1  0
 22 23  2  0
 23 24  1  0
 24 25  2  0
 25 26  1  0
 26 27  2  0
 21 12  1  0
 27 22  1  0
 20 15  1  0
  1 28  1  0
  1 29  1  0
  1 30  1  0
  2 31  1  0
  3 32  1  0
  3 33  1  0
  3 34  1  0
  4 35  1  1
  5 36  1  0
  8 37  1  0
  8 38  1  0
  9 39  1  0
 13 40  1  0
 14 41  1  0
 16 42  1  0
 17 43  1  0
 18 44  1  0
 19 45  1  0
 23 46  1  0
 24 47  1  0
 25 48  1  0
 26 49  1  0
 27 50  1  0
M  END
>  <smiles>  (10) 
CC(C)[C@H](NC(=O)CNC(=O)c1ccc2ccccc2n1)c1ccccc1

>  <score_type>  (10) 
oracle

>  <origin>  (10) 
autodockgpu

>  <m_score__min__energy>  (10) 
-8.8300000000000001

>  <m_primary>  (10) 
energy

>  <rmsd>  (10) 
5.871144129545849

>  <m_score__min__rmsd>  (10) 
5.871144129545849

>  <meeko>  (10) 
{"free_energy": -7.81, "intermolecular_energy": -9.6, "internal_energy": -2.06, "cluster_size": 8, "cluster_id": 5, "rank_in_cluster": 6}

>  <energy>  (10) 
-8.63

>  <cluster_rmsd>  (10) 
1.79

>  <cluster>  (10) 
1

$$$$

     RDKit          3D

 50 52  0  0  0  0  0  0  0  0999 V2000
  140.1760   79.4960  223.8350 C   0  0  0  0  0  0  0  0  0  0  0  0
  141.2430   78.6610  223.1600 C   0  0  0  0  0  0  0  0  0  0  0  0
  142.5360   79.3880  223.0070 C   0  0  0  0  0  0  0  0  0  0  0  0
  140.6800   78.2070  221.8080 C   0  0  2  0  0  0  0  0  0  0  0  0
  140.9230   76.7870  221.6540 N   0  0  0  0  0  0  0  0  0  0  0  0
  139.8950   75.8870  221.2920 C   0  0  0  0  0  0  0  0  0  0  0  0
  138.7260   76.3240  221.0970 O   0  0  0  0  0  0  0  0  0  0  0  0
  140.2510   74.4510  221.1590 C   0  0  0  0  0  0  0  0  0  0  0  0
  139.9030   73.6930  222.3410 N   0  0  0  0  0  0  0  0  0  0  0  0
  140.5750   72.4600  222.5490 C   0  0  0  0  0  0  0  0  0  0  0  0
  141.4340   72.1170  221.6760 O   0  0  0  0  0  0  0  0  0  0  0  0
  140.3030   71.6290  223.6940 C   0  0  0  0  0  0  0  0  0  0  0  0
  139.5700   70.4670  223.5320 C   0  0  0  0  0  0  0  0  0  0  0  0
  139.2740   69.6320  224.5770 C   0  0  0  0  0  0  0  0  0  0  0  0
  139.7100   69.9360  225.8320 C   0  0  0  0  0  0  0  0  0  0  0  0
  139.4060   69.0910  226.8650 C   0  0  0  0  0  0  0  0  0  0  0  0
  139.8480   69.4090  228.1200 C   0  0  0  0  0  0  0  0  0  0  0  0
  140.5820   70.5600  228.3110 C   0  0  0  0  0  0  0  0  0  0  0  0
  140.8930   71.4240  227.2600 C   0  0  0  0  0  0  0  0  0  0  0  0
  140.4430   71.0990  225.9920 C   0  0  0  0  0  0  0  0  0  0  0  0
  140.7210   71.9080  224.9450 N   0  0  0  0  0  0  0  0  0  0  0  0
  141.1740   79.0190  220.6920 C   0  0  0  0  0  0  0  0  0  0  0  0
  141.8870   78.3550  219.6900 C   0  0  0  0  0  0  0  0  0  0  0  0
  142.3920   79.0460  218.5960 C   0  0  0  0  0  0  0  0  0  0  0  0
  142.1990   80.4260  218.4680 C   0  0  0  0  0  0  0  0  0  0  0  0
  141.4920   81.0530  219.4720 C   0  0  0  0  0  0  0  0  0  0  0  0
  140.9870   80.3740  220.5640 C   0  0  0  0  0  0  0  0  0  0  0  0
  140.2817   79.4133  224.9268 H   0  0  0  0  0  0  0  0  0  0  0  0
  140.2890   80.5481  223.5344 H   0  0  0  0  0  0  0  0  0  0  0  0
  139.1819   79.1335  223.5344 H   0  0  0  0  0  0  0  0  0  0  0  0
  141.4828   77.7917  223.7899 H   0  0  0  0  0  0  0  0  0  0  0  0
  142.9467   79.6189  224.0010 H   0  0  0  0  0  0  0  0  0  0  0  0
  143.2477   78.7578  222.4536 H   0  0  0  0  0  0  0  0  0  0  0  0
  142.3674   80.3236  222.4536 H   0  0  0  0  0  0  0  0  0  0  0  0
  139.5922   78.3693  221.7903 H   0  0  0  0  0  0  0  0  0  0  0  0
  141.8990   76.4290  221.8170 H   0  0  0  0  0  0  0  0  0  0  0  0
  139.7130   74.0305  220.2966 H   0  0  0  0  0  0  0  0  0  0  0  0
  141.3402   74.3831  221.0212 H   0  0  0  0  0  0  0  0  0  0  0  0
  139.1810   74.0290  223.0310 H   0  0  0  0  0  0  0  0  0  0  0  0
  139.2113   70.2035  222.5261 H   0  0  0  0  0  0  0  0  0  0  0  0
  138.6860   68.7187  224.4036 H   0  0  0  0  0  0  0  0  0  0  0  0
  138.8196   68.1770  226.6900 H   0  0  0  0  0  0  0  0  0  0  0  0
  139.6192   68.7506  228.9710 H   0  0  0  0  0  0  0  0  0  0  0  0
  140.9338   70.8053  229.3240 H   0  0  0  0  0  0  0  0  0  0  0  0
  141.4796   72.3381  227.4345 H   0  0  0  0  0  0  0  0  0  0  0  0
  142.0505   77.2701  219.7688 H   0  0  0  0  0  0  0  0  0  0  0  0
  142.9507   78.5015  217.8205 H   0  0  0  0  0  0  0  0  0  0  0  0
  142.5931   80.9847  217.6063 H   0  0  0  0  0  0  0  0  0  0  0  0
  141.3232   82.1376  219.4006 H   0  0  0  0  0  0  0  0  0  0  0  0
  140.4303   80.9231  221.3377 H   0  0  0  0  0  0  0  0  0  0  0  0
  1  2  1  0
  2  3  1  0
  2  4  1  0
  4  5  1  0
  5  6  1  0
  6  7  2  0
  6  8  1  0
  8  9  1  0
  9 10  1  0
 10 11  2  0
 10 12  1  0
 12 13  2  0
 13 14  1  0
 14 15  2  0
 15 16  1  0
 16 17  2  0
 17 18  1  0
 18 19  2  0
 19 20  1  0
 20 21  2  0
  4 22  1  0
 22 23  2  0
 23 24  1  0
 24 25  2  0
 25 26  1  0
 26 27  2  0
 21 12  1  0
 27 22  1  0
 20 15  1  0
  1 28  1  0
  1 29  1  0
  1 30  1  0
  2 31  1  0
  3 32  1  0
  3 33  1  0
  3 34  1  0
  4 35  1  1
  5 36  1  0
  8 37  1  0
  8 38  1  0
  9 39  1  0
 13 40  1  0
 14 41  1  0
 16 42  1  0
 17 43  1  0
 18 44  1  0
 19 45  1  0
 23 46  1  0
 24 47  1  0
 25 48  1  0
 26 49  1  0
 27 50  1  0
M  END
>  <smiles>  (11) 
CC(C)[C@H](NC(=O)CNC(=O)c1ccc2ccccc2n1)c1ccccc1

>  <score_type>  (11) 
oracle

>  <origin>  (11) 
autodockgpu

>  <m_score__min__energy>  (11) 
-8.8300000000000001

>  <m_primary>  (11) 
energy

>  <rmsd>  (11) 
3.765611183086121

>  <m_score__min__rmsd>  (11) 
3.765611183086121

>  <meeko>  (11) 
{"free_energy": -8.83, "intermolecular_energy": -10.62, "internal_energy": -1.12, "cluster_size": 23, "cluster_id": 1, "rank_in_cluster": 1}

>  <energy>  (11) 
-8.61

>  <cluster_rmsd>  (11) 
1.78

>  <cluster>  (11) 
1

$$$$

     RDKit          3D

 50 52  0  0  0  0  0  0  0  0999 V2000
  138.6040   79.3400  221.6060 C   0  0  0  0  0  0  0  0  0  0  0  0
  138.9690   77.8740  221.5160 C   0  0  0  0  0  0  0  0  0  0  0  0
  138.5650   77.1020  222.7260 C   0  0  0  0  0  0  0  0  0  0  0  0
  140.4790   77.7940  221.2650 C   0  0  2  0  0  0  0  0  0  0  0  0
  140.8960   76.4100  221.3610 N   0  0  0  0  0  0  0  0  0  0  0  0
  140.2060   75.3720  220.6940 C   0  0  0  0  0  0  0  0  0  0  0  0
  139.1930   75.6510  219.9910 O   0  0  0  0  0  0  0  0  0  0  0  0
  140.7180   73.9880  220.8570 C   0  0  0  0  0  0  0  0  0  0  0  0
  140.2980   73.3980  222.1100 N   0  0  0  0  0  0  0  0  0  0  0  0
  140.7270   72.0720  222.3850 C   0  0  0  0  0  0  0  0  0  0  0  0
  141.4490   71.5060  221.5050 O   0  0  0  0  0  0  0  0  0  0  0  0
  140.3650   71.3940  223.6040 C   0  0  0  0  0  0  0  0  0  0  0  0
  139.6040   70.2400  223.5390 C   0  0  0  0  0  0  0  0  0  0  0  0
  139.2250   69.5460  224.6570 C   0  0  0  0  0  0  0  0  0  0  0  0
  139.5990   69.9890  225.8900 C   0  0  0  0  0  0  0  0  0  0  0  0
  139.2110   69.2820  226.9960 C   0  0  0  0  0  0  0  0  0  0  0  0
  139.5940   69.7390  228.2290 C   0  0  0  0  0  0  0  0  0  0  0  0
  140.3530   70.8860  228.3240 C   0  0  0  0  0  0  0  0  0  0  0  0
  140.7490   71.6070  227.1970 C   0  0  0  0  0  0  0  0  0  0  0  0
  140.3600   71.1430  225.9520 C   0  0  0  0  0  0  0  0  0  0  0  0
  140.7220   71.8110  224.8350 N   0  0  0  0  0  0  0  0  0  0  0  0
  141.2410   78.7050  222.1240 C   0  0  0  0  0  0  0  0  0  0  0  0
  141.8030   79.8310  221.5180 C   0  0  0  0  0  0  0  0  0  0  0  0
  142.5400   80.7470  222.2580 C   0  0  0  0  0  0  0  0  0  0  0  0
  142.7400   80.5650  223.6310 C   0  0  0  0  0  0  0  0  0  0  0  0
  142.1740   79.4440  224.2000 C   0  0  0  0  0  0  0  0  0  0  0  0
  141.4400   78.5290  223.4730 C   0  0  0  0  0  0  0  0  0  0  0  0
  138.5305   79.6353  222.6631 H   0  0  0  0  0  0  0  0  0  0  0  0
  139.3797   79.9421  221.1102 H   0  0  0  0  0  0  0  0  0  0  0  0
  137.6366   79.5081  221.1102 H   0  0  0  0  0  0  0  0  0  0  0  0
  138.4152   77.4072  220.6881 H   0  0  0  0  0  0  0  0  0  0  0  0
  138.8559   77.6578  223.6296 H   0  0  0  0  0  0  0  0  0  0  0  0
  137.4748   76.9558  222.7205 H   0  0  0  0  0  0  0  0  0  0  0  0
  139.0663   76.1229  222.7205 H   0  0  0  0  0  0  0  0  0  0  0  0
  140.7004   78.1455  220.2465 H   0  0  0  0  0  0  0  0  0  0  0  0
  141.7410   76.1850  221.9460 H   0  0  0  0  0  0  0  0  0  0  0  0
  140.3402   73.3699  220.0292 H   0  0  0  0  0  0  0  0  0  0  0  0
  141.8172   74.0300  220.8531 H   0  0  0  0  0  0  0  0  0  0  0  0
  139.6980   73.9180  222.8020 H   0  0  0  0  0  0  0  0  0  0  0  0
  139.2919   69.8663  222.5526 H   0  0  0  0  0  0  0  0  0  0  0  0
  138.6198   68.6326  224.5598 H   0  0  0  0  0  0  0  0  0  0  0  0
  138.6061   68.3686  226.8969 H   0  0  0  0  0  0  0  0  0  0  0  0
  139.2979   69.1944  229.1377 H   0  0  0  0  0  0  0  0  0  0  0  0
  140.6558   71.2438  229.3191 H   0  0  0  0  0  0  0  0  0  0  0  0
  141.3544   72.5202  227.2952 H   0  0  0  0  0  0  0  0  0  0  0  0
  141.6600   79.9947  220.4397 H   0  0  0  0  0  0  0  0  0  0  0  0
  142.9719   81.6266  221.7583 H   0  0  0  0  0  0  0  0  0  0  0  0
  143.3216   81.2827  224.2283 H   0  0  0  0  0  0  0  0  0  0  0  0
  142.3131   79.2719  225.2775 H   0  0  0  0  0  0  0  0  0  0  0  0
  141.0103   77.6509  223.9774 H   0  0  0  0  0  0  0  0  0  0  0  0
  1  2  1  0
  2  3  1  0
  2  4  1  0
  4  5  1  0
  5  6  1  0
  6  7  2  0
  6  8  1  0
  8  9  1  0
  9 10  1  0
 10 11  2  0
 10 12  1  0
 12 13  2  0
 13 14  1  0
 14 15  2  0
 15 16  1  0
 16 17  2  0
 17 18  1  0
 18 19  2  0
 19 20  1  0
 20 21  2  0
  4 22  1  0
 22 23  2  0
 23 24  1  0
 24 25  2  0
 25 26  1  0
 26 27  2  0
 21 12  1  0
 27 22  1  0
 20 15  1  0
  1 28  1  0
  1 29  1  0
  1 30  1  0
  2 31  1  0
  3 32  1  0
  3 33  1  0
  3 34  1  0
  4 35  1  6
  5 36  1  0
  8 37  1  0
  8 38  1  0
  9 39  1  0
 13 40  1  0
 14 41  1  0
 16 42  1  0
 17 43  1  0
 18 44  1  0
 19 45  1  0
 23 46  1  0
 24 47  1  0
 25 48  1  0
 26 49  1  0
 27 50  1  0
M  END
>  <smiles>  (12) 
CC(C)[C@H](NC(=O)CNC(=O)c1ccc2ccccc2n1)c1ccccc1

>  <score_type>  (12) 
oracle

>  <origin>  (12) 
autodockgpu

>  <m_score__min__energy>  (12) 
-8.8300000000000001

>  <m_primary>  (12) 
energy

>  <rmsd>  (12) 
4.223963404709183

>  <m_score__min__rmsd>  (12) 
4.223963404709183

>  <meeko>  (12) 
{"free_energy": -8.65, "intermolecular_energy": -10.44, "internal_energy": -1.01, "cluster_size": 23, "cluster_id": 1, "rank_in_cluster": 9}

>  <energy>  (12) 
-8.59

>  <cluster_rmsd>  (12) 
1.8

>  <cluster>  (12) 
1

$$$$

     RDKit          3D

 50 52  0  0  0  0  0  0  0  0999 V2000
  143.8500   72.3740  220.8090 C   0  0  0  0  0  0  0  0  0  0  0  0
  144.3490   73.6570  220.1790 C   0  0  0  0  0  0  0  0  0  0  0  0
  145.6220   74.1420  220.7860 C   0  0  0  0  0  0  0  0  0  0  0  0
  143.2260   74.6930  220.3030 C   0  0  2  0  0  0  0  0  0  0  0  0
  141.9630   73.9980  220.4490 N   0  0  0  0  0  0  0  0  0  0  0  0
  140.7940   74.6570  220.8930 C   0  0  0  0  0  0  0  0  0  0  0  0
  140.8420   75.8880  221.1740 O   0  0  0  0  0  0  0  0  0  0  0  0
  139.5500   73.8520  221.0060 C   0  0  0  0  0  0  0  0  0  0  0  0
  139.4460   73.1920  222.2900 N   0  0  0  0  0  0  0  0  0  0  0  0
  140.1850   71.9930  222.4700 C   0  0  0  0  0  0  0  0  0  0  0  0
  140.8820   71.5920  221.4860 O   0  0  0  0  0  0  0  0  0  0  0  0
  140.1510   71.2580  223.7090 C   0  0  0  0  0  0  0  0  0  0  0  0
  139.6000   69.9890  223.7320 C   0  0  0  0  0  0  0  0  0  0  0  0
  139.5350   69.2370  224.8750 C   0  0  0  0  0  0  0  0  0  0  0  0
  140.0260   69.7350  226.0450 C   0  0  0  0  0  0  0  0  0  0  0  0
  139.9530   68.9690  227.1770 C   0  0  0  0  0  0  0  0  0  0  0  0
  140.4490   69.4830  228.3440 C   0  0  0  0  0  0  0  0  0  0  0  0
  141.0050   70.7440  228.3510 C   0  0  0  0  0  0  0  0  0  0  0  0
  141.0800   71.5270  227.1980 C   0  0  0  0  0  0  0  0  0  0  0  0
  140.5760   71.0040  226.0190 C   0  0  0  0  0  0  0  0  0  0  0  0
  140.6290   71.7290  224.8790 N   0  0  0  0  0  0  0  0  0  0  0  0
  143.2420   75.6720  219.2120 C   0  0  0  0  0  0  0  0  0  0  0  0
  143.6400   75.2160  217.9530 C   0  0  0  0  0  0  0  0  0  0  0  0
  143.6840   76.0760  216.8630 C   0  0  0  0  0  0  0  0  0  0  0  0
  143.3300   77.4230  216.9980 C   0  0  0  0  0  0  0  0  0  0  0  0
  142.9420   77.8440  218.2520 C   0  0  0  0  0  0  0  0  0  0  0  0
  142.8950   76.9960  219.3410 C   0  0  0  0  0  0  0  0  0  0  0  0
  143.8856   72.4655  221.9046 H   0  0  0  0  0  0  0  0  0  0  0  0
  142.8139   72.1877  220.4901 H   0  0  0  0  0  0  0  0  0  0  0  0
  144.4880   71.5366  220.4901 H   0  0  0  0  0  0  0  0  0  0  0  0
  144.5930   73.4774  219.1216 H   0  0  0  0  0  0  0  0  0  0  0  0
  145.5405   74.1110  221.8825 H   0  0  0  0  0  0  0  0  0  0  0  0
  146.4520   73.4971  220.4616 H   0  0  0  0  0  0  0  0  0  0  0  0
  145.8124   75.1757  220.4616 H   0  0  0  0  0  0  0  0  0  0  0  0
  143.3857   75.3008  221.2058 H   0  0  0  0  0  0  0  0  0  0  0  0
  141.9290   72.9730  220.2120 H   0  0  0  0  0  0  0  0  0  0  0  0
  138.6835   74.5174  220.8775 H   0  0  0  0  0  0  0  0  0  0  0  0
  139.5752   73.0764  220.2264 H   0  0  0  0  0  0  0  0  0  0  0  0
  138.8500   73.5740  223.0700 H   0  0  0  0  0  0  0  0  0  0  0  0
  139.1994   69.5685  222.7978 H   0  0  0  0  0  0  0  0  0  0  0  0
  139.0872   68.2326  224.8488 H   0  0  0  0  0  0  0  0  0  0  0  0
  139.5063   67.9642  227.1492 H   0  0  0  0  0  0  0  0  0  0  0  0
  140.4042   68.8931  229.2714 H   0  0  0  0  0  0  0  0  0  0  0  0
  141.4021   71.1460  229.2948 H   0  0  0  0  0  0  0  0  0  0  0  0
  141.5271   72.5317  227.2251 H   0  0  0  0  0  0  0  0  0  0  0  0
  143.9226   74.1609  217.8229 H   0  0  0  0  0  0  0  0  0  0  0  0
  144.0011   75.6934  215.8816 H   0  0  0  0  0  0  0  0  0  0  0  0
  143.3599   78.1142  216.1428 H   0  0  0  0  0  0  0  0  0  0  0  0
  142.6584   78.8977  218.3908 H   0  0  0  0  0  0  0  0  0  0  0  0
  142.5771   77.3833  220.3202 H   0  0  0  0  0  0  0  0  0  0  0  0
  1  2  1  0
  2  3  1  0
  2  4  1  0
  4  5  1  0
  5  6  1  0
  6  7  2  0
  6  8  1  0
  8  9  1  0
  9 10  1  0
 10 11  2  0
 10 12  1  0
 12 13  2  0
 13 14  1  0
 14 15  2  0
 15 16  1  0
 16 17  2  0
 17 18  1  0
 18 19  2  0
 19 20  1  0
 20 21  2  0
  4 22  1  0
 22 23  2  0
 23 24  1  0
 24 25  2  0
 25 26  1  0
 26 27  2  0
 21 12  1  0
 27 22  1  0
 20 15  1  0
  1 28  1  0
  1 29  1  0
  1 30  1  0
  2 31  1  0
  3 32  1  0
  3 33  1  0
  3 34  1  0
  4 35  1  1
  5 36  1  0
  8 37  1  0
  8 38  1  0
  9 39  1  0
 13 40  1  0
 14 41  1  0
 16 42  1  0
 17 43  1  0
 18 44  1  0
 19 45  1  0
 23 46  1  0
 24 47  1  0
 25 48  1  0
 26 49  1  0
 27 50  1  0
M  END
>  <smiles>  (13) 
CC(C)[C@H](NC(=O)CNC(=O)c1ccc2ccccc2n1)c1ccccc1

>  <score_type>  (13) 
oracle

>  <origin>  (13) 
autodockgpu

>  <m_score__min__energy>  (13) 
-8.8300000000000001

>  <m_primary>  (13) 
energy

>  <rmsd>  (13) 
5.474409219302027

>  <m_score__min__rmsd>  (13) 
5.474409219302027

>  <meeko>  (13) 
{"free_energy": -8.04, "intermolecular_energy": -9.83, "internal_energy": -1.99, "cluster_size": 11, "cluster_id": 4, "rank_in_cluster": 5}

>  <energy>  (13) 
-8.57

>  <cluster_rmsd>  (13) 
1.82

>  <cluster>  (13) 
1

$$$$

     RDKit          3D

 50 52  0  0  0  0  0  0  0  0999 V2000
  142.6150   77.5670  218.3480 C   0  0  0  0  0  0  0  0  0  0  0  0
  141.5550   78.2360  219.1960 C   0  0  0  0  0  0  0  0  0  0  0  0
  141.8060   79.6930  219.3920 C   0  0  0  0  0  0  0  0  0  0  0  0
  141.4950   77.4820  220.5290 C   0  0  2  0  0  0  0  0  0  0  0  0
  140.5390   76.3990  220.4110 N   0  0  0  0  0  0  0  0  0  0  0  0
  140.4810   75.3460  221.3520 C   0  0  0  0  0  0  0  0  0  0  0  0
  141.2830   75.3400  222.3290 O   0  0  0  0  0  0  0  0  0  0  0  0
  139.4630   74.2860  221.1390 C   0  0  0  0  0  0  0  0  0  0  0  0
  139.2810   73.4630  222.3160 N   0  0  0  0  0  0  0  0  0  0  0  0
  140.2530   72.4580  222.5660 C   0  0  0  0  0  0  0  0  0  0  0  0
  141.2090   72.3600  221.7340 O   0  0  0  0  0  0  0  0  0  0  0  0
  140.1660   71.5850  223.7100 C   0  0  0  0  0  0  0  0  0  0  0  0
  139.5470   70.3550  223.5800 C   0  0  0  0  0  0  0  0  0  0  0  0
  139.4290   69.4770  224.6250 C   0  0  0  0  0  0  0  0  0  0  0  0
  139.9330   69.8060  225.8470 C   0  0  0  0  0  0  0  0  0  0  0  0
  139.8070   68.9170  226.8800 C   0  0  0  0  0  0  0  0  0  0  0  0
  140.3170   69.2620  228.1030 C   0  0  0  0  0  0  0  0  0  0  0  0
  140.9390   70.4810  228.2620 C   0  0  0  0  0  0  0  0  0  0  0  0
  141.0690   71.3890  227.2100 C   0  0  0  0  0  0  0  0  0  0  0  0
  140.5510   71.0380  225.9750 C   0  0  0  0  0  0  0  0  0  0  0  0
  140.6550   71.8880  224.9290 N   0  0  0  0  0  0  0  0  0  0  0  0
  141.2460   78.3710  221.6670 C   0  0  0  0  0  0  0  0  0  0  0  0
  139.9130   78.5880  222.0250 C   0  0  0  0  0  0  0  0  0  0  0  0
  139.5850   79.4160  223.0920 C   0  0  0  0  0  0  0  0  0  0  0  0
  140.5830   80.0550  223.8360 C   0  0  0  0  0  0  0  0  0  0  0  0
  141.8890   79.8220  223.4590 C   0  0  0  0  0  0  0  0  0  0  0  0
  142.2230   79.0010  222.4000 C   0  0  0  0  0  0  0  0  0  0  0  0
  143.3633   77.0948  219.0015 H   0  0  0  0  0  0  0  0  0  0  0  0
  142.1468   76.8005  217.7131 H   0  0  0  0  0  0  0  0  0  0  0  0
  143.1055   78.3195  217.7131 H   0  0  0  0  0  0  0  0  0  0  0  0
  140.5846   78.1858  218.6804 H   0  0  0  0  0  0  0  0  0  0  0  0
  141.8446   79.9169  220.4683 H   0  0  0  0  0  0  0  0  0  0  0  0
  142.7644   79.9659  218.9261 H   0  0  0  0  0  0  0  0  0  0  0  0
  140.9942   80.2709  218.9261 H   0  0  0  0  0  0  0  0  0  0  0  0
  142.4803   77.0439  220.7466 H   0  0  0  0  0  0  0  0  0  0  0  0
  139.8730   76.4100  219.5960 H   0  0  0  0  0  0  0  0  0  0  0  0
  138.5036   74.7610  220.8862 H   0  0  0  0  0  0  0  0  0  0  0  0
  139.8140   73.6377  220.3226 H   0  0  0  0  0  0  0  0  0  0  0  0
  138.4660   73.5920  222.9700 H   0  0  0  0  0  0  0  0  0  0  0  0
  139.1339   70.0711  222.6008 H   0  0  0  0  0  0  0  0  0  0  0  0
  138.9285   68.5086  224.4776 H   0  0  0  0  0  0  0  0  0  0  0  0
  139.3078   67.9482  226.7312 H   0  0  0  0  0  0  0  0  0  0  0  0
  140.2306   68.5699  228.9536 H   0  0  0  0  0  0  0  0  0  0  0  0
  141.3458   70.7470  229.2488 H   0  0  0  0  0  0  0  0  0  0  0  0
  141.5695   72.3573  227.3581 H   0  0  0  0  0  0  0  0  0  0  0  0
  139.1115   78.0964  221.4541 H   0  0  0  0  0  0  0  0  0  0  0  0
  138.5281   79.5708  223.3547 H   0  0  0  0  0  0  0  0  0  0  0  0
  140.3372   80.7129  224.6826 H   0  0  0  0  0  0  0  0  0  0  0  0
  142.6968   80.3096  224.0244 H   0  0  0  0  0  0  0  0  0  0  0  0
  143.2813   78.8498  222.1406 H   0  0  0  0  0  0  0  0  0  0  0  0
  1  2  1  0
  2  3  1  0
  2  4  1  0
  4  5  1  0
  5  6  1  0
  6  7  2  0
  6  8  1  0
  8  9  1  0
  9 10  1  0
 10 11  2  0
 10 12  1  0
 12 13  2  0
 13 14  1  0
 14 15  2  0
 15 16  1  0
 16 17  2  0
 17 18  1  0
 18 19  2  0
 19 20  1  0
 20 21  2  0
  4 22  1  0
 22 23  2  0
 23 24  1  0
 24 25  2  0
 25 26  1  0
 26 27  2  0
 21 12  1  0
 27 22  1  0
 20 15  1  0
  1 28  1  0
  1 29  1  0
  1 30  1  0
  2 31  1  0
  3 32  1  0
  3 33  1  0
  3 34  1  0
  4 35  1  1
  5 36  1  0
  8 37  1  0
  8 38  1  0
  9 39  1  0
 13 40  1  0
 14 41  1  0
 16 42  1  0
 17 43  1  0
 18 44  1  0
 19 45  1  0
 23 46  1  0
 24 47  1  0
 25 48  1  0
 26 49  1  0
 27 50  1  0
M  END
>  <smiles>  (14) 
CC(C)[C@H](NC(=O)CNC(=O)c1ccc2ccccc2n1)c1ccccc1

>  <score_type>  (14) 
oracle

>  <origin>  (14) 
autodockgpu

>  <m_score__min__energy>  (14) 
-8.8300000000000001

>  <m_primary>  (14) 
energy

>  <rmsd>  (14) 
3.9942398960626644

>  <m_score__min__rmsd>  (14) 
3.9942398960626644

>  <meeko>  (14) 
{"free_energy": -8.57, "intermolecular_energy": -10.36, "internal_energy": -1.2, "cluster_size": 23, "cluster_id": 1, "rank_in_cluster": 13}

>  <energy>  (14) 
-8.55

>  <cluster_rmsd>  (14) 
1.75

>  <cluster>  (14) 
1

$$$$

     RDKit          3D

 50 52  0  0  0  0  0  0  0  0999 V2000
  136.2710   74.6110  223.1020 C   0  0  0  0  0  0  0  0  0  0  0  0
  136.8370   76.0060  223.2630 C   0  0  0  0  0  0  0  0  0  0  0  0
  135.8000   77.0690  223.1290 C   0  0  0  0  0  0  0  0  0  0  0  0
  137.9570   76.1660  222.2290 C   0  0  2  0  0  0  0  0  0  0  0  0
  138.5000   74.8580  221.9220 N   0  0  0  0  0  0  0  0  0  0  0  0
  138.4090   74.2940  220.6290 C   0  0  0  0  0  0  0  0  0  0  0  0
  137.8370   74.9410  219.7070 O   0  0  0  0  0  0  0  0  0  0  0  0
  139.0010   72.9480  220.4210 C   0  0  0  0  0  0  0  0  0  0  0  0
  138.8900   72.1170  221.6020 N   0  0  0  0  0  0  0  0  0  0  0  0
  139.8760   72.2810  222.6110 C   0  0  0  0  0  0  0  0  0  0  0  0
  140.7810   73.1470  222.3970 O   0  0  0  0  0  0  0  0  0  0  0  0
  139.8570   71.5040  223.8250 C   0  0  0  0  0  0  0  0  0  0  0  0
  139.1320   70.3260  223.8660 C   0  0  0  0  0  0  0  0  0  0  0  0
  139.0710   69.5400  224.9870 C   0  0  0  0  0  0  0  0  0  0  0  0
  139.7400   69.9130  226.1140 C   0  0  0  0  0  0  0  0  0  0  0  0
  139.6680   69.1150  227.2240 C   0  0  0  0  0  0  0  0  0  0  0  0
  140.3440   69.5030  228.3500 C   0  0  0  0  0  0  0  0  0  0  0  0
  141.0740   70.6710  228.3370 C   0  0  0  0  0  0  0  0  0  0  0  0
  141.1490   71.4850  227.2060 C   0  0  0  0  0  0  0  0  0  0  0  0
  140.4630   71.0910  226.0700 C   0  0  0  0  0  0  0  0  0  0  0  0
  140.5090   71.8510  224.9520 N   0  0  0  0  0  0  0  0  0  0  0  0
  138.9660   77.1460  222.6390 C   0  0  0  0  0  0  0  0  0  0  0  0
  138.5030   78.3900  223.0760 C   0  0  0  0  0  0  0  0  0  0  0  0
  139.3900   79.3790  223.4840 C   0  0  0  0  0  0  0  0  0  0  0  0
  140.7710   79.1540  223.4680 C   0  0  0  0  0  0  0  0  0  0  0  0
  141.1970   77.9180  223.0310 C   0  0  0  0  0  0  0  0  0  0  0  0
  140.3230   76.9300  222.6240 C   0  0  0  0  0  0  0  0  0  0  0  0
  136.0925   74.1710  224.0942 H   0  0  0  0  0  0  0  0  0  0  0  0
  135.3224   74.6619  222.5474 H   0  0  0  0  0  0  0  0  0  0  0  0
  136.9869   73.9866  222.5474 H   0  0  0  0  0  0  0  0  0  0  0  0
  137.2332   76.1278  224.2819 H   0  0  0  0  0  0  0  0  0  0  0  0
  135.4799   77.3971  224.1289 H   0  0  0  0  0  0  0  0  0  0  0  0
  136.2204   77.9242  222.5796 H   0  0  0  0  0  0  0  0  0  0  0  0
  134.9346   76.6699  222.5796 H   0  0  0  0  0  0  0  0  0  0  0  0
  137.5417   76.5881  221.3020 H   0  0  0  0  0  0  0  0  0  0  0  0
  138.9760   74.3240  222.6940 H   0  0  0  0  0  0  0  0  0  0  0  0
  138.4771   72.4545  219.5892 H   0  0  0  0  0  0  0  0  0  0  0  0
  140.0701   73.0784  220.1971 H   0  0  0  0  0  0  0  0  0  0  0  0
  138.1150   71.4150  221.7220 H   0  0  0  0  0  0  0  0  0  0  0  0
  138.5847   70.0089  222.9660 H   0  0  0  0  0  0  0  0  0  0  0  0
  138.4833   68.6102  224.9770 H   0  0  0  0  0  0  0  0  0  0  0  0
  139.0813   68.1846  227.2117 H   0  0  0  0  0  0  0  0  0  0  0  0
  140.3042   68.8855  229.2595 H   0  0  0  0  0  0  0  0  0  0  0  0
  141.6148   70.9715  229.2466 H   0  0  0  0  0  0  0  0  0  0  0  0
  141.7372   72.4144  227.2169 H   0  0  0  0  0  0  0  0  0  0  0  0
  137.4214   78.5892  223.0973 H   0  0  0  0  0  0  0  0  0  0  0  0
  139.0017   80.3505  223.8236 H   0  0  0  0  0  0  0  0  0  0  0  0
  141.4838   79.9278  223.7893 H   0  0  0  0  0  0  0  0  0  0  0  0
  142.2770   77.7106  223.0056 H   0  0  0  0  0  0  0  0  0  0  0  0
  140.7166   75.9606  222.2844 H   0  0  0  0  0  0  0  0  0  0  0  0
  1  2  1  0
  2  3  1  0
  2  4  1  0
  4  5  1  0
  5  6  1  0
  6  7  2  0
  6  8  1  0
  8  9  1  0
  9 10  1  0
 10 11  2  0
 10 12  1  0
 12 13  2  0
 13 14  1  0
 14 15  2  0
 15 16  1  0
 16 17  2  0
 17 18  1  0
 18 19  2  0
 19 20  1  0
 20 21  2  0
  4 22  1  0
 22 23  2  0
 23 24  1  0
 24 25  2  0
 25 26  1  0
 26 27  2  0
 21 12  1  0
 27 22  1  0
 20 15  1  0
  1 28  1  0
  1 29  1  0
  1 30  1  0
  2 31  1  0
  3 32  1  0
  3 33  1  0
  3 34  1  0
  4 35  1  6
  5 36  1  0
  8 37  1  0
  8 38  1  0
  9 39  1  0
 13 40  1  0
 14 41  1  0
 16 42  1  0
 17 43  1  0
 18 44  1  0
 19 45  1  0
 23 46  1  0
 24 47  1  0
 25 48  1  0
 26 49  1  0
 27 50  1  0
M  END
>  <smiles>  (15) 
CC(C)[C@H](NC(=O)CNC(=O)c1ccc2ccccc2n1)c1ccccc1

>  <score_type>  (15) 
oracle

>  <origin>  (15) 
autodockgpu

>  <m_score__min__energy>  (15) 
-8.8300000000000001

>  <m_primary>  (15) 
energy

>  <rmsd>  (15) 
4.627730264408056

>  <m_score__min__rmsd>  (15) 
4.627730264408056

>  <meeko>  (15) 
{"free_energy": -7.81, "intermolecular_energy": -9.6, "internal_energy": -1.99, "cluster_size": 4, "cluster_id": 3, "rank_in_cluster": 3}

>  <energy>  (15) 
-8.53

>  <cluster_rmsd>  (15) 
1.82

>  <cluster>  (15) 
1

$$$$

     RDKit          3D

 50 52  0  0  0  0  0  0  0  0999 V2000
  143.4970   72.1320  220.8460 C   0  0  0  0  0  0  0  0  0  0  0  0
  143.9080   73.4630  220.2550 C   0  0  0  0  0  0  0  0  0  0  0  0
  145.2320   73.9350  220.7550 C   0  0  0  0  0  0  0  0  0  0  0  0
  142.7900   74.4650  220.5660 C   0  0  2  0  0  0  0  0  0  0  0  0
  141.5270   73.7550  220.6120 N   0  0  0  0  0  0  0  0  0  0  0  0
  140.4100   74.2610  221.3160 C   0  0  0  0  0  0  0  0  0  0  0  0
  140.5080   75.3630  221.9280 O   0  0  0  0  0  0  0  0  0  0  0  0
  139.1620   73.4560  221.2990 C   0  0  0  0  0  0  0  0  0  0  0  0
  139.0200   72.6490  222.4920 N   0  0  0  0  0  0  0  0  0  0  0  0
  139.9790   71.6230  222.7050 C   0  0  0  0  0  0  0  0  0  0  0  0
  140.8900   71.4940  221.8270 O   0  0  0  0  0  0  0  0  0  0  0  0
  139.9280   70.7630  223.8600 C   0  0  0  0  0  0  0  0  0  0  0  0
  139.2270   69.5720  223.7910 C   0  0  0  0  0  0  0  0  0  0  0  0
  139.1380   68.7090  224.8510 C   0  0  0  0  0  0  0  0  0  0  0  0
  139.7550   69.0140  226.0280 C   0  0  0  0  0  0  0  0  0  0  0  0
  139.6560   68.1400  227.0760 C   0  0  0  0  0  0  0  0  0  0  0  0
  140.2800   68.4590  228.2520 C   0  0  0  0  0  0  0  0  0  0  0  0
  140.9850   69.6380  228.3500 C   0  0  0  0  0  0  0  0  0  0  0  0
  141.0880   70.5310  227.2820 C   0  0  0  0  0  0  0  0  0  0  0  0
  140.4550   70.2050  226.0940 C   0  0  0  0  0  0  0  0  0  0  0  0
  140.5290   71.0420  225.0350 N   0  0  0  0  0  0  0  0  0  0  0  0
  142.7930   75.6120  219.6540 C   0  0  0  0  0  0  0  0  0  0  0  0
  142.2120   76.7950  220.1190 C   0  0  0  0  0  0  0  0  0  0  0  0
  142.1710   77.9320  219.3210 C   0  0  0  0  0  0  0  0  0  0  0  0
  142.7110   77.9220  218.0310 C   0  0  0  0  0  0  0  0  0  0  0  0
  143.2770   76.7400  217.6000 C   0  0  0  0  0  0  0  0  0  0  0  0
  143.3220   75.6060  218.3850 C   0  0  0  0  0  0  0  0  0  0  0  0
  143.5169   72.1965  221.9439 H   0  0  0  0  0  0  0  0  0  0  0  0
  142.4795   71.8810  220.5118 H   0  0  0  0  0  0  0  0  0  0  0  0
  144.1958   71.3510  220.5118 H   0  0  0  0  0  0  0  0  0  0  0  0
  144.0407   73.3573  219.1682 H   0  0  0  0  0  0  0  0  0  0  0  0
  145.2300   73.9343  221.8550 H   0  0  0  0  0  0  0  0  0  0  0  0
  146.0227   73.2634  220.3893 H   0  0  0  0  0  0  0  0  0  0  0  0
  145.4195   74.9554  220.3893 H   0  0  0  0  0  0  0  0  0  0  0  0
  142.9645   74.9143  221.5548 H   0  0  0  0  0  0  0  0  0  0  0  0
  141.4520   72.8390  220.1000 H   0  0  0  0  0  0  0  0  0  0  0  0
  138.3012   74.1371  221.2266 H   0  0  0  0  0  0  0  0  0  0  0  0
  139.2073   72.7779  220.4340 H   0  0  0  0  0  0  0  0  0  0  0  0
  138.2420   72.8030  223.1850 H   0  0  0  0  0  0  0  0  0  0  0  0
  138.7224   69.3084  222.8498 H   0  0  0  0  0  0  0  0  0  0  0  0
  138.5701   67.7721  224.7529 H   0  0  0  0  0  0  0  0  0  0  0  0
  139.0884   67.2031  226.9760 H   0  0  0  0  0  0  0  0  0  0  0  0
  140.2187   67.7777  229.1135 H   0  0  0  0  0  0  0  0  0  0  0  0
  141.4826   69.8838  229.2997 H   0  0  0  0  0  0  0  0  0  0  0  0
  141.6562   71.4677  227.3812 H   0  0  0  0  0  0  0  0  0  0  0  0
  141.7812   76.8266  221.1306 H   0  0  0  0  0  0  0  0  0  0  0  0
  141.7080   78.8514  219.7089 H   0  0  0  0  0  0  0  0  0  0  0  0
  142.6856   78.8153  217.3896 H   0  0  0  0  0  0  0  0  0  0  0  0
  143.7100   76.6999  216.5896 H   0  0  0  0  0  0  0  0  0  0  0  0
  143.7853   74.6890  217.9919 H   0  0  0  0  0  0  0  0  0  0  0  0
  1  2  1  0
  2  3  1  0
  2  4  1  0
  4  5  1  0
  5  6  1  0
  6  7  2  0
  6  8  1  0
  8  9  1  0
  9 10  1  0
 10 11  2  0
 10 12  1  0
 12 13  2  0
 13 14  1  0
 14 15  2  0
 15 16  1  0
 16 17  2  0
 17 18  1  0
 18 19  2  0
 19 20  1  0
 20 21  2  0
  4 22  1  0
 22 23  2  0
 23 24  1  0
 24 25  2  0
 25 26  1  0
 26 27  2  0
 21 12  1  0
 27 22  1  0
 20 15  1  0
  1 28  1  0
  1 29  1  0
  1 30  1  0
  2 31  1  0
  3 32  1  0
  3 33  1  0
  3 34  1  0
  4 35  1  1
  5 36  1  0
  8 37  1  0
  8 38  1  0
  9 39  1  0
 13 40  1  0
 14 41  1  0
 16 42  1  0
 17 43  1  0
 18 44  1  0
 19 45  1  0
 23 46  1  0
 24 47  1  0
 25 48  1  0
 26 49  1  0
 27 50  1  0
M  END
>  <smiles>  (16) 
CC(C)[C@H](NC(=O)CNC(=O)c1ccc2ccccc2n1)c1ccccc1

>  <score_type>  (16) 
oracle

>  <origin>  (16) 
autodockgpu

>  <m_score__min__energy>  (16) 
-8.8300000000000001

>  <m_primary>  (16) 
energy

>  <rmsd>  (16) 
5.298794723381826

>  <m_score__min__rmsd>  (16) 
5.298794723381826

>  <meeko>  (16) 
{"free_energy": -8.15, "intermolecular_energy": -9.94, "internal_energy": -1.78, "cluster_size": 11, "cluster_id": 4, "rank_in_cluster": 3}

>  <energy>  (16) 
-8.51

>  <cluster_rmsd>  (16) 
1.82

>  <cluster>  (16) 
1

$$$$

     RDKit          3D

 50 52  0  0  0  0  0  0  0  0999 V2000
  140.5370   79.4340  223.8490 C   0  0  0  0  0  0  0  0  0  0  0  0
  141.5610   78.6670  223.0400 C   0  0  0  0  0  0  0  0  0  0  0  0
  142.8200   79.4370  222.8210 C   0  0  0  0  0  0  0  0  0  0  0  0
  140.8950   78.2720  221.7180 C   0  0  2  0  0  0  0  0  0  0  0  0
  141.0750   76.8490  221.5110 N   0  0  0  0  0  0  0  0  0  0  0  0
  139.9790   75.9630  221.4090 C   0  0  0  0  0  0  0  0  0  0  0  0
  138.8030   76.4160  221.5030 O   0  0  0  0  0  0  0  0  0  0  0  0
  140.2740   74.5230  221.1950 C   0  0  0  0  0  0  0  0  0  0  0  0
  139.9000   73.7170  222.3380 N   0  0  0  0  0  0  0  0  0  0  0  0
  140.6100   72.5040  222.5420 C   0  0  0  0  0  0  0  0  0  0  0  0
  141.5230   72.2220  221.7030 O   0  0  0  0  0  0  0  0  0  0  0  0
  140.3180   71.6290  223.6490 C   0  0  0  0  0  0  0  0  0  0  0  0
  139.6210   70.4550  223.4210 C   0  0  0  0  0  0  0  0  0  0  0  0
  139.3080   69.5790  224.4260 C   0  0  0  0  0  0  0  0  0  0  0  0
  139.6880   69.8510  225.7060 C   0  0  0  0  0  0  0  0  0  0  0  0
  139.3680   68.9640  226.6980 C   0  0  0  0  0  0  0  0  0  0  0  0
  139.7550   69.2520  227.9790 C   0  0  0  0  0  0  0  0  0  0  0  0
  140.4510   70.4130  228.2360 C   0  0  0  0  0  0  0  0  0  0  0  0
  140.7780   71.3190  227.2260 C   0  0  0  0  0  0  0  0  0  0  0  0
  140.3840   71.0260  225.9310 C   0  0  0  0  0  0  0  0  0  0  0  0
  140.6810   71.8760  224.9230 N   0  0  0  0  0  0  0  0  0  0  0  0
  141.3450   79.0970  220.5930 C   0  0  0  0  0  0  0  0  0  0  0  0
  142.1090   78.4670  219.6080 C   0  0  0  0  0  0  0  0  0  0  0  0
  142.5770   79.1720  218.5060 C   0  0  0  0  0  0  0  0  0  0  0  0
  142.2950   80.5350  218.3550 C   0  0  0  0  0  0  0  0  0  0  0  0
  141.5390   81.1290  219.3440 C   0  0  0  0  0  0  0  0  0  0  0  0
  141.0700   80.4350  220.4420 C   0  0  0  0  0  0  0  0  0  0  0  0
  140.7326   79.2875  224.9215 H   0  0  0  0  0  0  0  0  0  0  0  0
  140.6056   80.5048  223.6067 H   0  0  0  0  0  0  0  0  0  0  0  0
  139.5287   79.0671  223.6067 H   0  0  0  0  0  0  0  0  0  0  0  0
  141.8740   77.7712  223.5964 H   0  0  0  0  0  0  0  0  0  0  0  0
  143.2593   79.7057  223.7930 H   0  0  0  0  0  0  0  0  0  0  0  0
  143.5331   78.8203  222.2542 H   0  0  0  0  0  0  0  0  0  0  0  0
  142.5959   80.3527  222.2542 H   0  0  0  0  0  0  0  0  0  0  0  0
  139.8152   78.4732  221.7771 H   0  0  0  0  0  0  0  0  0  0  0  0
  142.0580   76.4780  221.4330 H   0  0  0  0  0  0  0  0  0  0  0  0
  139.7144   74.1728  220.3151 H   0  0  0  0  0  0  0  0  0  0  0  0
  141.3585   74.4171  221.0449 H   0  0  0  0  0  0  0  0  0  0  0  0
  139.1340   74.0040  223.0000 H   0  0  0  0  0  0  0  0  0  0  0  0
  139.3068   70.2168  222.3941 H   0  0  0  0  0  0  0  0  0  0  0  0
  138.7510   68.6577  224.2004 H   0  0  0  0  0  0  0  0  0  0  0  0
  138.8131   68.0417  226.4713 H   0  0  0  0  0  0  0  0  0  0  0  0
  139.5116   68.5602  228.7989 H   0  0  0  0  0  0  0  0  0  0  0  0
  140.7584   70.6326  229.2691 H   0  0  0  0  0  0  0  0  0  0  0  0
  141.3337   72.2409  227.4524 H   0  0  0  0  0  0  0  0  0  0  0  0
  142.3436   77.3968  219.7062 H   0  0  0  0  0  0  0  0  0  0  0  0
  143.1761   78.6531  217.7432 H   0  0  0  0  0  0  0  0  0  0  0  0
  142.6594   81.1056  217.4880 H   0  0  0  0  0  0  0  0  0  0  0  0
  141.2999   82.1990  219.2545 H   0  0  0  0  0  0  0  0  0  0  0  0
  140.4711   80.9577  221.2023 H   0  0  0  0  0  0  0  0  0  0  0  0
  1  2  1  0
  2  3  1  0
  2  4  1  0
  4  5  1  0
  5  6  1  0
  6  7  2  0
  6  8  1  0
  8  9  1  0
  9 10  1  0
 10 11  2  0
 10 12  1  0
 12 13  2  0
 13 14  1  0
 14 15  2  0
 15 16  1  0
 16 17  2  0
 17 18  1  0
 18 19  2  0
 19 20  1  0
 20 21  2  0
  4 22  1  0
 22 23  2  0
 23 24  1  0
 24 25  2  0
 25 26  1  0
 26 27  2  0
 21 12  1  0
 27 22  1  0
 20 15  1  0
  1 28  1  0
  1 29  1  0
  1 30  1  0
  2 31  1  0
  3 32  1  0
  3 33  1  0
  3 34  1  0
  4 35  1  1
  5 36  1  0
  8 37  1  0
  8 38  1  0
  9 39  1  0
 13 40  1  0
 14 41  1  0
 16 42  1  0
 17 43  1  0
 18 44  1  0
 19 45  1  0
 23 46  1  0
 24 47  1  0
 25 48  1  0
 26 49  1  0
 27 50  1  0
M  END
>  <smiles>  (17) 
CC(C)[C@H](NC(=O)CNC(=O)c1ccc2ccccc2n1)c1ccccc1

>  <score_type>  (17) 
oracle

>  <origin>  (17) 
autodockgpu

>  <m_score__min__energy>  (17) 
-8.8300000000000001

>  <m_primary>  (17) 
energy

>  <rmsd>  (17) 
3.743795207569476

>  <m_score__min__rmsd>  (17) 
3.743795207569476

>  <meeko>  (17) 
{"free_energy": -8.73, "intermolecular_energy": -10.52, "internal_energy": -1.18, "cluster_size": 23, "cluster_id": 1, "rank_in_cluster": 6}

>  <energy>  (17) 
-8.48

>  <cluster_rmsd>  (17) 
1.74

>  <cluster>  (17) 
1

$$$$

     RDKit          3D

 50 52  0  0  0  0  0  0  0  0999 V2000
  138.2620   78.3450  219.3770 C   0  0  0  0  0  0  0  0  0  0  0  0
  138.8270   78.4730  220.7750 C   0  0  0  0  0  0  0  0  0  0  0  0
  138.5380   79.7970  221.3980 C   0  0  0  0  0  0  0  0  0  0  0  0
  140.3330   78.2010  220.6850 C   0  0  2  0  0  0  0  0  0  0  0  0
  140.5430   76.7730  220.5460 N   0  0  0  0  0  0  0  0  0  0  0  0
  139.9370   75.8390  221.4170 C   0  0  0  0  0  0  0  0  0  0  0  0
  139.1890   76.2520  222.3490 O   0  0  0  0  0  0  0  0  0  0  0  0
  140.2160   74.3990  221.1850 C   0  0  0  0  0  0  0  0  0  0  0  0
  139.8800   73.5890  222.3370 N   0  0  0  0  0  0  0  0  0  0  0  0
  140.5900   72.3720  222.5090 C   0  0  0  0  0  0  0  0  0  0  0  0
  141.4700   72.0890  221.6360 O   0  0  0  0  0  0  0  0  0  0  0  0
  140.3330   71.4930  223.6220 C   0  0  0  0  0  0  0  0  0  0  0  0
  139.6540   70.3060  223.4070 C   0  0  0  0  0  0  0  0  0  0  0  0
  139.3750   69.4250  224.4180 C   0  0  0  0  0  0  0  0  0  0  0  0
  139.7720   69.7070  225.6920 C   0  0  0  0  0  0  0  0  0  0  0  0
  139.4860   68.8150  226.6900 C   0  0  0  0  0  0  0  0  0  0  0  0
  139.8900   69.1110  227.9640 C   0  0  0  0  0  0  0  0  0  0  0  0
  140.5680   70.2860  228.2070 C   0  0  0  0  0  0  0  0  0  0  0  0
  140.8610   71.1960  227.1910 C   0  0  0  0  0  0  0  0  0  0  0  0
  140.4500   70.8940  225.9040 C   0  0  0  0  0  0  0  0  0  0  0  0
  140.7130   71.7480  224.8900 N   0  0  0  0  0  0  0  0  0  0  0  0
  141.0810   78.8050  221.7920 C   0  0  0  0  0  0  0  0  0  0  0  0
  141.8700   79.9180  221.4930 C   0  0  0  0  0  0  0  0  0  0  0  0
  142.6120   80.5540  222.4810 C   0  0  0  0  0  0  0  0  0  0  0  0
  142.5880   80.0940  223.8020 C   0  0  0  0  0  0  0  0  0  0  0  0
  141.8010   78.9930  224.0660 C   0  0  0  0  0  0  0  0  0  0  0  0
  141.0610   78.3550  223.0910 C   0  0  0  0  0  0  0  0  0  0  0  0
  137.1907   78.1023  219.4353 H   0  0  0  0  0  0  0  0  0  0  0  0
  138.3939   79.2958  218.8398 H   0  0  0  0  0  0  0  0  0  0  0  0
  138.7907   77.5439  218.8398 H   0  0  0  0  0  0  0  0  0  0  0  0
  138.3409   77.7406  221.4362 H   0  0  0  0  0  0  0  0  0  0  0  0
  138.5593   79.6993  222.4934 H   0  0  0  0  0  0  0  0  0  0  0  0
  139.2982   80.5256  221.0800 H   0  0  0  0  0  0  0  0  0  0  0  0
  137.5433   80.1426  221.0800 H   0  0  0  0  0  0  0  0  0  0  0  0
  140.7411   78.6939  219.7903 H   0  0  0  0  0  0  0  0  0  0  0  0
  141.1650   76.4360  219.7670 H   0  0  0  0  0  0  0  0  0  0  0  0
  139.6224   74.0564  220.3246 H   0  0  0  0  0  0  0  0  0  0  0  0
  141.2937   74.2881  220.9943 H   0  0  0  0  0  0  0  0  0  0  0  0
  139.1390   73.8770  223.0280 H   0  0  0  0  0  0  0  0  0  0  0  0
  139.3262   70.0611  222.3859 H   0  0  0  0  0  0  0  0  0  0  0  0
  138.8323   68.4927  224.2030 H   0  0  0  0  0  0  0  0  0  0  0  0
  138.9443   67.8824  226.4735 H   0  0  0  0  0  0  0  0  0  0  0  0
  139.6749   68.4154  228.7886 H   0  0  0  0  0  0  0  0  0  0  0  0
  140.8882   70.5135  229.2345 H   0  0  0  0  0  0  0  0  0  0  0  0
  141.4038   72.1281  227.4066 H   0  0  0  0  0  0  0  0  0  0  0  0
  141.9046   80.2965  220.4608 H   0  0  0  0  0  0  0  0  0  0  0  0
  143.2254   81.4294  222.2213 H   0  0  0  0  0  0  0  0  0  0  0  0
  143.1703   80.5880  224.5938 H   0  0  0  0  0  0  0  0  0  0  0  0
  141.7613   78.6074  225.0954 H   0  0  0  0  0  0  0  0  0  0  0  0
  140.4502   77.4792  223.3555 H   0  0  0  0  0  0  0  0  0  0  0  0
  1  2  1  0
  2  3  1  0
  2  4  1  0
  4  5  1  0
  5  6  1  0
  6  7  2  0
  6  8  1  0
  8  9  1  0
  9 10  1  0
 10 11  2  0
 10 12  1  0
 12 13  2  0
 13 14  1  0
 14 15  2  0
 15 16  1  0
 16 17  2  0
 17 18  1  0
 18 19  2  0
 19 20  1  0
 20 21  2  0
  4 22  1  0
 22 23  2  0
 23 24  1  0
 24 25  2  0
 25 26  1  0
 26 27  2  0
 21 12  1  0
 27 22  1  0
 20 15  1  0
  1 28  1  0
  1 29  1  0
  1 30  1  0
  2 31  1  0
  3 32  1  0
  3 33  1  0
  3 34  1  0
  4 35  1  6
  5 36  1  0
  8 37  1  0
  8 38  1  0
  9 39  1  0
 13 40  1  0
 14 41  1  0
 16 42  1  0
 17 43  1  0
 18 44  1  0
 19 45  1  0
 23 46  1  0
 24 47  1  0
 25 48  1  0
 26 49  1  0
 27 50  1  0
M  END
>  <smiles>  (18) 
CC(C)[C@H](NC(=O)CNC(=O)c1ccc2ccccc2n1)c1ccccc1

>  <score_type>  (18) 
oracle

>  <origin>  (18) 
autodockgpu

>  <m_score__min__energy>  (18) 
-8.8300000000000001

>  <m_primary>  (18) 
energy

>  <rmsd>  (18) 
4.178658296929834

>  <m_score__min__rmsd>  (18) 
4.178658296929834

>  <meeko>  (18) 
{"free_energy": -8.23, "intermolecular_energy": -10.02, "internal_energy": -1.35, "cluster_size": 23, "cluster_id": 1, "rank_in_cluster": 23}

>  <energy>  (18) 
-8.42

>  <cluster_rmsd>  (18) 
1.89

>  <cluster>  (18) 
1

$$$$

     RDKit          3D

 50 52  0  0  0  0  0  0  0  0999 V2000
  136.4800   71.6190  224.1620 C   0  0  0  0  0  0  0  0  0  0  0  0
  137.7300   70.8390  223.8170 C   0  0  0  0  0  0  0  0  0  0  0  0
  137.8790   70.6050  222.3510 C   0  0  0  0  0  0  0  0  0  0  0  0
  137.6790   69.5240  224.6020 C   0  0  2  0  0  0  0  0  0  0  0  0
  136.3880   69.4190  225.2530 N   0  0  0  0  0  0  0  0  0  0  0  0
  135.2580   68.8840  224.5930 C   0  0  0  0  0  0  0  0  0  0  0  0
  135.3670   68.4850  223.3990 O   0  0  0  0  0  0  0  0  0  0  0  0
  133.9830   68.8200  225.3510 C   0  0  0  0  0  0  0  0  0  0  0  0
  133.3610   70.1200  225.4790 N   0  0  0  0  0  0  0  0  0  0  0  0
  133.7420   70.9210  226.5880 C   0  0  0  0  0  0  0  0  0  0  0  0
  134.6040   70.4310  227.3840 O   0  0  0  0  0  0  0  0  0  0  0  0
  133.1840   72.2310  226.8070 C   0  0  0  0  0  0  0  0  0  0  0  0
  131.9240   72.3480  227.3670 C   0  0  0  0  0  0  0  0  0  0  0  0
  131.3330   73.5610  227.6020 C   0  0  0  0  0  0  0  0  0  0  0  0
  131.9920   74.7100  227.2810 C   0  0  0  0  0  0  0  0  0  0  0  0
  131.3860   75.9130  227.5230 C   0  0  0  0  0  0  0  0  0  0  0  0
  132.0600   77.0590  227.1940 C   0  0  0  0  0  0  0  0  0  0  0  0
  133.3160   76.9740  226.6350 C   0  0  0  0  0  0  0  0  0  0  0  0
  133.9350   75.7480  226.3870 C   0  0  0  0  0  0  0  0  0  0  0  0
  133.2510   74.5910  226.7200 C   0  0  0  0  0  0  0  0  0  0  0  0
  133.8140   73.3820  226.4970 N   0  0  0  0  0  0  0  0  0  0  0  0
  138.8170   69.3680  225.5130 C   0  0  0  0  0  0  0  0  0  0  0  0
  139.0690   68.0840  226.0010 C   0  0  0  0  0  0  0  0  0  0  0  0
  140.1280   67.8450  226.8690 C   0  0  0  0  0  0  0  0  0  0  0  0
  140.9690   68.8860  227.2770 C   0  0  0  0  0  0  0  0  0  0  0  0
  140.6940   70.1420  226.7800 C   0  0  0  0  0  0  0  0  0  0  0  0
  139.6440   70.3890  225.9170 C   0  0  0  0  0  0  0  0  0  0  0  0
  136.3777   71.6828  225.2554 H   0  0  0  0  0  0  0  0  0  0  0  0
  136.5523   72.6326  223.7407 H   0  0  0  0  0  0  0  0  0  0  0  0
  135.6013   71.1086  223.7407 H   0  0  0  0  0  0  0  0  0  0  0  0
  138.6180   71.4231  224.1003 H   0  0  0  0  0  0  0  0  0  0  0  0
  138.4629   69.6880  222.1836 H   0  0  0  0  0  0  0  0  0  0  0  0
  136.8844   70.4949  221.8943 H   0  0  0  0  0  0  0  0  0  0  0  0
  138.3995   71.4597  221.8943 H   0  0  0  0  0  0  0  0  0  0  0  0
  137.7800   68.6777  223.9066 H   0  0  0  0  0  0  0  0  0  0  0  0
  136.3040   69.7520  226.2480 H   0  0  0  0  0  0  0  0  0  0  0  0
  133.2910   68.1458  224.8251 H   0  0  0  0  0  0  0  0  0  0  0  0
  134.2080   68.4507  226.3624 H   0  0  0  0  0  0  0  0  0  0  0  0
  132.6510   70.4730  224.7860 H   0  0  0  0  0  0  0  0  0  0  0  0
  131.3763   71.4320  227.6335 H   0  0  0  0  0  0  0  0  0  0  0  0
  130.3289   73.6077  228.0487 H   0  0  0  0  0  0  0  0  0  0  0  0
  130.3823   75.9584  227.9707 H   0  0  0  0  0  0  0  0  0  0  0  0
  131.6008   78.0420  227.3752 H   0  0  0  0  0  0  0  0  0  0  0  0
  133.8478   77.9014  226.3759 H   0  0  0  0  0  0  0  0  0  0  0  0
  134.9387   75.7021  225.9393 H   0  0  0  0  0  0  0  0  0  0  0  0
  138.4204   67.2502  225.6942 H   0  0  0  0  0  0  0  0  0  0  0  0
  140.3071   66.8249  227.2397 H   0  0  0  0  0  0  0  0  0  0  0  0
  141.8109   68.7103  227.9628 H   0  0  0  0  0  0  0  0  0  0  0  0
  141.3368   70.9817  227.0829 H   0  0  0  0  0  0  0  0  0  0  0  0
  139.4682   71.4110  225.5501 H   0  0  0  0  0  0  0  0  0  0  0  0
  1  2  1  0
  2  3  1  0
  2  4  1  0
  4  5  1  0
  5  6  1  0
  6  7  2  0
  6  8  1  0
  8  9  1  0
  9 10  1  0
 10 11  2  0
 10 12  1  0
 12 13  2  0
 13 14  1  0
 14 15  2  0
 15 16  1  0
 16 17  2  0
 17 18  1  0
 18 19  2  0
 19 20  1  0
 20 21  2  0
  4 22  1  0
 22 23  2  0
 23 24  1  0
 24 25  2  0
 25 26  1  0
 26 27  2  0
 21 12  1  0
 27 22  1  0
 20 15  1  0
  1 28  1  0
  1 29  1  0
  1 30  1  0
  2 31  1  0
  3 32  1  0
  3 33  1  0
  3 34  1  0
  4 35  1  6
  5 36  1  0
  8 37  1  0
  8 38  1  0
  9 39  1  0
 13 40  1  0
 14 41  1  0
 16 42  1  0
 17 43  1  0
 18 44  1  0
 19 45  1  0
 23 46  1  0
 24 47  1  0
 25 48  1  0
 26 49  1  0
 27 50  1  0
M  END
>  <smiles>  (19) 
CC(C)[C@H](NC(=O)CNC(=O)c1ccc2ccccc2n1)c1ccccc1

>  <score_type>  (19) 
oracle

>  <origin>  (19) 
autodockgpu

>  <m_score__min__energy>  (19) 
-8.8300000000000001

>  <m_primary>  (19) 
energy

>  <rmsd>  (19) 
11.285758475324998

>  <m_score__min__rmsd>  (19) 
11.285758475324998

>  <meeko>  (19) 
{"free_energy": -7.45, "intermolecular_energy": -9.24, "internal_energy": -2.06, "cluster_size": 1, "cluster_id": 7, "rank_in_cluster": 1}

>  <energy>  (19) 
-8.41

>  <cluster_rmsd>  (19) 
0.52

>  <cluster>  (19) 
1

$$$$

     RDKit          3D

 50 52  0  0  0  0  0  0  0  0999 V2000
  138.3850   78.4260  219.2720 C   0  0  0  0  0  0  0  0  0  0  0  0
  138.8880   78.4730  220.6990 C   0  0  0  0  0  0  0  0  0  0  0  0
  138.5860   79.7670  221.3770 C   0  0  0  0  0  0  0  0  0  0  0  0
  140.3930   78.1850  220.6620 C   0  0  2  0  0  0  0  0  0  0  0  0
  140.5920   76.7540  220.5460 N   0  0  0  0  0  0  0  0  0  0  0  0
  139.9200   75.8340  221.3830 C   0  0  0  0  0  0  0  0  0  0  0  0
  139.1210   76.2640  222.2630 O   0  0  0  0  0  0  0  0  0  0  0  0
  140.1950   74.3890  221.1790 C   0  0  0  0  0  0  0  0  0  0  0  0
  139.8640   73.6040  222.3490 N   0  0  0  0  0  0  0  0  0  0  0  0
  140.5680   72.3850  222.5380 C   0  0  0  0  0  0  0  0  0  0  0  0
  141.4370   72.0790  221.6620 O   0  0  0  0  0  0  0  0  0  0  0  0
  140.3150   71.5290  223.6690 C   0  0  0  0  0  0  0  0  0  0  0  0
  139.6400   70.3360  223.4810 C   0  0  0  0  0  0  0  0  0  0  0  0
  139.3660   69.4750  224.5110 C   0  0  0  0  0  0  0  0  0  0  0  0
  139.7630   69.7860  225.7780 C   0  0  0  0  0  0  0  0  0  0  0  0
  139.4810   68.9150  226.7950 C   0  0  0  0  0  0  0  0  0  0  0  0
  139.8850   69.2400  228.0620 C   0  0  0  0  0  0  0  0  0  0  0  0
  140.5590   70.4220  228.2800 C   0  0  0  0  0  0  0  0  0  0  0  0
  140.8470   71.3110  227.2440 C   0  0  0  0  0  0  0  0  0  0  0  0
  140.4360   70.9800  225.9640 C   0  0  0  0  0  0  0  0  0  0  0  0
  140.6960   71.8130  224.9310 N   0  0  0  0  0  0  0  0  0  0  0  0
  141.1100   78.7940  221.7860 C   0  0  0  0  0  0  0  0  0  0  0  0
  141.8960   79.9150  221.5060 C   0  0  0  0  0  0  0  0  0  0  0  0
  142.6100   80.5560  222.5110 C   0  0  0  0  0  0  0  0  0  0  0  0
  142.5600   80.0950  223.8310 C   0  0  0  0  0  0  0  0  0  0  0  0
  141.7770   78.9870  224.0760 C   0  0  0  0  0  0  0  0  0  0  0  0
  141.0640   78.3440  223.0840 C   0  0  0  0  0  0  0  0  0  0  0  0
  137.2898   78.3237  219.2725 H   0  0  0  0  0  0  0  0  0  0  0  0
  138.6663   79.3543  218.7533 H   0  0  0  0  0  0  0  0  0  0  0  0
  138.8334   77.5658  218.7533 H   0  0  0  0  0  0  0  0  0  0  0  0
  138.3645   77.7138  221.2987 H   0  0  0  0  0  0  0  0  0  0  0  0
  138.6189   79.6260  222.4674 H   0  0  0  0  0  0  0  0  0  0  0  0
  139.3328   80.5187  221.0818 H   0  0  0  0  0  0  0  0  0  0  0  0
  137.5836   80.1104  221.0818 H   0  0  0  0  0  0  0  0  0  0  0  0
  140.8359   78.6634  219.7760 H   0  0  0  0  0  0  0  0  0  0  0  0
  141.2580   76.4030  219.8100 H   0  0  0  0  0  0  0  0  0  0  0  0
  139.5959   74.0299  220.3292 H   0  0  0  0  0  0  0  0  0  0  0  0
  141.2713   74.2720  220.9845 H   0  0  0  0  0  0  0  0  0  0  0  0
  139.1320   73.9100  223.0420 H   0  0  0  0  0  0  0  0  0  0  0  0
  139.3108   70.0686  222.4661 H   0  0  0  0  0  0  0  0  0  0  0  0
  138.8274   68.5358  224.3165 H   0  0  0  0  0  0  0  0  0  0  0  0
  138.9425   67.9760  226.5991 H   0  0  0  0  0  0  0  0  0  0  0  0
  139.6728   68.5614  228.9013 H   0  0  0  0  0  0  0  0  0  0  0  0
  140.8798   70.6722  229.3020 H   0  0  0  0  0  0  0  0  0  0  0  0
  141.3862   72.2498  227.4389 H   0  0  0  0  0  0  0  0  0  0  0  0
  141.9502   80.2954  220.4753 H   0  0  0  0  0  0  0  0  0  0  0  0
  143.2220   81.4366  222.2658 H   0  0  0  0  0  0  0  0  0  0  0  0
  143.1196   80.5936  224.6362 H   0  0  0  0  0  0  0  0  0  0  0  0
  141.7180   78.5995  225.1038 H   0  0  0  0  0  0  0  0  0  0  0  0
  140.4537   77.4638  223.3345 H   0  0  0  0  0  0  0  0  0  0  0  0
  1  2  1  0
  2  3  1  0
  2  4  1  0
  4  5  1  0
  5  6  1  0
  6  7  2  0
  6  8  1  0
  8  9  1  0
  9 10  1  0
 10 11  2  0
 10 12  1  0
 12 13  2  0
 13 14  1  0
 14 15  2  0
 15 16  1  0
 16 17  2  0
 17 18  1  0
 18 19  2  0
 19 20  1  0
 20 21  2  0
  4 22  1  0
 22 23  2  0
 23 24  1  0
 24 25  2  0
 25 26  1  0
 26 27  2  0
 21 12  1  0
 27 22  1  0
 20 15  1  0
  1 28  1  0
  1 29  1  0
  1 30  1  0
  2 31  1  0
  3 32  1  0
  3 33  1  0
  3 34  1  0
  4 35  1  6
  5 36  1  0
  8 37  1  0
  8 38  1  0
  9 39  1  0
 13 40  1  0
 14 41  1  0
 16 42  1  0
 17 43  1  0
 18 44  1  0
 19 45  1  0
 23 46  1  0
 24 47  1  0
 25 48  1  0
 26 49  1  0
 27 50  1  0
M  END
>  <smiles>  (20) 
CC(C)[C@H](NC(=O)CNC(=O)c1ccc2ccccc2n1)c1ccccc1

>  <score_type>  (20) 
oracle

>  <origin>  (20) 
autodockgpu

>  <m_score__min__energy>  (20) 
-8.8300000000000001

>  <m_primary>  (20) 
energy

>  <rmsd>  (20) 
4.190271594802385

>  <m_score__min__rmsd>  (20) 
4.190271594802385

>  <meeko>  (20) 
{"free_energy": -8.25, "intermolecular_energy": -10.04, "internal_energy": -1.33, "cluster_size": 23, "cluster_id": 1, "rank_in_cluster": 22}

>  <energy>  (20) 
-8.4

>  <cluster_rmsd>  (20) 
1.82

>  <cluster>  (20) 
1

$$$$

     RDKit          3D

 50 52  0  0  0  0  0  0  0  0999 V2000
  143.4890   72.1800  220.8160 C   0  0  0  0  0  0  0  0  0  0  0  0
  143.9310   73.5120  220.2510 C   0  0  0  0  0  0  0  0  0  0  0  0
  145.2620   73.9460  220.7670 C   0  0  0  0  0  0  0  0  0  0  0  0
  142.8340   74.5320  220.5750 C   0  0  2  0  0  0  0  0  0  0  0  0
  141.5620   73.8400  220.6530 N   0  0  0  0  0  0  0  0  0  0  0  0
  140.4660   74.3700  221.3700 C   0  0  0  0  0  0  0  0  0  0  0  0
  140.5890   75.4780  221.9660 O   0  0  0  0  0  0  0  0  0  0  0  0
  139.2070   73.5820  221.3860 C   0  0  0  0  0  0  0  0  0  0  0  0
  139.0900   72.7680  222.5760 N   0  0  0  0  0  0  0  0  0  0  0  0
  139.9900   71.6780  222.7130 C   0  0  0  0  0  0  0  0  0  0  0  0
  140.8310   71.5030  221.7760 O   0  0  0  0  0  0  0  0  0  0  0  0
  139.9590   70.8060  223.8600 C   0  0  0  0  0  0  0  0  0  0  0  0
  139.3380   69.5740  223.7610 C   0  0  0  0  0  0  0  0  0  0  0  0
  139.2710   68.6970  224.8110 C   0  0  0  0  0  0  0  0  0  0  0  0
  139.8310   69.0290  226.0080 C   0  0  0  0  0  0  0  0  0  0  0  0
  139.7560   68.1400  227.0470 C   0  0  0  0  0  0  0  0  0  0  0  0
  140.3220   68.4870  228.2440 C   0  0  0  0  0  0  0  0  0  0  0  0
  140.9480   69.7080  228.3720 C   0  0  0  0  0  0  0  0  0  0  0  0
  141.0270   70.6150  227.3140 C   0  0  0  0  0  0  0  0  0  0  0  0
  140.4520   70.2610  226.1050 C   0  0  0  0  0  0  0  0  0  0  0  0
  140.5050   71.1110  225.0550 N   0  0  0  0  0  0  0  0  0  0  0  0
  142.8340   75.6710  219.6520 C   0  0  0  0  0  0  0  0  0  0  0  0
  142.2700   76.8630  220.1130 C   0  0  0  0  0  0  0  0  0  0  0  0
  142.2280   77.9920  219.3060 C   0  0  0  0  0  0  0  0  0  0  0  0
  142.7500   77.9650  218.0080 C   0  0  0  0  0  0  0  0  0  0  0  0
  143.3000   76.7750  217.5810 C   0  0  0  0  0  0  0  0  0  0  0  0
  143.3460   75.6480  218.3760 C   0  0  0  0  0  0  0  0  0  0  0  0
  143.5039   72.2248  221.9150 H   0  0  0  0  0  0  0  0  0  0  0  0
  142.4684   71.9562  220.4719 H   0  0  0  0  0  0  0  0  0  0  0  0
  144.1733   71.3905  220.4719 H   0  0  0  0  0  0  0  0  0  0  0  0
  144.0665   73.4232  219.1630 H   0  0  0  0  0  0  0  0  0  0  0  0
  145.2481   73.9415  221.8669 H   0  0  0  0  0  0  0  0  0  0  0  0
  146.0380   73.2544  220.4073 H   0  0  0  0  0  0  0  0  0  0  0  0
  145.4812   74.9621  220.4073 H   0  0  0  0  0  0  0  0  0  0  0  0
  143.0350   74.9878  221.5557 H   0  0  0  0  0  0  0  0  0  0  0  0
  141.4660   72.9190  220.1540 H   0  0  0  0  0  0  0  0  0  0  0  0
  138.3540   74.2753  221.3452 H   0  0  0  0  0  0  0  0  0  0  0  0
  139.2168   72.9099  220.5153 H   0  0  0  0  0  0  0  0  0  0  0  0
  138.3720   72.9630  223.3210 H   0  0  0  0  0  0  0  0  0  0  0  0
  138.8805   69.2876  222.8025 H   0  0  0  0  0  0  0  0  0  0  0  0
  138.7665   67.7273  224.6883 H   0  0  0  0  0  0  0  0  0  0  0  0
  139.2527   67.1698  226.9225 H   0  0  0  0  0  0  0  0  0  0  0  0
  140.2775   67.7956  229.0984 H   0  0  0  0  0  0  0  0  0  0  0  0
  141.3997   69.9763  229.3384 H   0  0  0  0  0  0  0  0  0  0  0  0
  141.5321   71.5844  227.4372 H   0  0  0  0  0  0  0  0  0  0  0  0
  141.8532   76.9078  221.1300 H   0  0  0  0  0  0  0  0  0  0  0  0
  141.7789   78.9191  219.6917 H   0  0  0  0  0  0  0  0  0  0  0  0
  142.7228   78.8522  217.3583 H   0  0  0  0  0  0  0  0  0  0  0  0
  143.7192   76.7218  216.5654 H   0  0  0  0  0  0  0  0  0  0  0  0
  143.7961   74.7233  217.9856 H   0  0  0  0  0  0  0  0  0  0  0  0
  1  2  1  0
  2  3  1  0
  2  4  1  0
  4  5  1  0
  5  6  1  0
  6  7  2  0
  6  8  1  0
  8  9  1  0
  9 10  1  0
 10 11  2  0
 10 12  1  0
 12 13  2  0
 13 14  1  0
 14 15  2  0
 15 16  1  0
 16 17  2  0
 17 18  1  0
 18 19  2  0
 19 20  1  0
 20 21  2  0
  4 22  1  0
 22 23  2  0
 23 24  1  0
 24 25  2  0
 25 26  1  0
 26 27  2  0
 21 12  1  0
 27 22  1  0
 20 15  1  0
  1 28  1  0
  1 29  1  0
  1 30  1  0
  2 31  1  0
  3 32  1  0
  3 33  1  0
  3 34  1  0
  4 35  1  1
  5 36  1  0
  8 37  1  0
  8 38  1  0
  9 39  1  0
 13 40  1  0
 14 41  1  0
 16 42  1  0
 17 43  1  0
 18 44  1  0
 19 45  1  0
 23 46  1  0
 24 47  1  0
 25 48  1  0
 26 49  1  0
 27 50  1  0
M  END
>  <smiles>  (21) 
CC(C)[C@H](NC(=O)CNC(=O)c1ccc2ccccc2n1)c1ccccc1

>  <score_type>  (21) 
oracle

>  <origin>  (21) 
autodockgpu

>  <m_score__min__energy>  (21) 
-8.8300000000000001

>  <m_primary>  (21) 
energy

>  <rmsd>  (21) 
5.274875213778197

>  <m_score__min__rmsd>  (21) 
5.274875213778197

>  <meeko>  (21) 
{"free_energy": -8.13, "intermolecular_energy": -9.92, "internal_energy": -1.84, "cluster_size": 11, "cluster_id": 4, "rank_in_cluster": 4}

>  <energy>  (21) 
-8.3

>  <cluster_rmsd>  (21) 
0.51

>  <cluster>  (21) 
1

$$$$

     RDKit          3D

 50 52  0  0  0  0  0  0  0  0999 V2000
  143.7070   72.1910  220.8490 C   0  0  0  0  0  0  0  0  0  0  0  0
  144.4120   73.3530  220.1830 C   0  0  0  0  0  0  0  0  0  0  0  0
  145.6220   73.8020  220.9320 C   0  0  0  0  0  0  0  0  0  0  0  0
  143.3860   74.4800  220.0270 C   0  0  2  0  0  0  0  0  0  0  0  0
  142.0600   73.9400  220.2530 N   0  0  0  0  0  0  0  0  0  0  0  0
  141.0210   74.7180  220.8120 C   0  0  0  0  0  0  0  0  0  0  0  0
  141.2450   75.9210  221.1290 O   0  0  0  0  0  0  0  0  0  0  0  0
  139.6990   74.0680  221.0010 C   0  0  0  0  0  0  0  0  0  0  0  0
  139.5930   73.4180  222.2900 N   0  0  0  0  0  0  0  0  0  0  0  0
  140.2080   72.1460  222.4330 C   0  0  0  0  0  0  0  0  0  0  0  0
  140.8070   71.6770  221.4140 O   0  0  0  0  0  0  0  0  0  0  0  0
  140.1620   71.4140  223.6730 C   0  0  0  0  0  0  0  0  0  0  0  0
  139.6130   70.1440  223.6930 C   0  0  0  0  0  0  0  0  0  0  0  0
  139.5360   69.3940  224.8360 C   0  0  0  0  0  0  0  0  0  0  0  0
  140.0130   69.8960  226.0100 C   0  0  0  0  0  0  0  0  0  0  0  0
  139.9280   69.1330  227.1430 C   0  0  0  0  0  0  0  0  0  0  0  0
  140.4100   69.6500  228.3150 C   0  0  0  0  0  0  0  0  0  0  0  0
  140.9620   70.9130  228.3260 C   0  0  0  0  0  0  0  0  0  0  0  0
  141.0490   71.6930  227.1720 C   0  0  0  0  0  0  0  0  0  0  0  0
  140.5600   71.1660  225.9880 C   0  0  0  0  0  0  0  0  0  0  0  0
  140.6250   71.8880  224.8470 N   0  0  0  0  0  0  0  0  0  0  0  0
  143.5250   75.1960  218.7550 C   0  0  0  0  0  0  0  0  0  0  0  0
  143.1400   76.5380  218.7350 C   0  0  0  0  0  0  0  0  0  0  0  0
  143.2390   77.2930  217.5730 C   0  0  0  0  0  0  0  0  0  0  0  0
  143.7270   76.7270  216.3900 C   0  0  0  0  0  0  0  0  0  0  0  0
  144.0990   75.4000  216.4400 C   0  0  0  0  0  0  0  0  0  0  0  0
  144.0040   74.6430  217.5910 C   0  0  0  0  0  0  0  0  0  0  0  0
  143.7729   72.2997  221.9416 H   0  0  0  0  0  0  0  0  0  0  0  0
  142.6500   72.1803  220.5447 H   0  0  0  0  0  0  0  0  0  0  0  0
  144.1857   71.2485  220.5447 H   0  0  0  0  0  0  0  0  0  0  0  0
  144.7919   73.0384  219.1998 H   0  0  0  0  0  0  0  0  0  0  0  0
  145.4313   73.7312  222.0130 H   0  0  0  0  0  0  0  0  0  0  0  0
  146.4758   73.1608  220.6676 H   0  0  0  0  0  0  0  0  0  0  0  0
  145.8509   74.8449  220.6676 H   0  0  0  0  0  0  0  0  0  0  0  0
  143.5734   75.2527  220.7871 H   0  0  0  0  0  0  0  0  0  0  0  0
  141.8800   72.9380  219.9870 H   0  0  0  0  0  0  0  0  0  0  0  0
  138.9128   74.8334  220.9236 H   0  0  0  0  0  0  0  0  0  0  0  0
  139.5843   73.2992  220.2227 H   0  0  0  0  0  0  0  0  0  0  0  0
  139.0820   73.8570  223.0990 H   0  0  0  0  0  0  0  0  0  0  0  0
  139.2237   69.7209  222.7552 H   0  0  0  0  0  0  0  0  0  0  0  0
  139.0902   68.3888  224.8068 H   0  0  0  0  0  0  0  0  0  0  0  0
  139.4826   68.1277  227.1124 H   0  0  0  0  0  0  0  0  0  0  0  0
  140.3572   69.0611  229.2426 H   0  0  0  0  0  0  0  0  0  0  0  0
  141.3458   71.3187  229.2737 H   0  0  0  0  0  0  0  0  0  0  0  0
  141.4937   72.6987  227.2018 H   0  0  0  0  0  0  0  0  0  0  0  0
  142.7526   77.0043  219.6528 H   0  0  0  0  0  0  0  0  0  0  0  0
  142.9300   78.3487  217.5830 H   0  0  0  0  0  0  0  0  0  0  0  0
  143.8101   77.3134  215.4630 H   0  0  0  0  0  0  0  0  0  0  0  0
  144.4869   74.9256  215.5265 H   0  0  0  0  0  0  0  0  0  0  0  0
  144.3144   73.5878  217.5764 H   0  0  0  0  0  0  0  0  0  0  0  0
  1  2  1  0
  2  3  1  0
  2  4  1  0
  4  5  1  0
  5  6  1  0
  6  7  2  0
  6  8  1  0
  8  9  1  0
  9 10  1  0
 10 11  2  0
 10 12  1  0
 12 13  2  0
 13 14  1  0
 14 15  2  0
 15 16  1  0
 16 17  2  0
 17 18  1  0
 18 19  2  0
 19 20  1  0
 20 21  2  0
  4 22  1  0
 22 23  2  0
 23 24  1  0
 24 25  2  0
 25 26  1  0
 26 27  2  0
 21 12  1  0
 27 22  1  0
 20 15  1  0
  1 28  1  0
  1 29  1  0
  1 30  1  0
  2 31  1  0
  3 32  1  0
  3 33  1  0
  3 34  1  0
  4 35  1  1
  5 36  1  0
  8 37  1  0
  8 38  1  0
  9 39  1  0
 13 40  1  0
 14 41  1  0
 16 42  1  0
 17 43  1  0
 18 44  1  0
 19 45  1  0
 23 46  1  0
 24 47  1  0
 25 48  1  0
 26 49  1  0
 27 50  1  0
M  END
>  <smiles>  (22) 
CC(C)[C@H](NC(=O)CNC(=O)c1ccc2ccccc2n1)c1ccccc1

>  <score_type>  (22) 
oracle

>  <origin>  (22) 
autodockgpu

>  <m_score__min__energy>  (22) 
-8.8300000000000001

>  <m_primary>  (22) 
energy

>  <rmsd>  (22) 
5.8039779141758725

>  <m_score__min__rmsd>  (22) 
5.8039779141758725

>  <meeko>  (22) 
{"free_energy": -7.86, "intermolecular_energy": -9.65, "internal_energy": -2.04, "cluster_size": 8, "cluster_id": 5, "rank_in_cluster": 3}

>  <energy>  (22) 
-8.25

>  <cluster_rmsd>  (22) 
1.58

>  <cluster>  (22) 
1

$$$$

     RDKit          3D

 50 52  0  0  0  0  0  0  0  0999 V2000
  143.8350   72.3340  220.8210 C   0  0  0  0  0  0  0  0  0  0  0  0
  144.3270   73.6130  220.1790 C   0  0  0  0  0  0  0  0  0  0  0  0
  145.6050   74.1040  220.7720 C   0  0  0  0  0  0  0  0  0  0  0  0
  143.2050   74.6480  220.3040 C   0  0  2  0  0  0  0  0  0  0  0  0
  141.9420   73.9530  220.4520 N   0  0  0  0  0  0  0  0  0  0  0  0
  140.7720   74.6110  220.8940 C   0  0  0  0  0  0  0  0  0  0  0  0
  140.8200   75.8430  221.1740 O   0  0  0  0  0  0  0  0  0  0  0  0
  139.5290   73.8060  221.0090 C   0  0  0  0  0  0  0  0  0  0  0  0
  139.4280   73.1450  222.2920 N   0  0  0  0  0  0  0  0  0  0  0  0
  140.1620   71.9410  222.4670 C   0  0  0  0  0  0  0  0  0  0  0  0
  140.8530   71.5390  221.4790 O   0  0  0  0  0  0  0  0  0  0  0  0
  140.1300   71.2050  223.7050 C   0  0  0  0  0  0  0  0  0  0  0  0
  139.5680   69.9410  223.7300 C   0  0  0  0  0  0  0  0  0  0  0  0
  139.5050   69.1860  224.8710 C   0  0  0  0  0  0  0  0  0  0  0  0
  140.0080   69.6780  226.0390 C   0  0  0  0  0  0  0  0  0  0  0  0
  139.9360   68.9110  227.1700 C   0  0  0  0  0  0  0  0  0  0  0  0
  140.4440   69.4190  228.3350 C   0  0  0  0  0  0  0  0  0  0  0  0
  141.0100   70.6750  228.3400 C   0  0  0  0  0  0  0  0  0  0  0  0
  141.0840   71.4590  227.1880 C   0  0  0  0  0  0  0  0  0  0  0  0
  140.5680   70.9430  226.0120 C   0  0  0  0  0  0  0  0  0  0  0  0
  140.6190   71.6690  224.8730 N   0  0  0  0  0  0  0  0  0  0  0  0
  143.2180   75.6280  219.2150 C   0  0  0  0  0  0  0  0  0  0  0  0
  143.6110   75.1720  217.9540 C   0  0  0  0  0  0  0  0  0  0  0  0
  143.6530   76.0320  216.8640 C   0  0  0  0  0  0  0  0  0  0  0  0
  143.3030   77.3800  217.0010 C   0  0  0  0  0  0  0  0  0  0  0  0
  142.9200   77.8010  218.2560 C   0  0  0  0  0  0  0  0  0  0  0  0
  142.8760   76.9530  219.3450 C   0  0  0  0  0  0  0  0  0  0  0  0
  143.8738   72.4347  221.9157 H   0  0  0  0  0  0  0  0  0  0  0  0
  142.7986   72.1412  220.5070 H   0  0  0  0  0  0  0  0  0  0  0  0
  144.4751   71.4963  220.5070 H   0  0  0  0  0  0  0  0  0  0  0  0
  144.5626   73.4259  219.1209 H   0  0  0  0  0  0  0  0  0  0  0  0
  145.5343   74.0768  221.8694 H   0  0  0  0  0  0  0  0  0  0  0  0
  146.4336   73.4602  220.4419 H   0  0  0  0  0  0  0  0  0  0  0  0
  145.7894   75.1370  220.4419 H   0  0  0  0  0  0  0  0  0  0  0  0
  143.3674   75.2555  221.2066 H   0  0  0  0  0  0  0  0  0  0  0  0
  141.9090   72.9270  220.2160 H   0  0  0  0  0  0  0  0  0  0  0  0
  138.6621   74.4713  220.8831 H   0  0  0  0  0  0  0  0  0  0  0  0
  139.5527   73.0312  220.2286 H   0  0  0  0  0  0  0  0  0  0  0  0
  138.8370   73.5270  223.0760 H   0  0  0  0  0  0  0  0  0  0  0  0
  139.1561   69.5266  222.7980 H   0  0  0  0  0  0  0  0  0  0  0  0
  139.0497   68.1850  224.8452 H   0  0  0  0  0  0  0  0  0  0  0  0
  139.4807   67.9100  227.1435 H   0  0  0  0  0  0  0  0  0  0  0  0
  140.4006   68.8280  229.2617 H   0  0  0  0  0  0  0  0  0  0  0  0
  141.4164   71.0724  229.2818 H   0  0  0  0  0  0  0  0  0  0  0  0
  141.5400   72.4597  227.2139 H   0  0  0  0  0  0  0  0  0  0  0  0
  143.8912   74.1164  217.8226 H   0  0  0  0  0  0  0  0  0  0  0  0
  143.9651   75.6488  215.8813 H   0  0  0  0  0  0  0  0  0  0  0  0
  143.3323   78.0717  216.1462 H   0  0  0  0  0  0  0  0  0  0  0  0
  142.6380   78.8550  218.3960 H   0  0  0  0  0  0  0  0  0  0  0  0
  142.5643   77.3415  220.3258 H   0  0  0  0  0  0  0  0  0  0  0  0
  1  2  1  0
  2  3  1  0
  2  4  1  0
  4  5  1  0
  5  6  1  0
  6  7  2  0
  6  8  1  0
  8  9  1  0
  9 10  1  0
 10 11  2  0
 10 12  1  0
 12 13  2  0
 13 14  1  0
 14 15  2  0
 15 16  1  0
 16 17  2  0
 17 18  1  0
 18 19  2  0
 19 20  1  0
 20 21  2  0
  4 22  1  0
 22 23  2  0
 23 24  1  0
 24 25  2  0
 25 26  1  0
 26 27  2  0
 21 12  1  0
 27 22  1  0
 20 15  1  0
  1 28  1  0
  1 29  1  0
  1 30  1  0
  2 31  1  0
  3 32  1  0
  3 33  1  0
  3 34  1  0
  4 35  1  1
  5 36  1  0
  8 37  1  0
  8 38  1  0
  9 39  1  0
 13 40  1  0
 14 41  1  0
 16 42  1  0
 17 43  1  0
 18 44  1  0
 19 45  1  0
 23 46  1  0
 24 47  1  0
 25 48  1  0
 26 49  1  0
 27 50  1  0
M  END
>  <smiles>  (23) 
CC(C)[C@H](NC(=O)CNC(=O)c1ccc2ccccc2n1)c1ccccc1

>  <score_type>  (23) 
oracle

>  <origin>  (23) 
autodockgpu

>  <m_score__min__energy>  (23) 
-8.8300000000000001

>  <m_primary>  (23) 
energy

>  <rmsd>  (23) 
5.491138712155839

>  <m_score__min__rmsd>  (23) 
5.491138712155839

>  <meeko>  (23) 
{"free_energy": -8.03, "intermolecular_energy": -9.82, "internal_energy": -2.0, "cluster_size": 11, "cluster_id": 4, "rank_in_cluster": 6}

>  <energy>  (23) 
-8.23

>  <cluster_rmsd>  (23) 
1.6

>  <cluster>  (23) 
1

$$$$

     RDKit          3D

 50 52  0  0  0  0  0  0  0  0999 V2000
  143.7790   72.3770  220.8060 C   0  0  0  0  0  0  0  0  0  0  0  0
  144.2740   73.6650  220.1820 C   0  0  0  0  0  0  0  0  0  0  0  0
  145.5530   74.1440  220.7820 C   0  0  0  0  0  0  0  0  0  0  0  0
  143.1530   74.7000  220.3230 C   0  0  2  0  0  0  0  0  0  0  0  0
  141.8870   74.0050  220.4430 N   0  0  0  0  0  0  0  0  0  0  0  0
  140.7390   74.6280  220.9830 C   0  0  0  0  0  0  0  0  0  0  0  0
  140.8100   75.8270  221.3780 O   0  0  0  0  0  0  0  0  0  0  0  0
  139.4910   73.8270  221.0590 C   0  0  0  0  0  0  0  0  0  0  0  0
  139.3710   73.1280  222.3210 N   0  0  0  0  0  0  0  0  0  0  0  0
  140.1790   71.9750  222.5080 C   0  0  0  0  0  0  0  0  0  0  0  0
  140.9470   71.6470  221.5500 O   0  0  0  0  0  0  0  0  0  0  0  0
  140.1360   71.2070  223.7270 C   0  0  0  0  0  0  0  0  0  0  0  0
  139.5530   69.9520  223.7190 C   0  0  0  0  0  0  0  0  0  0  0  0
  139.4780   69.1700  224.8410 C   0  0  0  0  0  0  0  0  0  0  0  0
  139.9900   69.6230  226.0200 C   0  0  0  0  0  0  0  0  0  0  0  0
  139.9070   68.8270  227.1310 C   0  0  0  0  0  0  0  0  0  0  0  0
  140.4250   69.2960  228.3080 C   0  0  0  0  0  0  0  0  0  0  0  0
  141.0110   70.5420  228.3450 C   0  0  0  0  0  0  0  0  0  0  0  0
  141.0970   71.3550  227.2140 C   0  0  0  0  0  0  0  0  0  0  0  0
  140.5720   70.8780  226.0250 C   0  0  0  0  0  0  0  0  0  0  0  0
  140.6340   71.6330  224.9050 N   0  0  0  0  0  0  0  0  0  0  0  0
  143.1790   75.7060  219.2570 C   0  0  0  0  0  0  0  0  0  0  0  0
  143.5820   75.2790  217.9900 C   0  0  0  0  0  0  0  0  0  0  0  0
  143.6360   76.1650  216.9210 C   0  0  0  0  0  0  0  0  0  0  0  0
  143.2880   77.5100  217.0870 C   0  0  0  0  0  0  0  0  0  0  0  0
  142.8950   77.9020  218.3490 C   0  0  0  0  0  0  0  0  0  0  0  0
  142.8380   77.0280  219.4170 C   0  0  0  0  0  0  0  0  0  0  0  0
  143.8125   72.4640  221.9020 H   0  0  0  0  0  0  0  0  0  0  0  0
  142.7441   72.1879  220.4846 H   0  0  0  0  0  0  0  0  0  0  0  0
  144.4209   71.5435  220.4846 H   0  0  0  0  0  0  0  0  0  0  0  0
  144.5094   73.4940  219.1212 H   0  0  0  0  0  0  0  0  0  0  0  0
  145.4767   74.1154  221.8790 H   0  0  0  0  0  0  0  0  0  0  0  0
  146.3777   73.4938  220.4547 H   0  0  0  0  0  0  0  0  0  0  0  0
  145.7477   75.1760  220.4547 H   0  0  0  0  0  0  0  0  0  0  0  0
  143.3080   75.2849  221.2416 H   0  0  0  0  0  0  0  0  0  0  0  0
  141.8350   73.0070  220.1120 H   0  0  0  0  0  0  0  0  0  0  0  0
  138.6291   74.5006  220.9428 H   0  0  0  0  0  0  0  0  0  0  0  0
  139.5201   73.0757  220.2560 H   0  0  0  0  0  0  0  0  0  0  0  0
  138.7150   73.4480  223.0790 H   0  0  0  0  0  0  0  0  0  0  0  0
  139.1344   69.5683  222.7769 H   0  0  0  0  0  0  0  0  0  0  0  0
  139.0053   68.1780  224.7906 H   0  0  0  0  0  0  0  0  0  0  0  0
  139.4354   67.8346  227.0789 H   0  0  0  0  0  0  0  0  0  0  0  0
  140.3736   68.6815  229.2189 H   0  0  0  0  0  0  0  0  0  0  0  0
  141.4244   70.9079  229.2964 H   0  0  0  0  0  0  0  0  0  0  0  0
  141.5688   72.3473  227.2658 H   0  0  0  0  0  0  0  0  0  0  0  0
  143.8607   74.2261  217.8360 H   0  0  0  0  0  0  0  0  0  0  0  0
  143.9562   75.8046  215.9323 H   0  0  0  0  0  0  0  0  0  0  0  0
  143.3262   78.2218  216.2492 H   0  0  0  0  0  0  0  0  0  0  0  0
  142.6155   78.9534  218.5119 H   0  0  0  0  0  0  0  0  0  0  0  0
  142.5170   77.3929  220.4038 H   0  0  0  0  0  0  0  0  0  0  0  0
  1  2  1  0
  2  3  1  0
  2  4  1  0
  4  5  1  0
  5  6  1  0
  6  7  2  0
  6  8  1  0
  8  9  1  0
  9 10  1  0
 10 11  2  0
 10 12  1  0
 12 13  2  0
 13 14  1  0
 14 15  2  0
 15 16  1  0
 16 17  2  0
 17 18  1  0
 18 19  2  0
 19 20  1  0
 20 21  2  0
  4 22  1  0
 22 23  2  0
 23 24  1  0
 24 25  2  0
 25 26  1  0
 26 27  2  0
 21 12  1  0
 27 22  1  0
 20 15  1  0
  1 28  1  0
  1 29  1  0
  1 30  1  0
  2 31  1  0
  3 32  1  0
  3 33  1  0
  3 34  1  0
  4 35  1  1
  5 36  1  0
  8 37  1  0
  8 38  1  0
  9 39  1  0
 13 40  1  0
 14 41  1  0
 16 42  1  0
 17 43  1  0
 18 44  1  0
 19 45  1  0
 23 46  1  0
 24 47  1  0
 25 48  1  0
 26 49  1  0
 27 50  1  0
M  END
>  <smiles>  (24) 
CC(C)[C@H](NC(=O)CNC(=O)c1ccc2ccccc2n1)c1ccccc1

>  <score_type>  (24) 
oracle

>  <origin>  (24) 
autodockgpu

>  <m_score__min__energy>  (24) 
-8.8300000000000001

>  <m_primary>  (24) 
energy

>  <rmsd>  (24) 
5.442109109333187

>  <m_score__min__rmsd>  (24) 
5.442109109333187

>  <meeko>  (24) 
{"free_energy": -8.03, "intermolecular_energy": -9.82, "internal_energy": -2.01, "cluster_size": 11, "cluster_id": 4, "rank_in_cluster": 7}

>  <energy>  (24) 
-8.69

>  <cluster_rmsd>  (24) 
0.0

>  <cluster>  (24) 
2

$$$$

     RDKit          3D

 50 52  0  0  0  0  0  0  0  0999 V2000
  143.6600   72.1480  220.8110 C   0  0  0  0  0  0  0  0  0  0  0  0
  144.3890   73.2840  220.1260 C   0  0  0  0  0  0  0  0  0  0  0  0
  145.6090   73.7180  220.8660 C   0  0  0  0  0  0  0  0  0  0  0  0
  143.3870   74.4310  219.9550 C   0  0  2  0  0  0  0  0  0  0  0  0
  142.0490   73.9220  220.1860 N   0  0  0  0  0  0  0  0  0  0  0  0
  141.0460   74.7060  220.8000 C   0  0  0  0  0  0  0  0  0  0  0  0
  141.3140   75.8860  221.1630 O   0  0  0  0  0  0  0  0  0  0  0  0
  139.7080   74.0880  220.9880 C   0  0  0  0  0  0  0  0  0  0  0  0
  139.5900   73.4310  222.2720 N   0  0  0  0  0  0  0  0  0  0  0  0
  140.2160   72.1650  222.4190 C   0  0  0  0  0  0  0  0  0  0  0  0
  140.8350   71.7080  221.4070 O   0  0  0  0  0  0  0  0  0  0  0  0
  140.1590   71.4280  223.6550 C   0  0  0  0  0  0  0  0  0  0  0  0
  139.6010   70.1610  223.6660 C   0  0  0  0  0  0  0  0  0  0  0  0
  139.5140   69.4060  224.8050 C   0  0  0  0  0  0  0  0  0  0  0  0
  139.9880   69.8990  225.9840 C   0  0  0  0  0  0  0  0  0  0  0  0
  139.8940   69.1300  227.1120 C   0  0  0  0  0  0  0  0  0  0  0  0
  140.3730   69.6380  228.2890 C   0  0  0  0  0  0  0  0  0  0  0  0
  140.9340   70.8970  228.3090 C   0  0  0  0  0  0  0  0  0  0  0  0
  141.0310   71.6820  227.1600 C   0  0  0  0  0  0  0  0  0  0  0  0
  140.5450   71.1650  225.9710 C   0  0  0  0  0  0  0  0  0  0  0  0
  140.6200   71.8930  224.8340 N   0  0  0  0  0  0  0  0  0  0  0  0
  143.5430   75.1290  218.6760 C   0  0  0  0  0  0  0  0  0  0  0  0
  143.1430   76.4670  218.6280 C   0  0  0  0  0  0  0  0  0  0  0  0
  143.2560   77.2050  217.4560 C   0  0  0  0  0  0  0  0  0  0  0  0
  143.7730   76.6260  216.2920 C   0  0  0  0  0  0  0  0  0  0  0  0
  144.1590   75.3050  216.3700 C   0  0  0  0  0  0  0  0  0  0  0  0
  144.0500   74.5640  217.5300 C   0  0  0  0  0  0  0  0  0  0  0  0
  143.7369   72.2678  221.9018 H   0  0  0  0  0  0  0  0  0  0  0  0
  142.6008   72.1604  220.5145 H   0  0  0  0  0  0  0  0  0  0  0  0
  144.1126   71.1902  220.5145 H   0  0  0  0  0  0  0  0  0  0  0  0
  144.7601   72.9462  219.1472 H   0  0  0  0  0  0  0  0  0  0  0  0
  145.4241   73.6522  221.9484 H   0  0  0  0  0  0  0  0  0  0  0  0
  146.4524   73.0647  220.5977 H   0  0  0  0  0  0  0  0  0  0  0  0
  145.8503   74.7571  220.5977 H   0  0  0  0  0  0  0  0  0  0  0  0
  143.5897   75.2086  220.7062 H   0  0  0  0  0  0  0  0  0  0  0  0
  141.8330   72.9380  219.8810 H   0  0  0  0  0  0  0  0  0  0  0  0
  138.9411   74.8736  220.9192 H   0  0  0  0  0  0  0  0  0  0  0  0
  139.5712   73.3287  220.2039 H   0  0  0  0  0  0  0  0  0  0  0  0
  139.0620   73.8610  223.0760 H   0  0  0  0  0  0  0  0  0  0  0  0
  139.2130   69.7453  222.7244 H   0  0  0  0  0  0  0  0  0  0  0  0
  139.0625   68.4036  224.7686 H   0  0  0  0  0  0  0  0  0  0  0  0
  139.4440   68.1270  227.0736 H   0  0  0  0  0  0  0  0  0  0  0  0
  140.3107   69.0452  229.2135 H   0  0  0  0  0  0  0  0  0  0  0  0
  141.3170   71.2949  229.2603 H   0  0  0  0  0  0  0  0  0  0  0  0
  141.4815   72.6848  227.1975 H   0  0  0  0  0  0  0  0  0  0  0  0
  142.7328   76.9429  219.5309 H   0  0  0  0  0  0  0  0  0  0  0  0
  142.9351   78.2571  217.4433 H   0  0  0  0  0  0  0  0  0  0  0  0
  143.8671   77.1986  215.3575 H   0  0  0  0  0  0  0  0  0  0  0  0
  144.5705   74.8216  215.4717 H   0  0  0  0  0  0  0  0  0  0  0  0
  144.3718   73.5121  217.5371 H   0  0  0  0  0  0  0  0  0  0  0  0
  1  2  1  0
  2  3  1  0
  2  4  1  0
  4  5  1  0
  5  6  1  0
  6  7  2  0
  6  8  1  0
  8  9  1  0
  9 10  1  0
 10 11  2  0
 10 12  1  0
 12 13  2  0
 13 14  1  0
 14 15  2  0
 15 16  1  0
 16 17  2  0
 17 18  1  0
 18 19  2  0
 19 20  1  0
 20 21  2  0
  4 22  1  0
 22 23  2  0
 23 24  1  0
 24 25  2  0
 25 26  1  0
 26 27  2  0
 21 12  1  0
 27 22  1  0
 20 15  1  0
  1 28  1  0
  1 29  1  0
  1 30  1  0
  2 31  1  0
  3 32  1  0
  3 33  1  0
  3 34  1  0
  4 35  1  1
  5 36  1  0
  8 37  1  0
  8 38  1  0
  9 39  1  0
 13 40  1  0
 14 41  1  0
 16 42  1  0
 17 43  1  0
 18 44  1  0
 19 45  1  0
 23 46  1  0
 24 47  1  0
 25 48  1  0
 26 49  1  0
 27 50  1  0
M  END
>  <smiles>  (25) 
CC(C)[C@H](NC(=O)CNC(=O)c1ccc2ccccc2n1)c1ccccc1

>  <score_type>  (25) 
oracle

>  <origin>  (25) 
autodockgpu

>  <m_score__min__energy>  (25) 
-8.8300000000000001

>  <m_primary>  (25) 
energy

>  <rmsd>  (25) 
5.8539701692169075

>  <m_score__min__rmsd>  (25) 
5.8539701692169075

>  <meeko>  (25) 
{"free_energy": -7.83, "intermolecular_energy": -9.62, "internal_energy": -2.04, "cluster_size": 8, "cluster_id": 5, "rank_in_cluster": 5}

>  <energy>  (25) 
-8.5

>  <cluster_rmsd>  (25) 
0.0

>  <cluster>  (25) 
3

$$$$

     RDKit          3D

 50 52  0  0  0  0  0  0  0  0999 V2000
  140.9790   68.0650  227.4270 C   0  0  0  0  0  0  0  0  0  0  0  0
  139.7190   67.8950  226.6040 C   0  0  0  0  0  0  0  0  0  0  0  0
  139.9390   67.0850  225.3710 C   0  0  0  0  0  0  0  0  0  0  0  0
  139.1940   69.2970  226.2800 C   0  0  2  0  0  0  0  0  0  0  0  0
  139.0140   69.4100  224.8470 N   0  0  0  0  0  0  0  0  0  0  0  0
  137.7750   69.7770  224.2740 C   0  0  0  0  0  0  0  0  0  0  0  0
  136.7880   70.0150  225.0270 O   0  0  0  0  0  0  0  0  0  0  0  0
  137.6990   69.8640  222.7940 C   0  0  0  0  0  0  0  0  0  0  0  0
  138.1640   71.1430  222.3010 N   0  0  0  0  0  0  0  0  0  0  0  0
  139.5550   71.4150  222.3990 C   0  0  0  0  0  0  0  0  0  0  0  0
  140.2840   70.5090  222.9130 O   0  0  0  0  0  0  0  0  0  0  0  0
  140.1210   72.6570  221.9380 C   0  0  0  0  0  0  0  0  0  0  0  0
  141.1650   72.6320  221.0300 C   0  0  0  0  0  0  0  0  0  0  0  0
  141.7500   73.7740  220.5510 C   0  0  0  0  0  0  0  0  0  0  0  0
  141.3030   74.9920  220.9690 C   0  0  0  0  0  0  0  0  0  0  0  0
  141.8990   76.1230  220.4790 C   0  0  0  0  0  0  0  0  0  0  0  0
  141.4400   77.3390  220.9090 C   0  0  0  0  0  0  0  0  0  0  0  0
  140.4010   77.3950  221.8130 C   0  0  0  0  0  0  0  0  0  0  0  0
  139.7930   76.2430  222.3130 C   0  0  0  0  0  0  0  0  0  0  0  0
  140.2590   75.0140  221.8770 C   0  0  0  0  0  0  0  0  0  0  0  0
  139.6980   73.8730  222.3360 N   0  0  0  0  0  0  0  0  0  0  0  0
  140.0250   70.3570  226.8590 C   0  0  0  0  0  0  0  0  0  0  0  0
  140.9790   70.9440  226.0240 C   0  0  0  0  0  0  0  0  0  0  0  0
  141.8090   71.9560  226.4900 C   0  0  0  0  0  0  0  0  0  0  0  0
  141.7120   72.4140  227.8080 C   0  0  0  0  0  0  0  0  0  0  0  0
  140.7610   71.8150  228.6080 C   0  0  0  0  0  0  0  0  0  0  0  0
  139.9320   70.8090  228.1540 C   0  0  0  0  0  0  0  0  0  0  0  0
  140.7256   68.0308  228.4969 H   0  0  0  0  0  0  0  0  0  0  0  0
  141.6834   67.2538  227.1909 H   0  0  0  0  0  0  0  0  0  0  0  0
  141.4432   69.0339  227.1909 H   0  0  0  0  0  0  0  0  0  0  0  0
  138.9745   67.3284  227.1826 H   0  0  0  0  0  0  0  0  0  0  0  0
  140.2178   66.0585  225.6515 H   0  0  0  0  0  0  0  0  0  0  0  0
  139.0140   67.0641  224.7761 H   0  0  0  0  0  0  0  0  0  0  0  0
  140.7475   67.5350  224.7761 H   0  0  0  0  0  0  0  0  0  0  0  0
  138.2135   69.4397  226.7578 H   0  0  0  0  0  0  0  0  0  0  0  0
  139.8400   69.2110  224.2250 H   0  0  0  0  0  0  0  0  0  0  0  0
  138.3216   69.0682  222.3591 H   0  0  0  0  0  0  0  0  0  0  0  0
  136.6450   69.7499  222.5008 H   0  0  0  0  0  0  0  0  0  0  0  0
  137.5100   71.8550  221.8830 H   0  0  0  0  0  0  0  0  0  0  0  0
  141.5390   71.6586  220.6799 H   0  0  0  0  0  0  0  0  0  0  0  0
  142.5787   73.7084  219.8306 H   0  0  0  0  0  0  0  0  0  0  0  0
  142.7265   76.0563  219.7574 H   0  0  0  0  0  0  0  0  0  0  0  0
  141.8980   78.2666  220.5350 H   0  0  0  0  0  0  0  0  0  0  0  0
  140.0402   78.3778  222.1505 H   0  0  0  0  0  0  0  0  0  0  0  0
  138.9653   76.3093  223.0345 H   0  0  0  0  0  0  0  0  0  0  0  0
  141.0743   70.6002  224.9835 H   0  0  0  0  0  0  0  0  0  0  0  0
  142.5523   72.4030  225.8135 H   0  0  0  0  0  0  0  0  0  0  0  0
  142.3635   73.2143  228.1888 H   0  0  0  0  0  0  0  0  0  0  0  0
  140.6592   72.1528  229.6499 H   0  0  0  0  0  0  0  0  0  0  0  0
  139.1904   70.3650  228.8344 H   0  0  0  0  0  0  0  0  0  0  0  0
  1  2  1  0
  2  3  1  0
  2  4  1  0
  4  5  1  0
  5  6  1  0
  6  7  2  0
  6  8  1  0
  8  9  1  0
  9 10  1  0
 10 11  2  0
 10 12  1  0
 12 13  2  0
 13 14  1  0
 14 15  2  0
 15 16  1  0
 16 17  2  0
 17 18  1  0
 18 19  2  0
 19 20  1  0
 20 21  2  0
  4 22  1  0
 22 23  2  0
 23 24  1  0
 24 25  2  0
 25 26  1  0
 26 27  2  0
 21 12  1  0
 27 22  1  0
 20 15  1  0
  1 28  1  0
  1 29  1  0
  1 30  1  0
  2 31  1  0
  3 32  1  0
  3 33  1  0
  3 34  1  0
  4 35  1  1
  5 36  1  0
  8 37  1  0
  8 38  1  0
  9 39  1  0
 13 40  1  0
 14 41  1  0
 16 42  1  0
 17 43  1  0
 18 44  1  0
 19 45  1  0
 23 46  1  0
 24 47  1  0
 25 48  1  0
 26 49  1  0
 27 50  1  0
M  END
>  <smiles>  (26) 
CC(C)[C@H](NC(=O)CNC(=O)c1ccc2ccccc2n1)c1ccccc1

>  <score_type>  (26) 
oracle

>  <origin>  (26) 
autodockgpu

>  <m_score__min__energy>  (26) 
-8.8300000000000001

>  <m_primary>  (26) 
energy

>  <rmsd>  (26) 
9.714843134029396

>  <m_score__min__rmsd>  (26) 
9.714843134029396

>  <meeko>  (26) 
{"free_energy": -7.42, "intermolecular_energy": -9.21, "internal_energy": -2.13, "cluster_size": 2, "cluster_id": 6, "rank_in_cluster": 2}

>  <energy>  (26) 
-8.33

>  <cluster_rmsd>  (26) 
0.29

>  <cluster>  (26) 
3

$$$$

     RDKit          3D

 50 52  0  0  0  0  0  0  0  0999 V2000
  138.8150   77.3090  222.6990 C   0  0  0  0  0  0  0  0  0  0  0  0
  140.2090   76.8290  222.3520 C   0  0  0  0  0  0  0  0  0  0  0  0
  141.1140   77.9370  221.9300 C   0  0  0  0  0  0  0  0  0  0  0  0
  140.0650   75.7620  221.2610 C   0  0  2  0  0  0  0  0  0  0  0  0
  139.1100   74.7660  221.7050 N   0  0  0  0  0  0  0  0  0  0  0  0
  138.5600   73.8110  220.8200 C   0  0  0  0  0  0  0  0  0  0  0  0
  138.9040   73.8190  219.6030 O   0  0  0  0  0  0  0  0  0  0  0  0
  137.5910   72.8330  221.3770 C   0  0  0  0  0  0  0  0  0  0  0  0
  137.9670   72.3910  222.7020 N   0  0  0  0  0  0  0  0  0  0  0  0
  139.1470   71.6080  222.8210 C   0  0  0  0  0  0  0  0  0  0  0  0
  139.7820   71.3570  221.7480 O   0  0  0  0  0  0  0  0  0  0  0  0
  139.6090   71.1180  224.0940 C   0  0  0  0  0  0  0  0  0  0  0  0
  140.5170   71.8680  224.8210 C   0  0  0  0  0  0  0  0  0  0  0  0
  140.9990   71.4620  226.0380 C   0  0  0  0  0  0  0  0  0  0  0  0
  140.5820   70.2790  226.5720 C   0  0  0  0  0  0  0  0  0  0  0  0
  141.0730   69.8890  227.7890 C   0  0  0  0  0  0  0  0  0  0  0  0
  140.6460   68.6990  228.3120 C   0  0  0  0  0  0  0  0  0  0  0  0
  139.7420   67.9310  227.6110 C   0  0  0  0  0  0  0  0  0  0  0  0
  139.2400   68.3270  226.3700 C   0  0  0  0  0  0  0  0  0  0  0  0
  139.6740   69.5320  225.8430 C   0  0  0  0  0  0  0  0  0  0  0  0
  139.2130   69.9520  224.6440 N   0  0  0  0  0  0  0  0  0  0  0  0
  141.3550   75.2040  220.8470 C   0  0  0  0  0  0  0  0  0  0  0  0
  141.6470   73.9020  221.2590 C   0  0  0  0  0  0  0  0  0  0  0  0
  142.8470   73.2940  220.9110 C   0  0  0  0  0  0  0  0  0  0  0  0
  143.7960   73.9720  220.1380 C   0  0  0  0  0  0  0  0  0  0  0  0
  143.4800   75.2560  219.7470 C   0  0  0  0  0  0  0  0  0  0  0  0
  142.2900   75.8670  220.0880 C   0  0  0  0  0  0  0  0  0  0  0  0
  138.7022   77.3478  223.7925 H   0  0  0  0  0  0  0  0  0  0  0  0
  138.6576   78.3131  222.2783 H   0  0  0  0  0  0  0  0  0  0  0  0
  138.0728   76.6147  222.2783 H   0  0  0  0  0  0  0  0  0  0  0  0
  140.6857   76.4037  223.2475 H   0  0  0  0  0  0  0  0  0  0  0  0
  141.5221   78.4366  222.8210 H   0  0  0  0  0  0  0  0  0  0  0  0
  141.9393   77.5276  221.3289 H   0  0  0  0  0  0  0  0  0  0  0  0
  140.5481   78.6639  221.3289 H   0  0  0  0  0  0  0  0  0  0  0  0
  139.6717   76.2255  220.3442 H   0  0  0  0  0  0  0  0  0  0  0  0
  138.8290   74.7640  222.7190 H   0  0  0  0  0  0  0  0  0  0  0  0
  136.5992   73.3060  221.4287 H   0  0  0  0  0  0  0  0  0  0  0  0
  137.5789   71.9534  220.7165 H   0  0  0  0  0  0  0  0  0  0  0  0
  137.4000   72.6310  223.5560 H   0  0  0  0  0  0  0  0  0  0  0  0
  140.8648   72.8257  224.4065 H   0  0  0  0  0  0  0  0  0  0  0  0
  141.7204   72.0890  226.5825 H   0  0  0  0  0  0  0  0  0  0  0  0
  141.7935   70.5173  228.3333 H   0  0  0  0  0  0  0  0  0  0  0  0
  141.0226   68.3571  229.2873 H   0  0  0  0  0  0  0  0  0  0  0  0
  139.4056   66.9767  228.0424 H   0  0  0  0  0  0  0  0  0  0  0  0
  138.5194   67.6991  225.8256 H   0  0  0  0  0  0  0  0  0  0  0  0
  140.9163   73.3496  221.8680 H   0  0  0  0  0  0  0  0  0  0  0  0
  143.0534   72.2672  221.2473 H   0  0  0  0  0  0  0  0  0  0  0  0
  144.7498   73.5026  219.8554 H   0  0  0  0  0  0  0  0  0  0  0  0
  144.2055   75.8161  219.1387 H   0  0  0  0  0  0  0  0  0  0  0  0
  142.0880   76.8939  219.7493 H   0  0  0  0  0  0  0  0  0  0  0  0
  1  2  1  0
  2  3  1  0
  2  4  1  0
  4  5  1  0
  5  6  1  0
  6  7  2  0
  6  8  1  0
  8  9  1  0
  9 10  1  0
 10 11  2  0
 10 12  1  0
 12 13  2  0
 13 14  1  0
 14 15  2  0
 15 16  1  0
 16 17  2  0
 17 18  1  0
 18 19  2  0
 19 20  1  0
 20 21  2  0
  4 22  1  0
 22 23  2  0
 23 24  1  0
 24 25  2  0
 25 26  1  0
 26 27  2  0
 21 12  1  0
 27 22  1  0
 20 15  1  0
  1 28  1  0
  1 29  1  0
  1 30  1  0
  2 31  1  0
  3 32  1  0
  3 33  1  0
  3 34  1  0
  4 35  1  6
  5 36  1  0
  8 37  1  0
  8 38  1  0
  9 39  1  0
 13 40  1  0
 14 41  1  0
 16 42  1  0
 17 43  1  0
 18 44  1  0
 19 45  1  0
 23 46  1  0
 24 47  1  0
 25 48  1  0
 26 49  1  0
 27 50  1  0
M  END
>  <smiles>  (27) 
CC(C)[C@H](NC(=O)CNC(=O)c1ccc2ccccc2n1)c1ccccc1

>  <score_type>  (27) 
oracle

>  <origin>  (27) 
autodockgpu

>  <m_score__min__energy>  (27) 
-8.8300000000000001

>  <m_primary>  (27) 
energy

>  <rmsd>  (27) 
5.448430472946393

>  <m_score__min__rmsd>  (27) 
5.448430472946393

>  <meeko>  (27) 
{"free_energy": -7.85, "intermolecular_energy": -9.64, "internal_energy": -1.57, "cluster_size": 11, "cluster_id": 4, "rank_in_cluster": 9}

>  <energy>  (27) 
-7.81

>  <cluster_rmsd>  (27) 
1.14

>  <cluster>  (27) 
3

$$$$

     RDKit          3D

 50 52  0  0  0  0  0  0  0  0999 V2000
  143.5340   71.9770  220.8590 C   0  0  0  0  0  0  0  0  0  0  0  0
  143.9970   73.2610  220.2050 C   0  0  0  0  0  0  0  0  0  0  0  0
  145.3240   73.7200  220.7090 C   0  0  0  0  0  0  0  0  0  0  0  0
  142.9050   74.3100  220.4350 C   0  0  2  0  0  0  0  0  0  0  0  0
  141.6290   73.6350  220.5710 N   0  0  0  0  0  0  0  0  0  0  0  0
  140.5280   74.2390  221.2200 C   0  0  0  0  0  0  0  0  0  0  0  0
  140.6510   75.4010  221.7010 O   0  0  0  0  0  0  0  0  0  0  0  0
  139.2660   73.4610  221.3030 C   0  0  0  0  0  0  0  0  0  0  0  0
  139.1850   72.6870  222.5230 N   0  0  0  0  0  0  0  0  0  0  0  0
  139.9860   71.5170  222.6100 C   0  0  0  0  0  0  0  0  0  0  0  0
  140.7150   71.2420  221.6050 O   0  0  0  0  0  0  0  0  0  0  0  0
  139.9800   70.6760  223.7800 C   0  0  0  0  0  0  0  0  0  0  0  0
  139.3910   69.4260  223.7150 C   0  0  0  0  0  0  0  0  0  0  0  0
  139.3490   68.5770  224.7890 C   0  0  0  0  0  0  0  0  0  0  0  0
  139.9030   68.9550  225.9750 C   0  0  0  0  0  0  0  0  0  0  0  0
  139.8520   68.0940  227.0380 C   0  0  0  0  0  0  0  0  0  0  0  0
  140.4110   68.4880  228.2230 C   0  0  0  0  0  0  0  0  0  0  0  0
  141.0050   69.7280  228.3170 C   0  0  0  0  0  0  0  0  0  0  0  0
  141.0570   70.6080  227.2350 C   0  0  0  0  0  0  0  0  0  0  0  0
  140.4900   70.2060  226.0380 C   0  0  0  0  0  0  0  0  0  0  0  0
  140.5190   71.0280  224.9650 N   0  0  0  0  0  0  0  0  0  0  0  0
  142.9120   75.3640  219.4160 C   0  0  0  0  0  0  0  0  0  0  0  0
  142.9180   74.9560  218.0800 C   0  0  0  0  0  0  0  0  0  0  0  0
  142.9250   75.8870  217.0490 C   0  0  0  0  0  0  0  0  0  0  0  0
  142.9280   77.2600  217.3230 C   0  0  0  0  0  0  0  0  0  0  0  0
  142.9230   77.6310  218.6510 C   0  0  0  0  0  0  0  0  0  0  0  0
  142.9150   76.7130  219.6810 C   0  0  0  0  0  0  0  0  0  0  0  0
  143.5738   72.0875  221.9527 H   0  0  0  0  0  0  0  0  0  0  0  0
  142.5009   71.7598  220.5498 H   0  0  0  0  0  0  0  0  0  0  0  0
  144.1907   71.1505  220.5498 H   0  0  0  0  0  0  0  0  0  0  0  0
  144.1484   73.0923  219.1286 H   0  0  0  0  0  0  0  0  0  0  0  0
  145.3190   73.7183  221.8090 H   0  0  0  0  0  0  0  0  0  0  0  0
  146.1093   73.0413  220.3448 H   0  0  0  0  0  0  0  0  0  0  0  0
  145.5221   74.7389  220.3448 H   0  0  0  0  0  0  0  0  0  0  0  0
  143.1075   74.8484  221.3726 H   0  0  0  0  0  0  0  0  0  0  0  0
  141.5340   72.6670  220.1670 H   0  0  0  0  0  0  0  0  0  0  0  0
  138.4160   74.1584  221.2679 H   0  0  0  0  0  0  0  0  0  0  0  0
  139.2422   72.7612  220.4547 H   0  0  0  0  0  0  0  0  0  0  0  0
  138.5610   72.9650  223.3240 H   0  0  0  0  0  0  0  0  0  0  0  0
  138.9397   69.1019  222.7657 H   0  0  0  0  0  0  0  0  0  0  0  0
  138.8689   67.5919  224.6942 H   0  0  0  0  0  0  0  0  0  0  0  0
  139.3729   67.1085  226.9417 H   0  0  0  0  0  0  0  0  0  0  0  0
  140.3864   67.8188  229.0957 H   0  0  0  0  0  0  0  0  0  0  0  0
  141.4520   70.0336  229.2745 H   0  0  0  0  0  0  0  0  0  0  0  0
  141.5354   71.5939  227.3308 H   0  0  0  0  0  0  0  0  0  0  0  0
  142.9172   73.8823  217.8410 H   0  0  0  0  0  0  0  0  0  0  0  0
  142.9282   75.5413  216.0047 H   0  0  0  0  0  0  0  0  0  0  0  0
  142.9340   78.0079  216.5164 H   0  0  0  0  0  0  0  0  0  0  0  0
  142.9255   78.7026  218.8994 H   0  0  0  0  0  0  0  0  0  0  0  0
  142.9110   77.0637  220.7236 H   0  0  0  0  0  0  0  0  0  0  0  0
  1  2  1  0
  2  3  1  0
  2  4  1  0
  4  5  1  0
  5  6  1  0
  6  7  2  0
  6  8  1  0
  8  9  1  0
  9 10  1  0
 10 11  2  0
 10 12  1  0
 12 13  2  0
 13 14  1  0
 14 15  2  0
 15 16  1  0
 16 17  2  0
 17 18  1  0
 18 19  2  0
 19 20  1  0
 20 21  2  0
  4 22  1  0
 22 23  2  0
 23 24  1  0
 24 25  2  0
 25 26  1  0
 26 27  2  0
 21 12  1  0
 27 22  1  0
 20 15  1  0
  1 28  1  0
  1 29  1  0
  1 30  1  0
  2 31  1  0
  3 32  1  0
  3 33  1  0
  3 34  1  0
  4 35  1  1
  5 36  1  0
  8 37  1  0
  8 38  1  0
  9 39  1  0
 13 40  1  0
 14 41  1  0
 16 42  1  0
 17 43  1  0
 18 44  1  0
 19 45  1  0
 23 46  1  0
 24 47  1  0
 25 48  1  0
 26 49  1  0
 27 50  1  0
M  END
>  <smiles>  (28) 
CC(C)[C@H](NC(=O)CNC(=O)c1ccc2ccccc2n1)c1ccccc1

>  <score_type>  (28) 
oracle

>  <origin>  (28) 
autodockgpu

>  <m_score__min__energy>  (28) 
-8.8300000000000001

>  <m_primary>  (28) 
energy

>  <rmsd>  (28) 
5.556442164717055

>  <m_score__min__rmsd>  (28) 
5.556442164717055

>  <meeko>  (28) 
{"free_energy": -7.84, "intermolecular_energy": -9.63, "internal_energy": -2.04, "cluster_size": 11, "cluster_id": 4, "rank_in_cluster": 10}

>  <energy>  (28) 
-7.65

>  <cluster_rmsd>  (28) 
1.32

>  <cluster>  (28) 
3

$$$$

     RDKit          3D

 50 52  0  0  0  0  0  0  0  0999 V2000
  140.2620   79.3380  223.8280 C   0  0  0  0  0  0  0  0  0  0  0  0
  141.3430   78.5300  223.1430 C   0  0  0  0  0  0  0  0  0  0  0  0
  142.6020   79.3040  222.9390 C   0  0  0  0  0  0  0  0  0  0  0  0
  140.7640   78.0230  221.8180 C   0  0  2  0  0  0  0  0  0  0  0  0
  140.9780   76.5920  221.7310 N   0  0  0  0  0  0  0  0  0  0  0  0
  140.0660   75.7380  221.0710 C   0  0  0  0  0  0  0  0  0  0  0  0
  139.0290   76.2270  220.5390 O   0  0  0  0  0  0  0  0  0  0  0  0
  140.3810   74.2870  221.0380 C   0  0  0  0  0  0  0  0  0  0  0  0
  140.0740   73.6360  222.2940 N   0  0  0  0  0  0  0  0  0  0  0  0
  140.4850   72.2850  222.4470 C   0  0  0  0  0  0  0  0  0  0  0  0
  141.0930   71.7520  221.4660 O   0  0  0  0  0  0  0  0  0  0  0  0
  140.2300   71.5460  223.6570 C   0  0  0  0  0  0  0  0  0  0  0  0
  139.4580   70.3990  223.6030 C   0  0  0  0  0  0  0  0  0  0  0  0
  139.1750   69.6500  224.7140 C   0  0  0  0  0  0  0  0  0  0  0  0
  139.6640   70.0280  225.9290 C   0  0  0  0  0  0  0  0  0  0  0  0
  139.3720   69.2660  227.0290 C   0  0  0  0  0  0  0  0  0  0  0  0
  139.8680   69.6590  228.2430 C   0  0  0  0  0  0  0  0  0  0  0  0
  140.6410   70.7960  228.3270 C   0  0  0  0  0  0  0  0  0  0  0  0
  140.9390   71.5740  227.2070 C   0  0  0  0  0  0  0  0  0  0  0  0
  140.4350   71.1750  225.9810 C   0  0  0  0  0  0  0  0  0  0  0  0
  140.7000   71.8990  224.8710 N   0  0  0  0  0  0  0  0  0  0  0  0
  141.2670   78.7690  220.6610 C   0  0  0  0  0  0  0  0  0  0  0  0
  142.0370   78.0630  219.7350 C   0  0  0  0  0  0  0  0  0  0  0  0
  142.5550   78.6910  218.6090 C   0  0  0  0  0  0  0  0  0  0  0  0
  142.3180   80.0500  218.3740 C   0  0  0  0  0  0  0  0  0  0  0  0
  141.5550   80.7210  219.3060 C   0  0  0  0  0  0  0  0  0  0  0  0
  141.0370   80.1040  220.4270 C   0  0  0  0  0  0  0  0  0  0  0  0
  140.3761   79.2527  224.9187 H   0  0  0  0  0  0  0  0  0  0  0  0
  140.3498   80.3937  223.5316 H   0  0  0  0  0  0  0  0  0  0  0  0
  139.2744   78.9549  223.5316 H   0  0  0  0  0  0  0  0  0  0  0  0
  141.6334   77.6855  223.7852 H   0  0  0  0  0  0  0  0  0  0  0  0
  143.0322   79.5685  223.9162 H   0  0  0  0  0  0  0  0  0  0  0  0
  143.3214   78.6920  222.3752 H   0  0  0  0  0  0  0  0  0  0  0  0
  142.3806   80.2222  222.3752 H   0  0  0  0  0  0  0  0  0  0  0  0
  139.6797   78.2070  221.7989 H   0  0  0  0  0  0  0  0  0  0  0  0
  141.8440   76.1910  222.1750 H   0  0  0  0  0  0  0  0  0  0  0  0
  139.7910   73.8137  220.2393 H   0  0  0  0  0  0  0  0  0  0  0  0
  141.4600   74.1780  220.8540 H   0  0  0  0  0  0  0  0  0  0  0  0
  139.5670   74.1310  223.0730 H   0  0  0  0  0  0  0  0  0  0  0  0
  139.0564   70.0766  222.6310 H   0  0  0  0  0  0  0  0  0  0  0  0
  138.5548   68.7458  224.6262 H   0  0  0  0  0  0  0  0  0  0  0  0
  138.7541   68.3604  226.9392 H   0  0  0  0  0  0  0  0  0  0  0  0
  139.6504   69.0701  229.1463 H   0  0  0  0  0  0  0  0  0  0  0  0
  141.0359   71.1005  229.3075 H   0  0  0  0  0  0  0  0  0  0  0  0
  141.5574   72.4793  227.2962 H   0  0  0  0  0  0  0  0  0  0  0  0
  142.2366   76.9938  219.8992 H   0  0  0  0  0  0  0  0  0  0  0  0
  143.1586   78.1130  217.8937 H   0  0  0  0  0  0  0  0  0  0  0  0
  142.7218   80.5594  217.4866 H   0  0  0  0  0  0  0  0  0  0  0  0
  141.3509   81.7906  219.1501 H   0  0  0  0  0  0  0  0  0  0  0  0
  140.4345   80.6861  221.1398 H   0  0  0  0  0  0  0  0  0  0  0  0
  1  2  1  0
  2  3  1  0
  2  4  1  0
  4  5  1  0
  5  6  1  0
  6  7  2  0
  6  8  1  0
  8  9  1  0
  9 10  1  0
 10 11  2  0
 10 12  1  0
 12 13  2  0
 13 14  1  0
 14 15  2  0
 15 16  1  0
 16 17  2  0
 17 18  1  0
 18 19  2  0
 19 20  1  0
 20 21  2  0
  4 22  1  0
 22 23  2  0
 23 24  1  0
 24 25  2  0
 25 26  1  0
 26 27  2  0
 21 12  1  0
 27 22  1  0
 20 15  1  0
  1 28  1  0
  1 29  1  0
  1 30  1  0
  2 31  1  0
  3 32  1  0
  3 33  1  0
  3 34  1  0
  4 35  1  1
  5 36  1  0
  8 37  1  0
  8 38  1  0
  9 39  1  0
 13 40  1  0
 14 41  1  0
 16 42  1  0
 17 43  1  0
 18 44  1  0
 19 45  1  0
 23 46  1  0
 24 47  1  0
 25 48  1  0
 26 49  1  0
 27 50  1  0
M  END
>  <smiles>  (29) 
CC(C)[C@H](NC(=O)CNC(=O)c1ccc2ccccc2n1)c1ccccc1

>  <score_type>  (29) 
oracle

>  <origin>  (29) 
autodockgpu

>  <m_score__min__energy>  (29) 
-8.8300000000000001

>  <m_primary>  (29) 
energy

>  <rmsd>  (29) 
3.870059439255621

>  <m_score__min__rmsd>  (29) 
3.870059439255621

>  <meeko>  (29) 
{"free_energy": -8.68, "intermolecular_energy": -10.47, "internal_energy": -1.14, "cluster_size": 23, "cluster_id": 1, "rank_in_cluster": 7}

>  <energy>  (29) 
-8.25

>  <cluster_rmsd>  (29) 
0.0

>  <cluster>  (29) 
4

$$$$

     RDKit          3D

 50 52  0  0  0  0  0  0  0  0999 V2000
  140.6030   79.4290  223.8560 C   0  0  0  0  0  0  0  0  0  0  0  0
  141.6060   78.7190  222.9720 C   0  0  0  0  0  0  0  0  0  0  0  0
  142.8530   79.5100  222.7610 C   0  0  0  0  0  0  0  0  0  0  0  0
  140.9010   78.3990  221.6490 C   0  0  2  0  0  0  0  0  0  0  0  0
  141.0830   76.9920  221.3520 N   0  0  0  0  0  0  0  0  0  0  0  0
  140.0830   76.0330  221.6320 C   0  0  0  0  0  0  0  0  0  0  0  0
  138.9950   76.4040  222.1580 O   0  0  0  0  0  0  0  0  0  0  0  0
  140.3690   74.6180  221.2860 C   0  0  0  0  0  0  0  0  0  0  0  0
  139.9480   73.7080  222.3290 N   0  0  0  0  0  0  0  0  0  0  0  0
  140.6750   72.4970  222.4730 C   0  0  0  0  0  0  0  0  0  0  0  0
  141.6430   72.3070  221.6710 O   0  0  0  0  0  0  0  0  0  0  0  0
  140.3390   71.5230  223.4810 C   0  0  0  0  0  0  0  0  0  0  0  0
  139.5770   70.4220  223.1340 C   0  0  0  0  0  0  0  0  0  0  0  0
  139.2200   69.4590  224.0400 C   0  0  0  0  0  0  0  0  0  0  0  0
  139.6200   69.5680  225.3390 C   0  0  0  0  0  0  0  0  0  0  0  0
  139.2550   68.5970  226.2310 C   0  0  0  0  0  0  0  0  0  0  0  0
  139.6630   68.7210  227.5320 C   0  0  0  0  0  0  0  0  0  0  0  0
  140.4230   69.8070  227.9070 C   0  0  0  0  0  0  0  0  0  0  0  0
  140.7960   70.7990  226.9980 C   0  0  0  0  0  0  0  0  0  0  0  0
  140.3810   70.6710  225.6830 C   0  0  0  0  0  0  0  0  0  0  0  0
  140.7210   71.6090  224.7710 N   0  0  0  0  0  0  0  0  0  0  0  0
  141.3120   79.2930  220.5630 C   0  0  0  0  0  0  0  0  0  0  0  0
  141.9980   78.7170  219.4910 C   0  0  0  0  0  0  0  0  0  0  0  0
  142.4240   79.4900  218.4170 C   0  0  0  0  0  0  0  0  0  0  0  0
  142.1770   80.8670  218.3830 C   0  0  0  0  0  0  0  0  0  0  0  0
  141.4980   81.4060  219.4550 C   0  0  0  0  0  0  0  0  0  0  0  0
  141.0710   80.6460  220.5250 C   0  0  0  0  0  0  0  0  0  0  0  0
  140.8544   79.2511  224.9120 H   0  0  0  0  0  0  0  0  0  0  0  0
  140.6318   80.5090  223.6492 H   0  0  0  0  0  0  0  0  0  0  0  0
  139.5940   79.0429  223.6492 H   0  0  0  0  0  0  0  0  0  0  0  0
  141.9413   77.7941  223.4641 H   0  0  0  0  0  0  0  0  0  0  0  0
  143.2834   79.7830  223.7358 H   0  0  0  0  0  0  0  0  0  0  0  0
  143.5787   78.9067  222.1958 H   0  0  0  0  0  0  0  0  0  0  0  0
  142.6165   80.4236  222.1958 H   0  0  0  0  0  0  0  0  0  0  0  0
  139.8223   78.5882  221.7523 H   0  0  0  0  0  0  0  0  0  0  0  0
  141.9900   76.6900  220.9120 H   0  0  0  0  0  0  0  0  0  0  0  0
  139.8359   74.3649  220.3577 H   0  0  0  0  0  0  0  0  0  0  0  0
  141.4569   74.5123  221.1623 H   0  0  0  0  0  0  0  0  0  0  0  0
  139.1360   73.9210  222.9650 H   0  0  0  0  0  0  0  0  0  0  0  0
  139.2451   70.3159  222.0906 H   0  0  0  0  0  0  0  0  0  0  0  0
  138.6121   68.5997  223.7205 H   0  0  0  0  0  0  0  0  0  0  0  0
  138.6483   67.7372  225.9106 H   0  0  0  0  0  0  0  0  0  0  0  0
  139.3854   67.9576  228.2738 H   0  0  0  0  0  0  0  0  0  0  0  0
  140.7460   69.8954  228.9548 H   0  0  0  0  0  0  0  0  0  0  0  0
  141.4030   71.6589  227.3177 H   0  0  0  0  0  0  0  0  0  0  0  0
  142.2040   77.6365  219.4968 H   0  0  0  0  0  0  0  0  0  0  0  0
  142.9616   79.0136  217.5840 H   0  0  0  0  0  0  0  0  0  0  0  0
  142.5092   81.4905  217.5399 H   0  0  0  0  0  0  0  0  0  0  0  0
  141.2880   82.4858  219.4576 H   0  0  0  0  0  0  0  0  0  0  0  0
  140.5329   81.1272  221.3550 H   0  0  0  0  0  0  0  0  0  0  0  0
  1  2  1  0
  2  3  1  0
  2  4  1  0
  4  5  1  0
  5  6  1  0
  6  7  2  0
  6  8  1  0
  8  9  1  0
  9 10  1  0
 10 11  2  0
 10 12  1  0
 12 13  2  0
 13 14  1  0
 14 15  2  0
 15 16  1  0
 16 17  2  0
 17 18  1  0
 18 19  2  0
 19 20  1  0
 20 21  2  0
  4 22  1  0
 22 23  2  0
 23 24  1  0
 24 25  2  0
 25 26  1  0
 26 27  2  0
 21 12  1  0
 27 22  1  0
 20 15  1  0
  1 28  1  0
  1 29  1  0
  1 30  1  0
  2 31  1  0
  3 32  1  0
  3 33  1  0
  3 34  1  0
  4 35  1  1
  5 36  1  0
  8 37  1  0
  8 38  1  0
  9 39  1  0
 13 40  1  0
 14 41  1  0
 16 42  1  0
 17 43  1  0
 18 44  1  0
 19 45  1  0
 23 46  1  0
 24 47  1  0
 25 48  1  0
 26 49  1  0
 27 50  1  0
M  END
>  <smiles>  (30) 
CC(C)[C@H](NC(=O)CNC(=O)c1ccc2ccccc2n1)c1ccccc1

>  <score_type>  (30) 
oracle

>  <origin>  (30) 
autodockgpu

>  <m_score__min__energy>  (30) 
-8.8300000000000001

>  <m_primary>  (30) 
energy

>  <rmsd>  (30) 
3.649137689101461

>  <m_score__min__rmsd>  (30) 
3.649137689101461

>  <meeko>  (30) 
{"free_energy": -8.41, "intermolecular_energy": -10.2, "internal_energy": -1.24, "cluster_size": 23, "cluster_id": 1, "rank_in_cluster": 19}

>  <energy>  (30) 
-8.15

>  <cluster_rmsd>  (30) 
0.37

>  <cluster>  (30) 
4

$$$$

     RDKit          3D

 50 52  0  0  0  0  0  0  0  0999 V2000
  140.5640   76.8340  219.6740 C   0  0  0  0  0  0  0  0  0  0  0  0
  142.0140   76.4100  219.7750 C   0  0  0  0  0  0  0  0  0  0  0  0
  142.9250   77.2670  218.9640 C   0  0  0  0  0  0  0  0  0  0  0  0
  142.0890   74.9380  219.3550 C   0  0  2  0  0  0  0  0  0  0  0  0
  140.8250   74.2990  219.6620 N   0  0  0  0  0  0  0  0  0  0  0  0
  140.3840   74.1120  220.9920 C   0  0  0  0  0  0  0  0  0  0  0  0
  141.1090   74.5090  221.9490 O   0  0  0  0  0  0  0  0  0  0  0  0
  139.0720   73.4470  221.1970 C   0  0  0  0  0  0  0  0  0  0  0  0
  139.0200   72.7230  222.4490 N   0  0  0  0  0  0  0  0  0  0  0  0
  139.8710   71.5950  222.5880 C   0  0  0  0  0  0  0  0  0  0  0  0
  140.6160   71.3090  221.5980 O   0  0  0  0  0  0  0  0  0  0  0  0
  139.8970   70.8060  223.7940 C   0  0  0  0  0  0  0  0  0  0  0  0
  139.3140   69.5510  223.7970 C   0  0  0  0  0  0  0  0  0  0  0  0
  139.3020   68.7490  224.9070 C   0  0  0  0  0  0  0  0  0  0  0  0
  139.8800   69.1820  226.0630 C   0  0  0  0  0  0  0  0  0  0  0  0
  139.8590   68.3670  227.1630 C   0  0  0  0  0  0  0  0  0  0  0  0
  140.4420   68.8160  228.3170 C   0  0  0  0  0  0  0  0  0  0  0  0
  141.0300   70.0620  228.3430 C   0  0  0  0  0  0  0  0  0  0  0  0
  141.0520   70.8940  227.2230 C   0  0  0  0  0  0  0  0  0  0  0  0
  140.4610   70.4380  226.0570 C   0  0  0  0  0  0  0  0  0  0  0  0
  140.4600   71.2120  224.9490 N   0  0  0  0  0  0  0  0  0  0  0  0
  143.2530   74.2500  219.9190 C   0  0  0  0  0  0  0  0  0  0  0  0
  143.1540   72.8670  220.0890 C   0  0  0  0  0  0  0  0  0  0  0  0
  144.2110   72.1350  220.6170 C   0  0  0  0  0  0  0  0  0  0  0  0
  145.4020   72.7640  220.9940 C   0  0  0  0  0  0  0  0  0  0  0  0
  145.4700   74.1300  220.8150 C   0  0  0  0  0  0  0  0  0  0  0  0
  144.4250   74.8650  220.2910 C   0  0  0  0  0  0  0  0  0  0  0  0
  140.1465   76.9561  220.6843 H   0  0  0  0  0  0  0  0  0  0  0  0
  140.4981   77.7890  219.1321 H   0  0  0  0  0  0  0  0  0  0  0  0
  139.9940   76.0649  219.1321 H   0  0  0  0  0  0  0  0  0  0  0  0
  142.3625   76.5336  220.8110 H   0  0  0  0  0  0  0  0  0  0  0  0
  143.5600   77.8644  219.6347 H   0  0  0  0  0  0  0  0  0  0  0  0
  143.5590   76.6303  218.3294 H   0  0  0  0  0  0  0  0  0  0  0  0
  142.3282   77.9387  218.3294 H   0  0  0  0  0  0  0  0  0  0  0  0
  142.2470   74.8757  218.2682 H   0  0  0  0  0  0  0  0  0  0  0  0
  140.2260   73.9710  218.8610 H   0  0  0  0  0  0  0  0  0  0  0  0
  138.2821   74.2125  221.1966 H   0  0  0  0  0  0  0  0  0  0  0  0
  138.9266   72.7242  220.3807 H   0  0  0  0  0  0  0  0  0  0  0  0
  138.3810   73.0090  223.2360 H   0  0  0  0  0  0  0  0  0  0  0  0
  138.8426   69.1839  222.8734 H   0  0  0  0  0  0  0  0  0  0  0  0
  138.8270   67.7577  224.8658 H   0  0  0  0  0  0  0  0  0  0  0  0
  139.3850   67.3753  227.1203 H   0  0  0  0  0  0  0  0  0  0  0  0
  140.4412   68.1858  229.2186 H   0  0  0  0  0  0  0  0  0  0  0  0
  141.4966   70.4116  229.2758 H   0  0  0  0  0  0  0  0  0  0  0  0
  141.5262   71.8856  227.2654 H   0  0  0  0  0  0  0  0  0  0  0  0
  142.2267   72.3501  219.8010 H   0  0  0  0  0  0  0  0  0  0  0  0
  144.1095   71.0466  220.7400 H   0  0  0  0  0  0  0  0  0  0  0  0
  146.2452   72.1958  221.4137 H   0  0  0  0  0  0  0  0  0  0  0  0
  146.3935   74.6548  221.1011 H   0  0  0  0  0  0  0  0  0  0  0  0
  144.5313   75.9531  220.1700 H   0  0  0  0  0  0  0  0  0  0  0  0
  1  2  1  0
  2  3  1  0
  2  4  1  0
  4  5  1  0
  5  6  1  0
  6  7  2  0
  6  8  1  0
  8  9  1  0
  9 10  1  0
 10 11  2  0
 10 12  1  0
 12 13  2  0
 13 14  1  0
 14 15  2  0
 15 16  1  0
 16 17  2  0
 17 18  1  0
 18 19  2  0
 19 20  1  0
 20 21  2  0
  4 22  1  0
 22 23  2  0
 23 24  1  0
 24 25  2  0
 25 26  1  0
 26 27  2  0
 21 12  1  0
 27 22  1  0
 20 15  1  0
  1 28  1  0
  1 29  1  0
  1 30  1  0
  2 31  1  0
  3 32  1  0
  3 33  1  0
  3 34  1  0
  4 35  1  6
  5 36  1  0
  8 37  1  0
  8 38  1  0
  9 39  1  0
 13 40  1  0
 14 41  1  0
 16 42  1  0
 17 43  1  0
 18 44  1  0
 19 45  1  0
 23 46  1  0
 24 47  1  0
 25 48  1  0
 26 49  1  0
 27 50  1  0
M  END
>  <smiles>  (31) 
CC(C)[C@H](NC(=O)CNC(=O)c1ccc2ccccc2n1)c1ccccc1

>  <score_type>  (31) 
oracle

>  <origin>  (31) 
autodockgpu

>  <m_score__min__energy>  (31) 
-8.8300000000000001

>  <m_primary>  (31) 
energy

>  <rmsd>  (31) 
6.361749493158949

>  <m_score__min__rmsd>  (31) 
6.361749493158949

>  <meeko>  (31) 
{"free_energy": -8.25, "intermolecular_energy": -10.04, "internal_energy": -1.31, "cluster_size": 11, "cluster_id": 4, "rank_in_cluster": 1}

>  <energy>  (31) 
-8.15

>  <cluster_rmsd>  (31) 
1.85

>  <cluster>  (31) 
4

$$$$

     RDKit          3D

 50 52  0  0  0  0  0  0  0  0999 V2000
  138.7910   77.1240  222.7090 C   0  0  0  0  0  0  0  0  0  0  0  0
  140.2190   76.7730  222.3480 C   0  0  0  0  0  0  0  0  0  0  0  0
  141.0180   77.9610  221.9300 C   0  0  0  0  0  0  0  0  0  0  0  0
  140.1630   75.7060  221.2500 C   0  0  2  0  0  0  0  0  0  0  0  0
  139.3010   74.6270  221.6890 N   0  0  0  0  0  0  0  0  0  0  0  0
  138.6030   73.8060  220.7740 C   0  0  0  0  0  0  0  0  0  0  0  0
  138.7260   74.0140  219.5340 O   0  0  0  0  0  0  0  0  0  0  0  0
  137.7470   72.7270  221.3300 C   0  0  0  0  0  0  0  0  0  0  0  0
  138.2220   72.2670  222.6170 N   0  0  0  0  0  0  0  0  0  0  0  0
  138.6130   70.9050  222.7210 C   0  0  0  0  0  0  0  0  0  0  0  0
  138.5160   70.1960  221.6700 O   0  0  0  0  0  0  0  0  0  0  0  0
  139.1000   70.3460  223.9560 C   0  0  0  0  0  0  0  0  0  0  0  0
  139.0310   68.9790  224.1570 C   0  0  0  0  0  0  0  0  0  0  0  0
  139.4750   68.3820  225.3070 C   0  0  0  0  0  0  0  0  0  0  0  0
  140.0090   69.1420  226.3040 C   0  0  0  0  0  0  0  0  0  0  0  0
  140.4480   68.5290  227.4470 C   0  0  0  0  0  0  0  0  0  0  0  0
  140.9810   69.3050  228.4400 C   0  0  0  0  0  0  0  0  0  0  0  0
  141.0630   70.6700  228.2670 C   0  0  0  0  0  0  0  0  0  0  0  0
  140.6160   71.2970  227.1030 C   0  0  0  0  0  0  0  0  0  0  0  0
  140.0760   70.5090  226.1010 C   0  0  0  0  0  0  0  0  0  0  0  0
  139.6320   71.0760  224.9580 N   0  0  0  0  0  0  0  0  0  0  0  0
  141.4940   75.2660  220.8240 C   0  0  0  0  0  0  0  0  0  0  0  0
  141.8910   73.9810  221.2040 C   0  0  0  0  0  0  0  0  0  0  0  0
  143.1370   73.4830  220.8440 C   0  0  0  0  0  0  0  0  0  0  0  0
  144.0280   74.2560  220.0910 C   0  0  0  0  0  0  0  0  0  0  0  0
  143.6090   75.5190  219.7320 C   0  0  0  0  0  0  0  0  0  0  0  0
  142.3730   76.0230  220.0850 C   0  0  0  0  0  0  0  0  0  0  0  0
  138.6853   77.1500  223.8036 H   0  0  0  0  0  0  0  0  0  0  0  0
  138.5395   78.1107  222.2928 H   0  0  0  0  0  0  0  0  0  0  0  0
  138.1108   76.3663  222.2928 H   0  0  0  0  0  0  0  0  0  0  0  0
  140.7388   76.3844  223.2362 H   0  0  0  0  0  0  0  0  0  0  0  0
  141.3767   78.4942  222.8228 H   0  0  0  0  0  0  0  0  0  0  0  0
  141.8786   77.6312  221.3295 H   0  0  0  0  0  0  0  0  0  0  0  0
  140.3881   78.6337  221.3295 H   0  0  0  0  0  0  0  0  0  0  0  0
  139.7255   76.1413  220.3394 H   0  0  0  0  0  0  0  0  0  0  0  0
  139.2030   74.4590  222.7240 H   0  0  0  0  0  0  0  0  0  0  0  0
  136.7226   73.1106  221.4460 H   0  0  0  0  0  0  0  0  0  0  0  0
  137.7769   71.8765  220.6331 H   0  0  0  0  0  0  0  0  0  0  0  0
  138.2810   72.9030  223.4540 H   0  0  0  0  0  0  0  0  0  0  0  0
  138.6037   68.3480  223.3637 H   0  0  0  0  0  0  0  0  0  0  0  0
  139.4006   67.2909  225.4255 H   0  0  0  0  0  0  0  0  0  0  0  0
  140.3739   67.4378  227.5643 H   0  0  0  0  0  0  0  0  0  0  0  0
  141.3418   68.8424  229.3705 H   0  0  0  0  0  0  0  0  0  0  0  0
  141.4941   71.2842  229.0713 H   0  0  0  0  0  0  0  0  0  0  0  0
  140.6907   72.3881  226.9849 H   0  0  0  0  0  0  0  0  0  0  0  0
  141.2074   73.3552  221.7964 H   0  0  0  0  0  0  0  0  0  0  0  0
  143.4268   72.4684  221.1547 H   0  0  0  0  0  0  0  0  0  0  0  0
  145.0171   73.8733  219.7991 H   0  0  0  0  0  0  0  0  0  0  0  0
  144.2870   76.1513  219.1400 H   0  0  0  0  0  0  0  0  0  0  0  0
  142.0888   77.0387  219.7726 H   0  0  0  0  0  0  0  0  0  0  0  0
  1  2  1  0
  2  3  1  0
  2  4  1  0
  4  5  1  0
  5  6  1  0
  6  7  2  0
  6  8  1  0
  8  9  1  0
  9 10  1  0
 10 11  2  0
 10 12  1  0
 12 13  2  0
 13 14  1  0
 14 15  2  0
 15 16  1  0
 16 17  2  0
 17 18  1  0
 18 19  2  0
 19 20  1  0
 20 21  2  0
  4 22  1  0
 22 23  2  0
 23 24  1  0
 24 25  2  0
 25 26  1  0
 26 27  2  0
 21 12  1  0
 27 22  1  0
 20 15  1  0
  1 28  1  0
  1 29  1  0
  1 30  1  0
  2 31  1  0
  3 32  1  0
  3 33  1  0
  3 34  1  0
  4 35  1  6
  5 36  1  0
  8 37  1  0
  8 38  1  0
  9 39  1  0
 13 40  1  0
 14 41  1  0
 16 42  1  0
 17 43  1  0
 18 44  1  0
 19 45  1  0
 23 46  1  0
 24 47  1  0
 25 48  1  0
 26 49  1  0
 27 50  1  0
M  END
>  <smiles>  (32) 
CC(C)[C@H](NC(=O)CNC(=O)c1ccc2ccccc2n1)c1ccccc1

>  <score_type>  (32) 
oracle

>  <origin>  (32) 
autodockgpu

>  <m_score__min__energy>  (32) 
-8.8300000000000001

>  <m_primary>  (32) 
energy

>  <rmsd>  (32) 
5.724087132002871

>  <m_score__min__rmsd>  (32) 
5.724087132002871

>  <meeko>  (32) 
{"free_energy": -7.88, "intermolecular_energy": -9.67, "internal_energy": -1.41, "cluster_size": 11, "cluster_id": 4, "rank_in_cluster": 8}

>  <energy>  (32) 
-8.13

>  <cluster_rmsd>  (32) 
1.86

>  <cluster>  (32) 
4

$$$$

     RDKit          3D

 50 52  0  0  0  0  0  0  0  0999 V2000
  143.7060   72.1740  220.8330 C   0  0  0  0  0  0  0  0  0  0  0  0
  144.4090   73.3190  220.1370 C   0  0  0  0  0  0  0  0  0  0  0  0
  145.6590   73.7400  220.8330 C   0  0  0  0  0  0  0  0  0  0  0  0
  143.4030   74.4700  220.0240 C   0  0  2  0  0  0  0  0  0  0  0  0
  142.0730   73.9560  220.2840 N   0  0  0  0  0  0  0  0  0  0  0  0
  141.0530   74.7640  220.8350 C   0  0  0  0  0  0  0  0  0  0  0  0
  141.2990   75.9720  221.1140 O   0  0  0  0  0  0  0  0  0  0  0  0
  139.7250   74.1390  221.0600 C   0  0  0  0  0  0  0  0  0  0  0  0
  139.6490   73.4720  222.3420 N   0  0  0  0  0  0  0  0  0  0  0  0
  140.1910   72.1620  222.4310 C   0  0  0  0  0  0  0  0  0  0  0  0
  140.7020   71.6770  221.3730 O   0  0  0  0  0  0  0  0  0  0  0  0
  140.1670   71.4110  223.6600 C   0  0  0  0  0  0  0  0  0  0  0  0
  139.6480   70.1290  223.6630 C   0  0  0  0  0  0  0  0  0  0  0  0
  139.5940   69.3600  224.7950 C   0  0  0  0  0  0  0  0  0  0  0  0
  140.0640   69.8550  225.9750 C   0  0  0  0  0  0  0  0  0  0  0  0
  140.0030   69.0730  227.0970 C   0  0  0  0  0  0  0  0  0  0  0  0
  140.4770   69.5850  228.2740 C   0  0  0  0  0  0  0  0  0  0  0  0
  141.0000   70.8590  228.3010 C   0  0  0  0  0  0  0  0  0  0  0  0
  141.0630   71.6580  227.1590 C   0  0  0  0  0  0  0  0  0  0  0  0
  140.5820   71.1380  225.9700 C   0  0  0  0  0  0  0  0  0  0  0  0
  140.6240   71.8790  224.8390 N   0  0  0  0  0  0  0  0  0  0  0  0
  143.5210   75.1970  218.7570 C   0  0  0  0  0  0  0  0  0  0  0  0
  143.0830   76.5240  218.7420 C   0  0  0  0  0  0  0  0  0  0  0  0
  143.1580   77.2880  217.5840 C   0  0  0  0  0  0  0  0  0  0  0  0
  143.6730   76.7480  216.4010 C   0  0  0  0  0  0  0  0  0  0  0  0
  144.0960   75.4360  216.4460 C   0  0  0  0  0  0  0  0  0  0  0  0
  144.0250   74.6700  217.5920 C   0  0  0  0  0  0  0  0  0  0  0  0
  143.7852   72.3031  221.9225 H   0  0  0  0  0  0  0  0  0  0  0  0
  142.6455   72.1632  220.5412 H   0  0  0  0  0  0  0  0  0  0  0  0
  144.1762   71.2234  220.5412 H   0  0  0  0  0  0  0  0  0  0  0  0
  144.7398   72.9955  219.1390 H   0  0  0  0  0  0  0  0  0  0  0  0
  145.5076   73.6890  221.9213 H   0  0  0  0  0  0  0  0  0  0  0  0
  146.4823   73.0696  220.5455 H   0  0  0  0  0  0  0  0  0  0  0  0
  145.9090   74.7719  220.5455 H   0  0  0  0  0  0  0  0  0  0  0  0
  143.6285   75.2301  220.7865 H   0  0  0  0  0  0  0  0  0  0  0  0
  141.8750   72.9490  220.0490 H   0  0  0  0  0  0  0  0  0  0  0  0
  138.9531   74.9217  221.0208 H   0  0  0  0  0  0  0  0  0  0  0  0
  139.5676   73.3846  220.2751 H   0  0  0  0  0  0  0  0  0  0  0  0
  139.2130   73.9260  223.1860 H   0  0  0  0  0  0  0  0  0  0  0  0
  139.2641   69.7113  222.7206 H   0  0  0  0  0  0  0  0  0  0  0  0
  139.1722   68.3450  224.7521 H   0  0  0  0  0  0  0  0  0  0  0  0
  139.5830   68.0573  227.0533 H   0  0  0  0  0  0  0  0  0  0  0  0
  140.4406   68.9825  229.1936 H   0  0  0  0  0  0  0  0  0  0  0  0
  141.3799   71.2590  229.2527 H   0  0  0  0  0  0  0  0  0  0  0  0
  141.4835   72.6735  227.2024 H   0  0  0  0  0  0  0  0  0  0  0  0
  142.6730   76.9700  219.6601 H   0  0  0  0  0  0  0  0  0  0  0  0
  142.8080   78.3307  217.5977 H   0  0  0  0  0  0  0  0  0  0  0  0
  143.7377   77.3422  215.4775 H   0  0  0  0  0  0  0  0  0  0  0  0
  144.5064   74.9819  215.5320 H   0  0  0  0  0  0  0  0  0  0  0  0
  144.3753   73.6274  217.5727 H   0  0  0  0  0  0  0  0  0  0  0  0
  1  2  1  0
  2  3  1  0
  2  4  1  0
  4  5  1  0
  5  6  1  0
  6  7  2  0
  6  8  1  0
  8  9  1  0
  9 10  1  0
 10 11  2  0
 10 12  1  0
 12 13  2  0
 13 14  1  0
 14 15  2  0
 15 16  1  0
 16 17  2  0
 17 18  1  0
 18 19  2  0
 19 20  1  0
 20 21  2  0
  4 22  1  0
 22 23  2  0
 23 24  1  0
 24 25  2  0
 25 26  1  0
 26 27  2  0
 21 12  1  0
 27 22  1  0
 20 15  1  0
  1 28  1  0
  1 29  1  0
  1 30  1  0
  2 31  1  0
  3 32  1  0
  3 33  1  0
  3 34  1  0
  4 35  1  1
  5 36  1  0
  8 37  1  0
  8 38  1  0
  9 39  1  0
 13 40  1  0
 14 41  1  0
 16 42  1  0
 17 43  1  0
 18 44  1  0
 19 45  1  0
 23 46  1  0
 24 47  1  0
 25 48  1  0
 26 49  1  0
 27 50  1  0
M  END
>  <smiles>  (33) 
CC(C)[C@H](NC(=O)CNC(=O)c1ccc2ccccc2n1)c1ccccc1

>  <score_type>  (33) 
oracle

>  <origin>  (33) 
autodockgpu

>  <m_score__min__energy>  (33) 
-8.8300000000000001

>  <m_primary>  (33) 
energy

>  <rmsd>  (33) 
5.7918347122160645

>  <m_score__min__rmsd>  (33) 
5.7918347122160645

>  <meeko>  (33) 
{"free_energy": -7.85, "intermolecular_energy": -9.63, "internal_energy": -2.06, "cluster_size": 8, "cluster_id": 5, "rank_in_cluster": 4}

>  <energy>  (33) 
-8.04

>  <cluster_rmsd>  (33) 
1.99

>  <cluster>  (33) 
4

$$$$

     RDKit          3D

 50 52  0  0  0  0  0  0  0  0999 V2000
  140.2150   79.4710  223.7270 C   0  0  0  0  0  0  0  0  0  0  0  0
  141.2950   78.6520  223.0540 C   0  0  0  0  0  0  0  0  0  0  0  0
  142.5840   79.3900  222.9240 C   0  0  0  0  0  0  0  0  0  0  0  0
  140.7500   78.2090  221.6920 C   0  0  2  0  0  0  0  0  0  0  0  0
  140.9740   76.7860  221.5390 N   0  0  0  0  0  0  0  0  0  0  0  0
  139.9140   75.8840  221.2880 C   0  0  0  0  0  0  0  0  0  0  0  0
  138.7330   76.3240  221.1940 O   0  0  0  0  0  0  0  0  0  0  0  0
  140.2530   74.4450  221.1450 C   0  0  0  0  0  0  0  0  0  0  0  0
  139.9440   73.6940  222.3430 N   0  0  0  0  0  0  0  0  0  0  0  0
  140.5260   72.4050  222.4740 C   0  0  0  0  0  0  0  0  0  0  0  0
  141.2750   72.0110  221.5250 O   0  0  0  0  0  0  0  0  0  0  0  0
  140.2840   71.5760  223.6280 C   0  0  0  0  0  0  0  0  0  0  0  0
  139.6200   70.3720  223.4710 C   0  0  0  0  0  0  0  0  0  0  0  0
  139.3560   69.5360  224.5240 C   0  0  0  0  0  0  0  0  0  0  0  0
  139.7540   69.8810  225.7810 C   0  0  0  0  0  0  0  0  0  0  0  0
  139.4830   69.0330  226.8210 C   0  0  0  0  0  0  0  0  0  0  0  0
  139.8870   69.3940  228.0780 C   0  0  0  0  0  0  0  0  0  0  0  0
  140.5510   70.5870  228.2630 C   0  0  0  0  0  0  0  0  0  0  0  0
  140.8290   71.4520  227.2040 C   0  0  0  0  0  0  0  0  0  0  0  0
  140.4170   71.0850  225.9340 C   0  0  0  0  0  0  0  0  0  0  0  0
  140.6660   71.8950  224.8810 N   0  0  0  0  0  0  0  0  0  0  0  0
  141.2760   79.0150  220.5870 C   0  0  0  0  0  0  0  0  0  0  0  0
  142.0070   78.3440  219.6030 C   0  0  0  0  0  0  0  0  0  0  0  0
  142.5420   79.0290  218.5190 C   0  0  0  0  0  0  0  0  0  0  0  0
  142.3640   80.4110  218.3850 C   0  0  0  0  0  0  0  0  0  0  0  0
  141.6400   81.0450  219.3720 C   0  0  0  0  0  0  0  0  0  0  0  0
  141.1040   80.3720  220.4520 C   0  0  0  0  0  0  0  0  0  0  0  0
  140.3208   79.3908  224.8190 H   0  0  0  0  0  0  0  0  0  0  0  0
  140.3123   80.5244  223.4256 H   0  0  0  0  0  0  0  0  0  0  0  0
  139.2269   79.0931  223.4256 H   0  0  0  0  0  0  0  0  0  0  0  0
  141.5348   77.7771  223.6761 H   0  0  0  0  0  0  0  0  0  0  0  0
  142.9795   79.6164  223.9252 H   0  0  0  0  0  0  0  0  0  0  0  0
  143.3080   78.7696  222.3755 H   0  0  0  0  0  0  0  0  0  0  0  0
  142.4155   80.3285  222.3755 H   0  0  0  0  0  0  0  0  0  0  0  0
  139.6652   78.3877  221.6557 H   0  0  0  0  0  0  0  0  0  0  0  0
  141.9600   76.4260  221.6170 H   0  0  0  0  0  0  0  0  0  0  0  0
  139.6787   74.0265  220.3054 H   0  0  0  0  0  0  0  0  0  0  0  0
  141.3353   74.3670  220.9646 H   0  0  0  0  0  0  0  0  0  0  0  0
  139.3150   74.0740  223.0970 H   0  0  0  0  0  0  0  0  0  0  0  0
  139.2921   70.0752  222.4638 H   0  0  0  0  0  0  0  0  0  0  0  0
  138.8239   68.5882  224.3552 H   0  0  0  0  0  0  0  0  0  0  0  0
  138.9532   68.0842  226.6506 H   0  0  0  0  0  0  0  0  0  0  0  0
  139.6828   68.7357  228.9353 H   0  0  0  0  0  0  0  0  0  0  0  0
  140.8720   70.8663  229.2774 H   0  0  0  0  0  0  0  0  0  0  0  0
  141.3610   72.3998  227.3735 H   0  0  0  0  0  0  0  0  0  0  0  0
  142.1610   77.2581  219.6878 H   0  0  0  0  0  0  0  0  0  0  0  0
  143.1126   78.4784  217.7566 H   0  0  0  0  0  0  0  0  0  0  0  0
  142.7823   80.9652  217.5319 H   0  0  0  0  0  0  0  0  0  0  0  0
  141.4829   82.1311  219.2961 H   0  0  0  0  0  0  0  0  0  0  0  0
  140.5340   80.9271  221.2115 H   0  0  0  0  0  0  0  0  0  0  0  0
  1  2  1  0
  2  3  1  0
  2  4  1  0
  4  5  1  0
  5  6  1  0
  6  7  2  0
  6  8  1  0
  8  9  1  0
  9 10  1  0
 10 11  2  0
 10 12  1  0
 12 13  2  0
 13 14  1  0
 14 15  2  0
 15 16  1  0
 16 17  2  0
 17 18  1  0
 18 19  2  0
 19 20  1  0
 20 21  2  0
  4 22  1  0
 22 23  2  0
 23 24  1  0
 24 25  2  0
 25 26  1  0
 26 27  2  0
 21 12  1  0
 27 22  1  0
 20 15  1  0
  1 28  1  0
  1 29  1  0
  1 30  1  0
  2 31  1  0
  3 32  1  0
  3 33  1  0
  3 34  1  0
  4 35  1  1
  5 36  1  0
  8 37  1  0
  8 38  1  0
  9 39  1  0
 13 40  1  0
 14 41  1  0
 16 42  1  0
 17 43  1  0
 18 44  1  0
 19 45  1  0
 23 46  1  0
 24 47  1  0
 25 48  1  0
 26 49  1  0
 27 50  1  0
M  END
>  <smiles>  (34) 
CC(C)[C@H](NC(=O)CNC(=O)c1ccc2ccccc2n1)c1ccccc1

>  <score_type>  (34) 
oracle

>  <origin>  (34) 
autodockgpu

>  <m_score__min__energy>  (34) 
-8.8300000000000001

>  <m_primary>  (34) 
energy

>  <rmsd>  (34) 
3.7876625833157487

>  <m_score__min__rmsd>  (34) 
3.7876625833157487

>  <meeko>  (34) 
{"free_energy": -8.82, "intermolecular_energy": -10.61, "internal_energy": -1.12, "cluster_size": 23, "cluster_id": 1, "rank_in_cluster": 2}

>  <energy>  (34) 
-8.03

>  <cluster_rmsd>  (34) 
1.97

>  <cluster>  (34) 
4

$$$$

     RDKit          3D

 50 52  0  0  0  0  0  0  0  0999 V2000
  136.5840   75.6260  223.0880 C   0  0  0  0  0  0  0  0  0  0  0  0
  137.0730   77.0580  223.0810 C   0  0  0  0  0  0  0  0  0  0  0  0
  136.0570   78.0130  222.5510 C   0  0  0  0  0  0  0  0  0  0  0  0
  138.3700   77.0930  222.2660 C   0  0  2  0  0  0  0  0  0  0  0  0
  138.8940   75.7460  222.1620 N   0  0  0  0  0  0  0  0  0  0  0  0
  138.9820   75.0710  220.9240 C   0  0  0  0  0  0  0  0  0  0  0  0
  138.5940   75.6510  219.8700 O   0  0  0  0  0  0  0  0  0  0  0  0
  139.5350   73.6920  220.9280 C   0  0  0  0  0  0  0  0  0  0  0  0
  139.5890   73.1330  222.2610 N   0  0  0  0  0  0  0  0  0  0  0  0
  139.8750   71.7470  222.3780 C   0  0  0  0  0  0  0  0  0  0  0  0
  140.0630   71.1040  221.2970 O   0  0  0  0  0  0  0  0  0  0  0  0
  139.9520   71.0910  223.6580 C   0  0  0  0  0  0  0  0  0  0  0  0
  139.5050   69.7880  223.7820 C   0  0  0  0  0  0  0  0  0  0  0  0
  139.5480   69.1050  224.9690 C   0  0  0  0  0  0  0  0  0  0  0  0
  140.0460   69.7130  226.0830 C   0  0  0  0  0  0  0  0  0  0  0  0
  140.0820   69.0160  227.2610 C   0  0  0  0  0  0  0  0  0  0  0  0
  140.5840   69.6390  228.3710 C   0  0  0  0  0  0  0  0  0  0  0  0
  141.0360   70.9370  228.2780 C   0  0  0  0  0  0  0  0  0  0  0  0
  141.0010   71.6490  227.0780 C   0  0  0  0  0  0  0  0  0  0  0  0
  140.4920   71.0160  225.9570 C   0  0  0  0  0  0  0  0  0  0  0  0
  140.4390   71.6700  224.7750 N   0  0  0  0  0  0  0  0  0  0  0  0
  139.3360   78.0660  222.7860 C   0  0  0  0  0  0  0  0  0  0  0  0
  140.6880   77.7270  222.7030 C   0  0  0  0  0  0  0  0  0  0  0  0
  141.6710   78.5890  223.1720 C   0  0  0  0  0  0  0  0  0  0  0  0
  141.3320   79.8220  223.7400 C   0  0  0  0  0  0  0  0  0  0  0  0
  139.9890   80.1290  223.8090 C   0  0  0  0  0  0  0  0  0  0  0  0
  139.0060   79.2780  223.3460 C   0  0  0  0  0  0  0  0  0  0  0  0
  136.4671   75.2836  224.1268 H   0  0  0  0  0  0  0  0  0  0  0  0
  135.6148   75.5670  222.5712 H   0  0  0  0  0  0  0  0  0  0  0  0
  137.3147   74.9865  222.5712 H   0  0  0  0  0  0  0  0  0  0  0  0
  137.2576   77.3894  224.1135 H   0  0  0  0  0  0  0  0  0  0  0  0
  135.5388   78.5001  223.3901 H   0  0  0  0  0  0  0  0  0  0  0  0
  136.5567   78.7760  221.9360 H   0  0  0  0  0  0  0  0  0  0  0  0
  135.3264   77.4671  221.9360 H   0  0  0  0  0  0  0  0  0  0  0  0
  138.1531   77.4534  221.2496 H   0  0  0  0  0  0  0  0  0  0  0  0
  139.2160   75.2680  223.0430 H   0  0  0  0  0  0  0  0  0  0  0  0
  138.8975   73.0521  220.3002 H   0  0  0  0  0  0  0  0  0  0  0  0
  140.5621   73.7370  220.5369 H   0  0  0  0  0  0  0  0  0  0  0  0
  139.4240   73.7170  223.1220 H   0  0  0  0  0  0  0  0  0  0  0  0
  139.0996   69.2808  222.8940 H   0  0  0  0  0  0  0  0  0  0  0  0
  139.1818   68.0692  225.0230 H   0  0  0  0  0  0  0  0  0  0  0  0
  139.7161   67.9800  227.3138 H   0  0  0  0  0  0  0  0  0  0  0  0
  140.6264   69.1063  229.3325 H   0  0  0  0  0  0  0  0  0  0  0  0
  141.4369   71.4275  229.1773 H   0  0  0  0  0  0  0  0  0  0  0  0
  141.3678   72.6847  227.0245 H   0  0  0  0  0  0  0  0  0  0  0  0
  140.9789   76.7632  222.2597 H   0  0  0  0  0  0  0  0  0  0  0  0
  142.7293   78.2987  223.0959 H   0  0  0  0  0  0  0  0  0  0  0  0
  142.1007   80.5142  224.1141 H   0  0  0  0  0  0  0  0  0  0  0  0
  139.6894   81.0908  224.2508 H   0  0  0  0  0  0  0  0  0  0  0  0
  137.9490   79.5718  223.4256 H   0  0  0  0  0  0  0  0  0  0  0  0
  1  2  1  0
  2  3  1  0
  2  4  1  0
  4  5  1  0
  5  6  1  0
  6  7  2  0
  6  8  1  0
  8  9  1  0
  9 10  1  0
 10 11  2  0
 10 12  1  0
 12 13  2  0
 13 14  1  0
 14 15  2  0
 15 16  1  0
 16 17  2  0
 17 18  1  0
 18 19  2  0
 19 20  1  0
 20 21  2  0
  4 22  1  0
 22 23  2  0
 23 24  1  0
 24 25  2  0
 25 26  1  0
 26 27  2  0
 21 12  1  0
 27 22  1  0
 20 15  1  0
  1 28  1  0
  1 29  1  0
  1 30  1  0
  2 31  1  0
  3 32  1  0
  3 33  1  0
  3 34  1  0
  4 35  1  6
  5 36  1  0
  8 37  1  0
  8 38  1  0
  9 39  1  0
 13 40  1  0
 14 41  1  0
 16 42  1  0
 17 43  1  0
 18 44  1  0
 19 45  1  0
 23 46  1  0
 24 47  1  0
 25 48  1  0
 26 49  1  0
 27 50  1  0
M  END
>  <smiles>  (35) 
CC(C)[C@H](NC(=O)CNC(=O)c1ccc2ccccc2n1)c1ccccc1

>  <score_type>  (35) 
oracle

>  <origin>  (35) 
autodockgpu

>  <m_score__min__energy>  (35) 
-8.8300000000000001

>  <m_primary>  (35) 
energy

>  <rmsd>  (35) 
4.49154578465208

>  <m_score__min__rmsd>  (35) 
4.49154578465208

>  <meeko>  (35) 
{"free_energy": -8.33, "intermolecular_energy": -10.12, "internal_energy": -1.33, "cluster_size": 4, "cluster_id": 3, "rank_in_cluster": 2}

>  <energy>  (35) 
-8.03

>  <cluster_rmsd>  (35) 
1.95

>  <cluster>  (35) 
4

$$$$

     RDKit          3D

 50 52  0  0  0  0  0  0  0  0999 V2000
  143.6540   72.2020  220.8740 C   0  0  0  0  0  0  0  0  0  0  0  0
  144.3980   73.3360  220.2020 C   0  0  0  0  0  0  0  0  0  0  0  0
  145.6370   73.7290  220.9350 C   0  0  0  0  0  0  0  0  0  0  0  0
  143.4190   74.5060  220.0660 C   0  0  2  0  0  0  0  0  0  0  0  0
  142.0770   74.0270  220.3330 N   0  0  0  0  0  0  0  0  0  0  0  0
  141.0870   74.8550  220.9080 C   0  0  0  0  0  0  0  0  0  0  0  0
  141.3710   76.0510  221.2030 O   0  0  0  0  0  0  0  0  0  0  0  0
  139.7430   74.2660  221.1380 C   0  0  0  0  0  0  0  0  0  0  0  0
  139.6690   73.5610  222.4000 N   0  0  0  0  0  0  0  0  0  0  0  0
  140.1590   72.2290  222.4350 C   0  0  0  0  0  0  0  0  0  0  0  0
  140.6280   71.7580  221.3510 O   0  0  0  0  0  0  0  0  0  0  0  0
  140.1320   71.4400  223.6410 C   0  0  0  0  0  0  0  0  0  0  0  0
  139.6140   70.1580  223.6020 C   0  0  0  0  0  0  0  0  0  0  0  0
  139.5560   69.3540  224.7090 C   0  0  0  0  0  0  0  0  0  0  0  0
  140.0220   69.8130  225.9060 C   0  0  0  0  0  0  0  0  0  0  0  0
  139.9570   68.9970  227.0020 C   0  0  0  0  0  0  0  0  0  0  0  0
  140.4280   69.4720  228.1970 C   0  0  0  0  0  0  0  0  0  0  0  0
  140.9490   70.7450  228.2650 C   0  0  0  0  0  0  0  0  0  0  0  0
  141.0160   71.5790  227.1480 C   0  0  0  0  0  0  0  0  0  0  0  0
  140.5390   71.0960  225.9420 C   0  0  0  0  0  0  0  0  0  0  0  0
  140.5850   71.8710  224.8350 N   0  0  0  0  0  0  0  0  0  0  0  0
  143.5540   75.2080  218.7870 C   0  0  0  0  0  0  0  0  0  0  0  0
  144.1210   74.4940  217.7270 C   0  0  0  0  0  0  0  0  0  0  0  0
  144.2870   75.0810  216.4790 C   0  0  0  0  0  0  0  0  0  0  0  0
  143.8910   76.4040  216.2500 C   0  0  0  0  0  0  0  0  0  0  0  0
  143.3360   77.0820  217.3140 C   0  0  0  0  0  0  0  0  0  0  0  0
  143.1670   76.5070  218.5580 C   0  0  0  0  0  0  0  0  0  0  0  0
  143.7264   72.3123  221.9661 H   0  0  0  0  0  0  0  0  0  0  0  0
  142.5965   72.2275  220.5721 H   0  0  0  0  0  0  0  0  0  0  0  0
  144.0984   71.2421  220.5721 H   0  0  0  0  0  0  0  0  0  0  0  0
  144.7495   73.0107  219.2117 H   0  0  0  0  0  0  0  0  0  0  0  0
  145.4558   73.6715  222.0185 H   0  0  0  0  0  0  0  0  0  0  0  0
  146.4558   73.0465  220.6634 H   0  0  0  0  0  0  0  0  0  0  0  0
  145.9127   74.7587  220.6634 H   0  0  0  0  0  0  0  0  0  0  0  0
  143.6617   75.2741  220.8151 H   0  0  0  0  0  0  0  0  0  0  0  0
  141.8470   73.0300  220.0840 H   0  0  0  0  0  0  0  0  0  0  0  0
  138.9964   75.0739  221.1381 H   0  0  0  0  0  0  0  0  0  0  0  0
  139.5464   73.5429  220.3327 H   0  0  0  0  0  0  0  0  0  0  0  0
  139.2690   74.0050  223.2670 H   0  0  0  0  0  0  0  0  0  0  0  0
  139.2342   69.7696  222.6455 H   0  0  0  0  0  0  0  0  0  0  0  0
  139.1347   68.3407  224.6331 H   0  0  0  0  0  0  0  0  0  0  0  0
  139.5364   67.9835  226.9253 H   0  0  0  0  0  0  0  0  0  0  0  0
  140.3904   68.8406  229.0970 H   0  0  0  0  0  0  0  0  0  0  0  0
  141.3242   71.1162  229.2301 H   0  0  0  0  0  0  0  0  0  0  0  0
  141.4365   72.5926  227.2241 H   0  0  0  0  0  0  0  0  0  0  0  0
  144.4401   73.4530  217.8835 H   0  0  0  0  0  0  0  0  0  0  0  0
  144.7353   74.4989  215.6604 H   0  0  0  0  0  0  0  0  0  0  0  0
  144.0169   76.8804  215.2665 H   0  0  0  0  0  0  0  0  0  0  0  0
  143.0146   78.1236  217.1661 H   0  0  0  0  0  0  0  0  0  0  0  0
  142.7186   77.0938  219.3732 H   0  0  0  0  0  0  0  0  0  0  0  0
  1  2  1  0
  2  3  1  0
  2  4  1  0
  4  5  1  0
  5  6  1  0
  6  7  2  0
  6  8  1  0
  8  9  1  0
  9 10  1  0
 10 11  2  0
 10 12  1  0
 12 13  2  0
 13 14  1  0
 14 15  2  0
 15 16  1  0
 16 17  2  0
 17 18  1  0
 18 19  2  0
 19 20  1  0
 20 21  2  0
  4 22  1  0
 22 23  2  0
 23 24  1  0
 24 25  2  0
 25 26  1  0
 26 27  2  0
 21 12  1  0
 27 22  1  0
 20 15  1  0
  1 28  1  0
  1 29  1  0
  1 30  1  0
  2 31  1  0
  3 32  1  0
  3 33  1  0
  3 34  1  0
  4 35  1  1
  5 36  1  0
  8 37  1  0
  8 38  1  0
  9 39  1  0
 13 40  1  0
 14 41  1  0
 16 42  1  0
 17 43  1  0
 18 44  1  0
 19 45  1  0
 23 46  1  0
 24 47  1  0
 25 48  1  0
 26 49  1  0
 27 50  1  0
M  END
>  <smiles>  (36) 
CC(C)[C@H](NC(=O)CNC(=O)c1ccc2ccccc2n1)c1ccccc1

>  <score_type>  (36) 
oracle

>  <origin>  (36) 
autodockgpu

>  <m_score__min__energy>  (36) 
-8.8300000000000001

>  <m_primary>  (36) 
energy

>  <rmsd>  (36) 
5.819429528681689

>  <m_score__min__rmsd>  (36) 
5.819429528681689

>  <meeko>  (36) 
{"free_energy": -7.66, "intermolecular_energy": -9.45, "internal_energy": -2.09, "cluster_size": 8, "cluster_id": 5, "rank_in_cluster": 7}

>  <energy>  (36) 
-7.88

>  <cluster_rmsd>  (36) 
1.65

>  <cluster>  (36) 
4

$$$$

     RDKit          3D

 50 52  0  0  0  0  0  0  0  0999 V2000
  143.8630   71.8410  220.8300 C   0  0  0  0  0  0  0  0  0  0  0  0
  144.2840   73.1440  220.1850 C   0  0  0  0  0  0  0  0  0  0  0  0
  145.6610   73.5640  220.5750 C   0  0  0  0  0  0  0  0  0  0  0  0
  143.2370   74.1980  220.5600 C   0  0  2  0  0  0  0  0  0  0  0  0
  141.9670   73.5370  220.7850 N   0  0  0  0  0  0  0  0  0  0  0  0
  141.1870   73.0330  219.7190 C   0  0  0  0  0  0  0  0  0  0  0  0
  141.6000   73.1590  218.5320 O   0  0  0  0  0  0  0  0  0  0  0  0
  139.9020   72.3700  220.0590 C   0  0  0  0  0  0  0  0  0  0  0  0
  140.0220   71.5170  221.2220 N   0  0  0  0  0  0  0  0  0  0  0  0
  139.9460   72.1370  222.4980 C   0  0  0  0  0  0  0  0  0  0  0  0
  139.7780   73.3970  222.5180 O   0  0  0  0  0  0  0  0  0  0  0  0
  140.0530   71.3780  223.7190 C   0  0  0  0  0  0  0  0  0  0  0  0
  139.6700   70.0490  223.7290 C   0  0  0  0  0  0  0  0  0  0  0  0
  139.7450   69.2710  224.8530 C   0  0  0  0  0  0  0  0  0  0  0  0
  140.2120   69.8040  226.0170 C   0  0  0  0  0  0  0  0  0  0  0  0
  140.2800   69.0120  227.1320 C   0  0  0  0  0  0  0  0  0  0  0  0
  140.7500   69.5610  228.2940 C   0  0  0  0  0  0  0  0  0  0  0  0
  141.1390   70.8830  228.3140 C   0  0  0  0  0  0  0  0  0  0  0  0
  141.0690   71.6920  227.1790 C   0  0  0  0  0  0  0  0  0  0  0  0
  140.5930   71.1340  226.0050 C   0  0  0  0  0  0  0  0  0  0  0  0
  140.5100   71.8830  224.8830 N   0  0  0  0  0  0  0  0  0  0  0  0
  143.1700   75.2950  219.5900 C   0  0  0  0  0  0  0  0  0  0  0  0
  142.5250   76.4660  219.9970 C   0  0  0  0  0  0  0  0  0  0  0  0
  142.4160   77.5560  219.1420 C   0  0  0  0  0  0  0  0  0  0  0  0
  142.9500   77.5090  217.8500 C   0  0  0  0  0  0  0  0  0  0  0  0
  143.5800   76.3410  217.4760 C   0  0  0  0  0  0  0  0  0  0  0  0
  143.6930   75.2530  218.3190 C   0  0  0  0  0  0  0  0  0  0  0  0
  143.8969   71.9459  221.9245 H   0  0  0  0  0  0  0  0  0  0  0  0
  142.8384   71.5912  220.5171 H   0  0  0  0  0  0  0  0  0  0  0  0
  144.5477   71.0390  220.5171 H   0  0  0  0  0  0  0  0  0  0  0  0
  144.3288   73.0168  219.0933 H   0  0  0  0  0  0  0  0  0  0  0  0
  145.7401   73.5881  221.6719 H   0  0  0  0  0  0  0  0  0  0  0  0
  146.3912   72.8477  220.1704 H   0  0  0  0  0  0  0  0  0  0  0  0
  145.8672   74.5659  220.1704 H   0  0  0  0  0  0  0  0  0  0  0  0
  143.5347   74.6914  221.4970 H   0  0  0  0  0  0  0  0  0  0  0  0
  141.6290   73.4340  221.7760 H   0  0  0  0  0  0  0  0  0  0  0  0
  139.1466   73.1433  220.2624 H   0  0  0  0  0  0  0  0  0  0  0  0
  139.6085   71.7410  219.2057 H   0  0  0  0  0  0  0  0  0  0  0  0
  140.1600   70.4760  221.1430 H   0  0  0  0  0  0  0  0  0  0  0  0
  139.2909   69.6003  222.7990 H   0  0  0  0  0  0  0  0  0  0  0  0
  139.4290   68.2180  224.8166 H   0  0  0  0  0  0  0  0  0  0  0  0
  139.9642   67.9590  227.0945 H   0  0  0  0  0  0  0  0  0  0  0  0
  140.8169   68.9507  229.2068 H   0  0  0  0  0  0  0  0  0  0  0  0
  141.5162   71.3137  229.2533 H   0  0  0  0  0  0  0  0  0  0  0  0
  141.3838   72.7453  227.2163 H   0  0  0  0  0  0  0  0  0  0  0  0
  142.0974   76.5258  221.0087 H   0  0  0  0  0  0  0  0  0  0  0  0
  141.9036   78.4668  219.4854 H   0  0  0  0  0  0  0  0  0  0  0  0
  142.8709   78.3649  217.1636 H   0  0  0  0  0  0  0  0  0  0  0  0
  144.0098   76.2731  216.4657 H   0  0  0  0  0  0  0  0  0  0  0  0
  144.2060   74.3445  217.9705 H   0  0  0  0  0  0  0  0  0  0  0  0
  1  2  1  0
  2  3  1  0
  2  4  1  0
  4  5  1  0
  5  6  1  0
  6  7  2  0
  6  8  1  0
  8  9  1  0
  9 10  1  0
 10 11  2  0
 10 12  1  0
 12 13  2  0
 13 14  1  0
 14 15  2  0
 15 16  1  0
 16 17  2  0
 17 18  1  0
 18 19  2  0
 19 20  1  0
 20 21  2  0
  4 22  1  0
 22 23  2  0
 23 24  1  0
 24 25  2  0
 25 26  1  0
 26 27  2  0
 21 12  1  0
 27 22  1  0
 20 15  1  0
  1 28  1  0
  1 29  1  0
  1 30  1  0
  2 31  1  0
  3 32  1  0
  3 33  1  0
  3 34  1  0
  4 35  1  1
  5 36  1  0
  8 37  1  0
  8 38  1  0
  9 39  1  0
 13 40  1  0
 14 41  1  0
 16 42  1  0
 17 43  1  0
 18 44  1  0
 19 45  1  0
 23 46  1  0
 24 47  1  0
 25 48  1  0
 26 49  1  0
 27 50  1  0
M  END
>  <smiles>  (37) 
CC(C)[C@H](NC(=O)CNC(=O)c1ccc2ccccc2n1)c1ccccc1

>  <score_type>  (37) 
oracle

>  <origin>  (37) 
autodockgpu

>  <m_score__min__energy>  (37) 
-8.8300000000000001

>  <m_primary>  (37) 
energy

>  <rmsd>  (37) 
5.5356031136318755

>  <m_score__min__rmsd>  (37) 
5.5356031136318755

>  <meeko>  (37) 
{"free_energy": -7.57, "intermolecular_energy": -9.36, "internal_energy": -1.99, "cluster_size": 8, "cluster_id": 5, "rank_in_cluster": 8}

>  <energy>  (37) 
-7.85

>  <cluster_rmsd>  (37) 
1.67

>  <cluster>  (37) 
4

$$$$

     RDKit          3D

 50 52  0  0  0  0  0  0  0  0999 V2000
  142.5840   77.8120  218.1790 C   0  0  0  0  0  0  0  0  0  0  0  0
  141.5710   78.4700  219.0920 C   0  0  0  0  0  0  0  0  0  0  0  0
  141.8310   79.9250  219.2900 C   0  0  0  0  0  0  0  0  0  0  0  0
  141.5850   77.7010  220.4170 C   0  0  2  0  0  0  0  0  0  0  0  0
  140.7190   76.5450  220.2970 N   0  0  0  0  0  0  0  0  0  0  0  0
  140.6110   75.5800  221.3240 C   0  0  0  0  0  0  0  0  0  0  0  0
  141.2870   75.7200  222.3820 O   0  0  0  0  0  0  0  0  0  0  0  0
  139.6920   74.4350  221.1000 C   0  0  0  0  0  0  0  0  0  0  0  0
  139.5160   73.6390  222.2950 N   0  0  0  0  0  0  0  0  0  0  0  0
  140.3160   72.4730  222.4280 C   0  0  0  0  0  0  0  0  0  0  0  0
  141.1280   72.2200  221.4830 O   0  0  0  0  0  0  0  0  0  0  0  0
  140.2190   71.6120  223.5800 C   0  0  0  0  0  0  0  0  0  0  0  0
  139.6040   70.3790  223.4560 C   0  0  0  0  0  0  0  0  0  0  0  0
  139.4760   69.5110  224.5080 C   0  0  0  0  0  0  0  0  0  0  0  0
  139.9680   69.8540  225.7330 C   0  0  0  0  0  0  0  0  0  0  0  0
  139.8320   68.9750  226.7730 C   0  0  0  0  0  0  0  0  0  0  0  0
  140.3290   69.3330  227.9970 C   0  0  0  0  0  0  0  0  0  0  0  0
  140.9480   70.5540  228.1500 C   0  0  0  0  0  0  0  0  0  0  0  0
  141.0870   71.4520  227.0910 C   0  0  0  0  0  0  0  0  0  0  0  0
  140.5820   71.0870  225.8540 C   0  0  0  0  0  0  0  0  0  0  0  0
  140.6960   71.9270  224.8010 N   0  0  0  0  0  0  0  0  0  0  0  0
  141.2770   78.5560  221.5670 C   0  0  0  0  0  0  0  0  0  0  0  0
  142.3590   79.0600  222.2930 C   0  0  0  0  0  0  0  0  0  0  0  0
  142.1590   79.8790  223.3970 C   0  0  0  0  0  0  0  0  0  0  0  0
  140.8670   80.2200  223.8120 C   0  0  0  0  0  0  0  0  0  0  0  0
  139.8190   79.7070  223.0760 C   0  0  0  0  0  0  0  0  0  0  0  0
  140.0090   78.8930  221.9770 C   0  0  0  0  0  0  0  0  0  0  0  0
  143.3537   77.3120  218.7853 H   0  0  0  0  0  0  0  0  0  0  0  0
  142.0779   77.0698  217.5442 H   0  0  0  0  0  0  0  0  0  0  0  0
  143.0563   78.5762  217.5442 H   0  0  0  0  0  0  0  0  0  0  0  0
  140.5736   78.4242  218.6303 H   0  0  0  0  0  0  0  0  0  0  0  0
  141.8707   80.1472  220.3666 H   0  0  0  0  0  0  0  0  0  0  0  0
  142.7912   80.1925  218.8247 H   0  0  0  0  0  0  0  0  0  0  0  0
  141.0229   80.5085  218.8247 H   0  0  0  0  0  0  0  0  0  0  0  0
  142.6046   77.3419  220.6206 H   0  0  0  0  0  0  0  0  0  0  0  0
  140.1570   76.4350  219.4130 H   0  0  0  0  0  0  0  0  0  0  0  0
  138.7122   74.8226  220.7841 H   0  0  0  0  0  0  0  0  0  0  0  0
  140.1341   73.7913  220.3253 H   0  0  0  0  0  0  0  0  0  0  0  0
  138.8260   73.9000  223.0460 H   0  0  0  0  0  0  0  0  0  0  0  0
  139.2025   70.0844  222.4752 H   0  0  0  0  0  0  0  0  0  0  0  0
  138.9781   68.5406  224.3653 H   0  0  0  0  0  0  0  0  0  0  0  0
  139.3353   68.0042  226.6287 H   0  0  0  0  0  0  0  0  0  0  0  0
  140.2346   68.6495  228.8537 H   0  0  0  0  0  0  0  0  0  0  0  0
  141.3452   70.8298  229.1380 H   0  0  0  0  0  0  0  0  0  0  0  0
  141.5839   72.4228  227.2346 H   0  0  0  0  0  0  0  0  0  0  0  0
  143.3839   78.8046  221.9860 H   0  0  0  0  0  0  0  0  0  0  0  0
  143.0271   80.2643  223.9519 H   0  0  0  0  0  0  0  0  0  0  0  0
  140.6949   80.8672  224.6847 H   0  0  0  0  0  0  0  0  0  0  0  0
  138.7907   79.9564  223.3768 H   0  0  0  0  0  0  0  0  0  0  0  0
  139.1379   78.5108  221.4247 H   0  0  0  0  0  0  0  0  0  0  0  0
  1  2  1  0
  2  3  1  0
  2  4  1  0
  4  5  1  0
  5  6  1  0
  6  7  2  0
  6  8  1  0
  8  9  1  0
  9 10  1  0
 10 11  2  0
 10 12  1  0
 12 13  2  0
 13 14  1  0
 14 15  2  0
 15 16  1  0
 16 17  2  0
 17 18  1  0
 18 19  2  0
 19 20  1  0
 20 21  2  0
  4 22  1  0
 22 23  2  0
 23 24  1  0
 24 25  2  0
 25 26  1  0
 26 27  2  0
 21 12  1  0
 27 22  1  0
 20 15  1  0
  1 28  1  0
  1 29  1  0
  1 30  1  0
  2 31  1  0
  3 32  1  0
  3 33  1  0
  3 34  1  0
  4 35  1  1
  5 36  1  0
  8 37  1  0
  8 38  1  0
  9 39  1  0
 13 40  1  0
 14 41  1  0
 16 42  1  0
 17 43  1  0
 18 44  1  0
 19 45  1  0
 23 46  1  0
 24 47  1  0
 25 48  1  0
 26 49  1  0
 27 50  1  0
M  END
>  <smiles>  (38) 
CC(C)[C@H](NC(=O)CNC(=O)c1ccc2ccccc2n1)c1ccccc1

>  <score_type>  (38) 
oracle

>  <origin>  (38) 
autodockgpu

>  <m_score__min__energy>  (38) 
-8.8300000000000001

>  <m_primary>  (38) 
energy

>  <rmsd>  (38) 
4.072608562458741

>  <m_score__min__rmsd>  (38) 
4.072608562458741

>  <meeko>  (38) 
{"free_energy": -8.51, "intermolecular_energy": -10.3, "internal_energy": -1.23, "cluster_size": 23, "cluster_id": 1, "rank_in_cluster": 16}

>  <energy>  (38) 
-7.84

>  <cluster_rmsd>  (38) 
1.82

>  <cluster>  (38) 
4

$$$$

     RDKit          3D

 50 52  0  0  0  0  0  0  0  0999 V2000
  141.2610   76.8320  220.9540 C   0  0  0  0  0  0  0  0  0  0  0  0
  142.3210   76.4730  219.9350 C   0  0  0  0  0  0  0  0  0  0  0  0
  142.2330   77.2960  218.6940 C   0  0  0  0  0  0  0  0  0  0  0  0
  142.1810   74.9760  219.6390 C   0  0  2  0  0  0  0  0  0  0  0  0
  140.8900   74.5240  220.1190 N   0  0  0  0  0  0  0  0  0  0  0  0
  140.1600   73.5090  219.4590 C   0  0  0  0  0  0  0  0  0  0  0  0
  140.6380   72.9760  218.4180 O   0  0  0  0  0  0  0  0  0  0  0  0
  138.8480   73.1190  220.0350 C   0  0  0  0  0  0  0  0  0  0  0  0
  138.9880   72.1320  221.0850 N   0  0  0  0  0  0  0  0  0  0  0  0
  139.5610   72.5590  222.3120 C   0  0  0  0  0  0  0  0  0  0  0  0
  139.9070   73.7800  222.3920 O   0  0  0  0  0  0  0  0  0  0  0  0
  139.7450   71.6570  223.4200 C   0  0  0  0  0  0  0  0  0  0  0  0
  139.3880   70.3280  223.2810 C   0  0  0  0  0  0  0  0  0  0  0  0
  139.5350   69.4170  224.2930 C   0  0  0  0  0  0  0  0  0  0  0  0
  140.0510   69.8120  225.4910 C   0  0  0  0  0  0  0  0  0  0  0  0
  140.1910   68.8880  226.4910 C   0  0  0  0  0  0  0  0  0  0  0  0
  140.7090   69.2990  227.6900 C   0  0  0  0  0  0  0  0  0  0  0  0
  141.0740   70.6170  227.8580 C   0  0  0  0  0  0  0  0  0  0  0  0
  140.9320   71.5600  226.8390 C   0  0  0  0  0  0  0  0  0  0  0  0
  140.4060   71.1410  225.6280 C   0  0  0  0  0  0  0  0  0  0  0  0
  140.2520   72.0230  224.6150 N   0  0  0  0  0  0  0  0  0  0  0  0
  143.3110   74.1940  220.1480 C   0  0  0  0  0  0  0  0  0  0  0  0
  144.5210   74.8670  220.3280 C   0  0  0  0  0  0  0  0  0  0  0  0
  145.6440   74.2030  220.8070 C   0  0  0  0  0  0  0  0  0  0  0  0
  145.5910   72.8410  221.1210 C   0  0  0  0  0  0  0  0  0  0  0  0
  144.3830   72.2030  220.9330 C   0  0  0  0  0  0  0  0  0  0  0  0
  143.2630   72.8550  220.4570 C   0  0  0  0  0  0  0  0  0  0  0  0
  141.6655   76.6950  221.9677 H   0  0  0  0  0  0  0  0  0  0  0  0
  140.9617   77.8816  220.8174 H   0  0  0  0  0  0  0  0  0  0  0  0
  140.3854   76.1803  220.8174 H   0  0  0  0  0  0  0  0  0  0  0  0
  143.3169   76.6931  220.3469 H   0  0  0  0  0  0  0  0  0  0  0  0
  142.1196   78.3562  218.9644 H   0  0  0  0  0  0  0  0  0  0  0  0
  143.1503   77.1648  218.1012 H   0  0  0  0  0  0  0  0  0  0  0  0
  141.3642   76.9739  218.1012 H   0  0  0  0  0  0  0  0  0  0  0  0
  142.2161   74.8120  218.5519 H   0  0  0  0  0  0  0  0  0  0  0  0
  140.4980   74.9720  220.9870 H   0  0  0  0  0  0  0  0  0  0  0  0
  138.3629   74.0141  220.4515 H   0  0  0  0  0  0  0  0  0  0  0  0
  138.2424   72.6757  219.2308 H   0  0  0  0  0  0  0  0  0  0  0  0
  138.6820   71.1320  220.9590 H   0  0  0  0  0  0  0  0  0  0  0  0
  138.9702   69.9899  222.3213 H   0  0  0  0  0  0  0  0  0  0  0  0
  139.2374   68.3692  224.1393 H   0  0  0  0  0  0  0  0  0  0  0  0
  139.8944   67.8403  226.3352 H   0  0  0  0  0  0  0  0  0  0  0  0
  140.8330   68.5812  228.5143 H   0  0  0  0  0  0  0  0  0  0  0  0
  141.4901   70.9358  228.8251 H   0  0  0  0  0  0  0  0  0  0  0  0
  141.2297   72.6076  226.9933 H   0  0  0  0  0  0  0  0  0  0  0  0
  144.5864   75.9383  220.0872 H   0  0  0  0  0  0  0  0  0  0  0  0
  146.5859   74.7552  220.9408 H   0  0  0  0  0  0  0  0  0  0  0  0
  146.4725   72.3035  221.5005 H   0  0  0  0  0  0  0  0  0  0  0  0
  144.3088   71.1318  221.1718 H   0  0  0  0  0  0  0  0  0  0  0  0
  142.3237   72.2983  220.3237 H   0  0  0  0  0  0  0  0  0  0  0  0
  1  2  1  0
  2  3  1  0
  2  4  1  0
  4  5  1  0
  5  6  1  0
  6  7  2  0
  6  8  1  0
  8  9  1  0
  9 10  1  0
 10 11  2  0
 10 12  1  0
 12 13  2  0
 13 14  1  0
 14 15  2  0
 15 16  1  0
 16 17  2  0
 17 18  1  0
 18 19  2  0
 19 20  1  0
 20 21  2  0
  4 22  1  0
 22 23  2  0
 23 24  1  0
 24 25  2  0
 25 26  1  0
 26 27  2  0
 21 12  1  0
 27 22  1  0
 20 15  1  0
  1 28  1  0
  1 29  1  0
  1 30  1  0
  2 31  1  0
  3 32  1  0
  3 33  1  0
  3 34  1  0
  4 35  1  6
  5 36  1  0
  8 37  1  0
  8 38  1  0
  9 39  1  0
 13 40  1  0
 14 41  1  0
 16 42  1  0
 17 43  1  0
 18 44  1  0
 19 45  1  0
 23 46  1  0
 24 47  1  0
 25 48  1  0
 26 49  1  0
 27 50  1  0
M  END
>  <smiles>  (39) 
CC(C)[C@H](NC(=O)CNC(=O)c1ccc2ccccc2n1)c1ccccc1

>  <score_type>  (39) 
oracle

>  <origin>  (39) 
autodockgpu

>  <m_score__min__energy>  (39) 
-8.8300000000000001

>  <m_primary>  (39) 
energy

>  <rmsd>  (39) 
6.406806182846594

>  <m_score__min__rmsd>  (39) 
6.406806182846594

>  <meeko>  (39) 
{"free_energy": -7.41, "intermolecular_energy": -9.2, "internal_energy": -1.99, "cluster_size": 11, "cluster_id": 4, "rank_in_cluster": 11}

>  <energy>  (39) 
-7.41

>  <cluster_rmsd>  (39) 
1.27

>  <cluster>  (39) 
4

$$$$

     RDKit          3D

 50 52  0  0  0  0  0  0  0  0999 V2000
  135.9310   74.4750  223.4210 C   0  0  0  0  0  0  0  0  0  0  0  0
  136.5200   75.8680  223.4910 C   0  0  0  0  0  0  0  0  0  0  0  0
  135.4830   76.9380  223.4350 C   0  0  0  0  0  0  0  0  0  0  0  0
  137.5330   75.9920  222.3480 C   0  0  2  0  0  0  0  0  0  0  0  0
  138.0210   74.6700  222.0090 N   0  0  0  0  0  0  0  0  0  0  0  0
  137.8330   74.1090  220.7260 C   0  0  0  0  0  0  0  0  0  0  0  0
  137.2210   74.7720  219.8410 O   0  0  0  0  0  0  0  0  0  0  0  0
  138.3750   72.7480  220.4830 C   0  0  0  0  0  0  0  0  0  0  0  0
  138.4140   71.9550  221.6930 N   0  0  0  0  0  0  0  0  0  0  0  0
  139.4970   72.1780  222.5850 C   0  0  0  0  0  0  0  0  0  0  0  0
  140.3480   73.0610  222.2490 O   0  0  0  0  0  0  0  0  0  0  0  0
  139.6300   71.4430  223.8170 C   0  0  0  0  0  0  0  0  0  0  0  0
  139.1020   70.1680  223.9080 C   0  0  0  0  0  0  0  0  0  0  0  0
  139.1920   69.4140  225.0480 C   0  0  0  0  0  0  0  0  0  0  0  0
  139.8220   69.9190  226.1470 C   0  0  0  0  0  0  0  0  0  0  0  0
  139.9030   69.1510  227.2770 C   0  0  0  0  0  0  0  0  0  0  0  0
  140.5370   69.6710  228.3730 C   0  0  0  0  0  0  0  0  0  0  0  0
  141.0740   70.9390  228.3120 C   0  0  0  0  0  0  0  0  0  0  0  0
  140.9920   71.7230  227.1600 C   0  0  0  0  0  0  0  0  0  0  0  0
  140.3490   71.1940  226.0530 C   0  0  0  0  0  0  0  0  0  0  0  0
  140.2470   71.9200  224.9170 N   0  0  0  0  0  0  0  0  0  0  0  0
  138.5940   76.9600  222.6390 C   0  0  0  0  0  0  0  0  0  0  0  0
  139.9120   76.5340  222.4540 C   0  0  0  0  0  0  0  0  0  0  0  0
  140.9800   77.3860  222.7050 C   0  0  0  0  0  0  0  0  0  0  0  0
  140.7640   78.6940  223.1520 C   0  0  0  0  0  0  0  0  0  0  0  0
  139.4540   79.0860  223.3260 C   0  0  0  0  0  0  0  0  0  0  0  0
  138.3860   78.2460  223.0780 C   0  0  0  0  0  0  0  0  0  0  0  0
  135.7697   74.0935  224.4400 H   0  0  0  0  0  0  0  0  0  0  0  0
  134.9705   74.5095  222.8861 H   0  0  0  0  0  0  0  0  0  0  0  0
  136.6249   73.8099  222.8861 H   0  0  0  0  0  0  0  0  0  0  0  0
  137.0158   76.0103  224.4626 H   0  0  0  0  0  0  0  0  0  0  0  0
  135.2009   77.2291  224.4576 H   0  0  0  0  0  0  0  0  0  0  0  0
  135.8865   77.8122  222.9030 H   0  0  0  0  0  0  0  0  0  0  0  0
  134.5966   76.5621  222.9030 H   0  0  0  0  0  0  0  0  0  0  0  0
  137.0337   76.4074  221.4602 H   0  0  0  0  0  0  0  0  0  0  0  0
  138.5310   74.1240  222.7510 H   0  0  0  0  0  0  0  0  0  0  0  0
  137.7377   72.2386  219.7452 H   0  0  0  0  0  0  0  0  0  0  0  0
  139.4056   72.8541  220.1135 H   0  0  0  0  0  0  0  0  0  0  0  0
  137.6780   71.2370  221.9180 H   0  0  0  0  0  0  0  0  0  0  0  0
  138.5904   69.7433  223.0317 H   0  0  0  0  0  0  0  0  0  0  0  0
  138.7573   68.4040  225.0769 H   0  0  0  0  0  0  0  0  0  0  0  0
  139.4692   68.1405  227.3037 H   0  0  0  0  0  0  0  0  0  0  0  0
  140.6175   69.0802  229.2974 H   0  0  0  0  0  0  0  0  0  0  0  0
  141.5828   71.3456  229.1984 H   0  0  0  0  0  0  0  0  0  0  0  0
  141.4261   72.7333  227.1320 H   0  0  0  0  0  0  0  0  0  0  0  0
  140.1065   75.5093  222.1046 H   0  0  0  0  0  0  0  0  0  0  0  0
  142.0085   77.0278  222.5504 H   0  0  0  0  0  0  0  0  0  0  0  0
  141.6011   79.3781  223.3552 H   0  0  0  0  0  0  0  0  0  0  0  0
  139.2510   80.1088  223.6764 H   0  0  0  0  0  0  0  0  0  0  0  0
  137.3594   78.6094  223.2332 H   0  0  0  0  0  0  0  0  0  0  0  0
  1  2  1  0
  2  3  1  0
  2  4  1  0
  4  5  1  0
  5  6  1  0
  6  7  2  0
  6  8  1  0
  8  9  1  0
  9 10  1  0
 10 11  2  0
 10 12  1  0
 12 13  2  0
 13 14  1  0
 14 15  2  0
 15 16  1  0
 16 17  2  0
 17 18  1  0
 18 19  2  0
 19 20  1  0
 20 21  2  0
  4 22  1  0
 22 23  2  0
 23 24  1  0
 24 25  2  0
 25 26  1  0
 26 27  2  0
 21 12  1  0
 27 22  1  0
 20 15  1  0
  1 28  1  0
  1 29  1  0
  1 30  1  0
  2 31  1  0
  3 32  1  0
  3 33  1  0
  3 34  1  0
  4 35  1  6
  5 36  1  0
  8 37  1  0
  8 38  1  0
  9 39  1  0
 13 40  1  0
 14 41  1  0
 16 42  1  0
 17 43  1  0
 18 44  1  0
 19 45  1  0
 23 46  1  0
 24 47  1  0
 25 48  1  0
 26 49  1  0
 27 50  1  0
M  END
>  <smiles>  (40) 
CC(C)[C@H](NC(=O)CNC(=O)c1ccc2ccccc2n1)c1ccccc1

>  <score_type>  (40) 
oracle

>  <origin>  (40) 
autodockgpu

>  <m_score__min__energy>  (40) 
-8.8300000000000001

>  <m_primary>  (40) 
energy

>  <rmsd>  (40) 
4.937773073444272

>  <m_score__min__rmsd>  (40) 
4.937773073444272

>  <meeko>  (40) 
{"free_energy": -7.65, "intermolecular_energy": -9.44, "internal_energy": -2.12, "cluster_size": 4, "cluster_id": 3, "rank_in_cluster": 4}

>  <energy>  (40) 
-8.23

>  <cluster_rmsd>  (40) 
0.0

>  <cluster>  (40) 
5

$$$$

     RDKit          3D

 50 52  0  0  0  0  0  0  0  0999 V2000
  140.4440   79.3510  223.7600 C   0  0  0  0  0  0  0  0  0  0  0  0
  141.4460   78.6390  222.8760 C   0  0  0  0  0  0  0  0  0  0  0  0
  142.7250   79.3920  222.7280 C   0  0  0  0  0  0  0  0  0  0  0  0
  140.7670   78.3950  221.5230 C   0  0  2  0  0  0  0  0  0  0  0  0
  140.8480   76.9830  221.2080 N   0  0  0  0  0  0  0  0  0  0  0  0
  139.8640   76.0630  221.6340 C   0  0  0  0  0  0  0  0  0  0  0  0
  138.8800   76.4750  222.3130 O   0  0  0  0  0  0  0  0  0  0  0  0
  140.0410   74.6380  221.2560 C   0  0  0  0  0  0  0  0  0  0  0  0
  139.7240   73.7430  222.3470 N   0  0  0  0  0  0  0  0  0  0  0  0
  140.5340   72.5860  222.5000 C   0  0  0  0  0  0  0  0  0  0  0  0
  141.4770   72.4280  221.6630 O   0  0  0  0  0  0  0  0  0  0  0  0
  140.3030   71.6310  223.5540 C   0  0  0  0  0  0  0  0  0  0  0  0
  139.6080   70.4670  223.2760 C   0  0  0  0  0  0  0  0  0  0  0  0
  139.3530   69.5180  224.2300 C   0  0  0  0  0  0  0  0  0  0  0  0
  139.7910   69.7040  225.5070 C   0  0  0  0  0  0  0  0  0  0  0  0
  139.5280   68.7440  226.4470 C   0  0  0  0  0  0  0  0  0  0  0  0
  139.9740   68.9450  227.7250 C   0  0  0  0  0  0  0  0  0  0  0  0
  140.6690   70.0950  228.0310 C   0  0  0  0  0  0  0  0  0  0  0  0
  140.9390   71.0740  227.0740 C   0  0  0  0  0  0  0  0  0  0  0  0
  140.4860   70.8680  225.7820 C   0  0  0  0  0  0  0  0  0  0  0  0
  140.7250   71.7920  224.8240 N   0  0  0  0  0  0  0  0  0  0  0  0
  141.2860   79.2700  220.4680 C   0  0  0  0  0  0  0  0  0  0  0  0
  140.9680   80.6280  220.5540 C   0  0  0  0  0  0  0  0  0  0  0  0
  141.4180   81.5280  219.5960 C   0  0  0  0  0  0  0  0  0  0  0  0
  142.2020   81.0980  218.5200 C   0  0  0  0  0  0  0  0  0  0  0  0
  142.4980   79.7530  218.4620 C   0  0  0  0  0  0  0  0  0  0  0  0
  142.0550   78.8510  219.4090 C   0  0  0  0  0  0  0  0  0  0  0  0
  140.6949   79.1727  224.8160 H   0  0  0  0  0  0  0  0  0  0  0  0
  140.4748   80.4309  223.5531 H   0  0  0  0  0  0  0  0  0  0  0  0
  139.4343   78.9667  223.5531 H   0  0  0  0  0  0  0  0  0  0  0  0
  141.7349   77.6849  223.3411 H   0  0  0  0  0  0  0  0  0  0  0  0
  143.1281   79.6293  223.7236 H   0  0  0  0  0  0  0  0  0  0  0  0
  143.4507   78.7770  222.1756 H   0  0  0  0  0  0  0  0  0  0  0  0
  142.5394   80.3250  222.1756 H   0  0  0  0  0  0  0  0  0  0  0  0
  139.7034   78.6673  221.5914 H   0  0  0  0  0  0  0  0  0  0  0  0
  141.6690   76.6470  220.6420 H   0  0  0  0  0  0  0  0  0  0  0  0
  139.3791   74.4112  220.4072 H   0  0  0  0  0  0  0  0  0  0  0  0
  141.0974   74.4867  220.9893 H   0  0  0  0  0  0  0  0  0  0  0  0
  138.9270   73.9270  223.0110 H   0  0  0  0  0  0  0  0  0  0  0  0
  139.2470   70.2977  222.2508 H   0  0  0  0  0  0  0  0  0  0  0  0
  138.7956   68.6072  223.9659 H   0  0  0  0  0  0  0  0  0  0  0  0
  138.9716   67.8331  226.1814 H   0  0  0  0  0  0  0  0  0  0  0  0
  139.7789   68.1929  228.5036 H   0  0  0  0  0  0  0  0  0  0  0  0
  141.0220   70.2459  229.0619 H   0  0  0  0  0  0  0  0  0  0  0  0
  141.4965   71.9845  227.3389 H   0  0  0  0  0  0  0  0  0  0  0  0
  140.3531   80.9893  221.3915 H   0  0  0  0  0  0  0  0  0  0  0  0
  141.1545   82.5923  219.6846 H   0  0  0  0  0  0  0  0  0  0  0  0
  142.5654   81.8007  217.7557 H   0  0  0  0  0  0  0  0  0  0  0  0
  143.1120   79.3833  217.6275 H   0  0  0  0  0  0  0  0  0  0  0  0
  142.3200   77.7876  219.3149 H   0  0  0  0  0  0  0  0  0  0  0  0
  1  2  1  0
  2  3  1  0
  2  4  1  0
  4  5  1  0
  5  6  1  0
  6  7  2  0
  6  8  1  0
  8  9  1  0
  9 10  1  0
 10 11  2  0
 10 12  1  0
 12 13  2  0
 13 14  1  0
 14 15  2  0
 15 16  1  0
 16 17  2  0
 17 18  1  0
 18 19  2  0
 19 20  1  0
 20 21  2  0
  4 22  1  0
 22 23  2  0
 23 24  1  0
 24 25  2  0
 25 26  1  0
 26 27  2  0
 21 12  1  0
 27 22  1  0
 20 15  1  0
  1 28  1  0
  1 29  1  0
  1 30  1  0
  2 31  1  0
  3 32  1  0
  3 33  1  0
  3 34  1  0
  4 35  1  1
  5 36  1  0
  8 37  1  0
  8 38  1  0
  9 39  1  0
 13 40  1  0
 14 41  1  0
 16 42  1  0
 17 43  1  0
 18 44  1  0
 19 45  1  0
 23 46  1  0
 24 47  1  0
 25 48  1  0
 26 49  1  0
 27 50  1  0
M  END
>  <smiles>  (41) 
CC(C)[C@H](NC(=O)CNC(=O)c1ccc2ccccc2n1)c1ccccc1

>  <score_type>  (41) 
oracle

>  <origin>  (41) 
autodockgpu

>  <m_score__min__energy>  (41) 
-8.8300000000000001

>  <m_primary>  (41) 
energy

>  <rmsd>  (41) 
3.5499663701009143

>  <m_score__min__rmsd>  (41) 
3.5499663701009143

>  <meeko>  (41) 
{"free_energy": -8.3, "intermolecular_energy": -10.09, "internal_energy": -1.21, "cluster_size": 23, "cluster_id": 1, "rank_in_cluster": 21}

>  <energy>  (41) 
-8.17

>  <cluster_rmsd>  (41) 
0.07

>  <cluster>  (41) 
5

$$$$

     RDKit          3D

 50 52  0  0  0  0  0  0  0  0999 V2000
  140.4870   77.8070  218.9080 C   0  0  0  0  0  0  0  0  0  0  0  0
  141.8370   77.8690  219.5900 C   0  0  0  0  0  0  0  0  0  0  0  0
  142.8820   77.0770  218.8790 C   0  0  0  0  0  0  0  0  0  0  0  0
  141.6410   77.3900  221.0330 C   0  0  2  0  0  0  0  0  0  0  0  0
  140.5760   76.4070  221.0590 N   0  0  0  0  0  0  0  0  0  0  0  0
  140.8370   75.0200  220.9890 C   0  0  0  0  0  0  0  0  0  0  0  0
  142.0310   74.6150  220.9000 O   0  0  0  0  0  0  0  0  0  0  0  0
  139.6740   74.0980  221.0250 C   0  0  0  0  0  0  0  0  0  0  0  0
  139.5520   73.4270  222.3010 N   0  0  0  0  0  0  0  0  0  0  0  0
  140.2510   72.2020  222.4660 C   0  0  0  0  0  0  0  0  0  0  0  0
  140.9330   71.7900  221.4750 O   0  0  0  0  0  0  0  0  0  0  0  0
  140.1970   71.4550  223.6970 C   0  0  0  0  0  0  0  0  0  0  0  0
  139.6110   70.2020  223.7060 C   0  0  0  0  0  0  0  0  0  0  0  0
  139.5250   69.4380  224.8400 C   0  0  0  0  0  0  0  0  0  0  0  0
  140.0300   69.9100  226.0150 C   0  0  0  0  0  0  0  0  0  0  0  0
  139.9360   69.1330  227.1380 C   0  0  0  0  0  0  0  0  0  0  0  0
  140.4460   69.6200  228.3110 C   0  0  0  0  0  0  0  0  0  0  0  0
  141.0360   70.8650  228.3320 C   0  0  0  0  0  0  0  0  0  0  0  0
  141.1330   71.6580  227.1880 C   0  0  0  0  0  0  0  0  0  0  0  0
  140.6150   71.1630  226.0030 C   0  0  0  0  0  0  0  0  0  0  0  0
  140.6880   71.8990  224.8710 N   0  0  0  0  0  0  0  0  0  0  0  0
  141.4480   78.4990  221.9720 C   0  0  0  0  0  0  0  0  0  0  0  0
  140.3710   78.4020  222.8570 C   0  0  0  0  0  0  0  0  0  0  0  0
  140.1140   79.4070  223.7810 C   0  0  0  0  0  0  0  0  0  0  0  0
  140.9280   80.5430  223.8500 C   0  0  0  0  0  0  0  0  0  0  0  0
  141.9820   80.6100  222.9650 C   0  0  0  0  0  0  0  0  0  0  0  0
  142.2450   79.6160  222.0430 C   0  0  0  0  0  0  0  0  0  0  0  0
  139.6933   77.7705  219.6687 H   0  0  0  0  0  0  0  0  0  0  0  0
  140.3522   78.6999  218.2799 H   0  0  0  0  0  0  0  0  0  0  0  0
  140.4346   76.9055  218.2799 H   0  0  0  0  0  0  0  0  0  0  0  0
  142.2103   78.9036  219.5735 H   0  0  0  0  0  0  0  0  0  0  0  0
  143.5329   76.5837  219.6159 H   0  0  0  0  0  0  0  0  0  0  0  0
  142.3994   76.3158  218.2484 H   0  0  0  0  0  0  0  0  0  0  0  0
  143.4844   77.7474  218.2484 H   0  0  0  0  0  0  0  0  0  0  0  0
  142.5619   76.9026  221.3856 H   0  0  0  0  0  0  0  0  0  0  0  0
  139.5840   76.7510  221.1340 H   0  0  0  0  0  0  0  0  0  0  0  0
  138.7569   74.6762  220.8389 H   0  0  0  0  0  0  0  0  0  0  0  0
  139.8253   73.3308  220.2514 H   0  0  0  0  0  0  0  0  0  0  0  0
  138.9710   73.8180  223.0880 H   0  0  0  0  0  0  0  0  0  0  0  0
  139.1984   69.8040  222.7672 H   0  0  0  0  0  0  0  0  0  0  0  0
  139.0498   68.4466  224.8025 H   0  0  0  0  0  0  0  0  0  0  0  0
  139.4620   68.1411  227.0986 H   0  0  0  0  0  0  0  0  0  0  0  0
  140.3852   69.0210  229.2316 H   0  0  0  0  0  0  0  0  0  0  0  0
  141.4433   71.2457  229.2803 H   0  0  0  0  0  0  0  0  0  0  0  0
  141.6080   72.6494  227.2264 H   0  0  0  0  0  0  0  0  0  0  0  0
  139.7177   77.5177  222.8215 H   0  0  0  0  0  0  0  0  0  0  0  0
  139.2598   79.3085  224.4671 H   0  0  0  0  0  0  0  0  0  0  0  0
  140.7354   81.3455  224.5772 H   0  0  0  0  0  0  0  0  0  0  0  0
  142.6405   81.4907  222.9940 H   0  0  0  0  0  0  0  0  0  0  0  0
  143.1004   79.7195  221.3592 H   0  0  0  0  0  0  0  0  0  0  0  0
  1  2  1  0
  2  3  1  0
  2  4  1  0
  4  5  1  0
  5  6  1  0
  6  7  2  0
  6  8  1  0
  8  9  1  0
  9 10  1  0
 10 11  2  0
 10 12  1  0
 12 13  2  0
 13 14  1  0
 14 15  2  0
 15 16  1  0
 16 17  2  0
 17 18  1  0
 18 19  2  0
 19 20  1  0
 20 21  2  0
  4 22  1  0
 22 23  2  0
 23 24  1  0
 24 25  2  0
 25 26  1  0
 26 27  2  0
 21 12  1  0
 27 22  1  0
 20 15  1  0
  1 28  1  0
  1 29  1  0
  1 30  1  0
  2 31  1  0
  3 32  1  0
  3 33  1  0
  3 34  1  0
  4 35  1  1
  5 36  1  0
  8 37  1  0
  8 38  1  0
  9 39  1  0
 13 40  1  0
 14 41  1  0
 16 42  1  0
 17 43  1  0
 18 44  1  0
 19 45  1  0
 23 46  1  0
 24 47  1  0
 25 48  1  0
 26 49  1  0
 27 50  1  0
M  END
>  <smiles>  (42) 
CC(C)[C@H](NC(=O)CNC(=O)c1ccc2ccccc2n1)c1ccccc1

>  <score_type>  (42) 
oracle

>  <origin>  (42) 
autodockgpu

>  <m_score__min__energy>  (42) 
-8.8300000000000001

>  <m_primary>  (42) 
energy

>  <rmsd>  (42) 
3.925329625114087

>  <m_score__min__rmsd>  (42) 
3.925329625114087

>  <meeko>  (42) 
{"free_energy": -8.55, "intermolecular_energy": -10.34, "internal_energy": -1.23, "cluster_size": 23, "cluster_id": 1, "rank_in_cluster": 14}

>  <energy>  (42) 
-7.86

>  <cluster_rmsd>  (42) 
0.92

>  <cluster>  (42) 
5

$$$$

     RDKit          3D

 50 52  0  0  0  0  0  0  0  0999 V2000
  136.6800   75.9510  223.1430 C   0  0  0  0  0  0  0  0  0  0  0  0
  137.2570   77.3480  223.0490 C   0  0  0  0  0  0  0  0  0  0  0  0
  136.3030   78.3280  222.4540 C   0  0  0  0  0  0  0  0  0  0  0  0
  138.5560   77.2510  222.2420 C   0  0  2  0  0  0  0  0  0  0  0  0
  138.9370   75.8570  222.1340 N   0  0  0  0  0  0  0  0  0  0  0  0
  139.3230   75.2800  220.9030 C   0  0  0  0  0  0  0  0  0  0  0  0
  139.3380   75.9940  219.8590 O   0  0  0  0  0  0  0  0  0  0  0  0
  139.6960   73.8430  220.9020 C   0  0  0  0  0  0  0  0  0  0  0  0
  139.6790   73.2770  222.2330 N   0  0  0  0  0  0  0  0  0  0  0  0
  140.0750   71.9200  222.3720 C   0  0  0  0  0  0  0  0  0  0  0  0
  140.4160   71.3080  221.3110 O   0  0  0  0  0  0  0  0  0  0  0  0
  140.0950   71.2610  223.6530 C   0  0  0  0  0  0  0  0  0  0  0  0
  139.5880   69.9780  223.7650 C   0  0  0  0  0  0  0  0  0  0  0  0
  139.5740   69.2940  224.9510 C   0  0  0  0  0  0  0  0  0  0  0  0
  140.0740   69.8780  226.0770 C   0  0  0  0  0  0  0  0  0  0  0  0
  140.0530   69.1790  227.2540 C   0  0  0  0  0  0  0  0  0  0  0  0
  140.5570   69.7790  228.3760 C   0  0  0  0  0  0  0  0  0  0  0  0
  141.0690   71.0550  228.2950 C   0  0  0  0  0  0  0  0  0  0  0  0
  141.0920   71.7690  227.0960 C   0  0  0  0  0  0  0  0  0  0  0  0
  140.5800   71.1600  225.9620 C   0  0  0  0  0  0  0  0  0  0  0  0
  140.5820   71.8160  224.7810 N   0  0  0  0  0  0  0  0  0  0  0  0
  139.6140   78.1160  222.7740 C   0  0  0  0  0  0  0  0  0  0  0  0
  139.2210   79.3430  223.3120 C   0  0  0  0  0  0  0  0  0  0  0  0
  140.1570   80.2250  223.8380 C   0  0  0  0  0  0  0  0  0  0  0  0
  141.5200   79.9050  223.8420 C   0  0  0  0  0  0  0  0  0  0  0  0
  141.8760   78.6870  223.3030 C   0  0  0  0  0  0  0  0  0  0  0  0
  140.9530   77.8060  222.7780 C   0  0  0  0  0  0  0  0  0  0  0  0
  136.5649   75.6723  224.2009 H   0  0  0  0  0  0  0  0  0  0  0  0
  135.6979   75.9259  222.6482 H   0  0  0  0  0  0  0  0  0  0  0  0
  137.3581   75.2401  222.6482 H   0  0  0  0  0  0  0  0  0  0  0  0
  137.4594   77.7327  224.0595 H   0  0  0  0  0  0  0  0  0  0  0  0
  135.7799   78.8654  223.2587 H   0  0  0  0  0  0  0  0  0  0  0  0
  136.8563   79.0472  221.8322 H   0  0  0  0  0  0  0  0  0  0  0  0
  135.5692   77.7942  221.8322 H   0  0  0  0  0  0  0  0  0  0  0  0
  138.3856   77.6361  221.2258 H   0  0  0  0  0  0  0  0  0  0  0  0
  138.9230   75.2690  223.0060 H   0  0  0  0  0  0  0  0  0  0  0  0
  138.9822   73.2914  220.2726 H   0  0  0  0  0  0  0  0  0  0  0  0
  140.7204   73.7586  220.5103 H   0  0  0  0  0  0  0  0  0  0  0  0
  139.3870   73.8350  223.0770 H   0  0  0  0  0  0  0  0  0  0  0  0
  139.1810   69.4895  222.8674 H   0  0  0  0  0  0  0  0  0  0  0  0
  139.1603   68.2757  224.9953 H   0  0  0  0  0  0  0  0  0  0  0  0
  139.6410   68.1600  227.2968 H   0  0  0  0  0  0  0  0  0  0  0  0
  140.5532   69.2449  229.3376 H   0  0  0  0  0  0  0  0  0  0  0  0
  141.4723   71.5260  229.2035 H   0  0  0  0  0  0  0  0  0  0  0  0
  141.5054   72.7874  227.0527 H   0  0  0  0  0  0  0  0  0  0  0  0
  138.1553   79.6153  223.3195 H   0  0  0  0  0  0  0  0  0  0  0  0
  139.8231   81.1861  224.2562 H   0  0  0  0  0  0  0  0  0  0  0  0
  142.2717   80.5932  224.2558 H   0  0  0  0  0  0  0  0  0  0  0  0
  142.9395   78.4061  223.2910 H   0  0  0  0  0  0  0  0  0  0  0  0
  141.2918   76.8470  222.3589 H   0  0  0  0  0  0  0  0  0  0  0  0
  1  2  1  0
  2  3  1  0
  2  4  1  0
  4  5  1  0
  5  6  1  0
  6  7  2  0
  6  8  1  0
  8  9  1  0
  9 10  1  0
 10 11  2  0
 10 12  1  0
 12 13  2  0
 13 14  1  0
 14 15  2  0
 15 16  1  0
 16 17  2  0
 17 18  1  0
 18 19  2  0
 19 20  1  0
 20 21  2  0
  4 22  1  0
 22 23  2  0
 23 24  1  0
 24 25  2  0
 25 26  1  0
 26 27  2  0
 21 12  1  0
 27 22  1  0
 20 15  1  0
  1 28  1  0
  1 29  1  0
  1 30  1  0
  2 31  1  0
  3 32  1  0
  3 33  1  0
  3 34  1  0
  4 35  1  6
  5 36  1  0
  8 37  1  0
  8 38  1  0
  9 39  1  0
 13 40  1  0
 14 41  1  0
 16 42  1  0
 17 43  1  0
 18 44  1  0
 19 45  1  0
 23 46  1  0
 24 47  1  0
 25 48  1  0
 26 49  1  0
 27 50  1  0
M  END
>  <smiles>  (43) 
CC(C)[C@H](NC(=O)CNC(=O)c1ccc2ccccc2n1)c1ccccc1

>  <score_type>  (43) 
oracle

>  <origin>  (43) 
autodockgpu

>  <m_score__min__energy>  (43) 
-8.8300000000000001

>  <m_primary>  (43) 
energy

>  <rmsd>  (43) 
4.290884837078207

>  <m_score__min__rmsd>  (43) 
4.290884837078207

>  <meeko>  (43) 
{"free_energy": -8.5, "intermolecular_energy": -10.29, "internal_energy": -1.28, "cluster_size": 4, "cluster_id": 3, "rank_in_cluster": 1}

>  <energy>  (43) 
-7.85

>  <cluster_rmsd>  (43) 
0.93

>  <cluster>  (43) 
5

$$$$

     RDKit          3D

 50 52  0  0  0  0  0  0  0  0999 V2000
  143.9230   72.2640  220.8120 C   0  0  0  0  0  0  0  0  0  0  0  0
  144.3190   73.6100  220.2430 C   0  0  0  0  0  0  0  0  0  0  0  0
  145.6010   74.1220  220.8090 C   0  0  0  0  0  0  0  0  0  0  0  0
  143.1560   74.5740  220.5000 C   0  0  2  0  0  0  0  0  0  0  0  0
  141.9360   73.8050  220.6510 N   0  0  0  0  0  0  0  0  0  0  0  0
  140.7980   74.3290  221.3030 C   0  0  0  0  0  0  0  0  0  0  0  0
  140.8350   75.5020  221.7730 O   0  0  0  0  0  0  0  0  0  0  0  0
  139.5980   73.4590  221.4030 C   0  0  0  0  0  0  0  0  0  0  0  0
  139.4950   72.8230  222.6990 N   0  0  0  0  0  0  0  0  0  0  0  0
  140.5370   71.9330  223.0750 C   0  0  0  0  0  0  0  0  0  0  0  0
  141.4810   71.7650  222.2400 O   0  0  0  0  0  0  0  0  0  0  0  0
  140.5310   71.2490  224.3430 C   0  0  0  0  0  0  0  0  0  0  0  0
  141.0410   71.8850  225.4610 C   0  0  0  0  0  0  0  0  0  0  0  0
  141.0670   71.2930  226.6960 C   0  0  0  0  0  0  0  0  0  0  0  0
  140.5770   70.0310  226.8540 C   0  0  0  0  0  0  0  0  0  0  0  0
  140.6110   69.4560  228.0950 C   0  0  0  0  0  0  0  0  0  0  0  0
  140.1160   68.1870  228.2380 C   0  0  0  0  0  0  0  0  0  0  0  0
  139.6010   67.5290  227.1430 C   0  0  0  0  0  0  0  0  0  0  0  0
  139.5660   68.1150  225.8760 C   0  0  0  0  0  0  0  0  0  0  0  0
  140.0680   69.3970  225.7340 C   0  0  0  0  0  0  0  0  0  0  0  0
  140.0530   70.0010  224.5250 N   0  0  0  0  0  0  0  0  0  0  0  0
  143.0690   75.6320  219.4890 C   0  0  0  0  0  0  0  0  0  0  0  0
  143.4620   75.3030  218.1890 C   0  0  0  0  0  0  0  0  0  0  0  0
  143.4110   76.2440  217.1680 C   0  0  0  0  0  0  0  0  0  0  0  0
  142.9650   77.5470  217.4160 C   0  0  0  0  0  0  0  0  0  0  0  0
  142.5850   77.8410  218.7080 C   0  0  0  0  0  0  0  0  0  0  0  0
  142.6320   76.9130  219.7290 C   0  0  0  0  0  0  0  0  0  0  0  0
  143.9371   72.3119  221.9109 H   0  0  0  0  0  0  0  0  0  0  0  0
  142.9105   72.0046  220.4693 H   0  0  0  0  0  0  0  0  0  0  0  0
  144.6337   71.4976  220.4693 H   0  0  0  0  0  0  0  0  0  0  0  0
  144.5076   73.5126  219.1637 H   0  0  0  0  0  0  0  0  0  0  0  0
  145.5507   74.1019  221.9077 H   0  0  0  0  0  0  0  0  0  0  0  0
  146.4319   73.4867  220.4683 H   0  0  0  0  0  0  0  0  0  0  0  0
  145.7656   75.1549  220.4683 H   0  0  0  0  0  0  0  0  0  0  0  0
  143.3326   75.1195  221.4387 H   0  0  0  0  0  0  0  0  0  0  0  0
  141.9120   72.8290  220.2570 H   0  0  0  0  0  0  0  0  0  0  0  0
  138.7001   74.0721  221.2361 H   0  0  0  0  0  0  0  0  0  0  0  0
  139.6875   72.6686  220.6432 H   0  0  0  0  0  0  0  0  0  0  0  0
  138.6870   73.0020  223.3490 H   0  0  0  0  0  0  0  0  0  0  0  0
  141.4406   72.9043  225.3540 H   0  0  0  0  0  0  0  0  0  0  0  0
  141.4825   71.8349  227.5584 H   0  0  0  0  0  0  0  0  0  0  0  0
  141.0257   69.9995  228.9567 H   0  0  0  0  0  0  0  0  0  0  0  0
  140.1297   67.6959  229.2222 H   0  0  0  0  0  0  0  0  0  0  0  0
  139.2051   66.5106  227.2705 H   0  0  0  0  0  0  0  0  0  0  0  0
  139.1506   67.5724  225.0140 H   0  0  0  0  0  0  0  0  0  0  0  0
  143.8167   74.2848  217.9709 H   0  0  0  0  0  0  0  0  0  0  0  0
  143.7250   75.9613  216.1524 H   0  0  0  0  0  0  0  0  0  0  0  0
  142.9197   78.3016  216.6170 H   0  0  0  0  0  0  0  0  0  0  0  0
  142.2297   78.8570  218.9348 H   0  0  0  0  0  0  0  0  0  0  0  0
  142.3172   77.2010  220.7429 H   0  0  0  0  0  0  0  0  0  0  0  0
  1  2  1  0
  2  3  1  0
  2  4  1  0
  4  5  1  0
  5  6  1  0
  6  7  2  0
  6  8  1  0
  8  9  1  0
  9 10  1  0
 10 11  2  0
 10 12  1  0
 12 13  2  0
 13 14  1  0
 14 15  2  0
 15 16  1  0
 16 17  2  0
 17 18  1  0
 18 19  2  0
 19 20  1  0
 20 21  2  0
  4 22  1  0
 22 23  2  0
 23 24  1  0
 24 25  2  0
 25 26  1  0
 26 27  2  0
 21 12  1  0
 27 22  1  0
 20 15  1  0
  1 28  1  0
  1 29  1  0
  1 30  1  0
  2 31  1  0
  3 32  1  0
  3 33  1  0
  3 34  1  0
  4 35  1  1
  5 36  1  0
  8 37  1  0
  8 38  1  0
  9 39  1  0
 13 40  1  0
 14 41  1  0
 16 42  1  0
 17 43  1  0
 18 44  1  0
 19 45  1  0
 23 46  1  0
 24 47  1  0
 25 48  1  0
 26 49  1  0
 27 50  1  0
M  END
>  <smiles>  (44) 
CC(C)[C@H](NC(=O)CNC(=O)c1ccc2ccccc2n1)c1ccccc1

>  <score_type>  (44) 
oracle

>  <origin>  (44) 
autodockgpu

>  <m_score__min__energy>  (44) 
-8.8300000000000001

>  <m_primary>  (44) 
energy

>  <rmsd>  (44) 
5.14352297183351

>  <m_score__min__rmsd>  (44) 
5.14352297183351

>  <meeko>  (44) 
{"free_energy": -8.23, "intermolecular_energy": -10.02, "internal_energy": -1.75, "cluster_size": 8, "cluster_id": 5, "rank_in_cluster": 1}

>  <energy>  (44) 
-7.83

>  <cluster_rmsd>  (44) 
0.95

>  <cluster>  (44) 
5

$$$$

     RDKit          3D

 50 52  0  0  0  0  0  0  0  0999 V2000
  142.7270   77.4270  218.6390 C   0  0  0  0  0  0  0  0  0  0  0  0
  141.5930   78.1680  219.3140 C   0  0  0  0  0  0  0  0  0  0  0  0
  141.8310   79.6380  219.3970 C   0  0  0  0  0  0  0  0  0  0  0  0
  141.4000   77.5420  220.6990 C   0  0  2  0  0  0  0  0  0  0  0  0
  140.3570   76.5390  220.6180 N   0  0  0  0  0  0  0  0  0  0  0  0
  140.4610   75.2960  221.2820 C   0  0  0  0  0  0  0  0  0  0  0  0
  141.4910   75.0420  221.9700 O   0  0  0  0  0  0  0  0  0  0  0  0
  139.3350   74.3390  221.1340 C   0  0  0  0  0  0  0  0  0  0  0  0
  139.1620   73.5170  222.3130 N   0  0  0  0  0  0  0  0  0  0  0  0
  140.1090   72.4820  222.5330 C   0  0  0  0  0  0  0  0  0  0  0  0
  141.0380   72.3580  221.6730 O   0  0  0  0  0  0  0  0  0  0  0  0
  140.0290   71.6080  223.6750 C   0  0  0  0  0  0  0  0  0  0  0  0
  139.3230   70.4220  223.5750 C   0  0  0  0  0  0  0  0  0  0  0  0
  139.2060   69.5460  224.6210 C   0  0  0  0  0  0  0  0  0  0  0  0
  139.7990   69.8310  225.8150 C   0  0  0  0  0  0  0  0  0  0  0  0
  139.6720   68.9440  226.8500 C   0  0  0  0  0  0  0  0  0  0  0  0
  140.2720   69.2440  228.0430 C   0  0  0  0  0  0  0  0  0  0  0  0
  140.9820   70.4180  228.1720 C   0  0  0  0  0  0  0  0  0  0  0  0
  141.1120   71.3240  227.1180 C   0  0  0  0  0  0  0  0  0  0  0  0
  140.5040   71.0170  225.9130 C   0  0  0  0  0  0  0  0  0  0  0  0
  140.6050   71.8670  224.8660 N   0  0  0  0  0  0  0  0  0  0  0  0
  141.1770   78.5450  221.7440 C   0  0  0  0  0  0  0  0  0  0  0  0
  142.3060   79.0400  222.4020 C   0  0  0  0  0  0  0  0  0  0  0  0
  142.1870   79.9940  223.4050 C   0  0  0  0  0  0  0  0  0  0  0  0
  140.9320   80.4840  223.7840 C   0  0  0  0  0  0  0  0  0  0  0  0
  139.8370   79.9760  223.1170 C   0  0  0  0  0  0  0  0  0  0  0  0
  139.9460   79.0290  222.1190 C   0  0  0  0  0  0  0  0  0  0  0  0
  143.3889   76.9945  219.4037 H   0  0  0  0  0  0  0  0  0  0  0  0
  142.3168   76.6221  218.0114 H   0  0  0  0  0  0  0  0  0  0  0  0
  143.2994   78.1258  218.0114 H   0  0  0  0  0  0  0  0  0  0  0  0
  140.6773   78.0657  218.7132 H   0  0  0  0  0  0  0  0  0  0  0  0
  141.8803   79.9424  220.4529 H   0  0  0  0  0  0  0  0  0  0  0  0
  142.7807   79.8843  218.8997 H   0  0  0  0  0  0  0  0  0  0  0  0
  141.0075   80.1714  218.8997 H   0  0  0  0  0  0  0  0  0  0  0  0
  142.3302   77.0420  221.0068 H   0  0  0  0  0  0  0  0  0  0  0  0
  139.5010   76.7570  220.0440 H   0  0  0  0  0  0  0  0  0  0  0  0
  138.4088   74.9054  220.9572 H   0  0  0  0  0  0  0  0  0  0  0  0
  139.5635   73.6745  220.2877 H   0  0  0  0  0  0  0  0  0  0  0  0
  138.3710   73.6680  222.9910 H   0  0  0  0  0  0  0  0  0  0  0  0
  138.8377   70.1737  222.6196 H   0  0  0  0  0  0  0  0  0  0  0  0
  138.6346   68.6141  224.4981 H   0  0  0  0  0  0  0  0  0  0  0  0
  139.1011   68.0120  226.7257 H   0  0  0  0  0  0  0  0  0  0  0  0
  140.1880   68.5520  228.8939 H   0  0  0  0  0  0  0  0  0  0  0  0
  141.4610   70.6483  229.1351 H   0  0  0  0  0  0  0  0  0  0  0  0
  141.6821   72.2566  227.2417 H   0  0  0  0  0  0  0  0  0  0  0  0
  143.3030   78.6691  222.1219 H   0  0  0  0  0  0  0  0  0  0  0  0
  143.0907   80.3690  223.9077 H   0  0  0  0  0  0  0  0  0  0  0  0
  140.8241   81.2389  224.5767 H   0  0  0  0  0  0  0  0  0  0  0  0
  138.8361   80.3404  223.3916 H   0  0  0  0  0  0  0  0  0  0  0  0
  139.0393   78.6579  221.6188 H   0  0  0  0  0  0  0  0  0  0  0  0
  1  2  1  0
  2  3  1  0
  2  4  1  0
  4  5  1  0
  5  6  1  0
  6  7  2  0
  6  8  1  0
  8  9  1  0
  9 10  1  0
 10 11  2  0
 10 12  1  0
 12 13  2  0
 13 14  1  0
 14 15  2  0
 15 16  1  0
 16 17  2  0
 17 18  1  0
 18 19  2  0
 19 20  1  0
 20 21  2  0
  4 22  1  0
 22 23  2  0
 23 24  1  0
 24 25  2  0
 25 26  1  0
 26 27  2  0
 21 12  1  0
 27 22  1  0
 20 15  1  0
  1 28  1  0
  1 29  1  0
  1 30  1  0
  2 31  1  0
  3 32  1  0
  3 33  1  0
  3 34  1  0
  4 35  1  1
  5 36  1  0
  8 37  1  0
  8 38  1  0
  9 39  1  0
 13 40  1  0
 14 41  1  0
 16 42  1  0
 17 43  1  0
 18 44  1  0
 19 45  1  0
 23 46  1  0
 24 47  1  0
 25 48  1  0
 26 49  1  0
 27 50  1  0
M  END
>  <smiles>  (45) 
CC(C)[C@H](NC(=O)CNC(=O)c1ccc2ccccc2n1)c1ccccc1

>  <score_type>  (45) 
oracle

>  <origin>  (45) 
autodockgpu

>  <m_score__min__energy>  (45) 
-8.8300000000000001

>  <m_primary>  (45) 
energy

>  <rmsd>  (45) 
4.078998119491813

>  <m_score__min__rmsd>  (45) 
4.078998119491813

>  <meeko>  (45) 
{"free_energy": -8.63, "intermolecular_energy": -10.42, "internal_energy": -1.1, "cluster_size": 23, "cluster_id": 1, "rank_in_cluster": 10}

>  <energy>  (45) 
-7.81

>  <cluster_rmsd>  (45) 
0.95

>  <cluster>  (45) 
5

$$$$

     RDKit          3D

 50 52  0  0  0  0  0  0  0  0999 V2000
  139.1880   67.0310  226.8320 C   0  0  0  0  0  0  0  0  0  0  0  0
  140.0570   67.8530  225.9050 C   0  0  0  0  0  0  0  0  0  0  0  0
  141.4540   68.0030  226.4030 C   0  0  0  0  0  0  0  0  0  0  0  0
  139.3680   69.2100  225.7180 C   0  0  2  0  0  0  0  0  0  0  0  0
  139.1850   69.4490  224.3000 N   0  0  0  0  0  0  0  0  0  0  0  0
  138.0120   70.0490  223.7890 C   0  0  0  0  0  0  0  0  0  0  0  0
  137.0890   70.3880  224.5830 O   0  0  0  0  0  0  0  0  0  0  0  0
  137.9250   70.2510  222.3200 C   0  0  0  0  0  0  0  0  0  0  0  0
  138.3580   71.5750  221.9280 N   0  0  0  0  0  0  0  0  0  0  0  0
  139.7430   71.8700  222.0430 C   0  0  0  0  0  0  0  0  0  0  0  0
  140.4950   70.9440  222.4820 O   0  0  0  0  0  0  0  0  0  0  0  0
  140.2790   73.1580  221.6790 C   0  0  0  0  0  0  0  0  0  0  0  0
  141.2580   73.2350  220.7050 C   0  0  0  0  0  0  0  0  0  0  0  0
  141.8110   74.4250  220.3120 C   0  0  0  0  0  0  0  0  0  0  0  0
  141.3960   75.5890  220.8860 C   0  0  0  0  0  0  0  0  0  0  0  0
  141.9590   76.7690  220.4810 C   0  0  0  0  0  0  0  0  0  0  0  0
  141.5320   77.9300  221.0680 C   0  0  0  0  0  0  0  0  0  0  0  0
  140.5570   77.8830  222.0400 C   0  0  0  0  0  0  0  0  0  0  0  0
  139.9820   76.6810  222.4550 C   0  0  0  0  0  0  0  0  0  0  0  0
  140.4160   75.5090  221.8600 C   0  0  0  0  0  0  0  0  0  0  0  0
  139.8860   74.3230  222.2320 N   0  0  0  0  0  0  0  0  0  0  0  0
  140.0630   70.2940  226.4180 C   0  0  0  0  0  0  0  0  0  0  0  0
  140.8600   71.1420  225.6450 C   0  0  0  0  0  0  0  0  0  0  0  0
  141.5540   72.1960  226.2260 C   0  0  0  0  0  0  0  0  0  0  0  0
  141.4720   72.4360  227.6020 C   0  0  0  0  0  0  0  0  0  0  0  0
  140.6790   71.5820  228.3380 C   0  0  0  0  0  0  0  0  0  0  0  0
  139.9860   70.5320  227.7700 C   0  0  0  0  0  0  0  0  0  0  0  0
  139.4390   67.2684  227.8763 H   0  0  0  0  0  0  0  0  0  0  0  0
  138.1295   67.2660  226.6467 H   0  0  0  0  0  0  0  0  0  0  0  0
  139.3639   65.9611  226.6467 H   0  0  0  0  0  0  0  0  0  0  0  0
  140.1582   67.3352  224.9398 H   0  0  0  0  0  0  0  0  0  0  0  0
  141.4531   68.0029  227.5030 H   0  0  0  0  0  0  0  0  0  0  0  0
  142.0658   67.1654  226.0367 H   0  0  0  0  0  0  0  0  0  0  0  0
  141.8740   68.9514  226.0367 H   0  0  0  0  0  0  0  0  0  0  0  0
  138.3746   69.1857  226.1898 H   0  0  0  0  0  0  0  0  0  0  0  0
  139.9570   69.1660  223.6440 H   0  0  0  0  0  0  0  0  0  0  0  0
  138.5627   69.5066  221.8208 H   0  0  0  0  0  0  0  0  0  0  0  0
  136.8720   70.1362  222.0232 H   0  0  0  0  0  0  0  0  0  0  0  0
  137.6870   72.3020  221.5700 H   0  0  0  0  0  0  0  0  0  0  0  0
  141.6053   72.3064  220.2284 H   0  0  0  0  0  0  0  0  0  0  0  0
  142.5888   74.4409  219.5343 H   0  0  0  0  0  0  0  0  0  0  0  0
  142.7360   76.7843  219.7025 H   0  0  0  0  0  0  0  0  0  0  0  0
  141.9651   78.8947  220.7651 H   0  0  0  0  0  0  0  0  0  0  0  0
  140.2212   78.8223  222.5036 H   0  0  0  0  0  0  0  0  0  0  0  0
  139.2051   76.6654  223.2336 H   0  0  0  0  0  0  0  0  0  0  0  0
  140.9392   70.9727  224.5610 H   0  0  0  0  0  0  0  0  0  0  0  0
  142.1755   72.8498  225.5966 H   0  0  0  0  0  0  0  0  0  0  0  0
  142.0152   73.2677  228.0745 H   0  0  0  0  0  0  0  0  0  0  0  0
  140.5949   71.7439  229.4228 H   0  0  0  0  0  0  0  0  0  0  0  0
  139.3671   69.8803  228.4042 H   0  0  0  0  0  0  0  0  0  0  0  0
  1  2  1  0
  2  3  1  0
  2  4  1  0
  4  5  1  0
  5  6  1  0
  6  7  2  0
  6  8  1  0
  8  9  1  0
  9 10  1  0
 10 11  2  0
 10 12  1  0
 12 13  2  0
 13 14  1  0
 14 15  2  0
 15 16  1  0
 16 17  2  0
 17 18  1  0
 18 19  2  0
 19 20  1  0
 20 21  2  0
  4 22  1  0
 22 23  2  0
 23 24  1  0
 24 25  2  0
 25 26  1  0
 26 27  2  0
 21 12  1  0
 27 22  1  0
 20 15  1  0
  1 28  1  0
  1 29  1  0
  1 30  1  0
  2 31  1  0
  3 32  1  0
  3 33  1  0
  3 34  1  0
  4 35  1  1
  5 36  1  0
  8 37  1  0
  8 38  1  0
  9 39  1  0
 13 40  1  0
 14 41  1  0
 16 42  1  0
 17 43  1  0
 18 44  1  0
 19 45  1  0
 23 46  1  0
 24 47  1  0
 25 48  1  0
 26 49  1  0
 27 50  1  0
M  END
>  <smiles>  (46) 
CC(C)[C@H](NC(=O)CNC(=O)c1ccc2ccccc2n1)c1ccccc1

>  <score_type>  (46) 
oracle

>  <origin>  (46) 
autodockgpu

>  <m_score__min__energy>  (46) 
-8.8300000000000001

>  <m_primary>  (46) 
energy

>  <rmsd>  (46) 
9.687517870653638

>  <m_score__min__rmsd>  (46) 
9.687517870653638

>  <meeko>  (46) 
{"free_energy": -7.6, "intermolecular_energy": -9.39, "internal_energy": -2.25, "cluster_size": 2, "cluster_id": 6, "rank_in_cluster": 1}

>  <energy>  (46) 
-7.66

>  <cluster_rmsd>  (46) 
0.98

>  <cluster>  (46) 
5

$$$$

     RDKit          3D

 50 52  0  0  0  0  0  0  0  0999 V2000
  140.8360   76.9170  219.2600 C   0  0  0  0  0  0  0  0  0  0  0  0
  142.2610   76.4380  219.4380 C   0  0  0  0  0  0  0  0  0  0  0  0
  143.2340   77.1940  218.5970 C   0  0  0  0  0  0  0  0  0  0  0  0
  142.2800   74.9380  219.1250 C   0  0  2  0  0  0  0  0  0  0  0  0
  140.9910   74.3730  219.4680 N   0  0  0  0  0  0  0  0  0  0  0  0
  140.5390   74.2960  220.8050 C   0  0  0  0  0  0  0  0  0  0  0  0
  141.2750   74.7300  221.7360 O   0  0  0  0  0  0  0  0  0  0  0  0
  139.2010   73.7000  221.0480 C   0  0  0  0  0  0  0  0  0  0  0  0
  139.1300   73.0270  222.3270 N   0  0  0  0  0  0  0  0  0  0  0  0
  139.9620   71.8910  222.5150 C   0  0  0  0  0  0  0  0  0  0  0  0
  140.7070   71.5550  221.5410 O   0  0  0  0  0  0  0  0  0  0  0  0
  139.9680   71.1500  223.7510 C   0  0  0  0  0  0  0  0  0  0  0  0
  139.3980   69.8900  223.7900 C   0  0  0  0  0  0  0  0  0  0  0  0
  139.3690   69.1320  224.9300 C   0  0  0  0  0  0  0  0  0  0  0  0
  139.9160   69.6150  226.0810 C   0  0  0  0  0  0  0  0  0  0  0  0
  139.8790   68.8440  227.2110 C   0  0  0  0  0  0  0  0  0  0  0  0
  140.4310   69.3430  228.3590 C   0  0  0  0  0  0  0  0  0  0  0  0
  141.0070   70.5950  228.3500 C   0  0  0  0  0  0  0  0  0  0  0  0
  141.0460   71.3830  227.1990 C   0  0  0  0  0  0  0  0  0  0  0  0
  140.4850   70.8750  226.0390 C   0  0  0  0  0  0  0  0  0  0  0  0
  140.5020   71.6060  224.9020 N   0  0  0  0  0  0  0  0  0  0  0  0
  143.4150   74.2490  219.7470 C   0  0  0  0  0  0  0  0  0  0  0  0
  143.3850   72.8520  219.7510 C   0  0  0  0  0  0  0  0  0  0  0  0
  144.4190   72.1170  220.3180 C   0  0  0  0  0  0  0  0  0  0  0  0
  145.5170   72.7580  220.9020 C   0  0  0  0  0  0  0  0  0  0  0  0
  145.5170   74.1370  220.8840 C   0  0  0  0  0  0  0  0  0  0  0  0
  144.4950   74.8750  220.3220 C   0  0  0  0  0  0  0  0  0  0  0  0
  140.3753   77.0719  220.2468 H   0  0  0  0  0  0  0  0  0  0  0  0
  140.8348   77.8649  218.7019 H   0  0  0  0  0  0  0  0  0  0  0  0
  140.2625   76.1623  218.7019 H   0  0  0  0  0  0  0  0  0  0  0  0
  142.5845   76.6200  220.4735 H   0  0  0  0  0  0  0  0  0  0  0  0
  143.9348   77.7385  219.2469 H   0  0  0  0  0  0  0  0  0  0  0  0
  143.7934   76.4912  217.9620 H   0  0  0  0  0  0  0  0  0  0  0  0
  142.6912   77.9097  217.9620 H   0  0  0  0  0  0  0  0  0  0  0  0
  142.4397   74.7899  218.0468 H   0  0  0  0  0  0  0  0  0  0  0  0
  140.3820   74.0140  218.6880 H   0  0  0  0  0  0  0  0  0  0  0  0
  138.4467   74.5003  221.0258 H   0  0  0  0  0  0  0  0  0  0  0  0
  139.0141   72.9541  220.2615 H   0  0  0  0  0  0  0  0  0  0  0  0
  138.4910   73.3540  223.0980 H   0  0  0  0  0  0  0  0  0  0  0  0
  138.9515   69.4820  222.8712 H   0  0  0  0  0  0  0  0  0  0  0  0
  138.9049   68.1348  224.9168 H   0  0  0  0  0  0  0  0  0  0  0  0
  139.4162   67.8462  227.1966 H   0  0  0  0  0  0  0  0  0  0  0  0
  140.4152   68.7482  229.2842 H   0  0  0  0  0  0  0  0  0  0  0  0
  141.4495   70.9850  229.2785 H   0  0  0  0  0  0  0  0  0  0  0  0
  141.5097   72.3804  227.2126 H   0  0  0  0  0  0  0  0  0  0  0  0
  142.5308   72.3267  219.2989 H   0  0  0  0  0  0  0  0  0  0  0  0
  144.3738   71.0180  220.3076 H   0  0  0  0  0  0  0  0  0  0  0  0
  146.3421   72.1884  221.3546 H   0  0  0  0  0  0  0  0  0  0  0  0
  146.3662   74.6705  221.3360 H   0  0  0  0  0  0  0  0  0  0  0  0
  144.5453   75.9738  220.3344 H   0  0  0  0  0  0  0  0  0  0  0  0
  1  2  1  0
  2  3  1  0
  2  4  1  0
  4  5  1  0
  5  6  1  0
  6  7  2  0
  6  8  1  0
  8  9  1  0
  9 10  1  0
 10 11  2  0
 10 12  1  0
 12 13  2  0
 13 14  1  0
 14 15  2  0
 15 16  1  0
 16 17  2  0
 17 18  1  0
 18 19  2  0
 19 20  1  0
 20 21  2  0
  4 22  1  0
 22 23  2  0
 23 24  1  0
 24 25  2  0
 25 26  1  0
 26 27  2  0
 21 12  1  0
 27 22  1  0
 20 15  1  0
  1 28  1  0
  1 29  1  0
  1 30  1  0
  2 31  1  0
  3 32  1  0
  3 33  1  0
  3 34  1  0
  4 35  1  6
  5 36  1  0
  8 37  1  0
  8 38  1  0
  9 39  1  0
 13 40  1  0
 14 41  1  0
 16 42  1  0
 17 43  1  0
 18 44  1  0
 19 45  1  0
 23 46  1  0
 24 47  1  0
 25 48  1  0
 26 49  1  0
 27 50  1  0
M  END
>  <smiles>  (47) 
CC(C)[C@H](NC(=O)CNC(=O)c1ccc2ccccc2n1)c1ccccc1

>  <score_type>  (47) 
oracle

>  <origin>  (47) 
autodockgpu

>  <m_score__min__energy>  (47) 
-8.8300000000000001

>  <m_primary>  (47) 
energy

>  <rmsd>  (47) 
6.374137239650847

>  <m_score__min__rmsd>  (47) 
6.374137239650847

>  <meeko>  (47) 
{"free_energy": -8.15, "intermolecular_energy": -9.94, "internal_energy": -1.37, "cluster_size": 11, "cluster_id": 4, "rank_in_cluster": 2}

>  <energy>  (47) 
-7.57

>  <cluster_rmsd>  (47) 
1.45

>  <cluster>  (47) 
5

$$$$

     RDKit          3D

 50 52  0  0  0  0  0  0  0  0999 V2000
  140.3810   78.1090  218.8000 C   0  0  0  0  0  0  0  0  0  0  0  0
  141.8230   78.0520  219.2590 C   0  0  0  0  0  0  0  0  0  0  0  0
  142.6940   77.2710  218.3340 C   0  0  0  0  0  0  0  0  0  0  0  0
  141.8270   77.4700  220.6770 C   0  0  2  0  0  0  0  0  0  0  0  0
  140.7610   76.4950  220.7850 N   0  0  0  0  0  0  0  0  0  0  0  0
  141.0220   75.1120  220.9140 C   0  0  0  0  0  0  0  0  0  0  0  0
  142.2190   74.7040  220.9350 O   0  0  0  0  0  0  0  0  0  0  0  0
  139.8570   74.1970  221.0200 C   0  0  0  0  0  0  0  0  0  0  0  0
  139.7880   73.5530  222.3140 N   0  0  0  0  0  0  0  0  0  0  0  0
  140.1770   72.1890  222.3870 C   0  0  0  0  0  0  0  0  0  0  0  0
  140.5560   71.6390  221.3050 O   0  0  0  0  0  0  0  0  0  0  0  0
  140.1450   71.4550  223.6260 C   0  0  0  0  0  0  0  0  0  0  0  0
  139.5840   70.1910  223.6540 C   0  0  0  0  0  0  0  0  0  0  0  0
  139.5200   69.4390  224.7970 C   0  0  0  0  0  0  0  0  0  0  0  0
  140.0240   69.9340  225.9630 C   0  0  0  0  0  0  0  0  0  0  0  0
  139.9530   69.1680  227.0950 C   0  0  0  0  0  0  0  0  0  0  0  0
  140.4620   69.6790  228.2590 C   0  0  0  0  0  0  0  0  0  0  0  0
  141.0280   70.9350  228.2620 C   0  0  0  0  0  0  0  0  0  0  0  0
  141.1010   71.7160  227.1080 C   0  0  0  0  0  0  0  0  0  0  0  0
  140.5850   71.1980  225.9330 C   0  0  0  0  0  0  0  0  0  0  0  0
  140.6350   71.9220  224.7930 N   0  0  0  0  0  0  0  0  0  0  0  0
  141.7890   78.5080  221.7110 C   0  0  0  0  0  0  0  0  0  0  0  0
  141.4150   78.1110  222.9970 C   0  0  0  0  0  0  0  0  0  0  0  0
  141.3530   79.0290  224.0380 C   0  0  0  0  0  0  0  0  0  0  0  0
  141.6630   80.3760  223.8250 C   0  0  0  0  0  0  0  0  0  0  0  0
  142.0280   80.7380  222.5460 C   0  0  0  0  0  0  0  0  0  0  0  0
  142.0920   79.8330  221.5050 C   0  0  0  0  0  0  0  0  0  0  0  0
  139.7178   78.1352  219.6772 H   0  0  0  0  0  0  0  0  0  0  0  0
  140.2244   79.0140  218.1947 H   0  0  0  0  0  0  0  0  0  0  0  0
  140.1534   77.2192  218.1947 H   0  0  0  0  0  0  0  0  0  0  0  0
  142.2509   79.0654  219.2569 H   0  0  0  0  0  0  0  0  0  0  0  0
  143.3870   76.6496  218.9201 H   0  0  0  0  0  0  0  0  0  0  0  0
  142.0691   76.6250  217.6998 H   0  0  0  0  0  0  0  0  0  0  0  0
  143.2683   77.9624  217.6998 H   0  0  0  0  0  0  0  0  0  0  0  0
  142.7806   76.9524  220.8580 H   0  0  0  0  0  0  0  0  0  0  0  0
  139.7670   76.8410  220.7680 H   0  0  0  0  0  0  0  0  0  0  0  0
  138.9353   74.7762  220.8623 H   0  0  0  0  0  0  0  0  0  0  0  0
  139.9707   73.4132  220.2566 H   0  0  0  0  0  0  0  0  0  0  0  0
  139.4640   74.0620  223.1770 H   0  0  0  0  0  0  0  0  0  0  0  0
  139.1735   69.7737  222.7227 H   0  0  0  0  0  0  0  0  0  0  0  0
  139.0633   68.4386  224.7742 H   0  0  0  0  0  0  0  0  0  0  0  0
  139.4983   68.1667  227.0704 H   0  0  0  0  0  0  0  0  0  0  0  0
  140.4192   69.0897  229.1868 H   0  0  0  0  0  0  0  0  0  0  0  0
  141.4348   71.3343  229.2028 H   0  0  0  0  0  0  0  0  0  0  0  0
  141.5566   72.7169  227.1316 H   0  0  0  0  0  0  0  0  0  0  0  0
  141.1661   77.0567  223.1882 H   0  0  0  0  0  0  0  0  0  0  0  0
  141.0564   78.6921  225.0423 H   0  0  0  0  0  0  0  0  0  0  0  0
  141.6176   81.1127  224.6406 H   0  0  0  0  0  0  0  0  0  0  0  0
  142.2784   81.7904  222.3466 H   0  0  0  0  0  0  0  0  0  0  0  0
  142.3879   80.1752  220.5024 H   0  0  0  0  0  0  0  0  0  0  0  0
  1  2  1  0
  2  3  1  0
  2  4  1  0
  4  5  1  0
  5  6  1  0
  6  7  2  0
  6  8  1  0
  8  9  1  0
  9 10  1  0
 10 11  2  0
 10 12  1  0
 12 13  2  0
 13 14  1  0
 14 15  2  0
 15 16  1  0
 16 17  2  0
 17 18  1  0
 18 19  2  0
 19 20  1  0
 20 21  2  0
  4 22  1  0
 22 23  2  0
 23 24  1  0
 24 25  2  0
 25 26  1  0
 26 27  2  0
 21 12  1  0
 27 22  1  0
 20 15  1  0
  1 28  1  0
  1 29  1  0
  1 30  1  0
  2 31  1  0
  3 32  1  0
  3 33  1  0
  3 34  1  0
  4 35  1  1
  5 36  1  0
  8 37  1  0
  8 38  1  0
  9 39  1  0
 13 40  1  0
 14 41  1  0
 16 42  1  0
 17 43  1  0
 18 44  1  0
 19 45  1  0
 23 46  1  0
 24 47  1  0
 25 48  1  0
 26 49  1  0
 27 50  1  0
M  END
>  <smiles>  (48) 
CC(C)[C@H](NC(=O)CNC(=O)c1ccc2ccccc2n1)c1ccccc1

>  <score_type>  (48) 
oracle

>  <origin>  (48) 
autodockgpu

>  <m_score__min__energy>  (48) 
-8.8300000000000001

>  <m_primary>  (48) 
energy

>  <rmsd>  (48) 
4.001625532989374

>  <m_score__min__rmsd>  (48) 
4.001625532989374

>  <meeko>  (48) 
{"free_energy": -8.59, "intermolecular_energy": -10.38, "internal_energy": -1.27, "cluster_size": 23, "cluster_id": 1, "rank_in_cluster": 12}

>  <energy>  (48) 
-7.6

>  <cluster_rmsd>  (48) 
0.0

>  <cluster>  (48) 
6

$$$$

     RDKit          3D

 50 52  0  0  0  0  0  0  0  0999 V2000
  142.8460   77.2540  218.9840 C   0  0  0  0  0  0  0  0  0  0  0  0
  141.6620   77.9900  219.5730 C   0  0  0  0  0  0  0  0  0  0  0  0
  141.8290   79.4720  219.5410 C   0  0  0  0  0  0  0  0  0  0  0  0
  141.4650   77.4690  221.0010 C   0  0  2  0  0  0  0  0  0  0  0  0
  140.4160   76.4680  220.9910 N   0  0  0  0  0  0  0  0  0  0  0  0
  140.6990   75.0870  221.0960 C   0  0  0  0  0  0  0  0  0  0  0  0
  141.9000   74.7040  221.1990 O   0  0  0  0  0  0  0  0  0  0  0  0
  139.5520   74.1450  221.0780 C   0  0  0  0  0  0  0  0  0  0  0  0
  139.4140   73.4330  222.3300 N   0  0  0  0  0  0  0  0  0  0  0  0
  140.2120   72.2730  222.5140 C   0  0  0  0  0  0  0  0  0  0  0  0
  140.9890   71.9500  221.5610 O   0  0  0  0  0  0  0  0  0  0  0  0
  140.1520   71.4930  223.7240 C   0  0  0  0  0  0  0  0  0  0  0  0
  139.5590   70.2430  223.6980 C   0  0  0  0  0  0  0  0  0  0  0  0
  139.4670   69.4490  224.8100 C   0  0  0  0  0  0  0  0  0  0  0  0
  139.9710   69.8860  225.9990 C   0  0  0  0  0  0  0  0  0  0  0  0
  139.8710   69.0800  227.1000 C   0  0  0  0  0  0  0  0  0  0  0  0
  140.3810   69.5320  228.2870 C   0  0  0  0  0  0  0  0  0  0  0  0
  140.9780   70.7730  228.3440 C   0  0  0  0  0  0  0  0  0  0  0  0
  141.0810   71.5960  227.2220 C   0  0  0  0  0  0  0  0  0  0  0  0
  140.5630   71.1360  226.0230 C   0  0  0  0  0  0  0  0  0  0  0  0
  140.6420   71.9020  224.9120 N   0  0  0  0  0  0  0  0  0  0  0  0
  141.2460   78.5470  221.9690 C   0  0  0  0  0  0  0  0  0  0  0  0
  142.3790   79.0950  222.5760 C   0  0  0  0  0  0  0  0  0  0  0  0
  142.2640   80.1210  223.5060 C   0  0  0  0  0  0  0  0  0  0  0  0
  141.0110   80.6330  223.8580 C   0  0  0  0  0  0  0  0  0  0  0  0
  139.9120   80.0720  223.2420 C   0  0  0  0  0  0  0  0  0  0  0  0
  140.0160   79.0520  222.3180 C   0  0  0  0  0  0  0  0  0  0  0  0
  143.4756   76.8626  219.7966 H   0  0  0  0  0  0  0  0  0  0  0  0
  142.4873   76.4194  218.3636 H   0  0  0  0  0  0  0  0  0  0  0  0
  143.4356   77.9450  218.3636 H   0  0  0  0  0  0  0  0  0  0  0  0
  140.7670   77.7945  218.9641 H   0  0  0  0  0  0  0  0  0  0  0  0
  141.8725   79.8584  220.5700 H   0  0  0  0  0  0  0  0  0  0  0  0
  142.7613   79.7247  219.0147 H   0  0  0  0  0  0  0  0  0  0  0  0
  140.9763   79.9258  219.0147 H   0  0  0  0  0  0  0  0  0  0  0  0
  142.3923   76.9891  221.3472 H   0  0  0  0  0  0  0  0  0  0  0  0
  139.4190   76.7930  220.9060 H   0  0  0  0  0  0  0  0  0  0  0  0
  138.6292   74.7131  220.8892 H   0  0  0  0  0  0  0  0  0  0  0  0
  139.7336   73.4046  220.2850 H   0  0  0  0  0  0  0  0  0  0  0  0
  138.7520   73.7500  223.0850 H   0  0  0  0  0  0  0  0  0  0  0  0
  139.1458   69.8730  222.7480 H   0  0  0  0  0  0  0  0  0  0  0  0
  138.9877   68.4611  224.7440 H   0  0  0  0  0  0  0  0  0  0  0  0
  139.3920   68.0920  227.0328 H   0  0  0  0  0  0  0  0  0  0  0  0
  140.3148   68.9082  229.1906 H   0  0  0  0  0  0  0  0  0  0  0  0
  141.3856   71.1253  229.3031 H   0  0  0  0  0  0  0  0  0  0  0  0
  141.5608   72.5837  227.2881 H   0  0  0  0  0  0  0  0  0  0  0  0
  143.3752   78.7090  222.3142 H   0  0  0  0  0  0  0  0  0  0  0  0
  143.1702   80.5359  223.9714 H   0  0  0  0  0  0  0  0  0  0  0  0
  140.9069   81.4455  224.5922 H   0  0  0  0  0  0  0  0  0  0  0  0
  138.9121   80.4528  223.4974 H   0  0  0  0  0  0  0  0  0  0  0  0
  139.1066   78.6395  221.8567 H   0  0  0  0  0  0  0  0  0  0  0  0
  1  2  1  0
  2  3  1  0
  2  4  1  0
  4  5  1  0
  5  6  1  0
  6  7  2  0
  6  8  1  0
  8  9  1  0
  9 10  1  0
 10 11  2  0
 10 12  1  0
 12 13  2  0
 13 14  1  0
 14 15  2  0
 15 16  1  0
 16 17  2  0
 17 18  1  0
 18 19  2  0
 19 20  1  0
 20 21  2  0
  4 22  1  0
 22 23  2  0
 23 24  1  0
 24 25  2  0
 25 26  1  0
 26 27  2  0
 21 12  1  0
 27 22  1  0
 20 15  1  0
  1 28  1  0
  1 29  1  0
  1 30  1  0
  2 31  1  0
  3 32  1  0
  3 33  1  0
  3 34  1  0
  4 35  1  1
  5 36  1  0
  8 37  1  0
  8 38  1  0
  9 39  1  0
 13 40  1  0
 14 41  1  0
 16 42  1  0
 17 43  1  0
 18 44  1  0
 19 45  1  0
 23 46  1  0
 24 47  1  0
 25 48  1  0
 26 49  1  0
 27 50  1  0
M  END
>  <smiles>  (49) 
CC(C)[C@H](NC(=O)CNC(=O)c1ccc2ccccc2n1)c1ccccc1

>  <score_type>  (49) 
oracle

>  <origin>  (49) 
autodockgpu

>  <m_score__min__energy>  (49) 
-8.8300000000000001

>  <m_primary>  (49) 
energy

>  <rmsd>  (49) 
4.131749620975718

>  <m_score__min__rmsd>  (49) 
4.131749620975718

>  <meeko>  (49) 
{"free_energy": -8.74, "intermolecular_energy": -10.53, "internal_energy": -1.11, "cluster_size": 23, "cluster_id": 1, "rank_in_cluster": 4}

>  <energy>  (49) 
-7.42

>  <cluster_rmsd>  (49) 
0.62

>  <cluster>  (49) 
6

$$$$

     RDKit          3D

 50 52  0  0  0  0  0  0  0  0999 V2000
  140.6050   77.6430  218.9760 C   0  0  0  0  0  0  0  0  0  0  0  0
  141.8740   77.6660  219.8010 C   0  0  0  0  0  0  0  0  0  0  0  0
  142.9420   76.7860  219.2440 C   0  0  0  0  0  0  0  0  0  0  0  0
  141.4940   77.2690  221.2320 C   0  0  2  0  0  0  0  0  0  0  0  0
  140.4040   76.3150  221.1790 N   0  0  0  0  0  0  0  0  0  0  0  0
  140.6280   74.9300  221.0070 C   0  0  0  0  0  0  0  0  0  0  0  0
  141.8120   74.5020  220.8950 O   0  0  0  0  0  0  0  0  0  0  0  0
  139.4410   74.0390  220.9680 C   0  0  0  0  0  0  0  0  0  0  0  0
  139.2460   73.3390  222.2200 N   0  0  0  0  0  0  0  0  0  0  0  0
  140.1540   72.2920  222.5310 C   0  0  0  0  0  0  0  0  0  0  0  0
  141.0700   72.0520  221.6830 O   0  0  0  0  0  0  0  0  0  0  0  0
  140.0490   71.5330  223.7510 C   0  0  0  0  0  0  0  0  0  0  0  0
  139.2880   70.3780  223.7690 C   0  0  0  0  0  0  0  0  0  0  0  0
  139.1440   69.6090  224.8940 C   0  0  0  0  0  0  0  0  0  0  0  0
  139.7660   69.9760  226.0500 C   0  0  0  0  0  0  0  0  0  0  0  0
  139.6120   69.1950  227.1640 C   0  0  0  0  0  0  0  0  0  0  0  0
  140.2420   69.5770  228.3180 C   0  0  0  0  0  0  0  0  0  0  0  0
  141.0070   70.7220  228.3300 C   0  0  0  0  0  0  0  0  0  0  0  0
  141.1650   71.5190  227.1950 C   0  0  0  0  0  0  0  0  0  0  0  0
  140.5260   71.1310  226.0290 C   0  0  0  0  0  0  0  0  0  0  0  0
  140.6530   71.8740  224.9070 N   0  0  0  0  0  0  0  0  0  0  0  0
  141.2260   78.4290  222.0860 C   0  0  0  0  0  0  0  0  0  0  0  0
  139.9370   78.5480  222.6110 C   0  0  0  0  0  0  0  0  0  0  0  0
  139.5960   79.6170  223.4300 C   0  0  0  0  0  0  0  0  0  0  0  0
  140.5350   80.6030  223.7510 C   0  0  0  0  0  0  0  0  0  0  0  0
  141.7980   80.4590  223.2180 C   0  0  0  0  0  0  0  0  0  0  0  0
  142.1460   79.4000  222.4030 C   0  0  0  0  0  0  0  0  0  0  0  0
  139.7325   77.6272  219.6457 H   0  0  0  0  0  0  0  0  0  0  0  0
  140.5639   78.5405  218.3414 H   0  0  0  0  0  0  0  0  0  0  0  0
  140.5965   76.7446  218.3414 H   0  0  0  0  0  0  0  0  0  0  0  0
  142.3072   78.6770  219.7833 H   0  0  0  0  0  0  0  0  0  0  0  0
  143.5034   76.3235  220.0692 H   0  0  0  0  0  0  0  0  0  0  0  0
  142.4840   75.9997  218.6261 H   0  0  0  0  0  0  0  0  0  0  0  0
  143.6262   77.3860  218.6261 H   0  0  0  0  0  0  0  0  0  0  0  0
  142.3519   76.7788  221.7155 H   0  0  0  0  0  0  0  0  0  0  0  0
  139.4210   76.6790  221.2740 H   0  0  0  0  0  0  0  0  0  0  0  0
  138.5481   74.6462  220.7580 H   0  0  0  0  0  0  0  0  0  0  0  0
  139.6060   73.2880  220.1814 H   0  0  0  0  0  0  0  0  0  0  0  0
  138.4670   73.5840  222.8840 H   0  0  0  0  0  0  0  0  0  0  0  0
  138.7792   70.0650  222.8453 H   0  0  0  0  0  0  0  0  0  0  0  0
  138.5281   68.6980  224.8643 H   0  0  0  0  0  0  0  0  0  0  0  0
  138.9974   68.2833  227.1326 H   0  0  0  0  0  0  0  0  0  0  0  0
  140.1376   68.9724  229.2310 H   0  0  0  0  0  0  0  0  0  0  0  0
  141.5091   71.0177  229.2630 H   0  0  0  0  0  0  0  0  0  0  0  0
  141.7802   72.4304  227.2258 H   0  0  0  0  0  0  0  0  0  0  0  0
  139.1816   77.7847  222.3726 H   0  0  0  0  0  0  0  0  0  0  0  0
  138.5743   79.6891  223.8313 H   0  0  0  0  0  0  0  0  0  0  0  0
  140.2774   81.4539  224.3988 H   0  0  0  0  0  0  0  0  0  0  0  0
  142.5592   81.2181  223.4512 H   0  0  0  0  0  0  0  0  0  0  0  0
  143.1688   79.3328  222.0038 H   0  0  0  0  0  0  0  0  0  0  0  0
  1  2  1  0
  2  3  1  0
  2  4  1  0
  4  5  1  0
  5  6  1  0
  6  7  2  0
  6  8  1  0
  8  9  1  0
  9 10  1  0
 10 11  2  0
 10 12  1  0
 12 13  2  0
 13 14  1  0
 14 15  2  0
 15 16  1  0
 16 17  2  0
 17 18  1  0
 18 19  2  0
 19 20  1  0
 20 21  2  0
  4 22  1  0
 22 23  2  0
 23 24  1  0
 24 25  2  0
 25 26  1  0
 26 27  2  0
 21 12  1  0
 27 22  1  0
 20 15  1  0
  1 28  1  0
  1 29  1  0
  1 30  1  0
  2 31  1  0
  3 32  1  0
  3 33  1  0
  3 34  1  0
  4 35  1  1
  5 36  1  0
  8 37  1  0
  8 38  1  0
  9 39  1  0
 13 40  1  0
 14 41  1  0
 16 42  1  0
 17 43  1  0
 18 44  1  0
 19 45  1  0
 23 46  1  0
 24 47  1  0
 25 48  1  0
 26 49  1  0
 27 50  1  0
M  END
>  <smiles>  (50) 
CC(C)[C@H](NC(=O)CNC(=O)c1ccc2ccccc2n1)c1ccccc1

>  <score_type>  (50) 
oracle

>  <origin>  (50) 
autodockgpu

>  <m_score__min__energy>  (50) 
-8.8300000000000001

>  <m_primary>  (50) 
energy

>  <rmsd>  (50) 
3.9006417298115426

>  <m_score__min__rmsd>  (50) 
3.9006417298115426

>  <meeko>  (50) 
{"free_energy": -8.48, "intermolecular_energy": -10.27, "internal_energy": -1.14, "cluster_size": 23, "cluster_id": 1, "rank_in_cluster": 17}

>  <energy>  (50) 
-7.45

>  <cluster_rmsd>  (50) 
0.0

>  <cluster>  (50) 
7

$$$$
