
     RDKit          3D

 51 54  0  0  0  0  0  0  0  0999 V2000
  138.4480   71.4910  221.3160 O   0  0  0  0  0  0  0  0  0  0  0  0
  138.9720   72.0190  222.3410 C   0  0  0  0  0  0  0  0  0  0  0  0
  139.1810   73.4270  222.3430 N   0  0  0  0  0  0  0  0  0  0  0  0
  138.7770   74.1630  221.1660 C   0  0  0  0  0  0  0  0  0  0  0  0
  139.4270   75.5090  221.1240 C   0  0  0  0  0  0  0  0  0  0  0  0
  138.8030   76.5660  221.4170 O   0  0  0  0  0  0  0  0  0  0  0  0
  140.7910   75.6630  220.7500 N   0  0  0  0  0  0  0  0  0  0  0  0
  141.6990   74.5680  221.0220 C   0  0  0  0  0  0  0  0  0  0  0  0
  142.8420   74.4530  220.0710 C   0  0  0  0  0  0  0  0  0  0  0  0
  143.4080   75.8110  219.7180 C   0  0  0  0  0  0  0  0  0  0  0  0
  142.3580   76.7260  219.1590 C   0  0  0  0  0  0  0  0  0  0  0  0
  141.1920   76.9050  220.1200 C   0  0  2  0  0  0  0  0  0  0  0  0
  141.4680   77.9950  221.0950 C   0  0  0  0  0  0  0  0  0  0  0  0
  141.8710   79.2590  220.7180 C   0  0  0  0  0  0  0  0  0  0  0  0
  142.1280   80.2740  221.6140 C   0  0  0  0  0  0  0  0  0  0  0  0
  141.9850   80.0530  222.9680 C   0  0  0  0  0  0  0  0  0  0  0  0
  142.3440   81.4660  224.1920 Br  0  0  0  0  0  0  0  0  0  0  0  0
  141.5840   78.8020  223.3830 C   0  0  0  0  0  0  0  0  0  0  0  0
  141.3310   77.7970  222.4750 C   0  0  0  0  0  0  0  0  0  0  0  0
  139.3540   71.2110  223.4930 C   0  0  0  0  0  0  0  0  0  0  0  0
  139.1550   69.8440  223.4400 C   0  0  0  0  0  0  0  0  0  0  0  0
  139.4800   68.9940  224.4710 C   0  0  0  0  0  0  0  0  0  0  0  0
  140.0310   69.5570  225.6040 C   0  0  0  0  0  0  0  0  0  0  0  0
  140.3570   68.7160  226.6330 C   0  0  0  0  0  0  0  0  0  0  0  0
  140.9110   69.2300  227.7870 C   0  0  0  0  0  0  0  0  0  0  0  0
  141.3200   68.1400  229.0920 Cl  0  0  0  0  0  0  0  0  0  0  0  0
  141.1130   70.5920  227.8510 C   0  0  0  0  0  0  0  0  0  0  0  0
  140.7800   71.4330  226.8020 C   0  0  0  0  0  0  0  0  0  0  0  0
  140.2220   70.9200  225.6360 C   0  0  0  0  0  0  0  0  0  0  0  0
  139.8930   71.7270  224.6120 N   0  0  0  0  0  0  0  0  0  0  0  0
  139.6110   73.8910  223.1750 H   0  0  0  0  0  0  0  0  0  0  0  0
  139.0678   73.5954  220.2698 H   0  0  0  0  0  0  0  0  0  0  0  0
  137.6863   74.3023  221.1980 H   0  0  0  0  0  0  0  0  0  0  0  0
  142.1081   74.7058  222.0338 H   0  0  0  0  0  0  0  0  0  0  0  0
  141.1117   73.6442  220.9137 H   0  0  0  0  0  0  0  0  0  0  0  0
  143.6331   73.8455  220.5347 H   0  0  0  0  0  0  0  0  0  0  0  0
  142.4764   73.9806  219.1473 H   0  0  0  0  0  0  0  0  0  0  0  0
  143.8308   76.2670  220.6254 H   0  0  0  0  0  0  0  0  0  0  0  0
  144.1814   75.6689  218.9488 H   0  0  0  0  0  0  0  0  0  0  0  0
  142.8109   77.7089  218.9623 H   0  0  0  0  0  0  0  0  0  0  0  0
  141.9709   76.2755  218.2332 H   0  0  0  0  0  0  0  0  0  0  0  0
  140.3195   77.2181  219.5277 H   0  0  0  0  0  0  0  0  0  0  0  0
  141.9938   79.4680  219.6451 H   0  0  0  0  0  0  0  0  0  0  0  0
  142.4475   81.2613  221.2491 H   0  0  0  0  0  0  0  0  0  0  0  0
  141.4637   78.6020  224.4580 H   0  0  0  0  0  0  0  0  0  0  0  0
  141.0123   76.8111  222.8443 H   0  0  0  0  0  0  0  0  0  0  0  0
  138.7148   69.4149  222.5278 H   0  0  0  0  0  0  0  0  0  0  0  0
  139.3079   67.9102  224.3957 H   0  0  0  0  0  0  0  0  0  0  0  0
  140.1780   67.6346  226.5403 H   0  0  0  0  0  0  0  0  0  0  0  0
  141.5518   71.0240  228.7625 H   0  0  0  0  0  0  0  0  0  0  0  0
  140.9582   72.5147  226.8919 H   0  0  0  0  0  0  0  0  0  0  0  0
  1  2  2  0
  2  3  1  0
  3  4  1  0
  4  5  1  0
  5  6  2  0
  5  7  1  0
  7  8  1  0
  8  9  1  0
  9 10  1  0
 10 11  1  0
 11 12  1  0
 12 13  1  0
 13 14  2  0
 14 15  1  0
 15 16  2  0
 16 17  1  0
 16 18  1  0
 18 19  2  0
  2 20  1  0
 20 21  2  0
 21 22  1  0
 22 23  2  0
 23 24  1  0
 24 25  2  0
 25 26  1  0
 25 27  1  0
 27 28  2  0
 28 29  1  0
 29 30  2  0
 12  7  1  0
 19 13  1  0
 30 20  1  0
 29 23  1  0
  3 31  1  0
  4 32  1  0
  4 33  1  0
  8 34  1  0
  8 35  1  0
  9 36  1  0
  9 37  1  0
 10 38  1  0
 10 39  1  0
 11 40  1  0
 11 41  1  0
 12 42  1  6
 14 43  1  0
 15 44  1  0
 18 45  1  0
 19 46  1  0
 21 47  1  0
 22 48  1  0
 24 49  1  0
 27 50  1  0
 28 51  1  0
M  END
>  <smiles>  (1) 
O=C(NCC(=O)N1CCCCC1c1ccc(Br)cc1)c1ccc2cc(Cl)ccc2n1

>  <score_type>  (1) 
oracle

>  <origin>  (1) 
autodockgpu

>  <m_score__min__energy>  (1) 
-9.4900000000000002

>  <m_primary>  (1) 
energy

>  <rmsd>  (1) 
1.9745057710364646

>  <m_score__min__rmsd>  (1) 
1.9745057710364646

>  <meeko>  (1) 
{"free_energy": -9.25, "intermolecular_energy": -10.74, "internal_energy": -1.57, "cluster_size": 29, "cluster_id": 1, "rank_in_cluster": 7}

>  <energy>  (1) 
-9.49

>  <cluster_rmsd>  (1) 
0.0

>  <cluster>  (1) 
1

$$$$

     RDKit          3D

 51 54  0  0  0  0  0  0  0  0999 V2000
  138.3130   71.3960  221.2850 O   0  0  0  0  0  0  0  0  0  0  0  0
  138.8670   71.9360  222.2880 C   0  0  0  0  0  0  0  0  0  0  0  0
  139.0800   73.3430  222.2650 N   0  0  0  0  0  0  0  0  0  0  0  0
  138.6480   74.0640  221.0890 C   0  0  0  0  0  0  0  0  0  0  0  0
  139.6590   73.9610  219.9930 C   0  0  0  0  0  0  0  0  0  0  0  0
  139.3310   73.7520  218.7930 O   0  0  0  0  0  0  0  0  0  0  0  0
  141.0520   74.0960  220.2530 N   0  0  0  0  0  0  0  0  0  0  0  0
  141.7080   73.0440  221.0020 C   0  0  0  0  0  0  0  0  0  0  0  0
  143.1500   72.8500  220.6760 C   0  0  0  0  0  0  0  0  0  0  0  0
  143.8580   74.1750  220.4870 C   0  0  0  0  0  0  0  0  0  0  0  0
  143.1960   75.0160  219.4350 C   0  0  0  0  0  0  0  0  0  0  0  0
  141.7310   75.2740  219.7540 C   0  0  2  0  0  0  0  0  0  0  0  0
  141.5800   76.4590  220.6430 C   0  0  0  0  0  0  0  0  0  0  0  0
  141.9540   77.7330  220.2700 C   0  0  0  0  0  0  0  0  0  0  0  0
  141.8170   78.8350  221.0860 C   0  0  0  0  0  0  0  0  0  0  0  0
  141.2810   78.6960  222.3490 C   0  0  0  0  0  0  0  0  0  0  0  0
  141.0990   80.2280  223.4640 Br  0  0  0  0  0  0  0  0  0  0  0  0
  140.8960   77.4380  222.7580 C   0  0  0  0  0  0  0  0  0  0  0  0
  141.0390   76.3450  221.9300 C   0  0  0  0  0  0  0  0  0  0  0  0
  139.2760   71.1430  223.4410 C   0  0  0  0  0  0  0  0  0  0  0  0
  139.0940   69.7720  223.4010 C   0  0  0  0  0  0  0  0  0  0  0  0
  139.4450   68.9360  224.4340 C   0  0  0  0  0  0  0  0  0  0  0  0
  140.0060   69.5140  225.5540 C   0  0  0  0  0  0  0  0  0  0  0  0
  140.3590   68.6860  226.5850 C   0  0  0  0  0  0  0  0  0  0  0  0
  140.9240   69.2170  227.7250 C   0  0  0  0  0  0  0  0  0  0  0  0
  141.3680   68.1430  229.0330 Cl  0  0  0  0  0  0  0  0  0  0  0  0
  141.1100   70.5820  227.7760 C   0  0  0  0  0  0  0  0  0  0  0  0
  140.7500   71.4100  226.7250 C   0  0  0  0  0  0  0  0  0  0  0  0
  140.1800   70.8800  225.5720 C   0  0  0  0  0  0  0  0  0  0  0  0
  139.8250   71.6740  224.5470 N   0  0  0  0  0  0  0  0  0  0  0  0
  139.5340   73.8160  223.0780 H   0  0  0  0  0  0  0  0  0  0  0  0
  137.6944   73.6419  220.7390 H   0  0  0  0  0  0  0  0  0  0  0  0
  138.5272   75.1247  221.3543 H   0  0  0  0  0  0  0  0  0  0  0  0
  141.6286   73.2854  222.0723 H   0  0  0  0  0  0  0  0  0  0  0  0
  141.2002   72.1070  220.7295 H   0  0  0  0  0  0  0  0  0  0  0  0
  143.6319   72.3011  221.4984 H   0  0  0  0  0  0  0  0  0  0  0  0
  143.2186   72.2841  219.7352 H   0  0  0  0  0  0  0  0  0  0  0  0
  143.8470   74.7237  221.4403 H   0  0  0  0  0  0  0  0  0  0  0  0
  144.8882   73.9686  220.1612 H   0  0  0  0  0  0  0  0  0  0  0  0
  143.7207   75.9805  219.3685 H   0  0  0  0  0  0  0  0  0  0  0  0
  143.2463   74.4707  218.4810 H   0  0  0  0  0  0  0  0  0  0  0  0
  141.2236   75.5158  218.8084 H   0  0  0  0  0  0  0  0  0  0  0  0
  142.3845   77.8771  219.2680 H   0  0  0  0  0  0  0  0  0  0  0  0
  142.1353   79.8259  220.7298 H   0  0  0  0  0  0  0  0  0  0  0  0
  140.4673   77.3034  223.7620 H   0  0  0  0  0  0  0  0  0  0  0  0
  140.7194   75.3560  222.2900 H   0  0  0  0  0  0  0  0  0  0  0  0
  138.6467   69.3296  222.4987 H   0  0  0  0  0  0  0  0  0  0  0  0
  139.2850   67.8496  224.3702 H   0  0  0  0  0  0  0  0  0  0  0  0
  140.1926   67.6016  226.5044 H   0  0  0  0  0  0  0  0  0  0  0  0
  141.5572   71.0267  228.6772 H   0  0  0  0  0  0  0  0  0  0  0  0
  140.9162   72.4946  226.8029 H   0  0  0  0  0  0  0  0  0  0  0  0
  1  2  2  0
  2  3  1  0
  3  4  1  0
  4  5  1  0
  5  6  2  0
  5  7  1  0
  7  8  1  0
  8  9  1  0
  9 10  1  0
 10 11  1  0
 11 12  1  0
 12 13  1  0
 13 14  2  0
 14 15  1  0
 15 16  2  0
 16 17  1  0
 16 18  1  0
 18 19  2  0
  2 20  1  0
 20 21  2  0
 21 22  1  0
 22 23  2  0
 23 24  1  0
 24 25  2  0
 25 26  1  0
 25 27  1  0
 27 28  2  0
 28 29  1  0
 29 30  2  0
 12  7  1  0
 19 13  1  0
 30 20  1  0
 29 23  1  0
  3 31  1  0
  4 32  1  0
  4 33  1  0
  8 34  1  0
  8 35  1  0
  9 36  1  0
  9 37  1  0
 10 38  1  0
 10 39  1  0
 11 40  1  0
 11 41  1  0
 12 42  1  6
 14 43  1  0
 15 44  1  0
 18 45  1  0
 19 46  1  0
 21 47  1  0
 22 48  1  0
 24 49  1  0
 27 50  1  0
 28 51  1  0
M  END
>  <smiles>  (2) 
O=C(NCC(=O)N1CCCCC1c1ccc(Br)cc1)c1ccc2cc(Cl)ccc2n1

>  <score_type>  (2) 
oracle

>  <origin>  (2) 
autodockgpu

>  <m_score__min__energy>  (2) 
-9.4900000000000002

>  <m_primary>  (2) 
energy

>  <rmsd>  (2) 
2.489063735919462

>  <m_score__min__rmsd>  (2) 
2.489063735919462

>  <meeko>  (2) 
{"free_energy": -8.82, "intermolecular_energy": -10.31, "internal_energy": -1.86, "cluster_size": 29, "cluster_id": 1, "rank_in_cluster": 20}

>  <energy>  (2) 
-9.48

>  <cluster_rmsd>  (2) 
0.11

>  <cluster>  (2) 
1

$$$$

     RDKit          3D

 51 54  0  0  0  0  0  0  0  0999 V2000
  138.7390   71.5450  220.8720 O   0  0  0  0  0  0  0  0  0  0  0  0
  139.0450   72.0780  221.9800 C   0  0  0  0  0  0  0  0  0  0  0  0
  139.0720   73.4980  222.0610 N   0  0  0  0  0  0  0  0  0  0  0  0
  138.7470   74.2410  220.8640 C   0  0  0  0  0  0  0  0  0  0  0  0
  139.8010   74.0630  219.8180 C   0  0  0  0  0  0  0  0  0  0  0  0
  139.5210   73.7610  218.6260 O   0  0  0  0  0  0  0  0  0  0  0  0
  141.1820   74.2280  220.1210 N   0  0  0  0  0  0  0  0  0  0  0  0
  141.8460   73.1750  220.8600 C   0  0  0  0  0  0  0  0  0  0  0  0
  143.3020   73.0290  220.5690 C   0  0  0  0  0  0  0  0  0  0  0  0
  143.9760   74.3770  220.4350 C   0  0  0  0  0  0  0  0  0  0  0  0
  143.3200   75.2290  219.3880 C   0  0  0  0  0  0  0  0  0  0  0  0
  141.8400   75.4380  219.6730 C   0  0  2  0  0  0  0  0  0  0  0  0
  141.6330   76.5940  220.5880 C   0  0  0  0  0  0  0  0  0  0  0  0
  141.0820   76.4680  221.8460 C   0  0  0  0  0  0  0  0  0  0  0  0
  140.8870   77.5330  222.7000 C   0  0  0  0  0  0  0  0  0  0  0  0
  141.2510   78.8050  222.3120 C   0  0  0  0  0  0  0  0  0  0  0  0
  140.9750   80.2640  223.5030 Br  0  0  0  0  0  0  0  0  0  0  0  0
  141.8040   78.9700  221.0610 C   0  0  0  0  0  0  0  0  0  0  0  0
  141.9930   77.8960  220.2180 C   0  0  0  0  0  0  0  0  0  0  0  0
  139.3600   71.2620  223.1460 C   0  0  0  0  0  0  0  0  0  0  0  0
  139.0310   69.9190  223.1260 C   0  0  0  0  0  0  0  0  0  0  0  0
  139.2850   69.0650  224.1730 C   0  0  0  0  0  0  0  0  0  0  0  0
  139.9010   69.5960  225.2870 C   0  0  0  0  0  0  0  0  0  0  0  0
  140.1570   68.7510  226.3330 C   0  0  0  0  0  0  0  0  0  0  0  0
  140.7700   69.2350  227.4690 C   0  0  0  0  0  0  0  0  0  0  0  0
  141.0890   68.1390  228.7940 Cl  0  0  0  0  0  0  0  0  0  0  0  0
  141.1030   70.5720  227.5010 C   0  0  0  0  0  0  0  0  0  0  0  0
  140.8390   71.4180  226.4360 C   0  0  0  0  0  0  0  0  0  0  0  0
  140.2210   70.9360  225.2870 C   0  0  0  0  0  0  0  0  0  0  0  0
  139.9590   71.7480  224.2480 N   0  0  0  0  0  0  0  0  0  0  0  0
  139.3200   73.9660  222.9620 H   0  0  0  0  0  0  0  0  0  0  0  0
  137.7847   73.8832  220.4691 H   0  0  0  0  0  0  0  0  0  0  0  0
  138.6860   75.3088  221.1209 H   0  0  0  0  0  0  0  0  0  0  0  0
  141.7310   73.3854  221.9336 H   0  0  0  0  0  0  0  0  0  0  0  0
  141.3720   72.2322  220.5494 H   0  0  0  0  0  0  0  0  0  0  0  0
  143.7769   72.4714  221.3897 H   0  0  0  0  0  0  0  0  0  0  0  0
  143.4124   72.4905  219.6162 H   0  0  0  0  0  0  0  0  0  0  0  0
  143.9235   74.8986  221.4021 H   0  0  0  0  0  0  0  0  0  0  0  0
  145.0198   74.2077  220.1319 H   0  0  0  0  0  0  0  0  0  0  0  0
  143.8192   76.2089  219.3626 H   0  0  0  0  0  0  0  0  0  0  0  0
  143.4117   74.7125  218.4212 H   0  0  0  0  0  0  0  0  0  0  0  0
  141.3500   75.6916  218.7214 H   0  0  0  0  0  0  0  0  0  0  0  0
  140.7824   75.4656  222.1859 H   0  0  0  0  0  0  0  0  0  0  0  0
  140.4406   77.3676  223.6917 H   0  0  0  0  0  0  0  0  0  0  0  0
  142.0998   79.9762  220.7292 H   0  0  0  0  0  0  0  0  0  0  0  0
  142.4390   78.0662  219.2270 H   0  0  0  0  0  0  0  0  0  0  0  0
  138.5418   69.5139  222.2279 H   0  0  0  0  0  0  0  0  0  0  0  0
  139.0082   68.0015  224.1243 H   0  0  0  0  0  0  0  0  0  0  0  0
  139.8747   67.6899  226.2674 H   0  0  0  0  0  0  0  0  0  0  0  0
  141.5925   70.9792  228.3980 H   0  0  0  0  0  0  0  0  0  0  0  0
  141.1205   72.4795  226.4997 H   0  0  0  0  0  0  0  0  0  0  0  0
  1  2  2  0
  2  3  1  0
  3  4  1  0
  4  5  1  0
  5  6  2  0
  5  7  1  0
  7  8  1  0
  8  9  1  0
  9 10  1  0
 10 11  1  0
 11 12  1  0
 12 13  1  0
 13 14  2  0
 14 15  1  0
 15 16  2  0
 16 17  1  0
 16 18  1  0
 18 19  2  0
  2 20  1  0
 20 21  2  0
 21 22  1  0
 22 23  2  0
 23 24  1  0
 24 25  2  0
 25 26  1  0
 25 27  1  0
 27 28  2  0
 28 29  1  0
 29 30  2  0
 12  7  1  0
 19 13  1  0
 30 20  1  0
 29 23  1  0
  3 31  1  0
  4 32  1  0
  4 33  1  0
  8 34  1  0
  8 35  1  0
  9 36  1  0
  9 37  1  0
 10 38  1  0
 10 39  1  0
 11 40  1  0
 11 41  1  0
 12 42  1  6
 14 43  1  0
 15 44  1  0
 18 45  1  0
 19 46  1  0
 21 47  1  0
 22 48  1  0
 24 49  1  0
 27 50  1  0
 28 51  1  0
M  END
>  <smiles>  (3) 
O=C(NCC(=O)N1CCCCC1c1ccc(Br)cc1)c1ccc2cc(Cl)ccc2n1

>  <score_type>  (3) 
oracle

>  <origin>  (3) 
autodockgpu

>  <m_score__min__energy>  (3) 
-9.4900000000000002

>  <m_primary>  (3) 
energy

>  <rmsd>  (3) 
2.4725566822911533

>  <m_score__min__rmsd>  (3) 
2.4725566822911533

>  <meeko>  (3) 
{"free_energy": -8.91, "intermolecular_energy": -10.41, "internal_energy": -1.86, "cluster_size": 29, "cluster_id": 1, "rank_in_cluster": 15}

>  <energy>  (3) 
-9.45

>  <cluster_rmsd>  (3) 
0.09

>  <cluster>  (3) 
1

$$$$

     RDKit          3D

 51 54  0  0  0  0  0  0  0  0999 V2000
  140.1710   72.2540  220.8470 O   0  0  0  0  0  0  0  0  0  0  0  0
  139.6250   72.5150  221.9600 C   0  0  0  0  0  0  0  0  0  0  0  0
  138.8360   73.6950  222.0640 N   0  0  0  0  0  0  0  0  0  0  0  0
  138.7130   74.5210  220.8840 C   0  0  0  0  0  0  0  0  0  0  0  0
  138.6590   75.9710  221.2460 C   0  0  0  0  0  0  0  0  0  0  0  0
  137.8760   76.4130  222.1320 O   0  0  0  0  0  0  0  0  0  0  0  0
  139.4940   76.9280  220.6050 N   0  0  0  0  0  0  0  0  0  0  0  0
  138.9750   77.6080  219.4360 C   0  0  0  0  0  0  0  0  0  0  0  0
  139.5080   78.9850  219.2260 C   0  0  0  0  0  0  0  0  0  0  0  0
  140.9890   79.0570  219.5260 C   0  0  0  0  0  0  0  0  0  0  0  0
  141.3010   78.5860  220.9170 C   0  0  0  0  0  0  0  0  0  0  0  0
  140.8120   77.1660  221.1570 C   0  0  2  0  0  0  0  0  0  0  0  0
  141.8240   76.1710  220.7090 C   0  0  0  0  0  0  0  0  0  0  0  0
  142.7980   76.4560  219.7750 C   0  0  0  0  0  0  0  0  0  0  0  0
  143.7400   75.5410  219.3560 C   0  0  0  0  0  0  0  0  0  0  0  0
  143.7410   74.2640  219.8750 C   0  0  0  0  0  0  0  0  0  0  0  0
  145.0480   73.0120  219.2850 Br  0  0  0  0  0  0  0  0  0  0  0  0
  142.7820   73.9410  220.8100 C   0  0  0  0  0  0  0  0  0  0  0  0
  141.8460   74.8670  221.2200 C   0  0  0  0  0  0  0  0  0  0  0  0
  139.7950   71.6320  223.1080 C   0  0  0  0  0  0  0  0  0  0  0  0
  139.3960   70.3120  222.9950 C   0  0  0  0  0  0  0  0  0  0  0  0
  139.5130   69.4010  224.0180 C   0  0  0  0  0  0  0  0  0  0  0  0
  140.0580   69.8460  225.2030 C   0  0  0  0  0  0  0  0  0  0  0  0
  140.1780   68.9420  226.2240 C   0  0  0  0  0  0  0  0  0  0  0  0
  140.7170   69.3400  227.4300 C   0  0  0  0  0  0  0  0  0  0  0  0
  140.8620   68.1710  228.7220 Cl  0  0  0  0  0  0  0  0  0  0  0  0
  141.1190   70.6530  227.5530 C   0  0  0  0  0  0  0  0  0  0  0  0
  140.9930   71.5590  226.5120 C   0  0  0  0  0  0  0  0  0  0  0  0
  140.4500   71.1630  225.2940 C   0  0  0  0  0  0  0  0  0  0  0  0
  140.3220   72.0340  224.2770 N   0  0  0  0  0  0  0  0  0  0  0  0
  138.3730   73.9360  222.9690 H   0  0  0  0  0  0  0  0  0  0  0  0
  139.5804   74.3458  220.2306 H   0  0  0  0  0  0  0  0  0  0  0  0
  137.7796   74.2548  220.3665 H   0  0  0  0  0  0  0  0  0  0  0  0
  139.2250   77.0054  218.5503 H   0  0  0  0  0  0  0  0  0  0  0  0
  137.8920   77.7159  219.5956 H   0  0  0  0  0  0  0  0  0  0  0  0
  139.3406   79.2774  218.1789 H   0  0  0  0  0  0  0  0  0  0  0  0
  138.9831   79.6669  219.9112 H   0  0  0  0  0  0  0  0  0  0  0  0
  141.5290   78.4239  218.8065 H   0  0  0  0  0  0  0  0  0  0  0  0
  141.3034   80.1078  219.4429 H   0  0  0  0  0  0  0  0  0  0  0  0
  142.3902   78.6174  221.0673 H   0  0  0  0  0  0  0  0  0  0  0  0
  140.7840   79.2494  221.6260 H   0  0  0  0  0  0  0  0  0  0  0  0
  140.6935   77.0357  222.2428 H   0  0  0  0  0  0  0  0  0  0  0  0
  142.8245   77.4667  219.3416 H   0  0  0  0  0  0  0  0  0  0  0  0
  144.4917   75.8302  218.6067 H   0  0  0  0  0  0  0  0  0  0  0  0
  142.7626   72.9273  221.2367 H   0  0  0  0  0  0  0  0  0  0  0  0
  141.0959   74.5735  221.9691 H   0  0  0  0  0  0  0  0  0  0  0  0
  138.9645   69.9753  222.0408 H   0  0  0  0  0  0  0  0  0  0  0  0
  139.1846   68.3583  223.8955 H   0  0  0  0  0  0  0  0  0  0  0  0
  139.8461   67.9027  226.0834 H   0  0  0  0  0  0  0  0  0  0  0  0
  141.5526   70.9915  228.5056 H   0  0  0  0  0  0  0  0  0  0  0  0
  141.3247   72.5987  226.6498 H   0  0  0  0  0  0  0  0  0  0  0  0
  1  2  2  0
  2  3  1  0
  3  4  1  0
  4  5  1  0
  5  6  2  0
  5  7  1  0
  7  8  1  0
  8  9  1  0
  9 10  1  0
 10 11  1  0
 11 12  1  0
 12 13  1  0
 13 14  2  0
 14 15  1  0
 15 16  2  0
 16 17  1  0
 16 18  1  0
 18 19  2  0
  2 20  1  0
 20 21  2  0
 21 22  1  0
 22 23  2  0
 23 24  1  0
 24 25  2  0
 25 26  1  0
 25 27  1  0
 27 28  2  0
 28 29  1  0
 29 30  2  0
 12  7  1  0
 19 13  1  0
 30 20  1  0
 29 23  1  0
  3 31  1  0
  4 32  1  0
  4 33  1  0
  8 34  1  0
  8 35  1  0
  9 36  1  0
  9 37  1  0
 10 38  1  0
 10 39  1  0
 11 40  1  0
 11 41  1  0
 12 42  1  1
 14 43  1  0
 15 44  1  0
 18 45  1  0
 19 46  1  0
 21 47  1  0
 22 48  1  0
 24 49  1  0
 27 50  1  0
 28 51  1  0
M  END
>  <smiles>  (4) 
O=C(NCC(=O)N1CCCCC1c1ccc(Br)cc1)c1ccc2cc(Cl)ccc2n1

>  <score_type>  (4) 
oracle

>  <origin>  (4) 
autodockgpu

>  <m_score__min__energy>  (4) 
-9.4900000000000002

>  <m_primary>  (4) 
energy

>  <rmsd>  (4) 
2.0894054309687897

>  <m_score__min__rmsd>  (4) 
2.0894054309687897

>  <meeko>  (4) 
{"free_energy": -8.24, "intermolecular_energy": -9.74, "internal_energy": -1.84, "cluster_size": 3, "cluster_id": 5, "rank_in_cluster": 2}

>  <energy>  (4) 
-9.3

>  <cluster_rmsd>  (4) 
0.55

>  <cluster>  (4) 
1

$$$$

     RDKit          3D

 51 54  0  0  0  0  0  0  0  0999 V2000
  138.1810   73.9570  220.2160 O   0  0  0  0  0  0  0  0  0  0  0  0
  138.1590   74.4550  221.3810 C   0  0  0  0  0  0  0  0  0  0  0  0
  137.3070   73.8620  222.3530 N   0  0  0  0  0  0  0  0  0  0  0  0
  136.5170   72.7220  221.9410 C   0  0  0  0  0  0  0  0  0  0  0  0
  137.2740   71.4470  222.1310 C   0  0  0  0  0  0  0  0  0  0  0  0
  136.7070   70.3740  222.4770 O   0  0  0  0  0  0  0  0  0  0  0  0
  138.6810   71.3810  221.9290 N   0  0  0  0  0  0  0  0  0  0  0  0
  139.1680   70.6720  220.7640 C   0  0  0  0  0  0  0  0  0  0  0  0
  140.4630   71.1770  220.2210 C   0  0  0  0  0  0  0  0  0  0  0  0
  141.4290   71.5270  221.3310 C   0  0  0  0  0  0  0  0  0  0  0  0
  140.8440   72.5230  222.2890 C   0  0  0  0  0  0  0  0  0  0  0  0
  139.5420   72.0260  222.9000 C   0  0  2  0  0  0  0  0  0  0  0  0
  139.8040   71.1870  224.1020 C   0  0  0  0  0  0  0  0  0  0  0  0
  139.2280   69.9490  224.2960 C   0  0  0  0  0  0  0  0  0  0  0  0
  139.4660   69.1660  225.4050 C   0  0  0  0  0  0  0  0  0  0  0  0
  140.3190   69.6090  226.3930 C   0  0  0  0  0  0  0  0  0  0  0  0
  140.6370   68.5160  227.9190 Br  0  0  0  0  0  0  0  0  0  0  0  0
  140.9140   70.8420  226.2350 C   0  0  0  0  0  0  0  0  0  0  0  0
  140.6660   71.6140  225.1200 C   0  0  0  0  0  0  0  0  0  0  0  0
  138.9860   75.6070  221.7220 C   0  0  0  0  0  0  0  0  0  0  0  0
  140.3100   75.6160  221.3220 C   0  0  0  0  0  0  0  0  0  0  0  0
  141.1720   76.6520  221.5940 C   0  0  0  0  0  0  0  0  0  0  0  0
  140.6680   77.7250  222.3000 C   0  0  0  0  0  0  0  0  0  0  0  0
  141.5220   78.7600  222.5730 C   0  0  0  0  0  0  0  0  0  0  0  0
  141.0650   79.8550  223.2760 C   0  0  0  0  0  0  0  0  0  0  0  0
  142.1710   81.1670  223.6150 Cl  0  0  0  0  0  0  0  0  0  0  0  0
  139.7470   79.8570  223.6800 C   0  0  0  0  0  0  0  0  0  0  0  0
  138.8930   78.8030  223.3980 C   0  0  0  0  0  0  0  0  0  0  0  0
  139.3470   77.6970  222.6880 C   0  0  0  0  0  0  0  0  0  0  0  0
  138.5270   76.6680  222.4090 N   0  0  0  0  0  0  0  0  0  0  0  0
  137.2690   74.2510  223.3220 H   0  0  0  0  0  0  0  0  0  0  0  0
  135.5964   72.6865  222.5421 H   0  0  0  0  0  0  0  0  0  0  0  0
  136.2768   72.8304  220.8730 H   0  0  0  0  0  0  0  0  0  0  0  0
  139.3004   69.6147  221.0373 H   0  0  0  0  0  0  0  0  0  0  0  0
  138.4194   70.8249  219.9727 H   0  0  0  0  0  0  0  0  0  0  0  0
  140.9131   70.3986  219.5873 H   0  0  0  0  0  0  0  0  0  0  0  0
  140.2618   72.0877  219.6378 H   0  0  0  0  0  0  0  0  0  0  0  0
  141.6838   70.6102  221.8828 H   0  0  0  0  0  0  0  0  0  0  0  0
  142.3232   71.9772  220.8752 H   0  0  0  0  0  0  0  0  0  0  0  0
  141.5680   72.7074  223.0963 H   0  0  0  0  0  0  0  0  0  0  0  0
  140.6281   73.4462  221.7312 H   0  0  0  0  0  0  0  0  0  0  0  0
  138.9773   72.9062  223.2412 H   0  0  0  0  0  0  0  0  0  0  0  0
  138.5427   69.5665  223.5253 H   0  0  0  0  0  0  0  0  0  0  0  0
  138.9747   68.1866  225.5017 H   0  0  0  0  0  0  0  0  0  0  0  0
  141.5979   71.2163  227.0111 H   0  0  0  0  0  0  0  0  0  0  0  0
  141.1590   72.5929  225.0273 H   0  0  0  0  0  0  0  0  0  0  0  0
  140.6921   74.7519  220.7587 H   0  0  0  0  0  0  0  0  0  0  0  0
  142.2205   76.6265  221.2623 H   0  0  0  0  0  0  0  0  0  0  0  0
  142.5674   78.7183  222.2333 H   0  0  0  0  0  0  0  0  0  0  0  0
  139.3621   80.7204  224.2425 H   0  0  0  0  0  0  0  0  0  0  0  0
  137.8477   78.8415  223.7384 H   0  0  0  0  0  0  0  0  0  0  0  0
  1  2  2  0
  2  3  1  0
  3  4  1  0
  4  5  1  0
  5  6  2  0
  5  7  1  0
  7  8  1  0
  8  9  1  0
  9 10  1  0
 10 11  1  0
 11 12  1  0
 12 13  1  0
 13 14  2  0
 14 15  1  0
 15 16  2  0
 16 17  1  0
 16 18  1  0
 18 19  2  0
  2 20  1  0
 20 21  2  0
 21 22  1  0
 22 23  2  0
 23 24  1  0
 24 25  2  0
 25 26  1  0
 25 27  1  0
 27 28  2  0
 28 29  1  0
 29 30  2  0
 12  7  1  0
 19 13  1  0
 30 20  1  0
 29 23  1  0
  3 31  1  0
  4 32  1  0
  4 33  1  0
  8 34  1  0
  8 35  1  0
  9 36  1  0
  9 37  1  0
 10 38  1  0
 10 39  1  0
 11 40  1  0
 11 41  1  0
 12 42  1  1
 14 43  1  0
 15 44  1  0
 18 45  1  0
 19 46  1  0
 21 47  1  0
 22 48  1  0
 24 49  1  0
 27 50  1  0
 28 51  1  0
M  END
>  <smiles>  (5) 
O=C(NCC(=O)N1CCCCC1c1ccc(Br)cc1)c1ccc2cc(Cl)ccc2n1

>  <score_type>  (5) 
oracle

>  <origin>  (5) 
autodockgpu

>  <m_score__min__energy>  (5) 
-9.4900000000000002

>  <m_primary>  (5) 
energy

>  <rmsd>  (5) 
6.914643853288428

>  <m_score__min__rmsd>  (5) 
6.914643853288428

>  <meeko>  (5) 
{"free_energy": -8.26, "intermolecular_energy": -9.75, "internal_energy": -2.08, "cluster_size": 7, "cluster_id": 4, "rank_in_cluster": 3}

>  <energy>  (5) 
-9.26

>  <cluster_rmsd>  (5) 
0.59

>  <cluster>  (5) 
1

$$$$

     RDKit          3D

 51 54  0  0  0  0  0  0  0  0999 V2000
  138.0360   71.2880  221.4500 O   0  0  0  0  0  0  0  0  0  0  0  0
  138.6670   71.8280  222.4060 C   0  0  0  0  0  0  0  0  0  0  0  0
  138.9310   73.2250  222.3360 N   0  0  0  0  0  0  0  0  0  0  0  0
  138.4580   73.9360  221.1690 C   0  0  0  0  0  0  0  0  0  0  0  0
  139.1740   75.2380  221.0060 C   0  0  0  0  0  0  0  0  0  0  0  0
  138.5790   76.3470  221.0870 O   0  0  0  0  0  0  0  0  0  0  0  0
  140.5740   75.2880  220.7500 N   0  0  0  0  0  0  0  0  0  0  0  0
  141.3870   74.1760  221.1960 C   0  0  0  0  0  0  0  0  0  0  0  0
  142.6010   73.9190  220.3700 C   0  0  0  0  0  0  0  0  0  0  0  0
  143.2750   75.2100  219.9600 C   0  0  0  0  0  0  0  0  0  0  0  0
  142.3350   76.1240  219.2300 C   0  0  0  0  0  0  0  0  0  0  0  0
  141.1010   76.4480  220.0590 C   0  0  2  0  0  0  0  0  0  0  0  0
  141.3530   77.6040  220.9620 C   0  0  0  0  0  0  0  0  0  0  0  0
  141.1610   77.5510  222.3260 C   0  0  0  0  0  0  0  0  0  0  0  0
  141.3940   78.6170  223.1690 C   0  0  0  0  0  0  0  0  0  0  0  0
  141.8430   79.8160  222.6580 C   0  0  0  0  0  0  0  0  0  0  0  0
  142.1590   81.2780  223.8340 Br  0  0  0  0  0  0  0  0  0  0  0  0
  142.0460   79.9080  221.2980 C   0  0  0  0  0  0  0  0  0  0  0  0
  141.8090   78.8330  220.4680 C   0  0  0  0  0  0  0  0  0  0  0  0
  139.1130   71.0450  223.5520 C   0  0  0  0  0  0  0  0  0  0  0  0
  138.9100   69.6770  223.5400 C   0  0  0  0  0  0  0  0  0  0  0  0
  139.2930   68.8500  224.5700 C   0  0  0  0  0  0  0  0  0  0  0  0
  139.9080   69.4360  225.6570 C   0  0  0  0  0  0  0  0  0  0  0  0
  140.2920   68.6180  226.6850 C   0  0  0  0  0  0  0  0  0  0  0  0
  140.9100   69.1570  227.7930 C   0  0  0  0  0  0  0  0  0  0  0  0
  141.3930   68.0950  229.0960 Cl  0  0  0  0  0  0  0  0  0  0  0  0
  141.1170   70.5200  227.8150 C   0  0  0  0  0  0  0  0  0  0  0  0
  140.7250   71.3380  226.7690 C   0  0  0  0  0  0  0  0  0  0  0  0
  140.1010   70.8000  225.6480 C   0  0  0  0  0  0  0  0  0  0  0  0
  139.7150   71.5840  224.6270 N   0  0  0  0  0  0  0  0  0  0  0  0
  139.4490   73.6980  223.1100 H   0  0  0  0  0  0  0  0  0  0  0  0
  138.6306   73.3167  220.2764 H   0  0  0  0  0  0  0  0  0  0  0  0
  137.3846   74.1407  221.2955 H   0  0  0  0  0  0  0  0  0  0  0  0
  141.7115   74.3810  222.2269 H   0  0  0  0  0  0  0  0  0  0  0  0
  140.7577   73.2779  221.1098 H   0  0  0  0  0  0  0  0  0  0  0  0
  143.3104   73.3153  220.9551 H   0  0  0  0  0  0  0  0  0  0  0  0
  142.2924   73.3858  219.4587 H   0  0  0  0  0  0  0  0  0  0  0  0
  143.6407   75.7225  220.8620 H   0  0  0  0  0  0  0  0  0  0  0  0
  144.1046   74.9613  219.2818 H   0  0  0  0  0  0  0  0  0  0  0  0
  142.8612   77.0608  218.9943 H   0  0  0  0  0  0  0  0  0  0  0  0
  142.0055   75.6129  218.3133 H   0  0  0  0  0  0  0  0  0  0  0  0
  140.3050   76.7533  219.3639 H   0  0  0  0  0  0  0  0  0  0  0  0
  140.8029   76.6082  222.7653 H   0  0  0  0  0  0  0  0  0  0  0  0
  141.2214   78.5106  224.2502 H   0  0  0  0  0  0  0  0  0  0  0  0
  142.4032   80.8551  220.8675 H   0  0  0  0  0  0  0  0  0  0  0  0
  141.9829   78.9434  219.3875 H   0  0  0  0  0  0  0  0  0  0  0  0
  138.4183   69.2286  222.6641 H   0  0  0  0  0  0  0  0  0  0  0  0
  139.1161   67.7651  224.5288 H   0  0  0  0  0  0  0  0  0  0  0  0
  140.1082   67.5350  226.6272 H   0  0  0  0  0  0  0  0  0  0  0  0
  141.6083   70.9710  228.6898 H   0  0  0  0  0  0  0  0  0  0  0  0
  140.9083   72.4212  226.8247 H   0  0  0  0  0  0  0  0  0  0  0  0
  1  2  2  0
  2  3  1  0
  3  4  1  0
  4  5  1  0
  5  6  2  0
  5  7  1  0
  7  8  1  0
  8  9  1  0
  9 10  1  0
 10 11  1  0
 11 12  1  0
 12 13  1  0
 13 14  2  0
 14 15  1  0
 15 16  2  0
 16 17  1  0
 16 18  1  0
 18 19  2  0
  2 20  1  0
 20 21  2  0
 21 22  1  0
 22 23  2  0
 23 24  1  0
 24 25  2  0
 25 26  1  0
 25 27  1  0
 27 28  2  0
 28 29  1  0
 29 30  2  0
 12  7  1  0
 19 13  1  0
 30 20  1  0
 29 23  1  0
  3 31  1  0
  4 32  1  0
  4 33  1  0
  8 34  1  0
  8 35  1  0
  9 36  1  0
  9 37  1  0
 10 38  1  0
 10 39  1  0
 11 40  1  0
 11 41  1  0
 12 42  1  6
 14 43  1  0
 15 44  1  0
 18 45  1  0
 19 46  1  0
 21 47  1  0
 22 48  1  0
 24 49  1  0
 27 50  1  0
 28 51  1  0
M  END
>  <smiles>  (6) 
O=C(NCC(=O)N1CCCCC1c1ccc(Br)cc1)c1ccc2cc(Cl)ccc2n1

>  <score_type>  (6) 
oracle

>  <origin>  (6) 
autodockgpu

>  <m_score__min__energy>  (6) 
-9.4900000000000002

>  <m_primary>  (6) 
energy

>  <rmsd>  (6) 
2.009422397587071

>  <m_score__min__rmsd>  (6) 
2.009422397587071

>  <meeko>  (6) 
{"free_energy": -9.26, "intermolecular_energy": -10.76, "internal_energy": -1.56, "cluster_size": 29, "cluster_id": 1, "rank_in_cluster": 6}

>  <energy>  (6) 
-9.26

>  <cluster_rmsd>  (6) 
0.72

>  <cluster>  (6) 
1

$$$$

     RDKit          3D

 51 54  0  0  0  0  0  0  0  0999 V2000
  138.3100   73.7710  220.5650 O   0  0  0  0  0  0  0  0  0  0  0  0
  138.1470   74.4460  221.6240 C   0  0  0  0  0  0  0  0  0  0  0  0
  137.1330   74.0380  222.5360 N   0  0  0  0  0  0  0  0  0  0  0  0
  136.3520   72.8720  222.1870 C   0  0  0  0  0  0  0  0  0  0  0  0
  137.0490   71.6160  222.5990 C   0  0  0  0  0  0  0  0  0  0  0  0
  136.4760   70.7220  223.2810 O   0  0  0  0  0  0  0  0  0  0  0  0
  138.4030   71.3640  222.2390 N   0  0  0  0  0  0  0  0  0  0  0  0
  138.6550   70.5560  221.0640 C   0  0  0  0  0  0  0  0  0  0  0  0
  139.9250   70.8720  220.3490 C   0  0  0  0  0  0  0  0  0  0  0  0
  141.0550   71.1370  221.3190 C   0  0  0  0  0  0  0  0  0  0  0  0
  140.7160   72.2350  222.2850 C   0  0  0  0  0  0  0  0  0  0  0  0
  139.4480   71.9300  223.0680 C   0  0  2  0  0  0  0  0  0  0  0  0
  139.7500   71.1100  224.2730 C   0  0  0  0  0  0  0  0  0  0  0  0
  139.1420   69.8990  224.5320 C   0  0  0  0  0  0  0  0  0  0  0  0
  139.4170   69.1340  225.6450 C   0  0  0  0  0  0  0  0  0  0  0  0
  140.3430   69.5670  226.5700 C   0  0  0  0  0  0  0  0  0  0  0  0
  140.7100   68.4980  228.1010 Br  0  0  0  0  0  0  0  0  0  0  0  0
  140.9700   70.7730  226.3460 C   0  0  0  0  0  0  0  0  0  0  0  0
  140.6850   71.5280  225.2280 C   0  0  0  0  0  0  0  0  0  0  0  0
  138.9750   75.6120  221.9090 C   0  0  0  0  0  0  0  0  0  0  0  0
  140.3020   75.5950  221.5190 C   0  0  0  0  0  0  0  0  0  0  0  0
  141.1650   76.6420  221.7400 C   0  0  0  0  0  0  0  0  0  0  0  0
  140.6610   77.7530  222.3830 C   0  0  0  0  0  0  0  0  0  0  0  0
  141.5160   78.7990  222.6050 C   0  0  0  0  0  0  0  0  0  0  0  0
  141.0590   79.9320  223.2450 C   0  0  0  0  0  0  0  0  0  0  0  0
  142.1660   81.2570  223.5200 Cl  0  0  0  0  0  0  0  0  0  0  0  0
  139.7380   79.9600  223.6390 C   0  0  0  0  0  0  0  0  0  0  0  0
  138.8820   78.8950  223.4080 C   0  0  0  0  0  0  0  0  0  0  0  0
  139.3370   77.7500  222.7630 C   0  0  0  0  0  0  0  0  0  0  0  0
  138.5160   76.7100  222.5340 N   0  0  0  0  0  0  0  0  0  0  0  0
  136.9770   74.5760  223.4180 H   0  0  0  0  0  0  0  0  0  0  0  0
  135.3782   72.9262  222.6957 H   0  0  0  0  0  0  0  0  0  0  0  0
  136.2169   72.8553  221.0954 H   0  0  0  0  0  0  0  0  0  0  0  0
  138.6905   69.5015  221.3749 H   0  0  0  0  0  0  0  0  0  0  0  0
  137.8397   70.7729  220.3581 H   0  0  0  0  0  0  0  0  0  0  0  0
  140.1962   70.0200  219.7082 H   0  0  0  0  0  0  0  0  0  0  0  0
  139.7663   71.7790  219.7473 H   0  0  0  0  0  0  0  0  0  0  0  0
  141.2616   70.2165  221.8847 H   0  0  0  0  0  0  0  0  0  0  0  0
  141.9355   71.4517  220.7397 H   0  0  0  0  0  0  0  0  0  0  0  0
  141.5499   72.3568  222.9920 H   0  0  0  0  0  0  0  0  0  0  0  0
  140.5473   73.1564  221.7084 H   0  0  0  0  0  0  0  0  0  0  0  0
  139.0408   72.8870  223.4261 H   0  0  0  0  0  0  0  0  0  0  0  0
  138.3989   69.5244  223.8126 H   0  0  0  0  0  0  0  0  0  0  0  0
  138.8968   68.1765  225.7955 H   0  0  0  0  0  0  0  0  0  0  0  0
  141.7108   71.1400  227.0716 H   0  0  0  0  0  0  0  0  0  0  0  0
  141.2067   72.4854  225.0822 H   0  0  0  0  0  0  0  0  0  0  0  0
  140.6854   74.7001  221.0071 H   0  0  0  0  0  0  0  0  0  0  0  0
  142.2154   76.5955  221.4169 H   0  0  0  0  0  0  0  0  0  0  0  0
  142.5632   78.7360  222.2743 H   0  0  0  0  0  0  0  0  0  0  0  0
  139.3524   80.8536  224.1516 H   0  0  0  0  0  0  0  0  0  0  0  0
  137.8343   78.9557  223.7374 H   0  0  0  0  0  0  0  0  0  0  0  0
  1  2  2  0
  2  3  1  0
  3  4  1  0
  4  5  1  0
  5  6  2  0
  5  7  1  0
  7  8  1  0
  8  9  1  0
  9 10  1  0
 10 11  1  0
 11 12  1  0
 12 13  1  0
 13 14  2  0
 14 15  1  0
 15 16  2  0
 16 17  1  0
 16 18  1  0
 18 19  2  0
  2 20  1  0
 20 21  2  0
 21 22  1  0
 22 23  2  0
 23 24  1  0
 24 25  2  0
 25 26  1  0
 25 27  1  0
 27 28  2  0
 28 29  1  0
 29 30  2  0
 12  7  1  0
 19 13  1  0
 30 20  1  0
 29 23  1  0
  3 31  1  0
  4 32  1  0
  4 33  1  0
  8 34  1  0
  8 35  1  0
  9 36  1  0
  9 37  1  0
 10 38  1  0
 10 39  1  0
 11 40  1  0
 11 41  1  0
 12 42  1  1
 14 43  1  0
 15 44  1  0
 18 45  1  0
 19 46  1  0
 21 47  1  0
 22 48  1  0
 24 49  1  0
 27 50  1  0
 28 51  1  0
M  END
>  <smiles>  (7) 
O=C(NCC(=O)N1CCCCC1c1ccc(Br)cc1)c1ccc2cc(Cl)ccc2n1

>  <score_type>  (7) 
oracle

>  <origin>  (7) 
autodockgpu

>  <m_score__min__energy>  (7) 
-9.4900000000000002

>  <m_primary>  (7) 
energy

>  <rmsd>  (7) 
7.002927664940708

>  <m_score__min__rmsd>  (7) 
7.002927664940708

>  <meeko>  (7) 
{"free_energy": -8.25, "intermolecular_energy": -9.74, "internal_energy": -2.11, "cluster_size": 7, "cluster_id": 4, "rank_in_cluster": 5}

>  <energy>  (7) 
-9.25

>  <cluster_rmsd>  (7) 
0.49

>  <cluster>  (7) 
1

$$$$

     RDKit          3D

 51 54  0  0  0  0  0  0  0  0999 V2000
  140.2050   72.2940  220.8980 O   0  0  0  0  0  0  0  0  0  0  0  0
  139.5800   72.5130  221.9780 C   0  0  0  0  0  0  0  0  0  0  0  0
  138.7220   73.6470  222.0430 N   0  0  0  0  0  0  0  0  0  0  0  0
  138.6220   74.4760  220.8620 C   0  0  0  0  0  0  0  0  0  0  0  0
  138.5870   75.9260  221.2260 C   0  0  0  0  0  0  0  0  0  0  0  0
  137.8300   76.3740  222.1300 O   0  0  0  0  0  0  0  0  0  0  0  0
  139.4150   76.8780  220.5660 N   0  0  0  0  0  0  0  0  0  0  0  0
  138.8970   77.5170  219.3740 C   0  0  0  0  0  0  0  0  0  0  0  0
  139.4110   78.8960  219.1300 C   0  0  0  0  0  0  0  0  0  0  0  0
  140.8880   78.9980  219.4410 C   0  0  0  0  0  0  0  0  0  0  0  0
  141.1950   78.5700  220.8470 C   0  0  0  0  0  0  0  0  0  0  0  0
  140.7240   77.1490  221.1230 C   0  0  2  0  0  0  0  0  0  0  0  0
  141.7550   76.1570  220.7110 C   0  0  0  0  0  0  0  0  0  0  0  0
  141.8040   74.8720  221.2090 C   0  0  0  0  0  0  0  0  0  0  0  0
  142.7550   73.9470  220.8320 C   0  0  0  0  0  0  0  0  0  0  0  0
  143.7230   74.2880  219.9110 C   0  0  0  0  0  0  0  0  0  0  0  0
  145.0280   72.9990  219.4020 Br  0  0  0  0  0  0  0  0  0  0  0  0
  143.7060   75.5640  219.3920 C   0  0  0  0  0  0  0  0  0  0  0  0
  142.7490   76.4780  219.7780 C   0  0  0  0  0  0  0  0  0  0  0  0
  139.7310   71.6300  223.1280 C   0  0  0  0  0  0  0  0  0  0  0  0
  139.2800   70.3270  223.0280 C   0  0  0  0  0  0  0  0  0  0  0  0
  139.3750   69.4160  224.0540 C   0  0  0  0  0  0  0  0  0  0  0  0
  139.9540   69.8460  225.2290 C   0  0  0  0  0  0  0  0  0  0  0  0
  140.0520   68.9430  226.2540 C   0  0  0  0  0  0  0  0  0  0  0  0
  140.6230   69.3250  227.4490 C   0  0  0  0  0  0  0  0  0  0  0  0
  140.7390   68.1580  228.7470 Cl  0  0  0  0  0  0  0  0  0  0  0  0
  141.0770   70.6220  227.5600 C   0  0  0  0  0  0  0  0  0  0  0  0
  140.9720   71.5270  226.5170 C   0  0  0  0  0  0  0  0  0  0  0  0
  140.3980   71.1470  225.3080 C   0  0  0  0  0  0  0  0  0  0  0  0
  140.2900   72.0170  224.2880 N   0  0  0  0  0  0  0  0  0  0  0  0
  138.1930   73.8520  222.9200 H   0  0  0  0  0  0  0  0  0  0  0  0
  139.4923   74.2882  220.2160 H   0  0  0  0  0  0  0  0  0  0  0  0
  137.6896   74.2244  220.3354 H   0  0  0  0  0  0  0  0  0  0  0  0
  139.1645   76.8938  218.5079 H   0  0  0  0  0  0  0  0  0  0  0  0
  137.8111   77.6127  219.5209 H   0  0  0  0  0  0  0  0  0  0  0  0
  139.2489   79.1566  218.0737 H   0  0  0  0  0  0  0  0  0  0  0  0
  138.8696   79.5890  219.7907 H   0  0  0  0  0  0  0  0  0  0  0  0
  141.4435   78.3536  218.7438 H   0  0  0  0  0  0  0  0  0  0  0  0
  141.1874   80.0509  219.3321 H   0  0  0  0  0  0  0  0  0  0  0  0
  142.2824   78.6213  221.0050 H   0  0  0  0  0  0  0  0  0  0  0  0
  140.6625   79.2451  221.5330 H   0  0  0  0  0  0  0  0  0  0  0  0
  140.5975   77.0456  222.2108 H   0  0  0  0  0  0  0  0  0  0  0  0
  141.0450   74.5689  221.9453 H   0  0  0  0  0  0  0  0  0  0  0  0
  142.7413   72.9365  221.2663 H   0  0  0  0  0  0  0  0  0  0  0  0
  144.4693   75.8586  218.6568 H   0  0  0  0  0  0  0  0  0  0  0  0
  142.7665   77.4874  219.3412 H   0  0  0  0  0  0  0  0  0  0  0  0
  138.8228   70.0030  222.0815 H   0  0  0  0  0  0  0  0  0  0  0  0
  139.0042   68.3865  223.9417 H   0  0  0  0  0  0  0  0  0  0  0  0
  139.6766   67.9172  226.1242 H   0  0  0  0  0  0  0  0  0  0  0  0
  141.5362   70.9477  228.5050 H   0  0  0  0  0  0  0  0  0  0  0  0
  141.3452   72.5538  226.6454 H   0  0  0  0  0  0  0  0  0  0  0  0
  1  2  2  0
  2  3  1  0
  3  4  1  0
  4  5  1  0
  5  6  2  0
  5  7  1  0
  7  8  1  0
  8  9  1  0
  9 10  1  0
 10 11  1  0
 11 12  1  0
 12 13  1  0
 13 14  2  0
 14 15  1  0
 15 16  2  0
 16 17  1  0
 16 18  1  0
 18 19  2  0
  2 20  1  0
 20 21  2  0
 21 22  1  0
 22 23  2  0
 23 24  1  0
 24 25  2  0
 25 26  1  0
 25 27  1  0
 27 28  2  0
 28 29  1  0
 29 30  2  0
 12  7  1  0
 19 13  1  0
 30 20  1  0
 29 23  1  0
  3 31  1  0
  4 32  1  0
  4 33  1  0
  8 34  1  0
  8 35  1  0
  9 36  1  0
  9 37  1  0
 10 38  1  0
 10 39  1  0
 11 40  1  0
 11 41  1  0
 12 42  1  1
 14 43  1  0
 15 44  1  0
 18 45  1  0
 19 46  1  0
 21 47  1  0
 22 48  1  0
 24 49  1  0
 27 50  1  0
 28 51  1  0
M  END
>  <smiles>  (8) 
O=C(NCC(=O)N1CCCCC1c1ccc(Br)cc1)c1ccc2cc(Cl)ccc2n1

>  <score_type>  (8) 
oracle

>  <origin>  (8) 
autodockgpu

>  <m_score__min__energy>  (8) 
-9.4900000000000002

>  <m_primary>  (8) 
energy

>  <rmsd>  (8) 
2.041237782455778

>  <m_score__min__rmsd>  (8) 
2.041237782455778

>  <meeko>  (8) 
{"free_energy": -8.24, "intermolecular_energy": -9.73, "internal_energy": -1.83, "cluster_size": 3, "cluster_id": 5, "rank_in_cluster": 3}

>  <energy>  (8) 
-9.21

>  <cluster_rmsd>  (8) 
0.67

>  <cluster>  (8) 
1

$$$$

     RDKit          3D

 51 54  0  0  0  0  0  0  0  0999 V2000
  137.9940   77.1110  220.3130 O   0  0  0  0  0  0  0  0  0  0  0  0
  137.9120   76.9180  221.5630 C   0  0  0  0  0  0  0  0  0  0  0  0
  138.3730   75.6760  222.0850 N   0  0  0  0  0  0  0  0  0  0  0  0
  138.9050   74.7140  221.1460 C   0  0  0  0  0  0  0  0  0  0  0  0
  140.3460   74.4300  221.4270 C   0  0  0  0  0  0  0  0  0  0  0  0
  140.7100   73.6500  222.3500 O   0  0  0  0  0  0  0  0  0  0  0  0
  141.3840   75.0290  220.6600 N   0  0  0  0  0  0  0  0  0  0  0  0
  142.6490   74.3300  220.5650 C   0  0  0  0  0  0  0  0  0  0  0  0
  143.4040   74.5720  219.3020 C   0  0  0  0  0  0  0  0  0  0  0  0
  143.3280   76.0240  218.8820 C   0  0  0  0  0  0  0  0  0  0  0  0
  141.9090   76.4900  218.7360 C   0  0  0  0  0  0  0  0  0  0  0  0
  141.1150   76.3010  220.0200 C   0  0  2  0  0  0  0  0  0  0  0  0
  141.2910   77.4650  220.9310 C   0  0  0  0  0  0  0  0  0  0  0  0
  141.0950   77.3910  222.2950 C   0  0  0  0  0  0  0  0  0  0  0  0
  141.2560   78.4630  223.1450 C   0  0  0  0  0  0  0  0  0  0  0  0
  141.6330   79.6910  222.6440 C   0  0  0  0  0  0  0  0  0  0  0  0
  141.8510   81.1620  223.8320 Br  0  0  0  0  0  0  0  0  0  0  0  0
  141.8370   79.8050  221.2860 C   0  0  0  0  0  0  0  0  0  0  0  0
  141.6720   78.7230  220.4480 C   0  0  0  0  0  0  0  0  0  0  0  0
  137.3630   77.9370  222.4480 C   0  0  0  0  0  0  0  0  0  0  0  0
  135.9990   77.9560  222.6730 C   0  0  0  0  0  0  0  0  0  0  0  0
  135.3830   78.8750  223.4900 C   0  0  0  0  0  0  0  0  0  0  0  0
  136.1850   79.8130  224.1040 C   0  0  0  0  0  0  0  0  0  0  0  0
  135.5770   80.7300  224.9190 C   0  0  0  0  0  0  0  0  0  0  0  0
  136.3370   81.6890  225.5560 C   0  0  0  0  0  0  0  0  0  0  0  0
  135.5420   82.8520  226.5920 Cl  0  0  0  0  0  0  0  0  0  0  0  0
  137.6980   81.6790  225.3390 C   0  0  0  0  0  0  0  0  0  0  0  0
  138.3020   80.7460  224.5130 C   0  0  0  0  0  0  0  0  0  0  0  0
  137.5410   79.7770  223.8680 C   0  0  0  0  0  0  0  0  0  0  0  0
  138.1160   78.8660  223.0630 N   0  0  0  0  0  0  0  0  0  0  0  0
  138.3180   75.4890  223.1110 H   0  0  0  0  0  0  0  0  0  0  0  0
  138.3319   73.7785  221.2261 H   0  0  0  0  0  0  0  0  0  0  0  0
  138.8218   75.1318  220.1318 H   0  0  0  0  0  0  0  0  0  0  0  0
  143.2803   74.6489  221.4075 H   0  0  0  0  0  0  0  0  0  0  0  0
  142.4114   73.2561  220.5828 H   0  0  0  0  0  0  0  0  0  0  0  0
  144.4582   74.2993  219.4575 H   0  0  0  0  0  0  0  0  0  0  0  0
  142.9548   73.9581  218.5074 H   0  0  0  0  0  0  0  0  0  0  0  0
  143.8286   76.6411  219.6427 H   0  0  0  0  0  0  0  0  0  0  0  0
  143.8219   76.1226  217.9041 H   0  0  0  0  0  0  0  0  0  0  0  0
  141.9107   77.5581  218.4728 H   0  0  0  0  0  0  0  0  0  0  0  0
  141.4319   75.8884  217.9484 H   0  0  0  0  0  0  0  0  0  0  0  0
  140.0494   76.2643  219.7494 H   0  0  0  0  0  0  0  0  0  0  0  0
  140.7943   76.4248  222.7263 H   0  0  0  0  0  0  0  0  0  0  0  0
  141.0836   78.3392  224.2243 H   0  0  0  0  0  0  0  0  0  0  0  0
  142.1365   80.7755  220.8636 H   0  0  0  0  0  0  0  0  0  0  0  0
  141.8445   78.8514  219.3692 H   0  0  0  0  0  0  0  0  0  0  0  0
  135.3760   77.1990  222.1742 H   0  0  0  0  0  0  0  0  0  0  0  0
  134.2944   78.8620  223.6471 H   0  0  0  0  0  0  0  0  0  0  0  0
  134.4871   80.7021  225.0652 H   0  0  0  0  0  0  0  0  0  0  0  0
  138.3232   82.4348  225.8369 H   0  0  0  0  0  0  0  0  0  0  0  0
  139.3918   80.7715  224.3659 H   0  0  0  0  0  0  0  0  0  0  0  0
  1  2  2  0
  2  3  1  0
  3  4  1  0
  4  5  1  0
  5  6  2  0
  5  7  1  0
  7  8  1  0
  8  9  1  0
  9 10  1  0
 10 11  1  0
 11 12  1  0
 12 13  1  0
 13 14  2  0
 14 15  1  0
 15 16  2  0
 16 17  1  0
 16 18  1  0
 18 19  2  0
  2 20  1  0
 20 21  2  0
 21 22  1  0
 22 23  2  0
 23 24  1  0
 24 25  2  0
 25 26  1  0
 25 27  1  0
 27 28  2  0
 28 29  1  0
 29 30  2  0
 12  7  1  0
 19 13  1  0
 30 20  1  0
 29 23  1  0
  3 31  1  0
  4 32  1  0
  4 33  1  0
  8 34  1  0
  8 35  1  0
  9 36  1  0
  9 37  1  0
 10 38  1  0
 10 39  1  0
 11 40  1  0
 11 41  1  0
 12 42  1  6
 14 43  1  0
 15 44  1  0
 18 45  1  0
 19 46  1  0
 21 47  1  0
 22 48  1  0
 24 49  1  0
 27 50  1  0
 28 51  1  0
M  END
>  <smiles>  (9) 
O=C(NCC(=O)N1CCCCC1c1ccc(Br)cc1)c1ccc2cc(Cl)ccc2n1

>  <score_type>  (9) 
oracle

>  <origin>  (9) 
autodockgpu

>  <m_score__min__energy>  (9) 
-9.4900000000000002

>  <m_primary>  (9) 
energy

>  <rmsd>  (9) 
7.418671727194783

>  <m_score__min__rmsd>  (9) 
7.418671727194783

>  <meeko>  (9) 
{"free_energy": -7.55, "intermolecular_energy": -9.05, "internal_energy": -2.57, "cluster_size": 2, "cluster_id": 6, "rank_in_cluster": 2}

>  <energy>  (9) 
-9.19

>  <cluster_rmsd>  (9) 
0.69

>  <cluster>  (9) 
1

$$$$

     RDKit          3D

 51 54  0  0  0  0  0  0  0  0999 V2000
  138.7880   71.6740  220.9060 O   0  0  0  0  0  0  0  0  0  0  0  0
  139.0540   72.1920  222.0310 C   0  0  0  0  0  0  0  0  0  0  0  0
  139.0600   73.6120  222.1350 N   0  0  0  0  0  0  0  0  0  0  0  0
  138.7590   74.3690  220.9400 C   0  0  0  0  0  0  0  0  0  0  0  0
  139.7850   74.1290  219.8790 C   0  0  0  0  0  0  0  0  0  0  0  0
  139.4730   73.7510  218.7160 O   0  0  0  0  0  0  0  0  0  0  0  0
  141.1730   74.3160  220.1320 N   0  0  0  0  0  0  0  0  0  0  0  0
  141.8790   73.2770  220.8510 C   0  0  0  0  0  0  0  0  0  0  0  0
  143.3250   73.1520  220.5100 C   0  0  0  0  0  0  0  0  0  0  0  0
  143.9740   74.5090  220.3460 C   0  0  0  0  0  0  0  0  0  0  0  0
  143.2680   75.3460  219.3190 C   0  0  0  0  0  0  0  0  0  0  0  0
  141.7960   75.5340  219.6560 C   0  0  2  0  0  0  0  0  0  0  0  0
  141.6030   76.6900  220.5730 C   0  0  0  0  0  0  0  0  0  0  0  0
  141.0770   76.5660  221.8410 C   0  0  0  0  0  0  0  0  0  0  0  0
  140.8960   77.6310  222.6980 C   0  0  0  0  0  0  0  0  0  0  0  0
  141.2490   78.9030  222.3000 C   0  0  0  0  0  0  0  0  0  0  0  0
  140.9920   80.3640  223.4940 Br  0  0  0  0  0  0  0  0  0  0  0  0
  141.7770   79.0680  221.0390 C   0  0  0  0  0  0  0  0  0  0  0  0
  141.9520   77.9930  220.1940 C   0  0  0  0  0  0  0  0  0  0  0  0
  139.3480   71.3620  223.1920 C   0  0  0  0  0  0  0  0  0  0  0  0
  138.9760   70.0300  223.1680 C   0  0  0  0  0  0  0  0  0  0  0  0
  139.2070   69.1640  224.2110 C   0  0  0  0  0  0  0  0  0  0  0  0
  139.8420   69.6710  225.3250 C   0  0  0  0  0  0  0  0  0  0  0  0
  140.0750   68.8130  226.3660 C   0  0  0  0  0  0  0  0  0  0  0  0
  140.7060   69.2730  227.5020 C   0  0  0  0  0  0  0  0  0  0  0  0
  140.9940   68.1620  228.8220 Cl  0  0  0  0  0  0  0  0  0  0  0  0
  141.0810   70.5990  227.5380 C   0  0  0  0  0  0  0  0  0  0  0  0
  140.8410   71.4580  226.4780 C   0  0  0  0  0  0  0  0  0  0  0  0
  140.2040   71.0000  225.3290 C   0  0  0  0  0  0  0  0  0  0  0  0
  139.9650   71.8240  224.2940 N   0  0  0  0  0  0  0  0  0  0  0  0
  139.2760   74.0680  223.0500 H   0  0  0  0  0  0  0  0  0  0  0  0
  137.7721   74.0650  220.5610 H   0  0  0  0  0  0  0  0  0  0  0  0
  138.7622   75.4393  221.1939 H   0  0  0  0  0  0  0  0  0  0  0  0
  141.7985   73.4904  221.9271 H   0  0  0  0  0  0  0  0  0  0  0  0
  141.4092   72.3257  220.5606 H   0  0  0  0  0  0  0  0  0  0  0  0
  143.8367   72.6059  221.3162 H   0  0  0  0  0  0  0  0  0  0  0  0
  143.4097   72.6107  219.5561 H   0  0  0  0  0  0  0  0  0  0  0  0
  143.9485   75.0346  221.3119 H   0  0  0  0  0  0  0  0  0  0  0  0
  145.0088   74.3536  220.0067 H   0  0  0  0  0  0  0  0  0  0  0  0
  143.7510   76.3331  219.2714 H   0  0  0  0  0  0  0  0  0  0  0  0
  143.3330   74.8262  218.3518 H   0  0  0  0  0  0  0  0  0  0  0  0
  141.2694   75.7764  218.7212 H   0  0  0  0  0  0  0  0  0  0  0  0
  140.7860   75.5635  222.1879 H   0  0  0  0  0  0  0  0  0  0  0  0
  140.4702   77.4658  223.6987 H   0  0  0  0  0  0  0  0  0  0  0  0
  142.0639   80.0744  220.7003 H   0  0  0  0  0  0  0  0  0  0  0  0
  142.3776   78.1629  219.1940 H   0  0  0  0  0  0  0  0  0  0  0  0
  138.4705   69.6444  222.2704 H   0  0  0  0  0  0  0  0  0  0  0  0
  138.8978   68.1097  224.1587 H   0  0  0  0  0  0  0  0  0  0  0  0
  139.7601   67.7613  226.2963 H   0  0  0  0  0  0  0  0  0  0  0  0
  141.5859   70.9866  228.4352 H   0  0  0  0  0  0  0  0  0  0  0  0
  141.1563   72.5097  226.5452 H   0  0  0  0  0  0  0  0  0  0  0  0
  1  2  2  0
  2  3  1  0
  3  4  1  0
  4  5  1  0
  5  6  2  0
  5  7  1  0
  7  8  1  0
  8  9  1  0
  9 10  1  0
 10 11  1  0
 11 12  1  0
 12 13  1  0
 13 14  2  0
 14 15  1  0
 15 16  2  0
 16 17  1  0
 16 18  1  0
 18 19  2  0
  2 20  1  0
 20 21  2  0
 21 22  1  0
 22 23  2  0
 23 24  1  0
 24 25  2  0
 25 26  1  0
 25 27  1  0
 27 28  2  0
 28 29  1  0
 29 30  2  0
 12  7  1  0
 19 13  1  0
 30 20  1  0
 29 23  1  0
  3 31  1  0
  4 32  1  0
  4 33  1  0
  8 34  1  0
  8 35  1  0
  9 36  1  0
  9 37  1  0
 10 38  1  0
 10 39  1  0
 11 40  1  0
 11 41  1  0
 12 42  1  6
 14 43  1  0
 15 44  1  0
 18 45  1  0
 19 46  1  0
 21 47  1  0
 22 48  1  0
 24 49  1  0
 27 50  1  0
 28 51  1  0
M  END
>  <smiles>  (10) 
O=C(NCC(=O)N1CCCCC1c1ccc(Br)cc1)c1ccc2cc(Cl)ccc2n1

>  <score_type>  (10) 
oracle

>  <origin>  (10) 
autodockgpu

>  <m_score__min__energy>  (10) 
-9.4900000000000002

>  <m_primary>  (10) 
energy

>  <rmsd>  (10) 
2.4451325916447173

>  <m_score__min__rmsd>  (10) 
2.4451325916447173

>  <meeko>  (10) 
{"free_energy": -8.98, "intermolecular_energy": -10.47, "internal_energy": -1.81, "cluster_size": 29, "cluster_id": 1, "rank_in_cluster": 13}

>  <energy>  (10) 
-9.12

>  <cluster_rmsd>  (10) 
0.86

>  <cluster>  (10) 
1

$$$$

     RDKit          3D

 51 54  0  0  0  0  0  0  0  0999 V2000
  141.8510   78.7910  216.9980 O   0  0  0  0  0  0  0  0  0  0  0  0
  142.2960   78.3280  218.0900 C   0  0  0  0  0  0  0  0  0  0  0  0
  142.2240   79.1480  219.2500 N   0  0  0  0  0  0  0  0  0  0  0  0
  141.6430   80.4640  219.1010 C   0  0  0  0  0  0  0  0  0  0  0  0
  141.0210   80.9250  220.3810 C   0  0  0  0  0  0  0  0  0  0  0  0
  140.2080   81.8890  220.4240 O   0  0  0  0  0  0  0  0  0  0  0  0
  141.3190   80.2930  221.6210 N   0  0  0  0  0  0  0  0  0  0  0  0
  142.6000   80.5720  222.2350 C   0  0  0  0  0  0  0  0  0  0  0  0
  142.6090   80.4960  223.7240 C   0  0  0  0  0  0  0  0  0  0  0  0
  141.7890   79.3270  224.2240 C   0  0  0  0  0  0  0  0  0  0  0  0
  140.3780   79.3760  223.7150 C   0  0  0  0  0  0  0  0  0  0  0  0
  140.3240   79.4100  222.1950 C   0  0  2  0  0  0  0  0  0  0  0  0
  140.3660   78.0330  221.6290 C   0  0  0  0  0  0  0  0  0  0  0  0
  141.0250   76.9880  222.2410 C   0  0  0  0  0  0  0  0  0  0  0  0
  141.0670   75.7100  221.7240 C   0  0  0  0  0  0  0  0  0  0  0  0
  140.4270   75.4240  220.5370 C   0  0  0  0  0  0  0  0  0  0  0  0
  140.4950   73.6550  219.8380 Br  0  0  0  0  0  0  0  0  0  0  0  0
  139.7580   76.4430  219.8960 C   0  0  0  0  0  0  0  0  0  0  0  0
  139.7250   77.7170  220.4250 C   0  0  0  0  0  0  0  0  0  0  0  0
  142.8690   76.9890  218.1630 C   0  0  0  0  0  0  0  0  0  0  0  0
  142.9880   76.2530  216.9980 C   0  0  0  0  0  0  0  0  0  0  0  0
  143.5130   74.9830  216.9590 C   0  0  0  0  0  0  0  0  0  0  0  0
  143.9360   74.4370  218.1530 C   0  0  0  0  0  0  0  0  0  0  0  0
  144.4610   73.1730  218.1200 C   0  0  0  0  0  0  0  0  0  0  0  0
  144.8980   72.5840  219.2880 C   0  0  0  0  0  0  0  0  0  0  0  0
  145.5650   70.9690  219.2260 Cl  0  0  0  0  0  0  0  0  0  0  0  0
  144.7850   73.3080  220.4560 C   0  0  0  0  0  0  0  0  0  0  0  0
  144.2520   74.5870  220.4760 C   0  0  0  0  0  0  0  0  0  0  0  0
  143.8100   75.1860  219.3010 C   0  0  0  0  0  0  0  0  0  0  0  0
  143.2910   76.4270  219.3090 N   0  0  0  0  0  0  0  0  0  0  0  0
  142.5830   78.7930  220.1650 H   0  0  0  0  0  0  0  0  0  0  0  0
  142.4308   81.1737  218.8081 H   0  0  0  0  0  0  0  0  0  0  0  0
  140.8606   80.4157  218.3293 H   0  0  0  0  0  0  0  0  0  0  0  0
  143.3296   79.8440  221.8507 H   0  0  0  0  0  0  0  0  0  0  0  0
  142.8476   81.6121  221.9763 H   0  0  0  0  0  0  0  0  0  0  0  0
  143.6466   80.3787  224.0697 H   0  0  0  0  0  0  0  0  0  0  0  0
  142.1669   81.4223  224.1197 H   0  0  0  0  0  0  0  0  0  0  0  0
  142.2578   78.3920  223.8835 H   0  0  0  0  0  0  0  0  0  0  0  0
  141.7576   79.3771  225.3224 H   0  0  0  0  0  0  0  0  0  0  0  0
  139.8407   78.4842  224.0701 H   0  0  0  0  0  0  0  0  0  0  0  0
  139.9110   80.2973  224.0934 H   0  0  0  0  0  0  0  0  0  0  0  0
  139.3557   79.8454  221.9074 H   0  0  0  0  0  0  0  0  0  0  0  0
  141.5442   77.1836  223.1908 H   0  0  0  0  0  0  0  0  0  0  0  0
  141.6117   74.9183  222.2593 H   0  0  0  0  0  0  0  0  0  0  0  0
  139.2415   76.2379  218.9467 H   0  0  0  0  0  0  0  0  0  0  0  0
  139.1801   78.5060  219.8860 H   0  0  0  0  0  0  0  0  0  0  0  0
  142.6456   76.7063  216.0560 H   0  0  0  0  0  0  0  0  0  0  0  0
  143.5925   74.4251  216.0143 H   0  0  0  0  0  0  0  0  0  0  0  0
  144.5339   72.6297  217.1663 H   0  0  0  0  0  0  0  0  0  0  0  0
  145.1278   72.8574  221.3991 H   0  0  0  0  0  0  0  0  0  0  0  0
  144.1779   75.1327  221.4282 H   0  0  0  0  0  0  0  0  0  0  0  0
  1  2  2  0
  2  3  1  0
  3  4  1  0
  4  5  1  0
  5  6  2  0
  5  7  1  0
  7  8  1  0
  8  9  1  0
  9 10  1  0
 10 11  1  0
 11 12  1  0
 12 13  1  0
 13 14  2  0
 14 15  1  0
 15 16  2  0
 16 17  1  0
 16 18  1  0
 18 19  2  0
  2 20  1  0
 20 21  2  0
 21 22  1  0
 22 23  2  0
 23 24  1  0
 24 25  2  0
 25 26  1  0
 25 27  1  0
 27 28  2  0
 28 29  1  0
 29 30  2  0
 12  7  1  0
 19 13  1  0
 30 20  1  0
 29 23  1  0
  3 31  1  0
  4 32  1  0
  4 33  1  0
  8 34  1  0
  8 35  1  0
  9 36  1  0
  9 37  1  0
 10 38  1  0
 10 39  1  0
 11 40  1  0
 11 41  1  0
 12 42  1  1
 14 43  1  0
 15 44  1  0
 18 45  1  0
 19 46  1  0
 21 47  1  0
 22 48  1  0
 24 49  1  0
 27 50  1  0
 28 51  1  0
M  END
>  <smiles>  (11) 
O=C(NCC(=O)N1CCCCC1c1ccc(Br)cc1)c1ccc2cc(Cl)ccc2n1

>  <score_type>  (11) 
oracle

>  <origin>  (11) 
autodockgpu

>  <m_score__min__energy>  (11) 
-9.4900000000000002

>  <m_primary>  (11) 
energy

>  <rmsd>  (11) 
8.34477068570305

>  <m_score__min__rmsd>  (11) 
8.34477068570305

>  <meeko>  (11) 
{"free_energy": -6.92, "intermolecular_energy": -8.41, "internal_energy": -3.26, "cluster_size": 3, "cluster_id": 7, "rank_in_cluster": 1}

>  <energy>  (11) 
-9.03

>  <cluster_rmsd>  (11) 
1.05

>  <cluster>  (11) 
1

$$$$

     RDKit          3D

 51 54  0  0  0  0  0  0  0  0999 V2000
  138.9510   71.7800  220.8710 O   0  0  0  0  0  0  0  0  0  0  0  0
  139.1790   72.2830  222.0110 C   0  0  0  0  0  0  0  0  0  0  0  0
  139.1600   73.7000  222.1400 N   0  0  0  0  0  0  0  0  0  0  0  0
  138.8810   74.4740  220.9500 C   0  0  0  0  0  0  0  0  0  0  0  0
  139.8810   74.1900  219.8770 C   0  0  0  0  0  0  0  0  0  0  0  0
  139.5500   73.7040  218.7600 O   0  0  0  0  0  0  0  0  0  0  0  0
  141.2670   74.4560  220.0630 N   0  0  0  0  0  0  0  0  0  0  0  0
  142.0650   73.4580  220.7440 C   0  0  0  0  0  0  0  0  0  0  0  0
  143.4980   73.4170  220.3330 C   0  0  0  0  0  0  0  0  0  0  0  0
  144.0600   74.8090  220.1440 C   0  0  0  0  0  0  0  0  0  0  0  0
  143.2590   75.6060  219.1560 C   0  0  0  0  0  0  0  0  0  0  0  0
  141.7960   75.7090  219.5630 C   0  0  2  0  0  0  0  0  0  0  0  0
  141.5810   76.8500  220.4940 C   0  0  0  0  0  0  0  0  0  0  0  0
  141.8600   78.1590  220.1580 C   0  0  0  0  0  0  0  0  0  0  0  0
  141.6630   79.2220  221.0130 C   0  0  0  0  0  0  0  0  0  0  0  0
  141.1620   79.0050  222.2790 C   0  0  0  0  0  0  0  0  0  0  0  0
  140.8960   80.4840  223.4480 Br  0  0  0  0  0  0  0  0  0  0  0  0
  140.8720   77.7110  222.6520 C   0  0  0  0  0  0  0  0  0  0  0  0
  141.0740   76.6580  221.7850 C   0  0  0  0  0  0  0  0  0  0  0  0
  139.4540   71.4370  223.1660 C   0  0  0  0  0  0  0  0  0  0  0  0
  139.0990   70.1010  223.1100 C   0  0  0  0  0  0  0  0  0  0  0  0
  139.3140   69.2210  224.1450 C   0  0  0  0  0  0  0  0  0  0  0  0
  139.9150   69.7170  225.2830 C   0  0  0  0  0  0  0  0  0  0  0  0
  140.1320   68.8450  226.3150 C   0  0  0  0  0  0  0  0  0  0  0  0
  140.7300   69.2930  227.4740 C   0  0  0  0  0  0  0  0  0  0  0  0
  140.9990   68.1640  228.7830 Cl  0  0  0  0  0  0  0  0  0  0  0  0
  141.0880   70.6220  227.5410 C   0  0  0  0  0  0  0  0  0  0  0  0
  140.8630   71.4960  226.4900 C   0  0  0  0  0  0  0  0  0  0  0  0
  140.2610   71.0490  225.3180 C   0  0  0  0  0  0  0  0  0  0  0  0
  140.0380   71.8880  224.2910 N   0  0  0  0  0  0  0  0  0  0  0  0
  139.3440   74.1430  223.0680 H   0  0  0  0  0  0  0  0  0  0  0  0
  137.8766   74.2177  220.5820 H   0  0  0  0  0  0  0  0  0  0  0  0
  138.9377   75.5421  221.2067 H   0  0  0  0  0  0  0  0  0  0  0  0
  142.0243   73.6654  221.8235 H   0  0  0  0  0  0  0  0  0  0  0  0
  141.6369   72.4815  220.4736 H   0  0  0  0  0  0  0  0  0  0  0  0
  144.0785   72.8996  221.1111 H   0  0  0  0  0  0  0  0  0  0  0  0
  143.5670   72.8834  219.3736 H   0  0  0  0  0  0  0  0  0  0  0  0
  144.0512   75.3307  221.1124 H   0  0  0  0  0  0  0  0  0  0  0  0
  145.0843   74.7134  219.7547 H   0  0  0  0  0  0  0  0  0  0  0  0
  143.6820   76.6193  219.0902 H   0  0  0  0  0  0  0  0  0  0  0  0
  143.3073   75.0923  218.1845 H   0  0  0  0  0  0  0  0  0  0  0  0
  141.2129   75.9229  218.6551 H   0  0  0  0  0  0  0  0  0  0  0  0
  142.2609   78.3650  219.1546 H   0  0  0  0  0  0  0  0  0  0  0  0
  141.9055   80.2436  220.6852 H   0  0  0  0  0  0  0  0  0  0  0  0
  140.4727   77.5145  223.6580 H   0  0  0  0  0  0  0  0  0  0  0  0
  140.8299   75.6381  222.1170 H   0  0  0  0  0  0  0  0  0  0  0  0
  138.6217   69.7243  222.1933 H   0  0  0  0  0  0  0  0  0  0  0  0
  139.0185   68.1642  224.0682 H   0  0  0  0  0  0  0  0  0  0  0  0
  139.8308   67.7913  226.2205 H   0  0  0  0  0  0  0  0  0  0  0  0
  141.5667   71.0002  228.4563 H   0  0  0  0  0  0  0  0  0  0  0  0
  141.1623   72.5504  226.5827 H   0  0  0  0  0  0  0  0  0  0  0  0
  1  2  2  0
  2  3  1  0
  3  4  1  0
  4  5  1  0
  5  6  2  0
  5  7  1  0
  7  8  1  0
  8  9  1  0
  9 10  1  0
 10 11  1  0
 11 12  1  0
 12 13  1  0
 13 14  2  0
 14 15  1  0
 15 16  2  0
 16 17  1  0
 16 18  1  0
 18 19  2  0
  2 20  1  0
 20 21  2  0
 21 22  1  0
 22 23  2  0
 23 24  1  0
 24 25  2  0
 25 26  1  0
 25 27  1  0
 27 28  2  0
 28 29  1  0
 29 30  2  0
 12  7  1  0
 19 13  1  0
 30 20  1  0
 29 23  1  0
  3 31  1  0
  4 32  1  0
  4 33  1  0
  8 34  1  0
  8 35  1  0
  9 36  1  0
  9 37  1  0
 10 38  1  0
 10 39  1  0
 11 40  1  0
 11 41  1  0
 12 42  1  6
 14 43  1  0
 15 44  1  0
 18 45  1  0
 19 46  1  0
 21 47  1  0
 22 48  1  0
 24 49  1  0
 27 50  1  0
 28 51  1  0
M  END
>  <smiles>  (12) 
O=C(NCC(=O)N1CCCCC1c1ccc(Br)cc1)c1ccc2cc(Cl)ccc2n1

>  <score_type>  (12) 
oracle

>  <origin>  (12) 
autodockgpu

>  <m_score__min__energy>  (12) 
-9.4900000000000002

>  <m_primary>  (12) 
energy

>  <rmsd>  (12) 
2.4151082142112608

>  <m_score__min__rmsd>  (12) 
2.4151082142112608

>  <meeko>  (12) 
{"free_energy": -9.03, "intermolecular_energy": -10.52, "internal_energy": -1.74, "cluster_size": 29, "cluster_id": 1, "rank_in_cluster": 11}

>  <energy>  (12) 
-8.99

>  <cluster_rmsd>  (12) 
1.1

>  <cluster>  (12) 
1

$$$$

     RDKit          3D

 51 54  0  0  0  0  0  0  0  0999 V2000
  138.2230   78.2820  220.6630 O   0  0  0  0  0  0  0  0  0  0  0  0
  138.1590   78.0120  221.8990 C   0  0  0  0  0  0  0  0  0  0  0  0
  138.3810   76.6670  222.3070 N   0  0  0  0  0  0  0  0  0  0  0  0
  138.6660   75.6940  221.2760 C   0  0  0  0  0  0  0  0  0  0  0  0
  140.0040   75.0630  221.4870 C   0  0  0  0  0  0  0  0  0  0  0  0
  140.1790   74.1150  222.3010 O   0  0  0  0  0  0  0  0  0  0  0  0
  141.1540   75.5040  220.7740 N   0  0  0  0  0  0  0  0  0  0  0  0
  142.2830   74.6020  220.6800 C   0  0  0  0  0  0  0  0  0  0  0  0
  143.1090   74.7600  219.4480 C   0  0  0  0  0  0  0  0  0  0  0  0
  143.2970   76.2180  219.0910 C   0  0  0  0  0  0  0  0  0  0  0  0
  141.9840   76.9280  218.9310 C   0  0  0  0  0  0  0  0  0  0  0  0
  141.1280   76.8280  220.1850 C   0  0  2  0  0  0  0  0  0  0  0  0
  141.4710   77.9070  221.1510 C   0  0  0  0  0  0  0  0  0  0  0  0
  141.8260   79.1810  220.7620 C   0  0  0  0  0  0  0  0  0  0  0  0
  142.1430   80.1870  221.6510 C   0  0  0  0  0  0  0  0  0  0  0  0
  142.1140   79.9440  223.0070 C   0  0  0  0  0  0  0  0  0  0  0  0
  142.5550   81.3420  224.2210 Br  0  0  0  0  0  0  0  0  0  0  0  0
  141.7640   78.6810  223.4350 C   0  0  0  0  0  0  0  0  0  0  0  0
  141.4490   77.6860  222.5340 C   0  0  0  0  0  0  0  0  0  0  0  0
  137.8670   79.0480  222.8820 C   0  0  0  0  0  0  0  0  0  0  0  0
  138.8950   79.8710  223.3040 C   0  0  0  0  0  0  0  0  0  0  0  0
  138.7250   80.8760  224.2270 C   0  0  0  0  0  0  0  0  0  0  0  0
  137.4580   81.0540  224.7410 C   0  0  0  0  0  0  0  0  0  0  0  0
  137.2820   82.0540  225.6600 C   0  0  0  0  0  0  0  0  0  0  0  0
  136.0340   82.2710  226.2040 C   0  0  0  0  0  0  0  0  0  0  0  0
  135.8290   83.5530  227.3760 Cl  0  0  0  0  0  0  0  0  0  0  0  0
  135.0010   81.4560  225.7900 C   0  0  0  0  0  0  0  0  0  0  0  0
  135.1910   80.4470  224.8600 C   0  0  0  0  0  0  0  0  0  0  0  0
  136.4480   80.2240  224.3080 C   0  0  0  0  0  0  0  0  0  0  0  0
  136.6450   79.2480  223.4040 N   0  0  0  0  0  0  0  0  0  0  0  0
  138.3350   76.4140  223.3200 H   0  0  0  0  0  0  0  0  0  0  0  0
  137.8927   74.9119  221.2964 H   0  0  0  0  0  0  0  0  0  0  0  0
  138.6712   76.2072  220.3031 H   0  0  0  0  0  0  0  0  0  0  0  0
  142.9319   74.7740  221.5514 H   0  0  0  0  0  0  0  0  0  0  0  0
  141.8649   73.5852  220.6442 H   0  0  0  0  0  0  0  0  0  0  0  0
  144.0952   74.3033  219.6176 H   0  0  0  0  0  0  0  0  0  0  0  0
  142.5867   74.2651  218.6160 H   0  0  0  0  0  0  0  0  0  0  0  0
  143.8718   76.7088  219.8902 H   0  0  0  0  0  0  0  0  0  0  0  0
  143.8314   76.2681  218.1308 H   0  0  0  0  0  0  0  0  0  0  0  0
  142.1775   77.9893  218.7163 H   0  0  0  0  0  0  0  0  0  0  0  0
  141.4364   76.4497  218.1056 H   0  0  0  0  0  0  0  0  0  0  0  0
  140.0812   76.9865  219.8864 H   0  0  0  0  0  0  0  0  0  0  0  0
  141.8582   79.4073  219.6860 H   0  0  0  0  0  0  0  0  0  0  0  0
  142.4192   81.1840  221.2771 H   0  0  0  0  0  0  0  0  0  0  0  0
  141.7356   78.4636  224.5129 H   0  0  0  0  0  0  0  0  0  0  0  0
  141.1726   76.6906  222.9119 H   0  0  0  0  0  0  0  0  0  0  0  0
  139.8980   79.7140  222.8805 H   0  0  0  0  0  0  0  0  0  0  0  0
  139.5654   81.5119  224.5424 H   0  0  0  0  0  0  0  0  0  0  0  0
  138.1331   82.6816  225.9629 H   0  0  0  0  0  0  0  0  0  0  0  0
  133.9967   81.6119  226.2107 H   0  0  0  0  0  0  0  0  0  0  0  0
  134.3416   79.8176  224.5559 H   0  0  0  0  0  0  0  0  0  0  0  0
  1  2  2  0
  2  3  1  0
  3  4  1  0
  4  5  1  0
  5  6  2  0
  5  7  1  0
  7  8  1  0
  8  9  1  0
  9 10  1  0
 10 11  1  0
 11 12  1  0
 12 13  1  0
 13 14  2  0
 14 15  1  0
 15 16  2  0
 16 17  1  0
 16 18  1  0
 18 19  2  0
  2 20  1  0
 20 21  2  0
 21 22  1  0
 22 23  2  0
 23 24  1  0
 24 25  2  0
 25 26  1  0
 25 27  1  0
 27 28  2  0
 28 29  1  0
 29 30  2  0
 12  7  1  0
 19 13  1  0
 30 20  1  0
 29 23  1  0
  3 31  1  0
  4 32  1  0
  4 33  1  0
  8 34  1  0
  8 35  1  0
  9 36  1  0
  9 37  1  0
 10 38  1  0
 10 39  1  0
 11 40  1  0
 11 41  1  0
 12 42  1  6
 14 43  1  0
 15 44  1  0
 18 45  1  0
 19 46  1  0
 21 47  1  0
 22 48  1  0
 24 49  1  0
 27 50  1  0
 28 51  1  0
M  END
>  <smiles>  (13) 
O=C(NCC(=O)N1CCCCC1c1ccc(Br)cc1)c1ccc2cc(Cl)ccc2n1

>  <score_type>  (13) 
oracle

>  <origin>  (13) 
autodockgpu

>  <m_score__min__energy>  (13) 
-9.4900000000000002

>  <m_primary>  (13) 
energy

>  <rmsd>  (13) 
8.100197295270835

>  <m_score__min__rmsd>  (13) 
8.100197295270835

>  <meeko>  (13) 
{"free_energy": -7.87, "intermolecular_energy": -9.36, "internal_energy": -2.39, "cluster_size": 2, "cluster_id": 6, "rank_in_cluster": 1}

>  <energy>  (13) 
-8.98

>  <cluster_rmsd>  (13) 
1.09

>  <cluster>  (13) 
1

$$$$

     RDKit          3D

 51 54  0  0  0  0  0  0  0  0999 V2000
  138.9830   71.5850  220.7310 O   0  0  0  0  0  0  0  0  0  0  0  0
  138.9490   72.0800  221.8970 C   0  0  0  0  0  0  0  0  0  0  0  0
  138.5760   73.4460  222.0400 N   0  0  0  0  0  0  0  0  0  0  0  0
  138.2590   74.1800  220.8350 C   0  0  0  0  0  0  0  0  0  0  0  0
  139.0630   75.4380  220.7460 C   0  0  0  0  0  0  0  0  0  0  0  0
  138.5310   76.5810  220.7890 O   0  0  0  0  0  0  0  0  0  0  0  0
  140.4800   75.4050  220.6060 N   0  0  0  0  0  0  0  0  0  0  0  0
  141.1850   74.2450  221.1080 C   0  0  0  0  0  0  0  0  0  0  0  0
  142.4470   73.9180  220.3820 C   0  0  0  0  0  0  0  0  0  0  0  0
  143.2280   75.1680  220.0400 C   0  0  0  0  0  0  0  0  0  0  0  0
  142.4070   76.1400  219.2430 C   0  0  0  0  0  0  0  0  0  0  0  0
  141.1300   76.5330  219.9710 C   0  0  2  0  0  0  0  0  0  0  0  0
  141.3760   77.6690  220.9010 C   0  0  0  0  0  0  0  0  0  0  0  0
  141.2040   77.5750  222.2660 C   0  0  0  0  0  0  0  0  0  0  0  0
  141.4310   78.6220  223.1350 C   0  0  0  0  0  0  0  0  0  0  0  0
  141.8520   79.8420  222.6500 C   0  0  0  0  0  0  0  0  0  0  0  0
  142.1590   81.2780  223.8620 Br  0  0  0  0  0  0  0  0  0  0  0  0
  142.0330   79.9750  221.2910 C   0  0  0  0  0  0  0  0  0  0  0  0
  141.8030   78.9190  220.4350 C   0  0  0  0  0  0  0  0  0  0  0  0
  139.2820   71.2750  223.0660 C   0  0  0  0  0  0  0  0  0  0  0  0
  138.9570   69.9310  223.0620 C   0  0  0  0  0  0  0  0  0  0  0  0
  139.2270   69.0880  224.1140 C   0  0  0  0  0  0  0  0  0  0  0  0
  139.8550   69.6310  225.2150 C   0  0  0  0  0  0  0  0  0  0  0  0
  140.1270   68.7950  226.2650 C   0  0  0  0  0  0  0  0  0  0  0  0
  140.7530   69.2910  227.3890 C   0  0  0  0  0  0  0  0  0  0  0  0
  141.0920   68.2080  228.7200 Cl  0  0  0  0  0  0  0  0  0  0  0  0
  141.0820   70.6300  227.4040 C   0  0  0  0  0  0  0  0  0  0  0  0
  140.8020   71.4660  226.3360 C   0  0  0  0  0  0  0  0  0  0  0  0
  140.1710   70.9710  225.1990 C   0  0  0  0  0  0  0  0  0  0  0  0
  139.8930   71.7730  224.1560 N   0  0  0  0  0  0  0  0  0  0  0  0
  138.5390   73.8810  222.9890 H   0  0  0  0  0  0  0  0  0  0  0  0
  138.4799   73.5494  219.9612 H   0  0  0  0  0  0  0  0  0  0  0  0
  137.1922   74.4470  220.8580 H   0  0  0  0  0  0  0  0  0  0  0  0
  141.4346   74.4265  222.1638 H   0  0  0  0  0  0  0  0  0  0  0  0
  140.5125   73.3867  220.9628 H   0  0  0  0  0  0  0  0  0  0  0  0
  143.0684   73.2709  221.0184 H   0  0  0  0  0  0  0  0  0  0  0  0
  142.1839   73.4072  219.4440 H   0  0  0  0  0  0  0  0  0  0  0  0
  143.5478   75.6541  220.9735 H   0  0  0  0  0  0  0  0  0  0  0  0
  144.0944   74.8727  219.4299 H   0  0  0  0  0  0  0  0  0  0  0  0
  143.0052   77.0448  219.0601 H   0  0  0  0  0  0  0  0  0  0  0  0
  142.1251   75.6538  218.2974 H   0  0  0  0  0  0  0  0  0  0  0  0
  140.4124   76.8866  219.2160 H   0  0  0  0  0  0  0  0  0  0  0  0
  140.8681   76.6145  222.6839 H   0  0  0  0  0  0  0  0  0  0  0  0
  141.2761   78.4835  224.2152 H   0  0  0  0  0  0  0  0  0  0  0  0
  142.3667   80.9400  220.8818 H   0  0  0  0  0  0  0  0  0  0  0  0
  141.9592   79.0621  219.3556 H   0  0  0  0  0  0  0  0  0  0  0  0
  138.4581   69.5160  222.1738 H   0  0  0  0  0  0  0  0  0  0  0  0
  138.9531   68.0232  224.0788 H   0  0  0  0  0  0  0  0  0  0  0  0
  139.8473   67.7325  226.2120 H   0  0  0  0  0  0  0  0  0  0  0  0
  141.5819   71.0466  228.2909 H   0  0  0  0  0  0  0  0  0  0  0  0
  141.0804   72.5290  226.3869 H   0  0  0  0  0  0  0  0  0  0  0  0
  1  2  2  0
  2  3  1  0
  3  4  1  0
  4  5  1  0
  5  6  2  0
  5  7  1  0
  7  8  1  0
  8  9  1  0
  9 10  1  0
 10 11  1  0
 11 12  1  0
 12 13  1  0
 13 14  2  0
 14 15  1  0
 15 16  2  0
 16 17  1  0
 16 18  1  0
 18 19  2  0
  2 20  1  0
 20 21  2  0
 21 22  1  0
 22 23  2  0
 23 24  1  0
 24 25  2  0
 25 26  1  0
 25 27  1  0
 27 28  2  0
 28 29  1  0
 29 30  2  0
 12  7  1  0
 19 13  1  0
 30 20  1  0
 29 23  1  0
  3 31  1  0
  4 32  1  0
  4 33  1  0
  8 34  1  0
  8 35  1  0
  9 36  1  0
  9 37  1  0
 10 38  1  0
 10 39  1  0
 11 40  1  0
 11 41  1  0
 12 42  1  6
 14 43  1  0
 15 44  1  0
 18 45  1  0
 19 46  1  0
 21 47  1  0
 22 48  1  0
 24 49  1  0
 27 50  1  0
 28 51  1  0
M  END
>  <smiles>  (14) 
O=C(NCC(=O)N1CCCCC1c1ccc(Br)cc1)c1ccc2cc(Cl)ccc2n1

>  <score_type>  (14) 
oracle

>  <origin>  (14) 
autodockgpu

>  <m_score__min__energy>  (14) 
-9.4900000000000002

>  <m_primary>  (14) 
energy

>  <rmsd>  (14) 
1.9943567629993453

>  <m_score__min__rmsd>  (14) 
1.9943567629993453

>  <meeko>  (14) 
{"free_energy": -9.3, "intermolecular_energy": -10.79, "internal_energy": -1.59, "cluster_size": 29, "cluster_id": 1, "rank_in_cluster": 4}

>  <energy>  (14) 
-8.93

>  <cluster_rmsd>  (14) 
1.12

>  <cluster>  (14) 
1

$$$$

     RDKit          3D

 51 54  0  0  0  0  0  0  0  0999 V2000
  139.0260   71.1470  221.4030 O   0  0  0  0  0  0  0  0  0  0  0  0
  139.3460   71.8460  222.4100 C   0  0  0  0  0  0  0  0  0  0  0  0
  139.2730   73.2630  222.2980 N   0  0  0  0  0  0  0  0  0  0  0  0
  138.8370   73.8110  221.0330 C   0  0  0  0  0  0  0  0  0  0  0  0
  139.7820   73.4450  219.9340 C   0  0  0  0  0  0  0  0  0  0  0  0
  139.3920   72.8980  218.8660 O   0  0  0  0  0  0  0  0  0  0  0  0
  141.1790   73.6980  220.0410 N   0  0  0  0  0  0  0  0  0  0  0  0
  142.0070   72.6880  220.6670 C   0  0  0  0  0  0  0  0  0  0  0  0
  143.4130   72.6380  220.1720 C   0  0  0  0  0  0  0  0  0  0  0  0
  143.9750   74.0270  219.9600 C   0  0  0  0  0  0  0  0  0  0  0  0
  143.1240   74.8370  219.0260 C   0  0  0  0  0  0  0  0  0  0  0  0
  141.6890   74.9500  219.5190 C   0  0  2  0  0  0  0  0  0  0  0  0
  141.5390   76.0870  220.4680 C   0  0  0  0  0  0  0  0  0  0  0  0
  141.0560   75.9380  221.7510 C   0  0  0  0  0  0  0  0  0  0  0  0
  140.9160   76.9850  222.6370 C   0  0  0  0  0  0  0  0  0  0  0  0
  141.2670   78.2630  222.2560 C   0  0  0  0  0  0  0  0  0  0  0  0
  141.0670   79.6980  223.4900 Br  0  0  0  0  0  0  0  0  0  0  0  0
  141.7530   78.4510  220.9810 C   0  0  0  0  0  0  0  0  0  0  0  0
  141.8880   77.3940  220.1060 C   0  0  0  0  0  0  0  0  0  0  0  0
  139.7770   71.2200  223.6540 C   0  0  0  0  0  0  0  0  0  0  0  0
  140.6180   71.9260  224.4950 C   0  0  0  0  0  0  0  0  0  0  0  0
  141.0810   71.4260  225.6890 C   0  0  0  0  0  0  0  0  0  0  0  0
  140.6720   70.1580  226.0460 C   0  0  0  0  0  0  0  0  0  0  0  0
  141.1290   69.6560  227.2350 C   0  0  0  0  0  0  0  0  0  0  0  0
  140.7480   68.3920  227.6350 C   0  0  0  0  0  0  0  0  0  0  0  0
  141.3430   67.7680  229.1560 Cl  0  0  0  0  0  0  0  0  0  0  0  0
  139.9090   67.6800  226.8040 C   0  0  0  0  0  0  0  0  0  0  0  0
  139.4530   68.1990  225.6040 C   0  0  0  0  0  0  0  0  0  0  0  0
  139.8330   69.4730  225.1950 C   0  0  0  0  0  0  0  0  0  0  0  0
  139.3970   69.9870  224.0320 N   0  0  0  0  0  0  0  0  0  0  0  0
  139.5300   73.8650  223.1130 H   0  0  0  0  0  0  0  0  0  0  0  0
  137.8386   73.4154  220.7950 H   0  0  0  0  0  0  0  0  0  0  0  0
  138.8080   74.9073  221.1184 H   0  0  0  0  0  0  0  0  0  0  0  0
  142.0317   72.8877  221.7485 H   0  0  0  0  0  0  0  0  0  0  0  0
  141.5551   71.7172  220.4155 H   0  0  0  0  0  0  0  0  0  0  0  0
  144.0337   72.1100  220.9109 H   0  0  0  0  0  0  0  0  0  0  0  0
  143.4209   72.1110  219.2065 H   0  0  0  0  0  0  0  0  0  0  0  0
  144.0272   74.5418  220.9307 H   0  0  0  0  0  0  0  0  0  0  0  0
  144.9742   73.9263  219.5111 H   0  0  0  0  0  0  0  0  0  0  0  0
  143.5514   75.8470  218.9412 H   0  0  0  0  0  0  0  0  0  0  0  0
  143.1101   74.3288  218.0505 H   0  0  0  0  0  0  0  0  0  0  0  0
  141.0553   75.1753  218.6485 H   0  0  0  0  0  0  0  0  0  0  0  0
  140.7672   74.9306  222.0852 H   0  0  0  0  0  0  0  0  0  0  0  0
  140.5242   76.8009  223.6482 H   0  0  0  0  0  0  0  0  0  0  0  0
  142.0384   79.4621  220.6551 H   0  0  0  0  0  0  0  0  0  0  0  0
  142.2806   77.5825  219.0959 H   0  0  0  0  0  0  0  0  0  0  0  0
  140.9316   72.9365  224.1939 H   0  0  0  0  0  0  0  0  0  0  0  0
  141.7509   72.0137  226.3339 H   0  0  0  0  0  0  0  0  0  0  0  0
  141.7970   70.2580  227.8685 H   0  0  0  0  0  0  0  0  0  0  0  0
  139.5926   66.6699  227.1032 H   0  0  0  0  0  0  0  0  0  0  0  0
  138.7848   67.5989  224.9689 H   0  0  0  0  0  0  0  0  0  0  0  0
  1  2  2  0
  2  3  1  0
  3  4  1  0
  4  5  1  0
  5  6  2  0
  5  7  1  0
  7  8  1  0
  8  9  1  0
  9 10  1  0
 10 11  1  0
 11 12  1  0
 12 13  1  0
 13 14  2  0
 14 15  1  0
 15 16  2  0
 16 17  1  0
 16 18  1  0
 18 19  2  0
  2 20  1  0
 20 21  2  0
 21 22  1  0
 22 23  2  0
 23 24  1  0
 24 25  2  0
 25 26  1  0
 25 27  1  0
 27 28  2  0
 28 29  1  0
 29 30  2  0
 12  7  1  0
 19 13  1  0
 30 20  1  0
 29 23  1  0
  3 31  1  0
  4 32  1  0
  4 33  1  0
  8 34  1  0
  8 35  1  0
  9 36  1  0
  9 37  1  0
 10 38  1  0
 10 39  1  0
 11 40  1  0
 11 41  1  0
 12 42  1  6
 14 43  1  0
 15 44  1  0
 18 45  1  0
 19 46  1  0
 21 47  1  0
 22 48  1  0
 24 49  1  0
 27 50  1  0
 28 51  1  0
M  END
>  <smiles>  (15) 
O=C(NCC(=O)N1CCCCC1c1ccc(Br)cc1)c1ccc2cc(Cl)ccc2n1

>  <score_type>  (15) 
oracle

>  <origin>  (15) 
autodockgpu

>  <m_score__min__energy>  (15) 
-9.4900000000000002

>  <m_primary>  (15) 
energy

>  <rmsd>  (15) 
3.3473091712586367

>  <m_score__min__rmsd>  (15) 
3.3473091712586367

>  <meeko>  (15) 
{"free_energy": -8.58, "intermolecular_energy": -10.08, "internal_energy": -1.65, "cluster_size": 29, "cluster_id": 1, "rank_in_cluster": 28}

>  <energy>  (15) 
-8.91

>  <cluster_rmsd>  (15) 
1.13

>  <cluster>  (15) 
1

$$$$

     RDKit          3D

 51 54  0  0  0  0  0  0  0  0999 V2000
  138.9920   71.1050  221.4000 O   0  0  0  0  0  0  0  0  0  0  0  0
  139.3440   71.8090  222.3920 C   0  0  0  0  0  0  0  0  0  0  0  0
  139.2940   73.2260  222.2660 N   0  0  0  0  0  0  0  0  0  0  0  0
  138.8420   73.7680  221.0040 C   0  0  0  0  0  0  0  0  0  0  0  0
  139.8550   73.5420  219.9280 C   0  0  0  0  0  0  0  0  0  0  0  0
  139.5330   73.1560  218.7710 O   0  0  0  0  0  0  0  0  0  0  0  0
  141.2440   73.7540  220.1590 N   0  0  0  0  0  0  0  0  0  0  0  0
  141.9770   72.7330  220.8780 C   0  0  0  0  0  0  0  0  0  0  0  0
  143.4200   72.6280  220.5170 C   0  0  0  0  0  0  0  0  0  0  0  0
  144.0440   73.9940  220.3320 C   0  0  0  0  0  0  0  0  0  0  0  0
  143.3100   74.8100  219.3080 C   0  0  0  0  0  0  0  0  0  0  0  0
  141.8400   74.9770  219.6630 C   0  0  2  0  0  0  0  0  0  0  0  0
  141.6420   76.1390  220.5730 C   0  0  0  0  0  0  0  0  0  0  0  0
  141.0810   76.0250  221.8280 C   0  0  0  0  0  0  0  0  0  0  0  0
  140.8940   77.0950  222.6770 C   0  0  0  0  0  0  0  0  0  0  0  0
  141.2760   78.3610  222.2860 C   0  0  0  0  0  0  0  0  0  0  0  0
  141.0110   79.8280  223.4700 Br  0  0  0  0  0  0  0  0  0  0  0  0
  141.8400   78.5150  221.0390 C   0  0  0  0  0  0  0  0  0  0  0  0
  142.0200   77.4350  220.2000 C   0  0  0  0  0  0  0  0  0  0  0  0
  139.7900   71.1900  223.6350 C   0  0  0  0  0  0  0  0  0  0  0  0
  140.6630   71.8890  224.4490 C   0  0  0  0  0  0  0  0  0  0  0  0
  141.1410   71.3940  225.6390 C   0  0  0  0  0  0  0  0  0  0  0  0
  140.7150   70.1390  226.0200 C   0  0  0  0  0  0  0  0  0  0  0  0
  141.1880   69.6420  227.2050 C   0  0  0  0  0  0  0  0  0  0  0  0
  140.7910   68.3910  227.6280 C   0  0  0  0  0  0  0  0  0  0  0  0
  141.4060   67.7730  229.1440 Cl  0  0  0  0  0  0  0  0  0  0  0  0
  139.9210   67.6860  226.8250 C   0  0  0  0  0  0  0  0  0  0  0  0
  139.4490   68.1990  225.6280 C   0  0  0  0  0  0  0  0  0  0  0  0
  139.8450   69.4610  225.1960 C   0  0  0  0  0  0  0  0  0  0  0  0
  139.3940   69.9690  224.0350 N   0  0  0  0  0  0  0  0  0  0  0  0
  139.5780   73.8320  223.0680 H   0  0  0  0  0  0  0  0  0  0  0  0
  137.8996   73.2774  220.7191 H   0  0  0  0  0  0  0  0  0  0  0  0
  138.6932   74.8515  221.1221 H   0  0  0  0  0  0  0  0  0  0  0  0
  141.9085   72.9556  221.9531 H   0  0  0  0  0  0  0  0  0  0  0  0
  141.5184   71.7715  220.6038 H   0  0  0  0  0  0  0  0  0  0  0  0
  143.9521   72.0973  221.3203 H   0  0  0  0  0  0  0  0  0  0  0  0
  143.5000   72.0795  219.5669 H   0  0  0  0  0  0  0  0  0  0  0  0
  144.0233   74.5277  221.2936 H   0  0  0  0  0  0  0  0  0  0  0  0
  145.0763   73.8526  219.9794 H   0  0  0  0  0  0  0  0  0  0  0  0
  143.7759   75.8045  219.2453 H   0  0  0  0  0  0  0  0  0  0  0  0
  143.3702   74.2823  218.3447 H   0  0  0  0  0  0  0  0  0  0  0  0
  141.2960   75.2015  218.7337 H   0  0  0  0  0  0  0  0  0  0  0  0
  140.7662   75.0278  222.1694 H   0  0  0  0  0  0  0  0  0  0  0  0
  140.4399   76.9388  223.6667 H   0  0  0  0  0  0  0  0  0  0  0  0
  142.1521   79.5160  220.7065 H   0  0  0  0  0  0  0  0  0  0  0  0
  142.4730   77.5961  219.2106 H   0  0  0  0  0  0  0  0  0  0  0  0
  140.9905   72.8891  224.1287 H   0  0  0  0  0  0  0  0  0  0  0  0
  141.8357   71.9758  226.2626 H   0  0  0  0  0  0  0  0  0  0  0  0
  141.8814   70.2379  227.8166 H   0  0  0  0  0  0  0  0  0  0  0  0
  139.5915   66.6861  227.1440 H   0  0  0  0  0  0  0  0  0  0  0  0
  138.7561   67.6044  225.0145 H   0  0  0  0  0  0  0  0  0  0  0  0
  1  2  2  0
  2  3  1  0
  3  4  1  0
  4  5  1  0
  5  6  2  0
  5  7  1  0
  7  8  1  0
  8  9  1  0
  9 10  1  0
 10 11  1  0
 11 12  1  0
 12 13  1  0
 13 14  2  0
 14 15  1  0
 15 16  2  0
 16 17  1  0
 16 18  1  0
 18 19  2  0
  2 20  1  0
 20 21  2  0
 21 22  1  0
 22 23  2  0
 23 24  1  0
 24 25  2  0
 25 26  1  0
 25 27  1  0
 27 28  2  0
 28 29  1  0
 29 30  2  0
 12  7  1  0
 19 13  1  0
 30 20  1  0
 29 23  1  0
  3 31  1  0
  4 32  1  0
  4 33  1  0
  8 34  1  0
  8 35  1  0
  9 36  1  0
  9 37  1  0
 10 38  1  0
 10 39  1  0
 11 40  1  0
 11 41  1  0
 12 42  1  6
 14 43  1  0
 15 44  1  0
 18 45  1  0
 19 46  1  0
 21 47  1  0
 22 48  1  0
 24 49  1  0
 27 50  1  0
 28 51  1  0
M  END
>  <smiles>  (16) 
O=C(NCC(=O)N1CCCCC1c1ccc(Br)cc1)c1ccc2cc(Cl)ccc2n1

>  <score_type>  (16) 
oracle

>  <origin>  (16) 
autodockgpu

>  <m_score__min__energy>  (16) 
-9.4900000000000002

>  <m_primary>  (16) 
energy

>  <rmsd>  (16) 
3.3929154616528594

>  <m_score__min__rmsd>  (16) 
3.3929154616528594

>  <meeko>  (16) 
{"free_energy": -8.77, "intermolecular_energy": -10.26, "internal_energy": -1.71, "cluster_size": 29, "cluster_id": 1, "rank_in_cluster": 25}

>  <energy>  (16) 
-8.91

>  <cluster_rmsd>  (16) 
1.13

>  <cluster>  (16) 
1

$$$$

     RDKit          3D

 51 54  0  0  0  0  0  0  0  0999 V2000
  137.9800   73.9210  220.6090 O   0  0  0  0  0  0  0  0  0  0  0  0
  137.9320   74.5030  221.7330 C   0  0  0  0  0  0  0  0  0  0  0  0
  137.0020   74.0290  222.7000 N   0  0  0  0  0  0  0  0  0  0  0  0
  136.1690   72.9060  222.3300 C   0  0  0  0  0  0  0  0  0  0  0  0
  136.8140   71.6110  222.7080 C   0  0  0  0  0  0  0  0  0  0  0  0
  136.2280   70.7510  223.4210 O   0  0  0  0  0  0  0  0  0  0  0  0
  138.1310   71.2830  222.2770 N   0  0  0  0  0  0  0  0  0  0  0  0
  138.2730   70.4140  221.1270 C   0  0  0  0  0  0  0  0  0  0  0  0
  139.5080   70.6410  220.3220 C   0  0  0  0  0  0  0  0  0  0  0  0
  140.7070   70.8970  221.2080 C   0  0  0  0  0  0  0  0  0  0  0  0
  140.4770   72.0500  222.1410 C   0  0  0  0  0  0  0  0  0  0  0  0
  139.2490   71.8370  223.0130 C   0  0  2  0  0  0  0  0  0  0  0  0
  139.5920   71.0580  224.2340 C   0  0  0  0  0  0  0  0  0  0  0  0
  138.9910   69.8590  224.5560 C   0  0  0  0  0  0  0  0  0  0  0  0
  139.3040   69.1310  225.6840 C   0  0  0  0  0  0  0  0  0  0  0  0
  140.2630   69.5930  226.5600 C   0  0  0  0  0  0  0  0  0  0  0  0
  140.6820   68.5750  228.1130 Br  0  0  0  0  0  0  0  0  0  0  0  0
  140.8850   70.7880  226.2730 C   0  0  0  0  0  0  0  0  0  0  0  0
  140.5620   71.5050  225.1410 C   0  0  0  0  0  0  0  0  0  0  0  0
  138.8050   75.6310  222.0340 C   0  0  0  0  0  0  0  0  0  0  0  0
  140.1680   75.4820  221.8570 C   0  0  0  0  0  0  0  0  0  0  0  0
  141.0750   76.4830  222.1130 C   0  0  0  0  0  0  0  0  0  0  0  0
  140.5780   77.6870  222.5660 C   0  0  0  0  0  0  0  0  0  0  0  0
  141.4760   78.6880  222.8210 C   0  0  0  0  0  0  0  0  0  0  0  0
  141.0270   79.9100  223.2760 C   0  0  0  0  0  0  0  0  0  0  0  0
  142.1910   81.1750  223.5970 Cl  0  0  0  0  0  0  0  0  0  0  0  0
  139.6700   80.0700  223.4560 C   0  0  0  0  0  0  0  0  0  0  0  0
  138.7700   79.0500  223.1940 C   0  0  0  0  0  0  0  0  0  0  0  0
  139.2170   77.8160  222.7340 C   0  0  0  0  0  0  0  0  0  0  0  0
  138.3530   76.8180  222.4770 N   0  0  0  0  0  0  0  0  0  0  0  0
  136.9400   74.4890  223.6360 H   0  0  0  0  0  0  0  0  0  0  0  0
  135.2017   72.9902  222.8470 H   0  0  0  0  0  0  0  0  0  0  0  0
  136.0264   72.9206  221.2394 H   0  0  0  0  0  0  0  0  0  0  0  0
  138.2829   69.3733  221.4833 H   0  0  0  0  0  0  0  0  0  0  0  0
  137.4246   70.6366  220.4632 H   0  0  0  0  0  0  0  0  0  0  0  0
  139.7021   69.7505  219.7061 H   0  0  0  0  0  0  0  0  0  0  0  0
  139.3502   71.5271  219.6897 H   0  0  0  0  0  0  0  0  0  0  0  0
  140.9096   69.9937  221.8021 H   0  0  0  0  0  0  0  0  0  0  0  0
  141.5615   71.1464  220.5618 H   0  0  0  0  0  0  0  0  0  0  0  0
  141.3582   72.1642  222.7894 H   0  0  0  0  0  0  0  0  0  0  0  0
  140.3121   72.9524  221.5340 H   0  0  0  0  0  0  0  0  0  0  0  0
  138.9054   72.8261  223.3501 H   0  0  0  0  0  0  0  0  0  0  0  0
  138.2215   69.4629  223.8770 H   0  0  0  0  0  0  0  0  0  0  0  0
  138.7881   68.1806  225.8853 H   0  0  0  0  0  0  0  0  0  0  0  0
  141.6523   71.1766  226.9587 H   0  0  0  0  0  0  0  0  0  0  0  0
  141.0804   72.4550  224.9441 H   0  0  0  0  0  0  0  0  0  0  0  0
  140.5454   74.5149  221.4934 H   0  0  0  0  0  0  0  0  0  0  0  0
  142.1538   76.3297  221.9626 H   0  0  0  0  0  0  0  0  0  0  0  0
  142.5514   78.5185  222.6637 H   0  0  0  0  0  0  0  0  0  0  0  0
  139.2902   81.0366  223.8186 H   0  0  0  0  0  0  0  0  0  0  0  0
  137.6942   79.2173  223.3509 H   0  0  0  0  0  0  0  0  0  0  0  0
  1  2  2  0
  2  3  1  0
  3  4  1  0
  4  5  1  0
  5  6  2  0
  5  7  1  0
  7  8  1  0
  8  9  1  0
  9 10  1  0
 10 11  1  0
 11 12  1  0
 12 13  1  0
 13 14  2  0
 14 15  1  0
 15 16  2  0
 16 17  1  0
 16 18  1  0
 18 19  2  0
  2 20  1  0
 20 21  2  0
 21 22  1  0
 22 23  2  0
 23 24  1  0
 24 25  2  0
 25 26  1  0
 25 27  1  0
 27 28  2  0
 28 29  1  0
 29 30  2  0
 12  7  1  0
 19 13  1  0
 30 20  1  0
 29 23  1  0
  3 31  1  0
  4 32  1  0
  4 33  1  0
  8 34  1  0
  8 35  1  0
  9 36  1  0
  9 37  1  0
 10 38  1  0
 10 39  1  0
 11 40  1  0
 11 41  1  0
 12 42  1  1
 14 43  1  0
 15 44  1  0
 18 45  1  0
 19 46  1  0
 21 47  1  0
 22 48  1  0
 24 49  1  0
 27 50  1  0
 28 51  1  0
M  END
>  <smiles>  (17) 
O=C(NCC(=O)N1CCCCC1c1ccc(Br)cc1)c1ccc2cc(Cl)ccc2n1

>  <score_type>  (17) 
oracle

>  <origin>  (17) 
autodockgpu

>  <m_score__min__energy>  (17) 
-9.4900000000000002

>  <m_primary>  (17) 
energy

>  <rmsd>  (17) 
7.040514717981892

>  <m_score__min__rmsd>  (17) 
7.040514717981892

>  <meeko>  (17) 
{"free_energy": -8.35, "intermolecular_energy": -9.84, "internal_energy": -2.06, "cluster_size": 7, "cluster_id": 4, "rank_in_cluster": 2}

>  <energy>  (17) 
-8.91

>  <cluster_rmsd>  (17) 
1.11

>  <cluster>  (17) 
1

$$$$

     RDKit          3D

 51 54  0  0  0  0  0  0  0  0999 V2000
  138.6790   71.6910  220.8470 O   0  0  0  0  0  0  0  0  0  0  0  0
  139.0060   72.2100  221.9560 C   0  0  0  0  0  0  0  0  0  0  0  0
  139.0530   73.6290  222.0500 N   0  0  0  0  0  0  0  0  0  0  0  0
  138.7220   74.3870  220.8640 C   0  0  0  0  0  0  0  0  0  0  0  0
  139.7700   74.2220  219.8100 C   0  0  0  0  0  0  0  0  0  0  0  0
  139.4820   73.9500  218.6130 O   0  0  0  0  0  0  0  0  0  0  0  0
  141.1540   74.3650  220.1110 N   0  0  0  0  0  0  0  0  0  0  0  0
  141.8020   73.3040  220.8540 C   0  0  0  0  0  0  0  0  0  0  0  0
  143.2550   73.1340  220.5620 C   0  0  0  0  0  0  0  0  0  0  0  0
  143.9510   74.4700  220.4220 C   0  0  0  0  0  0  0  0  0  0  0  0
  143.3080   75.3280  219.3720 C   0  0  0  0  0  0  0  0  0  0  0  0
  141.8320   75.5630  219.6580 C   0  0  2  0  0  0  0  0  0  0  0  0
  141.6440   76.7250  220.5690 C   0  0  0  0  0  0  0  0  0  0  0  0
  141.1350   76.6060  221.8450 C   0  0  0  0  0  0  0  0  0  0  0  0
  140.9590   77.6770  222.6960 C   0  0  0  0  0  0  0  0  0  0  0  0
  141.2980   78.9490  222.2850 C   0  0  0  0  0  0  0  0  0  0  0  0
  141.0480   80.4160  223.4710 Br  0  0  0  0  0  0  0  0  0  0  0  0
  141.8080   79.1070  221.0150 C   0  0  0  0  0  0  0  0  0  0  0  0
  141.9790   78.0270  220.1750 C   0  0  0  0  0  0  0  0  0  0  0  0
  139.3260   71.3790  223.1100 C   0  0  0  0  0  0  0  0  0  0  0  0
  138.9790   70.0410  223.0820 C   0  0  0  0  0  0  0  0  0  0  0  0
  139.2360   69.1740  224.1180 C   0  0  0  0  0  0  0  0  0  0  0  0
  139.8730   69.6870  225.2290 C   0  0  0  0  0  0  0  0  0  0  0  0
  140.1320   68.8280  226.2630 C   0  0  0  0  0  0  0  0  0  0  0  0
  140.7670   69.2930  227.3950 C   0  0  0  0  0  0  0  0  0  0  0  0
  141.0890   68.1810  228.7060 Cl  0  0  0  0  0  0  0  0  0  0  0  0
  141.1180   70.6260  227.4340 C   0  0  0  0  0  0  0  0  0  0  0  0
  140.8510   71.4850  226.3810 C   0  0  0  0  0  0  0  0  0  0  0  0
  140.2110   71.0210  225.2370 C   0  0  0  0  0  0  0  0  0  0  0  0
  139.9460   71.8470  224.2090 N   0  0  0  0  0  0  0  0  0  0  0  0
  139.3190   74.0850  222.9510 H   0  0  0  0  0  0  0  0  0  0  0  0
  137.7574   74.0345  220.4699 H   0  0  0  0  0  0  0  0  0  0  0  0
  138.6631   75.4515  221.1347 H   0  0  0  0  0  0  0  0  0  0  0  0
  141.6914   73.5204  221.9268 H   0  0  0  0  0  0  0  0  0  0  0  0
  141.3127   72.3676  220.5479 H   0  0  0  0  0  0  0  0  0  0  0  0
  143.7218   72.5720  221.3843 H   0  0  0  0  0  0  0  0  0  0  0  0
  143.3552   72.5906  219.6109 H   0  0  0  0  0  0  0  0  0  0  0  0
  143.9080   74.9964  221.3869 H   0  0  0  0  0  0  0  0  0  0  0  0
  144.9917   74.2824  220.1190 H   0  0  0  0  0  0  0  0  0  0  0  0
  143.8235   76.2992  219.3415 H   0  0  0  0  0  0  0  0  0  0  0  0
  143.3897   74.8056  218.4074 H   0  0  0  0  0  0  0  0  0  0  0  0
  141.3462   75.8221  218.7057 H   0  0  0  0  0  0  0  0  0  0  0  0
  140.8546   75.6044  222.2029 H   0  0  0  0  0  0  0  0  0  0  0  0
  140.5478   77.5164  223.7035 H   0  0  0  0  0  0  0  0  0  0  0  0
  142.0837   80.1127  220.6648 H   0  0  0  0  0  0  0  0  0  0  0  0
  142.3897   78.1922  219.1680 H   0  0  0  0  0  0  0  0  0  0  0  0
  138.4724   69.6508  222.1870 H   0  0  0  0  0  0  0  0  0  0  0  0
  138.9455   68.1145  224.0631 H   0  0  0  0  0  0  0  0  0  0  0  0
  139.8348   67.7714  226.1910 H   0  0  0  0  0  0  0  0  0  0  0  0
  141.6250   71.0186  228.3278 H   0  0  0  0  0  0  0  0  0  0  0  0
  141.1474   72.5421  226.4501 H   0  0  0  0  0  0  0  0  0  0  0  0
  1  2  2  0
  2  3  1  0
  3  4  1  0
  4  5  1  0
  5  6  2  0
  5  7  1  0
  7  8  1  0
  8  9  1  0
  9 10  1  0
 10 11  1  0
 11 12  1  0
 12 13  1  0
 13 14  2  0
 14 15  1  0
 15 16  2  0
 16 17  1  0
 16 18  1  0
 18 19  2  0
  2 20  1  0
 20 21  2  0
 21 22  1  0
 22 23  2  0
 23 24  1  0
 24 25  2  0
 25 26  1  0
 25 27  1  0
 27 28  2  0
 28 29  1  0
 29 30  2  0
 12  7  1  0
 19 13  1  0
 30 20  1  0
 29 23  1  0
  3 31  1  0
  4 32  1  0
  4 33  1  0
  8 34  1  0
  8 35  1  0
  9 36  1  0
  9 37  1  0
 10 38  1  0
 10 39  1  0
 11 40  1  0
 11 41  1  0
 12 42  1  6
 14 43  1  0
 15 44  1  0
 18 45  1  0
 19 46  1  0
 21 47  1  0
 22 48  1  0
 24 49  1  0
 27 50  1  0
 28 51  1  0
M  END
>  <smiles>  (18) 
O=C(NCC(=O)N1CCCCC1c1ccc(Br)cc1)c1ccc2cc(Cl)ccc2n1

>  <score_type>  (18) 
oracle

>  <origin>  (18) 
autodockgpu

>  <m_score__min__energy>  (18) 
-9.4900000000000002

>  <m_primary>  (18) 
energy

>  <rmsd>  (18) 
2.4508750776001533

>  <m_score__min__rmsd>  (18) 
2.4508750776001533

>  <meeko>  (18) 
{"free_energy": -8.91, "intermolecular_energy": -10.4, "internal_energy": -1.86, "cluster_size": 29, "cluster_id": 1, "rank_in_cluster": 17}

>  <energy>  (18) 
-8.85

>  <cluster_rmsd>  (18) 
1.15

>  <cluster>  (18) 
1

$$$$

     RDKit          3D

 51 54  0  0  0  0  0  0  0  0999 V2000
  138.2500   73.9560  220.2400 O   0  0  0  0  0  0  0  0  0  0  0  0
  138.2040   74.4810  221.3920 C   0  0  0  0  0  0  0  0  0  0  0  0
  137.3250   73.9140  222.3570 N   0  0  0  0  0  0  0  0  0  0  0  0
  136.5390   72.7690  221.9530 C   0  0  0  0  0  0  0  0  0  0  0  0
  137.2870   71.4960  222.1830 C   0  0  0  0  0  0  0  0  0  0  0  0
  136.7170   70.4440  222.5830 O   0  0  0  0  0  0  0  0  0  0  0  0
  138.6900   71.4080  221.9590 N   0  0  0  0  0  0  0  0  0  0  0  0
  139.1470   70.6930  220.7850 C   0  0  0  0  0  0  0  0  0  0  0  0
  140.4410   71.1780  220.2220 C   0  0  0  0  0  0  0  0  0  0  0  0
  141.4310   71.5090  221.3180 C   0  0  0  0  0  0  0  0  0  0  0  0
  140.8770   72.5130  222.2870 C   0  0  0  0  0  0  0  0  0  0  0  0
  139.5770   72.0360  222.9170 C   0  0  2  0  0  0  0  0  0  0  0  0
  139.8430   71.1900  224.1120 C   0  0  0  0  0  0  0  0  0  0  0  0
  139.2660   69.9530  224.3040 C   0  0  0  0  0  0  0  0  0  0  0  0
  139.5090   69.1630  225.4070 C   0  0  0  0  0  0  0  0  0  0  0  0
  140.3680   69.5990  226.3930 C   0  0  0  0  0  0  0  0  0  0  0  0
  140.6920   68.4970  227.9110 Br  0  0  0  0  0  0  0  0  0  0  0  0
  140.9640   70.8320  226.2380 C   0  0  0  0  0  0  0  0  0  0  0  0
  140.7120   71.6110  225.1280 C   0  0  0  0  0  0  0  0  0  0  0  0
  139.0280   75.6360  221.7270 C   0  0  0  0  0  0  0  0  0  0  0  0
  140.3490   75.6500  221.3170 C   0  0  0  0  0  0  0  0  0  0  0  0
  141.2090   76.6900  221.5820 C   0  0  0  0  0  0  0  0  0  0  0  0
  140.7060   77.7610  222.2920 C   0  0  0  0  0  0  0  0  0  0  0  0
  141.5580   78.7990  222.5570 C   0  0  0  0  0  0  0  0  0  0  0  0
  141.1020   79.8920  223.2640 C   0  0  0  0  0  0  0  0  0  0  0  0
  142.2050   81.2090  223.5940 Cl  0  0  0  0  0  0  0  0  0  0  0  0
  139.7870   79.8890  223.6780 C   0  0  0  0  0  0  0  0  0  0  0  0
  138.9350   78.8320  223.4030 C   0  0  0  0  0  0  0  0  0  0  0  0
  139.3890   77.7270  222.6900 C   0  0  0  0  0  0  0  0  0  0  0  0
  138.5710   76.6950  222.4170 N   0  0  0  0  0  0  0  0  0  0  0  0
  137.2660   74.3260  223.3160 H   0  0  0  0  0  0  0  0  0  0  0  0
  135.6070   72.7487  222.5369 H   0  0  0  0  0  0  0  0  0  0  0  0
  136.3198   72.8567  220.8786 H   0  0  0  0  0  0  0  0  0  0  0  0
  139.2668   69.6333  221.0546 H   0  0  0  0  0  0  0  0  0  0  0  0
  138.3884   70.8592  220.0060 H   0  0  0  0  0  0  0  0  0  0  0  0
  140.8677   70.3941  219.5791 H   0  0  0  0  0  0  0  0  0  0  0  0
  140.2455   72.0934  219.6442 H   0  0  0  0  0  0  0  0  0  0  0  0
  141.6789   70.5868  221.8640 H   0  0  0  0  0  0  0  0  0  0  0  0
  142.3259   71.9446  220.8495 H   0  0  0  0  0  0  0  0  0  0  0  0
  141.6163   72.6841  223.0833 H   0  0  0  0  0  0  0  0  0  0  0  0
  140.6676   73.4407  221.7342 H   0  0  0  0  0  0  0  0  0  0  0  0
  139.0332   72.9251  223.2688 H   0  0  0  0  0  0  0  0  0  0  0  0
  138.5746   69.5762  223.5359 H   0  0  0  0  0  0  0  0  0  0  0  0
  139.0170   68.1836  225.5005 H   0  0  0  0  0  0  0  0  0  0  0  0
  141.6523   71.2011  227.0126 H   0  0  0  0  0  0  0  0  0  0  0  0
  141.2065   72.5894  225.0376 H   0  0  0  0  0  0  0  0  0  0  0  0
  140.7303   74.7871  220.7513 H   0  0  0  0  0  0  0  0  0  0  0  0
  142.2549   76.6689  221.2419 H   0  0  0  0  0  0  0  0  0  0  0  0
  142.6005   78.7617  222.2081 H   0  0  0  0  0  0  0  0  0  0  0  0
  139.4032   80.7511  224.2432 H   0  0  0  0  0  0  0  0  0  0  0  0
  137.8920   78.8666  223.7508 H   0  0  0  0  0  0  0  0  0  0  0  0
  1  2  2  0
  2  3  1  0
  3  4  1  0
  4  5  1  0
  5  6  2  0
  5  7  1  0
  7  8  1  0
  8  9  1  0
  9 10  1  0
 10 11  1  0
 11 12  1  0
 12 13  1  0
 13 14  2  0
 14 15  1  0
 15 16  2  0
 16 17  1  0
 16 18  1  0
 18 19  2  0
  2 20  1  0
 20 21  2  0
 21 22  1  0
 22 23  2  0
 23 24  1  0
 24 25  2  0
 25 26  1  0
 25 27  1  0
 27 28  2  0
 28 29  1  0
 29 30  2  0
 12  7  1  0
 19 13  1  0
 30 20  1  0
 29 23  1  0
  3 31  1  0
  4 32  1  0
  4 33  1  0
  8 34  1  0
  8 35  1  0
  9 36  1  0
  9 37  1  0
 10 38  1  0
 10 39  1  0
 11 40  1  0
 11 41  1  0
 12 42  1  1
 14 43  1  0
 15 44  1  0
 18 45  1  0
 19 46  1  0
 21 47  1  0
 22 48  1  0
 24 49  1  0
 27 50  1  0
 28 51  1  0
M  END
>  <smiles>  (19) 
O=C(NCC(=O)N1CCCCC1c1ccc(Br)cc1)c1ccc2cc(Cl)ccc2n1

>  <score_type>  (19) 
oracle

>  <origin>  (19) 
autodockgpu

>  <m_score__min__energy>  (19) 
-9.4900000000000002

>  <m_primary>  (19) 
energy

>  <rmsd>  (19) 
6.929424901230307

>  <m_score__min__rmsd>  (19) 
6.929424901230307

>  <meeko>  (19) 
{"free_energy": -8.26, "intermolecular_energy": -9.75, "internal_energy": -2.1, "cluster_size": 7, "cluster_id": 4, "rank_in_cluster": 4}

>  <energy>  (19) 
-8.85

>  <cluster_rmsd>  (19) 
1.16

>  <cluster>  (19) 
1

$$$$

     RDKit          3D

 51 54  0  0  0  0  0  0  0  0999 V2000
  136.7200   77.3400  222.6440 O   0  0  0  0  0  0  0  0  0  0  0  0
  136.7240   76.1280  223.0130 C   0  0  0  0  0  0  0  0  0  0  0  0
  137.7480   75.2740  222.5140 N   0  0  0  0  0  0  0  0  0  0  0  0
  138.7200   75.8530  221.6140 C   0  0  0  0  0  0  0  0  0  0  0  0
  139.9860   75.0590  221.6070 C   0  0  0  0  0  0  0  0  0  0  0  0
  140.0940   73.9600  222.2190 O   0  0  0  0  0  0  0  0  0  0  0  0
  141.1410   75.5070  220.9050 N   0  0  0  0  0  0  0  0  0  0  0  0
  142.2920   74.6300  220.8610 C   0  0  0  0  0  0  0  0  0  0  0  0
  143.1400   74.7730  219.6420 C   0  0  0  0  0  0  0  0  0  0  0  0
  143.3010   76.2240  219.2470 C   0  0  0  0  0  0  0  0  0  0  0  0
  141.9750   76.8980  219.0400 C   0  0  0  0  0  0  0  0  0  0  0  0
  141.0960   76.8120  220.2780 C   0  0  2  0  0  0  0  0  0  0  0  0
  141.3930   77.9260  221.2200 C   0  0  0  0  0  0  0  0  0  0  0  0
  141.2620   77.8110  222.5880 C   0  0  0  0  0  0  0  0  0  0  0  0
  141.5360   78.8380  223.4660 C   0  0  0  0  0  0  0  0  0  0  0  0
  141.9650   80.0580  222.9900 C   0  0  0  0  0  0  0  0  0  0  0  0
  142.3390   81.4650  224.2160 Br  0  0  0  0  0  0  0  0  0  0  0  0
  142.1070   80.2120  221.6280 C   0  0  0  0  0  0  0  0  0  0  0  0
  141.8300   79.1760  220.7620 C   0  0  0  0  0  0  0  0  0  0  0  0
  135.7090   75.6160  223.9250 C   0  0  0  0  0  0  0  0  0  0  0  0
  134.8680   76.5140  224.5550 C   0  0  0  0  0  0  0  0  0  0  0  0
  133.8800   76.1340  225.4320 C   0  0  0  0  0  0  0  0  0  0  0  0
  133.7390   74.7840  225.6790 C   0  0  0  0  0  0  0  0  0  0  0  0
  132.7560   74.3990  226.5510 C   0  0  0  0  0  0  0  0  0  0  0  0
  132.5760   73.0610  226.8310 C   0  0  0  0  0  0  0  0  0  0  0  0
  131.3160   72.5890  227.9480 Cl  0  0  0  0  0  0  0  0  0  0  0  0
  133.4090   72.1560  226.2090 C   0  0  0  0  0  0  0  0  0  0  0  0
  134.4000   72.5570  225.3280 C   0  0  0  0  0  0  0  0  0  0  0  0
  134.5860   73.9060  225.0410 C   0  0  0  0  0  0  0  0  0  0  0  0
  135.5450   74.3070  224.1890 N   0  0  0  0  0  0  0  0  0  0  0  0
  137.7760   74.2700  222.8020 H   0  0  0  0  0  0  0  0  0  0  0  0
  138.3017   75.8713  220.5968 H   0  0  0  0  0  0  0  0  0  0  0  0
  138.9490   76.8731  221.9560 H   0  0  0  0  0  0  0  0  0  0  0  0
  142.9179   74.8421  221.7403 H   0  0  0  0  0  0  0  0  0  0  0  0
  141.8988   73.6028  220.8465 H   0  0  0  0  0  0  0  0  0  0  0  0
  144.1329   74.3453  219.8449 H   0  0  0  0  0  0  0  0  0  0  0  0
  142.6473   74.2422  218.8141 H   0  0  0  0  0  0  0  0  0  0  0  0
  143.8474   76.7509  220.0431 H   0  0  0  0  0  0  0  0  0  0  0  0
  143.8537   76.2595  218.2966 H   0  0  0  0  0  0  0  0  0  0  0  0
  142.1482   77.9574  218.7997 H   0  0  0  0  0  0  0  0  0  0  0  0
  141.4562   76.3845  218.2171 H   0  0  0  0  0  0  0  0  0  0  0  0
  140.0523   76.9361  219.9534 H   0  0  0  0  0  0  0  0  0  0  0  0
  140.9211   76.8498  223.0001 H   0  0  0  0  0  0  0  0  0  0  0  0
  141.4120   78.6834  224.5480 H   0  0  0  0  0  0  0  0  0  0  0  0
  142.4470   81.1775  221.2253 H   0  0  0  0  0  0  0  0  0  0  0  0
  141.9556   79.3351  219.6808 H   0  0  0  0  0  0  0  0  0  0  0  0
  134.9957   77.5860  224.3441 H   0  0  0  0  0  0  0  0  0  0  0  0
  133.2285   76.8759  225.9170 H   0  0  0  0  0  0  0  0  0  0  0  0
  132.1125   75.1541  227.0262 H   0  0  0  0  0  0  0  0  0  0  0  0
  133.2831   71.0835  226.4184 H   0  0  0  0  0  0  0  0  0  0  0  0
  135.0446   71.8036  224.8518 H   0  0  0  0  0  0  0  0  0  0  0  0
  1  2  2  0
  2  3  1  0
  3  4  1  0
  4  5  1  0
  5  6  2  0
  5  7  1  0
  7  8  1  0
  8  9  1  0
  9 10  1  0
 10 11  1  0
 11 12  1  0
 12 13  1  0
 13 14  2  0
 14 15  1  0
 15 16  2  0
 16 17  1  0
 16 18  1  0
 18 19  2  0
  2 20  1  0
 20 21  2  0
 21 22  1  0
 22 23  2  0
 23 24  1  0
 24 25  2  0
 25 26  1  0
 25 27  1  0
 27 28  2  0
 28 29  1  0
 29 30  2  0
 12  7  1  0
 19 13  1  0
 30 20  1  0
 29 23  1  0
  3 31  1  0
  4 32  1  0
  4 33  1  0
  8 34  1  0
  8 35  1  0
  9 36  1  0
  9 37  1  0
 10 38  1  0
 10 39  1  0
 11 40  1  0
 11 41  1  0
 12 42  1  6
 14 43  1  0
 15 44  1  0
 18 45  1  0
 19 46  1  0
 21 47  1  0
 22 48  1  0
 24 49  1  0
 27 50  1  0
 28 51  1  0
M  END
>  <smiles>  (20) 
O=C(NCC(=O)N1CCCCC1c1ccc(Br)cc1)c1ccc2cc(Cl)ccc2n1

>  <score_type>  (20) 
oracle

>  <origin>  (20) 
autodockgpu

>  <m_score__min__energy>  (20) 
-9.4900000000000002

>  <m_primary>  (20) 
energy

>  <rmsd>  (20) 
5.886515905443517

>  <m_score__min__rmsd>  (20) 
5.886515905443517

>  <meeko>  (20) 
{"free_energy": -8.54, "intermolecular_energy": -10.04, "internal_energy": -1.89, "cluster_size": 5, "cluster_id": 3, "rank_in_cluster": 3}

>  <energy>  (20) 
-8.82

>  <cluster_rmsd>  (20) 
1.18

>  <cluster>  (20) 
1

$$$$

     RDKit          3D

 51 54  0  0  0  0  0  0  0  0999 V2000
  138.7580   71.7190  220.8390 O   0  0  0  0  0  0  0  0  0  0  0  0
  139.0180   72.2360  221.9660 C   0  0  0  0  0  0  0  0  0  0  0  0
  139.0090   73.6540  222.0760 N   0  0  0  0  0  0  0  0  0  0  0  0
  138.7020   74.4140  220.8850 C   0  0  0  0  0  0  0  0  0  0  0  0
  139.7480   74.2130  219.8350 C   0  0  0  0  0  0  0  0  0  0  0  0
  139.4570   73.9020  218.6470 O   0  0  0  0  0  0  0  0  0  0  0  0
  141.1320   74.3650  220.1270 N   0  0  0  0  0  0  0  0  0  0  0  0
  141.7910   73.3060  220.8640 C   0  0  0  0  0  0  0  0  0  0  0  0
  143.2430   73.1460  220.5630 C   0  0  0  0  0  0  0  0  0  0  0  0
  143.9300   74.4870  220.4210 C   0  0  0  0  0  0  0  0  0  0  0  0
  143.2750   75.3430  219.3770 C   0  0  0  0  0  0  0  0  0  0  0  0
  141.7990   75.5680  219.6730 C   0  0  2  0  0  0  0  0  0  0  0  0
  141.6100   76.7260  220.5880 C   0  0  0  0  0  0  0  0  0  0  0  0
  141.9380   78.0210  220.2420 C   0  0  0  0  0  0  0  0  0  0  0  0
  141.7640   79.0990  221.0830 C   0  0  0  0  0  0  0  0  0  0  0  0
  141.2360   78.9140  222.3430 C   0  0  0  0  0  0  0  0  0  0  0  0
  141.0030   80.4140  223.4920 Br  0  0  0  0  0  0  0  0  0  0  0  0
  140.8970   77.6340  222.7250 C   0  0  0  0  0  0  0  0  0  0  0  0
  141.0760   76.5650  221.8730 C   0  0  0  0  0  0  0  0  0  0  0  0
  139.3180   71.4030  223.1240 C   0  0  0  0  0  0  0  0  0  0  0  0
  138.9470   70.0710  223.0990 C   0  0  0  0  0  0  0  0  0  0  0  0
  139.1840   69.2030  224.1390 C   0  0  0  0  0  0  0  0  0  0  0  0
  139.8250   69.7080  225.2510 C   0  0  0  0  0  0  0  0  0  0  0  0
  140.0640   68.8490  226.2890 C   0  0  0  0  0  0  0  0  0  0  0  0
  140.7020   69.3060  227.4220 C   0  0  0  0  0  0  0  0  0  0  0  0
  140.9980   68.1930  228.7380 Cl  0  0  0  0  0  0  0  0  0  0  0  0
  141.0770   70.6330  227.4590 C   0  0  0  0  0  0  0  0  0  0  0  0
  140.8300   71.4930  226.4020 C   0  0  0  0  0  0  0  0  0  0  0  0
  140.1870   71.0370  225.2560 C   0  0  0  0  0  0  0  0  0  0  0  0
  139.9410   71.8630  224.2240 N   0  0  0  0  0  0  0  0  0  0  0  0
  139.2190   74.1080  222.9930 H   0  0  0  0  0  0  0  0  0  0  0  0
  137.7289   74.0864  220.4904 H   0  0  0  0  0  0  0  0  0  0  0  0
  138.6718   75.4814  221.1491 H   0  0  0  0  0  0  0  0  0  0  0  0
  141.6854   73.5192  221.9380 H   0  0  0  0  0  0  0  0  0  0  0  0
  141.3057   72.3672  220.5588 H   0  0  0  0  0  0  0  0  0  0  0  0
  143.7183   72.5856  221.3816 H   0  0  0  0  0  0  0  0  0  0  0  0
  143.3408   72.6050  219.6103 H   0  0  0  0  0  0  0  0  0  0  0  0
  143.8900   75.0112  221.3872 H   0  0  0  0  0  0  0  0  0  0  0  0
  144.9698   74.3064  220.1108 H   0  0  0  0  0  0  0  0  0  0  0  0
  143.7841   76.3176  219.3453 H   0  0  0  0  0  0  0  0  0  0  0  0
  143.3539   74.8232  218.4108 H   0  0  0  0  0  0  0  0  0  0  0  0
  141.3051   75.8265  218.7247 H   0  0  0  0  0  0  0  0  0  0  0  0
  142.3604   78.2024  219.2427 H   0  0  0  0  0  0  0  0  0  0  0  0
  142.0467   80.1080  220.7485 H   0  0  0  0  0  0  0  0  0  0  0  0
  140.4764   77.4623  223.7268 H   0  0  0  0  0  0  0  0  0  0  0  0
  140.7916   75.5578  222.2116 H   0  0  0  0  0  0  0  0  0  0  0  0
  138.4372   69.6869  222.2031 H   0  0  0  0  0  0  0  0  0  0  0  0
  138.8749   68.1487  224.0862 H   0  0  0  0  0  0  0  0  0  0  0  0
  139.7481   67.7976  226.2194 H   0  0  0  0  0  0  0  0  0  0  0  0
  141.5869   71.0192  228.3539 H   0  0  0  0  0  0  0  0  0  0  0  0
  141.1448   72.5449  226.4692 H   0  0  0  0  0  0  0  0  0  0  0  0
  1  2  2  0
  2  3  1  0
  3  4  1  0
  4  5  1  0
  5  6  2  0
  5  7  1  0
  7  8  1  0
  8  9  1  0
  9 10  1  0
 10 11  1  0
 11 12  1  0
 12 13  1  0
 13 14  2  0
 14 15  1  0
 15 16  2  0
 16 17  1  0
 16 18  1  0
 18 19  2  0
  2 20  1  0
 20 21  2  0
 21 22  1  0
 22 23  2  0
 23 24  1  0
 24 25  2  0
 25 26  1  0
 25 27  1  0
 27 28  2  0
 28 29  1  0
 29 30  2  0
 12  7  1  0
 19 13  1  0
 30 20  1  0
 29 23  1  0
  3 31  1  0
  4 32  1  0
  4 33  1  0
  8 34  1  0
  8 35  1  0
  9 36  1  0
  9 37  1  0
 10 38  1  0
 10 39  1  0
 11 40  1  0
 11 41  1  0
 12 42  1  6
 14 43  1  0
 15 44  1  0
 18 45  1  0
 19 46  1  0
 21 47  1  0
 22 48  1  0
 24 49  1  0
 27 50  1  0
 28 51  1  0
M  END
>  <smiles>  (21) 
O=C(NCC(=O)N1CCCCC1c1ccc(Br)cc1)c1ccc2cc(Cl)ccc2n1

>  <score_type>  (21) 
oracle

>  <origin>  (21) 
autodockgpu

>  <m_score__min__energy>  (21) 
-9.4900000000000002

>  <m_primary>  (21) 
energy

>  <rmsd>  (21) 
2.443718550561575

>  <m_score__min__rmsd>  (21) 
2.443718550561575

>  <meeko>  (21) 
{"free_energy": -8.99, "intermolecular_energy": -10.48, "internal_energy": -1.82, "cluster_size": 29, "cluster_id": 1, "rank_in_cluster": 12}

>  <energy>  (21) 
-8.81

>  <cluster_rmsd>  (21) 
1.18

>  <cluster>  (21) 
1

$$$$

     RDKit          3D

 51 54  0  0  0  0  0  0  0  0999 V2000
  137.1860   73.3770  220.6270 O   0  0  0  0  0  0  0  0  0  0  0  0
  137.2140   73.8240  221.8120 C   0  0  0  0  0  0  0  0  0  0  0  0
  136.6550   73.0240  222.8480 N   0  0  0  0  0  0  0  0  0  0  0  0
  136.0890   71.7480  222.4730 C   0  0  0  0  0  0  0  0  0  0  0  0
  137.1040   70.6560  222.5850 C   0  0  0  0  0  0  0  0  0  0  0  0
  136.7850   69.4670  222.8620 O   0  0  0  0  0  0  0  0  0  0  0  0
  138.4900   70.9070  222.3810 N   0  0  0  0  0  0  0  0  0  0  0  0
  139.1190   70.3360  221.2090 C   0  0  0  0  0  0  0  0  0  0  0  0
  140.2670   71.1210  220.6700 C   0  0  0  0  0  0  0  0  0  0  0  0
  141.1350   71.6660  221.7830 C   0  0  0  0  0  0  0  0  0  0  0  0
  140.3460   72.4980  222.7510 C   0  0  0  0  0  0  0  0  0  0  0  0
  139.1890   71.7180  223.3580 C   0  0  2  0  0  0  0  0  0  0  0  0
  139.6340   70.9460  224.5510 C   0  0  0  0  0  0  0  0  0  0  0  0
  140.4390   71.4800  225.5350 C   0  0  0  0  0  0  0  0  0  0  0  0
  140.8550   70.7730  226.6430 C   0  0  0  0  0  0  0  0  0  0  0  0
  140.4650   69.4610  226.8110 C   0  0  0  0  0  0  0  0  0  0  0  0
  141.0490   68.4990  228.3470 Br  0  0  0  0  0  0  0  0  0  0  0  0
  139.6610   68.8930  225.8480 C   0  0  0  0  0  0  0  0  0  0  0  0
  139.2530   69.6130  224.7450 C   0  0  0  0  0  0  0  0  0  0  0  0
  137.8040   75.1230  222.1130 C   0  0  0  0  0  0  0  0  0  0  0  0
  136.9640   76.1790  222.4180 C   0  0  0  0  0  0  0  0  0  0  0  0
  137.4190   77.4410  222.7160 C   0  0  0  0  0  0  0  0  0  0  0  0
  138.7840   77.6410  222.7050 C   0  0  0  0  0  0  0  0  0  0  0  0
  139.2430   78.8960  223.0020 C   0  0  0  0  0  0  0  0  0  0  0  0
  140.5990   79.1450  223.0040 C   0  0  0  0  0  0  0  0  0  0  0  0
  141.1660   80.7550  223.3850 Cl  0  0  0  0  0  0  0  0  0  0  0  0
  141.4460   78.1000  222.7010 C   0  0  0  0  0  0  0  0  0  0  0  0
  140.9700   76.8340  222.4030 C   0  0  0  0  0  0  0  0  0  0  0  0
  139.6030   76.5760  222.4000 C   0  0  0  0  0  0  0  0  0  0  0  0
  139.1290   75.3510  222.1110 N   0  0  0  0  0  0  0  0  0  0  0  0
  136.6640   73.3670  223.8350 H   0  0  0  0  0  0  0  0  0  0  0  0
  135.2423   71.5212  223.1375 H   0  0  0  0  0  0  0  0  0  0  0  0
  135.7538   71.8080  221.4270 H   0  0  0  0  0  0  0  0  0  0  0  0
  139.4841   69.3321  221.4715 H   0  0  0  0  0  0  0  0  0  0  0  0
  138.3527   70.3266  220.4199 H   0  0  0  0  0  0  0  0  0  0  0  0
  140.8766   70.4683  220.0278 H   0  0  0  0  0  0  0  0  0  0  0  0
  139.8666   71.9699  220.0964 H   0  0  0  0  0  0  0  0  0  0  0  0
  141.5885   70.8234  222.3255 H   0  0  0  0  0  0  0  0  0  0  0  0
  141.9060   72.3075  221.3313 H   0  0  0  0  0  0  0  0  0  0  0  0
  141.0132   72.8314  223.5596 H   0  0  0  0  0  0  0  0  0  0  0  0
  139.9286   73.3553  222.2025 H   0  0  0  0  0  0  0  0  0  0  0  0
  138.4444   72.4477  223.7088 H   0  0  0  0  0  0  0  0  0  0  0  0
  140.7664   72.5249  225.4304 H   0  0  0  0  0  0  0  0  0  0  0  0
  141.4983   71.2557  227.3934 H   0  0  0  0  0  0  0  0  0  0  0  0
  139.3388   67.8473  225.9606 H   0  0  0  0  0  0  0  0  0  0  0  0
  138.6102   69.1263  223.9967 H   0  0  0  0  0  0  0  0  0  0  0  0
  135.8787   75.9997  222.4222 H   0  0  0  0  0  0  0  0  0  0  0  0
  136.7229   78.2588  222.9538 H   0  0  0  0  0  0  0  0  0  0  0  0
  138.5330   79.7023  223.2380 H   0  0  0  0  0  0  0  0  0  0  0  0
  142.5316   78.2770  222.6958 H   0  0  0  0  0  0  0  0  0  0  0  0
  141.6783   76.0262  222.1669 H   0  0  0  0  0  0  0  0  0  0  0  0
  1  2  2  0
  2  3  1  0
  3  4  1  0
  4  5  1  0
  5  6  2  0
  5  7  1  0
  7  8  1  0
  8  9  1  0
  9 10  1  0
 10 11  1  0
 11 12  1  0
 12 13  1  0
 13 14  2  0
 14 15  1  0
 15 16  2  0
 16 17  1  0
 16 18  1  0
 18 19  2  0
  2 20  1  0
 20 21  2  0
 21 22  1  0
 22 23  2  0
 23 24  1  0
 24 25  2  0
 25 26  1  0
 25 27  1  0
 27 28  2  0
 28 29  1  0
 29 30  2  0
 12  7  1  0
 19 13  1  0
 30 20  1  0
 29 23  1  0
  3 31  1  0
  4 32  1  0
  4 33  1  0
  8 34  1  0
  8 35  1  0
  9 36  1  0
  9 37  1  0
 10 38  1  0
 10 39  1  0
 11 40  1  0
 11 41  1  0
 12 42  1  1
 14 43  1  0
 15 44  1  0
 18 45  1  0
 19 46  1  0
 21 47  1  0
 22 48  1  0
 24 49  1  0
 27 50  1  0
 28 51  1  0
M  END
>  <smiles>  (22) 
O=C(NCC(=O)N1CCCCC1c1ccc(Br)cc1)c1ccc2cc(Cl)ccc2n1

>  <score_type>  (22) 
oracle

>  <origin>  (22) 
autodockgpu

>  <m_score__min__energy>  (22) 
-9.4900000000000002

>  <m_primary>  (22) 
energy

>  <rmsd>  (22) 
6.938197634965446

>  <m_score__min__rmsd>  (22) 
6.938197634965446

>  <meeko>  (22) 
{"free_energy": -8.2, "intermolecular_energy": -9.69, "internal_energy": -2.04, "cluster_size": 7, "cluster_id": 4, "rank_in_cluster": 7}

>  <energy>  (22) 
-8.8

>  <cluster_rmsd>  (22) 
1.4

>  <cluster>  (22) 
1

$$$$

     RDKit          3D

 51 54  0  0  0  0  0  0  0  0999 V2000
  138.7440   71.6430  220.8050 O   0  0  0  0  0  0  0  0  0  0  0  0
  139.0170   72.1840  221.9180 C   0  0  0  0  0  0  0  0  0  0  0  0
  139.0180   73.6050  221.9950 N   0  0  0  0  0  0  0  0  0  0  0  0
  138.7050   74.3390  220.7890 C   0  0  0  0  0  0  0  0  0  0  0  0
  139.7770   74.1670  219.7620 C   0  0  0  0  0  0  0  0  0  0  0  0
  139.5170   73.8860  218.5600 O   0  0  0  0  0  0  0  0  0  0  0  0
  141.1530   74.3150  220.0930 N   0  0  0  0  0  0  0  0  0  0  0  0
  141.7870   73.2580  220.8540 C   0  0  0  0  0  0  0  0  0  0  0  0
  143.2460   73.0900  220.5950 C   0  0  0  0  0  0  0  0  0  0  0  0
  143.9420   74.4270  220.4670 C   0  0  0  0  0  0  0  0  0  0  0  0
  143.3210   75.2810  219.4000 C   0  0  0  0  0  0  0  0  0  0  0  0
  141.8380   75.5130  219.6520 C   0  0  2  0  0  0  0  0  0  0  0  0
  141.6270   76.6770  220.5550 C   0  0  0  0  0  0  0  0  0  0  0  0
  141.0830   76.5620  221.8170 C   0  0  0  0  0  0  0  0  0  0  0  0
  140.8860   77.6350  222.6600 C   0  0  0  0  0  0  0  0  0  0  0  0
  141.2380   78.9050  222.2550 C   0  0  0  0  0  0  0  0  0  0  0  0
  140.9580   80.3760  223.4310 Br  0  0  0  0  0  0  0  0  0  0  0  0
  141.7830   79.0600  220.9990 C   0  0  0  0  0  0  0  0  0  0  0  0
  141.9750   77.9780  220.1670 C   0  0  0  0  0  0  0  0  0  0  0  0
  139.3230   71.3770  223.0920 C   0  0  0  0  0  0  0  0  0  0  0  0
  138.9460   70.0460  223.1000 C   0  0  0  0  0  0  0  0  0  0  0  0
  139.1870   69.2010  224.1580 C   0  0  0  0  0  0  0  0  0  0  0  0
  139.8400   69.7280  225.2520 C   0  0  0  0  0  0  0  0  0  0  0  0
  140.0840   68.8910  226.3080 C   0  0  0  0  0  0  0  0  0  0  0  0
  140.7330   69.3720  227.4260 C   0  0  0  0  0  0  0  0  0  0  0  0
  141.0350   68.2870  228.7640 Cl  0  0  0  0  0  0  0  0  0  0  0  0
  141.1140   70.6970  227.4290 C   0  0  0  0  0  0  0  0  0  0  0  0
  140.8620   71.5340  226.3540 C   0  0  0  0  0  0  0  0  0  0  0  0
  140.2080   71.0550  225.2240 C   0  0  0  0  0  0  0  0  0  0  0  0
  139.9580   71.8590  224.1760 N   0  0  0  0  0  0  0  0  0  0  0  0
  139.2390   74.0790  222.9000 H   0  0  0  0  0  0  0  0  0  0  0  0
  137.7530   73.9695  220.3802 H   0  0  0  0  0  0  0  0  0  0  0  0
  138.6289   75.4074  221.0396 H   0  0  0  0  0  0  0  0  0  0  0  0
  141.6523   73.4781  221.9233 H   0  0  0  0  0  0  0  0  0  0  0  0
  141.3066   72.3195  220.5403 H   0  0  0  0  0  0  0  0  0  0  0  0
  143.6954   72.5311  221.4291 H   0  0  0  0  0  0  0  0  0  0  0  0
  143.3686   72.5441  219.6479 H   0  0  0  0  0  0  0  0  0  0  0  0
  143.8760   74.9560  221.4292 H   0  0  0  0  0  0  0  0  0  0  0  0
  144.9897   74.2408  220.1881 H   0  0  0  0  0  0  0  0  0  0  0  0
  143.8347   76.2534  219.3787 H   0  0  0  0  0  0  0  0  0  0  0  0
  143.4260   74.7566  218.4388 H   0  0  0  0  0  0  0  0  0  0  0  0
  141.3730   75.7679  218.6883 H   0  0  0  0  0  0  0  0  0  0  0  0
  140.7909   75.5618  222.1695 H   0  0  0  0  0  0  0  0  0  0  0  0
  140.4476   77.4777  223.6565 H   0  0  0  0  0  0  0  0  0  0  0  0
  142.0698   80.0645  220.6544 H   0  0  0  0  0  0  0  0  0  0  0  0
  142.4134   78.1400  219.1712 H   0  0  0  0  0  0  0  0  0  0  0  0
  138.4281   69.6438  222.2168 H   0  0  0  0  0  0  0  0  0  0  0  0
  138.8716   68.1475  224.1324 H   0  0  0  0  0  0  0  0  0  0  0  0
  139.7638   67.8395  226.2648 H   0  0  0  0  0  0  0  0  0  0  0  0
  141.6331   71.1014  228.3105 H   0  0  0  0  0  0  0  0  0  0  0  0
  141.1818   72.5857  226.3947 H   0  0  0  0  0  0  0  0  0  0  0  0
  1  2  2  0
  2  3  1  0
  3  4  1  0
  4  5  1  0
  5  6  2  0
  5  7  1  0
  7  8  1  0
  8  9  1  0
  9 10  1  0
 10 11  1  0
 11 12  1  0
 12 13  1  0
 13 14  2  0
 14 15  1  0
 15 16  2  0
 16 17  1  0
 16 18  1  0
 18 19  2  0
  2 20  1  0
 20 21  2  0
 21 22  1  0
 22 23  2  0
 23 24  1  0
 24 25  2  0
 25 26  1  0
 25 27  1  0
 27 28  2  0
 28 29  1  0
 29 30  2  0
 12  7  1  0
 19 13  1  0
 30 20  1  0
 29 23  1  0
  3 31  1  0
  4 32  1  0
  4 33  1  0
  8 34  1  0
  8 35  1  0
  9 36  1  0
  9 37  1  0
 10 38  1  0
 10 39  1  0
 11 40  1  0
 11 41  1  0
 12 42  1  6
 14 43  1  0
 15 44  1  0
 18 45  1  0
 19 46  1  0
 21 47  1  0
 22 48  1  0
 24 49  1  0
 27 50  1  0
 28 51  1  0
M  END
>  <smiles>  (23) 
O=C(NCC(=O)N1CCCCC1c1ccc(Br)cc1)c1ccc2cc(Cl)ccc2n1

>  <score_type>  (23) 
oracle

>  <origin>  (23) 
autodockgpu

>  <m_score__min__energy>  (23) 
-9.4900000000000002

>  <m_primary>  (23) 
energy

>  <rmsd>  (23) 
2.465783516730466

>  <m_score__min__rmsd>  (23) 
2.465783516730466

>  <meeko>  (23) 
{"free_energy": -8.91, "intermolecular_energy": -10.4, "internal_energy": -1.84, "cluster_size": 29, "cluster_id": 1, "rank_in_cluster": 16}

>  <energy>  (23) 
-8.79

>  <cluster_rmsd>  (23) 
1.4

>  <cluster>  (23) 
1

$$$$

     RDKit          3D

 51 54  0  0  0  0  0  0  0  0999 V2000
  141.9310   78.8900  217.0160 O   0  0  0  0  0  0  0  0  0  0  0  0
  142.3410   78.4050  218.1130 C   0  0  0  0  0  0  0  0  0  0  0  0
  142.2290   79.2010  219.2870 N   0  0  0  0  0  0  0  0  0  0  0  0
  141.6520   80.5190  219.1460 C   0  0  0  0  0  0  0  0  0  0  0  0
  141.2920   81.0940  220.4780 C   0  0  0  0  0  0  0  0  0  0  0  0
  140.7920   82.2460  220.6010 O   0  0  0  0  0  0  0  0  0  0  0  0
  141.4970   80.3620  221.6820 N   0  0  0  0  0  0  0  0  0  0  0  0
  142.7700   80.5080  222.3560 C   0  0  0  0  0  0  0  0  0  0  0  0
  142.7170   80.3340  223.8370 C   0  0  0  0  0  0  0  0  0  0  0  0
  141.7990   79.1960  224.2270 C   0  0  0  0  0  0  0  0  0  0  0  0
  140.4150   79.3800  223.6760 C   0  0  0  0  0  0  0  0  0  0  0  0
  140.4230   79.5170  222.1600 C   0  0  2  0  0  0  0  0  0  0  0  0
  140.3900   78.1810  221.5050 C   0  0  0  0  0  0  0  0  0  0  0  0
  141.0560   77.0810  222.0030 C   0  0  0  0  0  0  0  0  0  0  0  0
  141.0300   75.8400  221.4020 C   0  0  0  0  0  0  0  0  0  0  0  0
  140.3110   75.6500  220.2410 C   0  0  0  0  0  0  0  0  0  0  0  0
  140.2860   73.9310  219.4250 Br  0  0  0  0  0  0  0  0  0  0  0  0
  139.6330   76.7260  219.7130 C   0  0  0  0  0  0  0  0  0  0  0  0
  139.6680   77.9610  220.3250 C   0  0  0  0  0  0  0  0  0  0  0  0
  142.9120   77.0650  218.1770 C   0  0  0  0  0  0  0  0  0  0  0  0
  143.0730   76.3550  217.0010 C   0  0  0  0  0  0  0  0  0  0  0  0
  143.6010   75.0860  216.9530 C   0  0  0  0  0  0  0  0  0  0  0  0
  143.9830   74.5150  218.1490 C   0  0  0  0  0  0  0  0  0  0  0  0
  144.5100   73.2520  218.1080 C   0  0  0  0  0  0  0  0  0  0  0  0
  144.9060   72.6380  219.2770 C   0  0  0  0  0  0  0  0  0  0  0  0
  145.5770   71.0240  219.2050 Cl  0  0  0  0  0  0  0  0  0  0  0  0
  144.7500   73.3360  220.4560 C   0  0  0  0  0  0  0  0  0  0  0  0
  144.2160   74.6140  220.4850 C   0  0  0  0  0  0  0  0  0  0  0  0
  143.8150   75.2390  219.3090 C   0  0  0  0  0  0  0  0  0  0  0  0
  143.2940   76.4780  219.3250 N   0  0  0  0  0  0  0  0  0  0  0  0
  142.5580   78.8270  220.2050 H   0  0  0  0  0  0  0  0  0  0  0  0
  142.3813   81.1798  218.6546 H   0  0  0  0  0  0  0  0  0  0  0  0
  140.7364   80.4368  218.5419 H   0  0  0  0  0  0  0  0  0  0  0  0
  143.4617   79.7565  221.9476 H   0  0  0  0  0  0  0  0  0  0  0  0
  143.0985   81.5425  222.1771 H   0  0  0  0  0  0  0  0  0  0  0  0
  143.7300   80.1201  224.2087 H   0  0  0  0  0  0  0  0  0  0  0  0
  142.3261   81.2616  224.2807 H   0  0  0  0  0  0  0  0  0  0  0  0
  142.2144   78.2546  223.8382 H   0  0  0  0  0  0  0  0  0  0  0  0
  141.7292   79.1749  225.3246 H   0  0  0  0  0  0  0  0  0  0  0  0
  139.8034   78.5081  223.9514 H   0  0  0  0  0  0  0  0  0  0  0  0
  139.9985   80.3054  224.1005 H   0  0  0  0  0  0  0  0  0  0  0  0
  139.4998   80.0391  221.8684 H   0  0  0  0  0  0  0  0  0  0  0  0
  141.6387   77.1996  222.9284 H   0  0  0  0  0  0  0  0  0  0  0  0
  141.5833   75.0011  221.8492 H   0  0  0  0  0  0  0  0  0  0  0  0
  139.0534   76.5980  218.7869 H   0  0  0  0  0  0  0  0  0  0  0  0
  139.1134   78.7970  219.8739 H   0  0  0  0  0  0  0  0  0  0  0  0
  142.7635   76.8286  216.0577 H   0  0  0  0  0  0  0  0  0  0  0  0
  143.7140   74.5485  215.9999 H   0  0  0  0  0  0  0  0  0  0  0  0
  144.6170   72.7293  217.1461 H   0  0  0  0  0  0  0  0  0  0  0  0
  145.0585   72.8644  221.4007 H   0  0  0  0  0  0  0  0  0  0  0  0
  144.1083   75.1386  221.4458 H   0  0  0  0  0  0  0  0  0  0  0  0
  1  2  2  0
  2  3  1  0
  3  4  1  0
  4  5  1  0
  5  6  2  0
  5  7  1  0
  7  8  1  0
  8  9  1  0
  9 10  1  0
 10 11  1  0
 11 12  1  0
 12 13  1  0
 13 14  2  0
 14 15  1  0
 15 16  2  0
 16 17  1  0
 16 18  1  0
 18 19  2  0
  2 20  1  0
 20 21  2  0
 21 22  1  0
 22 23  2  0
 23 24  1  0
 24 25  2  0
 25 26  1  0
 25 27  1  0
 27 28  2  0
 28 29  1  0
 29 30  2  0
 12  7  1  0
 19 13  1  0
 30 20  1  0
 29 23  1  0
  3 31  1  0
  4 32  1  0
  4 33  1  0
  8 34  1  0
  8 35  1  0
  9 36  1  0
  9 37  1  0
 10 38  1  0
 10 39  1  0
 11 40  1  0
 11 41  1  0
 12 42  1  6
 14 43  1  0
 15 44  1  0
 18 45  1  0
 19 46  1  0
 21 47  1  0
 22 48  1  0
 24 49  1  0
 27 50  1  0
 28 51  1  0
M  END
>  <smiles>  (24) 
O=C(NCC(=O)N1CCCCC1c1ccc(Br)cc1)c1ccc2cc(Cl)ccc2n1

>  <score_type>  (24) 
oracle

>  <origin>  (24) 
autodockgpu

>  <m_score__min__energy>  (24) 
-9.4900000000000002

>  <m_primary>  (24) 
energy

>  <rmsd>  (24) 
8.396525220657093

>  <m_score__min__rmsd>  (24) 
8.396525220657093

>  <meeko>  (24) 
{"free_energy": -6.87, "intermolecular_energy": -8.36, "internal_energy": -3.22, "cluster_size": 3, "cluster_id": 7, "rank_in_cluster": 2}

>  <energy>  (24) 
-8.78

>  <cluster_rmsd>  (24) 
1.2

>  <cluster>  (24) 
1

$$$$

     RDKit          3D

 51 54  0  0  0  0  0  0  0  0999 V2000
  136.7750   77.2930  222.7030 O   0  0  0  0  0  0  0  0  0  0  0  0
  136.7430   76.0680  223.0250 C   0  0  0  0  0  0  0  0  0  0  0  0
  137.7320   75.2010  222.4810 N   0  0  0  0  0  0  0  0  0  0  0  0
  138.7120   75.7830  221.5910 C   0  0  0  0  0  0  0  0  0  0  0  0
  139.9900   75.0070  221.6200 C   0  0  0  0  0  0  0  0  0  0  0  0
  140.1110   73.9340  222.2710 O   0  0  0  0  0  0  0  0  0  0  0  0
  141.1410   75.4470  220.9070 N   0  0  0  0  0  0  0  0  0  0  0  0
  142.2860   74.5620  220.8550 C   0  0  0  0  0  0  0  0  0  0  0  0
  143.1250   74.6980  219.6280 C   0  0  0  0  0  0  0  0  0  0  0  0
  143.2920   76.1470  219.2300 C   0  0  0  0  0  0  0  0  0  0  0  0
  141.9690   76.8290  219.0320 C   0  0  0  0  0  0  0  0  0  0  0  0
  141.1000   76.7510  220.2780 C   0  0  2  0  0  0  0  0  0  0  0  0
  141.4110   77.8650  221.2150 C   0  0  0  0  0  0  0  0  0  0  0  0
  141.3210   77.7440  222.5860 C   0  0  0  0  0  0  0  0  0  0  0  0
  141.6090   78.7700  223.4600 C   0  0  0  0  0  0  0  0  0  0  0  0
  142.0120   79.9970  222.9770 C   0  0  0  0  0  0  0  0  0  0  0  0
  142.4060   81.4030  224.1970 Br  0  0  0  0  0  0  0  0  0  0  0  0
  142.1130   80.1570  221.6120 C   0  0  0  0  0  0  0  0  0  0  0  0
  141.8220   79.1210  220.7500 C   0  0  0  0  0  0  0  0  0  0  0  0
  135.7220   75.5540  223.9300 C   0  0  0  0  0  0  0  0  0  0  0  0
  134.8710   76.4520  224.5500 C   0  0  0  0  0  0  0  0  0  0  0  0
  133.8770   76.0700  225.4190 C   0  0  0  0  0  0  0  0  0  0  0  0
  133.7400   74.7200  225.6700 C   0  0  0  0  0  0  0  0  0  0  0  0
  132.7510   74.3340  226.5340 C   0  0  0  0  0  0  0  0  0  0  0  0
  132.5740   72.9960  226.8160 C   0  0  0  0  0  0  0  0  0  0  0  0
  131.3060   72.5220  227.9240 Cl  0  0  0  0  0  0  0  0  0  0  0  0
  133.4170   72.0920  226.2040 C   0  0  0  0  0  0  0  0  0  0  0  0
  134.4130   72.4950  225.3310 C   0  0  0  0  0  0  0  0  0  0  0  0
  134.5960   73.8430  225.0420 C   0  0  0  0  0  0  0  0  0  0  0  0
  135.5610   74.2460  224.1960 N   0  0  0  0  0  0  0  0  0  0  0  0
  137.7300   74.1860  222.7290 H   0  0  0  0  0  0  0  0  0  0  0  0
  138.3131   75.7809  220.5659 H   0  0  0  0  0  0  0  0  0  0  0  0
  138.9189   76.8114  221.9219 H   0  0  0  0  0  0  0  0  0  0  0  0
  142.9206   74.7712  221.7288 H   0  0  0  0  0  0  0  0  0  0  0  0
  141.8861   73.5373  220.8455 H   0  0  0  0  0  0  0  0  0  0  0  0
  144.1168   74.2641  219.8231 H   0  0  0  0  0  0  0  0  0  0  0  0
  142.6219   74.1693  218.8050 H   0  0  0  0  0  0  0  0  0  0  0  0
  143.8476   76.6715  220.0214 H   0  0  0  0  0  0  0  0  0  0  0  0
  143.8378   76.1778  218.2754 H   0  0  0  0  0  0  0  0  0  0  0  0
  142.1469   77.8867  218.7878 H   0  0  0  0  0  0  0  0  0  0  0  0
  141.4401   76.3175  218.2143 H   0  0  0  0  0  0  0  0  0  0  0  0
  140.0545   76.8812  219.9617 H   0  0  0  0  0  0  0  0  0  0  0  0
  141.0026   76.7776  223.0039 H   0  0  0  0  0  0  0  0  0  0  0  0
  141.5172   78.6098  224.5444 H   0  0  0  0  0  0  0  0  0  0  0  0
  142.4311   81.1274  221.2033 H   0  0  0  0  0  0  0  0  0  0  0  0
  141.9152   79.2853  219.6663 H   0  0  0  0  0  0  0  0  0  0  0  0
  134.9962   77.5239  224.3370 H   0  0  0  0  0  0  0  0  0  0  0  0
  133.2174   76.8104  225.8951 H   0  0  0  0  0  0  0  0  0  0  0  0
  132.1004   75.0879  227.0013 H   0  0  0  0  0  0  0  0  0  0  0  0
  133.2944   71.0196  226.4158 H   0  0  0  0  0  0  0  0  0  0  0  0
  135.0648   71.7431  224.8622 H   0  0  0  0  0  0  0  0  0  0  0  0
  1  2  2  0
  2  3  1  0
  3  4  1  0
  4  5  1  0
  5  6  2  0
  5  7  1  0
  7  8  1  0
  8  9  1  0
  9 10  1  0
 10 11  1  0
 11 12  1  0
 12 13  1  0
 13 14  2  0
 14 15  1  0
 15 16  2  0
 16 17  1  0
 16 18  1  0
 18 19  2  0
  2 20  1  0
 20 21  2  0
 21 22  1  0
 22 23  2  0
 23 24  1  0
 24 25  2  0
 25 26  1  0
 25 27  1  0
 27 28  2  0
 28 29  1  0
 29 30  2  0
 12  7  1  0
 19 13  1  0
 30 20  1  0
 29 23  1  0
  3 31  1  0
  4 32  1  0
  4 33  1  0
  8 34  1  0
  8 35  1  0
  9 36  1  0
  9 37  1  0
 10 38  1  0
 10 39  1  0
 11 40  1  0
 11 41  1  0
 12 42  1  6
 14 43  1  0
 15 44  1  0
 18 45  1  0
 19 46  1  0
 21 47  1  0
 22 48  1  0
 24 49  1  0
 27 50  1  0
 28 51  1  0
M  END
>  <smiles>  (25) 
O=C(NCC(=O)N1CCCCC1c1ccc(Br)cc1)c1ccc2cc(Cl)ccc2n1

>  <score_type>  (25) 
oracle

>  <origin>  (25) 
autodockgpu

>  <m_score__min__energy>  (25) 
-9.4900000000000002

>  <m_primary>  (25) 
energy

>  <rmsd>  (25) 
5.856611335470273

>  <m_score__min__rmsd>  (25) 
5.856611335470273

>  <meeko>  (25) 
{"free_energy": -8.55, "intermolecular_energy": -10.04, "internal_energy": -1.87, "cluster_size": 5, "cluster_id": 3, "rank_in_cluster": 2}

>  <energy>  (25) 
-8.77

>  <cluster_rmsd>  (25) 
1.4

>  <cluster>  (25) 
1

$$$$

     RDKit          3D

 51 54  0  0  0  0  0  0  0  0999 V2000
  138.5280   71.5760  220.8620 O   0  0  0  0  0  0  0  0  0  0  0  0
  138.9130   72.1070  221.9460 C   0  0  0  0  0  0  0  0  0  0  0  0
  138.9960   73.5260  222.0100 N   0  0  0  0  0  0  0  0  0  0  0  0
  138.6330   74.2690  220.8240 C   0  0  0  0  0  0  0  0  0  0  0  0
  139.6920   74.1590  219.7750 C   0  0  0  0  0  0  0  0  0  0  0  0
  139.4160   73.9650  218.5590 O   0  0  0  0  0  0  0  0  0  0  0  0
  141.0740   74.2690  220.1000 N   0  0  0  0  0  0  0  0  0  0  0  0
  141.6840   73.1890  220.8480 C   0  0  0  0  0  0  0  0  0  0  0  0
  143.1370   72.9860  220.5810 C   0  0  0  0  0  0  0  0  0  0  0  0
  143.8670   74.3060  220.4590 C   0  0  0  0  0  0  0  0  0  0  0  0
  143.2620   75.1840  219.4030 C   0  0  0  0  0  0  0  0  0  0  0  0
  141.7870   75.4520  219.6640 C   0  0  2  0  0  0  0  0  0  0  0  0
  141.6110   76.6140  220.5780 C   0  0  0  0  0  0  0  0  0  0  0  0
  141.9600   77.9030  220.2340 C   0  0  0  0  0  0  0  0  0  0  0  0
  141.7990   78.9840  221.0730 C   0  0  0  0  0  0  0  0  0  0  0  0
  141.2630   78.8070  222.3310 C   0  0  0  0  0  0  0  0  0  0  0  0
  141.0470   80.3110  223.4790 Br  0  0  0  0  0  0  0  0  0  0  0  0
  140.9020   77.5330  222.7120 C   0  0  0  0  0  0  0  0  0  0  0  0
  141.0690   76.4610  221.8610 C   0  0  0  0  0  0  0  0  0  0  0  0
  139.2630   71.2900  223.1020 C   0  0  0  0  0  0  0  0  0  0  0  0
  138.9480   69.9430  223.0830 C   0  0  0  0  0  0  0  0  0  0  0  0
  139.2340   69.0880  224.1210 C   0  0  0  0  0  0  0  0  0  0  0  0
  139.8680   69.6220  225.2240 C   0  0  0  0  0  0  0  0  0  0  0  0
  140.1560   68.7750  226.2600 C   0  0  0  0  0  0  0  0  0  0  0  0
  140.7880   69.2620  227.3850 C   0  0  0  0  0  0  0  0  0  0  0  0
  141.1470   68.1650  228.6990 Cl  0  0  0  0  0  0  0  0  0  0  0  0
  141.1060   70.6030  227.4150 C   0  0  0  0  0  0  0  0  0  0  0  0
  140.8100   71.4500  226.3600 C   0  0  0  0  0  0  0  0  0  0  0  0
  140.1730   70.9650  225.2230 C   0  0  0  0  0  0  0  0  0  0  0  0
  139.8800   71.7780  224.1930 N   0  0  0  0  0  0  0  0  0  0  0  0
  139.3110   73.9920  222.8910 H   0  0  0  0  0  0  0  0  0  0  0  0
  137.6890   73.8696  220.4248 H   0  0  0  0  0  0  0  0  0  0  0  0
  138.5199   75.3287  221.0966 H   0  0  0  0  0  0  0  0  0  0  0  0
  141.5596   73.4022  221.9199 H   0  0  0  0  0  0  0  0  0  0  0  0
  141.1784   72.2662  220.5275 H   0  0  0  0  0  0  0  0  0  0  0  0
  143.5757   72.4099  221.4090 H   0  0  0  0  0  0  0  0  0  0  0  0
  143.2411   72.4442  219.6294 H   0  0  0  0  0  0  0  0  0  0  0  0
  143.8207   74.8288  221.4257 H   0  0  0  0  0  0  0  0  0  0  0  0
  144.9077   74.0950  220.1721 H   0  0  0  0  0  0  0  0  0  0  0  0
  143.8002   76.1432  219.3869 H   0  0  0  0  0  0  0  0  0  0  0  0
  143.3482   74.6644  218.4373 H   0  0  0  0  0  0  0  0  0  0  0  0
  141.3239   75.7261  218.7046 H   0  0  0  0  0  0  0  0  0  0  0  0
  142.3899   78.0775  219.2366 H   0  0  0  0  0  0  0  0  0  0  0  0
  142.0981   79.9885  220.7391 H   0  0  0  0  0  0  0  0  0  0  0  0
  140.4735   77.3684  223.7116 H   0  0  0  0  0  0  0  0  0  0  0  0
  140.7685   75.4582  222.1986 H   0  0  0  0  0  0  0  0  0  0  0  0
  138.4441   69.5362  222.1939 H   0  0  0  0  0  0  0  0  0  0  0  0
  138.9682   68.0216  224.0740 H   0  0  0  0  0  0  0  0  0  0  0  0
  139.8847   67.7109  226.1956 H   0  0  0  0  0  0  0  0  0  0  0  0
  141.6097   71.0124  228.3031 H   0  0  0  0  0  0  0  0  0  0  0  0
  141.0808   72.5143  226.4219 H   0  0  0  0  0  0  0  0  0  0  0  0
  1  2  2  0
  2  3  1  0
  3  4  1  0
  4  5  1  0
  5  6  2  0
  5  7  1  0
  7  8  1  0
  8  9  1  0
  9 10  1  0
 10 11  1  0
 11 12  1  0
 12 13  1  0
 13 14  2  0
 14 15  1  0
 15 16  2  0
 16 17  1  0
 16 18  1  0
 18 19  2  0
  2 20  1  0
 20 21  2  0
 21 22  1  0
 22 23  2  0
 23 24  1  0
 24 25  2  0
 25 26  1  0
 25 27  1  0
 27 28  2  0
 28 29  1  0
 29 30  2  0
 12  7  1  0
 19 13  1  0
 30 20  1  0
 29 23  1  0
  3 31  1  0
  4 32  1  0
  4 33  1  0
  8 34  1  0
  8 35  1  0
  9 36  1  0
  9 37  1  0
 10 38  1  0
 10 39  1  0
 11 40  1  0
 11 41  1  0
 12 42  1  6
 14 43  1  0
 15 44  1  0
 18 45  1  0
 19 46  1  0
 21 47  1  0
 22 48  1  0
 24 49  1  0
 27 50  1  0
 28 51  1  0
M  END
>  <smiles>  (26) 
O=C(NCC(=O)N1CCCCC1c1ccc(Br)cc1)c1ccc2cc(Cl)ccc2n1

>  <score_type>  (26) 
oracle

>  <origin>  (26) 
autodockgpu

>  <m_score__min__energy>  (26) 
-9.4900000000000002

>  <m_primary>  (26) 
energy

>  <rmsd>  (26) 
2.447563589016152

>  <m_score__min__rmsd>  (26) 
2.447563589016152

>  <meeko>  (26) 
{"free_energy": -8.85, "intermolecular_energy": -10.34, "internal_energy": -1.87, "cluster_size": 29, "cluster_id": 1, "rank_in_cluster": 19}

>  <energy>  (26) 
-8.75

>  <cluster_rmsd>  (26) 
1.85

>  <cluster>  (26) 
1

$$$$

     RDKit          3D

 51 54  0  0  0  0  0  0  0  0999 V2000
  138.3510   71.5330  220.8890 O   0  0  0  0  0  0  0  0  0  0  0  0
  138.7870   72.0740  221.9490 C   0  0  0  0  0  0  0  0  0  0  0  0
  138.9080   73.4920  221.9820 N   0  0  0  0  0  0  0  0  0  0  0  0
  138.5220   74.2220  220.7960 C   0  0  0  0  0  0  0  0  0  0  0  0
  139.5950   74.1640  219.7560 C   0  0  0  0  0  0  0  0  0  0  0  0
  139.3350   74.0570  218.5260 O   0  0  0  0  0  0  0  0  0  0  0  0
  140.9730   74.2280  220.1070 N   0  0  0  0  0  0  0  0  0  0  0  0
  141.5310   73.1340  220.8740 C   0  0  0  0  0  0  0  0  0  0  0  0
  142.9810   72.8780  220.6370 C   0  0  0  0  0  0  0  0  0  0  0  0
  143.7580   74.1710  220.5200 C   0  0  0  0  0  0  0  0  0  0  0  0
  143.2050   75.0610  219.4460 C   0  0  0  0  0  0  0  0  0  0  0  0
  141.7360   75.3830  219.6770 C   0  0  2  0  0  0  0  0  0  0  0  0
  141.5830   76.5570  220.5780 C   0  0  0  0  0  0  0  0  0  0  0  0
  141.0710   76.4640  221.8560 C   0  0  0  0  0  0  0  0  0  0  0  0
  140.9280   77.5460  222.6970 C   0  0  0  0  0  0  0  0  0  0  0  0
  141.3040   78.8040  222.2760 C   0  0  0  0  0  0  0  0  0  0  0  0
  141.0990   80.2880  223.4500 Br  0  0  0  0  0  0  0  0  0  0  0  0
  141.8190   78.9370  221.0050 C   0  0  0  0  0  0  0  0  0  0  0  0
  141.9570   77.8450  220.1740 C   0  0  0  0  0  0  0  0  0  0  0  0
  139.1570   71.2700  223.1070 C   0  0  0  0  0  0  0  0  0  0  0  0
  138.8510   69.9210  223.1050 C   0  0  0  0  0  0  0  0  0  0  0  0
  139.1560   69.0780  224.1470 C   0  0  0  0  0  0  0  0  0  0  0  0
  139.7990   69.6260  225.2370 C   0  0  0  0  0  0  0  0  0  0  0  0
  140.1060   68.7910  226.2770 C   0  0  0  0  0  0  0  0  0  0  0  0
  140.7480   69.2920  227.3900 C   0  0  0  0  0  0  0  0  0  0  0  0
  141.1310   68.2090  228.7090 Cl  0  0  0  0  0  0  0  0  0  0  0  0
  141.0580   70.6350  227.4040 C   0  0  0  0  0  0  0  0  0  0  0  0
  140.7430   71.4710  226.3450 C   0  0  0  0  0  0  0  0  0  0  0  0
  140.0950   70.9710  225.2200 C   0  0  0  0  0  0  0  0  0  0  0  0
  139.7830   71.7730  224.1860 N   0  0  0  0  0  0  0  0  0  0  0  0
  139.2650   73.9660  222.8430 H   0  0  0  0  0  0  0  0  0  0  0  0
  137.6007   73.7817  220.3869 H   0  0  0  0  0  0  0  0  0  0  0  0
  138.3580   75.2744  221.0710 H   0  0  0  0  0  0  0  0  0  0  0  0
  141.3937   73.3600  221.9417 H   0  0  0  0  0  0  0  0  0  0  0  0
  141.0000   72.2268  220.5499 H   0  0  0  0  0  0  0  0  0  0  0  0
  143.3833   72.2935  221.4776 H   0  0  0  0  0  0  0  0  0  0  0  0
  143.0849   72.3249  219.6918 H   0  0  0  0  0  0  0  0  0  0  0  0
  143.7105   74.7027  221.4818 H   0  0  0  0  0  0  0  0  0  0  0  0
  144.7962   73.9220  220.2553 H   0  0  0  0  0  0  0  0  0  0  0  0
  143.7772   76.0003  219.4329 H   0  0  0  0  0  0  0  0  0  0  0  0
  143.2911   74.5309  218.4860 H   0  0  0  0  0  0  0  0  0  0  0  0
  141.3014   75.6665  218.7071 H   0  0  0  0  0  0  0  0  0  0  0  0
  140.7608   75.4743  222.2225 H   0  0  0  0  0  0  0  0  0  0  0  0
  140.5131   77.4060  223.7061 H   0  0  0  0  0  0  0  0  0  0  0  0
  142.1253   79.9310  220.6470 H   0  0  0  0  0  0  0  0  0  0  0  0
  142.3724   77.9895  219.1657 H   0  0  0  0  0  0  0  0  0  0  0  0
  138.3384   69.5023  222.2264 H   0  0  0  0  0  0  0  0  0  0  0  0
  138.8976   68.0093  224.1128 H   0  0  0  0  0  0  0  0  0  0  0  0
  139.8417   67.7245  226.2253 H   0  0  0  0  0  0  0  0  0  0  0  0
  141.5706   71.0554  228.2818 H   0  0  0  0  0  0  0  0  0  0  0  0
  141.0071   72.5377  226.3941 H   0  0  0  0  0  0  0  0  0  0  0  0
  1  2  2  0
  2  3  1  0
  3  4  1  0
  4  5  1  0
  5  6  2  0
  5  7  1  0
  7  8  1  0
  8  9  1  0
  9 10  1  0
 10 11  1  0
 11 12  1  0
 12 13  1  0
 13 14  2  0
 14 15  1  0
 15 16  2  0
 16 17  1  0
 16 18  1  0
 18 19  2  0
  2 20  1  0
 20 21  2  0
 21 22  1  0
 22 23  2  0
 23 24  1  0
 24 25  2  0
 25 26  1  0
 25 27  1  0
 27 28  2  0
 28 29  1  0
 29 30  2  0
 12  7  1  0
 19 13  1  0
 30 20  1  0
 29 23  1  0
  3 31  1  0
  4 32  1  0
  4 33  1  0
  8 34  1  0
  8 35  1  0
  9 36  1  0
  9 37  1  0
 10 38  1  0
 10 39  1  0
 11 40  1  0
 11 41  1  0
 12 42  1  6
 14 43  1  0
 15 44  1  0
 18 45  1  0
 19 46  1  0
 21 47  1  0
 22 48  1  0
 24 49  1  0
 27 50  1  0
 28 51  1  0
M  END
>  <smiles>  (27) 
O=C(NCC(=O)N1CCCCC1c1ccc(Br)cc1)c1ccc2cc(Cl)ccc2n1

>  <score_type>  (27) 
oracle

>  <origin>  (27) 
autodockgpu

>  <m_score__min__energy>  (27) 
-9.4900000000000002

>  <m_primary>  (27) 
energy

>  <rmsd>  (27) 
2.445497209438306

>  <m_score__min__rmsd>  (27) 
2.445497209438306

>  <meeko>  (27) 
{"free_energy": -8.78, "intermolecular_energy": -10.27, "internal_energy": -1.84, "cluster_size": 29, "cluster_id": 1, "rank_in_cluster": 24}

>  <energy>  (27) 
-8.7

>  <cluster_rmsd>  (27) 
1.41

>  <cluster>  (27) 
1

$$$$

     RDKit          3D

 51 54  0  0  0  0  0  0  0  0999 V2000
  139.4180   73.6820  222.3400 O   0  0  0  0  0  0  0  0  0  0  0  0
  139.6640   72.4480  222.1910 C   0  0  0  0  0  0  0  0  0  0  0  0
  139.7670   71.9350  220.8680 N   0  0  0  0  0  0  0  0  0  0  0  0
  139.5820   72.8650  219.7760 C   0  0  0  0  0  0  0  0  0  0  0  0
  140.8630   73.0910  219.0390 C   0  0  0  0  0  0  0  0  0  0  0  0
  140.9280   73.0690  217.7800 O   0  0  0  0  0  0  0  0  0  0  0  0
  142.0820   73.3450  219.7300 N   0  0  0  0  0  0  0  0  0  0  0  0
  142.5910   72.3140  220.6100 C   0  0  0  0  0  0  0  0  0  0  0  0
  144.0760   72.2890  220.7490 C   0  0  0  0  0  0  0  0  0  0  0  0
  144.6480   73.6870  220.8390 C   0  0  0  0  0  0  0  0  0  0  0  0
  144.2500   74.5300  219.6630 C   0  0  0  0  0  0  0  0  0  0  0  0
  142.7390   74.6180  219.5130 C   0  0  2  0  0  0  0  0  0  0  0  0
  142.1830   75.7160  220.3510 C   0  0  0  0  0  0  0  0  0  0  0  0
  142.3510   77.0510  220.0500 C   0  0  0  0  0  0  0  0  0  0  0  0
  141.8390   78.0740  220.8190 C   0  0  0  0  0  0  0  0  0  0  0  0
  141.1150   77.7860  221.9570 C   0  0  0  0  0  0  0  0  0  0  0  0
  140.4150   79.2100  223.0090 Br  0  0  0  0  0  0  0  0  0  0  0  0
  140.9270   76.4630  222.2910 C   0  0  0  0  0  0  0  0  0  0  0  0
  141.4450   75.4510  221.5110 C   0  0  0  0  0  0  0  0  0  0  0  0
  139.8390   71.5710  223.3420 C   0  0  0  0  0  0  0  0  0  0  0  0
  139.4670   70.2440  223.2290 C   0  0  0  0  0  0  0  0  0  0  0  0
  139.5910   69.3360  224.2540 C   0  0  0  0  0  0  0  0  0  0  0  0
  140.1160   69.7950  225.4450 C   0  0  0  0  0  0  0  0  0  0  0  0
  140.2420   68.8960  226.4690 C   0  0  0  0  0  0  0  0  0  0  0  0
  140.7610   69.3060  227.6790 C   0  0  0  0  0  0  0  0  0  0  0  0
  140.9150   68.1430  228.9760 Cl  0  0  0  0  0  0  0  0  0  0  0  0
  141.1360   70.6270  227.8030 C   0  0  0  0  0  0  0  0  0  0  0  0
  141.0030   71.5280  226.7600 C   0  0  0  0  0  0  0  0  0  0  0  0
  140.4810   71.1190  225.5370 C   0  0  0  0  0  0  0  0  0  0  0  0
  140.3470   71.9850  224.5170 N   0  0  0  0  0  0  0  0  0  0  0  0
  139.9690   70.9220  220.7140 H   0  0  0  0  0  0  0  0  0  0  0  0
  138.8340   72.4576  219.0799 H   0  0  0  0  0  0  0  0  0  0  0  0
  139.2423   73.8262  220.1892 H   0  0  0  0  0  0  0  0  0  0  0  0
  142.1562   72.4705  221.6082 H   0  0  0  0  0  0  0  0  0  0  0  0
  142.3054   71.3523  220.1589 H   0  0  0  0  0  0  0  0  0  0  0  0
  144.3403   71.7352  221.6619 H   0  0  0  0  0  0  0  0  0  0  0  0
  144.4979   71.8001  219.8585 H   0  0  0  0  0  0  0  0  0  0  0  0
  144.2796   74.1636  221.7594 H   0  0  0  0  0  0  0  0  0  0  0  0
  145.7451   73.6072  220.8462 H   0  0  0  0  0  0  0  0  0  0  0  0
  144.6533   75.5442  219.7998 H   0  0  0  0  0  0  0  0  0  0  0  0
  144.6558   74.0608  218.7546 H   0  0  0  0  0  0  0  0  0  0  0  0
  142.5239   74.8750  218.4653 H   0  0  0  0  0  0  0  0  0  0  0  0
  142.9239   77.3136  219.1485 H   0  0  0  0  0  0  0  0  0  0  0  0
  142.0079   79.1204  220.5249 H   0  0  0  0  0  0  0  0  0  0  0  0
  140.3540   76.2096  223.1951 H   0  0  0  0  0  0  0  0  0  0  0  0
  141.2737   74.4059  221.8084 H   0  0  0  0  0  0  0  0  0  0  0  0
  139.0511   69.8976  222.2714 H   0  0  0  0  0  0  0  0  0  0  0  0
  139.2844   68.2869  224.1299 H   0  0  0  0  0  0  0  0  0  0  0  0
  139.9306   67.8506  226.3275 H   0  0  0  0  0  0  0  0  0  0  0  0
  141.5534   70.9756  228.7592 H   0  0  0  0  0  0  0  0  0  0  0  0
  141.3122   72.5744  226.8994 H   0  0  0  0  0  0  0  0  0  0  0  0
  1  2  2  0
  2  3  1  0
  3  4  1  0
  4  5  1  0
  5  6  2  0
  5  7  1  0
  7  8  1  0
  8  9  1  0
  9 10  1  0
 10 11  1  0
 11 12  1  0
 12 13  1  0
 13 14  2  0
 14 15  1  0
 15 16  2  0
 16 17  1  0
 16 18  1  0
 18 19  2  0
  2 20  1  0
 20 21  2  0
 21 22  1  0
 22 23  2  0
 23 24  1  0
 24 25  2  0
 25 26  1  0
 25 27  1  0
 27 28  2  0
 28 29  1  0
 29 30  2  0
 12  7  1  0
 19 13  1  0
 30 20  1  0
 29 23  1  0
  3 31  1  0
  4 32  1  0
  4 33  1  0
  8 34  1  0
  8 35  1  0
  9 36  1  0
  9 37  1  0
 10 38  1  0
 10 39  1  0
 11 40  1  0
 11 41  1  0
 12 42  1  6
 14 43  1  0
 15 44  1  0
 18 45  1  0
 19 46  1  0
 21 47  1  0
 22 48  1  0
 24 49  1  0
 27 50  1  0
 28 51  1  0
M  END
>  <smiles>  (28) 
O=C(NCC(=O)N1CCCCC1c1ccc(Br)cc1)c1ccc2cc(Cl)ccc2n1

>  <score_type>  (28) 
oracle

>  <origin>  (28) 
autodockgpu

>  <m_score__min__energy>  (28) 
-9.4900000000000002

>  <m_primary>  (28) 
energy

>  <rmsd>  (28) 
3.18735099402947

>  <m_score__min__rmsd>  (28) 
3.18735099402947

>  <meeko>  (28) 
{"free_energy": -8.75, "intermolecular_energy": -10.24, "internal_energy": -1.79, "cluster_size": 29, "cluster_id": 1, "rank_in_cluster": 26}

>  <energy>  (28) 
-8.58

>  <cluster_rmsd>  (28) 
1.4

>  <cluster>  (28) 
1

$$$$

     RDKit          3D

 51 54  0  0  0  0  0  0  0  0999 V2000
  137.1430   73.4500  220.6070 O   0  0  0  0  0  0  0  0  0  0  0  0
  137.2020   73.8720  221.8000 C   0  0  0  0  0  0  0  0  0  0  0  0
  136.6740   73.0490  222.8330 N   0  0  0  0  0  0  0  0  0  0  0  0
  136.1010   71.7790  222.4470 C   0  0  0  0  0  0  0  0  0  0  0  0
  137.0920   70.6710  222.6090 C   0  0  0  0  0  0  0  0  0  0  0  0
  136.7480   69.5040  222.9440 O   0  0  0  0  0  0  0  0  0  0  0  0
  138.4830   70.8810  222.3900 N   0  0  0  0  0  0  0  0  0  0  0  0
  139.0860   70.2740  221.2220 C   0  0  0  0  0  0  0  0  0  0  0  0
  140.2510   71.0190  220.6620 C   0  0  0  0  0  0  0  0  0  0  0  0
  141.1430   71.5580  221.7590 C   0  0  0  0  0  0  0  0  0  0  0  0
  140.3840   72.4270  222.7200 C   0  0  0  0  0  0  0  0  0  0  0  0
  139.2110   71.6880  223.3480 C   0  0  2  0  0  0  0  0  0  0  0  0
  139.6450   70.9240  224.5500 C   0  0  0  0  0  0  0  0  0  0  0  0
  140.4620   71.4550  225.5260 C   0  0  0  0  0  0  0  0  0  0  0  0
  140.8670   70.7550  226.6420 C   0  0  0  0  0  0  0  0  0  0  0  0
  140.4550   69.4520  226.8270 C   0  0  0  0  0  0  0  0  0  0  0  0
  141.0240   68.4990  228.3740 Br  0  0  0  0  0  0  0  0  0  0  0  0
  139.6390   68.8860  225.8730 C   0  0  0  0  0  0  0  0  0  0  0  0
  139.2410   69.5990  224.7610 C   0  0  0  0  0  0  0  0  0  0  0  0
  137.7960   75.1660  222.1120 C   0  0  0  0  0  0  0  0  0  0  0  0
  136.9590   76.2330  222.3840 C   0  0  0  0  0  0  0  0  0  0  0  0
  137.4190   77.4920  222.6900 C   0  0  0  0  0  0  0  0  0  0  0  0
  138.7850   77.6770  222.7210 C   0  0  0  0  0  0  0  0  0  0  0  0
  139.2480   78.9280  223.0250 C   0  0  0  0  0  0  0  0  0  0  0  0
  140.6060   79.1630  223.0690 C   0  0  0  0  0  0  0  0  0  0  0  0
  141.1790   80.7690  223.4590 Cl  0  0  0  0  0  0  0  0  0  0  0  0
  141.4510   78.1070  222.7990 C   0  0  0  0  0  0  0  0  0  0  0  0
  140.9700   76.8440  222.4930 C   0  0  0  0  0  0  0  0  0  0  0  0
  139.6010   76.6020  222.4480 C   0  0  0  0  0  0  0  0  0  0  0  0
  139.1230   75.3800  222.1510 N   0  0  0  0  0  0  0  0  0  0  0  0
  136.7090   73.3710  223.8270 H   0  0  0  0  0  0  0  0  0  0  0  0
  135.2248   71.5729  223.0794 H   0  0  0  0  0  0  0  0  0  0  0  0
  135.8084   71.8346  221.3881 H   0  0  0  0  0  0  0  0  0  0  0  0
  139.4254   69.2646  221.4974 H   0  0  0  0  0  0  0  0  0  0  0  0
  138.3132   70.2730  220.4392 H   0  0  0  0  0  0  0  0  0  0  0  0
  140.8374   70.3398  220.0257 H   0  0  0  0  0  0  0  0  0  0  0  0
  139.8689   71.8695  220.0784 H   0  0  0  0  0  0  0  0  0  0  0  0
  141.5782   70.7122  222.3115 H   0  0  0  0  0  0  0  0  0  0  0  0
  141.9274   72.1708  221.2909 H   0  0  0  0  0  0  0  0  0  0  0  0
  141.0663   72.7549  223.5181 H   0  0  0  0  0  0  0  0  0  0  0  0
  139.9857   73.2866  222.1610 H   0  0  0  0  0  0  0  0  0  0  0  0
  138.4885   72.4427  223.6921 H   0  0  0  0  0  0  0  0  0  0  0  0
  140.8088   72.4922  225.4075 H   0  0  0  0  0  0  0  0  0  0  0  0
  141.5194   71.2360  227.3857 H   0  0  0  0  0  0  0  0  0  0  0  0
  139.2987   67.8477  225.9997 H   0  0  0  0  0  0  0  0  0  0  0  0
  138.5887   69.1141  224.0198 H   0  0  0  0  0  0  0  0  0  0  0  0
  135.8721   76.0661  222.3540 H   0  0  0  0  0  0  0  0  0  0  0  0
  136.7249   78.3187  222.9017 H   0  0  0  0  0  0  0  0  0  0  0  0
  138.5396   79.7433  223.2335 H   0  0  0  0  0  0  0  0  0  0  0  0
  142.5382   78.2721  222.8274 H   0  0  0  0  0  0  0  0  0  0  0  0
  141.6760   76.0267  222.2841 H   0  0  0  0  0  0  0  0  0  0  0  0
  1  2  2  0
  2  3  1  0
  3  4  1  0
  4  5  1  0
  5  6  2  0
  5  7  1  0
  7  8  1  0
  8  9  1  0
  9 10  1  0
 10 11  1  0
 11 12  1  0
 12 13  1  0
 13 14  2  0
 14 15  1  0
 15 16  2  0
 16 17  1  0
 16 18  1  0
 18 19  2  0
  2 20  1  0
 20 21  2  0
 21 22  1  0
 22 23  2  0
 23 24  1  0
 24 25  2  0
 25 26  1  0
 25 27  1  0
 27 28  2  0
 28 29  1  0
 29 30  2  0
 12  7  1  0
 19 13  1  0
 30 20  1  0
 29 23  1  0
  3 31  1  0
  4 32  1  0
  4 33  1  0
  8 34  1  0
  8 35  1  0
  9 36  1  0
  9 37  1  0
 10 38  1  0
 10 39  1  0
 11 40  1  0
 11 41  1  0
 12 42  1  1
 14 43  1  0
 15 44  1  0
 18 45  1  0
 19 46  1  0
 21 47  1  0
 22 48  1  0
 24 49  1  0
 27 50  1  0
 28 51  1  0
M  END
>  <smiles>  (29) 
O=C(NCC(=O)N1CCCCC1c1ccc(Br)cc1)c1ccc2cc(Cl)ccc2n1

>  <score_type>  (29) 
oracle

>  <origin>  (29) 
autodockgpu

>  <m_score__min__energy>  (29) 
-9.4900000000000002

>  <m_primary>  (29) 
energy

>  <rmsd>  (29) 
6.954015409451866

>  <m_score__min__rmsd>  (29) 
6.954015409451866

>  <meeko>  (29) 
{"free_energy": -8.21, "intermolecular_energy": -9.7, "internal_energy": -2.03, "cluster_size": 7, "cluster_id": 4, "rank_in_cluster": 6}

>  <energy>  (29) 
-8.06

>  <cluster_rmsd>  (29) 
1.61

>  <cluster>  (29) 
1

$$$$

     RDKit          3D

 51 54  0  0  0  0  0  0  0  0999 V2000
  139.3440   71.0380  221.3240 O   0  0  0  0  0  0  0  0  0  0  0  0
  139.5540   71.7480  222.3520 C   0  0  0  0  0  0  0  0  0  0  0  0
  139.4050   73.1590  222.2390 N   0  0  0  0  0  0  0  0  0  0  0  0
  139.0210   73.6880  220.9490 C   0  0  0  0  0  0  0  0  0  0  0  0
  140.0640   73.3980  219.9170 C   0  0  0  0  0  0  0  0  0  0  0  0
  139.7880   72.8370  218.8220 O   0  0  0  0  0  0  0  0  0  0  0  0
  141.4290   73.7460  220.1230 N   0  0  0  0  0  0  0  0  0  0  0  0
  142.2730   72.7980  220.8200 C   0  0  0  0  0  0  0  0  0  0  0  0
  143.7130   72.8400  220.4300 C   0  0  0  0  0  0  0  0  0  0  0  0
  144.1950   74.2620  220.2440 C   0  0  0  0  0  0  0  0  0  0  0  0
  143.3630   75.0070  219.2410 C   0  0  0  0  0  0  0  0  0  0  0  0
  141.8910   75.0250  219.6260 C   0  0  2  0  0  0  0  0  0  0  0  0
  141.5970   76.1560  220.5480 C   0  0  0  0  0  0  0  0  0  0  0  0
  141.8250   77.4750  220.2190 C   0  0  0  0  0  0  0  0  0  0  0  0
  141.5540   78.5280  221.0670 C   0  0  0  0  0  0  0  0  0  0  0  0
  141.0250   78.2890  222.3180 C   0  0  0  0  0  0  0  0  0  0  0  0
  140.6560   79.7530  223.4770 Br  0  0  0  0  0  0  0  0  0  0  0  0
  140.7830   76.9820  222.6830 C   0  0  0  0  0  0  0  0  0  0  0  0
  141.0600   75.9400  221.8240 C   0  0  0  0  0  0  0  0  0  0  0  0
  139.9390   71.1420  223.6210 C   0  0  0  0  0  0  0  0  0  0  0  0
  140.6870   71.8880  224.5130 C   0  0  0  0  0  0  0  0  0  0  0  0
  141.1000   71.4090  225.7340 C   0  0  0  0  0  0  0  0  0  0  0  0
  140.7370   70.1200  226.0640 C   0  0  0  0  0  0  0  0  0  0  0  0
  141.1450   69.6390  227.2790 C   0  0  0  0  0  0  0  0  0  0  0  0
  140.8070   68.3550  227.6540 C   0  0  0  0  0  0  0  0  0  0  0  0
  141.3380   67.7580  229.2090 Cl  0  0  0  0  0  0  0  0  0  0  0  0
  140.0610   67.6020  226.7720 C   0  0  0  0  0  0  0  0  0  0  0  0
  139.6540   68.1010  225.5450 C   0  0  0  0  0  0  0  0  0  0  0  0
  139.9910   69.3950  225.1620 C   0  0  0  0  0  0  0  0  0  0  0  0
  139.6020   69.8890  223.9730 N   0  0  0  0  0  0  0  0  0  0  0  0
  139.5720   73.7700  223.0690 H   0  0  0  0  0  0  0  0  0  0  0  0
  138.0714   73.2270  220.6397 H   0  0  0  0  0  0  0  0  0  0  0  0
  138.9100   74.7788  221.0372 H   0  0  0  0  0  0  0  0  0  0  0  0
  142.2039   73.0058  221.8980 H   0  0  0  0  0  0  0  0  0  0  0  0
  141.9066   71.7972  220.5476 H   0  0  0  0  0  0  0  0  0  0  0  0
  144.3112   72.3599  221.2185 H   0  0  0  0  0  0  0  0  0  0  0  0
  143.8276   72.3085  219.4737 H   0  0  0  0  0  0  0  0  0  0  0  0
  144.1410   74.7853  221.2101 H   0  0  0  0  0  0  0  0  0  0  0  0
  145.2290   74.2260  219.8705 H   0  0  0  0  0  0  0  0  0  0  0  0
  143.7265   76.0432  219.1770 H   0  0  0  0  0  0  0  0  0  0  0  0
  143.4558   74.4936  218.2726 H   0  0  0  0  0  0  0  0  0  0  0  0
  141.3087   75.1999  218.7093 H   0  0  0  0  0  0  0  0  0  0  0  0
  142.2453   77.6994  219.2276 H   0  0  0  0  0  0  0  0  0  0  0  0
  141.7599   79.5596  220.7454 H   0  0  0  0  0  0  0  0  0  0  0  0
  140.3619   76.7669  223.6762 H   0  0  0  0  0  0  0  0  0  0  0  0
  140.8536   74.9098  222.1496 H   0  0  0  0  0  0  0  0  0  0  0  0
  140.9652   72.9145  224.2323 H   0  0  0  0  0  0  0  0  0  0  0  0
  141.6959   72.0289  226.4199 H   0  0  0  0  0  0  0  0  0  0  0  0
  141.7395   70.2732  227.9531 H   0  0  0  0  0  0  0  0  0  0  0  0
  139.7809   66.5754  227.0505 H   0  0  0  0  0  0  0  0  0  0  0  0
  139.0598   67.4689  224.8687 H   0  0  0  0  0  0  0  0  0  0  0  0
  1  2  2  0
  2  3  1  0
  3  4  1  0
  4  5  1  0
  5  6  2  0
  5  7  1  0
  7  8  1  0
  8  9  1  0
  9 10  1  0
 10 11  1  0
 11 12  1  0
 12 13  1  0
 13 14  2  0
 14 15  1  0
 15 16  2  0
 16 17  1  0
 16 18  1  0
 18 19  2  0
  2 20  1  0
 20 21  2  0
 21 22  1  0
 22 23  2  0
 23 24  1  0
 24 25  2  0
 25 26  1  0
 25 27  1  0
 27 28  2  0
 28 29  1  0
 29 30  2  0
 12  7  1  0
 19 13  1  0
 30 20  1  0
 29 23  1  0
  3 31  1  0
  4 32  1  0
  4 33  1  0
  8 34  1  0
  8 35  1  0
  9 36  1  0
  9 37  1  0
 10 38  1  0
 10 39  1  0
 11 40  1  0
 11 41  1  0
 12 42  1  6
 14 43  1  0
 15 44  1  0
 18 45  1  0
 19 46  1  0
 21 47  1  0
 22 48  1  0
 24 49  1  0
 27 50  1  0
 28 51  1  0
M  END
>  <smiles>  (30) 
O=C(NCC(=O)N1CCCCC1c1ccc(Br)cc1)c1ccc2cc(Cl)ccc2n1

>  <score_type>  (30) 
oracle

>  <origin>  (30) 
autodockgpu

>  <m_score__min__energy>  (30) 
-9.4900000000000002

>  <m_primary>  (30) 
energy

>  <rmsd>  (30) 
3.4184837982373293

>  <m_score__min__rmsd>  (30) 
3.4184837982373293

>  <meeko>  (30) 
{"free_energy": -8.7, "intermolecular_energy": -10.19, "internal_energy": -1.65, "cluster_size": 29, "cluster_id": 1, "rank_in_cluster": 27}

>  <energy>  (30) 
-8.58

>  <cluster_rmsd>  (30) 
0.0

>  <cluster>  (30) 
2

$$$$

     RDKit          3D

 51 54  0  0  0  0  0  0  0  0999 V2000
  141.5340   78.5530  217.1380 O   0  0  0  0  0  0  0  0  0  0  0  0
  142.2070   78.1790  218.1440 C   0  0  0  0  0  0  0  0  0  0  0  0
  142.3920   79.1000  219.2130 N   0  0  0  0  0  0  0  0  0  0  0  0
  141.7950   80.4100  219.0750 C   0  0  0  0  0  0  0  0  0  0  0  0
  141.0070   80.7720  220.2930 C   0  0  0  0  0  0  0  0  0  0  0  0
  140.0430   81.5840  220.2530 O   0  0  0  0  0  0  0  0  0  0  0  0
  141.3100   80.2130  221.5670 N   0  0  0  0  0  0  0  0  0  0  0  0
  142.5890   80.5370  222.1640 C   0  0  0  0  0  0  0  0  0  0  0  0
  142.5990   80.5440  223.6550 C   0  0  0  0  0  0  0  0  0  0  0  0
  141.7890   79.3980  224.2190 C   0  0  0  0  0  0  0  0  0  0  0  0
  140.3770   79.4070  223.7090 C   0  0  0  0  0  0  0  0  0  0  0  0
  140.3230   79.3550  222.1890 C   0  0  2  0  0  0  0  0  0  0  0  0
  140.3760   77.9500  221.7020 C   0  0  0  0  0  0  0  0  0  0  0  0
  141.0400   76.9440  222.3730 C   0  0  0  0  0  0  0  0  0  0  0  0
  141.0920   75.6400  221.9290 C   0  0  0  0  0  0  0  0  0  0  0  0
  140.4590   75.2840  220.7570 C   0  0  0  0  0  0  0  0  0  0  0  0
  140.5410   73.4790  220.1580 Br  0  0  0  0  0  0  0  0  0  0  0  0
  139.7850   76.2610  220.0580 C   0  0  0  0  0  0  0  0  0  0  0  0
  139.7410   77.5620  220.5150 C   0  0  0  0  0  0  0  0  0  0  0  0
  142.7780   76.8390  218.2110 C   0  0  0  0  0  0  0  0  0  0  0  0
  142.7790   76.0590  217.0690 C   0  0  0  0  0  0  0  0  0  0  0  0
  143.2930   74.7850  217.0280 C   0  0  0  0  0  0  0  0  0  0  0  0
  143.8300   74.2810  218.1940 C   0  0  0  0  0  0  0  0  0  0  0  0
  144.3440   73.0130  218.1590 C   0  0  0  0  0  0  0  0  0  0  0  0
  144.8920   72.4650  219.2990 C   0  0  0  0  0  0  0  0  0  0  0  0
  145.5430   70.8440  219.2340 Cl  0  0  0  0  0  0  0  0  0  0  0  0
  144.8980   73.2340  220.4440 C   0  0  0  0  0  0  0  0  0  0  0  0
  144.3750   74.5170  220.4670 C   0  0  0  0  0  0  0  0  0  0  0  0
  143.8210   75.0740  219.3200 C   0  0  0  0  0  0  0  0  0  0  0  0
  143.3100   76.3180  219.3310 N   0  0  0  0  0  0  0  0  0  0  0  0
  142.9410   78.8190  220.0550 H   0  0  0  0  0  0  0  0  0  0  0  0
  142.5914   81.1543  218.9277 H   0  0  0  0  0  0  0  0  0  0  0  0
  141.1155   80.3956  218.2101 H   0  0  0  0  0  0  0  0  0  0  0  0
  143.3249   79.7951  221.8203 H   0  0  0  0  0  0  0  0  0  0  0  0
  142.8273   81.5633  221.8478 H   0  0  0  0  0  0  0  0  0  0  0  0
  143.6376   80.4547  224.0061 H   0  0  0  0  0  0  0  0  0  0  0  0
  142.1496   81.4872  223.9992 H   0  0  0  0  0  0  0  0  0  0  0  0
  142.2655   78.4496  223.9302 H   0  0  0  0  0  0  0  0  0  0  0  0
  141.7573   79.5085  225.3130 H   0  0  0  0  0  0  0  0  0  0  0  0
  139.8469   78.5323  224.1139 H   0  0  0  0  0  0  0  0  0  0  0  0
  139.9023   80.3441  224.0354 H   0  0  0  0  0  0  0  0  0  0  0  0
  139.3513   79.7651  221.8766 H   0  0  0  0  0  0  0  0  0  0  0  0
  141.5551   77.1957  223.3118 H   0  0  0  0  0  0  0  0  0  0  0  0
  141.6389   74.8829  222.5102 H   0  0  0  0  0  0  0  0  0  0  0  0
  139.2734   75.9996  219.1199 H   0  0  0  0  0  0  0  0  0  0  0  0
  139.1921   78.3156  219.9312 H   0  0  0  0  0  0  0  0  0  0  0  0
  142.3473   76.4788  216.1484 H   0  0  0  0  0  0  0  0  0  0  0  0
  143.2767   74.1911  216.1022 H   0  0  0  0  0  0  0  0  0  0  0  0
  144.3199   72.4333  217.2245 H   0  0  0  0  0  0  0  0  0  0  0  0
  145.3304   72.8168  221.3654 H   0  0  0  0  0  0  0  0  0  0  0  0
  144.3984   75.0992  221.4000 H   0  0  0  0  0  0  0  0  0  0  0  0
  1  2  2  0
  2  3  1  0
  3  4  1  0
  4  5  1  0
  5  6  2  0
  5  7  1  0
  7  8  1  0
  8  9  1  0
  9 10  1  0
 10 11  1  0
 11 12  1  0
 12 13  1  0
 13 14  2  0
 14 15  1  0
 15 16  2  0
 16 17  1  0
 16 18  1  0
 18 19  2  0
  2 20  1  0
 20 21  2  0
 21 22  1  0
 22 23  2  0
 23 24  1  0
 24 25  2  0
 25 26  1  0
 25 27  1  0
 27 28  2  0
 28 29  1  0
 29 30  2  0
 12  7  1  0
 19 13  1  0
 30 20  1  0
 29 23  1  0
  3 31  1  0
  4 32  1  0
  4 33  1  0
  8 34  1  0
  8 35  1  0
  9 36  1  0
  9 37  1  0
 10 38  1  0
 10 39  1  0
 11 40  1  0
 11 41  1  0
 12 42  1  6
 14 43  1  0
 15 44  1  0
 18 45  1  0
 19 46  1  0
 21 47  1  0
 22 48  1  0
 24 49  1  0
 27 50  1  0
 28 51  1  0
M  END
>  <smiles>  (31) 
O=C(NCC(=O)N1CCCCC1c1ccc(Br)cc1)c1ccc2cc(Cl)ccc2n1

>  <score_type>  (31) 
oracle

>  <origin>  (31) 
autodockgpu

>  <m_score__min__energy>  (31) 
-9.4900000000000002

>  <m_primary>  (31) 
energy

>  <rmsd>  (31) 
8.262612207844626

>  <m_score__min__rmsd>  (31) 
8.262612207844626

>  <meeko>  (31) 
{"free_energy": -6.83, "intermolecular_energy": -8.32, "internal_energy": -3.27, "cluster_size": 3, "cluster_id": 7, "rank_in_cluster": 3}

>  <energy>  (31) 
-8.55

>  <cluster_rmsd>  (31) 
0.0

>  <cluster>  (31) 
3

$$$$

     RDKit          3D

 51 54  0  0  0  0  0  0  0  0999 V2000
  139.1600   71.0570  221.3940 O   0  0  0  0  0  0  0  0  0  0  0  0
  139.4440   71.7690  222.4020 C   0  0  0  0  0  0  0  0  0  0  0  0
  139.3410   73.1830  222.2800 N   0  0  0  0  0  0  0  0  0  0  0  0
  138.9160   73.7130  221.0030 C   0  0  0  0  0  0  0  0  0  0  0  0
  139.9650   73.5030  219.9590 C   0  0  0  0  0  0  0  0  0  0  0  0
  139.6850   73.1030  218.7960 O   0  0  0  0  0  0  0  0  0  0  0  0
  141.3410   73.7480  220.2280 N   0  0  0  0  0  0  0  0  0  0  0  0
  142.0760   72.7470  220.9730 C   0  0  0  0  0  0  0  0  0  0  0  0
  143.5310   72.6730  220.6540 C   0  0  0  0  0  0  0  0  0  0  0  0
  144.1300   74.0510  220.4790 C   0  0  0  0  0  0  0  0  0  0  0  0
  143.4080   74.8450  219.4300 C   0  0  0  0  0  0  0  0  0  0  0  0
  141.9250   74.9820  219.7420 C   0  0  2  0  0  0  0  0  0  0  0  0
  141.6740   76.1430  220.6390 C   0  0  0  0  0  0  0  0  0  0  0  0
  142.0260   77.4360  220.3140 C   0  0  0  0  0  0  0  0  0  0  0  0
  141.7970   78.5170  221.1380 C   0  0  0  0  0  0  0  0  0  0  0  0
  141.1840   78.3350  222.3600 C   0  0  0  0  0  0  0  0  0  0  0  0
  140.8750   79.8380  223.4860 Br  0  0  0  0  0  0  0  0  0  0  0  0
  140.8190   77.0570  222.7210 C   0  0  0  0  0  0  0  0  0  0  0  0
  141.0550   75.9860  221.8860 C   0  0  0  0  0  0  0  0  0  0  0  0
  139.8660   71.1620  223.6590 C   0  0  0  0  0  0  0  0  0  0  0  0
  140.6550   71.9000  224.5210 C   0  0  0  0  0  0  0  0  0  0  0  0
  141.1050   71.4200  225.7290 C   0  0  0  0  0  0  0  0  0  0  0  0
  140.7370   70.1370  226.0750 C   0  0  0  0  0  0  0  0  0  0  0  0
  141.1810   69.6530  227.2770 C   0  0  0  0  0  0  0  0  0  0  0  0
  140.8400   68.3760  227.6680 C   0  0  0  0  0  0  0  0  0  0  0  0
  141.4180   67.7760  229.2050 Cl  0  0  0  0  0  0  0  0  0  0  0  0
  140.0530   67.6300  226.8160 C   0  0  0  0  0  0  0  0  0  0  0  0
  139.6090   68.1300  225.6030 C   0  0  0  0  0  0  0  0  0  0  0  0
  139.9500   69.4180  225.2030 C   0  0  0  0  0  0  0  0  0  0  0  0
  139.5250   69.9140  224.0270 N   0  0  0  0  0  0  0  0  0  0  0  0
  139.5690   73.7960  223.0950 H   0  0  0  0  0  0  0  0  0  0  0  0
  137.9920   73.2037  220.6919 H   0  0  0  0  0  0  0  0  0  0  0  0
  138.7426   74.7937  221.1127 H   0  0  0  0  0  0  0  0  0  0  0  0
  141.9717   72.9728  222.0445 H   0  0  0  0  0  0  0  0  0  0  0  0
  141.6473   71.7741  220.6907 H   0  0  0  0  0  0  0  0  0  0  0  0
  144.0514   72.1585  221.4752 H   0  0  0  0  0  0  0  0  0  0  0  0
  143.6501   72.1220  219.7095 H   0  0  0  0  0  0  0  0  0  0  0  0
  144.0702   74.5892  221.4365 H   0  0  0  0  0  0  0  0  0  0  0  0
  145.1749   73.9306  220.1569 H   0  0  0  0  0  0  0  0  0  0  0  0
  143.8539   75.8490  219.3744 H   0  0  0  0  0  0  0  0  0  0  0  0
  143.5069   74.3134  218.4721 H   0  0  0  0  0  0  0  0  0  0  0  0
  141.4047   75.1906  218.7956 H   0  0  0  0  0  0  0  0  0  0  0  0
  142.5158   77.6143  219.3453 H   0  0  0  0  0  0  0  0  0  0  0  0
  142.1032   79.5248  220.8209 H   0  0  0  0  0  0  0  0  0  0  0  0
  140.3308   76.8881  223.6922 H   0  0  0  0  0  0  0  0  0  0  0  0
  140.7487   74.9797  222.2078 H   0  0  0  0  0  0  0  0  0  0  0  0
  140.9370   72.9216  224.2265 H   0  0  0  0  0  0  0  0  0  0  0  0
  141.7324   72.0343  226.3916 H   0  0  0  0  0  0  0  0  0  0  0  0
  141.8073   70.2810  227.9277 H   0  0  0  0  0  0  0  0  0  0  0  0
  139.7696   66.6081  227.1082 H   0  0  0  0  0  0  0  0  0  0  0  0
  138.9821   67.5039  224.9511 H   0  0  0  0  0  0  0  0  0  0  0  0
  1  2  2  0
  2  3  1  0
  3  4  1  0
  4  5  1  0
  5  6  2  0
  5  7  1  0
  7  8  1  0
  8  9  1  0
  9 10  1  0
 10 11  1  0
 11 12  1  0
 12 13  1  0
 13 14  2  0
 14 15  1  0
 15 16  2  0
 16 17  1  0
 16 18  1  0
 18 19  2  0
  2 20  1  0
 20 21  2  0
 21 22  1  0
 22 23  2  0
 23 24  1  0
 24 25  2  0
 25 26  1  0
 25 27  1  0
 27 28  2  0
 28 29  1  0
 29 30  2  0
 12  7  1  0
 19 13  1  0
 30 20  1  0
 29 23  1  0
  3 31  1  0
  4 32  1  0
  4 33  1  0
  8 34  1  0
  8 35  1  0
  9 36  1  0
  9 37  1  0
 10 38  1  0
 10 39  1  0
 11 40  1  0
 11 41  1  0
 12 42  1  6
 14 43  1  0
 15 44  1  0
 18 45  1  0
 19 46  1  0
 21 47  1  0
 22 48  1  0
 24 49  1  0
 27 50  1  0
 28 51  1  0
M  END
>  <smiles>  (32) 
O=C(NCC(=O)N1CCCCC1c1ccc(Br)cc1)c1ccc2cc(Cl)ccc2n1

>  <score_type>  (32) 
oracle

>  <origin>  (32) 
autodockgpu

>  <m_score__min__energy>  (32) 
-9.4900000000000002

>  <m_primary>  (32) 
energy

>  <rmsd>  (32) 
3.4387831964931665

>  <m_score__min__rmsd>  (32) 
3.4387831964931665

>  <meeko>  (32) 
{"free_energy": -8.8, "intermolecular_energy": -10.29, "internal_energy": -1.69, "cluster_size": 29, "cluster_id": 1, "rank_in_cluster": 22}

>  <energy>  (32) 
-8.55

>  <cluster_rmsd>  (32) 
0.07

>  <cluster>  (32) 
3

$$$$

     RDKit          3D

 51 54  0  0  0  0  0  0  0  0999 V2000
  138.2730   71.4080  221.3170 O   0  0  0  0  0  0  0  0  0  0  0  0
  138.8340   71.9470  222.3170 C   0  0  0  0  0  0  0  0  0  0  0  0
  139.0580   73.3520  222.2900 N   0  0  0  0  0  0  0  0  0  0  0  0
  138.6270   74.0730  221.1130 C   0  0  0  0  0  0  0  0  0  0  0  0
  139.6420   73.9730  220.0200 C   0  0  0  0  0  0  0  0  0  0  0  0
  139.3180   73.7730  218.8180 O   0  0  0  0  0  0  0  0  0  0  0  0
  141.0350   74.1000  220.2860 N   0  0  0  0  0  0  0  0  0  0  0  0
  141.6800   73.0500  221.0460 C   0  0  0  0  0  0  0  0  0  0  0  0
  143.1230   72.8450  220.7270 C   0  0  0  0  0  0  0  0  0  0  0  0
  143.8390   74.1630  220.5330 C   0  0  0  0  0  0  0  0  0  0  0  0
  143.1880   75.0020  219.4730 C   0  0  0  0  0  0  0  0  0  0  0  0
  141.7230   75.2720  219.7840 C   0  0  2  0  0  0  0  0  0  0  0  0
  141.5760   76.4630  220.6640 C   0  0  0  0  0  0  0  0  0  0  0  0
  141.9500   77.7340  220.2810 C   0  0  0  0  0  0  0  0  0  0  0  0
  141.8150   78.8420  221.0900 C   0  0  0  0  0  0  0  0  0  0  0  0
  141.2830   78.7130  222.3550 C   0  0  0  0  0  0  0  0  0  0  0  0
  141.1050   80.2530  223.4600 Br  0  0  0  0  0  0  0  0  0  0  0  0
  140.8990   77.4580  222.7740 C   0  0  0  0  0  0  0  0  0  0  0  0
  141.0390   76.3580  221.9540 C   0  0  0  0  0  0  0  0  0  0  0  0
  139.2400   71.1520  223.4700 C   0  0  0  0  0  0  0  0  0  0  0  0
  139.0550   69.7820  223.4320 C   0  0  0  0  0  0  0  0  0  0  0  0
  139.4040   68.9460  224.4660 C   0  0  0  0  0  0  0  0  0  0  0  0
  139.9660   69.5240  225.5850 C   0  0  0  0  0  0  0  0  0  0  0  0
  140.3160   68.6950  226.6170 C   0  0  0  0  0  0  0  0  0  0  0  0
  140.8810   69.2260  227.7580 C   0  0  0  0  0  0  0  0  0  0  0  0
  141.3210   68.1520  229.0660 Cl  0  0  0  0  0  0  0  0  0  0  0  0
  141.0700   70.5900  227.8070 C   0  0  0  0  0  0  0  0  0  0  0  0
  140.7120   71.4190  226.7560 C   0  0  0  0  0  0  0  0  0  0  0  0
  140.1420   70.8890  225.6030 C   0  0  0  0  0  0  0  0  0  0  0  0
  139.7900   71.6840  224.5770 N   0  0  0  0  0  0  0  0  0  0  0  0
  139.5180   73.8230  223.1010 H   0  0  0  0  0  0  0  0  0  0  0  0
  137.6756   73.6487  220.7599 H   0  0  0  0  0  0  0  0  0  0  0  0
  138.5021   75.1332  221.3784 H   0  0  0  0  0  0  0  0  0  0  0  0
  141.5975   73.3001  222.1140 H   0  0  0  0  0  0  0  0  0  0  0  0
  141.1672   72.1141  220.7794 H   0  0  0  0  0  0  0  0  0  0  0  0
  143.5982   72.2983  221.5548 H   0  0  0  0  0  0  0  0  0  0  0  0
  143.1921   72.2728  219.7901 H   0  0  0  0  0  0  0  0  0  0  0  0
  143.8270   74.7176  221.4829 H   0  0  0  0  0  0  0  0  0  0  0  0
  144.8691   73.9477  220.2129 H   0  0  0  0  0  0  0  0  0  0  0  0
  143.7197   75.9624  219.4031 H   0  0  0  0  0  0  0  0  0  0  0  0
  143.2390   74.4507  218.5225 H   0  0  0  0  0  0  0  0  0  0  0  0
  141.2201   75.5125  218.8357 H   0  0  0  0  0  0  0  0  0  0  0  0
  142.3786   77.8708  219.2772 H   0  0  0  0  0  0  0  0  0  0  0  0
  142.1322   79.8302  220.7256 H   0  0  0  0  0  0  0  0  0  0  0  0
  140.4732   77.3311  223.7803 H   0  0  0  0  0  0  0  0  0  0  0  0
  140.7206   75.3717  222.3225 H   0  0  0  0  0  0  0  0  0  0  0  0
  138.6066   69.3396  222.5302 H   0  0  0  0  0  0  0  0  0  0  0  0
  139.2416   67.8599  224.4034 H   0  0  0  0  0  0  0  0  0  0  0  0
  140.1475   67.6110  226.5367 H   0  0  0  0  0  0  0  0  0  0  0  0
  141.5187   71.0342  228.7077 H   0  0  0  0  0  0  0  0  0  0  0  0
  140.8796   72.5034  226.8339 H   0  0  0  0  0  0  0  0  0  0  0  0
  1  2  2  0
  2  3  1  0
  3  4  1  0
  4  5  1  0
  5  6  2  0
  5  7  1  0
  7  8  1  0
  8  9  1  0
  9 10  1  0
 10 11  1  0
 11 12  1  0
 12 13  1  0
 13 14  2  0
 14 15  1  0
 15 16  2  0
 16 17  1  0
 16 18  1  0
 18 19  2  0
  2 20  1  0
 20 21  2  0
 21 22  1  0
 22 23  2  0
 23 24  1  0
 24 25  2  0
 25 26  1  0
 25 27  1  0
 27 28  2  0
 28 29  1  0
 29 30  2  0
 12  7  1  0
 19 13  1  0
 30 20  1  0
 29 23  1  0
  3 31  1  0
  4 32  1  0
  4 33  1  0
  8 34  1  0
  8 35  1  0
  9 36  1  0
  9 37  1  0
 10 38  1  0
 10 39  1  0
 11 40  1  0
 11 41  1  0
 12 42  1  6
 14 43  1  0
 15 44  1  0
 18 45  1  0
 19 46  1  0
 21 47  1  0
 22 48  1  0
 24 49  1  0
 27 50  1  0
 28 51  1  0
M  END
>  <smiles>  (33) 
O=C(NCC(=O)N1CCCCC1c1ccc(Br)cc1)c1ccc2cc(Cl)ccc2n1

>  <score_type>  (33) 
oracle

>  <origin>  (33) 
autodockgpu

>  <m_score__min__energy>  (33) 
-9.4900000000000002

>  <m_primary>  (33) 
energy

>  <rmsd>  (33) 
2.494597985819

>  <m_score__min__rmsd>  (33) 
2.494597985819

>  <meeko>  (33) 
{"free_energy": -8.81, "intermolecular_energy": -10.3, "internal_energy": -1.86, "cluster_size": 29, "cluster_id": 1, "rank_in_cluster": 21}

>  <energy>  (33) 
-8.54

>  <cluster_rmsd>  (33) 
0.04

>  <cluster>  (33) 
3

$$$$

     RDKit          3D

 51 54  0  0  0  0  0  0  0  0999 V2000
  139.1180   71.0510  221.4030 O   0  0  0  0  0  0  0  0  0  0  0  0
  139.4140   71.7660  222.4060 C   0  0  0  0  0  0  0  0  0  0  0  0
  139.3220   73.1800  222.2780 N   0  0  0  0  0  0  0  0  0  0  0  0
  138.8950   73.7080  221.0010 C   0  0  0  0  0  0  0  0  0  0  0  0
  139.9410   73.4930  219.9540 C   0  0  0  0  0  0  0  0  0  0  0  0
  139.6560   73.0930  218.7920 O   0  0  0  0  0  0  0  0  0  0  0  0
  141.3190   73.7320  220.2210 N   0  0  0  0  0  0  0  0  0  0  0  0
  142.0510   72.7270  220.9630 C   0  0  0  0  0  0  0  0  0  0  0  0
  143.5060   72.6480  220.6400 C   0  0  0  0  0  0  0  0  0  0  0  0
  144.1090   74.0240  220.4650 C   0  0  0  0  0  0  0  0  0  0  0  0
  143.3870   74.8230  219.4190 C   0  0  0  0  0  0  0  0  0  0  0  0
  141.9060   74.9640  219.7350 C   0  0  2  0  0  0  0  0  0  0  0  0
  141.6620   76.1250  220.6350 C   0  0  0  0  0  0  0  0  0  0  0  0
  142.0110   77.4180  220.3060 C   0  0  0  0  0  0  0  0  0  0  0  0
  141.7870   78.4990  221.1330 C   0  0  0  0  0  0  0  0  0  0  0  0
  141.1850   78.3170  222.3600 C   0  0  0  0  0  0  0  0  0  0  0  0
  140.8840   79.8190  223.4890 Br  0  0  0  0  0  0  0  0  0  0  0  0
  140.8230   77.0380  222.7230 C   0  0  0  0  0  0  0  0  0  0  0  0
  141.0530   75.9670  221.8860 C   0  0  0  0  0  0  0  0  0  0  0  0
  139.8360   71.1600  223.6630 C   0  0  0  0  0  0  0  0  0  0  0  0
  140.6310   71.8980  224.5220 C   0  0  0  0  0  0  0  0  0  0  0  0
  141.0820   71.4190  225.7290 C   0  0  0  0  0  0  0  0  0  0  0  0
  140.7100   70.1390  226.0800 C   0  0  0  0  0  0  0  0  0  0  0  0
  141.1560   69.6570  227.2820 C   0  0  0  0  0  0  0  0  0  0  0  0
  140.8110   68.3820  227.6780 C   0  0  0  0  0  0  0  0  0  0  0  0
  141.3910   67.7840  229.2150 Cl  0  0  0  0  0  0  0  0  0  0  0  0
  140.0190   67.6370  226.8300 C   0  0  0  0  0  0  0  0  0  0  0  0
  139.5740   68.1350  225.6160 C   0  0  0  0  0  0  0  0  0  0  0  0
  139.9180   69.4210  225.2120 C   0  0  0  0  0  0  0  0  0  0  0  0
  139.4920   69.9150  224.0360 N   0  0  0  0  0  0  0  0  0  0  0  0
  139.5590   73.7950  223.0890 H   0  0  0  0  0  0  0  0  0  0  0  0
  137.9689   73.2002  220.6936 H   0  0  0  0  0  0  0  0  0  0  0  0
  138.7248   74.7894  221.1087 H   0  0  0  0  0  0  0  0  0  0  0  0
  141.9500   72.9516  222.0351 H   0  0  0  0  0  0  0  0  0  0  0  0
  141.6175   71.7562  220.6808 H   0  0  0  0  0  0  0  0  0  0  0  0
  144.0267   72.1308  221.4594 H   0  0  0  0  0  0  0  0  0  0  0  0
  143.6209   72.0974  219.6947 H   0  0  0  0  0  0  0  0  0  0  0  0
  144.0539   74.5609  221.4235 H   0  0  0  0  0  0  0  0  0  0  0  0
  145.1523   73.9000  220.1392 H   0  0  0  0  0  0  0  0  0  0  0  0
  143.8360   75.8257  219.3646 H   0  0  0  0  0  0  0  0  0  0  0  0
  143.4819   74.2933  218.4596 H   0  0  0  0  0  0  0  0  0  0  0  0
  141.3837   75.1750  218.7902 H   0  0  0  0  0  0  0  0  0  0  0  0
  142.4931   77.5966  219.3335 H   0  0  0  0  0  0  0  0  0  0  0  0
  142.0890   79.5073  220.8133 H   0  0  0  0  0  0  0  0  0  0  0  0
  140.3421   76.8686  223.6977 H   0  0  0  0  0  0  0  0  0  0  0  0
  140.7497   74.9604  222.2098 H   0  0  0  0  0  0  0  0  0  0  0  0
  140.9161   72.9179  224.2245 H   0  0  0  0  0  0  0  0  0  0  0  0
  141.7141   72.0323  226.3880 H   0  0  0  0  0  0  0  0  0  0  0  0
  141.7868   70.2844  227.9288 H   0  0  0  0  0  0  0  0  0  0  0  0
  139.7320   66.6172  227.1261 H   0  0  0  0  0  0  0  0  0  0  0  0
  138.9441   67.5089  224.9669 H   0  0  0  0  0  0  0  0  0  0  0  0
  1  2  2  0
  2  3  1  0
  3  4  1  0
  4  5  1  0
  5  6  2  0
  5  7  1  0
  7  8  1  0
  8  9  1  0
  9 10  1  0
 10 11  1  0
 11 12  1  0
 12 13  1  0
 13 14  2  0
 14 15  1  0
 15 16  2  0
 16 17  1  0
 16 18  1  0
 18 19  2  0
  2 20  1  0
 20 21  2  0
 21 22  1  0
 22 23  2  0
 23 24  1  0
 24 25  2  0
 25 26  1  0
 25 27  1  0
 27 28  2  0
 28 29  1  0
 29 30  2  0
 12  7  1  0
 19 13  1  0
 30 20  1  0
 29 23  1  0
  3 31  1  0
  4 32  1  0
  4 33  1  0
  8 34  1  0
  8 35  1  0
  9 36  1  0
  9 37  1  0
 10 38  1  0
 10 39  1  0
 11 40  1  0
 11 41  1  0
 12 42  1  6
 14 43  1  0
 15 44  1  0
 18 45  1  0
 19 46  1  0
 21 47  1  0
 22 48  1  0
 24 49  1  0
 27 50  1  0
 28 51  1  0
M  END
>  <smiles>  (34) 
O=C(NCC(=O)N1CCCCC1c1ccc(Br)cc1)c1ccc2cc(Cl)ccc2n1

>  <score_type>  (34) 
oracle

>  <origin>  (34) 
autodockgpu

>  <m_score__min__energy>  (34) 
-9.4900000000000002

>  <m_primary>  (34) 
energy

>  <rmsd>  (34) 
3.4335267638631617

>  <m_score__min__rmsd>  (34) 
3.4335267638631617

>  <meeko>  (34) 
{"free_energy": -8.79, "intermolecular_energy": -10.28, "internal_energy": -1.7, "cluster_size": 29, "cluster_id": 1, "rank_in_cluster": 23}

>  <energy>  (34) 
-8.54

>  <cluster_rmsd>  (34) 
0.11

>  <cluster>  (34) 
3

$$$$

     RDKit          3D

 51 54  0  0  0  0  0  0  0  0999 V2000
  140.0310   72.0210  220.8860 O   0  0  0  0  0  0  0  0  0  0  0  0
  139.5580   72.3370  222.0170 C   0  0  0  0  0  0  0  0  0  0  0  0
  138.8190   73.5490  222.1260 N   0  0  0  0  0  0  0  0  0  0  0  0
  138.6590   74.3420  220.9270 C   0  0  0  0  0  0  0  0  0  0  0  0
  139.3810   75.6460  221.0460 C   0  0  0  0  0  0  0  0  0  0  0  0
  138.8130   76.6930  221.4610 O   0  0  0  0  0  0  0  0  0  0  0  0
  140.7550   75.7690  220.6940 N   0  0  0  0  0  0  0  0  0  0  0  0
  141.6300   74.6490  220.9700 C   0  0  0  0  0  0  0  0  0  0  0  0
  142.7850   74.5130  220.0360 C   0  0  0  0  0  0  0  0  0  0  0  0
  143.3890   75.8600  219.7040 C   0  0  0  0  0  0  0  0  0  0  0  0
  142.3710   76.8050  219.1370 C   0  0  0  0  0  0  0  0  0  0  0  0
  141.1950   77.0060  220.0810 C   0  0  2  0  0  0  0  0  0  0  0  0
  141.4840   78.0810  221.0700 C   0  0  0  0  0  0  0  0  0  0  0  0
  141.4290   77.8840  222.4340 C   0  0  0  0  0  0  0  0  0  0  0  0
  141.6960   78.8730  223.3560 C   0  0  0  0  0  0  0  0  0  0  0  0
  142.0390   80.1390  222.9300 C   0  0  0  0  0  0  0  0  0  0  0  0
  142.4040   81.4940  224.2160 Br  0  0  0  0  0  0  0  0  0  0  0  0
  142.1030   80.3750  221.5740 C   0  0  0  0  0  0  0  0  0  0  0  0
  141.8330   79.3750  220.6640 C   0  0  0  0  0  0  0  0  0  0  0  0
  139.7600   71.4850  223.1830 C   0  0  0  0  0  0  0  0  0  0  0  0
  139.3970   70.1520  223.1030 C   0  0  0  0  0  0  0  0  0  0  0  0
  139.5460   69.2670  224.1440 C   0  0  0  0  0  0  0  0  0  0  0  0
  140.0880   69.7530  225.3150 C   0  0  0  0  0  0  0  0  0  0  0  0
  140.2400   68.8760  226.3550 C   0  0  0  0  0  0  0  0  0  0  0  0
  140.7770   69.3150  227.5470 C   0  0  0  0  0  0  0  0  0  0  0  0
  140.9620   68.1790  228.8640 Cl  0  0  0  0  0  0  0  0  0  0  0  0
  141.1420   70.6410  227.6380 C   0  0  0  0  0  0  0  0  0  0  0  0
  140.9840   71.5190  226.5790 C   0  0  0  0  0  0  0  0  0  0  0  0
  140.4440   71.0820  225.3740 C   0  0  0  0  0  0  0  0  0  0  0  0
  140.2850   71.9260  224.3400 N   0  0  0  0  0  0  0  0  0  0  0  0
  138.4170   73.8350  223.0470 H   0  0  0  0  0  0  0  0  0  0  0  0
  139.0637   73.7837  220.0700 H   0  0  0  0  0  0  0  0  0  0  0  0
  137.5879   74.5466  220.7828 H   0  0  0  0  0  0  0  0  0  0  0  0
  142.0262   74.7673  221.9893 H   0  0  0  0  0  0  0  0  0  0  0  0
  141.0210   73.7417  220.8438 H   0  0  0  0  0  0  0  0  0  0  0  0
  143.5536   73.8825  220.5069 H   0  0  0  0  0  0  0  0  0  0  0  0
  142.4233   74.0566  219.1028 H   0  0  0  0  0  0  0  0  0  0  0  0
  143.8082   76.2978  220.6219 H   0  0  0  0  0  0  0  0  0  0  0  0
  144.1706   75.7056  218.9455 H   0  0  0  0  0  0  0  0  0  0  0  0
  142.8513   77.7778  218.9552 H   0  0  0  0  0  0  0  0  0  0  0  0
  141.9870   76.3712  218.2019 H   0  0  0  0  0  0  0  0  0  0  0  0
  140.3395   77.3463  219.4791 H   0  0  0  0  0  0  0  0  0  0  0  0
  141.1577   76.8848  222.8056 H   0  0  0  0  0  0  0  0  0  0  0  0
  141.6355   78.6525  224.4320 H   0  0  0  0  0  0  0  0  0  0  0  0
  142.3739   81.3776  221.2116 H   0  0  0  0  0  0  0  0  0  0  0  0
  141.8934   79.5999  219.5889 H   0  0  0  0  0  0  0  0  0  0  0  0
  138.9681   69.7825  222.1598 H   0  0  0  0  0  0  0  0  0  0  0  0
  139.2450   68.2135  224.0469 H   0  0  0  0  0  0  0  0  0  0  0  0
  139.9351   67.8253  226.2404 H   0  0  0  0  0  0  0  0  0  0  0  0
  141.5716   71.0128  228.5799 H   0  0  0  0  0  0  0  0  0  0  0  0
  141.2879   72.5702  226.6916 H   0  0  0  0  0  0  0  0  0  0  0  0
  1  2  2  0
  2  3  1  0
  3  4  1  0
  4  5  1  0
  5  6  2  0
  5  7  1  0
  7  8  1  0
  8  9  1  0
  9 10  1  0
 10 11  1  0
 11 12  1  0
 12 13  1  0
 13 14  2  0
 14 15  1  0
 15 16  2  0
 16 17  1  0
 16 18  1  0
 18 19  2  0
  2 20  1  0
 20 21  2  0
 21 22  1  0
 22 23  2  0
 23 24  1  0
 24 25  2  0
 25 26  1  0
 25 27  1  0
 27 28  2  0
 28 29  1  0
 29 30  2  0
 12  7  1  0
 19 13  1  0
 30 20  1  0
 29 23  1  0
  3 31  1  0
  4 32  1  0
  4 33  1  0
  8 34  1  0
  8 35  1  0
  9 36  1  0
  9 37  1  0
 10 38  1  0
 10 39  1  0
 11 40  1  0
 11 41  1  0
 12 42  1  6
 14 43  1  0
 15 44  1  0
 18 45  1  0
 19 46  1  0
 21 47  1  0
 22 48  1  0
 24 49  1  0
 27 50  1  0
 28 51  1  0
M  END
>  <smiles>  (35) 
O=C(NCC(=O)N1CCCCC1c1ccc(Br)cc1)c1ccc2cc(Cl)ccc2n1

>  <score_type>  (35) 
oracle

>  <origin>  (35) 
autodockgpu

>  <m_score__min__energy>  (35) 
-9.4900000000000002

>  <m_primary>  (35) 
energy

>  <rmsd>  (35) 
1.9886127634589439

>  <m_score__min__rmsd>  (35) 
1.9886127634589439

>  <meeko>  (35) 
{"free_energy": -9.45, "intermolecular_energy": -10.94, "internal_energy": -1.56, "cluster_size": 29, "cluster_id": 1, "rank_in_cluster": 3}

>  <energy>  (35) 
-8.53

>  <cluster_rmsd>  (35) 
0.09

>  <cluster>  (35) 
3

$$$$

     RDKit          3D

 51 54  0  0  0  0  0  0  0  0999 V2000
  136.7870   77.4030  222.8100 O   0  0  0  0  0  0  0  0  0  0  0  0
  136.7830   76.1720  223.1090 C   0  0  0  0  0  0  0  0  0  0  0  0
  137.8130   75.3460  222.5790 N   0  0  0  0  0  0  0  0  0  0  0  0
  138.8010   75.9730  221.7300 C   0  0  0  0  0  0  0  0  0  0  0  0
  140.0040   75.1000  221.5690 C   0  0  0  0  0  0  0  0  0  0  0  0
  140.0510   73.9280  222.0340 O   0  0  0  0  0  0  0  0  0  0  0  0
  141.1630   75.5530  220.8780 N   0  0  0  0  0  0  0  0  0  0  0  0
  142.3170   74.6780  220.8400 C   0  0  0  0  0  0  0  0  0  0  0  0
  143.1740   74.8270  219.6290 C   0  0  0  0  0  0  0  0  0  0  0  0
  143.3360   76.2800  219.2400 C   0  0  0  0  0  0  0  0  0  0  0  0
  142.0110   76.9510  219.0240 C   0  0  0  0  0  0  0  0  0  0  0  0
  141.1210   76.8600  220.2550 C   0  0  2  0  0  0  0  0  0  0  0  0
  141.4080   77.9720  221.2030 C   0  0  0  0  0  0  0  0  0  0  0  0
  141.8200   79.2230  220.7930 C   0  0  0  0  0  0  0  0  0  0  0  0
  142.0860   80.2580  221.6640 C   0  0  0  0  0  0  0  0  0  0  0  0
  141.9440   80.0710  223.0230 C   0  0  0  0  0  0  0  0  0  0  0  0
  142.3150   81.5100  224.2120 Br  0  0  0  0  0  0  0  0  0  0  0  0
  141.5340   78.8340  223.4700 C   0  0  0  0  0  0  0  0  0  0  0  0
  141.2710   77.8080  222.5870 C   0  0  0  0  0  0  0  0  0  0  0  0
  135.7520   75.6100  223.9740 C   0  0  0  0  0  0  0  0  0  0  0  0
  134.8500   76.4690  224.5760 C   0  0  0  0  0  0  0  0  0  0  0  0
  133.8430   76.0400  225.4070 C   0  0  0  0  0  0  0  0  0  0  0  0
  133.7460   74.6840  225.6370 C   0  0  0  0  0  0  0  0  0  0  0  0
  132.7440   74.2520  226.4630 C   0  0  0  0  0  0  0  0  0  0  0  0
  132.6060   72.9040  226.7240 C   0  0  0  0  0  0  0  0  0  0  0  0
  131.3200   72.3720  227.7830 Cl  0  0  0  0  0  0  0  0  0  0  0  0
  133.5000   72.0390  226.1290 C   0  0  0  0  0  0  0  0  0  0  0  0
  134.5090   72.4890  225.2940 C   0  0  0  0  0  0  0  0  0  0  0  0
  134.6530   73.8460  225.0270 C   0  0  0  0  0  0  0  0  0  0  0  0
  135.6300   74.2940  224.2190 N   0  0  0  0  0  0  0  0  0  0  0  0
  137.8360   74.3270  222.8090 H   0  0  0  0  0  0  0  0  0  0  0  0
  138.3579   76.1601  220.7407 H   0  0  0  0  0  0  0  0  0  0  0  0
  139.1149   76.9177  222.1979 H   0  0  0  0  0  0  0  0  0  0  0  0
  142.9354   74.8883  221.7250 H   0  0  0  0  0  0  0  0  0  0  0  0
  141.9261   73.6500  220.8186 H   0  0  0  0  0  0  0  0  0  0  0  0
  144.1660   74.4003  219.8384 H   0  0  0  0  0  0  0  0  0  0  0  0
  142.6885   74.2985  218.7953 H   0  0  0  0  0  0  0  0  0  0  0  0
  143.8744   76.8054  220.0426 H   0  0  0  0  0  0  0  0  0  0  0  0
  143.8973   76.3200  218.2948 H   0  0  0  0  0  0  0  0  0  0  0  0
  142.1838   78.0113  218.7878 H   0  0  0  0  0  0  0  0  0  0  0  0
  141.5003   76.4380  218.1957 H   0  0  0  0  0  0  0  0  0  0  0  0
  140.0798   76.9837  219.9223 H   0  0  0  0  0  0  0  0  0  0  0  0
  141.9427   79.4042  219.7150 H   0  0  0  0  0  0  0  0  0  0  0  0
  142.4118   81.2339  221.2747 H   0  0  0  0  0  0  0  0  0  0  0  0
  141.4144   78.6618  224.5498 H   0  0  0  0  0  0  0  0  0  0  0  0
  140.9446   76.8340  222.9805 H   0  0  0  0  0  0  0  0  0  0  0  0
  134.9433   77.5474  224.3801 H   0  0  0  0  0  0  0  0  0  0  0  0
  133.1422   76.7502  225.8702 H   0  0  0  0  0  0  0  0  0  0  0  0
  132.0516   74.9762  226.9169 H   0  0  0  0  0  0  0  0  0  0  0  0
  133.4090   70.9601  226.3233 H   0  0  0  0  0  0  0  0  0  0  0  0
  135.2024   71.7669  224.8382 H   0  0  0  0  0  0  0  0  0  0  0  0
  1  2  2  0
  2  3  1  0
  3  4  1  0
  4  5  1  0
  5  6  2  0
  5  7  1  0
  7  8  1  0
  8  9  1  0
  9 10  1  0
 10 11  1  0
 11 12  1  0
 12 13  1  0
 13 14  2  0
 14 15  1  0
 15 16  2  0
 16 17  1  0
 16 18  1  0
 18 19  2  0
  2 20  1  0
 20 21  2  0
 21 22  1  0
 22 23  2  0
 23 24  1  0
 24 25  2  0
 25 26  1  0
 25 27  1  0
 27 28  2  0
 28 29  1  0
 29 30  2  0
 12  7  1  0
 19 13  1  0
 30 20  1  0
 29 23  1  0
  3 31  1  0
  4 32  1  0
  4 33  1  0
  8 34  1  0
  8 35  1  0
  9 36  1  0
  9 37  1  0
 10 38  1  0
 10 39  1  0
 11 40  1  0
 11 41  1  0
 12 42  1  6
 14 43  1  0
 15 44  1  0
 18 45  1  0
 19 46  1  0
 21 47  1  0
 22 48  1  0
 24 49  1  0
 27 50  1  0
 28 51  1  0
M  END
>  <smiles>  (36) 
O=C(NCC(=O)N1CCCCC1c1ccc(Br)cc1)c1ccc2cc(Cl)ccc2n1

>  <score_type>  (36) 
oracle

>  <origin>  (36) 
autodockgpu

>  <m_score__min__energy>  (36) 
-9.4900000000000002

>  <m_primary>  (36) 
energy

>  <rmsd>  (36) 
5.860063418207746

>  <m_score__min__rmsd>  (36) 
5.860063418207746

>  <meeko>  (36) 
{"free_energy": -8.53, "intermolecular_energy": -10.02, "internal_energy": -1.88, "cluster_size": 5, "cluster_id": 3, "rank_in_cluster": 5}

>  <energy>  (36) 
-8.36

>  <cluster_rmsd>  (36) 
0.0

>  <cluster>  (36) 
4

$$$$

     RDKit          3D

 51 54  0  0  0  0  0  0  0  0999 V2000
  138.3560   72.4870  221.2520 O   0  0  0  0  0  0  0  0  0  0  0  0
  139.4870   72.3310  221.7990 C   0  0  0  0  0  0  0  0  0  0  0  0
  140.6090   72.9980  221.2320 N   0  0  0  0  0  0  0  0  0  0  0  0
  140.3780   73.8140  220.0610 C   0  0  0  0  0  0  0  0  0  0  0  0
  140.4160   75.2690  220.4030 C   0  0  0  0  0  0  0  0  0  0  0  0
  141.4680   75.9580  220.2960 O   0  0  0  0  0  0  0  0  0  0  0  0
  139.2580   75.9530  220.8700 N   0  0  0  0  0  0  0  0  0  0  0  0
  138.2360   76.2960  219.9040 C   0  0  0  0  0  0  0  0  0  0  0  0
  136.8500   76.3510  220.4530 C   0  0  0  0  0  0  0  0  0  0  0  0
  136.8220   76.9980  221.8200 C   0  0  0  0  0  0  0  0  0  0  0  0
  137.7360   76.3040  222.7870 C   0  0  0  0  0  0  0  0  0  0  0  0
  139.1710   76.2650  222.2820 C   0  0  2  0  0  0  0  0  0  0  0  0
  139.9000   77.5090  222.6550 C   0  0  0  0  0  0  0  0  0  0  0  0
  139.2940   78.7470  222.7170 C   0  0  0  0  0  0  0  0  0  0  0  0
  139.9610   79.9030  223.0620 C   0  0  0  0  0  0  0  0  0  0  0  0
  141.3050   79.8590  223.3680 C   0  0  0  0  0  0  0  0  0  0  0  0
  142.2110   81.4650  223.8420 Br  0  0  0  0  0  0  0  0  0  0  0  0
  141.9450   78.6400  223.3160 C   0  0  0  0  0  0  0  0  0  0  0  0
  141.2650   77.4920  222.9690 C   0  0  0  0  0  0  0  0  0  0  0  0
  139.6430   71.4910  222.9810 C   0  0  0  0  0  0  0  0  0  0  0  0
  139.1410   70.2030  222.9510 C   0  0  0  0  0  0  0  0  0  0  0  0
  139.2360   69.3330  224.0110 C   0  0  0  0  0  0  0  0  0  0  0  0
  139.8680   69.7880  225.1490 C   0  0  0  0  0  0  0  0  0  0  0  0
  139.9660   68.9260  226.2070 C   0  0  0  0  0  0  0  0  0  0  0  0
  140.5890   69.3350  227.3670 C   0  0  0  0  0  0  0  0  0  0  0  0
  140.7040   68.2190  228.7090 Cl  0  0  0  0  0  0  0  0  0  0  0  0
  141.0940   70.6170  227.4080 C   0  0  0  0  0  0  0  0  0  0  0  0
  140.9890   71.4810  226.3310 C   0  0  0  0  0  0  0  0  0  0  0  0
  140.3620   71.0740  225.1580 C   0  0  0  0  0  0  0  0  0  0  0  0
  140.2530   71.9040  224.1060 N   0  0  0  0  0  0  0  0  0  0  0  0
  141.5550   72.8890  221.6620 H   0  0  0  0  0  0  0  0  0  0  0  0
  141.1571   73.5999  219.3145 H   0  0  0  0  0  0  0  0  0  0  0  0
  139.3821   73.5753  219.6596 H   0  0  0  0  0  0  0  0  0  0  0  0
  138.4780   77.2843  219.4860 H   0  0  0  0  0  0  0  0  0  0  0  0
  138.2395   75.4939  219.1513 H   0  0  0  0  0  0  0  0  0  0  0  0
  136.2169   76.9342  219.7682 H   0  0  0  0  0  0  0  0  0  0  0  0
  136.4755   75.3213  220.5501 H   0  0  0  0  0  0  0  0  0  0  0  0
  137.1375   78.0473  221.7232 H   0  0  0  0  0  0  0  0  0  0  0  0
  135.7959   76.9264  222.2098 H   0  0  0  0  0  0  0  0  0  0  0  0
  137.7112   76.8400  223.7473 H   0  0  0  0  0  0  0  0  0  0  0  0
  137.3867   75.2674  222.9028 H   0  0  0  0  0  0  0  0  0  0  0  0
  139.6791   75.4313  222.7887 H   0  0  0  0  0  0  0  0  0  0  0  0
  138.2223   78.8151  222.4786 H   0  0  0  0  0  0  0  0  0  0  0  0
  139.4211   80.8609  223.0932 H   0  0  0  0  0  0  0  0  0  0  0  0
  143.0170   78.5817  223.5555 H   0  0  0  0  0  0  0  0  0  0  0  0
  141.8092   76.5366  222.9379 H   0  0  0  0  0  0  0  0  0  0  0  0
  138.6412   69.8576  222.0340 H   0  0  0  0  0  0  0  0  0  0  0  0
  138.8243   68.3146  223.9537 H   0  0  0  0  0  0  0  0  0  0  0  0
  139.5494   67.9107  226.1324 H   0  0  0  0  0  0  0  0  0  0  0  0
  141.5953   70.9640  228.3236 H   0  0  0  0  0  0  0  0  0  0  0  0
  141.4046   72.4969  226.4036 H   0  0  0  0  0  0  0  0  0  0  0  0
  1  2  2  0
  2  3  1  0
  3  4  1  0
  4  5  1  0
  5  6  2  0
  5  7  1  0
  7  8  1  0
  8  9  1  0
  9 10  1  0
 10 11  1  0
 11 12  1  0
 12 13  1  0
 13 14  2  0
 14 15  1  0
 15 16  2  0
 16 17  1  0
 16 18  1  0
 18 19  2  0
  2 20  1  0
 20 21  2  0
 21 22  1  0
 22 23  2  0
 23 24  1  0
 24 25  2  0
 25 26  1  0
 25 27  1  0
 27 28  2  0
 28 29  1  0
 29 30  2  0
 12  7  1  0
 19 13  1  0
 30 20  1  0
 29 23  1  0
  3 31  1  0
  4 32  1  0
  4 33  1  0
  8 34  1  0
  8 35  1  0
  9 36  1  0
  9 37  1  0
 10 38  1  0
 10 39  1  0
 11 40  1  0
 11 41  1  0
 12 42  1  1
 14 43  1  0
 15 44  1  0
 18 45  1  0
 19 46  1  0
 21 47  1  0
 22 48  1  0
 24 49  1  0
 27 50  1  0
 28 51  1  0
M  END
>  <smiles>  (37) 
O=C(NCC(=O)N1CCCCC1c1ccc(Br)cc1)c1ccc2cc(Cl)ccc2n1

>  <score_type>  (37) 
oracle

>  <origin>  (37) 
autodockgpu

>  <m_score__min__energy>  (37) 
-9.4900000000000002

>  <m_primary>  (37) 
energy

>  <rmsd>  (37) 
2.864558706035865

>  <m_score__min__rmsd>  (37) 
2.864558706035865

>  <meeko>  (37) 
{"free_energy": -8.06, "intermolecular_energy": -9.55, "internal_energy": -1.71, "cluster_size": 29, "cluster_id": 1, "rank_in_cluster": 29}

>  <energy>  (37) 
-8.35

>  <cluster_rmsd>  (37) 
0.07

>  <cluster>  (37) 
4

$$$$

     RDKit          3D

 51 54  0  0  0  0  0  0  0  0999 V2000
  140.2010   72.0190  220.9880 O   0  0  0  0  0  0  0  0  0  0  0  0
  139.6410   72.3050  222.0880 C   0  0  0  0  0  0  0  0  0  0  0  0
  138.8400   73.4800  222.1520 N   0  0  0  0  0  0  0  0  0  0  0  0
  138.7220   74.2730  220.9480 C   0  0  0  0  0  0  0  0  0  0  0  0
  139.4280   75.5830  221.0960 C   0  0  0  0  0  0  0  0  0  0  0  0
  138.8520   76.6100  221.5470 O   0  0  0  0  0  0  0  0  0  0  0  0
  140.7960   75.7340  220.7310 N   0  0  0  0  0  0  0  0  0  0  0  0
  141.6980   74.6360  221.0070 C   0  0  0  0  0  0  0  0  0  0  0  0
  142.8480   74.5190  220.0640 C   0  0  0  0  0  0  0  0  0  0  0  0
  143.4200   75.8770  219.7190 C   0  0  0  0  0  0  0  0  0  0  0  0
  142.3760   76.7960  219.1540 C   0  0  0  0  0  0  0  0  0  0  0  0
  141.2040   76.9760  220.1070 C   0  0  2  0  0  0  0  0  0  0  0  0
  141.4770   78.0640  221.0870 C   0  0  0  0  0  0  0  0  0  0  0  0
  141.4440   77.8730  222.4520 C   0  0  0  0  0  0  0  0  0  0  0  0
  141.6970   78.8740  223.3660 C   0  0  0  0  0  0  0  0  0  0  0  0
  142.0020   80.1460  222.9300 C   0  0  0  0  0  0  0  0  0  0  0  0
  142.3470   81.5170  224.2040 Br  0  0  0  0  0  0  0  0  0  0  0  0
  142.0430   80.3750  221.5720 C   0  0  0  0  0  0  0  0  0  0  0  0
  141.7880   79.3640  220.6700 C   0  0  0  0  0  0  0  0  0  0  0  0
  139.8060   71.4550  223.2610 C   0  0  0  0  0  0  0  0  0  0  0  0
  139.3970   70.1360  223.1880 C   0  0  0  0  0  0  0  0  0  0  0  0
  139.5100   69.2540  224.2370 C   0  0  0  0  0  0  0  0  0  0  0  0
  140.0610   69.7310  225.4080 C   0  0  0  0  0  0  0  0  0  0  0  0
  140.1760   68.8560  226.4550 C   0  0  0  0  0  0  0  0  0  0  0  0
  140.7210   69.2860  227.6470 C   0  0  0  0  0  0  0  0  0  0  0  0
  140.8590   68.1540  228.9740 Cl  0  0  0  0  0  0  0  0  0  0  0  0
  141.1320   70.5990  227.7310 C   0  0  0  0  0  0  0  0  0  0  0  0
  141.0110   71.4740  226.6640 C   0  0  0  0  0  0  0  0  0  0  0  0
  140.4630   71.0470  225.4590 C   0  0  0  0  0  0  0  0  0  0  0  0
  140.3390   71.8880  224.4170 N   0  0  0  0  0  0  0  0  0  0  0  0
  138.3660   73.7410  223.0450 H   0  0  0  0  0  0  0  0  0  0  0  0
  139.1653   73.7187  220.1076 H   0  0  0  0  0  0  0  0  0  0  0  0
  137.6558   74.4693  220.7615 H   0  0  0  0  0  0  0  0  0  0  0  0
  142.1001   74.7703  222.0220 H   0  0  0  0  0  0  0  0  0  0  0  0
  141.1084   73.7145  220.8922 H   0  0  0  0  0  0  0  0  0  0  0  0
  143.6339   73.9081  220.5322 H   0  0  0  0  0  0  0  0  0  0  0  0
  142.4886   74.0491  219.1366 H   0  0  0  0  0  0  0  0  0  0  0  0
  143.8366   76.3297  220.6309 H   0  0  0  0  0  0  0  0  0  0  0  0
  144.1992   75.7352  218.9556 H   0  0  0  0  0  0  0  0  0  0  0  0
  142.8328   77.7782  218.9623 H   0  0  0  0  0  0  0  0  0  0  0  0
  141.9943   76.3484  218.2245 H   0  0  0  0  0  0  0  0  0  0  0  0
  140.3361   77.2928  219.5100 H   0  0  0  0  0  0  0  0  0  0  0  0
  141.2031   76.8692  222.8320 H   0  0  0  0  0  0  0  0  0  0  0  0
  141.6555   78.6576  224.4437 H   0  0  0  0  0  0  0  0  0  0  0  0
  142.2834   81.3822  221.2009 H   0  0  0  0  0  0  0  0  0  0  0  0
  141.8300   79.5847  219.5932 H   0  0  0  0  0  0  0  0  0  0  0  0
  138.9602   69.7749  222.2453 H   0  0  0  0  0  0  0  0  0  0  0  0
  139.1745   68.2104  224.1459 H   0  0  0  0  0  0  0  0  0  0  0  0
  139.8356   67.8157  226.3461 H   0  0  0  0  0  0  0  0  0  0  0  0
  141.5688   70.9626  228.6728 H   0  0  0  0  0  0  0  0  0  0  0  0
  141.3510   72.5147  226.7705 H   0  0  0  0  0  0  0  0  0  0  0  0
  1  2  2  0
  2  3  1  0
  3  4  1  0
  4  5  1  0
  5  6  2  0
  5  7  1  0
  7  8  1  0
  8  9  1  0
  9 10  1  0
 10 11  1  0
 11 12  1  0
 12 13  1  0
 13 14  2  0
 14 15  1  0
 15 16  2  0
 16 17  1  0
 16 18  1  0
 18 19  2  0
  2 20  1  0
 20 21  2  0
 21 22  1  0
 22 23  2  0
 23 24  1  0
 24 25  2  0
 25 26  1  0
 25 27  1  0
 27 28  2  0
 28 29  1  0
 29 30  2  0
 12  7  1  0
 19 13  1  0
 30 20  1  0
 29 23  1  0
  3 31  1  0
  4 32  1  0
  4 33  1  0
  8 34  1  0
  8 35  1  0
  9 36  1  0
  9 37  1  0
 10 38  1  0
 10 39  1  0
 11 40  1  0
 11 41  1  0
 12 42  1  6
 14 43  1  0
 15 44  1  0
 18 45  1  0
 19 46  1  0
 21 47  1  0
 22 48  1  0
 24 49  1  0
 27 50  1  0
 28 51  1  0
M  END
>  <smiles>  (38) 
O=C(NCC(=O)N1CCCCC1c1ccc(Br)cc1)c1ccc2cc(Cl)ccc2n1

>  <score_type>  (38) 
oracle

>  <origin>  (38) 
autodockgpu

>  <m_score__min__energy>  (38) 
-9.4900000000000002

>  <m_primary>  (38) 
energy

>  <rmsd>  (38) 
2.0029715360080367

>  <m_score__min__rmsd>  (38) 
2.0029715360080367

>  <meeko>  (38) 
{"free_energy": -9.49, "intermolecular_energy": -10.98, "internal_energy": -1.54, "cluster_size": 29, "cluster_id": 1, "rank_in_cluster": 1}

>  <energy>  (38) 
-8.26

>  <cluster_rmsd>  (38) 
0.49

>  <cluster>  (38) 
4

$$$$

     RDKit          3D

 51 54  0  0  0  0  0  0  0  0999 V2000
  138.4640   71.3530  220.9440 O   0  0  0  0  0  0  0  0  0  0  0  0
  138.7070   71.9080  222.0560 C   0  0  0  0  0  0  0  0  0  0  0  0
  138.6010   73.3240  222.1410 N   0  0  0  0  0  0  0  0  0  0  0  0
  138.2210   74.0380  220.9420 C   0  0  0  0  0  0  0  0  0  0  0  0
  139.0280   75.2860  220.7810 C   0  0  0  0  0  0  0  0  0  0  0  0
  138.4970   76.4300  220.7450 O   0  0  0  0  0  0  0  0  0  0  0  0
  140.4460   75.2430  220.6600 N   0  0  0  0  0  0  0  0  0  0  0  0
  141.1380   74.0850  221.1860 C   0  0  0  0  0  0  0  0  0  0  0  0
  142.4060   73.7420  220.4800 C   0  0  0  0  0  0  0  0  0  0  0  0
  143.2000   74.9830  220.1340 C   0  0  0  0  0  0  0  0  0  0  0  0
  142.3950   75.9500  219.3150 C   0  0  0  0  0  0  0  0  0  0  0  0
  141.1110   76.3600  220.0200 C   0  0  2  0  0  0  0  0  0  0  0  0
  141.3520   77.5060  220.9400 C   0  0  0  0  0  0  0  0  0  0  0  0
  141.1350   77.4380  222.3000 C   0  0  0  0  0  0  0  0  0  0  0  0
  141.3560   78.4940  223.1580 C   0  0  0  0  0  0  0  0  0  0  0  0
  141.8190   79.6970  222.6680 C   0  0  0  0  0  0  0  0  0  0  0  0
  142.1190   81.1450  223.8660 Br  0  0  0  0  0  0  0  0  0  0  0  0
  142.0470   79.8030  221.3140 C   0  0  0  0  0  0  0  0  0  0  0  0
  141.8210   78.7380  220.4670 C   0  0  0  0  0  0  0  0  0  0  0  0
  139.0860   71.1210  223.2240 C   0  0  0  0  0  0  0  0  0  0  0  0
  138.8040   69.7670  223.2310 C   0  0  0  0  0  0  0  0  0  0  0  0
  139.1190   68.9380  224.2820 C   0  0  0  0  0  0  0  0  0  0  0  0
  139.7470   69.5070  225.3700 C   0  0  0  0  0  0  0  0  0  0  0  0
  140.0630   68.6860  226.4190 C   0  0  0  0  0  0  0  0  0  0  0  0
  140.6920   69.2080  227.5300 C   0  0  0  0  0  0  0  0  0  0  0  0
  141.0880   68.1430  228.8600 Cl  0  0  0  0  0  0  0  0  0  0  0  0
  140.9780   70.5560  227.5330 C   0  0  0  0  0  0  0  0  0  0  0  0
  140.6530   71.3770  226.4660 C   0  0  0  0  0  0  0  0  0  0  0  0
  140.0190   70.8560  225.3420 C   0  0  0  0  0  0  0  0  0  0  0  0
  139.6980   71.6430  224.3010 N   0  0  0  0  0  0  0  0  0  0  0  0
  138.7950   73.8100  223.0460 H   0  0  0  0  0  0  0  0  0  0  0  0
  138.3856   73.3885  220.0696 H   0  0  0  0  0  0  0  0  0  0  0  0
  137.1597   74.3158  221.0220 H   0  0  0  0  0  0  0  0  0  0  0  0
  141.3758   74.2787  222.2424 H   0  0  0  0  0  0  0  0  0  0  0  0
  140.4623   73.2287  221.0440 H   0  0  0  0  0  0  0  0  0  0  0  0
  143.0150   73.0978  221.1313 H   0  0  0  0  0  0  0  0  0  0  0  0
  142.1511   73.2228  219.5444 H   0  0  0  0  0  0  0  0  0  0  0  0
  143.5107   75.4782  221.0658 H   0  0  0  0  0  0  0  0  0  0  0  0
  144.0729   74.6755  219.5394 H   0  0  0  0  0  0  0  0  0  0  0  0
  143.0011   76.8489  219.1291 H   0  0  0  0  0  0  0  0  0  0  0  0
  142.1222   75.4532  218.3723 H   0  0  0  0  0  0  0  0  0  0  0  0
  140.4057   76.7093  219.2516 H   0  0  0  0  0  0  0  0  0  0  0  0
  140.7662   76.4916  222.7223 H   0  0  0  0  0  0  0  0  0  0  0  0
  141.1629   78.3770  224.2346 H   0  0  0  0  0  0  0  0  0  0  0  0
  142.4157   80.7534  220.9008 H   0  0  0  0  0  0  0  0  0  0  0  0
  142.0144   78.8596  219.3910 H   0  0  0  0  0  0  0  0  0  0  0  0
  138.3035   69.3321  222.3533 H   0  0  0  0  0  0  0  0  0  0  0  0
  138.8798   67.8646  224.2559 H   0  0  0  0  0  0  0  0  0  0  0  0
  139.8164   67.6149  226.3760 H   0  0  0  0  0  0  0  0  0  0  0  0
  141.4794   70.9931  228.4091 H   0  0  0  0  0  0  0  0  0  0  0  0
  140.8978   72.4486  226.5073 H   0  0  0  0  0  0  0  0  0  0  0  0
  1  2  2  0
  2  3  1  0
  3  4  1  0
  4  5  1  0
  5  6  2  0
  5  7  1  0
  7  8  1  0
  8  9  1  0
  9 10  1  0
 10 11  1  0
 11 12  1  0
 12 13  1  0
 13 14  2  0
 14 15  1  0
 15 16  2  0
 16 17  1  0
 16 18  1  0
 18 19  2  0
  2 20  1  0
 20 21  2  0
 21 22  1  0
 22 23  2  0
 23 24  1  0
 24 25  2  0
 25 26  1  0
 25 27  1  0
 27 28  2  0
 28 29  1  0
 29 30  2  0
 12  7  1  0
 19 13  1  0
 30 20  1  0
 29 23  1  0
  3 31  1  0
  4 32  1  0
  4 33  1  0
  8 34  1  0
  8 35  1  0
  9 36  1  0
  9 37  1  0
 10 38  1  0
 10 39  1  0
 11 40  1  0
 11 41  1  0
 12 42  1  6
 14 43  1  0
 15 44  1  0
 18 45  1  0
 19 46  1  0
 21 47  1  0
 22 48  1  0
 24 49  1  0
 27 50  1  0
 28 51  1  0
M  END
>  <smiles>  (39) 
O=C(NCC(=O)N1CCCCC1c1ccc(Br)cc1)c1ccc2cc(Cl)ccc2n1

>  <score_type>  (39) 
oracle

>  <origin>  (39) 
autodockgpu

>  <m_score__min__energy>  (39) 
-9.4900000000000002

>  <m_primary>  (39) 
energy

>  <rmsd>  (39) 
2.0121744010292035

>  <m_score__min__rmsd>  (39) 
2.0121744010292035

>  <meeko>  (39) 
{"free_energy": -9.19, "intermolecular_energy": -10.68, "internal_energy": -1.6, "cluster_size": 29, "cluster_id": 1, "rank_in_cluster": 9}

>  <energy>  (39) 
-8.26

>  <cluster_rmsd>  (39) 
0.49

>  <cluster>  (39) 
4

$$$$

     RDKit          3D

 51 54  0  0  0  0  0  0  0  0999 V2000
  138.5280   71.5930  220.8770 O   0  0  0  0  0  0  0  0  0  0  0  0
  138.9140   72.1180  221.9630 C   0  0  0  0  0  0  0  0  0  0  0  0
  139.0060   73.5370  222.0310 N   0  0  0  0  0  0  0  0  0  0  0  0
  138.6500   74.2860  220.8470 C   0  0  0  0  0  0  0  0  0  0  0  0
  139.7070   74.1640  219.7960 C   0  0  0  0  0  0  0  0  0  0  0  0
  139.4280   73.9500  218.5840 O   0  0  0  0  0  0  0  0  0  0  0  0
  141.0890   74.2860  220.1150 N   0  0  0  0  0  0  0  0  0  0  0  0
  141.7120   73.2080  220.8550 C   0  0  0  0  0  0  0  0  0  0  0  0
  143.1660   73.0200  220.5800 C   0  0  0  0  0  0  0  0  0  0  0  0
  143.8830   74.3480  220.4620 C   0  0  0  0  0  0  0  0  0  0  0  0
  143.2640   75.2250  219.4130 C   0  0  0  0  0  0  0  0  0  0  0  0
  141.7880   75.4780  219.6820 C   0  0  2  0  0  0  0  0  0  0  0  0
  141.6050   76.6330  220.6030 C   0  0  0  0  0  0  0  0  0  0  0  0
  141.0760   76.5100  221.8700 C   0  0  0  0  0  0  0  0  0  0  0  0
  140.9050   77.5750  222.7290 C   0  0  0  0  0  0  0  0  0  0  0  0
  141.2690   78.8450  222.3360 C   0  0  0  0  0  0  0  0  0  0  0  0
  141.0250   80.3040  223.5330 Br  0  0  0  0  0  0  0  0  0  0  0  0
  141.8010   79.0080  221.0750 C   0  0  0  0  0  0  0  0  0  0  0  0
  141.9670   77.9330  220.2270 C   0  0  0  0  0  0  0  0  0  0  0  0
  139.2560   71.2960  223.1170 C   0  0  0  0  0  0  0  0  0  0  0  0
  138.9390   69.9500  223.0910 C   0  0  0  0  0  0  0  0  0  0  0  0
  139.2180   69.0900  224.1270 C   0  0  0  0  0  0  0  0  0  0  0  0
  139.8460   69.6180  225.2360 C   0  0  0  0  0  0  0  0  0  0  0  0
  140.1280   68.7670  226.2700 C   0  0  0  0  0  0  0  0  0  0  0  0
  140.7550   69.2480  227.4000 C   0  0  0  0  0  0  0  0  0  0  0  0
  141.1050   68.1440  228.7110 Cl  0  0  0  0  0  0  0  0  0  0  0  0
  141.0760   70.5880  227.4370 C   0  0  0  0  0  0  0  0  0  0  0  0
  140.7870   71.4400  226.3840 C   0  0  0  0  0  0  0  0  0  0  0  0
  140.1550   70.9610  225.2410 C   0  0  0  0  0  0  0  0  0  0  0  0
  139.8680   71.7790  224.2130 N   0  0  0  0  0  0  0  0  0  0  0  0
  139.3210   73.9980  222.9140 H   0  0  0  0  0  0  0  0  0  0  0  0
  137.7006   73.8988  220.4486 H   0  0  0  0  0  0  0  0  0  0  0  0
  138.5498   75.3466  221.1209 H   0  0  0  0  0  0  0  0  0  0  0  0
  141.5906   73.4148  221.9285 H   0  0  0  0  0  0  0  0  0  0  0  0
  141.2133   72.2820  220.5326 H   0  0  0  0  0  0  0  0  0  0  0  0
  143.6140   72.4434  221.4027 H   0  0  0  0  0  0  0  0  0  0  0  0
  143.2709   72.4844  219.6250 H   0  0  0  0  0  0  0  0  0  0  0  0
  143.8359   74.8653  221.4316 H   0  0  0  0  0  0  0  0  0  0  0  0
  144.9247   74.1491  220.1699 H   0  0  0  0  0  0  0  0  0  0  0  0
  143.7930   76.1893  219.3985 H   0  0  0  0  0  0  0  0  0  0  0  0
  143.3502   74.7102  218.4447 H   0  0  0  0  0  0  0  0  0  0  0  0
  141.3179   75.7534  218.7264 H   0  0  0  0  0  0  0  0  0  0  0  0
  140.7744   75.5096  222.2139 H   0  0  0  0  0  0  0  0  0  0  0  0
  140.4775   77.4108  223.7292 H   0  0  0  0  0  0  0  0  0  0  0  0
  142.0982   80.0125  220.7392 H   0  0  0  0  0  0  0  0  0  0  0  0
  142.3955   78.1011  219.2279 H   0  0  0  0  0  0  0  0  0  0  0  0
  138.4391   69.5477  222.1976 H   0  0  0  0  0  0  0  0  0  0  0  0
  138.9513   68.0242  224.0736 H   0  0  0  0  0  0  0  0  0  0  0  0
  139.8556   67.7036  226.2000 H   0  0  0  0  0  0  0  0  0  0  0  0
  141.5764   70.9926  228.3291 H   0  0  0  0  0  0  0  0  0  0  0  0
  141.0593   72.5036  226.4520 H   0  0  0  0  0  0  0  0  0  0  0  0
  1  2  2  0
  2  3  1  0
  3  4  1  0
  4  5  1  0
  5  6  2  0
  5  7  1  0
  7  8  1  0
  8  9  1  0
  9 10  1  0
 10 11  1  0
 11 12  1  0
 12 13  1  0
 13 14  2  0
 14 15  1  0
 15 16  2  0
 16 17  1  0
 16 18  1  0
 18 19  2  0
  2 20  1  0
 20 21  2  0
 21 22  1  0
 22 23  2  0
 23 24  1  0
 24 25  2  0
 25 26  1  0
 25 27  1  0
 27 28  2  0
 28 29  1  0
 29 30  2  0
 12  7  1  0
 19 13  1  0
 30 20  1  0
 29 23  1  0
  3 31  1  0
  4 32  1  0
  4 33  1  0
  8 34  1  0
  8 35  1  0
  9 36  1  0
  9 37  1  0
 10 38  1  0
 10 39  1  0
 11 40  1  0
 11 41  1  0
 12 42  1  6
 14 43  1  0
 15 44  1  0
 18 45  1  0
 19 46  1  0
 21 47  1  0
 22 48  1  0
 24 49  1  0
 27 50  1  0
 28 51  1  0
M  END
>  <smiles>  (40) 
O=C(NCC(=O)N1CCCCC1c1ccc(Br)cc1)c1ccc2cc(Cl)ccc2n1

>  <score_type>  (40) 
oracle

>  <origin>  (40) 
autodockgpu

>  <m_score__min__energy>  (40) 
-9.4900000000000002

>  <m_primary>  (40) 
energy

>  <rmsd>  (40) 
2.4447590952529152

>  <m_score__min__rmsd>  (40) 
2.4447590952529152

>  <meeko>  (40) 
{"free_energy": -8.85, "intermolecular_energy": -10.34, "internal_energy": -1.87, "cluster_size": 29, "cluster_id": 1, "rank_in_cluster": 18}

>  <energy>  (40) 
-8.25

>  <cluster_rmsd>  (40) 
0.27

>  <cluster>  (40) 
4

$$$$

     RDKit          3D

 51 54  0  0  0  0  0  0  0  0999 V2000
  140.3780   74.0400  220.5600 O   0  0  0  0  0  0  0  0  0  0  0  0
  139.8430   74.0060  221.7080 C   0  0  0  0  0  0  0  0  0  0  0  0
  139.3170   75.2150  222.2430 N   0  0  0  0  0  0  0  0  0  0  0  0
  139.4320   76.4080  221.4340 C   0  0  0  0  0  0  0  0  0  0  0  0
  139.0100   77.6210  222.2010 C   0  0  0  0  0  0  0  0  0  0  0  0
  137.8430   77.7500  222.6650 O   0  0  0  0  0  0  0  0  0  0  0  0
  139.9110   78.6940  222.4470 N   0  0  0  0  0  0  0  0  0  0  0  0
  141.1730   78.3890  223.0870 C   0  0  0  0  0  0  0  0  0  0  0  0
  142.2970   79.2980  222.7190 C   0  0  0  0  0  0  0  0  0  0  0  0
  141.8400   80.7380  222.6370 C   0  0  0  0  0  0  0  0  0  0  0  0
  140.6980   80.9080  221.6770 C   0  0  0  0  0  0  0  0  0  0  0  0
  139.5120   80.0280  222.0450 C   0  0  2  0  0  0  0  0  0  0  0  0
  138.6350   80.7040  223.0390 C   0  0  0  0  0  0  0  0  0  0  0  0
  138.5040   80.2750  224.3430 C   0  0  0  0  0  0  0  0  0  0  0  0
  137.6950   80.8960  225.2700 C   0  0  0  0  0  0  0  0  0  0  0  0
  136.9630   82.0080  224.9130 C   0  0  0  0  0  0  0  0  0  0  0  0
  135.8510   82.8540  226.2050 Br  0  0  0  0  0  0  0  0  0  0  0  0
  137.0670   82.4670  223.6180 C   0  0  0  0  0  0  0  0  0  0  0  0
  137.8810   81.8350  222.7010 C   0  0  0  0  0  0  0  0  0  0  0  0
  139.7640   72.7630  222.4650 C   0  0  0  0  0  0  0  0  0  0  0  0
  138.9930   71.7290  221.9660 C   0  0  0  0  0  0  0  0  0  0  0  0
  138.8530   70.5190  222.6030 C   0  0  0  0  0  0  0  0  0  0  0  0
  139.5230   70.3500  223.7960 C   0  0  0  0  0  0  0  0  0  0  0  0
  139.3880   69.1470  224.4340 C   0  0  0  0  0  0  0  0  0  0  0  0
  140.0380   68.9300  225.6300 C   0  0  0  0  0  0  0  0  0  0  0  0
  139.8530   67.3860  226.4310 Cl  0  0  0  0  0  0  0  0  0  0  0  0
  140.8090   69.9540  226.1380 C   0  0  0  0  0  0  0  0  0  0  0  0
  140.9390   71.1680  225.4830 C   0  0  0  0  0  0  0  0  0  0  0  0
  140.2860   71.3920  224.2760 C   0  0  0  0  0  0  0  0  0  0  0  0
  140.4040   72.5660  223.6320 N   0  0  0  0  0  0  0  0  0  0  0  0
  138.8690   75.2180  223.1870 H   0  0  0  0  0  0  0  0  0  0  0  0
  140.4788   76.5286  221.1184 H   0  0  0  0  0  0  0  0  0  0  0  0
  138.7743   76.3016  220.5587 H   0  0  0  0  0  0  0  0  0  0  0  0
  141.0276   78.4481  224.1758 H   0  0  0  0  0  0  0  0  0  0  0  0
  141.4608   77.3852  222.7413 H   0  0  0  0  0  0  0  0  0  0  0  0
  143.0869   79.2163  223.4801 H   0  0  0  0  0  0  0  0  0  0  0  0
  142.6743   78.9983  221.7301 H   0  0  0  0  0  0  0  0  0  0  0  0
  141.5170   81.0663  223.6359 H   0  0  0  0  0  0  0  0  0  0  0  0
  142.6836   81.3438  222.2747 H   0  0  0  0  0  0  0  0  0  0  0  0
  140.3773   81.9602  221.6884 H   0  0  0  0  0  0  0  0  0  0  0  0
  141.0460   80.6106  220.6768 H   0  0  0  0  0  0  0  0  0  0  0  0
  138.9106   79.8832  221.1354 H   0  0  0  0  0  0  0  0  0  0  0  0
  139.0755   79.3902  224.6601 H   0  0  0  0  0  0  0  0  0  0  0  0
  137.6334   80.5038  226.2959 H   0  0  0  0  0  0  0  0  0  0  0  0
  136.4912   83.3523  223.3102 H   0  0  0  0  0  0  0  0  0  0  0  0
  137.9396   82.2301  221.6761 H   0  0  0  0  0  0  0  0  0  0  0  0
  138.4660   71.8824  221.0127 H   0  0  0  0  0  0  0  0  0  0  0  0
  138.2311   69.7174  222.1778 H   0  0  0  0  0  0  0  0  0  0  0  0
  138.7630   68.3559  223.9940 H   0  0  0  0  0  0  0  0  0  0  0  0
  141.3364   69.8027  227.0914 H   0  0  0  0  0  0  0  0  0  0  0  0
  141.5635   71.9605  225.9211 H   0  0  0  0  0  0  0  0  0  0  0  0
  1  2  2  0
  2  3  1  0
  3  4  1  0
  4  5  1  0
  5  6  2  0
  5  7  1  0
  7  8  1  0
  8  9  1  0
  9 10  1  0
 10 11  1  0
 11 12  1  0
 12 13  1  0
 13 14  2  0
 14 15  1  0
 15 16  2  0
 16 17  1  0
 16 18  1  0
 18 19  2  0
  2 20  1  0
 20 21  2  0
 21 22  1  0
 22 23  2  0
 23 24  1  0
 24 25  2  0
 25 26  1  0
 25 27  1  0
 27 28  2  0
 28 29  1  0
 29 30  2  0
 12  7  1  0
 19 13  1  0
 30 20  1  0
 29 23  1  0
  3 31  1  0
  4 32  1  0
  4 33  1  0
  8 34  1  0
  8 35  1  0
  9 36  1  0
  9 37  1  0
 10 38  1  0
 10 39  1  0
 11 40  1  0
 11 41  1  0
 12 42  1  6
 14 43  1  0
 15 44  1  0
 18 45  1  0
 19 46  1  0
 21 47  1  0
 22 48  1  0
 24 49  1  0
 27 50  1  0
 28 51  1  0
M  END
>  <smiles>  (41) 
O=C(NCC(=O)N1CCCCC1c1ccc(Br)cc1)c1ccc2cc(Cl)ccc2n1

>  <score_type>  (41) 
oracle

>  <origin>  (41) 
autodockgpu

>  <m_score__min__energy>  (41) 
-9.4900000000000002

>  <m_primary>  (41) 
energy

>  <rmsd>  (41) 
4.070466224685011

>  <m_score__min__rmsd>  (41) 
4.070466224685011

>  <meeko>  (41) 
{"free_energy": -8.58, "intermolecular_energy": -10.07, "internal_energy": -1.41, "cluster_size": 1, "cluster_id": 2, "rank_in_cluster": 1}

>  <energy>  (41) 
-8.21

>  <cluster_rmsd>  (41) 
0.93

>  <cluster>  (41) 
4

$$$$

     RDKit          3D

 51 54  0  0  0  0  0  0  0  0999 V2000
  136.7910   77.3580  222.7350 O   0  0  0  0  0  0  0  0  0  0  0  0
  136.7650   76.1330  223.0530 C   0  0  0  0  0  0  0  0  0  0  0  0
  137.7630   75.2740  222.5110 N   0  0  0  0  0  0  0  0  0  0  0  0
  138.7430   75.8650  221.6280 C   0  0  0  0  0  0  0  0  0  0  0  0
  139.9990   75.0530  221.5990 C   0  0  0  0  0  0  0  0  0  0  0  0
  140.0930   73.9400  222.1850 O   0  0  0  0  0  0  0  0  0  0  0  0
  141.1570   75.5010  220.9030 N   0  0  0  0  0  0  0  0  0  0  0  0
  142.3080   74.6240  220.8660 C   0  0  0  0  0  0  0  0  0  0  0  0
  143.1630   74.7660  219.6510 C   0  0  0  0  0  0  0  0  0  0  0  0
  143.3260   76.2180  219.2560 C   0  0  0  0  0  0  0  0  0  0  0  0
  142.0010   76.8900  219.0410 C   0  0  0  0  0  0  0  0  0  0  0  0
  141.1150   76.8060  220.2750 C   0  0  2  0  0  0  0  0  0  0  0  0
  141.4060   77.9210  221.2170 C   0  0  0  0  0  0  0  0  0  0  0  0
  141.8250   79.1670  220.8020 C   0  0  0  0  0  0  0  0  0  0  0  0
  142.0950   80.2060  221.6680 C   0  0  0  0  0  0  0  0  0  0  0  0
  141.9500   80.0270  223.0270 C   0  0  0  0  0  0  0  0  0  0  0  0
  142.3280   81.4700  224.2090 Br  0  0  0  0  0  0  0  0  0  0  0  0
  141.5340   78.7940  223.4800 C   0  0  0  0  0  0  0  0  0  0  0  0
  141.2670   77.7650  222.6020 C   0  0  0  0  0  0  0  0  0  0  0  0
  135.7430   75.6090  223.9510 C   0  0  0  0  0  0  0  0  0  0  0  0
  134.8910   76.4990  224.5790 C   0  0  0  0  0  0  0  0  0  0  0  0
  133.8960   76.1080  225.4430 C   0  0  0  0  0  0  0  0  0  0  0  0
  133.7600   74.7560  225.6800 C   0  0  0  0  0  0  0  0  0  0  0  0
  132.7700   74.3600  226.5390 C   0  0  0  0  0  0  0  0  0  0  0  0
  132.5940   73.0190  226.8070 C   0  0  0  0  0  0  0  0  0  0  0  0
  131.3250   72.5330  227.9080 Cl  0  0  0  0  0  0  0  0  0  0  0  0
  133.4380   72.1220  226.1870 C   0  0  0  0  0  0  0  0  0  0  0  0
  134.4350   72.5340  225.3190 C   0  0  0  0  0  0  0  0  0  0  0  0
  134.6170   73.8860  225.0440 C   0  0  0  0  0  0  0  0  0  0  0  0
  135.5830   74.2980  224.2040 N   0  0  0  0  0  0  0  0  0  0  0  0
  137.7670   74.2580  222.7560 H   0  0  0  0  0  0  0  0  0  0  0  0
  138.3256   75.9179  220.6117 H   0  0  0  0  0  0  0  0  0  0  0  0
  138.9857   76.8719  221.9985 H   0  0  0  0  0  0  0  0  0  0  0  0
  142.9291   74.8368  221.7485 H   0  0  0  0  0  0  0  0  0  0  0  0
  141.9148   73.5968  220.8502 H   0  0  0  0  0  0  0  0  0  0  0  0
  144.1548   74.3385  219.8596 H   0  0  0  0  0  0  0  0  0  0  0  0
  142.6751   74.2344  218.8207 H   0  0  0  0  0  0  0  0  0  0  0  0
  143.8672   76.7457  220.0551 H   0  0  0  0  0  0  0  0  0  0  0  0
  143.8849   76.2538  218.3092 H   0  0  0  0  0  0  0  0  0  0  0  0
  142.1745   77.9490  218.7993 H   0  0  0  0  0  0  0  0  0  0  0  0
  141.4870   76.3739  218.2167 H   0  0  0  0  0  0  0  0  0  0  0  0
  140.0730   76.9305  219.9453 H   0  0  0  0  0  0  0  0  0  0  0  0
  141.9506   79.3419  219.7233 H   0  0  0  0  0  0  0  0  0  0  0  0
  142.4263   81.1781  221.2739 H   0  0  0  0  0  0  0  0  0  0  0  0
  141.4128   78.6278  224.5606 H   0  0  0  0  0  0  0  0  0  0  0  0
  140.9356   76.7946  223.0003 H   0  0  0  0  0  0  0  0  0  0  0  0
  135.0157   77.5731  224.3771 H   0  0  0  0  0  0  0  0  0  0  0  0
  133.2353   76.8432  225.9256 H   0  0  0  0  0  0  0  0  0  0  0  0
  132.1180   75.1084  227.0132 H   0  0  0  0  0  0  0  0  0  0  0  0
  133.3156   71.0474  226.3879 H   0  0  0  0  0  0  0  0  0  0  0  0
  135.0879   71.7873  224.8434 H   0  0  0  0  0  0  0  0  0  0  0  0
  1  2  2  0
  2  3  1  0
  3  4  1  0
  4  5  1  0
  5  6  2  0
  5  7  1  0
  7  8  1  0
  8  9  1  0
  9 10  1  0
 10 11  1  0
 11 12  1  0
 12 13  1  0
 13 14  2  0
 14 15  1  0
 15 16  2  0
 16 17  1  0
 16 18  1  0
 18 19  2  0
  2 20  1  0
 20 21  2  0
 21 22  1  0
 22 23  2  0
 23 24  1  0
 24 25  2  0
 25 26  1  0
 25 27  1  0
 27 28  2  0
 28 29  1  0
 29 30  2  0
 12  7  1  0
 19 13  1  0
 30 20  1  0
 29 23  1  0
  3 31  1  0
  4 32  1  0
  4 33  1  0
  8 34  1  0
  8 35  1  0
  9 36  1  0
  9 37  1  0
 10 38  1  0
 10 39  1  0
 11 40  1  0
 11 41  1  0
 12 42  1  6
 14 43  1  0
 15 44  1  0
 18 45  1  0
 19 46  1  0
 21 47  1  0
 22 48  1  0
 24 49  1  0
 27 50  1  0
 28 51  1  0
M  END
>  <smiles>  (42) 
O=C(NCC(=O)N1CCCCC1c1ccc(Br)cc1)c1ccc2cc(Cl)ccc2n1

>  <score_type>  (42) 
oracle

>  <origin>  (42) 
autodockgpu

>  <m_score__min__energy>  (42) 
-9.4900000000000002

>  <m_primary>  (42) 
energy

>  <rmsd>  (42) 
5.8740510861054895

>  <m_score__min__rmsd>  (42) 
5.8740510861054895

>  <meeko>  (42) 
{"free_energy": -8.55, "intermolecular_energy": -10.05, "internal_energy": -1.87, "cluster_size": 5, "cluster_id": 3, "rank_in_cluster": 1}

>  <energy>  (42) 
-8.2

>  <cluster_rmsd>  (42) 
0.95

>  <cluster>  (42) 
4

$$$$

     RDKit          3D

 51 54  0  0  0  0  0  0  0  0999 V2000
  138.4460   71.3650  220.9860 O   0  0  0  0  0  0  0  0  0  0  0  0
  138.7110   71.9180  222.0940 C   0  0  0  0  0  0  0  0  0  0  0  0
  138.6160   73.3350  222.1810 N   0  0  0  0  0  0  0  0  0  0  0  0
  138.2210   74.0510  220.9880 C   0  0  0  0  0  0  0  0  0  0  0  0
  139.0200   75.3040  220.8240 C   0  0  0  0  0  0  0  0  0  0  0  0
  138.4830   76.4460  220.8070 O   0  0  0  0  0  0  0  0  0  0  0  0
  140.4350   75.2690  220.6800 N   0  0  0  0  0  0  0  0  0  0  0  0
  141.1420   74.1130  221.1910 C   0  0  0  0  0  0  0  0  0  0  0  0
  142.4000   73.7770  220.4640 C   0  0  0  0  0  0  0  0  0  0  0  0
  143.1820   75.0230  220.1070 C   0  0  0  0  0  0  0  0  0  0  0  0
  142.3590   75.9880  219.3040 C   0  0  0  0  0  0  0  0  0  0  0  0
  141.0850   76.3900  220.0320 C   0  0  2  0  0  0  0  0  0  0  0  0
  141.3350   77.5350  220.9500 C   0  0  0  0  0  0  0  0  0  0  0  0
  141.1450   77.4620  222.3140 C   0  0  0  0  0  0  0  0  0  0  0  0
  141.3760   78.5170  223.1710 C   0  0  0  0  0  0  0  0  0  0  0  0
  141.8200   79.7250  222.6750 C   0  0  0  0  0  0  0  0  0  0  0  0
  142.1320   81.1720  223.8720 Br  0  0  0  0  0  0  0  0  0  0  0  0
  142.0190   79.8360  221.3170 C   0  0  0  0  0  0  0  0  0  0  0  0
  141.7850   78.7720  220.4720 C   0  0  0  0  0  0  0  0  0  0  0  0
  139.1030   71.1280  223.2550 C   0  0  0  0  0  0  0  0  0  0  0  0
  138.8270   69.7730  223.2600 C   0  0  0  0  0  0  0  0  0  0  0  0
  139.1540   68.9410  224.3050 C   0  0  0  0  0  0  0  0  0  0  0  0
  139.7910   69.5090  225.3890 C   0  0  0  0  0  0  0  0  0  0  0  0
  140.1210   68.6850  226.4320 C   0  0  0  0  0  0  0  0  0  0  0  0
  140.7580   69.2060  227.5390 C   0  0  0  0  0  0  0  0  0  0  0  0
  141.1710   68.1380  228.8610 Cl  0  0  0  0  0  0  0  0  0  0  0  0
  141.0390   70.5550  227.5440 C   0  0  0  0  0  0  0  0  0  0  0  0
  140.7010   71.3780  226.4830 C   0  0  0  0  0  0  0  0  0  0  0  0
  140.0580   70.8590  225.3640 C   0  0  0  0  0  0  0  0  0  0  0  0
  139.7250   71.6490  224.3280 N   0  0  0  0  0  0  0  0  0  0  0  0
  138.8290   73.8190  223.0820 H   0  0  0  0  0  0  0  0  0  0  0  0
  138.3810   73.4054  220.1118 H   0  0  0  0  0  0  0  0  0  0  0  0
  137.1590   74.3228  221.0787 H   0  0  0  0  0  0  0  0  0  0  0  0
  141.3962   74.3053  222.2438 H   0  0  0  0  0  0  0  0  0  0  0  0
  140.4682   73.2539  221.0569 H   0  0  0  0  0  0  0  0  0  0  0  0
  143.0227   73.1350  221.1044 H   0  0  0  0  0  0  0  0  0  0  0  0
  142.1327   73.2575  219.5320 H   0  0  0  0  0  0  0  0  0  0  0  0
  143.5061   75.5177  221.0345 H   0  0  0  0  0  0  0  0  0  0  0  0
  144.0459   74.7208  219.4967 H   0  0  0  0  0  0  0  0  0  0  0  0
  142.9576   76.8903  219.1101 H   0  0  0  0  0  0  0  0  0  0  0  0
  142.0728   75.4924  218.3646 H   0  0  0  0  0  0  0  0  0  0  0  0
  140.3658   76.7374  219.2757 H   0  0  0  0  0  0  0  0  0  0  0  0
  140.7905   76.5121  222.7406 H   0  0  0  0  0  0  0  0  0  0  0  0
  141.2061   78.3953  224.2510 H   0  0  0  0  0  0  0  0  0  0  0  0
  142.3709   80.7906  220.8989 H   0  0  0  0  0  0  0  0  0  0  0  0
  141.9565   78.8982  219.3928 H   0  0  0  0  0  0  0  0  0  0  0  0
  138.3209   69.3393  222.3849 H   0  0  0  0  0  0  0  0  0  0  0  0
  138.9175   67.8671  224.2777 H   0  0  0  0  0  0  0  0  0  0  0  0
  139.8792   67.6128  226.3871 H   0  0  0  0  0  0  0  0  0  0  0  0
  141.5469   70.9910  228.4168 H   0  0  0  0  0  0  0  0  0  0  0  0
  140.9428   72.4503  226.5253 H   0  0  0  0  0  0  0  0  0  0  0  0
  1  2  2  0
  2  3  1  0
  3  4  1  0
  4  5  1  0
  5  6  2  0
  5  7  1  0
  7  8  1  0
  8  9  1  0
  9 10  1  0
 10 11  1  0
 11 12  1  0
 12 13  1  0
 13 14  2  0
 14 15  1  0
 15 16  2  0
 16 17  1  0
 16 18  1  0
 18 19  2  0
  2 20  1  0
 20 21  2  0
 21 22  1  0
 22 23  2  0
 23 24  1  0
 24 25  2  0
 25 26  1  0
 25 27  1  0
 27 28  2  0
 28 29  1  0
 29 30  2  0
 12  7  1  0
 19 13  1  0
 30 20  1  0
 29 23  1  0
  3 31  1  0
  4 32  1  0
  4 33  1  0
  8 34  1  0
  8 35  1  0
  9 36  1  0
  9 37  1  0
 10 38  1  0
 10 39  1  0
 11 40  1  0
 11 41  1  0
 12 42  1  6
 14 43  1  0
 15 44  1  0
 18 45  1  0
 19 46  1  0
 21 47  1  0
 22 48  1  0
 24 49  1  0
 27 50  1  0
 28 51  1  0
M  END
>  <smiles>  (43) 
O=C(NCC(=O)N1CCCCC1c1ccc(Br)cc1)c1ccc2cc(Cl)ccc2n1

>  <score_type>  (43) 
oracle

>  <origin>  (43) 
autodockgpu

>  <m_score__min__energy>  (43) 
-9.4900000000000002

>  <m_primary>  (43) 
energy

>  <rmsd>  (43) 
2.0028174706168844

>  <m_score__min__rmsd>  (43) 
2.0028174706168844

>  <meeko>  (43) 
{"free_energy": -9.21, "intermolecular_energy": -10.7, "internal_energy": -1.59, "cluster_size": 29, "cluster_id": 1, "rank_in_cluster": 8}

>  <energy>  (43) 
-8.33

>  <cluster_rmsd>  (43) 
0.0

>  <cluster>  (43) 
5

$$$$

     RDKit          3D

 51 54  0  0  0  0  0  0  0  0999 V2000
  136.6860   77.2170  222.4970 O   0  0  0  0  0  0  0  0  0  0  0  0
  136.6990   76.0190  222.9090 C   0  0  0  0  0  0  0  0  0  0  0  0
  137.7260   75.1550  222.4360 N   0  0  0  0  0  0  0  0  0  0  0  0
  138.6900   75.7080  221.5110 C   0  0  0  0  0  0  0  0  0  0  0  0
  139.9950   74.9840  221.5980 C   0  0  0  0  0  0  0  0  0  0  0  0
  140.1420   73.9440  222.2970 O   0  0  0  0  0  0  0  0  0  0  0  0
  141.1440   75.4360  220.8890 N   0  0  0  0  0  0  0  0  0  0  0  0
  142.3000   74.5650  220.8430 C   0  0  0  0  0  0  0  0  0  0  0  0
  143.1420   74.7080  219.6200 C   0  0  0  0  0  0  0  0  0  0  0  0
  143.2930   76.1590  219.2190 C   0  0  0  0  0  0  0  0  0  0  0  0
  141.9630   76.8240  219.0150 C   0  0  0  0  0  0  0  0  0  0  0  0
  141.0900   76.7390  220.2580 C   0  0  2  0  0  0  0  0  0  0  0  0
  141.3840   77.8580  221.1940 C   0  0  0  0  0  0  0  0  0  0  0  0
  141.8160   79.0980  220.7730 C   0  0  0  0  0  0  0  0  0  0  0  0
  142.0890   80.1400  221.6330 C   0  0  0  0  0  0  0  0  0  0  0  0
  141.9340   79.9720  222.9920 C   0  0  0  0  0  0  0  0  0  0  0  0
  142.3160   81.4210  224.1670 Br  0  0  0  0  0  0  0  0  0  0  0  0
  141.5050   78.7460  223.4510 C   0  0  0  0  0  0  0  0  0  0  0  0
  141.2350   77.7130  222.5790 C   0  0  0  0  0  0  0  0  0  0  0  0
  135.6920   75.5330  223.8440 C   0  0  0  0  0  0  0  0  0  0  0  0
  134.8930   76.4530  224.4970 C   0  0  0  0  0  0  0  0  0  0  0  0
  133.9160   76.0980  225.3970 C   0  0  0  0  0  0  0  0  0  0  0  0
  133.7410   74.7520  225.6420 C   0  0  0  0  0  0  0  0  0  0  0  0
  132.7690   74.3920  226.5360 C   0  0  0  0  0  0  0  0  0  0  0  0
  132.5570   73.0580  226.8150 C   0  0  0  0  0  0  0  0  0  0  0  0
  131.3110   72.6180  227.9610 Cl  0  0  0  0  0  0  0  0  0  0  0  0
  133.3470   72.1320  226.1690 C   0  0  0  0  0  0  0  0  0  0  0  0
  134.3280   72.5080  225.2660 C   0  0  0  0  0  0  0  0  0  0  0  0
  134.5460   73.8510  224.9800 C   0  0  0  0  0  0  0  0  0  0  0  0
  135.4960   74.2280  224.1060 N   0  0  0  0  0  0  0  0  0  0  0  0
  137.7630   74.1620  222.7580 H   0  0  0  0  0  0  0  0  0  0  0  0
  138.2975   75.6195  220.4872 H   0  0  0  0  0  0  0  0  0  0  0  0
  138.8578   76.7637  221.7704 H   0  0  0  0  0  0  0  0  0  0  0  0
  142.9285   74.7838  221.7188 H   0  0  0  0  0  0  0  0  0  0  0  0
  141.9123   73.5356  220.8337 H   0  0  0  0  0  0  0  0  0  0  0  0
  144.1382   74.2867  219.8203 H   0  0  0  0  0  0  0  0  0  0  0  0
  142.6490   74.1711  218.7961 H   0  0  0  0  0  0  0  0  0  0  0  0
  143.8394   76.6919  220.0111 H   0  0  0  0  0  0  0  0  0  0  0  0
  143.8418   76.1943  218.2663 H   0  0  0  0  0  0  0  0  0  0  0  0
  142.1290   77.8831  218.7687 H   0  0  0  0  0  0  0  0  0  0  0  0
  141.4433   76.3035  218.1970 H   0  0  0  0  0  0  0  0  0  0  0  0
  140.0443   76.8574  219.9380 H   0  0  0  0  0  0  0  0  0  0  0  0
  141.9498   79.2644  219.6939 H   0  0  0  0  0  0  0  0  0  0  0  0
  142.4309   81.1065  221.2342 H   0  0  0  0  0  0  0  0  0  0  0  0
  141.3757   78.5886  224.5320 H   0  0  0  0  0  0  0  0  0  0  0  0
  140.8931   76.7483  222.9821 H   0  0  0  0  0  0  0  0  0  0  0  0
  135.0464   77.5217  224.2862 H   0  0  0  0  0  0  0  0  0  0  0  0
  133.2991   76.8565  225.9011 H   0  0  0  0  0  0  0  0  0  0  0  0
  132.1596   75.1632  227.0298 H   0  0  0  0  0  0  0  0  0  0  0  0
  133.1942   71.0626  226.3765 H   0  0  0  0  0  0  0  0  0  0  0  0
  134.9389   71.7384  224.7717 H   0  0  0  0  0  0  0  0  0  0  0  0
  1  2  2  0
  2  3  1  0
  3  4  1  0
  4  5  1  0
  5  6  2  0
  5  7  1  0
  7  8  1  0
  8  9  1  0
  9 10  1  0
 10 11  1  0
 11 12  1  0
 12 13  1  0
 13 14  2  0
 14 15  1  0
 15 16  2  0
 16 17  1  0
 16 18  1  0
 18 19  2  0
  2 20  1  0
 20 21  2  0
 21 22  1  0
 22 23  2  0
 23 24  1  0
 24 25  2  0
 25 26  1  0
 25 27  1  0
 27 28  2  0
 28 29  1  0
 29 30  2  0
 12  7  1  0
 19 13  1  0
 30 20  1  0
 29 23  1  0
  3 31  1  0
  4 32  1  0
  4 33  1  0
  8 34  1  0
  8 35  1  0
  9 36  1  0
  9 37  1  0
 10 38  1  0
 10 39  1  0
 11 40  1  0
 11 41  1  0
 12 42  1  6
 14 43  1  0
 15 44  1  0
 18 45  1  0
 19 46  1  0
 21 47  1  0
 22 48  1  0
 24 49  1  0
 27 50  1  0
 28 51  1  0
M  END
>  <smiles>  (44) 
O=C(NCC(=O)N1CCCCC1c1ccc(Br)cc1)c1ccc2cc(Cl)ccc2n1

>  <score_type>  (44) 
oracle

>  <origin>  (44) 
autodockgpu

>  <m_score__min__energy>  (44) 
-9.4900000000000002

>  <m_primary>  (44) 
energy

>  <rmsd>  (44) 
5.8656290533622

>  <m_score__min__rmsd>  (44) 
5.8656290533622

>  <meeko>  (44) 
{"free_energy": -8.54, "intermolecular_energy": -10.03, "internal_energy": -1.86, "cluster_size": 5, "cluster_id": 3, "rank_in_cluster": 4}

>  <energy>  (44) 
-8.24

>  <cluster_rmsd>  (44) 
1.47

>  <cluster>  (44) 
5

$$$$

     RDKit          3D

 51 54  0  0  0  0  0  0  0  0999 V2000
  138.7980   71.6520  220.7800 O   0  0  0  0  0  0  0  0  0  0  0  0
  139.0560   72.1780  221.9030 C   0  0  0  0  0  0  0  0  0  0  0  0
  139.0460   73.5980  222.0010 N   0  0  0  0  0  0  0  0  0  0  0  0
  138.7410   74.3470  220.8020 C   0  0  0  0  0  0  0  0  0  0  0  0
  139.7910   74.1410  219.7580 C   0  0  0  0  0  0  0  0  0  0  0  0
  139.5060   73.8040  218.5760 O   0  0  0  0  0  0  0  0  0  0  0  0
  141.1730   74.3160  220.0500 N   0  0  0  0  0  0  0  0  0  0  0  0
  141.8500   73.2680  220.7860 C   0  0  0  0  0  0  0  0  0  0  0  0
  143.3050   73.1320  220.4840 C   0  0  0  0  0  0  0  0  0  0  0  0
  143.9690   74.4840  220.3420 C   0  0  0  0  0  0  0  0  0  0  0  0
  143.2990   75.3300  219.2990 C   0  0  0  0  0  0  0  0  0  0  0  0
  141.8200   75.5290  219.5950 C   0  0  2  0  0  0  0  0  0  0  0  0
  141.6110   76.6850  220.5100 C   0  0  0  0  0  0  0  0  0  0  0  0
  141.0940   76.5540  221.7820 C   0  0  0  0  0  0  0  0  0  0  0  0
  140.8990   77.6190  222.6360 C   0  0  0  0  0  0  0  0  0  0  0  0
  141.2260   78.8960  222.2330 C   0  0  0  0  0  0  0  0  0  0  0  0
  140.9500   80.3550  223.4250 Br  0  0  0  0  0  0  0  0  0  0  0  0
  141.7450   79.0660  220.9680 C   0  0  0  0  0  0  0  0  0  0  0  0
  141.9350   77.9920  220.1250 C   0  0  0  0  0  0  0  0  0  0  0  0
  139.3540   71.3560  223.0700 C   0  0  0  0  0  0  0  0  0  0  0  0
  138.9880   70.0220  223.0530 C   0  0  0  0  0  0  0  0  0  0  0  0
  139.2230   69.1640  224.1010 C   0  0  0  0  0  0  0  0  0  0  0  0
  139.8570   69.6800  225.2110 C   0  0  0  0  0  0  0  0  0  0  0  0
  140.0950   68.8290  226.2570 C   0  0  0  0  0  0  0  0  0  0  0  0
  140.7250   69.2990  227.3900 C   0  0  0  0  0  0  0  0  0  0  0  0
  141.0200   68.1970  228.7160 Cl  0  0  0  0  0  0  0  0  0  0  0  0
  141.0940   70.6270  227.4180 C   0  0  0  0  0  0  0  0  0  0  0  0
  140.8490   71.4780  226.3530 C   0  0  0  0  0  0  0  0  0  0  0  0
  140.2140   71.0100  225.2080 C   0  0  0  0  0  0  0  0  0  0  0  0
  139.9690   71.8270  224.1680 N   0  0  0  0  0  0  0  0  0  0  0  0
  139.2540   74.0600  222.9150 H   0  0  0  0  0  0  0  0  0  0  0  0
  137.7705   74.0127  220.4065 H   0  0  0  0  0  0  0  0  0  0  0  0
  138.7065   75.4165  221.0570 H   0  0  0  0  0  0  0  0  0  0  0  0
  141.7416   73.4791  221.8601 H   0  0  0  0  0  0  0  0  0  0  0  0
  141.3802   72.3215  220.4805 H   0  0  0  0  0  0  0  0  0  0  0  0
  143.7900   72.5794  221.3022 H   0  0  0  0  0  0  0  0  0  0  0  0
  143.4114   72.5927  219.5312 H   0  0  0  0  0  0  0  0  0  0  0  0
  143.9211   75.0069  221.3086 H   0  0  0  0  0  0  0  0  0  0  0  0
  145.0113   74.3208  220.0305 H   0  0  0  0  0  0  0  0  0  0  0  0
  143.7911   76.3133  219.2685 H   0  0  0  0  0  0  0  0  0  0  0  0
  143.3868   74.8128  218.3321 H   0  0  0  0  0  0  0  0  0  0  0  0
  141.3223   75.7773  218.6460 H   0  0  0  0  0  0  0  0  0  0  0  0
  140.8231   75.5475  222.1335 H   0  0  0  0  0  0  0  0  0  0  0  0
  140.4821   77.4493  223.6397 H   0  0  0  0  0  0  0  0  0  0  0  0
  142.0124   80.0763  220.6248 H   0  0  0  0  0  0  0  0  0  0  0  0
  142.3526   78.1663  219.1224 H   0  0  0  0  0  0  0  0  0  0  0  0
  138.4846   69.6288  222.1575 H   0  0  0  0  0  0  0  0  0  0  0  0
  138.9175   68.1083  224.0557 H   0  0  0  0  0  0  0  0  0  0  0  0
  139.7851   67.7755  226.1938 H   0  0  0  0  0  0  0  0  0  0  0  0
  141.5978   71.0224  228.3124 H   0  0  0  0  0  0  0  0  0  0  0  0
  141.1590   72.5317  226.4135 H   0  0  0  0  0  0  0  0  0  0  0  0
  1  2  2  0
  2  3  1  0
  3  4  1  0
  4  5  1  0
  5  6  2  0
  5  7  1  0
  7  8  1  0
  8  9  1  0
  9 10  1  0
 10 11  1  0
 11 12  1  0
 12 13  1  0
 13 14  2  0
 14 15  1  0
 15 16  2  0
 16 17  1  0
 16 18  1  0
 18 19  2  0
  2 20  1  0
 20 21  2  0
 21 22  1  0
 22 23  2  0
 23 24  1  0
 24 25  2  0
 25 26  1  0
 25 27  1  0
 27 28  2  0
 28 29  1  0
 29 30  2  0
 12  7  1  0
 19 13  1  0
 30 20  1  0
 29 23  1  0
  3 31  1  0
  4 32  1  0
  4 33  1  0
  8 34  1  0
  8 35  1  0
  9 36  1  0
  9 37  1  0
 10 38  1  0
 10 39  1  0
 11 40  1  0
 11 41  1  0
 12 42  1  6
 14 43  1  0
 15 44  1  0
 18 45  1  0
 19 46  1  0
 21 47  1  0
 22 48  1  0
 24 49  1  0
 27 50  1  0
 28 51  1  0
M  END
>  <smiles>  (45) 
O=C(NCC(=O)N1CCCCC1c1ccc(Br)cc1)c1ccc2cc(Cl)ccc2n1

>  <score_type>  (45) 
oracle

>  <origin>  (45) 
autodockgpu

>  <m_score__min__energy>  (45) 
-9.4900000000000002

>  <m_primary>  (45) 
energy

>  <rmsd>  (45) 
2.4467717891994925

>  <m_score__min__rmsd>  (45) 
2.4467717891994925

>  <meeko>  (45) 
{"free_energy": -8.93, "intermolecular_energy": -10.43, "internal_energy": -1.83, "cluster_size": 29, "cluster_id": 1, "rank_in_cluster": 14}

>  <energy>  (45) 
-8.24

>  <cluster_rmsd>  (45) 
1.48

>  <cluster>  (45) 
5

$$$$

     RDKit          3D

 51 54  0  0  0  0  0  0  0  0999 V2000
  140.3790   72.7190  221.0920 O   0  0  0  0  0  0  0  0  0  0  0  0
  139.6850   72.8230  222.1460 C   0  0  0  0  0  0  0  0  0  0  0  0
  138.7430   73.8860  222.2320 N   0  0  0  0  0  0  0  0  0  0  0  0
  138.6430   74.7810  221.1000 C   0  0  0  0  0  0  0  0  0  0  0  0
  138.2380   76.1530  221.5350 C   0  0  0  0  0  0  0  0  0  0  0  0
  137.0290   76.5070  221.6020 O   0  0  0  0  0  0  0  0  0  0  0  0
  139.2040   77.1330  221.8980 N   0  0  0  0  0  0  0  0  0  0  0  0
  138.7540   78.4980  222.0770 C   0  0  0  0  0  0  0  0  0  0  0  0
  139.5430   79.2920  223.0630 C   0  0  0  0  0  0  0  0  0  0  0  0
  141.0250   79.0130  222.9390 C   0  0  0  0  0  0  0  0  0  0  0  0
  141.3320   77.5510  223.0850 C   0  0  0  0  0  0  0  0  0  0  0  0
  140.5790   76.7090  222.0650 C   0  0  2  0  0  0  0  0  0  0  0  0
  141.3300   76.6280  220.7820 C   0  0  0  0  0  0  0  0  0  0  0  0
  142.0790   75.5300  220.4160 C   0  0  0  0  0  0  0  0  0  0  0  0
  142.7750   75.4470  219.2290 C   0  0  0  0  0  0  0  0  0  0  0  0
  142.7450   76.4970  218.3360 C   0  0  0  0  0  0  0  0  0  0  0  0
  143.7130   76.3670  216.7020 Br  0  0  0  0  0  0  0  0  0  0  0  0
  142.0080   77.6130  218.6680 C   0  0  0  0  0  0  0  0  0  0  0  0
  141.3160   77.6810  219.8590 C   0  0  0  0  0  0  0  0  0  0  0  0
  139.8410   71.8800  223.2470 C   0  0  0  0  0  0  0  0  0  0  0  0
  139.4680   70.5620  223.0510 C   0  0  0  0  0  0  0  0  0  0  0  0
  139.5740   69.5970  224.0240 C   0  0  0  0  0  0  0  0  0  0  0  0
  140.0830   69.9830  225.2460 C   0  0  0  0  0  0  0  0  0  0  0  0
  140.1930   69.0260  226.2180 C   0  0  0  0  0  0  0  0  0  0  0  0
  140.6950   69.3630  227.4570 C   0  0  0  0  0  0  0  0  0  0  0  0
  140.8270   68.1260  228.6860 Cl  0  0  0  0  0  0  0  0  0  0  0  0
  141.0710   70.6740  227.6640 C   0  0  0  0  0  0  0  0  0  0  0  0
  140.9550   71.6340  226.6720 C   0  0  0  0  0  0  0  0  0  0  0  0
  140.4500   71.2990  225.4200 C   0  0  0  0  0  0  0  0  0  0  0  0
  140.3330   72.2230  224.4510 N   0  0  0  0  0  0  0  0  0  0  0  0
  138.1560   73.9960  223.0890 H   0  0  0  0  0  0  0  0  0  0  0  0
  139.6203   74.8367  220.5982 H   0  0  0  0  0  0  0  0  0  0  0  0
  137.8779   74.3916  220.4122 H   0  0  0  0  0  0  0  0  0  0  0  0
  138.8105   79.0075  221.1037 H   0  0  0  0  0  0  0  0  0  0  0  0
  137.7307   78.4372  222.4760 H   0  0  0  0  0  0  0  0  0  0  0  0
  139.3645   80.3627  222.8847 H   0  0  0  0  0  0  0  0  0  0  0  0
  139.2208   79.0050  224.0748 H   0  0  0  0  0  0  0  0  0  0  0  0
  141.3695   79.3520  221.9509 H   0  0  0  0  0  0  0  0  0  0  0  0
  141.5428   79.5529  223.7454 H   0  0  0  0  0  0  0  0  0  0  0  0
  142.4122   77.3985  222.9442 H   0  0  0  0  0  0  0  0  0  0  0  0
  141.0148   77.2344  224.0896 H   0  0  0  0  0  0  0  0  0  0  0  0
  140.5144   75.6851  222.4619 H   0  0  0  0  0  0  0  0  0  0  0  0
  142.1236   74.6755  221.1073 H   0  0  0  0  0  0  0  0  0  0  0  0
  143.3548   74.5422  218.9941 H   0  0  0  0  0  0  0  0  0  0  0  0
  141.9710   78.4637  217.9716 H   0  0  0  0  0  0  0  0  0  0  0  0
  140.7371   78.5873  220.0903 H   0  0  0  0  0  0  0  0  0  0  0  0
  139.0671   70.2724  222.0685 H   0  0  0  0  0  0  0  0  0  0  0  0
  139.2651   68.5582  223.8354 H   0  0  0  0  0  0  0  0  0  0  0  0
  139.8819   67.9913  226.0114 H   0  0  0  0  0  0  0  0  0  0  0  0
  141.4745   70.9655  228.6449 H   0  0  0  0  0  0  0  0  0  0  0  0
  141.2648   72.6696  226.8761 H   0  0  0  0  0  0  0  0  0  0  0  0
  1  2  2  0
  2  3  1  0
  3  4  1  0
  4  5  1  0
  5  6  2  0
  5  7  1  0
  7  8  1  0
  8  9  1  0
  9 10  1  0
 10 11  1  0
 11 12  1  0
 12 13  1  0
 13 14  2  0
 14 15  1  0
 15 16  2  0
 16 17  1  0
 16 18  1  0
 18 19  2  0
  2 20  1  0
 20 21  2  0
 21 22  1  0
 22 23  2  0
 23 24  1  0
 24 25  2  0
 25 26  1  0
 25 27  1  0
 27 28  2  0
 28 29  1  0
 29 30  2  0
 12  7  1  0
 19 13  1  0
 30 20  1  0
 29 23  1  0
  3 31  1  0
  4 32  1  0
  4 33  1  0
  8 34  1  0
  8 35  1  0
  9 36  1  0
  9 37  1  0
 10 38  1  0
 10 39  1  0
 11 40  1  0
 11 41  1  0
 12 42  1  1
 14 43  1  0
 15 44  1  0
 18 45  1  0
 19 46  1  0
 21 47  1  0
 22 48  1  0
 24 49  1  0
 27 50  1  0
 28 51  1  0
M  END
>  <smiles>  (46) 
O=C(NCC(=O)N1CCCCC1c1ccc(Br)cc1)c1ccc2cc(Cl)ccc2n1

>  <score_type>  (46) 
oracle

>  <origin>  (46) 
autodockgpu

>  <m_score__min__energy>  (46) 
-9.4900000000000002

>  <m_primary>  (46) 
energy

>  <rmsd>  (46) 
3.257754247265942

>  <m_score__min__rmsd>  (46) 
3.257754247265942

>  <meeko>  (46) 
{"free_energy": -8.33, "intermolecular_energy": -9.82, "internal_energy": -1.69, "cluster_size": 3, "cluster_id": 5, "rank_in_cluster": 1}

>  <energy>  (46) 
-7.87

>  <cluster_rmsd>  (46) 
0.0

>  <cluster>  (46) 
6

$$$$

     RDKit          3D

 51 54  0  0  0  0  0  0  0  0999 V2000
  139.9690   71.9140  220.8610 O   0  0  0  0  0  0  0  0  0  0  0  0
  139.5670   72.2730  222.0070 C   0  0  0  0  0  0  0  0  0  0  0  0
  138.9110   73.5300  222.1280 N   0  0  0  0  0  0  0  0  0  0  0  0
  138.7490   74.3170  220.9260 C   0  0  0  0  0  0  0  0  0  0  0  0
  139.4410   75.6360  221.0490 C   0  0  0  0  0  0  0  0  0  0  0  0
  138.8470   76.6710  221.4620 O   0  0  0  0  0  0  0  0  0  0  0  0
  140.8140   75.7900  220.7050 N   0  0  0  0  0  0  0  0  0  0  0  0
  141.7130   74.6930  220.9940 C   0  0  0  0  0  0  0  0  0  0  0  0
  142.8770   74.5790  220.0690 C   0  0  0  0  0  0  0  0  0  0  0  0
  143.4520   75.9380  219.7320 C   0  0  0  0  0  0  0  0  0  0  0  0
  142.4150   76.8550  219.1520 C   0  0  0  0  0  0  0  0  0  0  0  0
  141.2290   77.0330  220.0880 C   0  0  2  0  0  0  0  0  0  0  0  0
  141.4850   78.1210  221.0720 C   0  0  0  0  0  0  0  0  0  0  0  0
  141.8280   79.4050  220.7030 C   0  0  0  0  0  0  0  0  0  0  0  0
  142.0650   80.4180  221.6080 C   0  0  0  0  0  0  0  0  0  0  0  0
  141.9640   80.1720  222.9610 C   0  0  0  0  0  0  0  0  0  0  0  0
  142.2960   81.5820  224.1970 Br  0  0  0  0  0  0  0  0  0  0  0  0
  141.6250   78.9010  223.3680 C   0  0  0  0  0  0  0  0  0  0  0  0
  141.3900   77.8980  222.4520 C   0  0  0  0  0  0  0  0  0  0  0  0
  139.7660   71.4250  223.1760 C   0  0  0  0  0  0  0  0  0  0  0  0
  139.4180   70.0890  223.0940 C   0  0  0  0  0  0  0  0  0  0  0  0
  139.5660   69.2060  224.1380 C   0  0  0  0  0  0  0  0  0  0  0  0
  140.0900   69.7000  225.3140 C   0  0  0  0  0  0  0  0  0  0  0  0
  140.2410   68.8250  226.3560 C   0  0  0  0  0  0  0  0  0  0  0  0
  140.7610   69.2710  227.5530 C   0  0  0  0  0  0  0  0  0  0  0  0
  140.9450   68.1400  228.8730 Cl  0  0  0  0  0  0  0  0  0  0  0  0
  141.1110   70.6010  227.6470 C   0  0  0  0  0  0  0  0  0  0  0  0
  140.9550   71.4770  226.5850 C   0  0  0  0  0  0  0  0  0  0  0  0
  140.4310   71.0330  225.3750 C   0  0  0  0  0  0  0  0  0  0  0  0
  140.2740   71.8740  224.3370 N   0  0  0  0  0  0  0  0  0  0  0  0
  138.5680   73.8530  223.0610 H   0  0  0  0  0  0  0  0  0  0  0  0
  139.1756   73.7654  220.0753 H   0  0  0  0  0  0  0  0  0  0  0  0
  137.6755   74.4990  220.7696 H   0  0  0  0  0  0  0  0  0  0  0  0
  142.0991   74.8268  222.0153 H   0  0  0  0  0  0  0  0  0  0  0  0
  141.1266   73.7707  220.8695 H   0  0  0  0  0  0  0  0  0  0  0  0
  143.6570   73.9698  220.5491 H   0  0  0  0  0  0  0  0  0  0  0  0
  142.5322   74.1088  219.1362 H   0  0  0  0  0  0  0  0  0  0  0  0
  143.8548   76.3915  220.6497 H   0  0  0  0  0  0  0  0  0  0  0  0
  144.2424   75.7974  218.9800 H   0  0  0  0  0  0  0  0  0  0  0  0
  142.8728   77.8379  218.9669 H   0  0  0  0  0  0  0  0  0  0  0  0
  142.0476   76.4067  218.2171 H   0  0  0  0  0  0  0  0  0  0  0  0
  140.3695   77.3491  219.4786 H   0  0  0  0  0  0  0  0  0  0  0  0
  141.9172   79.6328  219.6306 H   0  0  0  0  0  0  0  0  0  0  0  0
  142.3347   81.4227  221.2505 H   0  0  0  0  0  0  0  0  0  0  0  0
  141.5402   78.6822  224.4427 H   0  0  0  0  0  0  0  0  0  0  0  0
  141.1205   76.8950  222.8144 H   0  0  0  0  0  0  0  0  0  0  0  0
  139.0023   69.7141  222.1471 H   0  0  0  0  0  0  0  0  0  0  0  0
  139.2781   68.1490  224.0390 H   0  0  0  0  0  0  0  0  0  0  0  0
  139.9489   67.7710  226.2391 H   0  0  0  0  0  0  0  0  0  0  0  0
  141.5264   70.9780  228.5932 H   0  0  0  0  0  0  0  0  0  0  0  0
  141.2476   72.5312  226.6993 H   0  0  0  0  0  0  0  0  0  0  0  0
  1  2  2  0
  2  3  1  0
  3  4  1  0
  4  5  1  0
  5  6  2  0
  5  7  1  0
  7  8  1  0
  8  9  1  0
  9 10  1  0
 10 11  1  0
 11 12  1  0
 12 13  1  0
 13 14  2  0
 14 15  1  0
 15 16  2  0
 16 17  1  0
 16 18  1  0
 18 19  2  0
  2 20  1  0
 20 21  2  0
 21 22  1  0
 22 23  2  0
 23 24  1  0
 24 25  2  0
 25 26  1  0
 25 27  1  0
 27 28  2  0
 28 29  1  0
 29 30  2  0
 12  7  1  0
 19 13  1  0
 30 20  1  0
 29 23  1  0
  3 31  1  0
  4 32  1  0
  4 33  1  0
  8 34  1  0
  8 35  1  0
  9 36  1  0
  9 37  1  0
 10 38  1  0
 10 39  1  0
 11 40  1  0
 11 41  1  0
 12 42  1  6
 14 43  1  0
 15 44  1  0
 18 45  1  0
 19 46  1  0
 21 47  1  0
 22 48  1  0
 24 49  1  0
 27 50  1  0
 28 51  1  0
M  END
>  <smiles>  (47) 
O=C(NCC(=O)N1CCCCC1c1ccc(Br)cc1)c1ccc2cc(Cl)ccc2n1

>  <score_type>  (47) 
oracle

>  <origin>  (47) 
autodockgpu

>  <m_score__min__energy>  (47) 
-9.4900000000000002

>  <m_primary>  (47) 
energy

>  <rmsd>  (47) 
2.005808916819493

>  <m_score__min__rmsd>  (47) 
2.005808916819493

>  <meeko>  (47) 
{"free_energy": -9.48, "intermolecular_energy": -10.97, "internal_energy": -1.57, "cluster_size": 29, "cluster_id": 1, "rank_in_cluster": 2}

>  <energy>  (47) 
-7.55

>  <cluster_rmsd>  (47) 
0.95

>  <cluster>  (47) 
6

$$$$

     RDKit          3D

 51 54  0  0  0  0  0  0  0  0999 V2000
  138.7650   71.5460  220.8410 O   0  0  0  0  0  0  0  0  0  0  0  0
  138.8360   72.0660  221.9940 C   0  0  0  0  0  0  0  0  0  0  0  0
  138.5590   73.4560  222.1240 N   0  0  0  0  0  0  0  0  0  0  0  0
  138.2140   74.1830  220.9230 C   0  0  0  0  0  0  0  0  0  0  0  0
  139.0370   75.4240  220.7910 C   0  0  0  0  0  0  0  0  0  0  0  0
  138.5200   76.5750  220.7800 O   0  0  0  0  0  0  0  0  0  0  0  0
  140.4540   75.3670  220.6700 N   0  0  0  0  0  0  0  0  0  0  0  0
  141.1340   74.2030  221.2010 C   0  0  0  0  0  0  0  0  0  0  0  0
  142.3990   73.8440  220.4980 C   0  0  0  0  0  0  0  0  0  0  0  0
  143.2050   75.0750  220.1460 C   0  0  0  0  0  0  0  0  0  0  0  0
  142.4110   76.0470  219.3220 C   0  0  0  0  0  0  0  0  0  0  0  0
  141.1310   76.4730  220.0260 C   0  0  2  0  0  0  0  0  0  0  0  0
  141.3830   77.6210  220.9410 C   0  0  0  0  0  0  0  0  0  0  0  0
  141.8340   78.8480  220.5030 C   0  0  0  0  0  0  0  0  0  0  0  0
  142.0680   79.9160  221.3430 C   0  0  0  0  0  0  0  0  0  0  0  0
  141.8520   79.7880  222.6990 C   0  0  0  0  0  0  0  0  0  0  0  0
  142.1810   81.2710  223.8450 Br  0  0  0  0  0  0  0  0  0  0  0  0
  141.4020   78.5760  223.1740 C   0  0  0  0  0  0  0  0  0  0  0  0
  141.1710   77.5170  222.3220 C   0  0  0  0  0  0  0  0  0  0  0  0
  139.1910   71.2680  223.1610 C   0  0  0  0  0  0  0  0  0  0  0  0
  138.8820   69.9200  223.1610 C   0  0  0  0  0  0  0  0  0  0  0  0
  139.1740   69.0810  224.2110 C   0  0  0  0  0  0  0  0  0  0  0  0
  139.8060   69.6330  225.3060 C   0  0  0  0  0  0  0  0  0  0  0  0
  140.0990   68.8020  226.3530 C   0  0  0  0  0  0  0  0  0  0  0  0
  140.7300   69.3080  227.4700 C   0  0  0  0  0  0  0  0  0  0  0  0
  141.0960   68.2310  228.7990 Cl  0  0  0  0  0  0  0  0  0  0  0  0
  141.0430   70.6500  227.4810 C   0  0  0  0  0  0  0  0  0  0  0  0
  140.7410   71.4810  226.4140 C   0  0  0  0  0  0  0  0  0  0  0  0
  140.1050   70.9770  225.2850 C   0  0  0  0  0  0  0  0  0  0  0  0
  139.8070   71.7740  224.2440 N   0  0  0  0  0  0  0  0  0  0  0  0
  138.6090   73.9130  223.0620 H   0  0  0  0  0  0  0  0  0  0  0  0
  138.3922   73.5389  220.0493 H   0  0  0  0  0  0  0  0  0  0  0  0
  137.1539   74.4709  220.9808 H   0  0  0  0  0  0  0  0  0  0  0  0
  141.3726   74.3980  222.2570 H   0  0  0  0  0  0  0  0  0  0  0  0
  140.4496   73.3533  221.0609 H   0  0  0  0  0  0  0  0  0  0  0  0
  143.0012   73.1975  221.1533 H   0  0  0  0  0  0  0  0  0  0  0  0
  142.1398   73.3222  219.5650 H   0  0  0  0  0  0  0  0  0  0  0  0
  143.5205   75.5714  221.0756 H   0  0  0  0  0  0  0  0  0  0  0  0
  144.0743   74.7553  219.5526 H   0  0  0  0  0  0  0  0  0  0  0  0
  143.0265   76.9387  219.1324 H   0  0  0  0  0  0  0  0  0  0  0  0
  142.1337   75.5498  218.3808 H   0  0  0  0  0  0  0  0  0  0  0  0
  140.4298   76.8258  219.2554 H   0  0  0  0  0  0  0  0  0  0  0  0
  142.0168   78.9820  219.4266 H   0  0  0  0  0  0  0  0  0  0  0  0
  142.4272   80.8707  220.9313 H   0  0  0  0  0  0  0  0  0  0  0  0
  141.2237   78.4508  224.2522 H   0  0  0  0  0  0  0  0  0  0  0  0
  140.8105   76.5645  222.7378 H   0  0  0  0  0  0  0  0  0  0  0  0
  138.3784   69.4984  222.2786 H   0  0  0  0  0  0  0  0  0  0  0  0
  138.9140   68.0126  224.1789 H   0  0  0  0  0  0  0  0  0  0  0  0
  139.8326   67.7359  226.3039 H   0  0  0  0  0  0  0  0  0  0  0  0
  141.5471   71.0737  228.3621 H   0  0  0  0  0  0  0  0  0  0  0  0
  141.0065   72.5475  226.4606 H   0  0  0  0  0  0  0  0  0  0  0  0
  1  2  2  0
  2  3  1  0
  3  4  1  0
  4  5  1  0
  5  6  2  0
  5  7  1  0
  7  8  1  0
  8  9  1  0
  9 10  1  0
 10 11  1  0
 11 12  1  0
 12 13  1  0
 13 14  2  0
 14 15  1  0
 15 16  2  0
 16 17  1  0
 16 18  1  0
 18 19  2  0
  2 20  1  0
 20 21  2  0
 21 22  1  0
 22 23  2  0
 23 24  1  0
 24 25  2  0
 25 26  1  0
 25 27  1  0
 27 28  2  0
 28 29  1  0
 29 30  2  0
 12  7  1  0
 19 13  1  0
 30 20  1  0
 29 23  1  0
  3 31  1  0
  4 32  1  0
  4 33  1  0
  8 34  1  0
  8 35  1  0
  9 36  1  0
  9 37  1  0
 10 38  1  0
 10 39  1  0
 11 40  1  0
 11 41  1  0
 12 42  1  6
 14 43  1  0
 15 44  1  0
 18 45  1  0
 19 46  1  0
 21 47  1  0
 22 48  1  0
 24 49  1  0
 27 50  1  0
 28 51  1  0
M  END
>  <smiles>  (48) 
O=C(NCC(=O)N1CCCCC1c1ccc(Br)cc1)c1ccc2cc(Cl)ccc2n1

>  <score_type>  (48) 
oracle

>  <origin>  (48) 
autodockgpu

>  <m_score__min__energy>  (48) 
-9.4900000000000002

>  <m_primary>  (48) 
energy

>  <rmsd>  (48) 
2.0212647428500774

>  <m_score__min__rmsd>  (48) 
2.0212647428500774

>  <meeko>  (48) 
{"free_energy": -9.26, "intermolecular_energy": -10.76, "internal_energy": -1.59, "cluster_size": 29, "cluster_id": 1, "rank_in_cluster": 5}

>  <energy>  (48) 
-6.92

>  <cluster_rmsd>  (48) 
0.0

>  <cluster>  (48) 
7

$$$$

     RDKit          3D

 51 54  0  0  0  0  0  0  0  0999 V2000
  138.0950   71.1440  221.2180 O   0  0  0  0  0  0  0  0  0  0  0  0
  138.5370   71.7280  222.2510 C   0  0  0  0  0  0  0  0  0  0  0  0
  138.5910   73.1500  222.2500 N   0  0  0  0  0  0  0  0  0  0  0  0
  138.1360   73.8350  221.0610 C   0  0  0  0  0  0  0  0  0  0  0  0
  138.9440   75.0670  220.8070 C   0  0  0  0  0  0  0  0  0  0  0  0
  138.4130   76.2040  220.6790 O   0  0  0  0  0  0  0  0  0  0  0  0
  140.3630   75.0160  220.6990 N   0  0  0  0  0  0  0  0  0  0  0  0
  141.0450   73.8620  221.2470 C   0  0  0  0  0  0  0  0  0  0  0  0
  142.3170   73.5020  220.5570 C   0  0  0  0  0  0  0  0  0  0  0  0
  143.1200   74.7340  220.1990 C   0  0  0  0  0  0  0  0  0  0  0  0
  142.3270   75.6930  219.3600 C   0  0  0  0  0  0  0  0  0  0  0  0
  141.0390   76.1190  220.0490 C   0  0  2  0  0  0  0  0  0  0  0  0
  141.2770   77.2770  220.9530 C   0  0  0  0  0  0  0  0  0  0  0  0
  141.0500   77.2300  222.3130 C   0  0  0  0  0  0  0  0  0  0  0  0
  141.2700   78.2970  223.1580 C   0  0  0  0  0  0  0  0  0  0  0  0
  141.7410   79.4910  222.6540 C   0  0  0  0  0  0  0  0  0  0  0  0
  142.0380   80.9550  223.8340 Br  0  0  0  0  0  0  0  0  0  0  0  0
  141.9790   79.5770  221.3000 C   0  0  0  0  0  0  0  0  0  0  0  0
  141.7550   78.5010  220.4670 C   0  0  0  0  0  0  0  0  0  0  0  0
  138.9780   70.9690  223.4150 C   0  0  0  0  0  0  0  0  0  0  0  0
  138.7570   69.6040  223.4410 C   0  0  0  0  0  0  0  0  0  0  0  0
  139.1340   68.8000  224.4900 C   0  0  0  0  0  0  0  0  0  0  0  0
  139.7630   69.4060  225.5570 C   0  0  0  0  0  0  0  0  0  0  0  0
  140.1410   68.6090  226.6050 C   0  0  0  0  0  0  0  0  0  0  0  0
  140.7730   69.1690  227.6950 C   0  0  0  0  0  0  0  0  0  0  0  0
  141.2480   68.1350  229.0240 Cl  0  0  0  0  0  0  0  0  0  0  0  0
  140.9990   70.5280  227.6810 C   0  0  0  0  0  0  0  0  0  0  0  0
  140.6120   71.3240  226.6150 C   0  0  0  0  0  0  0  0  0  0  0  0
  139.9750   70.7660  225.5120 C   0  0  0  0  0  0  0  0  0  0  0  0
  139.5940   71.5280  224.4720 N   0  0  0  0  0  0  0  0  0  0  0  0
  138.9500   73.6600  223.0890 H   0  0  0  0  0  0  0  0  0  0  0  0
  138.2309   73.1590  220.1984 H   0  0  0  0  0  0  0  0  0  0  0  0
  137.0864   74.1297  221.2077 H   0  0  0  0  0  0  0  0  0  0  0  0
  141.2750   74.0696  222.3025 H   0  0  0  0  0  0  0  0  0  0  0  0
  140.3660   73.0073  221.1110 H   0  0  0  0  0  0  0  0  0  0  0  0
  142.9173   72.8648  221.2231 H   0  0  0  0  0  0  0  0  0  0  0  0
  142.0674   72.9697  219.6273 H   0  0  0  0  0  0  0  0  0  0  0  0
  143.4260   75.2411  221.1259 H   0  0  0  0  0  0  0  0  0  0  0  0
  143.9956   74.4133  219.6156 H   0  0  0  0  0  0  0  0  0  0  0  0
  142.9390   76.5863  219.1665 H   0  0  0  0  0  0  0  0  0  0  0  0
  142.0596   75.1846  218.4219 H   0  0  0  0  0  0  0  0  0  0  0  0
  140.3420   76.4597  219.2692 H   0  0  0  0  0  0  0  0  0  0  0  0
  140.6736   76.2916  222.7461 H   0  0  0  0  0  0  0  0  0  0  0  0
  141.0697   78.1958  224.2349 H   0  0  0  0  0  0  0  0  0  0  0  0
  142.3542   80.5201  220.8759 H   0  0  0  0  0  0  0  0  0  0  0  0
  141.9573   78.6067  219.3909 H   0  0  0  0  0  0  0  0  0  0  0  0
  138.2549   69.1390  222.5798 H   0  0  0  0  0  0  0  0  0  0  0  0
  138.9418   67.7170  224.4788 H   0  0  0  0  0  0  0  0  0  0  0  0
  139.9414   67.5276  226.5771 H   0  0  0  0  0  0  0  0  0  0  0  0
  141.5013   70.9947  228.5412 H   0  0  0  0  0  0  0  0  0  0  0  0
  140.8102   72.4057  226.6414 H   0  0  0  0  0  0  0  0  0  0  0  0
  1  2  2  0
  2  3  1  0
  3  4  1  0
  4  5  1  0
  5  6  2  0
  5  7  1  0
  7  8  1  0
  8  9  1  0
  9 10  1  0
 10 11  1  0
 11 12  1  0
 12 13  1  0
 13 14  2  0
 14 15  1  0
 15 16  2  0
 16 17  1  0
 16 18  1  0
 18 19  2  0
  2 20  1  0
 20 21  2  0
 21 22  1  0
 22 23  2  0
 23 24  1  0
 24 25  2  0
 25 26  1  0
 25 27  1  0
 27 28  2  0
 28 29  1  0
 29 30  2  0
 12  7  1  0
 19 13  1  0
 30 20  1  0
 29 23  1  0
  3 31  1  0
  4 32  1  0
  4 33  1  0
  8 34  1  0
  8 35  1  0
  9 36  1  0
  9 37  1  0
 10 38  1  0
 10 39  1  0
 11 40  1  0
 11 41  1  0
 12 42  1  6
 14 43  1  0
 15 44  1  0
 18 45  1  0
 19 46  1  0
 21 47  1  0
 22 48  1  0
 24 49  1  0
 27 50  1  0
 28 51  1  0
M  END
>  <smiles>  (49) 
O=C(NCC(=O)N1CCCCC1c1ccc(Br)cc1)c1ccc2cc(Cl)ccc2n1

>  <score_type>  (49) 
oracle

>  <origin>  (49) 
autodockgpu

>  <m_score__min__energy>  (49) 
-9.4900000000000002

>  <m_primary>  (49) 
energy

>  <rmsd>  (49) 
2.0487704362225254

>  <m_score__min__rmsd>  (49) 
2.0487704362225254

>  <meeko>  (49) 
{"free_energy": -9.12, "intermolecular_energy": -10.61, "internal_energy": -1.54, "cluster_size": 29, "cluster_id": 1, "rank_in_cluster": 10}

>  <energy>  (49) 
-6.87

>  <cluster_rmsd>  (49) 
0.24

>  <cluster>  (49) 
7

$$$$

     RDKit          3D

 51 54  0  0  0  0  0  0  0  0999 V2000
  137.9220   73.9320  220.6000 O   0  0  0  0  0  0  0  0  0  0  0  0
  137.8920   74.4940  221.7340 C   0  0  0  0  0  0  0  0  0  0  0  0
  136.9770   74.0030  222.7070 N   0  0  0  0  0  0  0  0  0  0  0  0
  136.1380   72.8880  222.3300 C   0  0  0  0  0  0  0  0  0  0  0  0
  136.7990   71.5850  222.6490 C   0  0  0  0  0  0  0  0  0  0  0  0
  136.2100   70.6700  223.2870 O   0  0  0  0  0  0  0  0  0  0  0  0
  138.1370   71.3130  222.2440 N   0  0  0  0  0  0  0  0  0  0  0  0
  138.3370   70.4730  221.0820 C   0  0  0  0  0  0  0  0  0  0  0  0
  139.5820   70.7590  220.3120 C   0  0  0  0  0  0  0  0  0  0  0  0
  140.7500   71.0390  221.2320 C   0  0  0  0  0  0  0  0  0  0  0  0
  140.4570   72.1640  222.1810 C   0  0  0  0  0  0  0  0  0  0  0  0
  139.2160   71.8900  223.0190 C   0  0  2  0  0  0  0  0  0  0  0  0
  139.5570   71.0990  224.2330 C   0  0  0  0  0  0  0  0  0  0  0  0
  138.9210   69.9220  224.5680 C   0  0  0  0  0  0  0  0  0  0  0  0
  139.2320   69.1830  225.6890 C   0  0  0  0  0  0  0  0  0  0  0  0
  140.2250   69.6100  226.5440 C   0  0  0  0  0  0  0  0  0  0  0  0
  140.6420   68.5780  228.0880 Br  0  0  0  0  0  0  0  0  0  0  0  0
  140.8830   70.7820  226.2430 C   0  0  0  0  0  0  0  0  0  0  0  0
  140.5620   71.5110  225.1170 C   0  0  0  0  0  0  0  0  0  0  0  0
  138.7710   75.6160  222.0420 C   0  0  0  0  0  0  0  0  0  0  0  0
  140.1360   75.4520  221.8880 C   0  0  0  0  0  0  0  0  0  0  0  0
  141.0480   76.4460  222.1520 C   0  0  0  0  0  0  0  0  0  0  0  0
  140.5550   77.6580  222.5890 C   0  0  0  0  0  0  0  0  0  0  0  0
  141.4590   78.6520  222.8520 C   0  0  0  0  0  0  0  0  0  0  0  0
  141.0150   79.8810  223.2920 C   0  0  0  0  0  0  0  0  0  0  0  0
  142.1850   81.1380  223.6230 Cl  0  0  0  0  0  0  0  0  0  0  0  0
  139.6570   80.0560  223.4490 C   0  0  0  0  0  0  0  0  0  0  0  0
  138.7520   79.0430  223.1790 C   0  0  0  0  0  0  0  0  0  0  0  0
  139.1940   77.8010  222.7350 C   0  0  0  0  0  0  0  0  0  0  0  0
  138.3240   76.8100  222.4710 N   0  0  0  0  0  0  0  0  0  0  0  0
  136.9310   74.4470  223.6520 H   0  0  0  0  0  0  0  0  0  0  0  0
  135.1869   72.9523  222.8789 H   0  0  0  0  0  0  0  0  0  0  0  0
  135.9620   72.9342  221.2451 H   0  0  0  0  0  0  0  0  0  0  0  0
  138.3752   69.4264  221.4185 H   0  0  0  0  0  0  0  0  0  0  0  0
  137.4973   70.6790  220.4019 H   0  0  0  0  0  0  0  0  0  0  0  0
  139.8221   69.8883  219.6841 H   0  0  0  0  0  0  0  0  0  0  0  0
  139.4080   71.6516  219.6931 H   0  0  0  0  0  0  0  0  0  0  0  0
  140.9704   70.1315  221.8133 H   0  0  0  0  0  0  0  0  0  0  0  0
  141.6103   71.3311  220.6119 H   0  0  0  0  0  0  0  0  0  0  0  0
  141.3179   72.2961  222.8528 H   0  0  0  0  0  0  0  0  0  0  0  0
  140.2745   73.0722  221.5877 H   0  0  0  0  0  0  0  0  0  0  0  0
  138.8292   72.8589  223.3679 H   0  0  0  0  0  0  0  0  0  0  0  0
  138.1237   69.5537  223.9057 H   0  0  0  0  0  0  0  0  0  0  0  0
  138.6871   68.2514  225.9015 H   0  0  0  0  0  0  0  0  0  0  0  0
  141.6781   71.1428  226.9121 H   0  0  0  0  0  0  0  0  0  0  0  0
  141.1103   72.4413  224.9077 H   0  0  0  0  0  0  0  0  0  0  0  0
  140.5097   74.4787  221.5372 H   0  0  0  0  0  0  0  0  0  0  0  0
  142.1276   76.2816  222.0201 H   0  0  0  0  0  0  0  0  0  0  0  0
  142.5350   78.4709  222.7129 H   0  0  0  0  0  0  0  0  0  0  0  0
  139.2809   81.0287  223.7990 H   0  0  0  0  0  0  0  0  0  0  0  0
  137.6754   79.2219  223.3167 H   0  0  0  0  0  0  0  0  0  0  0  0
  1  2  2  0
  2  3  1  0
  3  4  1  0
  4  5  1  0
  5  6  2  0
  5  7  1  0
  7  8  1  0
  8  9  1  0
  9 10  1  0
 10 11  1  0
 11 12  1  0
 12 13  1  0
 13 14  2  0
 14 15  1  0
 15 16  2  0
 16 17  1  0
 16 18  1  0
 18 19  2  0
  2 20  1  0
 20 21  2  0
 21 22  1  0
 22 23  2  0
 23 24  1  0
 24 25  2  0
 25 26  1  0
 25 27  1  0
 27 28  2  0
 28 29  1  0
 29 30  2  0
 12  7  1  0
 19 13  1  0
 30 20  1  0
 29 23  1  0
  3 31  1  0
  4 32  1  0
  4 33  1  0
  8 34  1  0
  8 35  1  0
  9 36  1  0
  9 37  1  0
 10 38  1  0
 10 39  1  0
 11 40  1  0
 11 41  1  0
 12 42  1  1
 14 43  1  0
 15 44  1  0
 18 45  1  0
 19 46  1  0
 21 47  1  0
 22 48  1  0
 24 49  1  0
 27 50  1  0
 28 51  1  0
M  END
>  <smiles>  (50) 
O=C(NCC(=O)N1CCCCC1c1ccc(Br)cc1)c1ccc2cc(Cl)ccc2n1

>  <score_type>  (50) 
oracle

>  <origin>  (50) 
autodockgpu

>  <m_score__min__energy>  (50) 
-9.4900000000000002

>  <m_primary>  (50) 
energy

>  <rmsd>  (50) 
7.009157228308805

>  <m_score__min__rmsd>  (50) 
7.009157228308805

>  <meeko>  (50) 
{"free_energy": -8.36, "intermolecular_energy": -9.85, "internal_energy": -2.04, "cluster_size": 7, "cluster_id": 4, "rank_in_cluster": 1}

>  <energy>  (50) 
-6.83

>  <cluster_rmsd>  (50) 
0.21

>  <cluster>  (50) 
7

$$$$

     RDKit          3D

 51 54  0  0  0  0  0  0  0  0999 V2000
  138.8260   70.9190  221.0640 O   0  0  0  0  0  0  0  0  0  0  0  0
  138.7810   71.5950  222.1300 C   0  0  0  0  0  0  0  0  0  0  0  0
  138.1450   72.8700  222.0330 N   0  0  0  0  0  0  0  0  0  0  0  0
  137.6240   73.2640  220.7570 C   0  0  0  0  0  0  0  0  0  0  0  0
  138.3190   74.4690  220.2130 C   0  0  0  0  0  0  0  0  0  0  0  0
  137.7020   75.5000  219.8450 O   0  0  0  0  0  0  0  0  0  0  0  0
  139.7380   74.4820  220.0890 N   0  0  0  0  0  0  0  0  0  0  0  0
  140.2820   74.2470  218.7710 C   0  0  0  0  0  0  0  0  0  0  0  0
  141.6830   73.7690  218.7180 C   0  0  0  0  0  0  0  0  0  0  0  0
  142.5100   73.9100  219.9380 C   0  0  0  0  0  0  0  0  0  0  0  0
  141.7330   73.8010  221.2240 C   0  0  0  0  0  0  0  0  0  0  0  0
  140.5480   74.7260  221.2600 C   0  0  1  0  0  0  0  0  0  0  0  0
  140.9080   76.1290  221.4870 C   0  0  0  0  0  0  0  0  0  0  0  0
  141.4900   76.9330  220.5160 C   0  0  0  0  0  0  0  0  0  0  0  0
  141.8210   78.2570  220.7560 C   0  0  0  0  0  0  0  0  0  0  0  0
  141.5800   78.8280  221.9820 C   0  0  0  0  0  0  0  0  0  0  0  0
  142.0560   80.6530  222.2530 Br  0  0  0  0  0  0  0  0  0  0  0  0
  141.0070   78.0590  222.9570 C   0  0  0  0  0  0  0  0  0  0  0  0
  140.6850   76.7620  222.7160 C   0  0  0  0  0  0  0  0  0  0  0  0
  139.3410   71.1080  223.3880 C   0  0  0  0  0  0  0  0  0  0  0  0
  140.2760   71.8980  224.0190 C   0  0  0  0  0  0  0  0  0  0  0  0
  140.8660   71.5320  225.2090 C   0  0  0  0  0  0  0  0  0  0  0  0
  140.4870   70.3170  225.7730 C   0  0  0  0  0  0  0  0  0  0  0  0
  141.0540   69.8960  226.9800 C   0  0  0  0  0  0  0  0  0  0  0  0
  140.6470   68.6820  227.5020 C   0  0  0  0  0  0  0  0  0  0  0  0
  141.3230   68.1090  229.0060 Cl  0  0  0  0  0  0  0  0  0  0  0  0
  139.7040   67.8870  226.8630 C   0  0  0  0  0  0  0  0  0  0  0  0
  139.1450   68.3160  225.6590 C   0  0  0  0  0  0  0  0  0  0  0  0
  139.5450   69.5290  225.1290 C   0  0  0  0  0  0  0  0  0  0  0  0
  139.0070   69.9550  223.9580 N   0  0  0  0  0  0  0  0  0  0  0  0
  138.0810   73.4710  222.8910 H   0  0  0  0  0  0  0  0  0  0  0  0
  137.7518   72.4315  220.0495 H   0  0  0  0  0  0  0  0  0  0  0  0
  136.5616   73.5169  220.8888 H   0  0  0  0  0  0  0  0  0  0  0  0
  139.6512   73.4933  218.2770 H   0  0  0  0  0  0  0  0  0  0  0  0
  140.2867   75.2288  218.2749 H   0  0  0  0  0  0  0  0  0  0  0  0
  141.6547   72.6993  218.4634 H   0  0  0  0  0  0  0  0  0  0  0  0
  142.1693   74.4219  217.9783 H   0  0  0  0  0  0  0  0  0  0  0  0
  143.2759   73.1205  219.9292 H   0  0  0  0  0  0  0  0  0  0  0  0
  142.9419   74.9214  219.9132 H   0  0  0  0  0  0  0  0  0  0  0  0
  141.3765   72.7662  221.3343 H   0  0  0  0  0  0  0  0  0  0  0  0
  142.4054   74.0865  222.0464 H   0  0  0  0  0  0  0  0  0  0  0  0
  139.9331   74.5012  222.1439 H   0  0  0  0  0  0  0  0  0  0  0  0
  141.6950   76.5049  219.5237 H   0  0  0  0  0  0  0  0  0  0  0  0
  142.2813   78.8567  219.9569 H   0  0  0  0  0  0  0  0  0  0  0  0
  140.8050   78.4954  223.9463 H   0  0  0  0  0  0  0  0  0  0  0  0
  140.2255   76.1788  223.5277 H   0  0  0  0  0  0  0  0  0  0  0  0
  140.5617   72.8545  223.5569 H   0  0  0  0  0  0  0  0  0  0  0  0
  141.6110   72.1777  225.6968 H   0  0  0  0  0  0  0  0  0  0  0  0
  141.8023   70.5129  227.4992 H   0  0  0  0  0  0  0  0  0  0  0  0
  139.4001   66.9259  227.3033 H   0  0  0  0  0  0  0  0  0  0  0  0
  138.3975   67.6988  225.1392 H   0  0  0  0  0  0  0  0  0  0  0  0
  1  2  2  0
  2  3  1  0
  3  4  1  0
  4  5  1  0
  5  6  2  0
  5  7  1  0
  7  8  1  0
  8  9  1  0
  9 10  1  0
 10 11  1  0
 11 12  1  0
 12 13  1  0
 13 14  2  0
 14 15  1  0
 15 16  2  0
 16 17  1  0
 16 18  1  0
 18 19  2  0
  2 20  1  0
 20 21  2  0
 21 22  1  0
 22 23  2  0
 23 24  1  0
 24 25  2  0
 25 26  1  0
 25 27  1  0
 27 28  2  0
 28 29  1  0
 29 30  2  0
 12  7  1  0
 19 13  1  0
 30 20  1  0
 29 23  1  0
  3 31  1  0
  4 32  1  0
  4 33  1  0
  8 34  1  0
  8 35  1  0
  9 36  1  0
  9 37  1  0
 10 38  1  0
 10 39  1  0
 11 40  1  0
 11 41  1  0
 12 42  1  1
 14 43  1  0
 15 44  1  0
 18 45  1  0
 19 46  1  0
 21 47  1  0
 22 48  1  0
 24 49  1  0
 27 50  1  0
 28 51  1  0
M  END
>  <smiles>  (51) 
O=C(NCC(=O)N1CCCCC1c1ccc(Br)cc1)c1ccc2cc(Cl)ccc2n1

>  <score_type>  (51) 
oracle

>  <origin>  (51) 
autodockgpu

>  <m_score__min__energy>  (51) 
-9.1600000000000001

>  <m_primary>  (51) 
energy

>  <rmsd>  (51) 
3.0011693575610296

>  <m_score__min__rmsd>  (51) 
3.0011693575610296

>  <meeko>  (51) 
{"free_energy": -8.25, "intermolecular_energy": -9.75, "internal_energy": -1.83, "cluster_size": 10, "cluster_id": 2, "rank_in_cluster": 8}

>  <energy>  (51) 
-9.16

>  <cluster_rmsd>  (51) 
0.0

>  <cluster>  (51) 
1

$$$$

     RDKit          3D

 51 54  0  0  0  0  0  0  0  0999 V2000
  139.7020   72.3180  221.2550 O   0  0  0  0  0  0  0  0  0  0  0  0
  138.9930   72.2430  222.2980 C   0  0  0  0  0  0  0  0  0  0  0  0
  137.8290   73.0710  222.3210 N   0  0  0  0  0  0  0  0  0  0  0  0
  137.5730   73.9000  221.1800 C   0  0  0  0  0  0  0  0  0  0  0  0
  138.2200   75.2400  221.3010 C   0  0  0  0  0  0  0  0  0  0  0  0
  137.6510   76.2220  221.8410 O   0  0  0  0  0  0  0  0  0  0  0  0
  139.5340   75.4490  220.7920 N   0  0  0  0  0  0  0  0  0  0  0  0
  139.6860   75.4500  219.3540 C   0  0  0  0  0  0  0  0  0  0  0  0
  141.0460   75.1640  218.8420 C   0  0  0  0  0  0  0  0  0  0  0  0
  142.1790   75.2570  219.7900 C   0  0  0  0  0  0  0  0  0  0  0  0
  141.8250   74.8910  221.2090 C   0  0  0  0  0  0  0  0  0  0  0  0
  140.6270   75.6460  221.7150 C   0  0  1  0  0  0  0  0  0  0  0  0
  140.9160   77.0450  222.0490 C   0  0  0  0  0  0  0  0  0  0  0  0
  141.4480   77.4440  223.2680 C   0  0  0  0  0  0  0  0  0  0  0  0
  141.7110   78.7730  223.5570 C   0  0  0  0  0  0  0  0  0  0  0  0
  141.4510   79.7560  222.6330 C   0  0  0  0  0  0  0  0  0  0  0  0
  141.8340   81.5660  223.0880 Br  0  0  0  0  0  0  0  0  0  0  0  0
  140.9270   79.3910  221.4240 C   0  0  0  0  0  0  0  0  0  0  0  0
  140.6710   78.0870  221.1460 C   0  0  0  0  0  0  0  0  0  0  0  0
  139.3360   71.3650  223.4140 C   0  0  0  0  0  0  0  0  0  0  0  0
  139.0270   70.0290  223.2930 C   0  0  0  0  0  0  0  0  0  0  0  0
  139.3080   69.1160  224.2860 C   0  0  0  0  0  0  0  0  0  0  0  0
  139.9250   69.5860  225.4420 C   0  0  0  0  0  0  0  0  0  0  0  0
  140.2330   68.7040  226.4830 C   0  0  0  0  0  0  0  0  0  0  0  0
  140.8460   69.2160  227.6120 C   0  0  0  0  0  0  0  0  0  0  0  0
  141.2510   68.1580  228.9390 Cl  0  0  0  0  0  0  0  0  0  0  0  0
  141.1550   70.5650  227.7300 C   0  0  0  0  0  0  0  0  0  0  0  0
  140.8440   71.4370  226.6870 C   0  0  0  0  0  0  0  0  0  0  0  0
  140.2310   70.9340  225.5540 C   0  0  0  0  0  0  0  0  0  0  0  0
  139.9240   71.7740  224.5330 N   0  0  0  0  0  0  0  0  0  0  0  0
  137.2060   73.0440  223.1650 H   0  0  0  0  0  0  0  0  0  0  0  0
  137.9631   73.3978  220.2824 H   0  0  0  0  0  0  0  0  0  0  0  0
  136.4861   74.0544  221.1113 H   0  0  0  0  0  0  0  0  0  0  0  0
  139.0056   74.6892  218.9437 H   0  0  0  0  0  0  0  0  0  0  0  0
  139.4601   76.4779  219.0339 H   0  0  0  0  0  0  0  0  0  0  0  0
  141.0365   74.1389  218.4431 H   0  0  0  0  0  0  0  0  0  0  0  0
  141.2362   75.9604  218.1074 H   0  0  0  0  0  0  0  0  0  0  0  0
  142.9738   74.5787  219.4462 H   0  0  0  0  0  0  0  0  0  0  0  0
  142.4961   76.3102  219.8034 H   0  0  0  0  0  0  0  0  0  0  0  0
  141.6073   73.8136  221.2519 H   0  0  0  0  0  0  0  0  0  0  0  0
  142.6814   75.1554  221.8467 H   0  0  0  0  0  0  0  0  0  0  0  0
  140.3189   75.2360  222.6881 H   0  0  0  0  0  0  0  0  0  0  0  0
  141.6676   76.6803  224.0286 H   0  0  0  0  0  0  0  0  0  0  0  0
  142.1323   79.0441  224.5363 H   0  0  0  0  0  0  0  0  0  0  0  0
  140.7107   80.1614  220.6692 H   0  0  0  0  0  0  0  0  0  0  0  0
  140.2497   77.8362  220.1613 H   0  0  0  0  0  0  0  0  0  0  0  0
  138.5389   69.6782  222.3718 H   0  0  0  0  0  0  0  0  0  0  0  0
  139.0535   68.0522  224.1693 H   0  0  0  0  0  0  0  0  0  0  0  0
  139.9943   67.6330  226.4058 H   0  0  0  0  0  0  0  0  0  0  0  0
  141.6422   70.9434  228.6408 H   0  0  0  0  0  0  0  0  0  0  0  0
  141.0825   72.5080  226.7643 H   0  0  0  0  0  0  0  0  0  0  0  0
  1  2  2  0
  2  3  1  0
  3  4  1  0
  4  5  1  0
  5  6  2  0
  5  7  1  0
  7  8  1  0
  8  9  1  0
  9 10  1  0
 10 11  1  0
 11 12  1  0
 12 13  1  0
 13 14  2  0
 14 15  1  0
 15 16  2  0
 16 17  1  0
 16 18  1  0
 18 19  2  0
  2 20  1  0
 20 21  2  0
 21 22  1  0
 22 23  2  0
 23 24  1  0
 24 25  2  0
 25 26  1  0
 25 27  1  0
 27 28  2  0
 28 29  1  0
 29 30  2  0
 12  7  1  0
 19 13  1  0
 30 20  1  0
 29 23  1  0
  3 31  1  0
  4 32  1  0
  4 33  1  0
  8 34  1  0
  8 35  1  0
  9 36  1  0
  9 37  1  0
 10 38  1  0
 10 39  1  0
 11 40  1  0
 11 41  1  0
 12 42  1  1
 14 43  1  0
 15 44  1  0
 18 45  1  0
 19 46  1  0
 21 47  1  0
 22 48  1  0
 24 49  1  0
 27 50  1  0
 28 51  1  0
M  END
>  <smiles>  (52) 
O=C(NCC(=O)N1CCCCC1c1ccc(Br)cc1)c1ccc2cc(Cl)ccc2n1

>  <score_type>  (52) 
oracle

>  <origin>  (52) 
autodockgpu

>  <m_score__min__energy>  (52) 
-9.1600000000000001

>  <m_primary>  (52) 
energy

>  <rmsd>  (52) 
1.8486678450352398

>  <m_score__min__rmsd>  (52) 
1.8486678450352398

>  <meeko>  (52) 
{"free_energy": -8.35, "intermolecular_energy": -9.84, "internal_energy": -1.76, "cluster_size": 10, "cluster_id": 2, "rank_in_cluster": 6}

>  <energy>  (52) 
-9.13

>  <cluster_rmsd>  (52) 
0.3

>  <cluster>  (52) 
1

$$$$

     RDKit          3D

 51 54  0  0  0  0  0  0  0  0999 V2000
  139.0510   71.9720  220.7860 O   0  0  0  0  0  0  0  0  0  0  0  0
  139.1840   72.4010  221.9670 C   0  0  0  0  0  0  0  0  0  0  0  0
  139.0570   73.8140  222.1340 N   0  0  0  0  0  0  0  0  0  0  0  0
  138.7960   74.6070  220.9680 C   0  0  0  0  0  0  0  0  0  0  0  0
  138.6730   76.0590  221.2910 C   0  0  0  0  0  0  0  0  0  0  0  0
  137.5640   76.6310  221.4400 O   0  0  0  0  0  0  0  0  0  0  0  0
  139.8420   76.8600  221.4400 N   0  0  0  0  0  0  0  0  0  0  0  0
  140.0480   77.4830  222.7290 C   0  0  0  0  0  0  0  0  0  0  0  0
  140.9330   78.6700  222.7460 C   0  0  0  0  0  0  0  0  0  0  0  0
  141.7980   78.9080  221.5690 C   0  0  0  0  0  0  0  0  0  0  0  0
  141.2050   78.4390  220.2650 C   0  0  0  0  0  0  0  0  0  0  0  0
  140.7460   77.0090  220.3230 C   0  0  1  0  0  0  0  0  0  0  0  0
  141.8460   76.0400  220.2800 C   0  0  0  0  0  0  0  0  0  0  0  0
  141.8010   74.8060  220.9160 C   0  0  0  0  0  0  0  0  0  0  0  0
  142.8540   73.9080  220.8590 C   0  0  0  0  0  0  0  0  0  0  0  0
  143.9970   74.2130  220.1600 C   0  0  0  0  0  0  0  0  0  0  0  0
  145.4120   72.9380  220.1170 Br  0  0  0  0  0  0  0  0  0  0  0  0
  144.0680   75.4210  219.5240 C   0  0  0  0  0  0  0  0  0  0  0  0
  143.0330   76.2970  219.5830 C   0  0  0  0  0  0  0  0  0  0  0  0
  139.4490   71.5130  223.0950 C   0  0  0  0  0  0  0  0  0  0  0  0
  139.0960   70.1890  222.9620 C   0  0  0  0  0  0  0  0  0  0  0  0
  139.3030   69.2670  223.9660 C   0  0  0  0  0  0  0  0  0  0  0  0
  139.8910   69.7160  225.1450 C   0  0  0  0  0  0  0  0  0  0  0  0
  140.1250   68.8240  226.1970 C   0  0  0  0  0  0  0  0  0  0  0  0
  140.7100   69.3150  227.3490 C   0  0  0  0  0  0  0  0  0  0  0  0
  141.0230   68.2440  228.6920 Cl  0  0  0  0  0  0  0  0  0  0  0  0
  141.0640   70.6520  227.4800 C   0  0  0  0  0  0  0  0  0  0  0  0
  140.8280   71.5330  226.4260 C   0  0  0  0  0  0  0  0  0  0  0  0
  140.2420   71.0520  225.2690 C   0  0  0  0  0  0  0  0  0  0  0  0
  140.0070   71.9010  224.2370 N   0  0  0  0  0  0  0  0  0  0  0  0
  139.1580   74.2210  223.0960 H   0  0  0  0  0  0  0  0  0  0  0  0
  139.6224   74.4713  220.2548 H   0  0  0  0  0  0  0  0  0  0  0  0
  137.8393   74.2736  220.5395 H   0  0  0  0  0  0  0  0  0  0  0  0
  139.0648   77.7916  223.1139 H   0  0  0  0  0  0  0  0  0  0  0  0
  140.5572   76.7266  223.3442 H   0  0  0  0  0  0  0  0  0  0  0  0
  140.2909   79.5552  222.8645 H   0  0  0  0  0  0  0  0  0  0  0  0
  141.6362   78.4769  223.5695 H   0  0  0  0  0  0  0  0  0  0  0  0
  141.9885   79.9887  221.4931 H   0  0  0  0  0  0  0  0  0  0  0  0
  142.7172   78.3249  221.7276 H   0  0  0  0  0  0  0  0  0  0  0  0
  140.3428   79.0766  220.0200 H   0  0  0  0  0  0  0  0  0  0  0  0
  141.9897   78.5074  219.4971 H   0  0  0  0  0  0  0  0  0  0  0  0
  140.1879   76.7654  219.4069 H   0  0  0  0  0  0  0  0  0  0  0  0
  140.8993   74.5329  221.4837 H   0  0  0  0  0  0  0  0  0  0  0  0
  142.7745   72.9415  221.3782 H   0  0  0  0  0  0  0  0  0  0  0  0
  144.9735   75.6858  218.9584 H   0  0  0  0  0  0  0  0  0  0  0  0
  143.1316   77.2578  219.0565 H   0  0  0  0  0  0  0  0  0  0  0  0
  138.6326   69.8550  222.0219 H   0  0  0  0  0  0  0  0  0  0  0  0
  139.0135   68.2133  223.8397 H   0  0  0  0  0  0  0  0  0  0  0  0
  139.8512   67.7622  226.1099 H   0  0  0  0  0  0  0  0  0  0  0  0
  141.5277   71.0131  228.4098 H   0  0  0  0  0  0  0  0  0  0  0  0
  141.1035   72.5944  226.5129 H   0  0  0  0  0  0  0  0  0  0  0  0
  1  2  2  0
  2  3  1  0
  3  4  1  0
  4  5  1  0
  5  6  2  0
  5  7  1  0
  7  8  1  0
  8  9  1  0
  9 10  1  0
 10 11  1  0
 11 12  1  0
 12 13  1  0
 13 14  2  0
 14 15  1  0
 15 16  2  0
 16 17  1  0
 16 18  1  0
 18 19  2  0
  2 20  1  0
 20 21  2  0
 21 22  1  0
 22 23  2  0
 23 24  1  0
 24 25  2  0
 25 26  1  0
 25 27  1  0
 27 28  2  0
 28 29  1  0
 29 30  2  0
 12  7  1  0
 19 13  1  0
 30 20  1  0
 29 23  1  0
  3 31  1  0
  4 32  1  0
  4 33  1  0
  8 34  1  0
  8 35  1  0
  9 36  1  0
  9 37  1  0
 10 38  1  0
 10 39  1  0
 11 40  1  0
 11 41  1  0
 12 42  1  6
 14 43  1  0
 15 44  1  0
 18 45  1  0
 19 46  1  0
 21 47  1  0
 22 48  1  0
 24 49  1  0
 27 50  1  0
 28 51  1  0
M  END
>  <smiles>  (53) 
O=C(NCC(=O)N1CCCCC1c1ccc(Br)cc1)c1ccc2cc(Cl)ccc2n1

>  <score_type>  (53) 
oracle

>  <origin>  (53) 
autodockgpu

>  <m_score__min__energy>  (53) 
-9.1600000000000001

>  <m_primary>  (53) 
energy

>  <rmsd>  (53) 
2.70571664430936

>  <m_score__min__rmsd>  (53) 
2.70571664430936

>  <meeko>  (53) 
{"free_energy": -9.11, "intermolecular_energy": -10.6, "internal_energy": -1.68, "cluster_size": 32, "cluster_id": 1, "rank_in_cluster": 4}

>  <energy>  (53) 
-9.13

>  <cluster_rmsd>  (53) 
0.16

>  <cluster>  (53) 
1

$$$$

     RDKit          3D

 51 54  0  0  0  0  0  0  0  0999 V2000
  140.7030   72.6800  221.0790 O   0  0  0  0  0  0  0  0  0  0  0  0
  140.0010   72.8030  222.1210 C   0  0  0  0  0  0  0  0  0  0  0  0
  139.1400   73.9430  222.1610 N   0  0  0  0  0  0  0  0  0  0  0  0
  139.1500   74.8310  221.0350 C   0  0  0  0  0  0  0  0  0  0  0  0
  139.4540   76.2380  221.4310 C   0  0  0  0  0  0  0  0  0  0  0  0
  138.8250   76.8390  222.3380 O   0  0  0  0  0  0  0  0  0  0  0  0
  140.4910   76.9600  220.7720 N   0  0  0  0  0  0  0  0  0  0  0  0
  140.9810   78.1490  221.4320 C   0  0  0  0  0  0  0  0  0  0  0  0
  141.6580   79.1430  220.5670 C   0  0  0  0  0  0  0  0  0  0  0  0
  142.0940   78.7090  219.2210 C   0  0  0  0  0  0  0  0  0  0  0  0
  141.2120   77.6570  218.5980 C   0  0  0  0  0  0  0  0  0  0  0  0
  140.9940   76.4790  219.5060 C   0  0  1  0  0  0  0  0  0  0  0  0
  142.1540   75.5870  219.5960 C   0  0  0  0  0  0  0  0  0  0  0  0
  142.5140   74.9170  220.7580 C   0  0  0  0  0  0  0  0  0  0  0  0
  143.6160   74.0800  220.8160 C   0  0  0  0  0  0  0  0  0  0  0  0
  144.4030   73.8800  219.7070 C   0  0  0  0  0  0  0  0  0  0  0  0
  145.9050   72.7180  219.8460 Br  0  0  0  0  0  0  0  0  0  0  0  0
  144.0720   74.5280  218.5490 C   0  0  0  0  0  0  0  0  0  0  0  0
  142.9910   75.3470  218.4980 C   0  0  0  0  0  0  0  0  0  0  0  0
  140.0590   71.8440  223.2200 C   0  0  0  0  0  0  0  0  0  0  0  0
  139.5970   70.5690  222.9790 C   0  0  0  0  0  0  0  0  0  0  0  0
  139.6070   69.5880  223.9470 C   0  0  0  0  0  0  0  0  0  0  0  0
  140.1060   69.9220  225.2030 C   0  0  0  0  0  0  0  0  0  0  0  0
  140.1400   68.9650  226.2220 C   0  0  0  0  0  0  0  0  0  0  0  0
  140.6450   69.3420  227.4530 C   0  0  0  0  0  0  0  0  0  0  0  0
  140.7090   68.1870  228.7600 Cl  0  0  0  0  0  0  0  0  0  0  0  0
  141.1090   70.6290  227.6920 C   0  0  0  0  0  0  0  0  0  0  0  0
  141.0710   71.5760  226.6690 C   0  0  0  0  0  0  0  0  0  0  0  0
  140.5690   71.2090  225.4340 C   0  0  0  0  0  0  0  0  0  0  0  0
  140.5270   72.1220  224.4320 N   0  0  0  0  0  0  0  0  0  0  0  0
  138.5350   74.0910  223.0060 H   0  0  0  0  0  0  0  0  0  0  0  0
  139.9149   74.4903  220.3216 H   0  0  0  0  0  0  0  0  0  0  0  0
  138.1472   74.8158  220.5832 H   0  0  0  0  0  0  0  0  0  0  0  0
  140.1233   78.6467  221.9080 H   0  0  0  0  0  0  0  0  0  0  0  0
  141.7492   77.7997  222.1376 H   0  0  0  0  0  0  0  0  0  0  0  0
  140.9634   79.9849  220.4304 H   0  0  0  0  0  0  0  0  0  0  0  0
  142.5931   79.3772  221.0969 H   0  0  0  0  0  0  0  0  0  0  0  0
  142.1023   79.5884  218.5603 H   0  0  0  0  0  0  0  0  0  0  0  0
  143.0901   78.2579  219.3402 H   0  0  0  0  0  0  0  0  0  0  0  0
  140.2362   78.1077  218.3641 H   0  0  0  0  0  0  0  0  0  0  0  0
  141.7159   77.2918  217.6910 H   0  0  0  0  0  0  0  0  0  0  0  0
  140.2292   75.8181  219.0721 H   0  0  0  0  0  0  0  0  0  0  0  0
  141.9036   75.0557  221.6625 H   0  0  0  0  0  0  0  0  0  0  0  0
  143.8638   73.5703  221.7588 H   0  0  0  0  0  0  0  0  0  0  0  0
  144.6885   74.3839  217.6494 H   0  0  0  0  0  0  0  0  0  0  0  0
  142.7601   75.8479  217.5463 H   0  0  0  0  0  0  0  0  0  0  0  0
  139.2067   70.3254  221.9798 H   0  0  0  0  0  0  0  0  0  0  0  0
  139.2334   68.5755  223.7344 H   0  0  0  0  0  0  0  0  0  0  0  0
  139.7755   67.9416  226.0494 H   0  0  0  0  0  0  0  0  0  0  0  0
  141.5041   70.8998  228.6823 H   0  0  0  0  0  0  0  0  0  0  0  0
  141.4349   72.5995  226.8420 H   0  0  0  0  0  0  0  0  0  0  0  0
  1  2  2  0
  2  3  1  0
  3  4  1  0
  4  5  1  0
  5  6  2  0
  5  7  1  0
  7  8  1  0
  8  9  1  0
  9 10  1  0
 10 11  1  0
 11 12  1  0
 12 13  1  0
 13 14  2  0
 14 15  1  0
 15 16  2  0
 16 17  1  0
 16 18  1  0
 18 19  2  0
  2 20  1  0
 20 21  2  0
 21 22  1  0
 22 23  2  0
 23 24  1  0
 24 25  2  0
 25 26  1  0
 25 27  1  0
 27 28  2  0
 28 29  1  0
 29 30  2  0
 12  7  1  0
 19 13  1  0
 30 20  1  0
 29 23  1  0
  3 31  1  0
  4 32  1  0
  4 33  1  0
  8 34  1  0
  8 35  1  0
  9 36  1  0
  9 37  1  0
 10 38  1  0
 10 39  1  0
 11 40  1  0
 11 41  1  0
 12 42  1  6
 14 43  1  0
 15 44  1  0
 18 45  1  0
 19 46  1  0
 21 47  1  0
 22 48  1  0
 24 49  1  0
 27 50  1  0
 28 51  1  0
M  END
>  <smiles>  (54) 
O=C(NCC(=O)N1CCCCC1c1ccc(Br)cc1)c1ccc2cc(Cl)ccc2n1

>  <score_type>  (54) 
oracle

>  <origin>  (54) 
autodockgpu

>  <m_score__min__energy>  (54) 
-9.1600000000000001

>  <m_primary>  (54) 
energy

>  <rmsd>  (54) 
2.4297059970396653

>  <m_score__min__rmsd>  (54) 
2.4297059970396653

>  <meeko>  (54) 
{"free_energy": -8.56, "intermolecular_energy": -10.05, "internal_energy": -1.82, "cluster_size": 32, "cluster_id": 1, "rank_in_cluster": 20}

>  <energy>  (54) 
-9.11

>  <cluster_rmsd>  (54) 
0.32

>  <cluster>  (54) 
1

$$$$

     RDKit          3D

 51 54  0  0  0  0  0  0  0  0999 V2000
  140.5570   72.4310  220.7520 O   0  0  0  0  0  0  0  0  0  0  0  0
  140.0350   72.7350  221.8610 C   0  0  0  0  0  0  0  0  0  0  0  0
  139.4150   74.0210  221.9270 N   0  0  0  0  0  0  0  0  0  0  0  0
  139.4410   74.8390  220.7500 C   0  0  0  0  0  0  0  0  0  0  0  0
  138.1430   75.5390  220.5220 C   0  0  0  0  0  0  0  0  0  0  0  0
  137.4850   75.4220  219.4580 O   0  0  0  0  0  0  0  0  0  0  0  0
  137.5990   76.3860  221.5320 N   0  0  0  0  0  0  0  0  0  0  0  0
  137.0130   75.7370  222.6830 C   0  0  0  0  0  0  0  0  0  0  0  0
  136.0350   76.5370  223.4560 C   0  0  0  0  0  0  0  0  0  0  0  0
  136.0000   77.9990  223.2270 C   0  0  0  0  0  0  0  0  0  0  0  0
  136.3540   78.4110  221.8220 C   0  0  0  0  0  0  0  0  0  0  0  0
  137.6580   77.8190  221.3610 C   0  0  1  0  0  0  0  0  0  0  0  0
  138.8340   78.4680  221.9480 C   0  0  0  0  0  0  0  0  0  0  0  0
  138.9200   79.8360  222.1680 C   0  0  0  0  0  0  0  0  0  0  0  0
  140.0440   80.4240  222.7250 C   0  0  0  0  0  0  0  0  0  0  0  0
  141.1290   79.6610  223.0850 C   0  0  0  0  0  0  0  0  0  0  0  0
  142.6460   80.5260  223.8470 Br  0  0  0  0  0  0  0  0  0  0  0  0
  141.0710   78.3100  222.8800 C   0  0  0  0  0  0  0  0  0  0  0  0
  139.9670   77.7400  222.3340 C   0  0  0  0  0  0  0  0  0  0  0  0
  140.0590   71.8330  223.0080 C   0  0  0  0  0  0  0  0  0  0  0  0
  139.5560   70.5630  222.8320 C   0  0  0  0  0  0  0  0  0  0  0  0
  139.5320   69.6330  223.8490 C   0  0  0  0  0  0  0  0  0  0  0  0
  140.0380   70.0160  225.0880 C   0  0  0  0  0  0  0  0  0  0  0  0
  140.0380   69.1130  226.1560 C   0  0  0  0  0  0  0  0  0  0  0  0
  140.5510   69.5370  227.3690 C   0  0  0  0  0  0  0  0  0  0  0  0
  140.5740   68.4500  228.7330 Cl  0  0  0  0  0  0  0  0  0  0  0  0
  141.0550   70.8190  227.5430 C   0  0  0  0  0  0  0  0  0  0  0  0
  141.0510   71.7120  226.4720 C   0  0  0  0  0  0  0  0  0  0  0  0
  140.5410   71.2980  225.2550 C   0  0  0  0  0  0  0  0  0  0  0  0
  140.5310   72.1590  224.2070 N   0  0  0  0  0  0  0  0  0  0  0  0
  138.9660   74.3210  222.8270 H   0  0  0  0  0  0  0  0  0  0  0  0
  140.2353   75.5921  220.8593 H   0  0  0  0  0  0  0  0  0  0  0  0
  139.6275   74.1832  219.8868 H   0  0  0  0  0  0  0  0  0  0  0  0
  136.5013   74.8287  222.3321 H   0  0  0  0  0  0  0  0  0  0  0  0
  137.8492   75.5473  223.3721 H   0  0  0  0  0  0  0  0  0  0  0  0
  135.0340   76.1450  223.2228 H   0  0  0  0  0  0  0  0  0  0  0  0
  136.3569   76.4296  224.5024 H   0  0  0  0  0  0  0  0  0  0  0  0
  134.9839   78.3587  223.4466 H   0  0  0  0  0  0  0  0  0  0  0  0
  136.7599   78.4415  223.8879 H   0  0  0  0  0  0  0  0  0  0  0  0
  135.5550   78.0763  221.1440 H   0  0  0  0  0  0  0  0  0  0  0  0
  136.4606   79.5058  221.8108 H   0  0  0  0  0  0  0  0  0  0  0  0
  137.7949   78.0216  220.2885 H   0  0  0  0  0  0  0  0  0  0  0  0
  138.0678   80.4740  221.8910 H   0  0  0  0  0  0  0  0  0  0  0  0
  140.0683   81.5127  222.8807 H   0  0  0  0  0  0  0  0  0  0  0  0
  141.9275   77.6793  223.1604 H   0  0  0  0  0  0  0  0  0  0  0  0
  139.9615   76.6499  222.1869 H   0  0  0  0  0  0  0  0  0  0  0  0
  139.1596   70.2811  221.8454 H   0  0  0  0  0  0  0  0  0  0  0  0
  139.1270   68.6231  223.6872 H   0  0  0  0  0  0  0  0  0  0  0  0
  139.6412   68.0942  226.0350 H   0  0  0  0  0  0  0  0  0  0  0  0
  141.4550   71.1284  228.5199 H   0  0  0  0  0  0  0  0  0  0  0  0
  141.4477   72.7308  226.5934 H   0  0  0  0  0  0  0  0  0  0  0  0
  1  2  2  0
  2  3  1  0
  3  4  1  0
  4  5  1  0
  5  6  2  0
  5  7  1  0
  7  8  1  0
  8  9  1  0
  9 10  1  0
 10 11  1  0
 11 12  1  0
 12 13  1  0
 13 14  2  0
 14 15  1  0
 15 16  2  0
 16 17  1  0
 16 18  1  0
 18 19  2  0
  2 20  1  0
 20 21  2  0
 21 22  1  0
 22 23  2  0
 23 24  1  0
 24 25  2  0
 25 26  1  0
 25 27  1  0
 27 28  2  0
 28 29  1  0
 29 30  2  0
 12  7  1  0
 19 13  1  0
 30 20  1  0
 29 23  1  0
  3 31  1  0
  4 32  1  0
  4 33  1  0
  8 34  1  0
  8 35  1  0
  9 36  1  0
  9 37  1  0
 10 38  1  0
 10 39  1  0
 11 40  1  0
 11 41  1  0
 12 42  1  6
 14 43  1  0
 15 44  1  0
 18 45  1  0
 19 46  1  0
 21 47  1  0
 22 48  1  0
 24 49  1  0
 27 50  1  0
 28 51  1  0
M  END
>  <smiles>  (55) 
O=C(NCC(=O)N1CCCCC1c1ccc(Br)cc1)c1ccc2cc(Cl)ccc2n1

>  <score_type>  (55) 
oracle

>  <origin>  (55) 
autodockgpu

>  <m_score__min__energy>  (55) 
-9.1600000000000001

>  <m_primary>  (55) 
energy

>  <rmsd>  (55) 
3.62894773433012

>  <m_score__min__rmsd>  (55) 
3.62894773433012

>  <meeko>  (55) 
{"free_energy": -8.57, "intermolecular_energy": -10.06, "internal_energy": -1.48, "cluster_size": 10, "cluster_id": 2, "rank_in_cluster": 4}

>  <energy>  (55) 
-9.09

>  <cluster_rmsd>  (55) 
0.14

>  <cluster>  (55) 
1

$$$$

     RDKit          3D

 51 54  0  0  0  0  0  0  0  0999 V2000
  138.6110   71.4100  220.9670 O   0  0  0  0  0  0  0  0  0  0  0  0
  138.4310   71.7700  222.1640 C   0  0  0  0  0  0  0  0  0  0  0  0
  137.7430   73.0090  222.3450 N   0  0  0  0  0  0  0  0  0  0  0  0
  137.3270   73.7220  221.1740 C   0  0  0  0  0  0  0  0  0  0  0  0
  138.4860   74.2200  220.3760 C   0  0  0  0  0  0  0  0  0  0  0  0
  138.7980   73.7390  219.2570 O   0  0  0  0  0  0  0  0  0  0  0  0
  139.2950   75.2820  220.8740 N   0  0  0  0  0  0  0  0  0  0  0  0
  139.0310   75.7270  222.2240 C   0  0  0  0  0  0  0  0  0  0  0  0
  139.4850   77.0960  222.5600 C   0  0  0  0  0  0  0  0  0  0  0  0
  140.4570   77.7470  221.6530 C   0  0  0  0  0  0  0  0  0  0  0  0
  140.3170   77.3430  220.2090 C   0  0  0  0  0  0  0  0  0  0  0  0
  140.3190   75.8500  220.0270 C   0  0  1  0  0  0  0  0  0  0  0  0
  141.6470   75.2450  220.1660 C   0  0  0  0  0  0  0  0  0  0  0  0
  142.8200   75.8900  219.7980 C   0  0  0  0  0  0  0  0  0  0  0  0
  144.0640   75.2970  219.9390 C   0  0  0  0  0  0  0  0  0  0  0  0
  144.1800   74.0290  220.4570 C   0  0  0  0  0  0  0  0  0  0  0  0
  145.9160   73.2640  220.6280 Br  0  0  0  0  0  0  0  0  0  0  0  0
  143.0400   73.3700  220.8280 C   0  0  0  0  0  0  0  0  0  0  0  0
  141.8250   73.9580  220.6870 C   0  0  0  0  0  0  0  0  0  0  0  0
  138.8930   70.9730  223.2970 C   0  0  0  0  0  0  0  0  0  0  0  0
  138.6620   69.6160  223.2590 C   0  0  0  0  0  0  0  0  0  0  0  0
  139.0580   68.7740  224.2760 C   0  0  0  0  0  0  0  0  0  0  0  0
  139.7100   69.3390  225.3680 C   0  0  0  0  0  0  0  0  0  0  0  0
  140.1330   68.5320  226.4290 C   0  0  0  0  0  0  0  0  0  0  0  0
  140.7770   69.1370  227.4930 C   0  0  0  0  0  0  0  0  0  0  0  0
  141.3250   68.1750  228.8410 Cl  0  0  0  0  0  0  0  0  0  0  0  0
  141.0070   70.5070  227.5270 C   0  0  0  0  0  0  0  0  0  0  0  0
  140.5820   71.3030  226.4650 C   0  0  0  0  0  0  0  0  0  0  0  0
  139.9370   70.7070  225.3960 C   0  0  0  0  0  0  0  0  0  0  0  0
  139.5180   71.4740  224.3580 N   0  0  0  0  0  0  0  0  0  0  0  0
  137.5670   73.3520  223.3210 H   0  0  0  0  0  0  0  0  0  0  0  0
  136.7262   73.0493  220.5443 H   0  0  0  0  0  0  0  0  0  0  0  0
  136.7414   74.5943  221.4998 H   0  0  0  0  0  0  0  0  0  0  0  0
  137.9437   75.6846  222.3851 H   0  0  0  0  0  0  0  0  0  0  0  0
  139.6107   75.0558  222.8747 H   0  0  0  0  0  0  0  0  0  0  0  0
  138.5919   77.7371  222.5972 H   0  0  0  0  0  0  0  0  0  0  0  0
  140.0290   76.9804  223.5091 H   0  0  0  0  0  0  0  0  0  0  0  0
  140.3180   78.8360  221.7220 H   0  0  0  0  0  0  0  0  0  0  0  0
  141.4577   77.4249  221.9768 H   0  0  0  0  0  0  0  0  0  0  0  0
  139.3696   77.7447  219.8203 H   0  0  0  0  0  0  0  0  0  0  0  0
  141.1817   77.7480  219.6628 H   0  0  0  0  0  0  0  0  0  0  0  0
  140.0642   75.6071  218.9848 H   0  0  0  0  0  0  0  0  0  0  0  0
  142.7596   76.9059  219.3805 H   0  0  0  0  0  0  0  0  0  0  0  0
  144.9671   75.8458  219.6337 H   0  0  0  0  0  0  0  0  0  0  0  0
  143.1088   72.3542  221.2444 H   0  0  0  0  0  0  0  0  0  0  0  0
  140.9335   73.3938  220.9984 H   0  0  0  0  0  0  0  0  0  0  0  0
  138.1439   69.1894  222.3875 H   0  0  0  0  0  0  0  0  0  0  0  0
  138.8652   67.6922  224.2261 H   0  0  0  0  0  0  0  0  0  0  0  0
  139.9583   67.4460  226.4176 H   0  0  0  0  0  0  0  0  0  0  0  0
  141.5215   70.9605  228.3870 H   0  0  0  0  0  0  0  0  0  0  0  0
  140.7568   72.3890  226.4765 H   0  0  0  0  0  0  0  0  0  0  0  0
  1  2  2  0
  2  3  1  0
  3  4  1  0
  4  5  1  0
  5  6  2  0
  5  7  1  0
  7  8  1  0
  8  9  1  0
  9 10  1  0
 10 11  1  0
 11 12  1  0
 12 13  1  0
 13 14  2  0
 14 15  1  0
 15 16  2  0
 16 17  1  0
 16 18  1  0
 18 19  2  0
  2 20  1  0
 20 21  2  0
 21 22  1  0
 22 23  2  0
 23 24  1  0
 24 25  2  0
 25 26  1  0
 25 27  1  0
 27 28  2  0
 28 29  1  0
 29 30  2  0
 12  7  1  0
 19 13  1  0
 30 20  1  0
 29 23  1  0
  3 31  1  0
  4 32  1  0
  4 33  1  0
  8 34  1  0
  8 35  1  0
  9 36  1  0
  9 37  1  0
 10 38  1  0
 10 39  1  0
 11 40  1  0
 11 41  1  0
 12 42  1  6
 14 43  1  0
 15 44  1  0
 18 45  1  0
 19 46  1  0
 21 47  1  0
 22 48  1  0
 24 49  1  0
 27 50  1  0
 28 51  1  0
M  END
>  <smiles>  (56) 
O=C(NCC(=O)N1CCCCC1c1ccc(Br)cc1)c1ccc2cc(Cl)ccc2n1

>  <score_type>  (56) 
oracle

>  <origin>  (56) 
autodockgpu

>  <m_score__min__energy>  (56) 
-9.1600000000000001

>  <m_primary>  (56) 
energy

>  <rmsd>  (56) 
2.311849916155314

>  <m_score__min__rmsd>  (56) 
2.311849916155314

>  <meeko>  (56) 
{"free_energy": -8.48, "intermolecular_energy": -9.97, "internal_energy": -1.71, "cluster_size": 32, "cluster_id": 1, "rank_in_cluster": 28}

>  <energy>  (56) 
-8.98

>  <cluster_rmsd>  (56) 
0.17

>  <cluster>  (56) 
1

$$$$

     RDKit          3D

 51 54  0  0  0  0  0  0  0  0999 V2000
  140.0690   72.3420  220.6840 O   0  0  0  0  0  0  0  0  0  0  0  0
  139.6010   72.6160  221.8250 C   0  0  0  0  0  0  0  0  0  0  0  0
  138.8840   73.8470  221.9250 N   0  0  0  0  0  0  0  0  0  0  0  0
  138.7610   74.6500  220.7440 C   0  0  0  0  0  0  0  0  0  0  0  0
  138.6790   76.1070  221.0590 C   0  0  0  0  0  0  0  0  0  0  0  0
  137.5930   76.7400  221.0660 O   0  0  0  0  0  0  0  0  0  0  0  0
  139.8610   76.8410  221.3680 N   0  0  0  0  0  0  0  0  0  0  0  0
  139.9980   77.3190  222.7250 C   0  0  0  0  0  0  0  0  0  0  0  0
  140.9190   78.4620  222.9250 C   0  0  0  0  0  0  0  0  0  0  0  0
  141.8710   78.7840  221.8380 C   0  0  0  0  0  0  0  0  0  0  0  0
  141.3530   78.4770  220.4560 C   0  0  0  0  0  0  0  0  0  0  0  0
  140.8440   77.0670  220.3340 C   0  0  1  0  0  0  0  0  0  0  0  0
  141.9110   76.0640  220.2600 C   0  0  0  0  0  0  0  0  0  0  0  0
  141.8780   74.8630  220.9550 C   0  0  0  0  0  0  0  0  0  0  0  0
  142.9000   73.9320  220.8680 C   0  0  0  0  0  0  0  0  0  0  0  0
  143.9980   74.1690  220.0760 C   0  0  0  0  0  0  0  0  0  0  0  0
  145.3720   72.8520  219.9950 Br  0  0  0  0  0  0  0  0  0  0  0  0
  144.0560   75.3450  219.3800 C   0  0  0  0  0  0  0  0  0  0  0  0
  143.0520   76.2530  219.4700 C   0  0  0  0  0  0  0  0  0  0  0  0
  139.7780   71.7320  222.9740 C   0  0  0  0  0  0  0  0  0  0  0  0
  139.4200   70.4110  222.8240 C   0  0  0  0  0  0  0  0  0  0  0  0
  139.5470   69.4940  223.8450 C   0  0  0  0  0  0  0  0  0  0  0  0
  140.0560   69.9440  225.0600 C   0  0  0  0  0  0  0  0  0  0  0  0
  140.2060   69.0560  226.1310 C   0  0  0  0  0  0  0  0  0  0  0  0
  140.7160   69.5480  227.3180 C   0  0  0  0  0  0  0  0  0  0  0  0
  140.9230   68.4830  228.6850 Cl  0  0  0  0  0  0  0  0  0  0  0  0
  141.0750   70.8810  227.4660 C   0  0  0  0  0  0  0  0  0  0  0  0
  140.9210   71.7590  226.3930 C   0  0  0  0  0  0  0  0  0  0  0  0
  140.4130   71.2770  225.2010 C   0  0  0  0  0  0  0  0  0  0  0  0
  140.2590   72.1220  224.1500 N   0  0  0  0  0  0  0  0  0  0  0  0
  138.4750   74.1210  222.8530 H   0  0  0  0  0  0  0  0  0  0  0  0
  139.6380   74.4748  220.1035 H   0  0  0  0  0  0  0  0  0  0  0  0
  137.8296   74.3615  220.2349 H   0  0  0  0  0  0  0  0  0  0  0  0
  139.0013   77.6256  223.0753 H   0  0  0  0  0  0  0  0  0  0  0  0
  140.4383   76.4834  223.2889 H   0  0  0  0  0  0  0  0  0  0  0  0
  140.3001   79.3556  223.0935 H   0  0  0  0  0  0  0  0  0  0  0  0
  141.5565   78.1578  223.7683 H   0  0  0  0  0  0  0  0  0  0  0  0
  142.1036   79.8579  221.8892 H   0  0  0  0  0  0  0  0  0  0  0  0
  142.7564   78.1500  221.9933 H   0  0  0  0  0  0  0  0  0  0  0  0
  140.5310   79.1704  220.2248 H   0  0  0  0  0  0  0  0  0  0  0  0
  142.1893   78.5936  219.7510 H   0  0  0  0  0  0  0  0  0  0  0  0
  140.3425   76.9409  219.3631 H   0  0  0  0  0  0  0  0  0  0  0  0
  141.0116   74.6432  221.5961 H   0  0  0  0  0  0  0  0  0  0  0  0
  142.8321   72.9939  221.4383 H   0  0  0  0  0  0  0  0  0  0  0  0
  144.9257   75.5568  218.7407 H   0  0  0  0  0  0  0  0  0  0  0  0
  143.1385   77.1855  218.8929 H   0  0  0  0  0  0  0  0  0  0  0  0
  139.0189   70.0760  221.8561 H   0  0  0  0  0  0  0  0  0  0  0  0
  139.2561   68.4425  223.7046 H   0  0  0  0  0  0  0  0  0  0  0  0
  139.9261   67.9969  226.0313 H   0  0  0  0  0  0  0  0  0  0  0  0
  141.4783   71.2425  228.4234 H   0  0  0  0  0  0  0  0  0  0  0  0
  141.1995   72.8184  226.4938 H   0  0  0  0  0  0  0  0  0  0  0  0
  1  2  2  0
  2  3  1  0
  3  4  1  0
  4  5  1  0
  5  6  2  0
  5  7  1  0
  7  8  1  0
  8  9  1  0
  9 10  1  0
 10 11  1  0
 11 12  1  0
 12 13  1  0
 13 14  2  0
 14 15  1  0
 15 16  2  0
 16 17  1  0
 16 18  1  0
 18 19  2  0
  2 20  1  0
 20 21  2  0
 21 22  1  0
 22 23  2  0
 23 24  1  0
 24 25  2  0
 25 26  1  0
 25 27  1  0
 27 28  2  0
 28 29  1  0
 29 30  2  0
 12  7  1  0
 19 13  1  0
 30 20  1  0
 29 23  1  0
  3 31  1  0
  4 32  1  0
  4 33  1  0
  8 34  1  0
  8 35  1  0
  9 36  1  0
  9 37  1  0
 10 38  1  0
 10 39  1  0
 11 40  1  0
 11 41  1  0
 12 42  1  6
 14 43  1  0
 15 44  1  0
 18 45  1  0
 19 46  1  0
 21 47  1  0
 22 48  1  0
 24 49  1  0
 27 50  1  0
 28 51  1  0
M  END
>  <smiles>  (57) 
O=C(NCC(=O)N1CCCCC1c1ccc(Br)cc1)c1ccc2cc(Cl)ccc2n1

>  <score_type>  (57) 
oracle

>  <origin>  (57) 
autodockgpu

>  <m_score__min__energy>  (57) 
-9.1600000000000001

>  <m_primary>  (57) 
energy

>  <rmsd>  (57) 
2.7708781611021647

>  <m_score__min__rmsd>  (57) 
2.7708781611021647

>  <meeko>  (57) 
{"free_energy": -8.98, "intermolecular_energy": -10.47, "internal_energy": -1.83, "cluster_size": 32, "cluster_id": 1, "rank_in_cluster": 6}

>  <energy>  (57) 
-8.97

>  <cluster_rmsd>  (57) 
0.51

>  <cluster>  (57) 
1

$$$$

     RDKit          3D

 51 54  0  0  0  0  0  0  0  0999 V2000
  139.5180   72.1520  220.4950 O   0  0  0  0  0  0  0  0  0  0  0  0
  139.2810   72.5460  221.6720 C   0  0  0  0  0  0  0  0  0  0  0  0
  138.7800   73.8780  221.7940 N   0  0  0  0  0  0  0  0  0  0  0  0
  138.5950   74.6370  220.5920 C   0  0  0  0  0  0  0  0  0  0  0  0
  138.5460   76.1060  220.8560 C   0  0  0  0  0  0  0  0  0  0  0  0
  137.5080   76.7930  220.6850 O   0  0  0  0  0  0  0  0  0  0  0  0
  139.7080   76.7890  221.3200 N   0  0  0  0  0  0  0  0  0  0  0  0
  139.7290   77.1720  222.7130 C   0  0  0  0  0  0  0  0  0  0  0  0
  140.6480   78.2760  223.0730 C   0  0  0  0  0  0  0  0  0  0  0  0
  141.7010   78.6470  222.1010 C   0  0  0  0  0  0  0  0  0  0  0  0
  141.3070   78.4450  220.6600 C   0  0  0  0  0  0  0  0  0  0  0  0
  140.7860   77.0590  220.3960 C   0  0  1  0  0  0  0  0  0  0  0  0
  141.8370   76.0380  220.3510 C   0  0  0  0  0  0  0  0  0  0  0  0
  141.6930   74.7710  220.9000 C   0  0  0  0  0  0  0  0  0  0  0  0
  142.7020   73.8240  220.8430 C   0  0  0  0  0  0  0  0  0  0  0  0
  143.8990   74.1100  220.2310 C   0  0  0  0  0  0  0  0  0  0  0  0
  145.2490   72.7680  220.1830 Br  0  0  0  0  0  0  0  0  0  0  0  0
  144.0670   75.3510  219.6810 C   0  0  0  0  0  0  0  0  0  0  0  0
  143.0740   76.2750  219.7400 C   0  0  0  0  0  0  0  0  0  0  0  0
  139.5020   71.6960  222.8380 C   0  0  0  0  0  0  0  0  0  0  0  0
  139.0950   70.3830  222.7580 C   0  0  0  0  0  0  0  0  0  0  0  0
  139.2570   69.4970  223.8020 C   0  0  0  0  0  0  0  0  0  0  0  0
  139.8550   69.9710  224.9660 C   0  0  0  0  0  0  0  0  0  0  0  0
  140.0440   69.1160  226.0570 C   0  0  0  0  0  0  0  0  0  0  0  0
  140.6420   69.6310  227.1930 C   0  0  0  0  0  0  0  0  0  0  0  0
  140.9010   68.6070  228.5810 Cl  0  0  0  0  0  0  0  0  0  0  0  0
  141.0500   70.9560  227.2700 C   0  0  0  0  0  0  0  0  0  0  0  0
  140.8570   71.8010  226.1770 C   0  0  0  0  0  0  0  0  0  0  0  0
  140.2600   71.2960  225.0370 C   0  0  0  0  0  0  0  0  0  0  0  0
  140.0680   72.1090  223.9680 N   0  0  0  0  0  0  0  0  0  0  0  0
  138.5660   74.2520  222.7510 H   0  0  0  0  0  0  0  0  0  0  0  0
  139.4308   74.4274  219.9082 H   0  0  0  0  0  0  0  0  0  0  0  0
  137.6326   74.3405  220.1494 H   0  0  0  0  0  0  0  0  0  0  0  0
  138.7102   77.4786  222.9923 H   0  0  0  0  0  0  0  0  0  0  0  0
  140.1008   76.2903  223.2555 H   0  0  0  0  0  0  0  0  0  0  0  0
  140.0324   79.1710  223.2462 H   0  0  0  0  0  0  0  0  0  0  0  0
  141.2002   77.9006  223.9472 H   0  0  0  0  0  0  0  0  0  0  0  0
  141.9465   79.7093  222.2464 H   0  0  0  0  0  0  0  0  0  0  0  0
  142.5571   77.9832  222.2919 H   0  0  0  0  0  0  0  0  0  0  0  0
  140.5224   79.1720  220.4032 H   0  0  0  0  0  0  0  0  0  0  0  0
  142.2068   78.5877  220.0435 H   0  0  0  0  0  0  0  0  0  0  0  0
  140.3736   77.0093  219.3774 H   0  0  0  0  0  0  0  0  0  0  0  0
  140.7465   74.5108  221.3965 H   0  0  0  0  0  0  0  0  0  0  0  0
  142.5437   72.8325  221.2923 H   0  0  0  0  0  0  0  0  0  0  0  0
  145.0164   75.6030  219.1858 H   0  0  0  0  0  0  0  0  0  0  0  0
  143.2506   77.2605  219.2843 H   0  0  0  0  0  0  0  0  0  0  0  0
  138.6243   70.0287  221.8291 H   0  0  0  0  0  0  0  0  0  0  0  0
  138.9251   68.4517  223.7178 H   0  0  0  0  0  0  0  0  0  0  0  0
  139.7261   68.0639  226.0127 H   0  0  0  0  0  0  0  0  0  0  0  0
  141.5226   71.3370  228.1873 H   0  0  0  0  0  0  0  0  0  0  0  0
  141.1750   72.8531  226.2216 H   0  0  0  0  0  0  0  0  0  0  0  0
  1  2  2  0
  2  3  1  0
  3  4  1  0
  4  5  1  0
  5  6  2  0
  5  7  1  0
  7  8  1  0
  8  9  1  0
  9 10  1  0
 10 11  1  0
 11 12  1  0
 12 13  1  0
 13 14  2  0
 14 15  1  0
 15 16  2  0
 16 17  1  0
 16 18  1  0
 18 19  2  0
  2 20  1  0
 20 21  2  0
 21 22  1  0
 22 23  2  0
 23 24  1  0
 24 25  2  0
 25 26  1  0
 25 27  1  0
 27 28  2  0
 28 29  1  0
 29 30  2  0
 12  7  1  0
 19 13  1  0
 30 20  1  0
 29 23  1  0
  3 31  1  0
  4 32  1  0
  4 33  1  0
  8 34  1  0
  8 35  1  0
  9 36  1  0
  9 37  1  0
 10 38  1  0
 10 39  1  0
 11 40  1  0
 11 41  1  0
 12 42  1  6
 14 43  1  0
 15 44  1  0
 18 45  1  0
 19 46  1  0
 21 47  1  0
 22 48  1  0
 24 49  1  0
 27 50  1  0
 28 51  1  0
M  END
>  <smiles>  (58) 
O=C(NCC(=O)N1CCCCC1c1ccc(Br)cc1)c1ccc2cc(Cl)ccc2n1

>  <score_type>  (58) 
oracle

>  <origin>  (58) 
autodockgpu

>  <m_score__min__energy>  (58) 
-9.1600000000000001

>  <m_primary>  (58) 
energy

>  <rmsd>  (58) 
2.771845223363238

>  <m_score__min__rmsd>  (58) 
2.771845223363238

>  <meeko>  (58) 
{"free_energy": -8.82, "intermolecular_energy": -10.31, "internal_energy": -1.85, "cluster_size": 32, "cluster_id": 1, "rank_in_cluster": 13}

>  <energy>  (58) 
-8.95

>  <cluster_rmsd>  (58) 
0.21

>  <cluster>  (58) 
1

$$$$

     RDKit          3D

 51 54  0  0  0  0  0  0  0  0999 V2000
  140.5370   75.9100  220.6970 O   0  0  0  0  0  0  0  0  0  0  0  0
  139.6910   75.9660  221.6330 C   0  0  0  0  0  0  0  0  0  0  0  0
  139.0740   74.7280  221.9910 N   0  0  0  0  0  0  0  0  0  0  0  0
  139.4620   73.5530  221.2680 C   0  0  0  0  0  0  0  0  0  0  0  0
  140.0010   72.4900  222.1670 C   0  0  0  0  0  0  0  0  0  0  0  0
  141.0660   72.6290  222.8200 O   0  0  0  0  0  0  0  0  0  0  0  0
  139.3050   71.2550  222.3140 N   0  0  0  0  0  0  0  0  0  0  0  0
  139.5400   70.2480  221.3030 C   0  0  0  0  0  0  0  0  0  0  0  0
  138.4930   69.2110  221.1590 C   0  0  0  0  0  0  0  0  0  0  0  0
  137.5050   69.0660  222.2520 C   0  0  0  0  0  0  0  0  0  0  0  0
  137.1850   70.3540  222.9670 C   0  0  0  0  0  0  0  0  0  0  0  0
  138.4200   71.0710  223.4400 C   0  0  1  0  0  0  0  0  0  0  0  0
  139.0350   70.4580  224.6210 C   0  0  0  0  0  0  0  0  0  0  0  0
  138.6610   69.2160  225.1180 C   0  0  0  0  0  0  0  0  0  0  0  0
  139.2580   68.6590  226.2370 C   0  0  0  0  0  0  0  0  0  0  0  0
  140.2580   69.3270  226.9040 C   0  0  0  0  0  0  0  0  0  0  0  0
  141.0420   68.5110  228.4360 Br  0  0  0  0  0  0  0  0  0  0  0  0
  140.6460   70.5520  226.4350 C   0  0  0  0  0  0  0  0  0  0  0  0
  140.0570   71.0930  225.3390 C   0  0  0  0  0  0  0  0  0  0  0  0
  139.3600   77.2150  222.3130 C   0  0  0  0  0  0  0  0  0  0  0  0
  140.4040   78.0020  222.7450 C   0  0  0  0  0  0  0  0  0  0  0  0
  140.2020   79.2000  223.3970 C   0  0  0  0  0  0  0  0  0  0  0  0
  138.8880   79.6060  223.6140 C   0  0  0  0  0  0  0  0  0  0  0  0
  138.6250   80.8120  224.2700 C   0  0  0  0  0  0  0  0  0  0  0  0
  137.3040   81.1750  224.4630 C   0  0  0  0  0  0  0  0  0  0  0  0
  136.9210   82.6700  225.2770 Cl  0  0  0  0  0  0  0  0  0  0  0  0
  136.2540   80.3780  224.0260 C   0  0  0  0  0  0  0  0  0  0  0  0
  136.5270   79.1760  223.3720 C   0  0  0  0  0  0  0  0  0  0  0  0
  137.8440   78.8050  223.1740 C   0  0  0  0  0  0  0  0  0  0  0  0
  138.1210   77.6380  222.5400 N   0  0  0  0  0  0  0  0  0  0  0  0
  138.3640   74.7210  222.7640 H   0  0  0  0  0  0  0  0  0  0  0  0
  138.5832   73.1568  220.7381 H   0  0  0  0  0  0  0  0  0  0  0  0
  140.2590   73.8369  220.5650 H   0  0  0  0  0  0  0  0  0  0  0  0
  139.6401   70.7609  220.3350 H   0  0  0  0  0  0  0  0  0  0  0  0
  140.4442   69.7113  221.6260 H   0  0  0  0  0  0  0  0  0  0  0  0
  137.9331   69.4366  220.2394 H   0  0  0  0  0  0  0  0  0  0  0  0
  139.0456   68.2599  221.1595 H   0  0  0  0  0  0  0  0  0  0  0  0
  136.5731   68.6673  221.8247 H   0  0  0  0  0  0  0  0  0  0  0  0
  137.9529   68.3922  222.9972 H   0  0  0  0  0  0  0  0  0  0  0  0
  136.6361   71.0131  222.2783 H   0  0  0  0  0  0  0  0  0  0  0  0
  136.5827   70.1044  223.8530 H   0  0  0  0  0  0  0  0  0  0  0  0
  138.1452   72.0680  223.8149 H   0  0  0  0  0  0  0  0  0  0  0  0
  137.8644   68.6563  224.6060 H   0  0  0  0  0  0  0  0  0  0  0  0
  138.9289   67.6725  226.5956 H   0  0  0  0  0  0  0  0  0  0  0  0
  141.4443   71.1045  226.9521 H   0  0  0  0  0  0  0  0  0  0  0  0
  140.3993   72.0807  224.9966 H   0  0  0  0  0  0  0  0  0  0  0  0
  141.4347   77.6633  222.5637 H   0  0  0  0  0  0  0  0  0  0  0  0
  141.0501   79.8140  223.7342 H   0  0  0  0  0  0  0  0  0  0  0  0
  139.4453   81.4544  224.6229 H   0  0  0  0  0  0  0  0  0  0  0  0
  135.2134   80.6924  224.1944 H   0  0  0  0  0  0  0  0  0  0  0  0
  135.7068   78.5334  223.0193 H   0  0  0  0  0  0  0  0  0  0  0  0
  1  2  2  0
  2  3  1  0
  3  4  1  0
  4  5  1  0
  5  6  2  0
  5  7  1  0
  7  8  1  0
  8  9  1  0
  9 10  1  0
 10 11  1  0
 11 12  1  0
 12 13  1  0
 13 14  2  0
 14 15  1  0
 15 16  2  0
 16 17  1  0
 16 18  1  0
 18 19  2  0
  2 20  1  0
 20 21  2  0
 21 22  1  0
 22 23  2  0
 23 24  1  0
 24 25  2  0
 25 26  1  0
 25 27  1  0
 27 28  2  0
 28 29  1  0
 29 30  2  0
 12  7  1  0
 19 13  1  0
 30 20  1  0
 29 23  1  0
  3 31  1  0
  4 32  1  0
  4 33  1  0
  8 34  1  0
  8 35  1  0
  9 36  1  0
  9 37  1  0
 10 38  1  0
 10 39  1  0
 11 40  1  0
 11 41  1  0
 12 42  1  1
 14 43  1  0
 15 44  1  0
 18 45  1  0
 19 46  1  0
 21 47  1  0
 22 48  1  0
 24 49  1  0
 27 50  1  0
 28 51  1  0
M  END
>  <smiles>  (59) 
O=C(NCC(=O)N1CCCCC1c1ccc(Br)cc1)c1ccc2cc(Cl)ccc2n1

>  <score_type>  (59) 
oracle

>  <origin>  (59) 
autodockgpu

>  <m_score__min__energy>  (59) 
-9.1600000000000001

>  <m_primary>  (59) 
energy

>  <rmsd>  (59) 
8.241080166924293

>  <m_score__min__rmsd>  (59) 
8.241080166924293

>  <meeko>  (59) 
{"free_energy": -8.14, "intermolecular_energy": -9.63, "internal_energy": -1.3, "cluster_size": 2, "cluster_id": 6, "rank_in_cluster": 1}

>  <energy>  (59) 
-8.93

>  <cluster_rmsd>  (59) 
0.43

>  <cluster>  (59) 
1

$$$$

     RDKit          3D

 51 54  0  0  0  0  0  0  0  0999 V2000
  140.1910   72.4490  220.7270 O   0  0  0  0  0  0  0  0  0  0  0  0
  139.8930   72.8000  221.9040 C   0  0  0  0  0  0  0  0  0  0  0  0
  139.4690   74.1560  222.0600 N   0  0  0  0  0  0  0  0  0  0  0  0
  139.4210   74.9830  220.8900 C   0  0  0  0  0  0  0  0  0  0  0  0
  138.8400   76.3280  221.1760 C   0  0  0  0  0  0  0  0  0  0  0  0
  137.6020   76.5320  221.2500 O   0  0  0  0  0  0  0  0  0  0  0  0
  139.6960   77.4500  221.3750 N   0  0  0  0  0  0  0  0  0  0  0  0
  140.2490   78.0700  220.1920 C   0  0  0  0  0  0  0  0  0  0  0  0
  141.4810   78.8670  220.3880 C   0  0  0  0  0  0  0  0  0  0  0  0
  141.8400   79.2620  221.7690 C   0  0  0  0  0  0  0  0  0  0  0  0
  141.4200   78.2690  222.8210 C   0  0  0  0  0  0  0  0  0  0  0  0
  139.9650   77.9050  222.7200 C   0  0  1  0  0  0  0  0  0  0  0  0
  139.0650   78.9510  223.2140 C   0  0  0  0  0  0  0  0  0  0  0  0
  139.5100   80.0960  223.8630 C   0  0  0  0  0  0  0  0  0  0  0  0
  138.6380   81.0700  224.3210 C   0  0  0  0  0  0  0  0  0  0  0  0
  137.2820   80.9350  224.1450 C   0  0  0  0  0  0  0  0  0  0  0  0
  136.1320   82.3080  224.7950 Br  0  0  0  0  0  0  0  0  0  0  0  0
  136.8160   79.8180  223.5080 C   0  0  0  0  0  0  0  0  0  0  0  0
  137.6750   78.8670  223.0620 C   0  0  0  0  0  0  0  0  0  0  0  0
  139.9740   71.8830  223.0370 C   0  0  0  0  0  0  0  0  0  0  0  0
  139.5340   70.5930  222.8460 C   0  0  0  0  0  0  0  0  0  0  0  0
  139.5670   69.6480  223.8490 C   0  0  0  0  0  0  0  0  0  0  0  0
  140.0670   70.0370  225.0880 C   0  0  0  0  0  0  0  0  0  0  0  0
  140.1230   69.1190  226.1420 C   0  0  0  0  0  0  0  0  0  0  0  0
  140.6270   69.5500  227.3560 C   0  0  0  0  0  0  0  0  0  0  0  0
  140.7200   68.4450  228.7030 Cl  0  0  0  0  0  0  0  0  0  0  0  0
  141.0700   70.8530  227.5440 C   0  0  0  0  0  0  0  0  0  0  0  0
  141.0100   71.7610  226.4870 C   0  0  0  0  0  0  0  0  0  0  0  0
  140.5070   71.3390  225.2700 C   0  0  0  0  0  0  0  0  0  0  0  0
  140.4440   72.2150  224.2350 N   0  0  0  0  0  0  0  0  0  0  0  0
  139.2090   74.4970  223.0180 H   0  0  0  0  0  0  0  0  0  0  0  0
  140.4433   75.1128  220.5053 H   0  0  0  0  0  0  0  0  0  0  0  0
  138.7762   74.4860  220.1503 H   0  0  0  0  0  0  0  0  0  0  0  0
  140.4766   77.2720  219.4699 H   0  0  0  0  0  0  0  0  0  0  0  0
  139.4864   78.7853  219.8502 H   0  0  0  0  0  0  0  0  0  0  0  0
  142.3192   78.2776  219.9878 H   0  0  0  0  0  0  0  0  0  0  0  0
  141.2782   79.8180  219.8738 H   0  0  0  0  0  0  0  0  0  0  0  0
  142.9324   79.3800  221.8217 H   0  0  0  0  0  0  0  0  0  0  0  0
  141.3012   80.1970  221.9819 H   0  0  0  0  0  0  0  0  0  0  0  0
  142.0213   77.3553  222.7039 H   0  0  0  0  0  0  0  0  0  0  0  0
  141.5807   78.7353  223.8042 H   0  0  0  0  0  0  0  0  0  0  0  0
  139.7470   77.0718  223.4043 H   0  0  0  0  0  0  0  0  0  0  0  0
  140.5903   80.2336  224.0183 H   0  0  0  0  0  0  0  0  0  0  0  0
  139.0350   81.9603  224.8306 H   0  0  0  0  0  0  0  0  0  0  0  0
  135.7342   79.6893  223.3557 H   0  0  0  0  0  0  0  0  0  0  0  0
  137.2583   77.9843  222.5548 H   0  0  0  0  0  0  0  0  0  0  0  0
  139.1425   70.3062  221.8589 H   0  0  0  0  0  0  0  0  0  0  0  0
  139.2104   68.6219  223.6760 H   0  0  0  0  0  0  0  0  0  0  0  0
  139.7761   68.0836  226.0092 H   0  0  0  0  0  0  0  0  0  0  0  0
  141.4660   71.1670  228.5211 H   0  0  0  0  0  0  0  0  0  0  0  0
  141.3573   72.7963  226.6194 H   0  0  0  0  0  0  0  0  0  0  0  0
  1  2  2  0
  2  3  1  0
  3  4  1  0
  4  5  1  0
  5  6  2  0
  5  7  1  0
  7  8  1  0
  8  9  1  0
  9 10  1  0
 10 11  1  0
 11 12  1  0
 12 13  1  0
 13 14  2  0
 14 15  1  0
 15 16  2  0
 16 17  1  0
 16 18  1  0
 18 19  2  0
  2 20  1  0
 20 21  2  0
 21 22  1  0
 22 23  2  0
 23 24  1  0
 24 25  2  0
 25 26  1  0
 25 27  1  0
 27 28  2  0
 28 29  1  0
 29 30  2  0
 12  7  1  0
 19 13  1  0
 30 20  1  0
 29 23  1  0
  3 31  1  0
  4 32  1  0
  4 33  1  0
  8 34  1  0
  8 35  1  0
  9 36  1  0
  9 37  1  0
 10 38  1  0
 10 39  1  0
 11 40  1  0
 11 41  1  0
 12 42  1  1
 14 43  1  0
 15 44  1  0
 18 45  1  0
 19 46  1  0
 21 47  1  0
 22 48  1  0
 24 49  1  0
 27 50  1  0
 28 51  1  0
M  END
>  <smiles>  (60) 
O=C(NCC(=O)N1CCCCC1c1ccc(Br)cc1)c1ccc2cc(Cl)ccc2n1

>  <score_type>  (60) 
oracle

>  <origin>  (60) 
autodockgpu

>  <m_score__min__energy>  (60) 
-9.1600000000000001

>  <m_primary>  (60) 
energy

>  <rmsd>  (60) 
2.859422740129476

>  <m_score__min__rmsd>  (60) 
2.859422740129476

>  <meeko>  (60) 
{"free_energy": -8.67, "intermolecular_energy": -10.16, "internal_energy": -1.38, "cluster_size": 2, "cluster_id": 3, "rank_in_cluster": 1}

>  <energy>  (60) 
-8.93

>  <cluster_rmsd>  (60) 
0.37

>  <cluster>  (60) 
1

$$$$

     RDKit          3D

 51 54  0  0  0  0  0  0  0  0999 V2000
  140.0440   72.8880  220.6920 O   0  0  0  0  0  0  0  0  0  0  0  0
  139.4300   73.0610  221.7820 C   0  0  0  0  0  0  0  0  0  0  0  0
  138.6360   74.2460  221.8680 N   0  0  0  0  0  0  0  0  0  0  0  0
  138.6070   75.1190  220.7310 C   0  0  0  0  0  0  0  0  0  0  0  0
  138.5780   76.5580  221.1270 C   0  0  0  0  0  0  0  0  0  0  0  0
  137.5080   77.2020  221.2670 O   0  0  0  0  0  0  0  0  0  0  0  0
  139.7950   77.2620  221.3600 N   0  0  0  0  0  0  0  0  0  0  0  0
  140.0260   77.7400  222.7050 C   0  0  0  0  0  0  0  0  0  0  0  0
  140.9870   78.8580  222.8440 C   0  0  0  0  0  0  0  0  0  0  0  0
  141.8790   79.1520  221.7000 C   0  0  0  0  0  0  0  0  0  0  0  0
  141.2720   78.8550  220.3540 C   0  0  0  0  0  0  0  0  0  0  0  0
  140.7190   77.4590  220.2680 C   0  0  1  0  0  0  0  0  0  0  0  0
  141.7530   76.4280  220.1350 C   0  0  0  0  0  0  0  0  0  0  0  0
  142.7740   76.4890  219.1940 C   0  0  0  0  0  0  0  0  0  0  0  0
  143.7390   75.5010  219.0890 C   0  0  0  0  0  0  0  0  0  0  0  0
  143.7200   74.4100  219.9250 C   0  0  0  0  0  0  0  0  0  0  0  0
  145.0740   73.0840  219.7330 Br  0  0  0  0  0  0  0  0  0  0  0  0
  142.7260   74.3250  220.8610 C   0  0  0  0  0  0  0  0  0  0  0  0
  141.7830   75.2960  220.9590 C   0  0  0  0  0  0  0  0  0  0  0  0
  139.5210   72.1130  222.8880 C   0  0  0  0  0  0  0  0  0  0  0  0
  138.7100   71.0010  222.8440 C   0  0  0  0  0  0  0  0  0  0  0  0
  138.7180   70.0450  223.8370 C   0  0  0  0  0  0  0  0  0  0  0  0
  139.5840   70.2330  224.9100 C   0  0  0  0  0  0  0  0  0  0  0  0
  139.6340   69.2940  225.9450 C   0  0  0  0  0  0  0  0  0  0  0  0
  140.5090   69.5220  226.9910 C   0  0  0  0  0  0  0  0  0  0  0  0
  140.6100   68.3820  228.3080 Cl  0  0  0  0  0  0  0  0  0  0  0  0
  141.3250   70.6450  227.0320 C   0  0  0  0  0  0  0  0  0  0  0  0
  141.2690   71.5760  225.9950 C   0  0  0  0  0  0  0  0  0  0  0  0
  140.3970   71.3560  224.9440 C   0  0  0  0  0  0  0  0  0  0  0  0
  140.3330   72.2560  223.9300 N   0  0  0  0  0  0  0  0  0  0  0  0
  138.1050   74.4360  222.7540 H   0  0  0  0  0  0  0  0  0  0  0  0
  139.5044   74.9371  220.1215 H   0  0  0  0  0  0  0  0  0  0  0  0
  137.6888   74.9057  220.1641 H   0  0  0  0  0  0  0  0  0  0  0  0
  139.0607   78.0741  223.1132 H   0  0  0  0  0  0  0  0  0  0  0  0
  140.4769   76.8945  223.2452 H   0  0  0  0  0  0  0  0  0  0  0  0
  140.4033   79.7682  223.0464 H   0  0  0  0  0  0  0  0  0  0  0  0
  141.6664   78.5388  223.6480 H   0  0  0  0  0  0  0  0  0  0  0  0
  142.1416   80.2197  221.7324 H   0  0  0  0  0  0  0  0  0  0  0  0
  142.7552   78.4953  221.8044 H   0  0  0  0  0  0  0  0  0  0  0  0
  140.4565   79.5697  220.1692 H   0  0  0  0  0  0  0  0  0  0  0  0
  142.0680   78.9466  219.6004 H   0  0  0  0  0  0  0  0  0  0  0  0
  140.1567   77.3440  219.3296 H   0  0  0  0  0  0  0  0  0  0  0  0
  142.8171   77.3498  218.5105 H   0  0  0  0  0  0  0  0  0  0  0  0
  144.5289   75.5903  218.3287 H   0  0  0  0  0  0  0  0  0  0  0  0
  142.6907   73.4610  221.5409 H   0  0  0  0  0  0  0  0  0  0  0  0
  141.0015   75.1883  221.7256 H   0  0  0  0  0  0  0  0  0  0  0  0
  138.0326   70.8712  221.9871 H   0  0  0  0  0  0  0  0  0  0  0  0
  138.0622   69.1635  223.7831 H   0  0  0  0  0  0  0  0  0  0  0  0
  138.9950   68.3988  225.9275 H   0  0  0  0  0  0  0  0  0  0  0  0
  142.0115   70.7993  227.8775 H   0  0  0  0  0  0  0  0  0  0  0  0
  141.9082   72.4711  226.0126 H   0  0  0  0  0  0  0  0  0  0  0  0
  1  2  2  0
  2  3  1  0
  3  4  1  0
  4  5  1  0
  5  6  2  0
  5  7  1  0
  7  8  1  0
  8  9  1  0
  9 10  1  0
 10 11  1  0
 11 12  1  0
 12 13  1  0
 13 14  2  0
 14 15  1  0
 15 16  2  0
 16 17  1  0
 16 18  1  0
 18 19  2  0
  2 20  1  0
 20 21  2  0
 21 22  1  0
 22 23  2  0
 23 24  1  0
 24 25  2  0
 25 26  1  0
 25 27  1  0
 27 28  2  0
 28 29  1  0
 29 30  2  0
 12  7  1  0
 19 13  1  0
 30 20  1  0
 29 23  1  0
  3 31  1  0
  4 32  1  0
  4 33  1  0
  8 34  1  0
  8 35  1  0
  9 36  1  0
  9 37  1  0
 10 38  1  0
 10 39  1  0
 11 40  1  0
 11 41  1  0
 12 42  1  6
 14 43  1  0
 15 44  1  0
 18 45  1  0
 19 46  1  0
 21 47  1  0
 22 48  1  0
 24 49  1  0
 27 50  1  0
 28 51  1  0
M  END
>  <smiles>  (61) 
O=C(NCC(=O)N1CCCCC1c1ccc(Br)cc1)c1ccc2cc(Cl)ccc2n1

>  <score_type>  (61) 
oracle

>  <origin>  (61) 
autodockgpu

>  <m_score__min__energy>  (61) 
-9.1600000000000001

>  <m_primary>  (61) 
energy

>  <rmsd>  (61) 
2.971493474495727

>  <m_score__min__rmsd>  (61) 
2.971493474495727

>  <meeko>  (61) 
{"free_energy": -8.73, "intermolecular_energy": -10.22, "internal_energy": -1.81, "cluster_size": 32, "cluster_id": 1, "rank_in_cluster": 16}

>  <energy>  (61) 
-8.91

>  <cluster_rmsd>  (61) 
0.28

>  <cluster>  (61) 
1

$$$$

     RDKit          3D

 51 54  0  0  0  0  0  0  0  0999 V2000
  140.0840   72.7310  220.7190 O   0  0  0  0  0  0  0  0  0  0  0  0
  139.6920   72.9640  221.8970 C   0  0  0  0  0  0  0  0  0  0  0  0
  139.1110   74.2510  222.1180 N   0  0  0  0  0  0  0  0  0  0  0  0
  139.0280   75.1490  221.0040 C   0  0  0  0  0  0  0  0  0  0  0  0
  139.6030   76.4910  221.3180 C   0  0  0  0  0  0  0  0  0  0  0  0
  139.2530   77.1620  222.3210 O   0  0  0  0  0  0  0  0  0  0  0  0
  140.5890   77.0650  220.4650 N   0  0  0  0  0  0  0  0  0  0  0  0
  141.1350   78.3430  220.8630 C   0  0  0  0  0  0  0  0  0  0  0  0
  141.7470   79.1560  219.7870 C   0  0  0  0  0  0  0  0  0  0  0  0
  142.0750   78.4830  218.5100 C   0  0  0  0  0  0  0  0  0  0  0  0
  141.1420   77.3540  218.1530 C   0  0  0  0  0  0  0  0  0  0  0  0
  140.9890   76.3590  219.2700 C   0  0  1  0  0  0  0  0  0  0  0  0
  142.1490   75.4760  219.4270 C   0  0  0  0  0  0  0  0  0  0  0  0
  143.0370   75.1910  218.3980 C   0  0  0  0  0  0  0  0  0  0  0  0
  144.1250   74.3530  218.5730 C   0  0  0  0  0  0  0  0  0  0  0  0
  144.3670   73.7650  219.7920 C   0  0  0  0  0  0  0  0  0  0  0  0
  145.8800   72.6210  219.9730 Br  0  0  0  0  0  0  0  0  0  0  0  0
  143.5090   74.0280  220.8230 C   0  0  0  0  0  0  0  0  0  0  0  0
  142.4440   74.8500  220.6450 C   0  0  0  0  0  0  0  0  0  0  0  0
  139.8190   71.9830  222.9710 C   0  0  0  0  0  0  0  0  0  0  0  0
  139.3970   70.6970  222.7130 C   0  0  0  0  0  0  0  0  0  0  0  0
  139.4740   69.6950  223.6570 C   0  0  0  0  0  0  0  0  0  0  0  0
  139.9980   70.0200  224.9050 C   0  0  0  0  0  0  0  0  0  0  0  0
  140.0990   69.0420  225.9000 C   0  0  0  0  0  0  0  0  0  0  0  0
  140.6260   69.4100  227.1240 C   0  0  0  0  0  0  0  0  0  0  0  0
  140.7740   68.2290  228.4000 Cl  0  0  0  0  0  0  0  0  0  0  0  0
  141.0490   70.7080  227.3800 C   0  0  0  0  0  0  0  0  0  0  0  0
  140.9450   71.6760  226.3810 C   0  0  0  0  0  0  0  0  0  0  0  0
  140.4190   71.3170  225.1530 C   0  0  0  0  0  0  0  0  0  0  0  0
  140.3130   72.2510  224.1750 N   0  0  0  0  0  0  0  0  0  0  0  0
  138.7690   74.4940  223.0800 H   0  0  0  0  0  0  0  0  0  0  0  0
  139.5811   74.7157  220.1576 H   0  0  0  0  0  0  0  0  0  0  0  0
  137.9645   75.2860  220.7588 H   0  0  0  0  0  0  0  0  0  0  0  0
  140.3195   78.9329  221.3068 H   0  0  0  0  0  0  0  0  0  0  0  0
  141.9549   78.1093  221.5581 H   0  0  0  0  0  0  0  0  0  0  0  0
  141.0477   79.9731  219.5562 H   0  0  0  0  0  0  0  0  0  0  0  0
  142.7215   79.4631  220.1945 H   0  0  0  0  0  0  0  0  0  0  0  0
  142.0358   79.2315  217.7048 H   0  0  0  0  0  0  0  0  0  0  0  0
  143.0754   78.0421  218.6311 H   0  0  0  0  0  0  0  0  0  0  0  0
  140.1533   77.7745  217.9171 H   0  0  0  0  0  0  0  0  0  0  0  0
  141.5724   76.8246  217.2901 H   0  0  0  0  0  0  0  0  0  0  0  0
  140.1886   75.6466  219.0211 H   0  0  0  0  0  0  0  0  0  0  0  0
  142.8703   75.6464  217.4107 H   0  0  0  0  0  0  0  0  0  0  0  0
  144.8022   74.1558  217.7289 H   0  0  0  0  0  0  0  0  0  0  0  0
  143.6836   73.5686  221.8071 H   0  0  0  0  0  0  0  0  0  0  0  0
  141.7782   75.0342  221.5010 H   0  0  0  0  0  0  0  0  0  0  0  0
  138.9848   70.4618  221.7206 H   0  0  0  0  0  0  0  0  0  0  0  0
  139.1330   68.6738  223.4316 H   0  0  0  0  0  0  0  0  0  0  0  0
  139.7685   68.0095  225.7138 H   0  0  0  0  0  0  0  0  0  0  0  0
  141.4634   70.9710  228.3644 H   0  0  0  0  0  0  0  0  0  0  0  0
  141.2760   72.7084  226.5668 H   0  0  0  0  0  0  0  0  0  0  0  0
  1  2  2  0
  2  3  1  0
  3  4  1  0
  4  5  1  0
  5  6  2  0
  5  7  1  0
  7  8  1  0
  8  9  1  0
  9 10  1  0
 10 11  1  0
 11 12  1  0
 12 13  1  0
 13 14  2  0
 14 15  1  0
 15 16  2  0
 16 17  1  0
 16 18  1  0
 18 19  2  0
  2 20  1  0
 20 21  2  0
 21 22  1  0
 22 23  2  0
 23 24  1  0
 24 25  2  0
 25 26  1  0
 25 27  1  0
 27 28  2  0
 28 29  1  0
 29 30  2  0
 12  7  1  0
 19 13  1  0
 30 20  1  0
 29 23  1  0
  3 31  1  0
  4 32  1  0
  4 33  1  0
  8 34  1  0
  8 35  1  0
  9 36  1  0
  9 37  1  0
 10 38  1  0
 10 39  1  0
 11 40  1  0
 11 41  1  0
 12 42  1  6
 14 43  1  0
 15 44  1  0
 18 45  1  0
 19 46  1  0
 21 47  1  0
 22 48  1  0
 24 49  1  0
 27 50  1  0
 28 51  1  0
M  END
>  <smiles>  (62) 
O=C(NCC(=O)N1CCCCC1c1ccc(Br)cc1)c1ccc2cc(Cl)ccc2n1

>  <score_type>  (62) 
oracle

>  <origin>  (62) 
autodockgpu

>  <m_score__min__energy>  (62) 
-9.1600000000000001

>  <m_primary>  (62) 
energy

>  <rmsd>  (62) 
2.384386399800322

>  <m_score__min__rmsd>  (62) 
2.384386399800322

>  <meeko>  (62) 
{"free_energy": -8.33, "intermolecular_energy": -9.83, "internal_energy": -1.92, "cluster_size": 32, "cluster_id": 1, "rank_in_cluster": 31}

>  <energy>  (62) 
-8.87

>  <cluster_rmsd>  (62) 
0.4

>  <cluster>  (62) 
1

$$$$

     RDKit          3D

 51 54  0  0  0  0  0  0  0  0999 V2000
  139.3870   73.8360  222.3390 O   0  0  0  0  0  0  0  0  0  0  0  0
  139.6030   72.6060  222.1540 C   0  0  0  0  0  0  0  0  0  0  0  0
  139.6530   72.1800  220.7910 N   0  0  0  0  0  0  0  0  0  0  0  0
  139.4560   73.1680  219.7710 C   0  0  0  0  0  0  0  0  0  0  0  0
  140.5540   73.1620  218.7610 C   0  0  0  0  0  0  0  0  0  0  0  0
  140.3960   72.7380  217.5880 O   0  0  0  0  0  0  0  0  0  0  0  0
  141.8480   73.6480  219.1070 N   0  0  0  0  0  0  0  0  0  0  0  0
  142.8190   73.7420  218.0390 C   0  0  0  0  0  0  0  0  0  0  0  0
  144.2420   73.7520  218.4490 C   0  0  0  0  0  0  0  0  0  0  0  0
  144.5520   74.0240  219.8710 C   0  0  0  0  0  0  0  0  0  0  0  0
  143.5020   73.5340  220.8340 C   0  0  0  0  0  0  0  0  0  0  0  0
  142.1240   74.0160  220.4760 C   0  0  1  0  0  0  0  0  0  0  0  0
  141.8950   75.4270  220.7990 C   0  0  0  0  0  0  0  0  0  0  0  0
  141.2010   75.8490  221.9250 C   0  0  0  0  0  0  0  0  0  0  0  0
  140.9990   77.1900  222.2080 C   0  0  0  0  0  0  0  0  0  0  0  0
  141.4880   78.1640  221.3700 C   0  0  0  0  0  0  0  0  0  0  0  0
  141.1790   79.9910  221.8100 Br  0  0  0  0  0  0  0  0  0  0  0  0
  142.1760   77.7760  220.2540 C   0  0  0  0  0  0  0  0  0  0  0  0
  142.3710   76.4610  219.9830 C   0  0  0  0  0  0  0  0  0  0  0  0
  139.7930   71.6720  223.2590 C   0  0  0  0  0  0  0  0  0  0  0  0
  139.4110   70.3630  223.0630 C   0  0  0  0  0  0  0  0  0  0  0  0
  139.5470   69.4020  224.0410 C   0  0  0  0  0  0  0  0  0  0  0  0
  140.0910   69.7920  225.2610 C   0  0  0  0  0  0  0  0  0  0  0  0
  140.2520   68.8580  226.2900 C   0  0  0  0  0  0  0  0  0  0  0  0
  140.7970   69.2910  227.4840 C   0  0  0  0  0  0  0  0  0  0  0  0
  141.0190   68.1660  228.8000 Cl  0  0  0  0  0  0  0  0  0  0  0  0
  141.1800   70.6120  227.6790 C   0  0  0  0  0  0  0  0  0  0  0  0
  141.0160   71.5360  226.6480 C   0  0  0  0  0  0  0  0  0  0  0  0
  140.4720   71.1130  225.4490 C   0  0  0  0  0  0  0  0  0  0  0  0
  140.3070   72.0040  224.4390 N   0  0  0  0  0  0  0  0  0  0  0  0
  139.8310   71.1660  220.5830 H   0  0  0  0  0  0  0  0  0  0  0  0
  138.5034   72.9644  219.2599 H   0  0  0  0  0  0  0  0  0  0  0  0
  139.4476   74.1558  220.2548 H   0  0  0  0  0  0  0  0  0  0  0  0
  142.6680   72.8810  217.3713 H   0  0  0  0  0  0  0  0  0  0  0  0
  142.6420   74.7187  217.5650 H   0  0  0  0  0  0  0  0  0  0  0  0
  144.6597   72.7638  218.2060 H   0  0  0  0  0  0  0  0  0  0  0  0
  144.6798   74.6014  217.9042 H   0  0  0  0  0  0  0  0  0  0  0  0
  145.5039   73.5309  220.1175 H   0  0  0  0  0  0  0  0  0  0  0  0
  144.5988   75.1174  219.9820 H   0  0  0  0  0  0  0  0  0  0  0  0
  143.5037   72.4340  220.8283 H   0  0  0  0  0  0  0  0  0  0  0  0
  143.7481   73.9332  221.8290 H   0  0  0  0  0  0  0  0  0  0  0  0
  141.3826   73.5117  221.1132 H   0  0  0  0  0  0  0  0  0  0  0  0
  140.7981   75.0934  222.6154 H   0  0  0  0  0  0  0  0  0  0  0  0
  140.4421   77.4782  223.1117 H   0  0  0  0  0  0  0  0  0  0  0  0
  142.5756   78.5380  219.5687 H   0  0  0  0  0  0  0  0  0  0  0  0
  142.9319   76.1931  219.0755 H   0  0  0  0  0  0  0  0  0  0  0  0
  138.9824   70.0749  222.0918 H   0  0  0  0  0  0  0  0  0  0  0  0
  139.2361   68.3619  223.8634 H   0  0  0  0  0  0  0  0  0  0  0  0
  139.9532   67.8083  226.1526 H   0  0  0  0  0  0  0  0  0  0  0  0
  141.6101   70.9271  228.6412 H   0  0  0  0  0  0  0  0  0  0  0  0
  141.3148   72.5856  226.7861 H   0  0  0  0  0  0  0  0  0  0  0  0
  1  2  2  0
  2  3  1  0
  3  4  1  0
  4  5  1  0
  5  6  2  0
  5  7  1  0
  7  8  1  0
  8  9  1  0
  9 10  1  0
 10 11  1  0
 11 12  1  0
 12 13  1  0
 13 14  2  0
 14 15  1  0
 15 16  2  0
 16 17  1  0
 16 18  1  0
 18 19  2  0
  2 20  1  0
 20 21  2  0
 21 22  1  0
 22 23  2  0
 23 24  1  0
 24 25  2  0
 25 26  1  0
 25 27  1  0
 27 28  2  0
 28 29  1  0
 29 30  2  0
 12  7  1  0
 19 13  1  0
 30 20  1  0
 29 23  1  0
  3 31  1  0
  4 32  1  0
  4 33  1  0
  8 34  1  0
  8 35  1  0
  9 36  1  0
  9 37  1  0
 10 38  1  0
 10 39  1  0
 11 40  1  0
 11 41  1  0
 12 42  1  1
 14 43  1  0
 15 44  1  0
 18 45  1  0
 19 46  1  0
 21 47  1  0
 22 48  1  0
 24 49  1  0
 27 50  1  0
 28 51  1  0
M  END
>  <smiles>  (63) 
O=C(NCC(=O)N1CCCCC1c1ccc(Br)cc1)c1ccc2cc(Cl)ccc2n1

>  <score_type>  (63) 
oracle

>  <origin>  (63) 
autodockgpu

>  <m_score__min__energy>  (63) 
-9.1600000000000001

>  <m_primary>  (63) 
energy

>  <rmsd>  (63) 
3.014473560487037

>  <m_score__min__rmsd>  (63) 
3.014473560487037

>  <meeko>  (63) 
{"free_energy": -8.13, "intermolecular_energy": -9.62, "internal_energy": -1.7, "cluster_size": 1, "cluster_id": 7, "rank_in_cluster": 1}

>  <energy>  (63) 
-8.82

>  <cluster_rmsd>  (63) 
0.39

>  <cluster>  (63) 
1

$$$$

     RDKit          3D

 51 54  0  0  0  0  0  0  0  0999 V2000
  139.2460   72.2100  220.4350 O   0  0  0  0  0  0  0  0  0  0  0  0
  139.1970   72.6370  221.6230 C   0  0  0  0  0  0  0  0  0  0  0  0
  138.8690   74.0200  221.7740 N   0  0  0  0  0  0  0  0  0  0  0  0
  138.6290   74.7860  220.5870 C   0  0  0  0  0  0  0  0  0  0  0  0
  138.6200   76.2550  220.8570 C   0  0  0  0  0  0  0  0  0  0  0  0
  137.5990   76.9690  220.6960 O   0  0  0  0  0  0  0  0  0  0  0  0
  139.8020   76.9050  221.3170 N   0  0  0  0  0  0  0  0  0  0  0  0
  139.8370   77.2910  222.7090 C   0  0  0  0  0  0  0  0  0  0  0  0
  140.7880   78.3700  223.0640 C   0  0  0  0  0  0  0  0  0  0  0  0
  141.8490   78.7080  222.0890 C   0  0  0  0  0  0  0  0  0  0  0  0
  141.4460   78.5130  220.6500 C   0  0  0  0  0  0  0  0  0  0  0  0
  140.8850   77.1430  220.3900 C   0  0  1  0  0  0  0  0  0  0  0  0
  141.9060   76.0920  220.3450 C   0  0  0  0  0  0  0  0  0  0  0  0
  141.7440   74.8450  220.9340 C   0  0  0  0  0  0  0  0  0  0  0  0
  142.7260   73.8690  220.8760 C   0  0  0  0  0  0  0  0  0  0  0  0
  143.9120   74.1060  220.2230 C   0  0  0  0  0  0  0  0  0  0  0  0
  145.2240   72.7260  220.1770 Br  0  0  0  0  0  0  0  0  0  0  0  0
  144.0980   75.3260  219.6340 C   0  0  0  0  0  0  0  0  0  0  0  0
  143.1320   76.2780  219.6940 C   0  0  0  0  0  0  0  0  0  0  0  0
  139.4570   71.7770  222.7730 C   0  0  0  0  0  0  0  0  0  0  0  0
  139.0540   70.4630  222.6910 C   0  0  0  0  0  0  0  0  0  0  0  0
  139.2520   69.5670  223.7200 C   0  0  0  0  0  0  0  0  0  0  0  0
  139.8830   70.0320  224.8710 C   0  0  0  0  0  0  0  0  0  0  0  0
  140.1100   69.1660  225.9460 C   0  0  0  0  0  0  0  0  0  0  0  0
  140.7400   69.6720  227.0680 C   0  0  0  0  0  0  0  0  0  0  0  0
  141.0460   68.6340  228.4380 Cl  0  0  0  0  0  0  0  0  0  0  0  0
  141.1440   70.9980  227.1470 C   0  0  0  0  0  0  0  0  0  0  0  0
  140.9140   71.8540  226.0700 C   0  0  0  0  0  0  0  0  0  0  0  0
  140.2850   71.3570  224.9430 C   0  0  0  0  0  0  0  0  0  0  0  0
  140.0560   72.1810  223.8890 N   0  0  0  0  0  0  0  0  0  0  0  0
  138.8150   74.4230  222.7420 H   0  0  0  0  0  0  0  0  0  0  0  0
  139.4209   74.5648  219.8562 H   0  0  0  0  0  0  0  0  0  0  0  0
  137.6380   74.5073  220.1993 H   0  0  0  0  0  0  0  0  0  0  0  0
  138.8279   77.6270  222.9897 H   0  0  0  0  0  0  0  0  0  0  0  0
  140.1850   76.4006  223.2531 H   0  0  0  0  0  0  0  0  0  0  0  0
  140.1984   79.2826  223.2357 H   0  0  0  0  0  0  0  0  0  0  0  0
  141.3310   77.9817  223.9383 H   0  0  0  0  0  0  0  0  0  0  0  0
  142.1250   79.7633  222.2306 H   0  0  0  0  0  0  0  0  0  0  0  0
  142.6865   78.0209  222.2801 H   0  0  0  0  0  0  0  0  0  0  0  0
  140.6821   79.2616  220.3930 H   0  0  0  0  0  0  0  0  0  0  0  0
  142.3485   78.6275  220.0317 H   0  0  0  0  0  0  0  0  0  0  0  0
  140.4690   77.1042  219.3724 H   0  0  0  0  0  0  0  0  0  0  0  0
  140.8056   74.6247  221.4639 H   0  0  0  0  0  0  0  0  0  0  0  0
  142.5546   72.8949  221.3574 H   0  0  0  0  0  0  0  0  0  0  0  0
  145.0396   75.5381  219.1064 H   0  0  0  0  0  0  0  0  0  0  0  0
  143.3220   77.2454  219.2061 H   0  0  0  0  0  0  0  0  0  0  0  0
  138.5570   70.1162  221.7730 H   0  0  0  0  0  0  0  0  0  0  0  0
  138.9229   68.5209  223.6347 H   0  0  0  0  0  0  0  0  0  0  0  0
  139.7963   68.1127  225.9000 H   0  0  0  0  0  0  0  0  0  0  0  0
  141.6426   71.3713  228.0537 H   0  0  0  0  0  0  0  0  0  0  0  0
  141.2278   72.9073  226.1163 H   0  0  0  0  0  0  0  0  0  0  0  0
  1  2  2  0
  2  3  1  0
  3  4  1  0
  4  5  1  0
  5  6  2  0
  5  7  1  0
  7  8  1  0
  8  9  1  0
  9 10  1  0
 10 11  1  0
 11 12  1  0
 12 13  1  0
 13 14  2  0
 14 15  1  0
 15 16  2  0
 16 17  1  0
 16 18  1  0
 18 19  2  0
  2 20  1  0
 20 21  2  0
 21 22  1  0
 22 23  2  0
 23 24  1  0
 24 25  2  0
 25 26  1  0
 25 27  1  0
 27 28  2  0
 28 29  1  0
 29 30  2  0
 12  7  1  0
 19 13  1  0
 30 20  1  0
 29 23  1  0
  3 31  1  0
  4 32  1  0
  4 33  1  0
  8 34  1  0
  8 35  1  0
  9 36  1  0
  9 37  1  0
 10 38  1  0
 10 39  1  0
 11 40  1  0
 11 41  1  0
 12 42  1  6
 14 43  1  0
 15 44  1  0
 18 45  1  0
 19 46  1  0
 21 47  1  0
 22 48  1  0
 24 49  1  0
 27 50  1  0
 28 51  1  0
M  END
>  <smiles>  (64) 
O=C(NCC(=O)N1CCCCC1c1ccc(Br)cc1)c1ccc2cc(Cl)ccc2n1

>  <score_type>  (64) 
oracle

>  <origin>  (64) 
autodockgpu

>  <m_score__min__energy>  (64) 
-9.1600000000000001

>  <m_primary>  (64) 
energy

>  <rmsd>  (64) 
2.822397310080761

>  <m_score__min__rmsd>  (64) 
2.822397310080761

>  <meeko>  (64) 
{"free_energy": -8.72, "intermolecular_energy": -10.22, "internal_energy": -1.88, "cluster_size": 32, "cluster_id": 1, "rank_in_cluster": 17}

>  <energy>  (64) 
-8.8

>  <cluster_rmsd>  (64) 
0.41

>  <cluster>  (64) 
1

$$$$

     RDKit          3D

 51 54  0  0  0  0  0  0  0  0999 V2000
  138.9220   71.8170  220.6700 O   0  0  0  0  0  0  0  0  0  0  0  0
  139.0870   72.2950  221.8270 C   0  0  0  0  0  0  0  0  0  0  0  0
  138.9690   73.7150  221.9380 N   0  0  0  0  0  0  0  0  0  0  0  0
  138.6800   74.4590  220.7470 C   0  0  0  0  0  0  0  0  0  0  0  0
  138.5820   75.9250  221.0090 C   0  0  0  0  0  0  0  0  0  0  0  0
  137.4950   76.5540  220.9570 O   0  0  0  0  0  0  0  0  0  0  0  0
  139.7500   76.6740  221.3340 N   0  0  0  0  0  0  0  0  0  0  0  0
  139.8560   77.1680  222.6880 C   0  0  0  0  0  0  0  0  0  0  0  0
  140.7610   78.3220  222.8940 C   0  0  0  0  0  0  0  0  0  0  0  0
  141.7310   78.6420  221.8230 C   0  0  0  0  0  0  0  0  0  0  0  0
  141.2450   78.3150  220.4340 C   0  0  0  0  0  0  0  0  0  0  0  0
  140.7520   76.8990  220.3170 C   0  0  1  0  0  0  0  0  0  0  0  0
  141.8300   75.9060  220.2760 C   0  0  0  0  0  0  0  0  0  0  0  0
  141.7260   74.6440  220.8450 C   0  0  0  0  0  0  0  0  0  0  0  0
  142.7610   73.7240  220.7920 C   0  0  0  0  0  0  0  0  0  0  0  0
  143.9430   74.0340  220.1640 C   0  0  0  0  0  0  0  0  0  0  0  0
  145.3300   72.7280  220.1220 Br  0  0  0  0  0  0  0  0  0  0  0  0
  144.0720   75.2710  219.5940 C   0  0  0  0  0  0  0  0  0  0  0  0
  143.0550   76.1680  219.6500 C   0  0  0  0  0  0  0  0  0  0  0  0
  139.3790   71.4540  222.9840 C   0  0  0  0  0  0  0  0  0  0  0  0
  139.0290   70.1240  222.9110 C   0  0  0  0  0  0  0  0  0  0  0  0
  139.2610   69.2440  223.9470 C   0  0  0  0  0  0  0  0  0  0  0  0
  139.8700   69.7420  225.0950 C   0  0  0  0  0  0  0  0  0  0  0  0
  140.1280   68.8940  226.1770 C   0  0  0  0  0  0  0  0  0  0  0  0
  140.7350   69.4330  227.2970 C   0  0  0  0  0  0  0  0  0  0  0  0
  141.0790   68.4180  228.6740 Cl  0  0  0  0  0  0  0  0  0  0  0  0
  141.0850   70.7750  227.3670 C   0  0  0  0  0  0  0  0  0  0  0  0
  140.8230   71.6130  226.2830 C   0  0  0  0  0  0  0  0  0  0  0  0
  140.2170   71.0840  225.1590 C   0  0  0  0  0  0  0  0  0  0  0  0
  139.9580   71.8900  224.0990 N   0  0  0  0  0  0  0  0  0  0  0  0
  139.0970   74.1610  222.8790 H   0  0  0  0  0  0  0  0  0  0  0  0
  139.4823   74.2826  220.0154 H   0  0  0  0  0  0  0  0  0  0  0  0
  137.7070   74.1183  220.3633 H   0  0  0  0  0  0  0  0  0  0  0  0
  138.8497   77.4680  223.0155 H   0  0  0  0  0  0  0  0  0  0  0  0
  140.2941   76.3430  223.2689 H   0  0  0  0  0  0  0  0  0  0  0  0
  140.1299   79.2110  223.0405 H   0  0  0  0  0  0  0  0  0  0  0  0
  141.3844   78.0333  223.7531 H   0  0  0  0  0  0  0  0  0  0  0  0
  141.9515   79.7188  221.8672 H   0  0  0  0  0  0  0  0  0  0  0  0
  142.6192   78.0185  222.0031 H   0  0  0  0  0  0  0  0  0  0  0  0
  140.4215   78.9979  220.1781 H   0  0  0  0  0  0  0  0  0  0  0  0
  142.0948   78.4320  219.7454 H   0  0  0  0  0  0  0  0  0  0  0  0
  140.2714   76.7578  219.3377 H   0  0  0  0  0  0  0  0  0  0  0  0
  140.7918   74.3653  221.3544 H   0  0  0  0  0  0  0  0  0  0  0  0
  142.6349   72.7354  221.2575 H   0  0  0  0  0  0  0  0  0  0  0  0
  145.0092   75.5412  219.0853 H   0  0  0  0  0  0  0  0  0  0  0  0
  143.2004   77.1515  219.1794 H   0  0  0  0  0  0  0  0  0  0  0  0
  138.5479   69.7509  221.9948 H   0  0  0  0  0  0  0  0  0  0  0  0
  138.9746   68.1848  223.8687 H   0  0  0  0  0  0  0  0  0  0  0  0
  139.8560   67.8289  226.1384 H   0  0  0  0  0  0  0  0  0  0  0  0
  141.5660   71.1749  228.2719 H   0  0  0  0  0  0  0  0  0  0  0  0
  141.0945   72.6783  226.3221 H   0  0  0  0  0  0  0  0  0  0  0  0
  1  2  2  0
  2  3  1  0
  3  4  1  0
  4  5  1  0
  5  6  2  0
  5  7  1  0
  7  8  1  0
  8  9  1  0
  9 10  1  0
 10 11  1  0
 11 12  1  0
 12 13  1  0
 13 14  2  0
 14 15  1  0
 15 16  2  0
 16 17  1  0
 16 18  1  0
 18 19  2  0
  2 20  1  0
 20 21  2  0
 21 22  1  0
 22 23  2  0
 23 24  1  0
 24 25  2  0
 25 26  1  0
 25 27  1  0
 27 28  2  0
 28 29  1  0
 29 30  2  0
 12  7  1  0
 19 13  1  0
 30 20  1  0
 29 23  1  0
  3 31  1  0
  4 32  1  0
  4 33  1  0
  8 34  1  0
  8 35  1  0
  9 36  1  0
  9 37  1  0
 10 38  1  0
 10 39  1  0
 11 40  1  0
 11 41  1  0
 12 42  1  6
 14 43  1  0
 15 44  1  0
 18 45  1  0
 19 46  1  0
 21 47  1  0
 22 48  1  0
 24 49  1  0
 27 50  1  0
 28 51  1  0
M  END
>  <smiles>  (65) 
O=C(NCC(=O)N1CCCCC1c1ccc(Br)cc1)c1ccc2cc(Cl)ccc2n1

>  <score_type>  (65) 
oracle

>  <origin>  (65) 
autodockgpu

>  <m_score__min__energy>  (65) 
-9.1600000000000001

>  <m_primary>  (65) 
energy

>  <rmsd>  (65) 
2.663996139740945

>  <m_score__min__rmsd>  (65) 
2.663996139740945

>  <meeko>  (65) 
{"free_energy": -8.93, "intermolecular_energy": -10.42, "internal_energy": -1.76, "cluster_size": 32, "cluster_id": 1, "rank_in_cluster": 9}

>  <energy>  (65) 
-8.74

>  <cluster_rmsd>  (65) 
0.43

>  <cluster>  (65) 
1

$$$$

     RDKit          3D

 51 54  0  0  0  0  0  0  0  0999 V2000
  138.9380   71.9750  220.8720 O   0  0  0  0  0  0  0  0  0  0  0  0
  139.2350   72.3990  222.0250 C   0  0  0  0  0  0  0  0  0  0  0  0
  139.2990   73.8190  222.1690 N   0  0  0  0  0  0  0  0  0  0  0  0
  139.0270   74.6230  221.0140 C   0  0  0  0  0  0  0  0  0  0  0  0
  137.6000   75.0580  220.9540 C   0  0  0  0  0  0  0  0  0  0  0  0
  136.7920   74.6210  220.0980 O   0  0  0  0  0  0  0  0  0  0  0  0
  137.1020   76.0090  221.8920 N   0  0  0  0  0  0  0  0  0  0  0  0
  136.5000   75.4860  223.0970 C   0  0  0  0  0  0  0  0  0  0  0  0
  135.5640   76.3900  223.8040 C   0  0  0  0  0  0  0  0  0  0  0  0
  135.5890   77.8270  223.4540 C   0  0  0  0  0  0  0  0  0  0  0  0
  135.9480   78.1040  222.0160 C   0  0  0  0  0  0  0  0  0  0  0  0
  137.2210   77.4190  221.6010 C   0  0  1  0  0  0  0  0  0  0  0  0
  138.4290   78.0630  222.1250 C   0  0  0  0  0  0  0  0  0  0  0  0
  139.6570   77.4220  222.2160 C   0  0  0  0  0  0  0  0  0  0  0  0
  140.7840   78.0530  222.7150 C   0  0  0  0  0  0  0  0  0  0  0  0
  140.7240   79.3580  223.1440 C   0  0  0  0  0  0  0  0  0  0  0  0
  142.3060   80.1740  223.8210 Br  0  0  0  0  0  0  0  0  0  0  0  0
  139.5270   80.0140  223.0660 C   0  0  0  0  0  0  0  0  0  0  0  0
  138.4260   79.3890  222.5760 C   0  0  0  0  0  0  0  0  0  0  0  0
  139.4970   71.4990  223.1440 C   0  0  0  0  0  0  0  0  0  0  0  0
  139.1590   70.1730  222.9890 C   0  0  0  0  0  0  0  0  0  0  0  0
  139.3640   69.2400  223.9830 C   0  0  0  0  0  0  0  0  0  0  0  0
  139.9330   69.6790  225.1760 C   0  0  0  0  0  0  0  0  0  0  0  0
  140.1630   68.7760  226.2180 C   0  0  0  0  0  0  0  0  0  0  0  0
  140.7300   69.2570  227.3840 C   0  0  0  0  0  0  0  0  0  0  0  0
  141.0380   68.1730  228.7160 Cl  0  0  0  0  0  0  0  0  0  0  0  0
  141.0680   70.5960  227.5370 C   0  0  0  0  0  0  0  0  0  0  0  0
  140.8350   71.4890  226.4910 C   0  0  0  0  0  0  0  0  0  0  0  0
  140.2690   71.0170  225.3210 C   0  0  0  0  0  0  0  0  0  0  0  0
  140.0370   71.8770  224.2980 N   0  0  0  0  0  0  0  0  0  0  0  0
  139.5420   74.2220  223.1070 H   0  0  0  0  0  0  0  0  0  0  0  0
  139.6687   75.5159  221.0446 H   0  0  0  0  0  0  0  0  0  0  0  0
  139.2324   74.0133  220.1217 H   0  0  0  0  0  0  0  0  0  0  0  0
  135.9472   74.5739  222.8278 H   0  0  0  0  0  0  0  0  0  0  0  0
  137.3336   75.3197  223.7952 H   0  0  0  0  0  0  0  0  0  0  0  0
  134.5453   76.0235  223.6092 H   0  0  0  0  0  0  0  0  0  0  0  0
  135.8905   76.3572  224.8539 H   0  0  0  0  0  0  0  0  0  0  0  0
  134.5912   78.2473  223.6481 H   0  0  0  0  0  0  0  0  0  0  0  0
  136.3725   78.2904  224.0715 H   0  0  0  0  0  0  0  0  0  0  0  0
  135.1296   77.7485  221.3727 H   0  0  0  0  0  0  0  0  0  0  0  0
  136.1009   79.1883  221.9112 H   0  0  0  0  0  0  0  0  0  0  0  0
  137.3572   77.5247  220.5146 H   0  0  0  0  0  0  0  0  0  0  0  0
  139.7374   76.3775  221.8804 H   0  0  0  0  0  0  0  0  0  0  0  0
  141.7363   77.5051  222.7687 H   0  0  0  0  0  0  0  0  0  0  0  0
  139.4554   81.0585  223.4036 H   0  0  0  0  0  0  0  0  0  0  0  0
  137.4828   79.9531  222.5308 H   0  0  0  0  0  0  0  0  0  0  0  0
  138.7099   69.8470  222.0392 H   0  0  0  0  0  0  0  0  0  0  0  0
  139.0877   68.1851  223.8388 H   0  0  0  0  0  0  0  0  0  0  0  0
  139.9004   67.7129  226.1134 H   0  0  0  0  0  0  0  0  0  0  0  0
  141.5165   70.9497  228.4771 H   0  0  0  0  0  0  0  0  0  0  0  0
  141.0975   72.5521  226.5953 H   0  0  0  0  0  0  0  0  0  0  0  0
  1  2  2  0
  2  3  1  0
  3  4  1  0
  4  5  1  0
  5  6  2  0
  5  7  1  0
  7  8  1  0
  8  9  1  0
  9 10  1  0
 10 11  1  0
 11 12  1  0
 12 13  1  0
 13 14  2  0
 14 15  1  0
 15 16  2  0
 16 17  1  0
 16 18  1  0
 18 19  2  0
  2 20  1  0
 20 21  2  0
 21 22  1  0
 22 23  2  0
 23 24  1  0
 24 25  2  0
 25 26  1  0
 25 27  1  0
 27 28  2  0
 28 29  1  0
 29 30  2  0
 12  7  1  0
 19 13  1  0
 30 20  1  0
 29 23  1  0
  3 31  1  0
  4 32  1  0
  4 33  1  0
  8 34  1  0
  8 35  1  0
  9 36  1  0
  9 37  1  0
 10 38  1  0
 10 39  1  0
 11 40  1  0
 11 41  1  0
 12 42  1  6
 14 43  1  0
 15 44  1  0
 18 45  1  0
 19 46  1  0
 21 47  1  0
 22 48  1  0
 24 49  1  0
 27 50  1  0
 28 51  1  0
M  END
>  <smiles>  (66) 
O=C(NCC(=O)N1CCCCC1c1ccc(Br)cc1)c1ccc2cc(Cl)ccc2n1

>  <score_type>  (66) 
oracle

>  <origin>  (66) 
autodockgpu

>  <m_score__min__energy>  (66) 
-9.1600000000000001

>  <m_primary>  (66) 
energy

>  <rmsd>  (66) 
3.8016589127313556

>  <m_score__min__rmsd>  (66) 
3.8016589127313556

>  <meeko>  (66) 
{"free_energy": -8.44, "intermolecular_energy": -9.93, "internal_energy": -1.6, "cluster_size": 1, "cluster_id": 5, "rank_in_cluster": 1}

>  <energy>  (66) 
-8.73

>  <cluster_rmsd>  (66) 
0.48

>  <cluster>  (66) 
1

$$$$

     RDKit          3D

 51 54  0  0  0  0  0  0  0  0999 V2000
  140.0900   72.5100  220.7220 O   0  0  0  0  0  0  0  0  0  0  0  0
  139.6140   72.7590  221.8660 C   0  0  0  0  0  0  0  0  0  0  0  0
  138.8960   73.9880  221.9870 N   0  0  0  0  0  0  0  0  0  0  0  0
  138.7810   74.8160  220.8220 C   0  0  0  0  0  0  0  0  0  0  0  0
  138.6880   76.2650  221.1680 C   0  0  0  0  0  0  0  0  0  0  0  0
  137.5920   76.8690  221.2750 O   0  0  0  0  0  0  0  0  0  0  0  0
  139.8730   77.0260  221.3910 N   0  0  0  0  0  0  0  0  0  0  0  0
  140.0530   77.5830  222.7120 C   0  0  0  0  0  0  0  0  0  0  0  0
  140.9690   78.7430  222.8120 C   0  0  0  0  0  0  0  0  0  0  0  0
  141.8780   79.0090  221.6750 C   0  0  0  0  0  0  0  0  0  0  0  0
  141.3160   78.6170  220.3330 C   0  0  0  0  0  0  0  0  0  0  0  0
  140.8170   77.1980  220.3110 C   0  0  1  0  0  0  0  0  0  0  0  0
  141.8900   76.2020  220.2570 C   0  0  0  0  0  0  0  0  0  0  0  0
  141.8340   74.9840  220.9210 C   0  0  0  0  0  0  0  0  0  0  0  0
  142.8630   74.0590  220.8540 C   0  0  0  0  0  0  0  0  0  0  0  0
  143.9920   74.3200  220.1160 C   0  0  0  0  0  0  0  0  0  0  0  0
  145.3750   73.0100  220.0600 Br  0  0  0  0  0  0  0  0  0  0  0  0
  144.0740   75.5120  219.4510 C   0  0  0  0  0  0  0  0  0  0  0  0
  143.0630   76.4140  219.5210 C   0  0  0  0  0  0  0  0  0  0  0  0
  139.7830   71.8510  222.9960 C   0  0  0  0  0  0  0  0  0  0  0  0
  139.4010   70.5390  222.8240 C   0  0  0  0  0  0  0  0  0  0  0  0
  139.5190   69.6010  223.8270 C   0  0  0  0  0  0  0  0  0  0  0  0
  140.0440   70.0200  225.0470 C   0  0  0  0  0  0  0  0  0  0  0  0
  140.1850   69.1100  226.1000 C   0  0  0  0  0  0  0  0  0  0  0  0
  140.7110   69.5700  227.2930 C   0  0  0  0  0  0  0  0  0  0  0  0
  140.9090   68.4760  228.6380 Cl  0  0  0  0  0  0  0  0  0  0  0  0
  141.0940   70.8940  227.4620 C   0  0  0  0  0  0  0  0  0  0  0  0
  140.9500   71.7940  226.4070 C   0  0  0  0  0  0  0  0  0  0  0  0
  140.4250   71.3430  225.2100 C   0  0  0  0  0  0  0  0  0  0  0  0
  140.2790   72.2100  224.1760 N   0  0  0  0  0  0  0  0  0  0  0  0
  138.4800   74.2420  222.9170 H   0  0  0  0  0  0  0  0  0  0  0  0
  139.6655   74.6593  220.1871 H   0  0  0  0  0  0  0  0  0  0  0  0
  137.8566   74.5339  220.2967 H   0  0  0  0  0  0  0  0  0  0  0  0
  139.0663   77.9015  223.0795 H   0  0  0  0  0  0  0  0  0  0  0  0
  140.5212   76.7852  223.3073 H   0  0  0  0  0  0  0  0  0  0  0  0
  140.3474   79.6399  222.9509 H   0  0  0  0  0  0  0  0  0  0  0  0
  141.6393   78.4932  223.6477 H   0  0  0  0  0  0  0  0  0  0  0  0
  142.1002   80.0861  221.6551 H   0  0  0  0  0  0  0  0  0  0  0  0
  142.7751   78.3929  221.8353 H   0  0  0  0  0  0  0  0  0  0  0  0
  140.4796   79.2891  220.0906 H   0  0  0  0  0  0  0  0  0  0  0  0
  142.1266   78.6983  219.5939 H   0  0  0  0  0  0  0  0  0  0  0  0
  140.2830   77.0103  219.3678 H   0  0  0  0  0  0  0  0  0  0  0  0
  140.9429   74.7456  221.5202 H   0  0  0  0  0  0  0  0  0  0  0  0
  142.7753   73.1063  221.3969 H   0  0  0  0  0  0  0  0  0  0  0  0
  144.9685   75.7418  218.8534 H   0  0  0  0  0  0  0  0  0  0  0  0
  143.1699   77.3608  218.9714 H   0  0  0  0  0  0  0  0  0  0  0  0
  138.9876   70.2291  221.8529 H   0  0  0  0  0  0  0  0  0  0  0  0
  139.2092   68.5574  223.6693 H   0  0  0  0  0  0  0  0  0  0  0  0
  139.8858   68.0581  225.9822 H   0  0  0  0  0  0  0  0  0  0  0  0
  141.5089   71.2310  228.4234 H   0  0  0  0  0  0  0  0  0  0  0  0
  141.2492   72.8459  226.5250 H   0  0  0  0  0  0  0  0  0  0  0  0
  1  2  2  0
  2  3  1  0
  3  4  1  0
  4  5  1  0
  5  6  2  0
  5  7  1  0
  7  8  1  0
  8  9  1  0
  9 10  1  0
 10 11  1  0
 11 12  1  0
 12 13  1  0
 13 14  2  0
 14 15  1  0
 15 16  2  0
 16 17  1  0
 16 18  1  0
 18 19  2  0
  2 20  1  0
 20 21  2  0
 21 22  1  0
 22 23  2  0
 23 24  1  0
 24 25  2  0
 25 26  1  0
 25 27  1  0
 27 28  2  0
 28 29  1  0
 29 30  2  0
 12  7  1  0
 19 13  1  0
 30 20  1  0
 29 23  1  0
  3 31  1  0
  4 32  1  0
  4 33  1  0
  8 34  1  0
  8 35  1  0
  9 36  1  0
  9 37  1  0
 10 38  1  0
 10 39  1  0
 11 40  1  0
 11 41  1  0
 12 42  1  6
 14 43  1  0
 15 44  1  0
 18 45  1  0
 19 46  1  0
 21 47  1  0
 22 48  1  0
 24 49  1  0
 27 50  1  0
 28 51  1  0
M  END
>  <smiles>  (67) 
O=C(NCC(=O)N1CCCCC1c1ccc(Br)cc1)c1ccc2cc(Cl)ccc2n1

>  <score_type>  (67) 
oracle

>  <origin>  (67) 
autodockgpu

>  <m_score__min__energy>  (67) 
-9.1600000000000001

>  <m_primary>  (67) 
energy

>  <rmsd>  (67) 
2.8231662310276473

>  <m_score__min__rmsd>  (67) 
2.8231662310276473

>  <meeko>  (67) 
{"free_energy": -9.13, "intermolecular_energy": -10.62, "internal_energy": -1.76, "cluster_size": 32, "cluster_id": 1, "rank_in_cluster": 3}

>  <energy>  (67) 
-8.72

>  <cluster_rmsd>  (67) 
0.43

>  <cluster>  (67) 
1

$$$$

     RDKit          3D

 51 54  0  0  0  0  0  0  0  0999 V2000
  138.5550   70.9360  221.1610 O   0  0  0  0  0  0  0  0  0  0  0  0
  138.7050   71.6620  222.1830 C   0  0  0  0  0  0  0  0  0  0  0  0
  138.2500   73.0100  222.0630 N   0  0  0  0  0  0  0  0  0  0  0  0
  137.6730   73.4150  220.8150 C   0  0  0  0  0  0  0  0  0  0  0  0
  138.6080   74.2540  220.0080 C   0  0  0  0  0  0  0  0  0  0  0  0
  138.7520   74.1100  218.7680 O   0  0  0  0  0  0  0  0  0  0  0  0
  139.3860   75.2680  220.6390 N   0  0  0  0  0  0  0  0  0  0  0  0
  139.0050   75.6440  221.9820 C   0  0  0  0  0  0  0  0  0  0  0  0
  139.4490   76.9820  222.4360 C   0  0  0  0  0  0  0  0  0  0  0  0
  140.5140   77.6590  221.6620 C   0  0  0  0  0  0  0  0  0  0  0  0
  140.5030   77.3370  220.1900 C   0  0  0  0  0  0  0  0  0  0  0  0
  140.4940   75.8570  219.9250 C   0  0  1  0  0  0  0  0  0  0  0  0
  141.7930   75.2150  220.1510 C   0  0  0  0  0  0  0  0  0  0  0  0
  143.0070   75.8370  219.8910 C   0  0  0  0  0  0  0  0  0  0  0  0
  144.2200   75.2080  220.1130 C   0  0  0  0  0  0  0  0  0  0  0  0
  144.2650   73.9270  220.6080 C   0  0  0  0  0  0  0  0  0  0  0  0
  145.9640   73.1130  220.8940 Br  0  0  0  0  0  0  0  0  0  0  0  0
  143.0840   73.2900  220.8740 C   0  0  0  0  0  0  0  0  0  0  0  0
  141.8980   73.9120  220.6530 C   0  0  0  0  0  0  0  0  0  0  0  0
  139.3060   71.1590  223.4150 C   0  0  0  0  0  0  0  0  0  0  0  0
  140.3340   71.8890  223.9690 C   0  0  0  0  0  0  0  0  0  0  0  0
  140.9690   71.5030  225.1300 C   0  0  0  0  0  0  0  0  0  0  0  0
  140.5380   70.3300  225.7440 C   0  0  0  0  0  0  0  0  0  0  0  0
  141.1470   69.8910  226.9240 C   0  0  0  0  0  0  0  0  0  0  0  0
  140.6860   68.7210  227.4990 C   0  0  0  0  0  0  0  0  0  0  0  0
  141.4110   68.1290  228.9720 Cl  0  0  0  0  0  0  0  0  0  0  0  0
  139.6490   67.9870  226.9370 C   0  0  0  0  0  0  0  0  0  0  0  0
  139.0490   68.4330  225.7600 C   0  0  0  0  0  0  0  0  0  0  0  0
  139.5020   69.6020  225.1780 C   0  0  0  0  0  0  0  0  0  0  0  0
  138.9250   70.0450  224.0330 N   0  0  0  0  0  0  0  0  0  0  0  0
  138.3520   73.6540  222.8860 H   0  0  0  0  0  0  0  0  0  0  0  0
  137.4139   72.5162  220.2361 H   0  0  0  0  0  0  0  0  0  0  0  0
  136.7810   74.0197  221.0355 H   0  0  0  0  0  0  0  0  0  0  0  0
  137.9068   75.6171  222.0395 H   0  0  0  0  0  0  0  0  0  0  0  0
  139.5102   74.9253  222.6440 H   0  0  0  0  0  0  0  0  0  0  0  0
  138.5678   77.6403  222.4255 H   0  0  0  0  0  0  0  0  0  0  0  0
  139.8982   76.8026  223.4239 H   0  0  0  0  0  0  0  0  0  0  0  0
  140.3888   78.7456  221.7790 H   0  0  0  0  0  0  0  0  0  0  0  0
  141.4739   77.2972  222.0590 H   0  0  0  0  0  0  0  0  0  0  0  0
  139.6041   77.7819  219.7382 H   0  0  0  0  0  0  0  0  0  0  0  0
  141.4229   77.7499  219.7504 H   0  0  0  0  0  0  0  0  0  0  0  0
  140.3323   75.6767  218.8520 H   0  0  0  0  0  0  0  0  0  0  0  0
  143.0047   76.8635  219.4956 H   0  0  0  0  0  0  0  0  0  0  0  0
  145.1574   75.7391  219.8909 H   0  0  0  0  0  0  0  0  0  0  0  0
  143.0956   72.2641  221.2707 H   0  0  0  0  0  0  0  0  0  0  0  0
  140.9715   73.3642  220.8800 H   0  0  0  0  0  0  0  0  0  0  0  0
  140.6597   72.8123  223.4675 H   0  0  0  0  0  0  0  0  0  0  0  0
  141.7878   72.1009  225.5566 H   0  0  0  0  0  0  0  0  0  0  0  0
  141.9694   70.4603  227.3817 H   0  0  0  0  0  0  0  0  0  0  0  0
  139.3034   67.0598  227.4175 H   0  0  0  0  0  0  0  0  0  0  0  0
  138.2274   67.8631  225.3015 H   0  0  0  0  0  0  0  0  0  0  0  0
  1  2  2  0
  2  3  1  0
  3  4  1  0
  4  5  1  0
  5  6  2  0
  5  7  1  0
  7  8  1  0
  8  9  1  0
  9 10  1  0
 10 11  1  0
 11 12  1  0
 12 13  1  0
 13 14  2  0
 14 15  1  0
 15 16  2  0
 16 17  1  0
 16 18  1  0
 18 19  2  0
  2 20  1  0
 20 21  2  0
 21 22  1  0
 22 23  2  0
 23 24  1  0
 24 25  2  0
 25 26  1  0
 25 27  1  0
 27 28  2  0
 28 29  1  0
 29 30  2  0
 12  7  1  0
 19 13  1  0
 30 20  1  0
 29 23  1  0
  3 31  1  0
  4 32  1  0
  4 33  1  0
  8 34  1  0
  8 35  1  0
  9 36  1  0
  9 37  1  0
 10 38  1  0
 10 39  1  0
 11 40  1  0
 11 41  1  0
 12 42  1  6
 14 43  1  0
 15 44  1  0
 18 45  1  0
 19 46  1  0
 21 47  1  0
 22 48  1  0
 24 49  1  0
 27 50  1  0
 28 51  1  0
M  END
>  <smiles>  (68) 
O=C(NCC(=O)N1CCCCC1c1ccc(Br)cc1)c1ccc2cc(Cl)ccc2n1

>  <score_type>  (68) 
oracle

>  <origin>  (68) 
autodockgpu

>  <m_score__min__energy>  (68) 
-9.1600000000000001

>  <m_primary>  (68) 
energy

>  <rmsd>  (68) 
3.0744664148502445

>  <m_score__min__rmsd>  (68) 
3.0744664148502445

>  <meeko>  (68) 
{"free_energy": -8.53, "intermolecular_energy": -10.02, "internal_energy": -1.6, "cluster_size": 32, "cluster_id": 1, "rank_in_cluster": 24}

>  <energy>  (68) 
-8.69

>  <cluster_rmsd>  (68) 
0.52

>  <cluster>  (68) 
1

$$$$

     RDKit          3D

 51 54  0  0  0  0  0  0  0  0999 V2000
  139.4520   72.3110  220.4260 O   0  0  0  0  0  0  0  0  0  0  0  0
  139.3010   72.7000  221.6180 C   0  0  0  0  0  0  0  0  0  0  0  0
  138.8750   74.0540  221.7820 N   0  0  0  0  0  0  0  0  0  0  0  0
  138.6600   74.8370  220.6010 C   0  0  0  0  0  0  0  0  0  0  0  0
  138.6210   76.3000  220.8960 C   0  0  0  0  0  0  0  0  0  0  0  0
  137.5760   76.9890  220.7790 O   0  0  0  0  0  0  0  0  0  0  0  0
  139.7990   76.9760  221.3260 N   0  0  0  0  0  0  0  0  0  0  0  0
  139.8560   77.3700  222.7160 C   0  0  0  0  0  0  0  0  0  0  0  0
  140.7930   78.4690  223.0450 C   0  0  0  0  0  0  0  0  0  0  0  0
  141.8270   78.8220  222.0460 C   0  0  0  0  0  0  0  0  0  0  0  0
  141.3980   78.6110  220.6170 C   0  0  0  0  0  0  0  0  0  0  0  0
  140.8580   77.2290  220.3760 C   0  0  1  0  0  0  0  0  0  0  0  0
  141.8980   76.1970  220.3150 C   0  0  0  0  0  0  0  0  0  0  0  0
  143.1250   76.3880  219.6940 C   0  0  0  0  0  0  0  0  0  0  0  0
  144.0910   75.3970  219.6500 C   0  0  0  0  0  0  0  0  0  0  0  0
  143.8650   74.1710  220.2290 C   0  0  0  0  0  0  0  0  0  0  0  0
  145.2310   72.8460  220.1370 Br  0  0  0  0  0  0  0  0  0  0  0  0
  142.6640   73.9560  220.8470 C   0  0  0  0  0  0  0  0  0  0  0  0
  141.7210   74.9310  220.8870 C   0  0  0  0  0  0  0  0  0  0  0  0
  139.5450   71.8260  222.7620 C   0  0  0  0  0  0  0  0  0  0  0  0
  139.1560   70.5090  222.6530 C   0  0  0  0  0  0  0  0  0  0  0  0
  139.3400   69.6010  223.6730 C   0  0  0  0  0  0  0  0  0  0  0  0
  139.9420   70.0550  224.8430 C   0  0  0  0  0  0  0  0  0  0  0  0
  140.1530   69.1760  225.9110 C   0  0  0  0  0  0  0  0  0  0  0  0
  140.7540   69.6710  227.0530 C   0  0  0  0  0  0  0  0  0  0  0  0
  141.0410   68.6170  228.4140 Cl  0  0  0  0  0  0  0  0  0  0  0  0
  141.1440   71.0000  227.1600 C   0  0  0  0  0  0  0  0  0  0  0  0
  140.9290   71.8680  226.0900 C   0  0  0  0  0  0  0  0  0  0  0  0
  140.3290   71.3830  224.9430 C   0  0  0  0  0  0  0  0  0  0  0  0
  140.1150   72.2190  223.8960 N   0  0  0  0  0  0  0  0  0  0  0  0
  138.7340   74.4260  222.7540 H   0  0  0  0  0  0  0  0  0  0  0  0
  139.4770   74.6400  219.8913 H   0  0  0  0  0  0  0  0  0  0  0  0
  137.6858   74.5509  220.1778 H   0  0  0  0  0  0  0  0  0  0  0  0
  138.8467   77.6878  223.0167 H   0  0  0  0  0  0  0  0  0  0  0  0
  140.2326   76.4894  223.2570 H   0  0  0  0  0  0  0  0  0  0  0  0
  140.1895   79.3711  223.2241 H   0  0  0  0  0  0  0  0  0  0  0  0
  141.3617   78.0962  223.9096 H   0  0  0  0  0  0  0  0  0  0  0  0
  142.0853   79.8833  222.1762 H   0  0  0  0  0  0  0  0  0  0  0  0
  142.6815   78.1524  222.2232 H   0  0  0  0  0  0  0  0  0  0  0  0
  140.6147   79.3434  220.3721 H   0  0  0  0  0  0  0  0  0  0  0  0
  142.2852   78.7390  219.9794 H   0  0  0  0  0  0  0  0  0  0  0  0
  140.4220   77.1763  219.3675 H   0  0  0  0  0  0  0  0  0  0  0  0
  143.3366   77.3585  219.2214 H   0  0  0  0  0  0  0  0  0  0  0  0
  145.0492   75.5929  219.1465 H   0  0  0  0  0  0  0  0  0  0  0  0
  142.4603   72.9824  221.3166 H   0  0  0  0  0  0  0  0  0  0  0  0
  140.7691   74.7160  221.3945 H   0  0  0  0  0  0  0  0  0  0  0  0
  138.6823   70.1706  221.7197 H   0  0  0  0  0  0  0  0  0  0  0  0
  139.0221   68.5534  223.5663 H   0  0  0  0  0  0  0  0  0  0  0  0
  139.8492   68.1209  225.8437 H   0  0  0  0  0  0  0  0  0  0  0  0
  141.6191   71.3651  228.0824 H   0  0  0  0  0  0  0  0  0  0  0  0
  141.2324   72.9232  226.1577 H   0  0  0  0  0  0  0  0  0  0  0  0
  1  2  2  0
  2  3  1  0
  3  4  1  0
  4  5  1  0
  5  6  2  0
  5  7  1  0
  7  8  1  0
  8  9  1  0
  9 10  1  0
 10 11  1  0
 11 12  1  0
 12 13  1  0
 13 14  2  0
 14 15  1  0
 15 16  2  0
 16 17  1  0
 16 18  1  0
 18 19  2  0
  2 20  1  0
 20 21  2  0
 21 22  1  0
 22 23  2  0
 23 24  1  0
 24 25  2  0
 25 26  1  0
 25 27  1  0
 27 28  2  0
 28 29  1  0
 29 30  2  0
 12  7  1  0
 19 13  1  0
 30 20  1  0
 29 23  1  0
  3 31  1  0
  4 32  1  0
  4 33  1  0
  8 34  1  0
  8 35  1  0
  9 36  1  0
  9 37  1  0
 10 38  1  0
 10 39  1  0
 11 40  1  0
 11 41  1  0
 12 42  1  6
 14 43  1  0
 15 44  1  0
 18 45  1  0
 19 46  1  0
 21 47  1  0
 22 48  1  0
 24 49  1  0
 27 50  1  0
 28 51  1  0
M  END
>  <smiles>  (69) 
O=C(NCC(=O)N1CCCCC1c1ccc(Br)cc1)c1ccc2cc(Cl)ccc2n1

>  <score_type>  (69) 
oracle

>  <origin>  (69) 
autodockgpu

>  <m_score__min__energy>  (69) 
-9.1600000000000001

>  <m_primary>  (69) 
energy

>  <rmsd>  (69) 
2.85040451112253

>  <m_score__min__rmsd>  (69) 
2.85040451112253

>  <meeko>  (69) 
{"free_energy": -8.87, "intermolecular_energy": -10.36, "internal_energy": -1.85, "cluster_size": 32, "cluster_id": 1, "rank_in_cluster": 12}

>  <energy>  (69) 
-8.69

>  <cluster_rmsd>  (69) 
0.51

>  <cluster>  (69) 
1

$$$$

     RDKit          3D

 51 54  0  0  0  0  0  0  0  0999 V2000
  140.5930   79.0880  218.6370 O   0  0  0  0  0  0  0  0  0  0  0  0
  141.5350   78.6300  219.3430 C   0  0  0  0  0  0  0  0  0  0  0  0
  142.1300   79.5490  220.2600 N   0  0  0  0  0  0  0  0  0  0  0  0
  141.6170   80.8870  220.2960 C   0  0  0  0  0  0  0  0  0  0  0  0
  141.1490   81.2740  221.6600 C   0  0  0  0  0  0  0  0  0  0  0  0
  141.8020   82.0410  222.4100 O   0  0  0  0  0  0  0  0  0  0  0  0
  139.9150   80.7680  222.1630 N   0  0  0  0  0  0  0  0  0  0  0  0
  138.7050   81.2690  221.5520 C   0  0  0  0  0  0  0  0  0  0  0  0
  137.4690   81.1550  222.3610 C   0  0  0  0  0  0  0  0  0  0  0  0
  137.4870   80.2470  223.5300 C   0  0  0  0  0  0  0  0  0  0  0  0
  138.8310   80.1360  224.2030 C   0  0  0  0  0  0  0  0  0  0  0  0
  139.9320   79.8000  223.2350 C   0  0  1  0  0  0  0  0  0  0  0  0
  139.9250   78.3970  222.8080 C   0  0  0  0  0  0  0  0  0  0  0  0
  141.0740   77.6220  222.7170 C   0  0  0  0  0  0  0  0  0  0  0  0
  141.0410   76.2990  222.3100 C   0  0  0  0  0  0  0  0  0  0  0  0
  139.8500   75.6980  221.9770 C   0  0  0  0  0  0  0  0  0  0  0  0
  139.8660   73.8750  221.4250 Br  0  0  0  0  0  0  0  0  0  0  0  0
  138.7030   76.4380  222.0580 C   0  0  0  0  0  0  0  0  0  0  0  0
  138.7420   77.7350  222.4570 C   0  0  0  0  0  0  0  0  0  0  0  0
  141.9900   77.2470  219.2340 C   0  0  0  0  0  0  0  0  0  0  0  0
  141.2780   76.4030  218.4100 C   0  0  0  0  0  0  0  0  0  0  0  0
  141.6230   75.0800  218.2370 C   0  0  0  0  0  0  0  0  0  0  0  0
  142.7330   74.6040  218.9300 C   0  0  0  0  0  0  0  0  0  0  0  0
  143.1280   73.2700  218.7910 C   0  0  0  0  0  0  0  0  0  0  0  0
  144.2360   72.8410  219.4990 C   0  0  0  0  0  0  0  0  0  0  0  0
  144.7710   71.1860  219.3620 Cl  0  0  0  0  0  0  0  0  0  0  0  0
  144.9500   73.6950  220.3300 C   0  0  0  0  0  0  0  0  0  0  0  0
  144.5480   75.0240  220.4610 C   0  0  0  0  0  0  0  0  0  0  0  0
  143.4420   75.4620  219.7580 C   0  0  0  0  0  0  0  0  0  0  0  0
  143.0420   76.7530  219.8790 N   0  0  0  0  0  0  0  0  0  0  0  0
  142.9170   79.2170  220.8700 H   0  0  0  0  0  0  0  0  0  0  0  0
  142.4123   81.5800  219.9843 H   0  0  0  0  0  0  0  0  0  0  0  0
  140.7541   80.9367  219.6157 H   0  0  0  0  0  0  0  0  0  0  0  0
  138.8600   82.3339  221.3240 H   0  0  0  0  0  0  0  0  0  0  0  0
  138.5378   80.6367  220.6676 H   0  0  0  0  0  0  0  0  0  0  0  0
  137.2264   82.1617  222.7320 H   0  0  0  0  0  0  0  0  0  0  0  0
  136.7320   80.7090  221.6769 H   0  0  0  0  0  0  0  0  0  0  0  0
  136.7611   80.6194  224.2678 H   0  0  0  0  0  0  0  0  0  0  0  0
  137.2361   79.2435  223.1558 H   0  0  0  0  0  0  0  0  0  0  0  0
  139.0652   81.0969  224.6845 H   0  0  0  0  0  0  0  0  0  0  0  0
  138.7710   79.3202  224.9384 H   0  0  0  0  0  0  0  0  0  0  0  0
  140.9050   79.8821  223.7415 H   0  0  0  0  0  0  0  0  0  0  0  0
  142.0424   78.0743  222.9769 H   0  0  0  0  0  0  0  0  0  0  0  0
  141.9765   75.7232  222.2525 H   0  0  0  0  0  0  0  0  0  0  0  0
  137.7387   75.9776  221.7971 H   0  0  0  0  0  0  0  0  0  0  0  0
  137.7962   78.2944  222.5071 H   0  0  0  0  0  0  0  0  0  0  0  0
  140.4041   76.7987  217.8717 H   0  0  0  0  0  0  0  0  0  0  0  0
  141.0414   74.4225  217.5741 H   0  0  0  0  0  0  0  0  0  0  0  0
  142.5732   72.5811  218.1370 H   0  0  0  0  0  0  0  0  0  0  0  0
  145.8271   73.3253  220.8814 H   0  0  0  0  0  0  0  0  0  0  0  0
  145.1031   75.7133  221.1142 H   0  0  0  0  0  0  0  0  0  0  0  0
  1  2  2  0
  2  3  1  0
  3  4  1  0
  4  5  1  0
  5  6  2  0
  5  7  1  0
  7  8  1  0
  8  9  1  0
  9 10  1  0
 10 11  1  0
 11 12  1  0
 12 13  1  0
 13 14  2  0
 14 15  1  0
 15 16  2  0
 16 17  1  0
 16 18  1  0
 18 19  2  0
  2 20  1  0
 20 21  2  0
 21 22  1  0
 22 23  2  0
 23 24  1  0
 24 25  2  0
 25 26  1  0
 25 27  1  0
 27 28  2  0
 28 29  1  0
 29 30  2  0
 12  7  1  0
 19 13  1  0
 30 20  1  0
 29 23  1  0
  3 31  1  0
  4 32  1  0
  4 33  1  0
  8 34  1  0
  8 35  1  0
  9 36  1  0
  9 37  1  0
 10 38  1  0
 10 39  1  0
 11 40  1  0
 11 41  1  0
 12 42  1  1
 14 43  1  0
 15 44  1  0
 18 45  1  0
 19 46  1  0
 21 47  1  0
 22 48  1  0
 24 49  1  0
 27 50  1  0
 28 51  1  0
M  END
>  <smiles>  (70) 
O=C(NCC(=O)N1CCCCC1c1ccc(Br)cc1)c1ccc2cc(Cl)ccc2n1

>  <score_type>  (70) 
oracle

>  <origin>  (70) 
autodockgpu

>  <m_score__min__energy>  (70) 
-9.1600000000000001

>  <m_primary>  (70) 
energy

>  <rmsd>  (70) 
8.106329446603397

>  <m_score__min__rmsd>  (70) 
8.106329446603397

>  <meeko>  (70) 
{"free_energy": -6.59, "intermolecular_energy": -8.08, "internal_energy": -3.03, "cluster_size": 1, "cluster_id": 8, "rank_in_cluster": 1}

>  <energy>  (70) 
-8.56

>  <cluster_rmsd>  (70) 
0.8

>  <cluster>  (70) 
1

$$$$

     RDKit          3D

 51 54  0  0  0  0  0  0  0  0999 V2000
  140.3840   72.5400  220.9210 O   0  0  0  0  0  0  0  0  0  0  0  0
  139.8470   72.7570  222.0430 C   0  0  0  0  0  0  0  0  0  0  0  0
  139.1440   73.9950  222.1680 N   0  0  0  0  0  0  0  0  0  0  0  0
  139.1110   74.8660  221.0310 C   0  0  0  0  0  0  0  0  0  0  0  0
  139.4710   76.2700  221.3860 C   0  0  0  0  0  0  0  0  0  0  0  0
  138.9070   76.9020  222.3140 O   0  0  0  0  0  0  0  0  0  0  0  0
  140.4920   76.9530  220.6630 N   0  0  0  0  0  0  0  0  0  0  0  0
  140.9990   78.1760  221.2440 C   0  0  0  0  0  0  0  0  0  0  0  0
  141.6530   79.1200  220.3090 C   0  0  0  0  0  0  0  0  0  0  0  0
  142.0540   78.6130  218.9770 C   0  0  0  0  0  0  0  0  0  0  0  0
  141.1570   77.5300  218.4360 C   0  0  0  0  0  0  0  0  0  0  0  0
  140.9620   76.4030  219.4120 C   0  0  1  0  0  0  0  0  0  0  0  0
  142.1240   75.5160  219.5200 C   0  0  0  0  0  0  0  0  0  0  0  0
  143.0020   75.2790  218.4710 C   0  0  0  0  0  0  0  0  0  0  0  0
  144.0930   74.4350  218.5990 C   0  0  0  0  0  0  0  0  0  0  0  0
  144.3480   73.7950  219.7880 C   0  0  0  0  0  0  0  0  0  0  0  0
  145.8640   72.6470  219.9050 Br  0  0  0  0  0  0  0  0  0  0  0  0
  143.4990   74.0100  220.8380 C   0  0  0  0  0  0  0  0  0  0  0  0
  142.4310   74.8380  220.7060 C   0  0  0  0  0  0  0  0  0  0  0  0
  139.9350   71.8060  223.1470 C   0  0  0  0  0  0  0  0  0  0  0  0
  139.4960   70.5210  222.9190 C   0  0  0  0  0  0  0  0  0  0  0  0
  139.5350   69.5460  223.8930 C   0  0  0  0  0  0  0  0  0  0  0  0
  140.0390   69.8990  225.1420 C   0  0  0  0  0  0  0  0  0  0  0  0
  140.1020   68.9490  226.1670 C   0  0  0  0  0  0  0  0  0  0  0  0
  140.6100   69.3450  227.3910 C   0  0  0  0  0  0  0  0  0  0  0  0
  140.7100   68.1990  228.7040 Cl  0  0  0  0  0  0  0  0  0  0  0  0
  141.0500   70.6420  227.6180 C   0  0  0  0  0  0  0  0  0  0  0  0
  140.9830   71.5820  226.5890 C   0  0  0  0  0  0  0  0  0  0  0  0
  140.4770   71.1960  225.3610 C   0  0  0  0  0  0  0  0  0  0  0  0
  140.4080   72.1020  224.3540 N   0  0  0  0  0  0  0  0  0  0  0  0
  138.6790   74.2220  223.0820 H   0  0  0  0  0  0  0  0  0  0  0  0
  139.8251   74.4961  220.2805 H   0  0  0  0  0  0  0  0  0  0  0  0
  138.0835   74.8698  220.6382 H   0  0  0  0  0  0  0  0  0  0  0  0
  140.1539   78.7001  221.7141 H   0  0  0  0  0  0  0  0  0  0  0  0
  141.7854   77.8648  221.9474 H   0  0  0  0  0  0  0  0  0  0  0  0
  140.9551   79.9543  220.1450 H   0  0  0  0  0  0  0  0  0  0  0  0
  142.6017   79.3809  220.8008 H   0  0  0  0  0  0  0  0  0  0  0  0
  142.0443   79.4552  218.2694 H   0  0  0  0  0  0  0  0  0  0  0  0
  143.0533   78.1684  219.0942 H   0  0  0  0  0  0  0  0  0  0  0  0
  140.1755   77.9686  218.2029 H   0  0  0  0  0  0  0  0  0  0  0  0
  141.6381   77.1151  217.5380 H   0  0  0  0  0  0  0  0  0  0  0  0
  140.1860   75.7207  219.0348 H   0  0  0  0  0  0  0  0  0  0  0  0
  142.8255   75.7778  217.5066 H   0  0  0  0  0  0  0  0  0  0  0  0
  144.7618   74.2755  217.7404 H   0  0  0  0  0  0  0  0  0  0  0  0
  143.6830   73.5073  221.7990 H   0  0  0  0  0  0  0  0  0  0  0  0
  141.7731   74.9836  221.5755 H   0  0  0  0  0  0  0  0  0  0  0  0
  139.1005   70.2634  221.9254 H   0  0  0  0  0  0  0  0  0  0  0  0
  139.1803   68.5247  223.6904 H   0  0  0  0  0  0  0  0  0  0  0  0
  139.7576   67.9171  226.0043 H   0  0  0  0  0  0  0  0  0  0  0  0
  141.4489   70.9268  228.6028 H   0  0  0  0  0  0  0  0  0  0  0  0
  141.3272   72.6140  226.7519 H   0  0  0  0  0  0  0  0  0  0  0  0
  1  2  2  0
  2  3  1  0
  3  4  1  0
  4  5  1  0
  5  6  2  0
  5  7  1  0
  7  8  1  0
  8  9  1  0
  9 10  1  0
 10 11  1  0
 11 12  1  0
 12 13  1  0
 13 14  2  0
 14 15  1  0
 15 16  2  0
 16 17  1  0
 16 18  1  0
 18 19  2  0
  2 20  1  0
 20 21  2  0
 21 22  1  0
 22 23  2  0
 23 24  1  0
 24 25  2  0
 25 26  1  0
 25 27  1  0
 27 28  2  0
 28 29  1  0
 29 30  2  0
 12  7  1  0
 19 13  1  0
 30 20  1  0
 29 23  1  0
  3 31  1  0
  4 32  1  0
  4 33  1  0
  8 34  1  0
  8 35  1  0
  9 36  1  0
  9 37  1  0
 10 38  1  0
 10 39  1  0
 11 40  1  0
 11 41  1  0
 12 42  1  6
 14 43  1  0
 15 44  1  0
 18 45  1  0
 19 46  1  0
 21 47  1  0
 22 48  1  0
 24 49  1  0
 27 50  1  0
 28 51  1  0
M  END
>  <smiles>  (71) 
O=C(NCC(=O)N1CCCCC1c1ccc(Br)cc1)c1ccc2cc(Cl)ccc2n1

>  <score_type>  (71) 
oracle

>  <origin>  (71) 
autodockgpu

>  <m_score__min__energy>  (71) 
-9.1600000000000001

>  <m_primary>  (71) 
energy

>  <rmsd>  (71) 
2.369386264572162

>  <m_score__min__rmsd>  (71) 
2.369386264572162

>  <meeko>  (71) 
{"free_energy": -8.53, "intermolecular_energy": -10.02, "internal_energy": -1.87, "cluster_size": 32, "cluster_id": 1, "rank_in_cluster": 23}

>  <energy>  (71) 
-8.54

>  <cluster_rmsd>  (71) 
1.27

>  <cluster>  (71) 
1

$$$$

     RDKit          3D

 51 54  0  0  0  0  0  0  0  0999 V2000
  140.2850   72.6050  220.8390 O   0  0  0  0  0  0  0  0  0  0  0  0
  139.6560   72.7890  221.9180 C   0  0  0  0  0  0  0  0  0  0  0  0
  138.8260   73.9510  221.9660 N   0  0  0  0  0  0  0  0  0  0  0  0
  138.7820   74.7920  220.8060 C   0  0  0  0  0  0  0  0  0  0  0  0
  138.6730   76.2370  221.1620 C   0  0  0  0  0  0  0  0  0  0  0  0
  137.5690   76.8270  221.2760 O   0  0  0  0  0  0  0  0  0  0  0  0
  139.8490   77.0100  221.3860 N   0  0  0  0  0  0  0  0  0  0  0  0
  140.0100   77.5880  222.7020 C   0  0  0  0  0  0  0  0  0  0  0  0
  140.9150   78.7570  222.7950 C   0  0  0  0  0  0  0  0  0  0  0  0
  141.8350   79.0140  221.6640 C   0  0  0  0  0  0  0  0  0  0  0  0
  141.2900   78.5990  220.3220 C   0  0  0  0  0  0  0  0  0  0  0  0
  140.8030   77.1760  220.3140 C   0  0  1  0  0  0  0  0  0  0  0  0
  141.8850   76.1870  220.2870 C   0  0  0  0  0  0  0  0  0  0  0  0
  141.8310   74.9780  220.9660 C   0  0  0  0  0  0  0  0  0  0  0  0
  142.8680   74.0610  220.9240 C   0  0  0  0  0  0  0  0  0  0  0  0
  144.0030   74.3210  220.1950 C   0  0  0  0  0  0  0  0  0  0  0  0
  145.3970   73.0220  220.1730 Br  0  0  0  0  0  0  0  0  0  0  0  0
  144.0830   75.5050  219.5150 C   0  0  0  0  0  0  0  0  0  0  0  0
  143.0640   76.4000  219.5610 C   0  0  0  0  0  0  0  0  0  0  0  0
  139.7640   71.8730  223.0500 C   0  0  0  0  0  0  0  0  0  0  0  0
  139.2210   70.6160  222.9090 C   0  0  0  0  0  0  0  0  0  0  0  0
  139.2700   69.6760  223.9160 C   0  0  0  0  0  0  0  0  0  0  0  0
  139.8940   70.0350  225.1070 C   0  0  0  0  0  0  0  0  0  0  0  0
  139.9720   69.1200  226.1620 C   0  0  0  0  0  0  0  0  0  0  0  0
  140.6010   69.5200  227.3270 C   0  0  0  0  0  0  0  0  0  0  0  0
  140.7250   68.4180  228.6740 Cl  0  0  0  0  0  0  0  0  0  0  0  0
  141.1460   70.7900  227.4660 C   0  0  0  0  0  0  0  0  0  0  0  0
  141.0640   71.6950  226.4080 C   0  0  0  0  0  0  0  0  0  0  0  0
  140.4370   71.3040  225.2390 C   0  0  0  0  0  0  0  0  0  0  0  0
  140.3510   72.1770  224.2040 N   0  0  0  0  0  0  0  0  0  0  0  0
  138.2810   74.1480  222.8410 H   0  0  0  0  0  0  0  0  0  0  0  0
  139.7018   74.6392  220.2224 H   0  0  0  0  0  0  0  0  0  0  0  0
  137.8892   74.5190  220.2243 H   0  0  0  0  0  0  0  0  0  0  0  0
  139.0167   77.9033  223.0542 H   0  0  0  0  0  0  0  0  0  0  0  0
  140.4783   76.8029  223.3138 H   0  0  0  0  0  0  0  0  0  0  0  0
  140.2844   79.6505  222.9135 H   0  0  0  0  0  0  0  0  0  0  0  0
  141.5778   78.5253  223.6418 H   0  0  0  0  0  0  0  0  0  0  0  0
  142.0497   80.0924  221.6313 H   0  0  0  0  0  0  0  0  0  0  0  0
  142.7350   78.4072  221.8426 H   0  0  0  0  0  0  0  0  0  0  0  0
  140.4506   79.2607  220.0620 H   0  0  0  0  0  0  0  0  0  0  0  0
  142.1076   78.6769  219.5902 H   0  0  0  0  0  0  0  0  0  0  0  0
  140.2816   76.9725  219.3670 H   0  0  0  0  0  0  0  0  0  0  0  0
  140.9345   74.7400  221.5574 H   0  0  0  0  0  0  0  0  0  0  0  0
  142.7820   73.1155  221.4796 H   0  0  0  0  0  0  0  0  0  0  0  0
  144.9825   75.7341  218.9248 H   0  0  0  0  0  0  0  0  0  0  0  0
  143.1691   77.3403  218.9999 H   0  0  0  0  0  0  0  0  0  0  0  0
  138.7311   70.3526  221.9600 H   0  0  0  0  0  0  0  0  0  0  0  0
  138.8309   68.6763  223.7828 H   0  0  0  0  0  0  0  0  0  0  0  0
  139.5451   68.1106  226.0678 H   0  0  0  0  0  0  0  0  0  0  0  0
  141.6395   71.0804  228.4052 H   0  0  0  0  0  0  0  0  0  0  0  0
  141.4914   72.7042  226.5019 H   0  0  0  0  0  0  0  0  0  0  0  0
  1  2  2  0
  2  3  1  0
  3  4  1  0
  4  5  1  0
  5  6  2  0
  5  7  1  0
  7  8  1  0
  8  9  1  0
  9 10  1  0
 10 11  1  0
 11 12  1  0
 12 13  1  0
 13 14  2  0
 14 15  1  0
 15 16  2  0
 16 17  1  0
 16 18  1  0
 18 19  2  0
  2 20  1  0
 20 21  2  0
 21 22  1  0
 22 23  2  0
 23 24  1  0
 24 25  2  0
 25 26  1  0
 25 27  1  0
 27 28  2  0
 28 29  1  0
 29 30  2  0
 12  7  1  0
 19 13  1  0
 30 20  1  0
 29 23  1  0
  3 31  1  0
  4 32  1  0
  4 33  1  0
  8 34  1  0
  8 35  1  0
  9 36  1  0
  9 37  1  0
 10 38  1  0
 10 39  1  0
 11 40  1  0
 11 41  1  0
 12 42  1  6
 14 43  1  0
 15 44  1  0
 18 45  1  0
 19 46  1  0
 21 47  1  0
 22 48  1  0
 24 49  1  0
 27 50  1  0
 28 51  1  0
M  END
>  <smiles>  (72) 
O=C(NCC(=O)N1CCCCC1c1ccc(Br)cc1)c1ccc2cc(Cl)ccc2n1

>  <score_type>  (72) 
oracle

>  <origin>  (72) 
autodockgpu

>  <m_score__min__energy>  (72) 
-9.1600000000000001

>  <m_primary>  (72) 
energy

>  <rmsd>  (72) 
2.8170043201462756

>  <m_score__min__rmsd>  (72) 
2.8170043201462756

>  <meeko>  (72) 
{"free_energy": -9.09, "intermolecular_energy": -10.59, "internal_energy": -1.67, "cluster_size": 32, "cluster_id": 1, "rank_in_cluster": 5}

>  <energy>  (72) 
-8.53

>  <cluster_rmsd>  (72) 
1.27

>  <cluster>  (72) 
1

$$$$

     RDKit          3D

 51 54  0  0  0  0  0  0  0  0999 V2000
  138.6120   70.9880  220.9890 O   0  0  0  0  0  0  0  0  0  0  0  0
  138.6540   71.6760  222.0480 C   0  0  0  0  0  0  0  0  0  0  0  0
  138.0770   72.9800  221.9660 N   0  0  0  0  0  0  0  0  0  0  0  0
  137.5120   73.3870  220.7130 C   0  0  0  0  0  0  0  0  0  0  0  0
  138.2670   74.5170  220.0960 C   0  0  0  0  0  0  0  0  0  0  0  0
  137.7010   75.5360  219.6260 O   0  0  0  0  0  0  0  0  0  0  0  0
  139.6900   74.4700  220.0180 N   0  0  0  0  0  0  0  0  0  0  0  0
  140.2650   74.2200  218.7150 C   0  0  0  0  0  0  0  0  0  0  0  0
  141.6450   73.6820  218.7040 C   0  0  0  0  0  0  0  0  0  0  0  0
  142.4380   73.7800  219.9500 C   0  0  0  0  0  0  0  0  0  0  0  0
  141.6160   73.6960  221.2100 C   0  0  0  0  0  0  0  0  0  0  0  0
  140.4710   74.6710  221.2150 C   0  0  1  0  0  0  0  0  0  0  0  0
  140.8840   76.0560  221.4640 C   0  0  0  0  0  0  0  0  0  0  0  0
  141.4760   76.8600  220.5000 C   0  0  0  0  0  0  0  0  0  0  0  0
  141.8570   78.1660  220.7610 C   0  0  0  0  0  0  0  0  0  0  0  0
  141.6580   78.7190  222.0030 C   0  0  0  0  0  0  0  0  0  0  0  0
  142.2020   80.5190  222.3030 Br  0  0  0  0  0  0  0  0  0  0  0  0
  141.0760   77.9490  222.9720 C   0  0  0  0  0  0  0  0  0  0  0  0
  140.7050   76.6700  222.7100 C   0  0  0  0  0  0  0  0  0  0  0  0
  139.2520   71.1740  223.2810 C   0  0  0  0  0  0  0  0  0  0  0  0
  140.2590   71.9200  223.8520 C   0  0  0  0  0  0  0  0  0  0  0  0
  140.8910   71.5360  225.0150 C   0  0  0  0  0  0  0  0  0  0  0  0
  140.4780   70.3500  225.6150 C   0  0  0  0  0  0  0  0  0  0  0  0
  141.0830   69.9130  226.7970 C   0  0  0  0  0  0  0  0  0  0  0  0
  140.6410   68.7280  227.3570 C   0  0  0  0  0  0  0  0  0  0  0  0
  141.3630   68.1380  228.8320 Cl  0  0  0  0  0  0  0  0  0  0  0  0
  139.6250   67.9790  226.7780 C   0  0  0  0  0  0  0  0  0  0  0  0
  139.0270   68.4230  225.6000 C   0  0  0  0  0  0  0  0  0  0  0  0
  139.4620   69.6060  225.0320 C   0  0  0  0  0  0  0  0  0  0  0  0
  138.8880   70.0470  223.8850 N   0  0  0  0  0  0  0  0  0  0  0  0
  138.0860   73.5920  222.8200 H   0  0  0  0  0  0  0  0  0  0  0  0
  137.5279   72.5310  220.0223 H   0  0  0  0  0  0  0  0  0  0  0  0
  136.4838   73.7299  220.9010 H   0  0  0  0  0  0  0  0  0  0  0  0
  139.6185   73.4975  218.1954 H   0  0  0  0  0  0  0  0  0  0  0  0
  140.3274   75.2033  218.2260 H   0  0  0  0  0  0  0  0  0  0  0  0
  141.5786   72.6159  218.4413 H   0  0  0  0  0  0  0  0  0  0  0  0
  142.1825   74.3178  217.9850 H   0  0  0  0  0  0  0  0  0  0  0  0
  143.1697   72.9587  219.9594 H   0  0  0  0  0  0  0  0  0  0  0  0
  142.9132   74.7720  219.9466 H   0  0  0  0  0  0  0  0  0  0  0  0
  141.2122   72.6768  221.3008 H   0  0  0  0  0  0  0  0  0  0  0  0
  142.2730   73.9468  222.0558 H   0  0  0  0  0  0  0  0  0  0  0  0
  139.8185   74.4671  222.0768 H   0  0  0  0  0  0  0  0  0  0  0  0
  141.6484   76.4465  219.4954 H   0  0  0  0  0  0  0  0  0  0  0  0
  142.3235   78.7663  219.9660 H   0  0  0  0  0  0  0  0  0  0  0  0
  140.9069   78.3706  223.9738 H   0  0  0  0  0  0  0  0  0  0  0  0
  140.2399   76.0857  223.5177 H   0  0  0  0  0  0  0  0  0  0  0  0
  140.5697   72.8549  223.3628 H   0  0  0  0  0  0  0  0  0  0  0  0
  141.6943   72.1459  225.4540 H   0  0  0  0  0  0  0  0  0  0  0  0
  141.8882   70.4954  227.2687 H   0  0  0  0  0  0  0  0  0  0  0  0
  139.2940   67.0404  227.2466 H   0  0  0  0  0  0  0  0  0  0  0  0
  138.2210   67.8409  225.1293 H   0  0  0  0  0  0  0  0  0  0  0  0
  1  2  2  0
  2  3  1  0
  3  4  1  0
  4  5  1  0
  5  6  2  0
  5  7  1  0
  7  8  1  0
  8  9  1  0
  9 10  1  0
 10 11  1  0
 11 12  1  0
 12 13  1  0
 13 14  2  0
 14 15  1  0
 15 16  2  0
 16 17  1  0
 16 18  1  0
 18 19  2  0
  2 20  1  0
 20 21  2  0
 21 22  1  0
 22 23  2  0
 23 24  1  0
 24 25  2  0
 25 26  1  0
 25 27  1  0
 27 28  2  0
 28 29  1  0
 29 30  2  0
 12  7  1  0
 19 13  1  0
 30 20  1  0
 29 23  1  0
  3 31  1  0
  4 32  1  0
  4 33  1  0
  8 34  1  0
  8 35  1  0
  9 36  1  0
  9 37  1  0
 10 38  1  0
 10 39  1  0
 11 40  1  0
 11 41  1  0
 12 42  1  1
 14 43  1  0
 15 44  1  0
 18 45  1  0
 19 46  1  0
 21 47  1  0
 22 48  1  0
 24 49  1  0
 27 50  1  0
 28 51  1  0
M  END
>  <smiles>  (73) 
O=C(NCC(=O)N1CCCCC1c1ccc(Br)cc1)c1ccc2cc(Cl)ccc2n1

>  <score_type>  (73) 
oracle

>  <origin>  (73) 
autodockgpu

>  <m_score__min__energy>  (73) 
-9.1600000000000001

>  <m_primary>  (73) 
energy

>  <rmsd>  (73) 
3.015738766971106

>  <m_score__min__rmsd>  (73) 
3.015738766971106

>  <meeko>  (73) 
{"free_energy": -8.18, "intermolecular_energy": -9.67, "internal_energy": -1.88, "cluster_size": 10, "cluster_id": 2, "rank_in_cluster": 10}

>  <energy>  (73) 
-8.53

>  <cluster_rmsd>  (73) 
0.81

>  <cluster>  (73) 
1

$$$$

     RDKit          3D

 51 54  0  0  0  0  0  0  0  0999 V2000
  139.8660   72.1520  220.7850 O   0  0  0  0  0  0  0  0  0  0  0  0
  139.7930   72.5410  221.9850 C   0  0  0  0  0  0  0  0  0  0  0  0
  139.5940   73.9430  222.1750 N   0  0  0  0  0  0  0  0  0  0  0  0
  139.4970   74.7710  221.0090 C   0  0  0  0  0  0  0  0  0  0  0  0
  138.1080   75.2700  220.7860 C   0  0  0  0  0  0  0  0  0  0  0  0
  137.3890   74.8760  219.8330 O   0  0  0  0  0  0  0  0  0  0  0  0
  137.5430   76.2340  221.6700 N   0  0  0  0  0  0  0  0  0  0  0  0
  136.8680   75.7280  222.8440 C   0  0  0  0  0  0  0  0  0  0  0  0
  135.8810   76.6370  223.4720 C   0  0  0  0  0  0  0  0  0  0  0  0
  135.9180   78.0680  223.0950 C   0  0  0  0  0  0  0  0  0  0  0  0
  136.3670   78.3200  221.6790 C   0  0  0  0  0  0  0  0  0  0  0  0
  137.6690   77.6390  221.3600 C   0  0  1  0  0  0  0  0  0  0  0  0
  138.8360   78.3040  221.9480 C   0  0  0  0  0  0  0  0  0  0  0  0
  139.9780   77.6240  222.3520 C   0  0  0  0  0  0  0  0  0  0  0  0
  141.0670   78.2770  222.9050 C   0  0  0  0  0  0  0  0  0  0  0  0
  141.0550   79.6400  223.0760 C   0  0  0  0  0  0  0  0  0  0  0  0
  142.5820   80.4830  223.8420 Br  0  0  0  0  0  0  0  0  0  0  0  0
  139.9420   80.3350  222.6870 C   0  0  0  0  0  0  0  0  0  0  0  0
  138.8780   79.6900  222.1450 C   0  0  0  0  0  0  0  0  0  0  0  0
  139.9030   71.6190  223.1120 C   0  0  0  0  0  0  0  0  0  0  0  0
  139.4780   70.3230  222.9200 C   0  0  0  0  0  0  0  0  0  0  0  0
  139.5390   69.3740  223.9180 C   0  0  0  0  0  0  0  0  0  0  0  0
  140.0510   69.7630  225.1520 C   0  0  0  0  0  0  0  0  0  0  0  0
  140.1360   68.8410  226.2000 C   0  0  0  0  0  0  0  0  0  0  0  0
  140.6520   69.2730  227.4080 C   0  0  0  0  0  0  0  0  0  0  0  0
  140.7790   68.1630  228.7480 Cl  0  0  0  0  0  0  0  0  0  0  0  0
  141.0790   70.5810  227.5970 C   0  0  0  0  0  0  0  0  0  0  0  0
  140.9900   71.4930  226.5460 C   0  0  0  0  0  0  0  0  0  0  0  0
  140.4760   71.0710  225.3340 C   0  0  0  0  0  0  0  0  0  0  0  0
  140.3850   71.9510  224.3050 N   0  0  0  0  0  0  0  0  0  0  0  0
  139.5260   74.3160  223.1540 H   0  0  0  0  0  0  0  0  0  0  0  0
  140.1682   75.6340  221.1304 H   0  0  0  0  0  0  0  0  0  0  0  0
  139.7812   74.1624  220.1379 H   0  0  0  0  0  0  0  0  0  0  0  0
  136.3407   74.8062  222.5571 H   0  0  0  0  0  0  0  0  0  0  0  0
  137.6560   75.5822  223.5975 H   0  0  0  0  0  0  0  0  0  0  0  0
  134.8797   76.2578  223.2197 H   0  0  0  0  0  0  0  0  0  0  0  0
  136.1389   76.6272  224.5413 H   0  0  0  0  0  0  0  0  0  0  0  0
  134.9066   78.4832  223.2157 H   0  0  0  0  0  0  0  0  0  0  0  0
  136.6566   78.5501  223.7524 H   0  0  0  0  0  0  0  0  0  0  0  0
  135.5946   77.9448  220.9916 H   0  0  0  0  0  0  0  0  0  0  0  0
  136.5184   79.4034  221.5633 H   0  0  0  0  0  0  0  0  0  0  0  0
  137.8737   77.7253  220.2827 H   0  0  0  0  0  0  0  0  0  0  0  0
  140.0187   76.5317  222.2287 H   0  0  0  0  0  0  0  0  0  0  0  0
  141.9510   77.6980  223.2105 H   0  0  0  0  0  0  0  0  0  0  0  0
  139.9095   81.4271  222.8149 H   0  0  0  0  0  0  0  0  0  0  0  0
  138.0037   80.2864  221.8450 H   0  0  0  0  0  0  0  0  0  0  0  0
  139.0763   70.0355  221.9371 H   0  0  0  0  0  0  0  0  0  0  0  0
  139.1945   68.3438  223.7447 H   0  0  0  0  0  0  0  0  0  0  0  0
  139.8018   67.8014  226.0671 H   0  0  0  0  0  0  0  0  0  0  0  0
  141.4849   70.8956  228.5698 H   0  0  0  0  0  0  0  0  0  0  0  0
  141.3238   72.5326  226.6792 H   0  0  0  0  0  0  0  0  0  0  0  0
  1  2  2  0
  2  3  1  0
  3  4  1  0
  4  5  1  0
  5  6  2  0
  5  7  1  0
  7  8  1  0
  8  9  1  0
  9 10  1  0
 10 11  1  0
 11 12  1  0
 12 13  1  0
 13 14  2  0
 14 15  1  0
 15 16  2  0
 16 17  1  0
 16 18  1  0
 18 19  2  0
  2 20  1  0
 20 21  2  0
 21 22  1  0
 22 23  2  0
 23 24  1  0
 24 25  2  0
 25 26  1  0
 25 27  1  0
 27 28  2  0
 28 29  1  0
 29 30  2  0
 12  7  1  0
 19 13  1  0
 30 20  1  0
 29 23  1  0
  3 31  1  0
  4 32  1  0
  4 33  1  0
  8 34  1  0
  8 35  1  0
  9 36  1  0
  9 37  1  0
 10 38  1  0
 10 39  1  0
 11 40  1  0
 11 41  1  0
 12 42  1  6
 14 43  1  0
 15 44  1  0
 18 45  1  0
 19 46  1  0
 21 47  1  0
 22 48  1  0
 24 49  1  0
 27 50  1  0
 28 51  1  0
M  END
>  <smiles>  (74) 
O=C(NCC(=O)N1CCCCC1c1ccc(Br)cc1)c1ccc2cc(Cl)ccc2n1

>  <score_type>  (74) 
oracle

>  <origin>  (74) 
autodockgpu

>  <m_score__min__energy>  (74) 
-9.1600000000000001

>  <m_primary>  (74) 
energy

>  <rmsd>  (74) 
3.6007789586184513

>  <m_score__min__rmsd>  (74) 
3.6007789586184513

>  <meeko>  (74) 
{"free_energy": -8.6, "intermolecular_energy": -10.09, "internal_energy": -1.55, "cluster_size": 10, "cluster_id": 2, "rank_in_cluster": 3}

>  <energy>  (74) 
-8.53

>  <cluster_rmsd>  (74) 
1.25

>  <cluster>  (74) 
1

$$$$

     RDKit          3D

 51 54  0  0  0  0  0  0  0  0999 V2000
  139.7660   72.1000  220.7310 O   0  0  0  0  0  0  0  0  0  0  0  0
  139.7280   72.4990  221.9290 C   0  0  0  0  0  0  0  0  0  0  0  0
  139.5450   73.9050  222.1110 N   0  0  0  0  0  0  0  0  0  0  0  0
  139.4240   74.7230  220.9410 C   0  0  0  0  0  0  0  0  0  0  0  0
  138.8300   76.0580  221.2470 C   0  0  0  0  0  0  0  0  0  0  0  0
  137.5960   76.2320  221.4090 O   0  0  0  0  0  0  0  0  0  0  0  0
  139.6680   77.2050  221.3630 N   0  0  0  0  0  0  0  0  0  0  0  0
  140.1700   77.7760  220.1340 C   0  0  0  0  0  0  0  0  0  0  0  0
  141.3910   78.6060  220.2510 C   0  0  0  0  0  0  0  0  0  0  0  0
  141.7840   79.0760  221.5980 C   0  0  0  0  0  0  0  0  0  0  0  0
  141.4180   78.1290  222.7110 C   0  0  0  0  0  0  0  0  0  0  0  0
  139.9680   77.7320  222.6750 C   0  0  1  0  0  0  0  0  0  0  0  0
  139.0620   78.7840  223.1450 C   0  0  0  0  0  0  0  0  0  0  0  0
  137.6860   78.7430  222.9620 C   0  0  0  0  0  0  0  0  0  0  0  0
  136.8520   79.7510  223.4170 C   0  0  0  0  0  0  0  0  0  0  0  0
  137.3660   80.8420  224.0760 C   0  0  0  0  0  0  0  0  0  0  0  0
  136.1690   82.1970  224.6790 Br  0  0  0  0  0  0  0  0  0  0  0  0
  138.7180   80.9070  224.2700 C   0  0  0  0  0  0  0  0  0  0  0  0
  139.5300   79.9170  223.8220 C   0  0  0  0  0  0  0  0  0  0  0  0
  139.8610   71.5860  223.0600 C   0  0  0  0  0  0  0  0  0  0  0  0
  139.4620   70.2810  222.8770 C   0  0  0  0  0  0  0  0  0  0  0  0
  139.5450   69.3390  223.8800 C   0  0  0  0  0  0  0  0  0  0  0  0
  140.0540   69.7460  225.1100 C   0  0  0  0  0  0  0  0  0  0  0  0
  140.1610   68.8320  226.1630 C   0  0  0  0  0  0  0  0  0  0  0  0
  140.6720   69.2810  227.3670 C   0  0  0  0  0  0  0  0  0  0  0  0
  140.8260   68.1810  228.7130 Cl  0  0  0  0  0  0  0  0  0  0  0  0
  141.0730   70.5980  227.5470 C   0  0  0  0  0  0  0  0  0  0  0  0
  140.9630   71.5030  226.4910 C   0  0  0  0  0  0  0  0  0  0  0  0
  140.4530   71.0630  225.2830 C   0  0  0  0  0  0  0  0  0  0  0  0
  140.3410   71.9350  224.2500 N   0  0  0  0  0  0  0  0  0  0  0  0
  139.5050   74.2870  223.0880 H   0  0  0  0  0  0  0  0  0  0  0  0
  140.4238   74.8709  220.5069 H   0  0  0  0  0  0  0  0  0  0  0  0
  138.7545   74.2083  220.2361 H   0  0  0  0  0  0  0  0  0  0  0  0
  140.3916   76.9478  219.4448 H   0  0  0  0  0  0  0  0  0  0  0  0
  139.3821   78.4583  219.7823 H   0  0  0  0  0  0  0  0  0  0  0  0
  142.2286   78.0139  219.8537 H   0  0  0  0  0  0  0  0  0  0  0  0
  141.1524   79.5261  219.6973 H   0  0  0  0  0  0  0  0  0  0  0  0
  142.8748   79.2178  221.6098 H   0  0  0  0  0  0  0  0  0  0  0  0
  141.2322   80.0097  221.7817 H   0  0  0  0  0  0  0  0  0  0  0  0
  142.0344   77.2225  222.6200 H   0  0  0  0  0  0  0  0  0  0  0  0
  141.5994   78.6471  223.6642 H   0  0  0  0  0  0  0  0  0  0  0  0
  139.7880   76.9304  223.4065 H   0  0  0  0  0  0  0  0  0  0  0  0
  137.2441   77.8822  222.4388 H   0  0  0  0  0  0  0  0  0  0  0  0
  135.7674   79.6775  223.2492 H   0  0  0  0  0  0  0  0  0  0  0  0
  139.1517   81.7710  224.7948 H   0  0  0  0  0  0  0  0  0  0  0  0
  140.6117   80.0089  223.9996 H   0  0  0  0  0  0  0  0  0  0  0  0
  139.0634   69.9798  221.8970 H   0  0  0  0  0  0  0  0  0  0  0  0
  139.2201   68.3012  223.7141 H   0  0  0  0  0  0  0  0  0  0  0  0
  139.8475   67.7852  226.0371 H   0  0  0  0  0  0  0  0  0  0  0  0
  141.4752   70.9260  228.5169 H   0  0  0  0  0  0  0  0  0  0  0  0
  141.2768   72.5497  226.6171 H   0  0  0  0  0  0  0  0  0  0  0  0
  1  2  2  0
  2  3  1  0
  3  4  1  0
  4  5  1  0
  5  6  2  0
  5  7  1  0
  7  8  1  0
  8  9  1  0
  9 10  1  0
 10 11  1  0
 11 12  1  0
 12 13  1  0
 13 14  2  0
 14 15  1  0
 15 16  2  0
 16 17  1  0
 16 18  1  0
 18 19  2  0
  2 20  1  0
 20 21  2  0
 21 22  1  0
 22 23  2  0
 23 24  1  0
 24 25  2  0
 25 26  1  0
 25 27  1  0
 27 28  2  0
 28 29  1  0
 29 30  2  0
 12  7  1  0
 19 13  1  0
 30 20  1  0
 29 23  1  0
  3 31  1  0
  4 32  1  0
  4 33  1  0
  8 34  1  0
  8 35  1  0
  9 36  1  0
  9 37  1  0
 10 38  1  0
 10 39  1  0
 11 40  1  0
 11 41  1  0
 12 42  1  1
 14 43  1  0
 15 44  1  0
 18 45  1  0
 19 46  1  0
 21 47  1  0
 22 48  1  0
 24 49  1  0
 27 50  1  0
 28 51  1  0
M  END
>  <smiles>  (75) 
O=C(NCC(=O)N1CCCCC1c1ccc(Br)cc1)c1ccc2cc(Cl)ccc2n1

>  <score_type>  (75) 
oracle

>  <origin>  (75) 
autodockgpu

>  <m_score__min__energy>  (75) 
-9.1600000000000001

>  <m_primary>  (75) 
energy

>  <rmsd>  (75) 
2.6862901285917884

>  <m_score__min__rmsd>  (75) 
2.6862901285917884

>  <meeko>  (75) 
{"free_energy": -8.6, "intermolecular_energy": -10.09, "internal_energy": -1.41, "cluster_size": 2, "cluster_id": 3, "rank_in_cluster": 2}

>  <energy>  (75) 
-8.52

>  <cluster_rmsd>  (75) 
1.08

>  <cluster>  (75) 
1

$$$$

     RDKit          3D

 51 54  0  0  0  0  0  0  0  0999 V2000
  139.4590   72.3760  220.4410 O   0  0  0  0  0  0  0  0  0  0  0  0
  139.3100   72.7410  221.6410 C   0  0  0  0  0  0  0  0  0  0  0  0
  138.8900   74.0930  221.8330 N   0  0  0  0  0  0  0  0  0  0  0  0
  138.6790   74.9020  220.6680 C   0  0  0  0  0  0  0  0  0  0  0  0
  138.6280   76.3580  220.9950 C   0  0  0  0  0  0  0  0  0  0  0  0
  137.5620   77.0220  220.9720 O   0  0  0  0  0  0  0  0  0  0  0  0
  139.8200   77.0540  221.3490 N   0  0  0  0  0  0  0  0  0  0  0  0
  139.9320   77.5050  222.7180 C   0  0  0  0  0  0  0  0  0  0  0  0
  140.8770   78.6180  222.9630 C   0  0  0  0  0  0  0  0  0  0  0  0
  141.8680   78.9330  221.9090 C   0  0  0  0  0  0  0  0  0  0  0  0
  141.3820   78.6620  220.5090 C   0  0  0  0  0  0  0  0  0  0  0  0
  140.8380   77.2700  220.3470 C   0  0  1  0  0  0  0  0  0  0  0  0
  141.8790   76.2390  220.2860 C   0  0  0  0  0  0  0  0  0  0  0  0
  143.0880   76.4150  219.6240 C   0  0  0  0  0  0  0  0  0  0  0  0
  144.0550   75.4250  219.5810 C   0  0  0  0  0  0  0  0  0  0  0  0
  143.8490   74.2160  220.2020 C   0  0  0  0  0  0  0  0  0  0  0  0
  145.2160   72.8930  220.1090 Br  0  0  0  0  0  0  0  0  0  0  0  0
  142.6680   74.0160  220.8610 C   0  0  0  0  0  0  0  0  0  0  0  0
  141.7230   74.9900  220.9000 C   0  0  0  0  0  0  0  0  0  0  0  0
  139.5500   71.8420  222.7660 C   0  0  0  0  0  0  0  0  0  0  0  0
  139.1620   70.5280  222.6270 C   0  0  0  0  0  0  0  0  0  0  0  0
  139.3430   69.5980  223.6280 C   0  0  0  0  0  0  0  0  0  0  0  0
  139.9410   70.0270  224.8100 C   0  0  0  0  0  0  0  0  0  0  0  0
  140.1490   69.1250  225.8590 C   0  0  0  0  0  0  0  0  0  0  0  0
  140.7460   69.5960  227.0140 C   0  0  0  0  0  0  0  0  0  0  0  0
  141.0280   68.5120  228.3530 Cl  0  0  0  0  0  0  0  0  0  0  0  0
  141.1350   70.9220  227.1500 C   0  0  0  0  0  0  0  0  0  0  0  0
  140.9240   71.8130  226.0990 C   0  0  0  0  0  0  0  0  0  0  0  0
  140.3280   71.3520  224.9390 C   0  0  0  0  0  0  0  0  0  0  0  0
  140.1170   72.2110  223.9110 N   0  0  0  0  0  0  0  0  0  0  0  0
  138.7510   74.4460  222.8120 H   0  0  0  0  0  0  0  0  0  0  0  0
  139.5028   74.7263  219.9606 H   0  0  0  0  0  0  0  0  0  0  0  0
  137.7097   74.6195  220.2313 H   0  0  0  0  0  0  0  0  0  0  0  0
  138.9346   77.8328  223.0463 H   0  0  0  0  0  0  0  0  0  0  0  0
  140.3336   76.6482  223.2789 H   0  0  0  0  0  0  0  0  0  0  0  0
  140.2777   79.5251  223.1302 H   0  0  0  0  0  0  0  0  0  0  0  0
  141.4823   78.2815  223.8176 H   0  0  0  0  0  0  0  0  0  0  0  0
  142.1262   79.9996  221.9849 H   0  0  0  0  0  0  0  0  0  0  0  0
  142.7325   78.2742  222.0784 H   0  0  0  0  0  0  0  0  0  0  0  0
  140.5865   79.3819  220.2663 H   0  0  0  0  0  0  0  0  0  0  0  0
  142.2421   78.7653  219.8311 H   0  0  0  0  0  0  0  0  0  0  0  0
  140.3612   77.1747  219.3603 H   0  0  0  0  0  0  0  0  0  0  0  0
  143.2831   77.3719  219.1177 H   0  0  0  0  0  0  0  0  0  0  0  0
  144.9977   75.6078  219.0444 H   0  0  0  0  0  0  0  0  0  0  0  0
  142.4815   73.0561  221.3648 H   0  0  0  0  0  0  0  0  0  0  0  0
  140.7871   74.7878  221.4415 H   0  0  0  0  0  0  0  0  0  0  0  0
  138.6916   70.2098  221.6850 H   0  0  0  0  0  0  0  0  0  0  0  0
  139.0259   68.5528  223.4976 H   0  0  0  0  0  0  0  0  0  0  0  0
  139.8464   68.0714  225.7676 H   0  0  0  0  0  0  0  0  0  0  0  0
  141.6069   71.2673  228.0817 H   0  0  0  0  0  0  0  0  0  0  0  0
  141.2268   72.8665  226.1907 H   0  0  0  0  0  0  0  0  0  0  0  0
  1  2  2  0
  2  3  1  0
  3  4  1  0
  4  5  1  0
  5  6  2  0
  5  7  1  0
  7  8  1  0
  8  9  1  0
  9 10  1  0
 10 11  1  0
 11 12  1  0
 12 13  1  0
 13 14  2  0
 14 15  1  0
 15 16  2  0
 16 17  1  0
 16 18  1  0
 18 19  2  0
  2 20  1  0
 20 21  2  0
 21 22  1  0
 22 23  2  0
 23 24  1  0
 24 25  2  0
 25 26  1  0
 25 27  1  0
 27 28  2  0
 28 29  1  0
 29 30  2  0
 12  7  1  0
 19 13  1  0
 30 20  1  0
 29 23  1  0
  3 31  1  0
  4 32  1  0
  4 33  1  0
  8 34  1  0
  8 35  1  0
  9 36  1  0
  9 37  1  0
 10 38  1  0
 10 39  1  0
 11 40  1  0
 11 41  1  0
 12 42  1  6
 14 43  1  0
 15 44  1  0
 18 45  1  0
 19 46  1  0
 21 47  1  0
 22 48  1  0
 24 49  1  0
 27 50  1  0
 28 51  1  0
M  END
>  <smiles>  (76) 
O=C(NCC(=O)N1CCCCC1c1ccc(Br)cc1)c1ccc2cc(Cl)ccc2n1

>  <score_type>  (76) 
oracle

>  <origin>  (76) 
autodockgpu

>  <m_score__min__energy>  (76) 
-9.1600000000000001

>  <m_primary>  (76) 
energy

>  <rmsd>  (76) 
2.862305196842192

>  <m_score__min__rmsd>  (76) 
2.862305196842192

>  <meeko>  (76) 
{"free_energy": -8.93, "intermolecular_energy": -10.42, "internal_energy": -1.82, "cluster_size": 32, "cluster_id": 1, "rank_in_cluster": 10}

>  <energy>  (76) 
-8.49

>  <cluster_rmsd>  (76) 
1.27

>  <cluster>  (76) 
1

$$$$

     RDKit          3D

 51 54  0  0  0  0  0  0  0  0999 V2000
  140.2550   72.6030  220.8460 O   0  0  0  0  0  0  0  0  0  0  0  0
  139.6260   72.7700  221.9290 C   0  0  0  0  0  0  0  0  0  0  0  0
  138.7700   73.9130  221.9820 N   0  0  0  0  0  0  0  0  0  0  0  0
  138.7020   74.7550  220.8240 C   0  0  0  0  0  0  0  0  0  0  0  0
  138.6280   76.2020  221.1840 C   0  0  0  0  0  0  0  0  0  0  0  0
  137.5380   76.8130  221.3200 O   0  0  0  0  0  0  0  0  0  0  0  0
  139.8230   76.9520  221.3850 N   0  0  0  0  0  0  0  0  0  0  0  0
  140.0590   77.4610  222.7170 C   0  0  0  0  0  0  0  0  0  0  0  0
  140.9820   78.6140  222.8210 C   0  0  0  0  0  0  0  0  0  0  0  0
  141.8450   78.9200  221.6580 C   0  0  0  0  0  0  0  0  0  0  0  0
  141.2260   78.5780  220.3270 C   0  0  0  0  0  0  0  0  0  0  0  0
  140.7220   77.1620  220.2740 C   0  0  1  0  0  0  0  0  0  0  0  0
  141.7890   76.1660  220.1400 C   0  0  0  0  0  0  0  0  0  0  0  0
  141.9240   75.0740  220.9880 C   0  0  0  0  0  0  0  0  0  0  0  0
  142.9430   74.1470  220.8390 C   0  0  0  0  0  0  0  0  0  0  0  0
  143.8690   74.2780  219.8320 C   0  0  0  0  0  0  0  0  0  0  0  0
  145.2470   72.9720  219.6780 Br  0  0  0  0  0  0  0  0  0  0  0  0
  143.7590   75.3450  218.9830 C   0  0  0  0  0  0  0  0  0  0  0  0
  142.7590   76.2500  219.1330 C   0  0  0  0  0  0  0  0  0  0  0  0
  139.7600   71.8560  223.0590 C   0  0  0  0  0  0  0  0  0  0  0  0
  139.2990   70.5680  222.8960 C   0  0  0  0  0  0  0  0  0  0  0  0
  139.3780   69.6260  223.8990 C   0  0  0  0  0  0  0  0  0  0  0  0
  139.9480   70.0140  225.1080 C   0  0  0  0  0  0  0  0  0  0  0  0
  140.0540   69.0990  226.1610 C   0  0  0  0  0  0  0  0  0  0  0  0
  140.6270   69.5280  227.3430 C   0  0  0  0  0  0  0  0  0  0  0  0
  140.7830   68.4260  228.6870 Cl  0  0  0  0  0  0  0  0  0  0  0  0
  141.0910   70.8280  227.5030 C   0  0  0  0  0  0  0  0  0  0  0  0
  140.9810   71.7330  226.4480 C   0  0  0  0  0  0  0  0  0  0  0  0
  140.4100   71.3130  225.2620 C   0  0  0  0  0  0  0  0  0  0  0  0
  140.2970   72.1860  224.2290 N   0  0  0  0  0  0  0  0  0  0  0  0
  138.2240   74.0960  222.8610 H   0  0  0  0  0  0  0  0  0  0  0  0
  139.5998   74.5877  220.2109 H   0  0  0  0  0  0  0  0  0  0  0  0
  137.7867   74.4967  220.2713 H   0  0  0  0  0  0  0  0  0  0  0  0
  139.0894   77.7682  223.1358 H   0  0  0  0  0  0  0  0  0  0  0  0
  140.5484   76.6413  223.2635 H   0  0  0  0  0  0  0  0  0  0  0  0
  140.3698   79.5064  223.0179 H   0  0  0  0  0  0  0  0  0  0  0  0
  141.6852   78.3321  223.6185 H   0  0  0  0  0  0  0  0  0  0  0  0
  142.0699   79.9967  221.6682 H   0  0  0  0  0  0  0  0  0  0  0  0
  142.7463   78.2974  221.7586 H   0  0  0  0  0  0  0  0  0  0  0  0
  140.3824   79.2599  220.1445 H   0  0  0  0  0  0  0  0  0  0  0  0
  142.0054   78.6847  219.5582 H   0  0  0  0  0  0  0  0  0  0  0  0
  140.1491   77.0104  219.3473 H   0  0  0  0  0  0  0  0  0  0  0  0
  141.1985   74.9409  221.8041 H   0  0  0  0  0  0  0  0  0  0  0  0
  143.0115   73.2972  221.5341 H   0  0  0  0  0  0  0  0  0  0  0  0
  144.4891   75.4708  218.1699 H   0  0  0  0  0  0  0  0  0  0  0  0
  142.7075   77.0926  218.4277 H   0  0  0  0  0  0  0  0  0  0  0  0
  138.8526   70.2816  221.9323 H   0  0  0  0  0  0  0  0  0  0  0  0
  139.0034   68.6027  223.7491 H   0  0  0  0  0  0  0  0  0  0  0  0
  139.6912   68.0664  226.0510 H   0  0  0  0  0  0  0  0  0  0  0  0
  141.5423   71.1412  228.4560 H   0  0  0  0  0  0  0  0  0  0  0  0
  141.3433   72.7657  226.5582 H   0  0  0  0  0  0  0  0  0  0  0  0
  1  2  2  0
  2  3  1  0
  3  4  1  0
  4  5  1  0
  5  6  2  0
  5  7  1  0
  7  8  1  0
  8  9  1  0
  9 10  1  0
 10 11  1  0
 11 12  1  0
 12 13  1  0
 13 14  2  0
 14 15  1  0
 15 16  2  0
 16 17  1  0
 16 18  1  0
 18 19  2  0
  2 20  1  0
 20 21  2  0
 21 22  1  0
 22 23  2  0
 23 24  1  0
 24 25  2  0
 25 26  1  0
 25 27  1  0
 27 28  2  0
 28 29  1  0
 29 30  2  0
 12  7  1  0
 19 13  1  0
 30 20  1  0
 29 23  1  0
  3 31  1  0
  4 32  1  0
  4 33  1  0
  8 34  1  0
  8 35  1  0
  9 36  1  0
  9 37  1  0
 10 38  1  0
 10 39  1  0
 11 40  1  0
 11 41  1  0
 12 42  1  6
 14 43  1  0
 15 44  1  0
 18 45  1  0
 19 46  1  0
 21 47  1  0
 22 48  1  0
 24 49  1  0
 27 50  1  0
 28 51  1  0
M  END
>  <smiles>  (77) 
O=C(NCC(=O)N1CCCCC1c1ccc(Br)cc1)c1ccc2cc(Cl)ccc2n1

>  <score_type>  (77) 
oracle

>  <origin>  (77) 
autodockgpu

>  <m_score__min__energy>  (77) 
-9.1600000000000001

>  <m_primary>  (77) 
energy

>  <rmsd>  (77) 
2.798052954372008

>  <m_score__min__rmsd>  (77) 
2.798052954372008

>  <meeko>  (77) 
{"free_energy": -8.95, "intermolecular_energy": -10.44, "internal_energy": -1.83, "cluster_size": 32, "cluster_id": 1, "rank_in_cluster": 8}

>  <energy>  (77) 
-8.48

>  <cluster_rmsd>  (77) 
1.07

>  <cluster>  (77) 
1

$$$$

     RDKit          3D

 51 54  0  0  0  0  0  0  0  0999 V2000
  139.3790   72.2220  220.4240 O   0  0  0  0  0  0  0  0  0  0  0  0
  139.2450   72.6200  221.6150 C   0  0  0  0  0  0  0  0  0  0  0  0
  138.8340   73.9800  221.7740 N   0  0  0  0  0  0  0  0  0  0  0  0
  138.6170   74.7580  220.5900 C   0  0  0  0  0  0  0  0  0  0  0  0
  138.5960   76.2230  220.8750 C   0  0  0  0  0  0  0  0  0  0  0  0
  137.5630   76.9270  220.7400 O   0  0  0  0  0  0  0  0  0  0  0  0
  139.7780   76.8830  221.3190 N   0  0  0  0  0  0  0  0  0  0  0  0
  139.8230   77.2830  222.7070 C   0  0  0  0  0  0  0  0  0  0  0  0
  140.7720   78.3690  223.0440 C   0  0  0  0  0  0  0  0  0  0  0  0
  141.8240   78.7020  222.0570 C   0  0  0  0  0  0  0  0  0  0  0  0
  141.4100   78.4910  220.6230 C   0  0  0  0  0  0  0  0  0  0  0  0
  140.8530   77.1160  220.3810 C   0  0  1  0  0  0  0  0  0  0  0  0
  141.8780   76.0690  220.3380 C   0  0  0  0  0  0  0  0  0  0  0  0
  141.7200   74.8210  220.9270 C   0  0  0  0  0  0  0  0  0  0  0  0
  142.7050   73.8490  220.8710 C   0  0  0  0  0  0  0  0  0  0  0  0
  143.8910   74.0900  220.2200 C   0  0  0  0  0  0  0  0  0  0  0  0
  145.2090   72.7150  220.1760 Br  0  0  0  0  0  0  0  0  0  0  0  0
  144.0730   75.3100  219.6300 C   0  0  0  0  0  0  0  0  0  0  0  0
  143.1040   76.2590  219.6880 C   0  0  0  0  0  0  0  0  0  0  0  0
  139.4900   71.7510  222.7620 C   0  0  0  0  0  0  0  0  0  0  0  0
  139.0860   70.4380  222.6650 C   0  0  0  0  0  0  0  0  0  0  0  0
  139.2710   69.5340  223.6890 C   0  0  0  0  0  0  0  0  0  0  0  0
  139.8890   69.9890  224.8500 C   0  0  0  0  0  0  0  0  0  0  0  0
  140.1020   69.1140  225.9210 C   0  0  0  0  0  0  0  0  0  0  0  0
  140.7200   69.6100  227.0550 C   0  0  0  0  0  0  0  0  0  0  0  0
  141.0080   68.5620  228.4190 Cl  0  0  0  0  0  0  0  0  0  0  0  0
  141.1250   70.9360  227.1480 C   0  0  0  0  0  0  0  0  0  0  0  0
  140.9090   71.7990  226.0750 C   0  0  0  0  0  0  0  0  0  0  0  0
  140.2920   71.3130  224.9370 C   0  0  0  0  0  0  0  0  0  0  0  0
  140.0760   72.1450  223.8870 N   0  0  0  0  0  0  0  0  0  0  0  0
  138.7080   74.3590  222.7450 H   0  0  0  0  0  0  0  0  0  0  0  0
  139.4257   74.5477  219.8746 H   0  0  0  0  0  0  0  0  0  0  0  0
  137.6359   74.4797  220.1777 H   0  0  0  0  0  0  0  0  0  0  0  0
  138.8148   77.6176  222.9927 H   0  0  0  0  0  0  0  0  0  0  0  0
  140.1795   76.3994  223.2566 H   0  0  0  0  0  0  0  0  0  0  0  0
  140.1800   79.2808  223.2117 H   0  0  0  0  0  0  0  0  0  0  0  0
  141.3236   77.9915  223.9176 H   0  0  0  0  0  0  0  0  0  0  0  0
  142.0966   79.7599  222.1860 H   0  0  0  0  0  0  0  0  0  0  0  0
  142.6661   78.0205  222.2481 H   0  0  0  0  0  0  0  0  0  0  0  0
  140.6407   79.2337  220.3650 H   0  0  0  0  0  0  0  0  0  0  0  0
  142.3069   78.6033  219.9962 H   0  0  0  0  0  0  0  0  0  0  0  0
  140.4293   77.0649  219.3672 H   0  0  0  0  0  0  0  0  0  0  0  0
  140.7815   74.5973  221.4554 H   0  0  0  0  0  0  0  0  0  0  0  0
  142.5363   72.8744  221.3524 H   0  0  0  0  0  0  0  0  0  0  0  0
  145.0143   75.5247  219.1029 H   0  0  0  0  0  0  0  0  0  0  0  0
  143.2913   77.2266  219.1995 H   0  0  0  0  0  0  0  0  0  0  0  0
  138.5990   70.0991  221.7387 H   0  0  0  0  0  0  0  0  0  0  0  0
  138.9415   68.4890  223.5919 H   0  0  0  0  0  0  0  0  0  0  0  0
  139.7870   68.0617  225.8629 H   0  0  0  0  0  0  0  0  0  0  0  0
  141.6132   71.3024  228.0631 H   0  0  0  0  0  0  0  0  0  0  0  0
  141.2247   72.8511  226.1327 H   0  0  0  0  0  0  0  0  0  0  0  0
  1  2  2  0
  2  3  1  0
  3  4  1  0
  4  5  1  0
  5  6  2  0
  5  7  1  0
  7  8  1  0
  8  9  1  0
  9 10  1  0
 10 11  1  0
 11 12  1  0
 12 13  1  0
 13 14  2  0
 14 15  1  0
 15 16  2  0
 16 17  1  0
 16 18  1  0
 18 19  2  0
  2 20  1  0
 20 21  2  0
 21 22  1  0
 22 23  2  0
 23 24  1  0
 24 25  2  0
 25 26  1  0
 25 27  1  0
 27 28  2  0
 28 29  1  0
 29 30  2  0
 12  7  1  0
 19 13  1  0
 30 20  1  0
 29 23  1  0
  3 31  1  0
  4 32  1  0
  4 33  1  0
  8 34  1  0
  8 35  1  0
  9 36  1  0
  9 37  1  0
 10 38  1  0
 10 39  1  0
 11 40  1  0
 11 41  1  0
 12 42  1  6
 14 43  1  0
 15 44  1  0
 18 45  1  0
 19 46  1  0
 21 47  1  0
 22 48  1  0
 24 49  1  0
 27 50  1  0
 28 51  1  0
M  END
>  <smiles>  (78) 
O=C(NCC(=O)N1CCCCC1c1ccc(Br)cc1)c1ccc2cc(Cl)ccc2n1

>  <score_type>  (78) 
oracle

>  <origin>  (78) 
autodockgpu

>  <m_score__min__energy>  (78) 
-9.1600000000000001

>  <m_primary>  (78) 
energy

>  <rmsd>  (78) 
2.808219685049954

>  <m_score__min__rmsd>  (78) 
2.808219685049954

>  <meeko>  (78) 
{"free_energy": -8.8, "intermolecular_energy": -10.29, "internal_energy": -1.87, "cluster_size": 32, "cluster_id": 1, "rank_in_cluster": 14}

>  <energy>  (78) 
-8.48

>  <cluster_rmsd>  (78) 
1.09

>  <cluster>  (78) 
1

$$$$

     RDKit          3D

 51 54  0  0  0  0  0  0  0  0999 V2000
  139.4460   71.9500  220.6580 O   0  0  0  0  0  0  0  0  0  0  0  0
  139.2990   72.3590  221.8440 C   0  0  0  0  0  0  0  0  0  0  0  0
  138.9100   73.7260  221.9880 N   0  0  0  0  0  0  0  0  0  0  0  0
  138.7270   74.5000  220.7960 C   0  0  0  0  0  0  0  0  0  0  0  0
  138.5620   75.9550  221.0890 C   0  0  0  0  0  0  0  0  0  0  0  0
  137.4410   76.5240  221.0950 O   0  0  0  0  0  0  0  0  0  0  0  0
  139.7010   76.7610  221.3750 N   0  0  0  0  0  0  0  0  0  0  0  0
  139.7990   77.3030  222.7120 C   0  0  0  0  0  0  0  0  0  0  0  0
  140.6590   78.4990  222.8700 C   0  0  0  0  0  0  0  0  0  0  0  0
  141.6050   78.8230  221.7780 C   0  0  0  0  0  0  0  0  0  0  0  0
  141.1190   78.4310  220.4070 C   0  0  0  0  0  0  0  0  0  0  0  0
  140.6830   76.9930  220.3410 C   0  0  1  0  0  0  0  0  0  0  0  0
  141.8000   76.0440  220.3200 C   0  0  0  0  0  0  0  0  0  0  0  0
  141.7410   74.7820  220.8970 C   0  0  0  0  0  0  0  0  0  0  0  0
  142.8110   73.9040  220.8630 C   0  0  0  0  0  0  0  0  0  0  0  0
  143.9880   74.2570  220.2460 C   0  0  0  0  0  0  0  0  0  0  0  0
  145.4260   73.0080  220.2310 Br  0  0  0  0  0  0  0  0  0  0  0  0
  144.0740   75.4950  219.6690 C   0  0  0  0  0  0  0  0  0  0  0  0
  143.0210   76.3500  219.7060 C   0  0  0  0  0  0  0  0  0  0  0  0
  139.5090   71.4920  223.0000 C   0  0  0  0  0  0  0  0  0  0  0  0
  139.0820   70.1870  222.9050 C   0  0  0  0  0  0  0  0  0  0  0  0
  139.2330   69.2860  223.9380 C   0  0  0  0  0  0  0  0  0  0  0  0
  139.8410   69.7370  225.1060 C   0  0  0  0  0  0  0  0  0  0  0  0
  140.0200   68.8660  226.1860 C   0  0  0  0  0  0  0  0  0  0  0  0
  140.6290   69.3580  227.3260 C   0  0  0  0  0  0  0  0  0  0  0  0
  140.8760   68.3130  228.7020 Cl  0  0  0  0  0  0  0  0  0  0  0  0
  141.0570   70.6760  227.4180 C   0  0  0  0  0  0  0  0  0  0  0  0
  140.8750   71.5370  226.3360 C   0  0  0  0  0  0  0  0  0  0  0  0
  140.2670   71.0540  225.1910 C   0  0  0  0  0  0  0  0  0  0  0  0
  140.0840   71.8830  224.1330 N   0  0  0  0  0  0  0  0  0  0  0  0
  138.7750   74.1140  222.9540 H   0  0  0  0  0  0  0  0  0  0  0  0
  139.6060   74.3664  220.1482 H   0  0  0  0  0  0  0  0  0  0  0  0
  137.8091   74.1484  220.3022 H   0  0  0  0  0  0  0  0  0  0  0  0
  138.7844   77.5731  223.0402 H   0  0  0  0  0  0  0  0  0  0  0  0
  140.2746   76.5158  223.3154 H   0  0  0  0  0  0  0  0  0  0  0  0
  139.9939   79.3662  222.9949 H   0  0  0  0  0  0  0  0  0  0  0  0
  141.3024   78.2635  223.7306 H   0  0  0  0  0  0  0  0  0  0  0  0
  141.7815   79.9087  221.7846 H   0  0  0  0  0  0  0  0  0  0  0  0
  142.5199   78.2428  221.9682 H   0  0  0  0  0  0  0  0  0  0  0  0
  140.2657   79.0712  220.1386 H   0  0  0  0  0  0  0  0  0  0  0  0
  141.9566   78.5593  219.7056 H   0  0  0  0  0  0  0  0  0  0  0  0
  140.1991   76.8005  219.3721 H   0  0  0  0  0  0  0  0  0  0  0  0
  140.8128   74.4695  221.3979 H   0  0  0  0  0  0  0  0  0  0  0  0
  142.7186   72.9143  221.3342 H   0  0  0  0  0  0  0  0  0  0  0  0
  145.0059   75.7999  219.1704 H   0  0  0  0  0  0  0  0  0  0  0  0
  143.1322   77.3349  219.2288 H   0  0  0  0  0  0  0  0  0  0  0  0
  138.6038   69.8512  221.9730 H   0  0  0  0  0  0  0  0  0  0  0  0
  138.8850   68.2469  223.8422 H   0  0  0  0  0  0  0  0  0  0  0  0
  139.6858   67.8195  226.1300 H   0  0  0  0  0  0  0  0  0  0  0  0
  141.5368   71.0388  228.3390 H   0  0  0  0  0  0  0  0  0  0  0  0
  141.2095   72.5834  226.3921 H   0  0  0  0  0  0  0  0  0  0  0  0
  1  2  2  0
  2  3  1  0
  3  4  1  0
  4  5  1  0
  5  6  2  0
  5  7  1  0
  7  8  1  0
  8  9  1  0
  9 10  1  0
 10 11  1  0
 11 12  1  0
 12 13  1  0
 13 14  2  0
 14 15  1  0
 15 16  2  0
 16 17  1  0
 16 18  1  0
 18 19  2  0
  2 20  1  0
 20 21  2  0
 21 22  1  0
 22 23  2  0
 23 24  1  0
 24 25  2  0
 25 26  1  0
 25 27  1  0
 27 28  2  0
 28 29  1  0
 29 30  2  0
 12  7  1  0
 19 13  1  0
 30 20  1  0
 29 23  1  0
  3 31  1  0
  4 32  1  0
  4 33  1  0
  8 34  1  0
  8 35  1  0
  9 36  1  0
  9 37  1  0
 10 38  1  0
 10 39  1  0
 11 40  1  0
 11 41  1  0
 12 42  1  6
 14 43  1  0
 15 44  1  0
 18 45  1  0
 19 46  1  0
 21 47  1  0
 22 48  1  0
 24 49  1  0
 27 50  1  0
 28 51  1  0
M  END
>  <smiles>  (79) 
O=C(NCC(=O)N1CCCCC1c1ccc(Br)cc1)c1ccc2cc(Cl)ccc2n1

>  <score_type>  (79) 
oracle

>  <origin>  (79) 
autodockgpu

>  <m_score__min__energy>  (79) 
-9.1600000000000001

>  <m_primary>  (79) 
energy

>  <rmsd>  (79) 
2.6928813007740633

>  <m_score__min__rmsd>  (79) 
2.6928813007740633

>  <meeko>  (79) 
{"free_energy": -9.13, "intermolecular_energy": -10.62, "internal_energy": -1.71, "cluster_size": 32, "cluster_id": 1, "rank_in_cluster": 2}

>  <energy>  (79) 
-8.42

>  <cluster_rmsd>  (79) 
1.04

>  <cluster>  (79) 
1

$$$$

     RDKit          3D

 51 54  0  0  0  0  0  0  0  0999 V2000
  140.1950   72.4060  220.8400 O   0  0  0  0  0  0  0  0  0  0  0  0
  139.6510   72.6330  221.9580 C   0  0  0  0  0  0  0  0  0  0  0  0
  138.8960   73.8430  222.0490 N   0  0  0  0  0  0  0  0  0  0  0  0
  138.8250   74.6790  220.8860 C   0  0  0  0  0  0  0  0  0  0  0  0
  138.7070   76.1250  221.2380 C   0  0  0  0  0  0  0  0  0  0  0  0
  137.5990   76.6990  221.3870 O   0  0  0  0  0  0  0  0  0  0  0  0
  139.8780   76.9160  221.4180 N   0  0  0  0  0  0  0  0  0  0  0  0
  140.0750   77.5050  222.7240 C   0  0  0  0  0  0  0  0  0  0  0  0
  140.9650   78.6870  222.7790 C   0  0  0  0  0  0  0  0  0  0  0  0
  141.8420   78.9500  221.6160 C   0  0  0  0  0  0  0  0  0  0  0  0
  141.2580   78.5190  220.2960 C   0  0  0  0  0  0  0  0  0  0  0  0
  140.7920   77.0890  220.3130 C   0  0  1  0  0  0  0  0  0  0  0  0
  141.8870   76.1160  220.2540 C   0  0  0  0  0  0  0  0  0  0  0  0
  141.8720   74.9080  220.9390 C   0  0  0  0  0  0  0  0  0  0  0  0
  142.9210   74.0060  220.8670 C   0  0  0  0  0  0  0  0  0  0  0  0
  144.0290   74.2800  220.1010 C   0  0  0  0  0  0  0  0  0  0  0  0
  145.4400   73.0020  220.0390 Br  0  0  0  0  0  0  0  0  0  0  0  0
  144.0700   75.4630  219.4150 C   0  0  0  0  0  0  0  0  0  0  0  0
  143.0390   76.3430  219.4910 C   0  0  0  0  0  0  0  0  0  0  0  0
  139.7800   71.7190  223.0890 C   0  0  0  0  0  0  0  0  0  0  0  0
  139.3160   70.4330  222.9260 C   0  0  0  0  0  0  0  0  0  0  0  0
  139.3900   69.4920  223.9310 C   0  0  0  0  0  0  0  0  0  0  0  0
  139.9580   69.8800  225.1410 C   0  0  0  0  0  0  0  0  0  0  0  0
  140.0590   68.9650  226.1940 C   0  0  0  0  0  0  0  0  0  0  0  0
  140.6300   69.3950  227.3780 C   0  0  0  0  0  0  0  0  0  0  0  0
  140.7790   68.2940  228.7230 Cl  0  0  0  0  0  0  0  0  0  0  0  0
  141.0960   70.6930  227.5380 C   0  0  0  0  0  0  0  0  0  0  0  0
  140.9920   71.5980  226.4820 C   0  0  0  0  0  0  0  0  0  0  0  0
  140.4220   71.1780  225.2940 C   0  0  0  0  0  0  0  0  0  0  0  0
  140.3150   72.0500  224.2600 N   0  0  0  0  0  0  0  0  0  0  0  0
  138.4240   74.0780  222.9570 H   0  0  0  0  0  0  0  0  0  0  0  0
  139.7369   74.5330  220.2885 H   0  0  0  0  0  0  0  0  0  0  0  0
  137.9259   74.3946  220.3197 H   0  0  0  0  0  0  0  0  0  0  0  0
  139.0897   77.8083  223.1078 H   0  0  0  0  0  0  0  0  0  0  0  0
  140.5752   76.7308  223.3244 H   0  0  0  0  0  0  0  0  0  0  0  0
  140.3258   79.5720  222.9137 H   0  0  0  0  0  0  0  0  0  0  0  0
  141.6596   78.4703  223.6040 H   0  0  0  0  0  0  0  0  0  0  0  0
  142.0398   80.0311  221.5698 H   0  0  0  0  0  0  0  0  0  0  0  0
  142.7562   78.3572  221.7673 H   0  0  0  0  0  0  0  0  0  0  0  0
  140.4006   79.1668  220.0610 H   0  0  0  0  0  0  0  0  0  0  0  0
  142.0489   78.6043  219.5363 H   0  0  0  0  0  0  0  0  0  0  0  0
  140.2412   76.8717  219.3860 H   0  0  0  0  0  0  0  0  0  0  0  0
  140.9983   74.6592  221.5592 H   0  0  0  0  0  0  0  0  0  0  0  0
  142.8668   73.0615  221.4282 H   0  0  0  0  0  0  0  0  0  0  0  0
  144.9468   75.7035  218.7958 H   0  0  0  0  0  0  0  0  0  0  0  0
  143.1124   77.2827  218.9240 H   0  0  0  0  0  0  0  0  0  0  0  0
  138.8713   70.1467  221.9615 H   0  0  0  0  0  0  0  0  0  0  0  0
  139.0130   68.4695  223.7816 H   0  0  0  0  0  0  0  0  0  0  0  0
  139.6947   67.9329  226.0836 H   0  0  0  0  0  0  0  0  0  0  0  0
  141.5447   71.0059  228.4923 H   0  0  0  0  0  0  0  0  0  0  0  0
  141.3576   72.6296  226.5923 H   0  0  0  0  0  0  0  0  0  0  0  0
  1  2  2  0
  2  3  1  0
  3  4  1  0
  4  5  1  0
  5  6  2  0
  5  7  1  0
  7  8  1  0
  8  9  1  0
  9 10  1  0
 10 11  1  0
 11 12  1  0
 12 13  1  0
 13 14  2  0
 14 15  1  0
 15 16  2  0
 16 17  1  0
 16 18  1  0
 18 19  2  0
  2 20  1  0
 20 21  2  0
 21 22  1  0
 22 23  2  0
 23 24  1  0
 24 25  2  0
 25 26  1  0
 25 27  1  0
 27 28  2  0
 28 29  1  0
 29 30  2  0
 12  7  1  0
 19 13  1  0
 30 20  1  0
 29 23  1  0
  3 31  1  0
  4 32  1  0
  4 33  1  0
  8 34  1  0
  8 35  1  0
  9 36  1  0
  9 37  1  0
 10 38  1  0
 10 39  1  0
 11 40  1  0
 11 41  1  0
 12 42  1  6
 14 43  1  0
 15 44  1  0
 18 45  1  0
 19 46  1  0
 21 47  1  0
 22 48  1  0
 24 49  1  0
 27 50  1  0
 28 51  1  0
M  END
>  <smiles>  (80) 
O=C(NCC(=O)N1CCCCC1c1ccc(Br)cc1)c1ccc2cc(Cl)ccc2n1

>  <score_type>  (80) 
oracle

>  <origin>  (80) 
autodockgpu

>  <m_score__min__energy>  (80) 
-9.1600000000000001

>  <m_primary>  (80) 
energy

>  <rmsd>  (80) 
2.7646479158937276

>  <m_score__min__rmsd>  (80) 
2.7646479158937276

>  <meeko>  (80) 
{"free_energy": -9.16, "intermolecular_energy": -10.65, "internal_energy": -1.72, "cluster_size": 32, "cluster_id": 1, "rank_in_cluster": 1}

>  <energy>  (80) 
-8.35

>  <cluster_rmsd>  (80) 
0.91

>  <cluster>  (80) 
1

$$$$

     RDKit          3D

 51 54  0  0  0  0  0  0  0  0999 V2000
  140.5880   72.6620  221.0550 O   0  0  0  0  0  0  0  0  0  0  0  0
  139.8080   72.7130  222.0470 C   0  0  0  0  0  0  0  0  0  0  0  0
  138.8320   73.7570  222.0200 N   0  0  0  0  0  0  0  0  0  0  0  0
  138.8250   74.6390  220.8900 C   0  0  0  0  0  0  0  0  0  0  0  0
  138.7220   76.0720  221.2950 C   0  0  0  0  0  0  0  0  0  0  0  0
  137.6260   76.6260  221.5590 O   0  0  0  0  0  0  0  0  0  0  0  0
  139.8960   76.8740  221.3950 N   0  0  0  0  0  0  0  0  0  0  0  0
  140.2010   77.4290  222.6950 C   0  0  0  0  0  0  0  0  0  0  0  0
  141.0800   78.6200  222.7060 C   0  0  0  0  0  0  0  0  0  0  0  0
  141.8490   78.9270  221.4790 C   0  0  0  0  0  0  0  0  0  0  0  0
  141.1560   78.5240  220.2020 C   0  0  0  0  0  0  0  0  0  0  0  0
  140.7090   77.0880  220.2200 C   0  0  1  0  0  0  0  0  0  0  0  0
  141.8050   76.1320  220.0380 C   0  0  0  0  0  0  0  0  0  0  0  0
  142.6620   76.1530  218.9450 C   0  0  0  0  0  0  0  0  0  0  0  0
  143.6900   75.2370  218.7970 C   0  0  0  0  0  0  0  0  0  0  0  0
  143.9020   74.2620  219.7420 C   0  0  0  0  0  0  0  0  0  0  0  0
  145.3330   73.0310  219.4850 Br  0  0  0  0  0  0  0  0  0  0  0  0
  143.0730   74.2190  220.8290 C   0  0  0  0  0  0  0  0  0  0  0  0
  142.0670   75.1190  220.9690 C   0  0  0  0  0  0  0  0  0  0  0  0
  139.8920   71.7670  223.1560 C   0  0  0  0  0  0  0  0  0  0  0  0
  139.4180   70.4910  222.9440 C   0  0  0  0  0  0  0  0  0  0  0  0
  139.4510   69.5220  223.9230 C   0  0  0  0  0  0  0  0  0  0  0  0
  139.9860   69.8690  225.1600 C   0  0  0  0  0  0  0  0  0  0  0  0
  140.0440   68.9250  226.1900 C   0  0  0  0  0  0  0  0  0  0  0  0
  140.5840   69.3140  227.4020 C   0  0  0  0  0  0  0  0  0  0  0  0
  140.6800   68.1750  228.7200 Cl  0  0  0  0  0  0  0  0  0  0  0  0
  141.0600   70.6020  227.6120 C   0  0  0  0  0  0  0  0  0  0  0  0
  140.9980   71.5370  226.5790 C   0  0  0  0  0  0  0  0  0  0  0  0
  140.4600   71.1570  225.3630 C   0  0  0  0  0  0  0  0  0  0  0  0
  140.3950   72.0580  224.3510 N   0  0  0  0  0  0  0  0  0  0  0  0
  138.1600   73.8420  222.8210 H   0  0  0  0  0  0  0  0  0  0  0  0
  139.7572   74.4969  220.3237 H   0  0  0  0  0  0  0  0  0  0  0  0
  137.9441   74.3966  220.2774 H   0  0  0  0  0  0  0  0  0  0  0  0
  139.2502   77.7089  223.1722 H   0  0  0  0  0  0  0  0  0  0  0  0
  140.7601   76.6449  223.2266 H   0  0  0  0  0  0  0  0  0  0  0  0
  140.4459   79.4926  222.9216 H   0  0  0  0  0  0  0  0  0  0  0  0
  141.8466   78.3890  223.4603 H   0  0  0  0  0  0  0  0  0  0  0  0
  142.0297   80.0116  221.4467 H   0  0  0  0  0  0  0  0  0  0  0  0
  142.7796   78.3431  221.5331 H   0  0  0  0  0  0  0  0  0  0  0  0
  140.2744   79.1665  220.0607 H   0  0  0  0  0  0  0  0  0  0  0  0
  141.8762   78.6405  219.3787 H   0  0  0  0  0  0  0  0  0  0  0  0
  140.0816   76.8872  219.3391 H   0  0  0  0  0  0  0  0  0  0  0  0
  142.5194   76.9223  218.1718 H   0  0  0  0  0  0  0  0  0  0  0  0
  144.3436   75.2904  217.9139 H   0  0  0  0  0  0  0  0  0  0  0  0
  143.2233   73.4468  221.5978 H   0  0  0  0  0  0  0  0  0  0  0  0
  141.4245   75.0494  221.8592 H   0  0  0  0  0  0  0  0  0  0  0  0
  138.9987   70.2370  221.9593 H   0  0  0  0  0  0  0  0  0  0  0  0
  139.0675   68.5086  223.7333 H   0  0  0  0  0  0  0  0  0  0  0  0
  139.6704   67.9013  226.0402 H   0  0  0  0  0  0  0  0  0  0  0  0
  141.4835   70.8829  228.5876 H   0  0  0  0  0  0  0  0  0  0  0  0
  141.3712   72.5608  226.7291 H   0  0  0  0  0  0  0  0  0  0  0  0
  1  2  2  0
  2  3  1  0
  3  4  1  0
  4  5  1  0
  5  6  2  0
  5  7  1  0
  7  8  1  0
  8  9  1  0
  9 10  1  0
 10 11  1  0
 11 12  1  0
 12 13  1  0
 13 14  2  0
 14 15  1  0
 15 16  2  0
 16 17  1  0
 16 18  1  0
 18 19  2  0
  2 20  1  0
 20 21  2  0
 21 22  1  0
 22 23  2  0
 23 24  1  0
 24 25  2  0
 25 26  1  0
 25 27  1  0
 27 28  2  0
 28 29  1  0
 29 30  2  0
 12  7  1  0
 19 13  1  0
 30 20  1  0
 29 23  1  0
  3 31  1  0
  4 32  1  0
  4 33  1  0
  8 34  1  0
  8 35  1  0
  9 36  1  0
  9 37  1  0
 10 38  1  0
 10 39  1  0
 11 40  1  0
 11 41  1  0
 12 42  1  6
 14 43  1  0
 15 44  1  0
 18 45  1  0
 19 46  1  0
 21 47  1  0
 22 48  1  0
 24 49  1  0
 27 50  1  0
 28 51  1  0
M  END
>  <smiles>  (81) 
O=C(NCC(=O)N1CCCCC1c1ccc(Br)cc1)c1ccc2cc(Cl)ccc2n1

>  <score_type>  (81) 
oracle

>  <origin>  (81) 
autodockgpu

>  <m_score__min__energy>  (81) 
-9.1600000000000001

>  <m_primary>  (81) 
energy

>  <rmsd>  (81) 
2.7540496801114323

>  <m_score__min__rmsd>  (81) 
2.7540496801114323

>  <meeko>  (81) 
{"free_energy": -8.91, "intermolecular_energy": -10.4, "internal_energy": -1.76, "cluster_size": 32, "cluster_id": 1, "rank_in_cluster": 11}

>  <energy>  (81) 
-8.33

>  <cluster_rmsd>  (81) 
0.93

>  <cluster>  (81) 
1

$$$$

     RDKit          3D

 51 54  0  0  0  0  0  0  0  0999 V2000
  141.1510   72.0930  221.4940 O   0  0  0  0  0  0  0  0  0  0  0  0
  139.9720   72.5260  221.3600 C   0  0  0  0  0  0  0  0  0  0  0  0
  139.0240   71.5990  220.8280 N   0  0  0  0  0  0  0  0  0  0  0  0
  139.4860   70.2840  220.4960 C   0  0  0  0  0  0  0  0  0  0  0  0
  139.1200   69.2790  221.5380 C   0  0  0  0  0  0  0  0  0  0  0  0
  139.5990   68.1170  221.5590 O   0  0  0  0  0  0  0  0  0  0  0  0
  138.1900   69.6170  222.5630 N   0  0  0  0  0  0  0  0  0  0  0  0
  136.9070   68.9520  222.5270 C   0  0  0  0  0  0  0  0  0  0  0  0
  135.7990   69.6320  223.2380 C   0  0  0  0  0  0  0  0  0  0  0  0
  136.1460   70.7020  224.2000 C   0  0  0  0  0  0  0  0  0  0  0  0
  137.3850   71.4790  223.8360 C   0  0  0  0  0  0  0  0  0  0  0  0
  138.5650   70.5850  223.5670 C   0  0  1  0  0  0  0  0  0  0  0  0
  139.1600   70.0220  224.7830 C   0  0  0  0  0  0  0  0  0  0  0  0
  138.9390   68.7190  225.2080 C   0  0  0  0  0  0  0  0  0  0  0  0
  139.5140   68.2110  226.3610 C   0  0  0  0  0  0  0  0  0  0  0  0
  140.3370   68.9930  227.1360 C   0  0  0  0  0  0  0  0  0  0  0  0
  141.1000   68.2400  228.7110 Br  0  0  0  0  0  0  0  0  0  0  0  0
  140.5730   70.2810  226.7410 C   0  0  0  0  0  0  0  0  0  0  0  0
  140.0060   70.7720  225.6100 C   0  0  0  0  0  0  0  0  0  0  0  0
  139.5950   73.8880  221.7270 C   0  0  0  0  0  0  0  0  0  0  0  0
  138.2520   74.1740  221.8260 C   0  0  0  0  0  0  0  0  0  0  0  0
  137.7890   75.4270  222.1660 C   0  0  0  0  0  0  0  0  0  0  0  0
  138.7320   76.4200  222.4130 C   0  0  0  0  0  0  0  0  0  0  0  0
  138.3190   77.7100  222.7620 C   0  0  0  0  0  0  0  0  0  0  0  0
  139.2910   78.6650  222.9980 C   0  0  0  0  0  0  0  0  0  0  0  0
  138.8290   80.2890  223.4360 Cl  0  0  0  0  0  0  0  0  0  0  0  0
  140.6450   78.3720  222.8970 C   0  0  0  0  0  0  0  0  0  0  0  0
  141.0480   77.0830  222.5490 C   0  0  0  0  0  0  0  0  0  0  0  0
  140.0830   76.1220  222.3110 C   0  0  0  0  0  0  0  0  0  0  0  0
  140.4630   74.8650  221.9710 N   0  0  0  0  0  0  0  0  0  0  0  0
  138.0300   71.9110  220.6980 H   0  0  0  0  0  0  0  0  0  0  0  0
  139.0366   69.9816  219.5386 H   0  0  0  0  0  0  0  0  0  0  0  0
  140.5835   70.3179  220.4295 H   0  0  0  0  0  0  0  0  0  0  0  0
  136.6136   68.8450  221.4722 H   0  0  0  0  0  0  0  0  0  0  0  0
  137.0543   67.9979  223.0543 H   0  0  0  0  0  0  0  0  0  0  0  0
  135.1447   70.0778  222.4744 H   0  0  0  0  0  0  0  0  0  0  0  0
  135.3429   68.8439  223.8552 H   0  0  0  0  0  0  0  0  0  0  0  0
  135.3013   71.4046  224.2546 H   0  0  0  0  0  0  0  0  0  0  0  0
  136.3519   70.2092  225.1617 H   0  0  0  0  0  0  0  0  0  0  0  0
  137.1776   72.0715  222.9327 H   0  0  0  0  0  0  0  0  0  0  0  0
  137.6401   72.1226  224.6908 H   0  0  0  0  0  0  0  0  0  0  0  0
  139.3940   71.1828  223.1604 H   0  0  0  0  0  0  0  0  0  0  0  0
  138.2852   68.0682  224.6088 H   0  0  0  0  0  0  0  0  0  0  0  0
  139.3102   67.1720  226.6593 H   0  0  0  0  0  0  0  0  0  0  0  0
  141.2285   70.9249  227.3457 H   0  0  0  0  0  0  0  0  0  0  0  0
  140.2220   71.8131  225.3280 H   0  0  0  0  0  0  0  0  0  0  0  0
  137.5230   73.3747  221.6268 H   0  0  0  0  0  0  0  0  0  0  0  0
  136.7113   75.6348  222.2395 H   0  0  0  0  0  0  0  0  0  0  0  0
  137.2507   77.9580  222.8464 H   0  0  0  0  0  0  0  0  0  0  0  0
  141.3955   79.1526  223.0905 H   0  0  0  0  0  0  0  0  0  0  0  0
  142.1164   76.8349  222.4652 H   0  0  0  0  0  0  0  0  0  0  0  0
  1  2  2  0
  2  3  1  0
  3  4  1  0
  4  5  1  0
  5  6  2  0
  5  7  1  0
  7  8  1  0
  8  9  1  0
  9 10  1  0
 10 11  1  0
 11 12  1  0
 12 13  1  0
 13 14  2  0
 14 15  1  0
 15 16  2  0
 16 17  1  0
 16 18  1  0
 18 19  2  0
  2 20  1  0
 20 21  2  0
 21 22  1  0
 22 23  2  0
 23 24  1  0
 24 25  2  0
 25 26  1  0
 25 27  1  0
 27 28  2  0
 28 29  1  0
 29 30  2  0
 12  7  1  0
 19 13  1  0
 30 20  1  0
 29 23  1  0
  3 31  1  0
  4 32  1  0
  4 33  1  0
  8 34  1  0
  8 35  1  0
  9 36  1  0
  9 37  1  0
 10 38  1  0
 10 39  1  0
 11 40  1  0
 11 41  1  0
 12 42  1  6
 14 43  1  0
 15 44  1  0
 18 45  1  0
 19 46  1  0
 21 47  1  0
 22 48  1  0
 24 49  1  0
 27 50  1  0
 28 51  1  0
M  END
>  <smiles>  (82) 
O=C(NCC(=O)N1CCCCC1c1ccc(Br)cc1)c1ccc2cc(Cl)ccc2n1

>  <score_type>  (82) 
oracle

>  <origin>  (82) 
autodockgpu

>  <m_score__min__energy>  (82) 
-9.1600000000000001

>  <m_primary>  (82) 
energy

>  <rmsd>  (82) 
7.298306433235147

>  <m_score__min__rmsd>  (82) 
7.298306433235147

>  <meeko>  (82) 
{"free_energy": -7.69, "intermolecular_energy": -9.18, "internal_energy": -1.94, "cluster_size": 2, "cluster_id": 6, "rank_in_cluster": 2}

>  <energy>  (82) 
-8.33

>  <cluster_rmsd>  (82) 
0.92

>  <cluster>  (82) 
1

$$$$

     RDKit          3D

 51 54  0  0  0  0  0  0  0  0999 V2000
  139.2670   72.1820  220.4300 O   0  0  0  0  0  0  0  0  0  0  0  0
  139.1980   72.6020  221.6190 C   0  0  0  0  0  0  0  0  0  0  0  0
  138.8520   73.9800  221.7740 N   0  0  0  0  0  0  0  0  0  0  0  0
  138.6180   74.7500  220.5880 C   0  0  0  0  0  0  0  0  0  0  0  0
  138.6110   76.2180  220.8620 C   0  0  0  0  0  0  0  0  0  0  0  0
  137.5900   76.9330  220.7030 O   0  0  0  0  0  0  0  0  0  0  0  0
  139.7930   76.8670  221.3220 N   0  0  0  0  0  0  0  0  0  0  0  0
  139.8280   77.2530  222.7140 C   0  0  0  0  0  0  0  0  0  0  0  0
  140.7800   78.3300  223.0700 C   0  0  0  0  0  0  0  0  0  0  0  0
  141.8430   78.6660  222.0950 C   0  0  0  0  0  0  0  0  0  0  0  0
  141.4410   78.4720  220.6560 C   0  0  0  0  0  0  0  0  0  0  0  0
  140.8770   77.1020  220.3960 C   0  0  1  0  0  0  0  0  0  0  0  0
  141.8970   76.0490  220.3520 C   0  0  0  0  0  0  0  0  0  0  0  0
  141.7290   74.8000  220.9340 C   0  0  0  0  0  0  0  0  0  0  0  0
  142.7080   73.8220  220.8780 C   0  0  0  0  0  0  0  0  0  0  0  0
  143.8990   74.0590  220.2340 C   0  0  0  0  0  0  0  0  0  0  0  0
  145.2080   72.6770  220.1890 Br  0  0  0  0  0  0  0  0  0  0  0  0
  144.0910   75.2820  219.6510 C   0  0  0  0  0  0  0  0  0  0  0  0
  143.1270   76.2350  219.7100 C   0  0  0  0  0  0  0  0  0  0  0  0
  139.4540   71.7390  222.7680 C   0  0  0  0  0  0  0  0  0  0  0  0
  139.0350   70.4290  222.6880 C   0  0  0  0  0  0  0  0  0  0  0  0
  139.2280   69.5310  223.7160 C   0  0  0  0  0  0  0  0  0  0  0  0
  139.8690   69.9880  224.8630 C   0  0  0  0  0  0  0  0  0  0  0  0
  140.0900   69.1200  225.9370 C   0  0  0  0  0  0  0  0  0  0  0  0
  140.7310   69.6180  227.0570 C   0  0  0  0  0  0  0  0  0  0  0  0
  141.0320   68.5770  228.4240 Cl  0  0  0  0  0  0  0  0  0  0  0  0
  141.1510   70.9400  227.1340 C   0  0  0  0  0  0  0  0  0  0  0  0
  140.9260   71.7980  226.0580 C   0  0  0  0  0  0  0  0  0  0  0  0
  140.2860   71.3090  224.9340 C   0  0  0  0  0  0  0  0  0  0  0  0
  140.0610   72.1360  223.8810 N   0  0  0  0  0  0  0  0  0  0  0  0
  138.7810   74.3780  222.7430 H   0  0  0  0  0  0  0  0  0  0  0  0
  139.4121   74.5292  219.8596 H   0  0  0  0  0  0  0  0  0  0  0  0
  137.6279   74.4745  220.1958 H   0  0  0  0  0  0  0  0  0  0  0  0
  138.8193   77.5906  222.9941 H   0  0  0  0  0  0  0  0  0  0  0  0
  140.1746   76.3620  223.2580 H   0  0  0  0  0  0  0  0  0  0  0  0
  140.1918   79.2437  223.2411 H   0  0  0  0  0  0  0  0  0  0  0  0
  141.3214   77.9412  223.9451 H   0  0  0  0  0  0  0  0  0  0  0  0
  142.1211   79.7208  222.2369 H   0  0  0  0  0  0  0  0  0  0  0  0
  142.6788   77.9770  222.2867 H   0  0  0  0  0  0  0  0  0  0  0  0
  140.6788   79.2221  220.3983 H   0  0  0  0  0  0  0  0  0  0  0  0
  142.3441   78.5848  220.0382 H   0  0  0  0  0  0  0  0  0  0  0  0
  140.4613   77.0628  219.3783 H   0  0  0  0  0  0  0  0  0  0  0  0
  140.7868   74.5797  221.4572 H   0  0  0  0  0  0  0  0  0  0  0  0
  142.5307   72.8461  221.3535 H   0  0  0  0  0  0  0  0  0  0  0  0
  145.0359   75.4946  219.1295 H   0  0  0  0  0  0  0  0  0  0  0  0
  143.3222   77.2044  219.2282 H   0  0  0  0  0  0  0  0  0  0  0  0
  138.5292   70.0880  221.7726 H   0  0  0  0  0  0  0  0  0  0  0  0
  138.8868   68.4886  223.6322 H   0  0  0  0  0  0  0  0  0  0  0  0
  139.7632   68.0706  225.8923 H   0  0  0  0  0  0  0  0  0  0  0  0
  141.6580   71.3077  228.0383 H   0  0  0  0  0  0  0  0  0  0  0  0
  141.2525   72.8475  226.1027 H   0  0  0  0  0  0  0  0  0  0  0  0
  1  2  2  0
  2  3  1  0
  3  4  1  0
  4  5  1  0
  5  6  2  0
  5  7  1  0
  7  8  1  0
  8  9  1  0
  9 10  1  0
 10 11  1  0
 11 12  1  0
 12 13  1  0
 13 14  2  0
 14 15  1  0
 15 16  2  0
 16 17  1  0
 16 18  1  0
 18 19  2  0
  2 20  1  0
 20 21  2  0
 21 22  1  0
 22 23  2  0
 23 24  1  0
 24 25  2  0
 25 26  1  0
 25 27  1  0
 27 28  2  0
 28 29  1  0
 29 30  2  0
 12  7  1  0
 19 13  1  0
 30 20  1  0
 29 23  1  0
  3 31  1  0
  4 32  1  0
  4 33  1  0
  8 34  1  0
  8 35  1  0
  9 36  1  0
  9 37  1  0
 10 38  1  0
 10 39  1  0
 11 40  1  0
 11 41  1  0
 12 42  1  6
 14 43  1  0
 15 44  1  0
 18 45  1  0
 19 46  1  0
 21 47  1  0
 22 48  1  0
 24 49  1  0
 27 50  1  0
 28 51  1  0
M  END
>  <smiles>  (83) 
O=C(NCC(=O)N1CCCCC1c1ccc(Br)cc1)c1ccc2cc(Cl)ccc2n1

>  <score_type>  (83) 
oracle

>  <origin>  (83) 
autodockgpu

>  <m_score__min__energy>  (83) 
-9.1600000000000001

>  <m_primary>  (83) 
energy

>  <rmsd>  (83) 
2.8074382799506625

>  <m_score__min__rmsd>  (83) 
2.8074382799506625

>  <meeko>  (83) 
{"free_energy": -8.74, "intermolecular_energy": -10.23, "internal_energy": -1.88, "cluster_size": 32, "cluster_id": 1, "rank_in_cluster": 15}

>  <energy>  (83) 
-8.89

>  <cluster_rmsd>  (83) 
0.0

>  <cluster>  (83) 
2

$$$$

     RDKit          3D

 51 54  0  0  0  0  0  0  0  0999 V2000
  140.1560   72.3020  220.9000 O   0  0  0  0  0  0  0  0  0  0  0  0
  139.5110   72.4180  221.9800 C   0  0  0  0  0  0  0  0  0  0  0  0
  138.5590   73.4830  222.0260 N   0  0  0  0  0  0  0  0  0  0  0  0
  138.4240   74.3120  220.8650 C   0  0  0  0  0  0  0  0  0  0  0  0
  138.7750   75.7360  221.1460 C   0  0  0  0  0  0  0  0  0  0  0  0
  138.1890   76.4200  222.0220 O   0  0  0  0  0  0  0  0  0  0  0  0
  139.8120   76.3770  220.4080 N   0  0  0  0  0  0  0  0  0  0  0  0
  139.4520   76.9330  219.1220 C   0  0  0  0  0  0  0  0  0  0  0  0
  140.5630   77.1340  218.1640 C   0  0  0  0  0  0  0  0  0  0  0  0
  141.9460   77.1030  218.6890 C   0  0  0  0  0  0  0  0  0  0  0  0
  142.1360   76.1820  219.8670 C   0  0  0  0  0  0  0  0  0  0  0  0
  141.1430   76.4420  220.9660 C   0  0  1  0  0  0  0  0  0  0  0  0
  141.4330   77.6500  221.7430 C   0  0  0  0  0  0  0  0  0  0  0  0
  141.3330   77.7100  223.1270 C   0  0  0  0  0  0  0  0  0  0  0  0
  141.6130   78.8650  223.8380 C   0  0  0  0  0  0  0  0  0  0  0  0
  142.0080   80.0090  223.1880 C   0  0  0  0  0  0  0  0  0  0  0  0
  142.3810   81.5670  224.2190 Br  0  0  0  0  0  0  0  0  0  0  0  0
  142.1160   79.9790  221.8250 C   0  0  0  0  0  0  0  0  0  0  0  0
  141.8390   78.8440  221.1330 C   0  0  0  0  0  0  0  0  0  0  0  0
  139.7180   71.5210  223.1130 C   0  0  0  0  0  0  0  0  0  0  0  0
  139.3690   70.1980  222.9520 C   0  0  0  0  0  0  0  0  0  0  0  0
  139.5240   69.2690  223.9580 C   0  0  0  0  0  0  0  0  0  0  0  0
  140.0540   69.7080  225.1690 C   0  0  0  0  0  0  0  0  0  0  0  0
  140.2330   68.8080  226.2240 C   0  0  0  0  0  0  0  0  0  0  0  0
  140.7630   69.2880  227.4080 C   0  0  0  0  0  0  0  0  0  0  0  0
  141.0070   68.2070  228.7560 Cl  0  0  0  0  0  0  0  0  0  0  0  0
  141.1130   70.6230  227.5660 C   0  0  0  0  0  0  0  0  0  0  0  0
  140.9300   71.5130  226.5070 C   0  0  0  0  0  0  0  0  0  0  0  0
  140.4020   71.0420  225.3200 C   0  0  0  0  0  0  0  0  0  0  0  0
  140.2200   71.8990  224.2840 N   0  0  0  0  0  0  0  0  0  0  0  0
  137.9970   73.6210  222.9010 H   0  0  0  0  0  0  0  0  0  0  0  0
  139.0914   73.9311  220.0780 H   0  0  0  0  0  0  0  0  0  0  0  0
  137.3715   74.2796  220.5469 H   0  0  0  0  0  0  0  0  0  0  0  0
  138.7240   76.2538  218.6543 H   0  0  0  0  0  0  0  0  0  0  0  0
  139.0603   77.9386  219.3346 H   0  0  0  0  0  0  0  0  0  0  0  0
  140.4846   76.3449  217.4017 H   0  0  0  0  0  0  0  0  0  0  0  0
  140.4298   78.1636  217.8003 H   0  0  0  0  0  0  0  0  0  0  0  0
  142.6151   76.7728  217.8808 H   0  0  0  0  0  0  0  0  0  0  0  0
  142.1749   78.1198  219.0408 H   0  0  0  0  0  0  0  0  0  0  0  0
  142.0200   75.1430  219.5250 H   0  0  0  0  0  0  0  0  0  0  0  0
  143.1415   76.3631  220.2747 H   0  0  0  0  0  0  0  0  0  0  0  0
  141.2250   75.6536  221.7287 H   0  0  0  0  0  0  0  0  0  0  0  0
  141.0209   76.8099  223.6769 H   0  0  0  0  0  0  0  0  0  0  0  0
  141.5182   78.8664  224.9339 H   0  0  0  0  0  0  0  0  0  0  0  0
  142.4305   80.8835  221.2838 H   0  0  0  0  0  0  0  0  0  0  0  0
  141.9385   78.8630  220.0377 H   0  0  0  0  0  0  0  0  0  0  0  0
  138.9524   69.8721  221.9875 H   0  0  0  0  0  0  0  0  0  0  0  0
  139.2390   68.2170  223.8097 H   0  0  0  0  0  0  0  0  0  0  0  0
  139.9600   67.7480  226.1154 H   0  0  0  0  0  0  0  0  0  0  0  0
  141.5318   70.9763  228.5198 H   0  0  0  0  0  0  0  0  0  0  0  0
  141.2019   72.5733  226.6154 H   0  0  0  0  0  0  0  0  0  0  0  0
  1  2  2  0
  2  3  1  0
  3  4  1  0
  4  5  1  0
  5  6  2  0
  5  7  1  0
  7  8  1  0
  8  9  1  0
  9 10  1  0
 10 11  1  0
 11 12  1  0
 12 13  1  0
 13 14  2  0
 14 15  1  0
 15 16  2  0
 16 17  1  0
 16 18  1  0
 18 19  2  0
  2 20  1  0
 20 21  2  0
 21 22  1  0
 22 23  2  0
 23 24  1  0
 24 25  2  0
 25 26  1  0
 25 27  1  0
 27 28  2  0
 28 29  1  0
 29 30  2  0
 12  7  1  0
 19 13  1  0
 30 20  1  0
 29 23  1  0
  3 31  1  0
  4 32  1  0
  4 33  1  0
  8 34  1  0
  8 35  1  0
  9 36  1  0
  9 37  1  0
 10 38  1  0
 10 39  1  0
 11 40  1  0
 11 41  1  0
 12 42  1  1
 14 43  1  0
 15 44  1  0
 18 45  1  0
 19 46  1  0
 21 47  1  0
 22 48  1  0
 24 49  1  0
 27 50  1  0
 28 51  1  0
M  END
>  <smiles>  (84) 
O=C(NCC(=O)N1CCCCC1c1ccc(Br)cc1)c1ccc2cc(Cl)ccc2n1

>  <score_type>  (84) 
oracle

>  <origin>  (84) 
autodockgpu

>  <m_score__min__energy>  (84) 
-9.1600000000000001

>  <m_primary>  (84) 
energy

>  <rmsd>  (84) 
1.5403807872616706

>  <m_score__min__rmsd>  (84) 
1.5403807872616706

>  <meeko>  (84) 
{"free_energy": -8.89, "intermolecular_energy": -10.38, "internal_energy": -1.41, "cluster_size": 10, "cluster_id": 2, "rank_in_cluster": 1}

>  <energy>  (84) 
-8.7

>  <cluster_rmsd>  (84) 
0.67

>  <cluster>  (84) 
2

$$$$

     RDKit          3D

 51 54  0  0  0  0  0  0  0  0999 V2000
  139.8610   71.3400  220.9700 O   0  0  0  0  0  0  0  0  0  0  0  0
  139.5930   71.9470  222.0450 C   0  0  0  0  0  0  0  0  0  0  0  0
  138.9200   73.1990  221.9020 N   0  0  0  0  0  0  0  0  0  0  0  0
  138.6130   73.6480  220.5760 C   0  0  0  0  0  0  0  0  0  0  0  0
  138.4130   75.1260  220.5140 C   0  0  0  0  0  0  0  0  0  0  0  0
  137.3770   75.6520  220.0340 O   0  0  0  0  0  0  0  0  0  0  0  0
  139.4180   76.0060  221.0100 N   0  0  0  0  0  0  0  0  0  0  0  0
  139.2790   76.4540  222.3780 C   0  0  0  0  0  0  0  0  0  0  0  0
  139.9870   77.7060  222.7310 C   0  0  0  0  0  0  0  0  0  0  0  0
  141.0370   78.1930  221.8080 C   0  0  0  0  0  0  0  0  0  0  0  0
  140.7830   77.8620  220.3590 C   0  0  0  0  0  0  0  0  0  0  0  0
  140.5040   76.4010  220.1430 C   0  0  1  0  0  0  0  0  0  0  0  0
  141.7010   75.5590  220.2240 C   0  0  0  0  0  0  0  0  0  0  0  0
  141.7000   74.2810  220.7670 C   0  0  0  0  0  0  0  0  0  0  0  0
  142.8460   73.5050  220.8310 C   0  0  0  0  0  0  0  0  0  0  0  0
  144.0420   73.9820  220.3510 C   0  0  0  0  0  0  0  0  0  0  0  0
  145.5850   72.8700  220.4650 Br  0  0  0  0  0  0  0  0  0  0  0  0
  144.0720   75.2380  219.8100 C   0  0  0  0  0  0  0  0  0  0  0  0
  142.9460   75.9930  219.7500 C   0  0  0  0  0  0  0  0  0  0  0  0
  139.9470   71.4080  223.3550 C   0  0  0  0  0  0  0  0  0  0  0  0
  140.6950   72.2040  224.1920 C   0  0  0  0  0  0  0  0  0  0  0  0
  141.0820   71.7910  225.4490 C   0  0  0  0  0  0  0  0  0  0  0  0
  140.6900   70.5210  225.8620 C   0  0  0  0  0  0  0  0  0  0  0  0
  141.0550   70.0510  227.1280 C   0  0  0  0  0  0  0  0  0  0  0  0
  140.6430   68.7830  227.4960 C   0  0  0  0  0  0  0  0  0  0  0  0
  141.0720   68.1480  229.0640 Cl  0  0  0  0  0  0  0  0  0  0  0  0
  139.8890   67.9820  226.6480 C   0  0  0  0  0  0  0  0  0  0  0  0
  139.5300   68.4600  225.3870 C   0  0  0  0  0  0  0  0  0  0  0  0
  139.9370   69.7270  225.0110 C   0  0  0  0  0  0  0  0  0  0  0  0
  139.5940   70.2010  223.7870 N   0  0  0  0  0  0  0  0  0  0  0  0
  138.6740   73.7430  222.7660 H   0  0  0  0  0  0  0  0  0  0  0  0
  139.4431   73.3744  219.9082 H   0  0  0  0  0  0  0  0  0  0  0  0
  137.6741   73.1666  220.2650 H   0  0  0  0  0  0  0  0  0  0  0  0
  138.2075   76.6077  222.5736 H   0  0  0  0  0  0  0  0  0  0  0  0
  139.7436   75.6695  222.9934 H   0  0  0  0  0  0  0  0  0  0  0  0
  139.2290   78.4990  222.8122 H   0  0  0  0  0  0  0  0  0  0  0  0
  140.5262   77.4652  223.6590 H   0  0  0  0  0  0  0  0  0  0  0  0
  141.1035   79.2866  221.9063 H   0  0  0  0  0  0  0  0  0  0  0  0
  141.9701   77.6841  222.0914 H   0  0  0  0  0  0  0  0  0  0  0  0
  139.9154   78.4420  220.0114 H   0  0  0  0  0  0  0  0  0  0  0  0
  141.6918   78.1160  219.7937 H   0  0  0  0  0  0  0  0  0  0  0  0
  140.1784   76.2397  219.1047 H   0  0  0  0  0  0  0  0  0  0  0  0
  140.7578   73.8709  221.1595 H   0  0  0  0  0  0  0  0  0  0  0  0
  142.7980   72.4976  221.2702 H   0  0  0  0  0  0  0  0  0  0  0  0
  145.0185   75.6401  219.4196 H   0  0  0  0  0  0  0  0  0  0  0  0
  143.0142   76.9973  219.3065 H   0  0  0  0  0  0  0  0  0  0  0  0
  140.9945   73.2043  223.8461 H   0  0  0  0  0  0  0  0  0  0  0  0
  141.6800   72.4427  226.1030 H   0  0  0  0  0  0  0  0  0  0  0  0
  141.6526   70.6722  227.8114 H   0  0  0  0  0  0  0  0  0  0  0  0
  139.5768   66.9771  226.9684 H   0  0  0  0  0  0  0  0  0  0  0  0
  138.9329   67.8389  224.7031 H   0  0  0  0  0  0  0  0  0  0  0  0
  1  2  2  0
  2  3  1  0
  3  4  1  0
  4  5  1  0
  5  6  2  0
  5  7  1  0
  7  8  1  0
  8  9  1  0
  9 10  1  0
 10 11  1  0
 11 12  1  0
 12 13  1  0
 13 14  2  0
 14 15  1  0
 15 16  2  0
 16 17  1  0
 16 18  1  0
 18 19  2  0
  2 20  1  0
 20 21  2  0
 21 22  1  0
 22 23  2  0
 23 24  1  0
 24 25  2  0
 25 26  1  0
 25 27  1  0
 27 28  2  0
 28 29  1  0
 29 30  2  0
 12  7  1  0
 19 13  1  0
 30 20  1  0
 29 23  1  0
  3 31  1  0
  4 32  1  0
  4 33  1  0
  8 34  1  0
  8 35  1  0
  9 36  1  0
  9 37  1  0
 10 38  1  0
 10 39  1  0
 11 40  1  0
 11 41  1  0
 12 42  1  6
 14 43  1  0
 15 44  1  0
 18 45  1  0
 19 46  1  0
 21 47  1  0
 22 48  1  0
 24 49  1  0
 27 50  1  0
 28 51  1  0
M  END
>  <smiles>  (85) 
O=C(NCC(=O)N1CCCCC1c1ccc(Br)cc1)c1ccc2cc(Cl)ccc2n1

>  <score_type>  (85) 
oracle

>  <origin>  (85) 
autodockgpu

>  <m_score__min__energy>  (85) 
-9.1600000000000001

>  <m_primary>  (85) 
energy

>  <rmsd>  (85) 
3.2837722798210827

>  <m_score__min__rmsd>  (85) 
3.2837722798210827

>  <meeko>  (85) 
{"free_energy": -8.33, "intermolecular_energy": -9.82, "internal_energy": -1.82, "cluster_size": 32, "cluster_id": 1, "rank_in_cluster": 32}

>  <energy>  (85) 
-8.6

>  <cluster_rmsd>  (85) 
1.84

>  <cluster>  (85) 
2

$$$$

     RDKit          3D

 51 54  0  0  0  0  0  0  0  0999 V2000
  138.4420   71.9330  221.0720 O   0  0  0  0  0  0  0  0  0  0  0  0
  138.9270   72.3590  222.1580 C   0  0  0  0  0  0  0  0  0  0  0  0
  139.1370   73.7700  222.2360 N   0  0  0  0  0  0  0  0  0  0  0  0
  138.7870   74.5640  221.0950 C   0  0  0  0  0  0  0  0  0  0  0  0
  138.6330   76.0080  221.4400 C   0  0  0  0  0  0  0  0  0  0  0  0
  137.5210   76.5270  221.7140 O   0  0  0  0  0  0  0  0  0  0  0  0
  139.7720   76.8640  221.4680 N   0  0  0  0  0  0  0  0  0  0  0  0
  140.0080   77.5990  222.6900 C   0  0  0  0  0  0  0  0  0  0  0  0
  140.8430   78.8170  222.5680 C   0  0  0  0  0  0  0  0  0  0  0  0
  141.6450   78.9880  221.3360 C   0  0  0  0  0  0  0  0  0  0  0  0
  141.0150   78.3900  220.1040 C   0  0  0  0  0  0  0  0  0  0  0  0
  140.6190   76.9520  220.3010 C   0  0  1  0  0  0  0  0  0  0  0  0
  141.7550   76.0260  220.2850 C   0  0  0  0  0  0  0  0  0  0  0  0
  142.9680   76.3180  219.6750 C   0  0  0  0  0  0  0  0  0  0  0  0
  144.0270   75.4240  219.6740 C   0  0  0  0  0  0  0  0  0  0  0  0
  143.9110   74.2000  220.2870 C   0  0  0  0  0  0  0  0  0  0  0  0
  145.4000   73.0130  220.2530 Br  0  0  0  0  0  0  0  0  0  0  0  0
  142.7270   73.8870  220.8960 C   0  0  0  0  0  0  0  0  0  0  0  0
  141.6930   74.7660  220.8930 C   0  0  0  0  0  0  0  0  0  0  0  0
  139.2520   71.4690  223.2690 C   0  0  0  0  0  0  0  0  0  0  0  0
  138.9620   70.1310  223.1220 C   0  0  0  0  0  0  0  0  0  0  0  0
  139.2290   69.2070  224.1090 C   0  0  0  0  0  0  0  0  0  0  0  0
  139.8120   69.6680  225.2860 C   0  0  0  0  0  0  0  0  0  0  0  0
  140.1050   68.7740  226.3210 C   0  0  0  0  0  0  0  0  0  0  0  0
  140.6840   69.2760  227.4720 C   0  0  0  0  0  0  0  0  0  0  0  0
  141.0690   68.2040  228.7930 Cl  0  0  0  0  0  0  0  0  0  0  0  0
  140.9750   70.6270  227.6170 C   0  0  0  0  0  0  0  0  0  0  0  0
  140.6800   71.5100  226.5790 C   0  0  0  0  0  0  0  0  0  0  0  0
  140.1010   71.0170  225.4240 C   0  0  0  0  0  0  0  0  0  0  0  0
  139.8080   71.8680  224.4080 N   0  0  0  0  0  0  0  0  0  0  0  0
  139.5370   74.1740  223.1190 H   0  0  0  0  0  0  0  0  0  0  0  0
  139.5777   74.4631  220.3370 H   0  0  0  0  0  0  0  0  0  0  0  0
  137.8202   74.2022  220.7150 H   0  0  0  0  0  0  0  0  0  0  0  0
  139.0306   77.9009  223.0945 H   0  0  0  0  0  0  0  0  0  0  0  0
  140.5749   76.9164  223.3402 H   0  0  0  0  0  0  0  0  0  0  0  0
  140.1702   79.6840  222.6435 H   0  0  0  0  0  0  0  0  0  0  0  0
  141.5889   78.7208  223.3707 H   0  0  0  0  0  0  0  0  0  0  0  0
  141.7875   80.0650  221.1632 H   0  0  0  0  0  0  0  0  0  0  0  0
  142.5934   78.4548  221.4981 H   0  0  0  0  0  0  0  0  0  0  0  0
  140.1169   78.9717  219.8490 H   0  0  0  0  0  0  0  0  0  0  0  0
  141.7610   78.4241  219.2964 H   0  0  0  0  0  0  0  0  0  0  0  0
  140.0319   76.6102  219.4359 H   0  0  0  0  0  0  0  0  0  0  0  0
  143.0923   77.2906  219.1764 H   0  0  0  0  0  0  0  0  0  0  0  0
  144.9698   75.6972  219.1774 H   0  0  0  0  0  0  0  0  0  0  0  0
  142.6117   72.9127  221.3934 H   0  0  0  0  0  0  0  0  0  0  0  0
  140.7582   74.4737  221.3938 H   0  0  0  0  0  0  0  0  0  0  0  0
  138.5012   69.7877  222.1841 H   0  0  0  0  0  0  0  0  0  0  0  0
  138.9897   68.1422  223.9715 H   0  0  0  0  0  0  0  0  0  0  0  0
  139.8811   67.7016  226.2221 H   0  0  0  0  0  0  0  0  0  0  0  0
  141.4352   70.9975  228.5449 H   0  0  0  0  0  0  0  0  0  0  0  0
  140.9044   72.5824  226.6773 H   0  0  0  0  0  0  0  0  0  0  0  0
  1  2  2  0
  2  3  1  0
  3  4  1  0
  4  5  1  0
  5  6  2  0
  5  7  1  0
  7  8  1  0
  8  9  1  0
  9 10  1  0
 10 11  1  0
 11 12  1  0
 12 13  1  0
 13 14  2  0
 14 15  1  0
 15 16  2  0
 16 17  1  0
 16 18  1  0
 18 19  2  0
  2 20  1  0
 20 21  2  0
 21 22  1  0
 22 23  2  0
 23 24  1  0
 24 25  2  0
 25 26  1  0
 25 27  1  0
 27 28  2  0
 28 29  1  0
 29 30  2  0
 12  7  1  0
 19 13  1  0
 30 20  1  0
 29 23  1  0
  3 31  1  0
  4 32  1  0
  4 33  1  0
  8 34  1  0
  8 35  1  0
  9 36  1  0
  9 37  1  0
 10 38  1  0
 10 39  1  0
 11 40  1  0
 11 41  1  0
 12 42  1  6
 14 43  1  0
 15 44  1  0
 18 45  1  0
 19 46  1  0
 21 47  1  0
 22 48  1  0
 24 49  1  0
 27 50  1  0
 28 51  1  0
M  END
>  <smiles>  (86) 
O=C(NCC(=O)N1CCCCC1c1ccc(Br)cc1)c1ccc2cc(Cl)ccc2n1

>  <score_type>  (86) 
oracle

>  <origin>  (86) 
autodockgpu

>  <m_score__min__energy>  (86) 
-9.1600000000000001

>  <m_primary>  (86) 
energy

>  <rmsd>  (86) 
2.6699341377999373

>  <m_score__min__rmsd>  (86) 
2.6699341377999373

>  <meeko>  (86) 
{"free_energy": -8.97, "intermolecular_energy": -10.46, "internal_energy": -1.54, "cluster_size": 32, "cluster_id": 1, "rank_in_cluster": 7}

>  <energy>  (86) 
-8.57

>  <cluster_rmsd>  (86) 
1.83

>  <cluster>  (86) 
2

$$$$

     RDKit          3D

 51 54  0  0  0  0  0  0  0  0999 V2000
  140.7370   73.4050  222.0450 O   0  0  0  0  0  0  0  0  0  0  0  0
  139.7690   72.7490  222.5230 C   0  0  0  0  0  0  0  0  0  0  0  0
  138.4920   73.0070  221.9370 N   0  0  0  0  0  0  0  0  0  0  0  0
  138.4220   73.9700  220.8780 C   0  0  0  0  0  0  0  0  0  0  0  0
  138.8060   75.3380  221.3350 C   0  0  0  0  0  0  0  0  0  0  0  0
  138.6250   75.7360  222.5130 O   0  0  0  0  0  0  0  0  0  0  0  0
  139.4020   76.2570  220.4230 N   0  0  0  0  0  0  0  0  0  0  0  0
  138.5210   76.9010  219.4740 C   0  0  0  0  0  0  0  0  0  0  0  0
  139.1600   77.4360  218.2500 C   0  0  0  0  0  0  0  0  0  0  0  0
  140.6310   77.5960  218.2480 C   0  0  0  0  0  0  0  0  0  0  0  0
  141.3620   76.5790  219.0860 C   0  0  0  0  0  0  0  0  0  0  0  0
  140.8250   76.4960  220.4880 C   0  0  1  0  0  0  0  0  0  0  0  0
  141.2280   77.6230  221.3350 C   0  0  0  0  0  0  0  0  0  0  0  0
  141.8030   78.7840  220.8370 C   0  0  0  0  0  0  0  0  0  0  0  0
  142.1750   79.8340  221.6600 C   0  0  0  0  0  0  0  0  0  0  0  0
  141.9850   79.7610  223.0190 C   0  0  0  0  0  0  0  0  0  0  0  0
  142.5160   81.2370  224.1000 Br  0  0  0  0  0  0  0  0  0  0  0  0
  141.4200   78.6280  223.5370 C   0  0  0  0  0  0  0  0  0  0  0  0
  141.0580   77.6030  222.7250 C   0  0  0  0  0  0  0  0  0  0  0  0
  139.9390   71.7860  223.6070 C   0  0  0  0  0  0  0  0  0  0  0  0
  139.5750   70.4800  223.3630 C   0  0  0  0  0  0  0  0  0  0  0  0
  139.6950   69.4920  224.3170 C   0  0  0  0  0  0  0  0  0  0  0  0
  140.2030   69.8530  225.5620 C   0  0  0  0  0  0  0  0  0  0  0  0
  140.3460   68.8910  226.5670 C   0  0  0  0  0  0  0  0  0  0  0  0
  140.8550   69.2950  227.7880 C   0  0  0  0  0  0  0  0  0  0  0  0
  141.0530   68.1350  229.0770 Cl  0  0  0  0  0  0  0  0  0  0  0  0
  141.2190   70.6130  228.0300 C   0  0  0  0  0  0  0  0  0  0  0  0
  141.0730   71.5650  227.0220 C   0  0  0  0  0  0  0  0  0  0  0  0
  140.5650   71.1710  225.7970 C   0  0  0  0  0  0  0  0  0  0  0  0
  140.4190   72.0880  224.8090 N   0  0  0  0  0  0  0  0  0  0  0  0
  137.6550   72.4860  222.2990 H   0  0  0  0  0  0  0  0  0  0  0  0
  139.1041   73.6610  220.0723 H   0  0  0  0  0  0  0  0  0  0  0  0
  137.3805   74.0109  220.5264 H   0  0  0  0  0  0  0  0  0  0  0  0
  137.7652   76.1644  219.1639 H   0  0  0  0  0  0  0  0  0  0  0  0
  138.1104   77.7760  219.9992 H   0  0  0  0  0  0  0  0  0  0  0  0
  138.9036   76.7569  217.4235 H   0  0  0  0  0  0  0  0  0  0  0  0
  138.7718   78.4615  218.1630 H   0  0  0  0  0  0  0  0  0  0  0  0
  140.9865   77.5086  217.2107 H   0  0  0  0  0  0  0  0  0  0  0  0
  140.8433   78.5813  218.6885 H   0  0  0  0  0  0  0  0  0  0  0  0
  141.2615   75.5921  218.6106 H   0  0  0  0  0  0  0  0  0  0  0  0
  142.4147   76.8919  219.1490 H   0  0  0  0  0  0  0  0  0  0  0  0
  141.2835   75.6413  221.0070 H   0  0  0  0  0  0  0  0  0  0  0  0
  141.9686   78.8731  219.7532 H   0  0  0  0  0  0  0  0  0  0  0  0
  142.6272   80.7357  221.2213 H   0  0  0  0  0  0  0  0  0  0  0  0
  141.2576   78.5471  224.6219 H   0  0  0  0  0  0  0  0  0  0  0  0
  140.6075   76.7097  223.1823 H   0  0  0  0  0  0  0  0  0  0  0  0
  139.1748   70.2164  222.3729 H   0  0  0  0  0  0  0  0  0  0  0  0
  139.3996   68.4544  224.1020 H   0  0  0  0  0  0  0  0  0  0  0  0
  140.0618   67.8430  226.3914 H   0  0  0  0  0  0  0  0  0  0  0  0
  141.6204   70.9044  229.0118 H   0  0  0  0  0  0  0  0  0  0  0  0
  141.3573   72.6130  227.1979 H   0  0  0  0  0  0  0  0  0  0  0  0
  1  2  2  0
  2  3  1  0
  3  4  1  0
  4  5  1  0
  5  6  2  0
  5  7  1  0
  7  8  1  0
  8  9  1  0
  9 10  1  0
 10 11  1  0
 11 12  1  0
 12 13  1  0
 13 14  2  0
 14 15  1  0
 15 16  2  0
 16 17  1  0
 16 18  1  0
 18 19  2  0
  2 20  1  0
 20 21  2  0
 21 22  1  0
 22 23  2  0
 23 24  1  0
 24 25  2  0
 25 26  1  0
 25 27  1  0
 27 28  2  0
 28 29  1  0
 29 30  2  0
 12  7  1  0
 19 13  1  0
 30 20  1  0
 29 23  1  0
  3 31  1  0
  4 32  1  0
  4 33  1  0
  8 34  1  0
  8 35  1  0
  9 36  1  0
  9 37  1  0
 10 38  1  0
 10 39  1  0
 11 40  1  0
 11 41  1  0
 12 42  1  1
 14 43  1  0
 15 44  1  0
 18 45  1  0
 19 46  1  0
 21 47  1  0
 22 48  1  0
 24 49  1  0
 27 50  1  0
 28 51  1  0
M  END
>  <smiles>  (87) 
O=C(NCC(=O)N1CCCCC1c1ccc(Br)cc1)c1ccc2cc(Cl)ccc2n1

>  <score_type>  (87) 
oracle

>  <origin>  (87) 
autodockgpu

>  <m_score__min__energy>  (87) 
-9.1600000000000001

>  <m_primary>  (87) 
energy

>  <rmsd>  (87) 
1.5366265164096538

>  <m_score__min__rmsd>  (87) 
1.5366265164096538

>  <meeko>  (87) 
{"free_energy": -8.7, "intermolecular_energy": -10.19, "internal_energy": -1.4, "cluster_size": 10, "cluster_id": 2, "rank_in_cluster": 2}

>  <energy>  (87) 
-8.53

>  <cluster_rmsd>  (87) 
1.2

>  <cluster>  (87) 
2

$$$$

     RDKit          3D

 51 54  0  0  0  0  0  0  0  0999 V2000
  140.8490   72.3990  221.2570 O   0  0  0  0  0  0  0  0  0  0  0  0
  140.0930   72.5390  222.2600 C   0  0  0  0  0  0  0  0  0  0  0  0
  139.2040   73.6570  222.2180 N   0  0  0  0  0  0  0  0  0  0  0  0
  139.2480   74.5060  221.0640 C   0  0  0  0  0  0  0  0  0  0  0  0
  140.1530   75.6770  221.2610 C   0  0  0  0  0  0  0  0  0  0  0  0
  140.4010   76.1610  222.3940 O   0  0  0  0  0  0  0  0  0  0  0  0
  140.7770   76.2970  220.1390 N   0  0  0  0  0  0  0  0  0  0  0  0
  140.1540   76.0950  218.8500 C   0  0  0  0  0  0  0  0  0  0  0  0
  141.0240   76.2880  217.6680 C   0  0  0  0  0  0  0  0  0  0  0  0
  142.3080   76.9980  217.8590 C   0  0  0  0  0  0  0  0  0  0  0  0
  142.9310   76.7880  219.2160 C   0  0  0  0  0  0  0  0  0  0  0  0
  141.9740   77.0810  220.3380 C   0  0  1  0  0  0  0  0  0  0  0  0
  141.7510   78.5130  220.5580 C   0  0  0  0  0  0  0  0  0  0  0  0
  141.5230   79.0660  221.8110 C   0  0  0  0  0  0  0  0  0  0  0  0
  141.3150   80.4230  221.9910 C   0  0  0  0  0  0  0  0  0  0  0  0
  141.3280   81.2830  220.9190 C   0  0  0  0  0  0  0  0  0  0  0  0
  141.0360   83.1390  221.2290 Br  0  0  0  0  0  0  0  0  0  0  0  0
  141.5500   80.7650  219.6730 C   0  0  0  0  0  0  0  0  0  0  0  0
  141.7530   79.4340  219.5030 C   0  0  0  0  0  0  0  0  0  0  0  0
  140.1200   71.6190  223.3930 C   0  0  0  0  0  0  0  0  0  0  0  0
  139.6440   70.3430  223.1900 C   0  0  0  0  0  0  0  0  0  0  0  0
  139.6250   69.3960  224.1920 C   0  0  0  0  0  0  0  0  0  0  0  0
  140.1090   69.7690  225.4430 C   0  0  0  0  0  0  0  0  0  0  0  0
  140.1130   68.8490  226.4970 C   0  0  0  0  0  0  0  0  0  0  0  0
  140.6030   69.2630  227.7220 C   0  0  0  0  0  0  0  0  0  0  0  0
  140.6310   68.1550  229.0690 Cl  0  0  0  0  0  0  0  0  0  0  0  0
  141.0810   70.5520  227.9220 C   0  0  0  0  0  0  0  0  0  0  0  0
  141.0730   71.4620  226.8660 C   0  0  0  0  0  0  0  0  0  0  0  0
  140.5850   71.0570  225.6370 C   0  0  0  0  0  0  0  0  0  0  0  0
  140.5720   71.9350  224.6020 N   0  0  0  0  0  0  0  0  0  0  0  0
  138.5550   73.8170  223.0270 H   0  0  0  0  0  0  0  0  0  0  0  0
  139.6087   73.9196  220.2061 H   0  0  0  0  0  0  0  0  0  0  0  0
  138.2323   74.8895  220.8873 H   0  0  0  0  0  0  0  0  0  0  0  0
  139.7704   75.0645  218.8201 H   0  0  0  0  0  0  0  0  0  0  0  0
  139.3763   76.8691  218.7736 H   0  0  0  0  0  0  0  0  0  0  0  0
  141.2582   75.2905  217.2679 H   0  0  0  0  0  0  0  0  0  0  0  0
  140.4431   76.9447  217.0037 H   0  0  0  0  0  0  0  0  0  0  0  0
  143.0158   76.6436  217.0952 H   0  0  0  0  0  0  0  0  0  0  0  0
  142.0923   78.0731  217.7716 H   0  0  0  0  0  0  0  0  0  0  0  0
  143.2590   75.7411  219.2959 H   0  0  0  0  0  0  0  0  0  0  0  0
  143.7779   77.4840  219.3074 H   0  0  0  0  0  0  0  0  0  0  0  0
  142.4219   76.7695  221.2932 H   0  0  0  0  0  0  0  0  0  0  0  0
  141.5071   78.4043  222.6896 H   0  0  0  0  0  0  0  0  0  0  0  0
  141.1375   80.8169  223.0026 H   0  0  0  0  0  0  0  0  0  0  0  0
  141.5642   81.4339  218.7998 H   0  0  0  0  0  0  0  0  0  0  0  0
  141.9282   79.0591  218.4838 H   0  0  0  0  0  0  0  0  0  0  0  0
  139.2658   70.0697  222.1939 H   0  0  0  0  0  0  0  0  0  0  0  0
  139.2410   68.3815  224.0094 H   0  0  0  0  0  0  0  0  0  0  0  0
  139.7369   67.8251  226.3552 H   0  0  0  0  0  0  0  0  0  0  0  0
  141.4637   70.8530  228.9084 H   0  0  0  0  0  0  0  0  0  0  0  0
  141.4489   72.4860  227.0080 H   0  0  0  0  0  0  0  0  0  0  0  0
  1  2  2  0
  2  3  1  0
  3  4  1  0
  4  5  1  0
  5  6  2  0
  5  7  1  0
  7  8  1  0
  8  9  1  0
  9 10  1  0
 10 11  1  0
 11 12  1  0
 12 13  1  0
 13 14  2  0
 14 15  1  0
 15 16  2  0
 16 17  1  0
 16 18  1  0
 18 19  2  0
  2 20  1  0
 20 21  2  0
 21 22  1  0
 22 23  2  0
 23 24  1  0
 24 25  2  0
 25 26  1  0
 25 27  1  0
 27 28  2  0
 28 29  1  0
 29 30  2  0
 12  7  1  0
 19 13  1  0
 30 20  1  0
 29 23  1  0
  3 31  1  0
  4 32  1  0
  4 33  1  0
  8 34  1  0
  8 35  1  0
  9 36  1  0
  9 37  1  0
 10 38  1  0
 10 39  1  0
 11 40  1  0
 11 41  1  0
 12 42  1  1
 14 43  1  0
 15 44  1  0
 18 45  1  0
 19 46  1  0
 21 47  1  0
 22 48  1  0
 24 49  1  0
 27 50  1  0
 28 51  1  0
M  END
>  <smiles>  (88) 
O=C(NCC(=O)N1CCCCC1c1ccc(Br)cc1)c1ccc2cc(Cl)ccc2n1

>  <score_type>  (88) 
oracle

>  <origin>  (88) 
autodockgpu

>  <m_score__min__energy>  (88) 
-9.1600000000000001

>  <m_primary>  (88) 
energy

>  <rmsd>  (88) 
1.4884119603717638

>  <m_score__min__rmsd>  (88) 
1.4884119603717638

>  <meeko>  (88) 
{"free_energy": -8.53, "intermolecular_energy": -10.02, "internal_energy": -1.29, "cluster_size": 10, "cluster_id": 2, "rank_in_cluster": 5}

>  <energy>  (88) 
-8.35

>  <cluster_rmsd>  (88) 
0.87

>  <cluster>  (88) 
2

$$$$

     RDKit          3D

 51 54  0  0  0  0  0  0  0  0999 V2000
  139.7110   72.6350  220.8220 O   0  0  0  0  0  0  0  0  0  0  0  0
  139.6060   72.9380  222.0440 C   0  0  0  0  0  0  0  0  0  0  0  0
  139.3020   74.3050  222.3240 N   0  0  0  0  0  0  0  0  0  0  0  0
  139.1460   75.1980  221.2130 C   0  0  0  0  0  0  0  0  0  0  0  0
  139.6730   76.5630  221.5100 C   0  0  0  0  0  0  0  0  0  0  0  0
  139.2860   77.2410  222.4950 O   0  0  0  0  0  0  0  0  0  0  0  0
  140.6550   77.1520  220.6610 N   0  0  0  0  0  0  0  0  0  0  0  0
  141.2270   78.4070  221.0960 C   0  0  0  0  0  0  0  0  0  0  0  0
  141.8340   79.2480  220.0390 C   0  0  0  0  0  0  0  0  0  0  0  0
  142.1290   78.6160  218.7330 C   0  0  0  0  0  0  0  0  0  0  0  0
  141.1730   77.5160  218.3520 C   0  0  0  0  0  0  0  0  0  0  0  0
  141.0230   76.4840  219.4350 C   0  0  1  0  0  0  0  0  0  0  0  0
  142.1710   75.5770  219.5410 C   0  0  0  0  0  0  0  0  0  0  0  0
  143.0500   75.3340  218.4940 C   0  0  0  0  0  0  0  0  0  0  0  0
  144.1270   74.4730  218.6210 C   0  0  0  0  0  0  0  0  0  0  0  0
  144.3670   73.8200  219.8060 C   0  0  0  0  0  0  0  0  0  0  0  0
  145.8640   72.6480  219.9200 Br  0  0  0  0  0  0  0  0  0  0  0  0
  143.5160   74.0410  220.8540 C   0  0  0  0  0  0  0  0  0  0  0  0
  142.4630   74.8860  220.7240 C   0  0  0  0  0  0  0  0  0  0  0  0
  139.7820   71.9550  223.1090 C   0  0  0  0  0  0  0  0  0  0  0  0
  139.4330   70.6500  222.8380 C   0  0  0  0  0  0  0  0  0  0  0  0
  139.5600   69.6450  223.7730 C   0  0  0  0  0  0  0  0  0  0  0  0
  140.0600   69.9870  225.0270 C   0  0  0  0  0  0  0  0  0  0  0  0
  140.2100   69.0070  226.0130 C   0  0  0  0  0  0  0  0  0  0  0  0
  140.7100   69.3920  227.2440 C   0  0  0  0  0  0  0  0  0  0  0  0
  140.9170   68.2090  228.5100 Cl  0  0  0  0  0  0  0  0  0  0  0  0
  141.0600   70.7090  227.5130 C   0  0  0  0  0  0  0  0  0  0  0  0
  140.9070   71.6780  226.5230 C   0  0  0  0  0  0  0  0  0  0  0  0
  140.4080   71.3030  225.2890 C   0  0  0  0  0  0  0  0  0  0  0  0
  140.2550   72.2390  224.3190 N   0  0  0  0  0  0  0  0  0  0  0  0
  139.2030   74.6070  223.3240 H   0  0  0  0  0  0  0  0  0  0  0  0
  139.6903   74.7880  220.3495 H   0  0  0  0  0  0  0  0  0  0  0  0
  138.0705   75.2894  221.0008 H   0  0  0  0  0  0  0  0  0  0  0  0
  140.4279   78.9927  221.5739 H   0  0  0  0  0  0  0  0  0  0  0  0
  142.0537   78.1370  221.7695 H   0  0  0  0  0  0  0  0  0  0  0  0
  141.1446   80.0840  219.8497 H   0  0  0  0  0  0  0  0  0  0  0  0
  142.8203   79.5245  220.4399 H   0  0  0  0  0  0  0  0  0  0  0  0
  142.0883   79.3935  217.9560 H   0  0  0  0  0  0  0  0  0  0  0  0
  143.1239   78.1551  218.8212 H   0  0  0  0  0  0  0  0  0  0  0  0
  140.1873   77.9598  218.1485 H   0  0  0  0  0  0  0  0  0  0  0  0
  141.5803   77.0117  217.4633 H   0  0  0  0  0  0  0  0  0  0  0  0
  140.2072   75.7940  219.1736 H   0  0  0  0  0  0  0  0  0  0  0  0
  142.8854   75.8420  217.5323 H   0  0  0  0  0  0  0  0  0  0  0  0
  144.7975   74.3100  217.7643 H   0  0  0  0  0  0  0  0  0  0  0  0
  143.6874   73.5282  221.8119 H   0  0  0  0  0  0  0  0  0  0  0  0
  141.8045   75.0364  221.5922 H   0  0  0  0  0  0  0  0  0  0  0  0
  139.0395   70.4015  221.8413 H   0  0  0  0  0  0  0  0  0  0  0  0
  139.2762   68.6088  223.5368 H   0  0  0  0  0  0  0  0  0  0  0  0
  139.9381   67.9596  225.8154 H   0  0  0  0  0  0  0  0  0  0  0  0
  141.4556   70.9855  228.5015 H   0  0  0  0  0  0  0  0  0  0  0  0
  141.1791   72.7254  226.7203 H   0  0  0  0  0  0  0  0  0  0  0  0
  1  2  2  0
  2  3  1  0
  3  4  1  0
  4  5  1  0
  5  6  2  0
  5  7  1  0
  7  8  1  0
  8  9  1  0
  9 10  1  0
 10 11  1  0
 11 12  1  0
 12 13  1  0
 13 14  2  0
 14 15  1  0
 15 16  2  0
 16 17  1  0
 16 18  1  0
 18 19  2  0
  2 20  1  0
 20 21  2  0
 21 22  1  0
 22 23  2  0
 23 24  1  0
 24 25  2  0
 25 26  1  0
 25 27  1  0
 27 28  2  0
 28 29  1  0
 29 30  2  0
 12  7  1  0
 19 13  1  0
 30 20  1  0
 29 23  1  0
  3 31  1  0
  4 32  1  0
  4 33  1  0
  8 34  1  0
  8 35  1  0
  9 36  1  0
  9 37  1  0
 10 38  1  0
 10 39  1  0
 11 40  1  0
 11 41  1  0
 12 42  1  6
 14 43  1  0
 15 44  1  0
 18 45  1  0
 19 46  1  0
 21 47  1  0
 22 48  1  0
 24 49  1  0
 27 50  1  0
 28 51  1  0
M  END
>  <smiles>  (89) 
O=C(NCC(=O)N1CCCCC1c1ccc(Br)cc1)c1ccc2cc(Cl)ccc2n1

>  <score_type>  (89) 
oracle

>  <origin>  (89) 
autodockgpu

>  <m_score__min__energy>  (89) 
-9.1600000000000001

>  <m_primary>  (89) 
energy

>  <rmsd>  (89) 
2.449702641650991

>  <m_score__min__rmsd>  (89) 
2.449702641650991

>  <meeko>  (89) 
{"free_energy": -8.35, "intermolecular_energy": -9.84, "internal_energy": -1.92, "cluster_size": 32, "cluster_id": 1, "rank_in_cluster": 30}

>  <energy>  (89) 
-8.32

>  <cluster_rmsd>  (89) 
1.34

>  <cluster>  (89) 
2

$$$$

     RDKit          3D

 51 54  0  0  0  0  0  0  0  0999 V2000
  138.3280   71.9330  220.7850 O   0  0  0  0  0  0  0  0  0  0  0  0
  138.7600   72.3750  221.8870 C   0  0  0  0  0  0  0  0  0  0  0  0
  138.8960   73.7940  221.9790 N   0  0  0  0  0  0  0  0  0  0  0  0
  138.5380   74.5780  220.8340 C   0  0  0  0  0  0  0  0  0  0  0  0
  139.3930   74.2690  219.6500 C   0  0  0  0  0  0  0  0  0  0  0  0
  138.9540   73.6780  218.6310 O   0  0  0  0  0  0  0  0  0  0  0  0
  140.7680   74.6430  219.6420 N   0  0  0  0  0  0  0  0  0  0  0  0
  141.4100   74.7470  218.3510 C   0  0  0  0  0  0  0  0  0  0  0  0
  142.8860   74.6350  218.3450 C   0  0  0  0  0  0  0  0  0  0  0  0
  143.5990   74.7870  219.6330 C   0  0  0  0  0  0  0  0  0  0  0  0
  142.8190   74.3010  220.8280 C   0  0  0  0  0  0  0  0  0  0  0  0
  141.4400   74.8960  220.8950 C   0  0  1  0  0  0  0  0  0  0  0  0
  141.4270   76.2930  221.3370 C   0  0  0  0  0  0  0  0  0  0  0  0
  141.0400   76.6870  222.6120 C   0  0  0  0  0  0  0  0  0  0  0  0
  141.0370   78.0150  223.0040 C   0  0  0  0  0  0  0  0  0  0  0  0
  141.4240   79.0040  222.1330 C   0  0  0  0  0  0  0  0  0  0  0  0
  141.4000   80.8130  222.7290 Br  0  0  0  0  0  0  0  0  0  0  0  0
  141.8100   78.6450  220.8710 C   0  0  0  0  0  0  0  0  0  0  0  0
  141.8110   77.3420  220.4920 C   0  0  0  0  0  0  0  0  0  0  0  0
  139.1010   71.4950  223.0010 C   0  0  0  0  0  0  0  0  0  0  0  0
  138.7020   70.1790  222.9200 C   0  0  0  0  0  0  0  0  0  0  0  0
  138.9720   69.2660  223.9160 C   0  0  0  0  0  0  0  0  0  0  0  0
  139.6730   69.7130  225.0320 C   0  0  0  0  0  0  0  0  0  0  0  0
  139.9740   68.8290  226.0740 C   0  0  0  0  0  0  0  0  0  0  0  0
  140.6730   69.3180  227.1620 C   0  0  0  0  0  0  0  0  0  0  0  0
  141.0740   68.2570  228.4880 Cl  0  0  0  0  0  0  0  0  0  0  0  0
  141.0730   70.6460  227.2400 C   0  0  0  0  0  0  0  0  0  0  0  0
  140.7670   71.5200  226.1970 C   0  0  0  0  0  0  0  0  0  0  0  0
  140.0700   71.0400  225.1040 C   0  0  0  0  0  0  0  0  0  0  0  0
  139.7670   71.8820  224.0840 N   0  0  0  0  0  0  0  0  0  0  0  0
  139.2510   74.2110  222.8750 H   0  0  0  0  0  0  0  0  0  0  0  0
  137.4886   74.3712  220.5770 H   0  0  0  0  0  0  0  0  0  0  0  0
  138.6858   75.6375  221.0903 H   0  0  0  0  0  0  0  0  0  0  0  0
  141.0099   73.9463  217.7116 H   0  0  0  0  0  0  0  0  0  0  0  0
  141.1901   75.7638  217.9936 H   0  0  0  0  0  0  0  0  0  0  0  0
  143.1371   73.6406  217.9474 H   0  0  0  0  0  0  0  0  0  0  0  0
  143.2242   75.4898  217.7409 H   0  0  0  0  0  0  0  0  0  0  0  0
  144.5379   74.2166  219.5778 H   0  0  0  0  0  0  0  0  0  0  0  0
  143.7653   75.8645  219.7789 H   0  0  0  0  0  0  0  0  0  0  0  0
  142.7286   73.2063  220.7690 H   0  0  0  0  0  0  0  0  0  0  0  0
  143.3625   74.6133  221.7319 H   0  0  0  0  0  0  0  0  0  0  0  0
  140.8637   74.3986  221.6891 H   0  0  0  0  0  0  0  0  0  0  0  0
  140.7257   75.9187  223.3337 H   0  0  0  0  0  0  0  0  0  0  0  0
  140.7214   78.2807  224.0237 H   0  0  0  0  0  0  0  0  0  0  0  0
  142.1228   79.4202  220.1561 H   0  0  0  0  0  0  0  0  0  0  0  0
  142.1299   77.0969  219.4682 H   0  0  0  0  0  0  0  0  0  0  0  0
  138.1488   69.8456  222.0296 H   0  0  0  0  0  0  0  0  0  0  0  0
  138.6445   68.2192  223.8319 H   0  0  0  0  0  0  0  0  0  0  0  0
  139.6633   67.7748  226.0288 H   0  0  0  0  0  0  0  0  0  0  0  0
  141.6277   71.0061  228.1190 H   0  0  0  0  0  0  0  0  0  0  0  0
  141.0755   72.5748  226.2435 H   0  0  0  0  0  0  0  0  0  0  0  0
  1  2  2  0
  2  3  1  0
  3  4  1  0
  4  5  1  0
  5  6  2  0
  5  7  1  0
  7  8  1  0
  8  9  1  0
  9 10  1  0
 10 11  1  0
 11 12  1  0
 12 13  1  0
 13 14  2  0
 14 15  1  0
 15 16  2  0
 16 17  1  0
 16 18  1  0
 18 19  2  0
  2 20  1  0
 20 21  2  0
 21 22  1  0
 22 23  2  0
 23 24  1  0
 24 25  2  0
 25 26  1  0
 25 27  1  0
 27 28  2  0
 28 29  1  0
 29 30  2  0
 12  7  1  0
 19 13  1  0
 30 20  1  0
 29 23  1  0
  3 31  1  0
  4 32  1  0
  4 33  1  0
  8 34  1  0
  8 35  1  0
  9 36  1  0
  9 37  1  0
 10 38  1  0
 10 39  1  0
 11 40  1  0
 11 41  1  0
 12 42  1  1
 14 43  1  0
 15 44  1  0
 18 45  1  0
 19 46  1  0
 21 47  1  0
 22 48  1  0
 24 49  1  0
 27 50  1  0
 28 51  1  0
M  END
>  <smiles>  (90) 
O=C(NCC(=O)N1CCCCC1c1ccc(Br)cc1)c1ccc2cc(Cl)ccc2n1

>  <score_type>  (90) 
oracle

>  <origin>  (90) 
autodockgpu

>  <m_score__min__energy>  (90) 
-9.1600000000000001

>  <m_primary>  (90) 
energy

>  <rmsd>  (90) 
2.234215228387865

>  <m_score__min__rmsd>  (90) 
2.234215228387865

>  <meeko>  (90) 
{"free_energy": -8.32, "intermolecular_energy": -9.81, "internal_energy": -1.74, "cluster_size": 10, "cluster_id": 2, "rank_in_cluster": 7}

>  <energy>  (90) 
-8.25

>  <cluster_rmsd>  (90) 
1.55

>  <cluster>  (90) 
2

$$$$

     RDKit          3D

 51 54  0  0  0  0  0  0  0  0999 V2000
  134.2690   70.0720  227.3110 O   0  0  0  0  0  0  0  0  0  0  0  0
  133.9590   70.9000  226.4080 C   0  0  0  0  0  0  0  0  0  0  0  0
  134.2720   70.5090  225.0700 N   0  0  0  0  0  0  0  0  0  0  0  0
  134.9000   69.2350  224.8730 C   0  0  0  0  0  0  0  0  0  0  0  0
  135.6450   69.1690  223.5810 C   0  0  0  0  0  0  0  0  0  0  0  0
  135.2580   68.4730  222.6090 O   0  0  0  0  0  0  0  0  0  0  0  0
  136.8500   69.9100  223.4110 N   0  0  0  0  0  0  0  0  0  0  0  0
  136.7270   71.3480  223.3300 C   0  0  0  0  0  0  0  0  0  0  0  0
  137.8440   72.0630  222.6710 C   0  0  0  0  0  0  0  0  0  0  0  0
  139.1180   71.3330  222.4790 C   0  0  0  0  0  0  0  0  0  0  0  0
  138.9510   69.8510  222.2630 C   0  0  0  0  0  0  0  0  0  0  0  0
  138.1090   69.2060  223.3290 C   0  0  1  0  0  0  0  0  0  0  0  0
  138.8100   69.0360  224.6050 C   0  0  0  0  0  0  0  0  0  0  0  0
  139.1410   70.0950  225.4400 C   0  0  0  0  0  0  0  0  0  0  0  0
  139.8050   69.9070  226.6410 C   0  0  0  0  0  0  0  0  0  0  0  0
  140.1640   68.6470  227.0540 C   0  0  0  0  0  0  0  0  0  0  0  0
  141.0750   68.4500  228.7150 Br  0  0  0  0  0  0  0  0  0  0  0  0
  139.8500   67.5850  226.2500 C   0  0  0  0  0  0  0  0  0  0  0  0
  139.2000   67.7760  225.0750 C   0  0  0  0  0  0  0  0  0  0  0  0
  133.3200   72.1780  226.7070 C   0  0  0  0  0  0  0  0  0  0  0  0
  132.0660   72.1470  227.2750 C   0  0  0  0  0  0  0  0  0  0  0  0
  131.3750   73.2950  227.5970 C   0  0  0  0  0  0  0  0  0  0  0  0
  131.9870   74.5160  227.3280 C   0  0  0  0  0  0  0  0  0  0  0  0
  131.3320   75.7130  227.6340 C   0  0  0  0  0  0  0  0  0  0  0  0
  131.9790   76.9020  227.3500 C   0  0  0  0  0  0  0  0  0  0  0  0
  131.2050   78.4230  227.7110 Cl  0  0  0  0  0  0  0  0  0  0  0  0
  133.2430   76.9290  226.7760 C   0  0  0  0  0  0  0  0  0  0  0  0
  133.8890   75.7300  226.4740 C   0  0  0  0  0  0  0  0  0  0  0  0
  133.2500   74.5360  226.7560 C   0  0  0  0  0  0  0  0  0  0  0  0
  133.8690   73.3640  226.4660 N   0  0  0  0  0  0  0  0  0  0  0  0
  134.0340   71.1620  224.2830 H   0  0  0  0  0  0  0  0  0  0  0  0
  135.6049   69.0558  225.6983 H   0  0  0  0  0  0  0  0  0  0  0  0
  134.1109   68.4690  224.8481 H   0  0  0  0  0  0  0  0  0  0  0  0
  135.8069   71.5753  222.7716 H   0  0  0  0  0  0  0  0  0  0  0  0
  136.7236   71.7026  224.3713 H   0  0  0  0  0  0  0  0  0  0  0  0
  137.4920   72.3743  221.6764 H   0  0  0  0  0  0  0  0  0  0  0  0
  138.0959   72.8789  223.3645 H   0  0  0  0  0  0  0  0  0  0  0  0
  139.6289   71.7547  221.6009 H   0  0  0  0  0  0  0  0  0  0  0  0
  139.6967   71.4553  223.4064 H   0  0  0  0  0  0  0  0  0  0  0  0
  138.4703   69.6885  221.2870 H   0  0  0  0  0  0  0  0  0  0  0  0
  139.9500   69.3924  222.3025 H   0  0  0  0  0  0  0  0  0  0  0  0
  137.8922   68.1656  223.0450 H   0  0  0  0  0  0  0  0  0  0  0  0
  138.8670   71.1166  225.1378 H   0  0  0  0  0  0  0  0  0  0  0  0
  140.0474   70.7758  227.2707 H   0  0  0  0  0  0  0  0  0  0  0  0
  140.1275   66.5666  226.5597 H   0  0  0  0  0  0  0  0  0  0  0  0
  138.9670   66.8949  224.4590 H   0  0  0  0  0  0  0  0  0  0  0  0
  131.5995   71.1719  227.4788 H   0  0  0  0  0  0  0  0  0  0  0  0
  130.3742   73.2481  228.0510 H   0  0  0  0  0  0  0  0  0  0  0  0
  130.3300   75.7091  228.0880 H   0  0  0  0  0  0  0  0  0  0  0  0
  133.7322   77.8904  226.5606 H   0  0  0  0  0  0  0  0  0  0  0  0
  134.8905   75.7340  226.0189 H   0  0  0  0  0  0  0  0  0  0  0  0
  1  2  2  0
  2  3  1  0
  3  4  1  0
  4  5  1  0
  5  6  2  0
  5  7  1  0
  7  8  1  0
  8  9  1  0
  9 10  1  0
 10 11  1  0
 11 12  1  0
 12 13  1  0
 13 14  2  0
 14 15  1  0
 15 16  2  0
 16 17  1  0
 16 18  1  0
 18 19  2  0
  2 20  1  0
 20 21  2  0
 21 22  1  0
 22 23  2  0
 23 24  1  0
 24 25  2  0
 25 26  1  0
 25 27  1  0
 27 28  2  0
 28 29  1  0
 29 30  2  0
 12  7  1  0
 19 13  1  0
 30 20  1  0
 29 23  1  0
  3 31  1  0
  4 32  1  0
  4 33  1  0
  8 34  1  0
  8 35  1  0
  9 36  1  0
  9 37  1  0
 10 38  1  0
 10 39  1  0
 11 40  1  0
 11 41  1  0
 12 42  1  6
 14 43  1  0
 15 44  1  0
 18 45  1  0
 19 46  1  0
 21 47  1  0
 22 48  1  0
 24 49  1  0
 27 50  1  0
 28 51  1  0
M  END
>  <smiles>  (91) 
O=C(NCC(=O)N1CCCCC1c1ccc(Br)cc1)c1ccc2cc(Cl)ccc2n1

>  <score_type>  (91) 
oracle

>  <origin>  (91) 
autodockgpu

>  <m_score__min__energy>  (91) 
-9.1600000000000001

>  <m_primary>  (91) 
energy

>  <rmsd>  (91) 
8.397080799095194

>  <m_score__min__rmsd>  (91) 
8.397080799095194

>  <meeko>  (91) 
{"free_energy": -8.48, "intermolecular_energy": -9.98, "internal_energy": -1.48, "cluster_size": 1, "cluster_id": 4, "rank_in_cluster": 1}

>  <energy>  (91) 
-8.21

>  <cluster_rmsd>  (91) 
1.15

>  <cluster>  (91) 
2

$$$$

     RDKit          3D

 51 54  0  0  0  0  0  0  0  0999 V2000
  139.2220   71.2160  221.1600 O   0  0  0  0  0  0  0  0  0  0  0  0
  138.8910   71.6750  222.2890 C   0  0  0  0  0  0  0  0  0  0  0  0
  137.9410   72.7420  222.2740 N   0  0  0  0  0  0  0  0  0  0  0  0
  137.4580   73.1910  221.0010 C   0  0  0  0  0  0  0  0  0  0  0  0
  138.5300   73.8370  220.1870 C   0  0  0  0  0  0  0  0  0  0  0  0
  138.8290   73.4500  219.0300 O   0  0  0  0  0  0  0  0  0  0  0  0
  139.2650   74.9370  220.7150 N   0  0  0  0  0  0  0  0  0  0  0  0
  138.9110   75.3830  222.0440 C   0  0  0  0  0  0  0  0  0  0  0  0
  139.2860   76.7740  222.3870 C   0  0  0  0  0  0  0  0  0  0  0  0
  140.2760   77.4590  221.5250 C   0  0  0  0  0  0  0  0  0  0  0  0
  140.2300   77.0340  220.0800 C   0  0  0  0  0  0  0  0  0  0  0  0
  140.3060   75.5410  219.9160 C   0  0  1  0  0  0  0  0  0  0  0  0
  141.6500   74.9970  220.1310 C   0  0  0  0  0  0  0  0  0  0  0  0
  142.8120   75.7070  219.8600 C   0  0  0  0  0  0  0  0  0  0  0  0
  144.0710   75.1690  220.0720 C   0  0  0  0  0  0  0  0  0  0  0  0
  144.2150   73.8950  220.5670 C   0  0  0  0  0  0  0  0  0  0  0  0
  145.9710   73.2090  220.8380 Br  0  0  0  0  0  0  0  0  0  0  0  0
  143.0860   73.1730  220.8430 C   0  0  0  0  0  0  0  0  0  0  0  0
  141.8550   73.7060  220.6330 C   0  0  0  0  0  0  0  0  0  0  0  0
  139.4400   71.1500  223.5360 C   0  0  0  0  0  0  0  0  0  0  0  0
  140.4010   71.9000  224.1760 C   0  0  0  0  0  0  0  0  0  0  0  0
  140.9830   71.4970  225.3580 C   0  0  0  0  0  0  0  0  0  0  0  0
  140.5690   70.2850  225.9030 C   0  0  0  0  0  0  0  0  0  0  0  0
  141.1260   69.8260  227.1020 C   0  0  0  0  0  0  0  0  0  0  0  0
  140.6830   68.6170  227.6060 C   0  0  0  0  0  0  0  0  0  0  0  0
  141.3460   68.0000  229.0970 Cl  0  0  0  0  0  0  0  0  0  0  0  0
  139.7140   67.8630  226.9560 C   0  0  0  0  0  0  0  0  0  0  0  0
  139.1650   68.3280  225.7620 C   0  0  0  0  0  0  0  0  0  0  0  0
  139.6000   69.5370  225.2500 C   0  0  0  0  0  0  0  0  0  0  0  0
  139.0720   69.9990  224.0890 N   0  0  0  0  0  0  0  0  0  0  0  0
  137.6330   73.1580  223.1870 H   0  0  0  0  0  0  0  0  0  0  0  0
  137.0645   72.3264  220.4464 H   0  0  0  0  0  0  0  0  0  0  0  0
  136.6738   73.9407  221.1826 H   0  0  0  0  0  0  0  0  0  0  0  0
  137.8196   75.2939  222.1486 H   0  0  0  0  0  0  0  0  0  0  0  0
  139.4847   74.7446  222.7320 H   0  0  0  0  0  0  0  0  0  0  0  0
  138.3650   77.3751  222.3690 H   0  0  0  0  0  0  0  0  0  0  0  0
  139.7830   76.6917  223.3649 H   0  0  0  0  0  0  0  0  0  0  0  0
  140.0861   78.5414  221.5732 H   0  0  0  0  0  0  0  0  0  0  0  0
  141.2714   77.1857  221.9051 H   0  0  0  0  0  0  0  0  0  0  0  0
  139.2880   77.3900  219.6374 H   0  0  0  0  0  0  0  0  0  0  0  0
  141.1044   77.4706  219.5753 H   0  0  0  0  0  0  0  0  0  0  0  0
  140.1166   75.2766  218.8652 H   0  0  0  0  0  0  0  0  0  0  0  0
  142.7303   76.7300  219.4641 H   0  0  0  0  0  0  0  0  0  0  0  0
  144.9646   75.7677  219.8418 H   0  0  0  0  0  0  0  0  0  0  0  0
  143.1765   72.1507  221.2389 H   0  0  0  0  0  0  0  0  0  0  0  0
  140.9734   73.0921  220.8694 H   0  0  0  0  0  0  0  0  0  0  0  0
  140.7151   72.8543  223.7280 H   0  0  0  0  0  0  0  0  0  0  0  0
  141.7485   72.1119  225.8539 H   0  0  0  0  0  0  0  0  0  0  0  0
  141.8947   70.4106  227.6287 H   0  0  0  0  0  0  0  0  0  0  0  0
  139.3818   66.9044  227.3811 H   0  0  0  0  0  0  0  0  0  0  0  0
  138.3974   67.7423  225.2350 H   0  0  0  0  0  0  0  0  0  0  0  0
  1  2  2  0
  2  3  1  0
  3  4  1  0
  4  5  1  0
  5  6  2  0
  5  7  1  0
  7  8  1  0
  8  9  1  0
  9 10  1  0
 10 11  1  0
 11 12  1  0
 12 13  1  0
 13 14  2  0
 14 15  1  0
 15 16  2  0
 16 17  1  0
 16 18  1  0
 18 19  2  0
  2 20  1  0
 20 21  2  0
 21 22  1  0
 22 23  2  0
 23 24  1  0
 24 25  2  0
 25 26  1  0
 25 27  1  0
 27 28  2  0
 28 29  1  0
 29 30  2  0
 12  7  1  0
 19 13  1  0
 30 20  1  0
 29 23  1  0
  3 31  1  0
  4 32  1  0
  4 33  1  0
  8 34  1  0
  8 35  1  0
  9 36  1  0
  9 37  1  0
 10 38  1  0
 10 39  1  0
 11 40  1  0
 11 41  1  0
 12 42  1  6
 14 43  1  0
 15 44  1  0
 18 45  1  0
 19 46  1  0
 21 47  1  0
 22 48  1  0
 24 49  1  0
 27 50  1  0
 28 51  1  0
M  END
>  <smiles>  (92) 
O=C(NCC(=O)N1CCCCC1c1ccc(Br)cc1)c1ccc2cc(Cl)ccc2n1

>  <score_type>  (92) 
oracle

>  <origin>  (92) 
autodockgpu

>  <m_score__min__energy>  (92) 
-9.1600000000000001

>  <m_primary>  (92) 
energy

>  <rmsd>  (92) 
3.106830234458392

>  <m_score__min__rmsd>  (92) 
3.106830234458392

>  <meeko>  (92) 
{"free_energy": -8.49, "intermolecular_energy": -9.98, "internal_energy": -1.78, "cluster_size": 32, "cluster_id": 1, "rank_in_cluster": 26}

>  <energy>  (92) 
-8.18

>  <cluster_rmsd>  (92) 
1.58

>  <cluster>  (92) 
2

$$$$

     RDKit          3D

 51 54  0  0  0  0  0  0  0  0999 V2000
  137.8690   71.1690  220.8550 O   0  0  0  0  0  0  0  0  0  0  0  0
  138.2340   71.7440  221.9190 C   0  0  0  0  0  0  0  0  0  0  0  0
  138.1590   73.1700  221.9150 N   0  0  0  0  0  0  0  0  0  0  0  0
  137.6870   73.8140  220.7240 C   0  0  0  0  0  0  0  0  0  0  0  0
  138.3350   75.1400  220.5050 C   0  0  0  0  0  0  0  0  0  0  0  0
  137.6900   76.2190  220.4990 O   0  0  0  0  0  0  0  0  0  0  0  0
  139.7420   75.2230  220.2900 N   0  0  0  0  0  0  0  0  0  0  0  0
  140.2000   75.1460  218.9210 C   0  0  0  0  0  0  0  0  0  0  0  0
  141.6080   74.7320  218.7260 C   0  0  0  0  0  0  0  0  0  0  0  0
  142.5140   74.7810  219.8960 C   0  0  0  0  0  0  0  0  0  0  0  0
  141.8330   74.5100  221.2130 C   0  0  0  0  0  0  0  0  0  0  0  0
  140.6230   75.3780  221.4240 C   0  0  1  0  0  0  0  0  0  0  0  0
  140.9520   76.7630  221.7730 C   0  0  0  0  0  0  0  0  0  0  0  0
  141.1600   77.7590  220.8270 C   0  0  0  0  0  0  0  0  0  0  0  0
  141.4700   79.0610  221.1830 C   0  0  0  0  0  0  0  0  0  0  0  0
  141.5830   79.4180  222.5050 C   0  0  0  0  0  0  0  0  0  0  0  0
  142.0100   81.2240  222.9340 Br  0  0  0  0  0  0  0  0  0  0  0  0
  141.3820   78.4570  223.4580 C   0  0  0  0  0  0  0  0  0  0  0  0
  141.0790   77.1830  223.1030 C   0  0  0  0  0  0  0  0  0  0  0  0
  138.7020   71.0010  223.0860 C   0  0  0  0  0  0  0  0  0  0  0  0
  138.3850   69.6630  223.1600 C   0  0  0  0  0  0  0  0  0  0  0  0
  138.7770   68.8710  224.2180 C   0  0  0  0  0  0  0  0  0  0  0  0
  139.5190   69.4680  225.2330 C   0  0  0  0  0  0  0  0  0  0  0  0
  139.9450   68.7120  226.3300 C   0  0  0  0  0  0  0  0  0  0  0  0
  140.6790   69.3470  227.3140 C   0  0  0  0  0  0  0  0  0  0  0  0
  141.2340   68.4500  228.7040 Cl  0  0  0  0  0  0  0  0  0  0  0  0
  140.9970   70.6970  227.2360 C   0  0  0  0  0  0  0  0  0  0  0  0
  140.5680   71.4430  226.1380 C   0  0  0  0  0  0  0  0  0  0  0  0
  139.8330   70.8170  225.1480 C   0  0  0  0  0  0  0  0  0  0  0  0
  139.4110   71.5330  224.0760 N   0  0  0  0  0  0  0  0  0  0  0  0
  138.4500   73.6950  222.7760 H   0  0  0  0  0  0  0  0  0  0  0  0
  137.9044   73.1668  219.8615 H   0  0  0  0  0  0  0  0  0  0  0  0
  136.6057   73.9814  220.8368 H   0  0  0  0  0  0  0  0  0  0  0  0
  139.5611   74.4225  218.3934 H   0  0  0  0  0  0  0  0  0  0  0  0
  140.1380   76.1728  218.5312 H   0  0  0  0  0  0  0  0  0  0  0  0
  141.5967   73.6933  218.3640 H   0  0  0  0  0  0  0  0  0  0  0  0
  142.0195   75.4758  218.0278 H   0  0  0  0  0  0  0  0  0  0  0  0
  143.3031   74.0280  219.7537 H   0  0  0  0  0  0  0  0  0  0  0  0
  142.9096   75.8061  219.9483 H   0  0  0  0  0  0  0  0  0  0  0  0
  141.5198   73.4558  221.2381 H   0  0  0  0  0  0  0  0  0  0  0  0
  142.5516   74.7371  222.0143 H   0  0  0  0  0  0  0  0  0  0  0  0
  140.0782   75.0393  222.3176 H   0  0  0  0  0  0  0  0  0  0  0  0
  141.0757   77.5051  219.7600 H   0  0  0  0  0  0  0  0  0  0  0  0
  141.6273   79.8169  220.3995 H   0  0  0  0  0  0  0  0  0  0  0  0
  141.4669   78.7199  224.5227 H   0  0  0  0  0  0  0  0  0  0  0  0
  140.9251   76.4417  223.9010 H   0  0  0  0  0  0  0  0  0  0  0  0
  137.7987   69.2105  222.3467 H   0  0  0  0  0  0  0  0  0  0  0  0
  138.5125   67.8040  224.2587 H   0  0  0  0  0  0  0  0  0  0  0  0
  139.7026   67.6418  226.4074 H   0  0  0  0  0  0  0  0  0  0  0  0
  141.5833   71.1747  228.0348 H   0  0  0  0  0  0  0  0  0  0  0  0
  140.8107   72.5131  226.0609 H   0  0  0  0  0  0  0  0  0  0  0  0
  1  2  2  0
  2  3  1  0
  3  4  1  0
  4  5  1  0
  5  6  2  0
  5  7  1  0
  7  8  1  0
  8  9  1  0
  9 10  1  0
 10 11  1  0
 11 12  1  0
 12 13  1  0
 13 14  2  0
 14 15  1  0
 15 16  2  0
 16 17  1  0
 16 18  1  0
 18 19  2  0
  2 20  1  0
 20 21  2  0
 21 22  1  0
 22 23  2  0
 23 24  1  0
 24 25  2  0
 25 26  1  0
 25 27  1  0
 27 28  2  0
 28 29  1  0
 29 30  2  0
 12  7  1  0
 19 13  1  0
 30 20  1  0
 29 23  1  0
  3 31  1  0
  4 32  1  0
  4 33  1  0
  8 34  1  0
  8 35  1  0
  9 36  1  0
  9 37  1  0
 10 38  1  0
 10 39  1  0
 11 40  1  0
 11 41  1  0
 12 42  1  1
 14 43  1  0
 15 44  1  0
 18 45  1  0
 19 46  1  0
 21 47  1  0
 22 48  1  0
 24 49  1  0
 27 50  1  0
 28 51  1  0
M  END
>  <smiles>  (93) 
O=C(NCC(=O)N1CCCCC1c1ccc(Br)cc1)c1ccc2cc(Cl)ccc2n1

>  <score_type>  (93) 
oracle

>  <origin>  (93) 
autodockgpu

>  <m_score__min__energy>  (93) 
-9.1600000000000001

>  <m_primary>  (93) 
energy

>  <rmsd>  (93) 
1.9263081467912135

>  <m_score__min__rmsd>  (93) 
1.9263081467912135

>  <meeko>  (93) 
{"free_energy": -8.21, "intermolecular_energy": -9.71, "internal_energy": -1.72, "cluster_size": 10, "cluster_id": 2, "rank_in_cluster": 9}

>  <energy>  (93) 
-8.67

>  <cluster_rmsd>  (93) 
0.0

>  <cluster>  (93) 
3

$$$$

     RDKit          3D

 51 54  0  0  0  0  0  0  0  0999 V2000
  140.7060   72.7480  221.1340 O   0  0  0  0  0  0  0  0  0  0  0  0
  139.9210   72.7890  222.1230 C   0  0  0  0  0  0  0  0  0  0  0  0
  138.9510   73.8370  222.1050 N   0  0  0  0  0  0  0  0  0  0  0  0
  138.9540   74.7360  220.9890 C   0  0  0  0  0  0  0  0  0  0  0  0
  138.9500   76.1660  221.4160 C   0  0  0  0  0  0  0  0  0  0  0  0
  137.9950   76.6840  222.0480 O   0  0  0  0  0  0  0  0  0  0  0  0
  140.0580   77.0080  221.1110 N   0  0  0  0  0  0  0  0  0  0  0  0
  140.4790   77.9350  222.1380 C   0  0  0  0  0  0  0  0  0  0  0  0
  141.2530   79.1110  221.6790 C   0  0  0  0  0  0  0  0  0  0  0  0
  141.8330   79.0720  220.3170 C   0  0  0  0  0  0  0  0  0  0  0  0
  141.0190   78.2810  219.3250 C   0  0  0  0  0  0  0  0  0  0  0  0
  140.6960   76.8980  219.8190 C   0  0  1  0  0  0  0  0  0  0  0  0
  141.8340   75.9760  219.7630 C   0  0  0  0  0  0  0  0  0  0  0  0
  142.6380   75.8250  218.6410 C   0  0  0  0  0  0  0  0  0  0  0  0
  143.7080   74.9460  218.6140 C   0  0  0  0  0  0  0  0  0  0  0  0
  144.0160   74.1820  219.7140 C   0  0  0  0  0  0  0  0  0  0  0  0
  145.4990   72.9910  219.6180 Br  0  0  0  0  0  0  0  0  0  0  0  0
  143.2400   74.3110  220.8330 C   0  0  0  0  0  0  0  0  0  0  0  0
  142.1920   75.1740  220.8530 C   0  0  0  0  0  0  0  0  0  0  0  0
  139.9940   71.8260  223.2180 C   0  0  0  0  0  0  0  0  0  0  0  0
  139.5360   70.5500  222.9770 C   0  0  0  0  0  0  0  0  0  0  0  0
  139.5610   69.5650  223.9410 C   0  0  0  0  0  0  0  0  0  0  0  0
  140.0710   69.8980  225.1930 C   0  0  0  0  0  0  0  0  0  0  0  0
  140.1190   68.9370  226.2090 C   0  0  0  0  0  0  0  0  0  0  0  0
  140.6340   69.3130  227.4370 C   0  0  0  0  0  0  0  0  0  0  0  0
  140.7170   68.1540  228.7380 Cl  0  0  0  0  0  0  0  0  0  0  0  0
  141.0940   70.6020  227.6750 C   0  0  0  0  0  0  0  0  0  0  0  0
  141.0420   71.5520  226.6560 C   0  0  0  0  0  0  0  0  0  0  0  0
  140.5290   71.1860  225.4250 C   0  0  0  0  0  0  0  0  0  0  0  0
  140.4730   72.1030  224.4260 N   0  0  0  0  0  0  0  0  0  0  0  0
  138.2740   73.9140  222.9040 H   0  0  0  0  0  0  0  0  0  0  0  0
  139.8548   74.5490  220.3861 H   0  0  0  0  0  0  0  0  0  0  0  0
  138.0379   74.5550  220.4076 H   0  0  0  0  0  0  0  0  0  0  0  0
  139.5766   78.3048  222.6469 H   0  0  0  0  0  0  0  0  0  0  0  0
  141.1629   77.3666  222.7856 H   0  0  0  0  0  0  0  0  0  0  0  0
  140.5827   79.9820  221.7245 H   0  0  0  0  0  0  0  0  0  0  0  0
  142.1251   79.1448  222.3486 H   0  0  0  0  0  0  0  0  0  0  0  0
  141.9189   80.1048  219.9482 H   0  0  0  0  0  0  0  0  0  0  0  0
  142.8076   78.5690  220.4010 H   0  0  0  0  0  0  0  0  0  0  0  0
  140.0773   78.8166  219.1344 H   0  0  0  0  0  0  0  0  0  0  0  0
  141.6176   78.1774  218.4080 H   0  0  0  0  0  0  0  0  0  0  0  0
  139.9807   76.4208  219.1330 H   0  0  0  0  0  0  0  0  0  0  0  0
  142.4179   76.4230  217.7444 H   0  0  0  0  0  0  0  0  0  0  0  0
  144.3176   74.8585  217.7026 H   0  0  0  0  0  0  0  0  0  0  0  0
  143.4673   73.7096  221.7255 H   0  0  0  0  0  0  0  0  0  0  0  0
  141.5935   75.2467  221.7731 H   0  0  0  0  0  0  0  0  0  0  0  0
  139.1364   70.3084  221.9810 H   0  0  0  0  0  0  0  0  0  0  0  0
  139.1909   68.5512  223.7285 H   0  0  0  0  0  0  0  0  0  0  0  0
  139.7578   67.9124  226.0365 H   0  0  0  0  0  0  0  0  0  0  0  0
  141.4971   70.8717  228.6623 H   0  0  0  0  0  0  0  0  0  0  0  0
  141.4033   72.5766  226.8284 H   0  0  0  0  0  0  0  0  0  0  0  0
  1  2  2  0
  2  3  1  0
  3  4  1  0
  4  5  1  0
  5  6  2  0
  5  7  1  0
  7  8  1  0
  8  9  1  0
  9 10  1  0
 10 11  1  0
 11 12  1  0
 12 13  1  0
 13 14  2  0
 14 15  1  0
 15 16  2  0
 16 17  1  0
 16 18  1  0
 18 19  2  0
  2 20  1  0
 20 21  2  0
 21 22  1  0
 22 23  2  0
 23 24  1  0
 24 25  2  0
 25 26  1  0
 25 27  1  0
 27 28  2  0
 28 29  1  0
 29 30  2  0
 12  7  1  0
 19 13  1  0
 30 20  1  0
 29 23  1  0
  3 31  1  0
  4 32  1  0
  4 33  1  0
  8 34  1  0
  8 35  1  0
  9 36  1  0
  9 37  1  0
 10 38  1  0
 10 39  1  0
 11 40  1  0
 11 41  1  0
 12 42  1  6
 14 43  1  0
 15 44  1  0
 18 45  1  0
 19 46  1  0
 21 47  1  0
 22 48  1  0
 24 49  1  0
 27 50  1  0
 28 51  1  0
M  END
>  <smiles>  (94) 
O=C(NCC(=O)N1CCCCC1c1ccc(Br)cc1)c1ccc2cc(Cl)ccc2n1

>  <score_type>  (94) 
oracle

>  <origin>  (94) 
autodockgpu

>  <m_score__min__energy>  (94) 
-9.1600000000000001

>  <m_primary>  (94) 
energy

>  <rmsd>  (94) 
2.602030540638501

>  <m_score__min__rmsd>  (94) 
2.602030540638501

>  <meeko>  (94) 
{"free_energy": -8.69, "intermolecular_energy": -10.18, "internal_energy": -1.77, "cluster_size": 32, "cluster_id": 1, "rank_in_cluster": 19}

>  <energy>  (94) 
-8.6

>  <cluster_rmsd>  (94) 
0.28

>  <cluster>  (94) 
3

$$$$

     RDKit          3D

 51 54  0  0  0  0  0  0  0  0999 V2000
  140.6300   72.7440  221.1370 O   0  0  0  0  0  0  0  0  0  0  0  0
  139.9150   72.8270  222.1750 C   0  0  0  0  0  0  0  0  0  0  0  0
  139.0090   73.9300  222.2210 N   0  0  0  0  0  0  0  0  0  0  0  0
  138.9910   74.8310  221.1060 C   0  0  0  0  0  0  0  0  0  0  0  0
  139.0130   76.2600  221.5370 C   0  0  0  0  0  0  0  0  0  0  0  0
  138.0920   76.7800  222.2150 O   0  0  0  0  0  0  0  0  0  0  0  0
  140.1090   77.0990  221.1780 N   0  0  0  0  0  0  0  0  0  0  0  0
  140.5540   78.0520  222.1700 C   0  0  0  0  0  0  0  0  0  0  0  0
  141.3080   79.2200  221.6590 C   0  0  0  0  0  0  0  0  0  0  0  0
  141.8500   79.1480  220.2830 C   0  0  0  0  0  0  0  0  0  0  0  0
  141.0130   78.3300  219.3350 C   0  0  0  0  0  0  0  0  0  0  0  0
  140.7090   76.9590  219.8720 C   0  0  1  0  0  0  0  0  0  0  0  0
  141.8500   76.0400  219.8070 C   0  0  0  0  0  0  0  0  0  0  0  0
  142.6800   75.9320  218.6990 C   0  0  0  0  0  0  0  0  0  0  0  0
  143.7520   75.0560  218.6630 C   0  0  0  0  0  0  0  0  0  0  0  0
  144.0350   74.2500  219.7400 C   0  0  0  0  0  0  0  0  0  0  0  0
  145.5220   73.0650  219.6330 Br  0  0  0  0  0  0  0  0  0  0  0  0
  143.2330   74.3360  220.8450 C   0  0  0  0  0  0  0  0  0  0  0  0
  142.1850   75.1970  220.8740 C   0  0  0  0  0  0  0  0  0  0  0  0
  140.0050   71.8570  223.2630 C   0  0  0  0  0  0  0  0  0  0  0  0
  139.5540   70.5790  223.0180 C   0  0  0  0  0  0  0  0  0  0  0  0
  139.5940   69.5890  223.9750 C   0  0  0  0  0  0  0  0  0  0  0  0
  140.1110   69.9170  225.2250 C   0  0  0  0  0  0  0  0  0  0  0  0
  140.1750   68.9510  226.2350 C   0  0  0  0  0  0  0  0  0  0  0  0
  140.6960   69.3220  227.4600 C   0  0  0  0  0  0  0  0  0  0  0  0
  140.7990   68.1550  228.7540 Cl  0  0  0  0  0  0  0  0  0  0  0  0
  141.1490   70.6130  227.7040 C   0  0  0  0  0  0  0  0  0  0  0  0
  141.0810   71.5690  226.6910 C   0  0  0  0  0  0  0  0  0  0  0  0
  140.5620   71.2070  225.4620 C   0  0  0  0  0  0  0  0  0  0  0  0
  140.4910   72.1300  224.4700 N   0  0  0  0  0  0  0  0  0  0  0  0
  138.3920   74.0430  223.0630 H   0  0  0  0  0  0  0  0  0  0  0  0
  139.8733   74.6363  220.4787 H   0  0  0  0  0  0  0  0  0  0  0  0
  138.0584   74.6603  220.5482 H   0  0  0  0  0  0  0  0  0  0  0  0
  139.6648   78.4298  222.6958 H   0  0  0  0  0  0  0  0  0  0  0  0
  141.2587   77.5031  222.8120 H   0  0  0  0  0  0  0  0  0  0  0  0
  140.6340   80.0883  221.7003 H   0  0  0  0  0  0  0  0  0  0  0  0
  142.1981   79.2763  222.3029 H   0  0  0  0  0  0  0  0  0  0  0  0
  141.9216   80.1713  219.8858 H   0  0  0  0  0  0  0  0  0  0  0  0
  142.8285   78.6503  220.3529 H   0  0  0  0  0  0  0  0  0  0  0  0
  140.0643   78.8575  219.1570 H   0  0  0  0  0  0  0  0  0  0  0  0
  141.5869   78.2051  218.4049 H   0  0  0  0  0  0  0  0  0  0  0  0
  139.9758   76.4628  219.2191 H   0  0  0  0  0  0  0  0  0  0  0  0
  142.4793   76.5632  217.8207 H   0  0  0  0  0  0  0  0  0  0  0  0
  144.3833   75.0046  217.7636 H   0  0  0  0  0  0  0  0  0  0  0  0
  143.4400   73.7006  221.7188 H   0  0  0  0  0  0  0  0  0  0  0  0
  141.5663   75.2350  221.7827 H   0  0  0  0  0  0  0  0  0  0  0  0
  139.1479   70.3406  222.0239 H   0  0  0  0  0  0  0  0  0  0  0  0
  139.2298   68.5738  223.7587 H   0  0  0  0  0  0  0  0  0  0  0  0
  139.8205   67.9247  226.0589 H   0  0  0  0  0  0  0  0  0  0  0  0
  141.5585   70.8790  228.6897 H   0  0  0  0  0  0  0  0  0  0  0  0
  141.4349   72.5955  226.8672 H   0  0  0  0  0  0  0  0  0  0  0  0
  1  2  2  0
  2  3  1  0
  3  4  1  0
  4  5  1  0
  5  6  2  0
  5  7  1  0
  7  8  1  0
  8  9  1  0
  9 10  1  0
 10 11  1  0
 11 12  1  0
 12 13  1  0
 13 14  2  0
 14 15  1  0
 15 16  2  0
 16 17  1  0
 16 18  1  0
 18 19  2  0
  2 20  1  0
 20 21  2  0
 21 22  1  0
 22 23  2  0
 23 24  1  0
 24 25  2  0
 25 26  1  0
 25 27  1  0
 27 28  2  0
 28 29  1  0
 29 30  2  0
 12  7  1  0
 19 13  1  0
 30 20  1  0
 29 23  1  0
  3 31  1  0
  4 32  1  0
  4 33  1  0
  8 34  1  0
  8 35  1  0
  9 36  1  0
  9 37  1  0
 10 38  1  0
 10 39  1  0
 11 40  1  0
 11 41  1  0
 12 42  1  6
 14 43  1  0
 15 44  1  0
 18 45  1  0
 19 46  1  0
 21 47  1  0
 22 48  1  0
 24 49  1  0
 27 50  1  0
 28 51  1  0
M  END
>  <smiles>  (95) 
O=C(NCC(=O)N1CCCCC1c1ccc(Br)cc1)c1ccc2cc(Cl)ccc2n1

>  <score_type>  (95) 
oracle

>  <origin>  (95) 
autodockgpu

>  <m_score__min__energy>  (95) 
-9.1600000000000001

>  <m_primary>  (95) 
energy

>  <rmsd>  (95) 
2.643568374374607

>  <m_score__min__rmsd>  (95) 
2.643568374374607

>  <meeko>  (95) 
{"free_energy": -8.69, "intermolecular_energy": -10.18, "internal_energy": -1.78, "cluster_size": 32, "cluster_id": 1, "rank_in_cluster": 18}

>  <energy>  (95) 
-8.48

>  <cluster_rmsd>  (95) 
0.0

>  <cluster>  (95) 
4

$$$$

     RDKit          3D

 51 54  0  0  0  0  0  0  0  0999 V2000
  138.5280   71.6280  220.7270 O   0  0  0  0  0  0  0  0  0  0  0  0
  138.4090   72.0440  221.9140 C   0  0  0  0  0  0  0  0  0  0  0  0
  137.8470   73.3490  222.0630 N   0  0  0  0  0  0  0  0  0  0  0  0
  137.4760   74.0590  220.8750 C   0  0  0  0  0  0  0  0  0  0  0  0
  138.6640   74.5810  220.1360 C   0  0  0  0  0  0  0  0  0  0  0  0
  138.9650   74.1970  218.9780 O   0  0  0  0  0  0  0  0  0  0  0  0
  139.5130   75.5530  220.7400 N   0  0  0  0  0  0  0  0  0  0  0  0
  139.1920   75.9500  222.0930 C   0  0  0  0  0  0  0  0  0  0  0  0
  139.7210   77.2630  222.5290 C   0  0  0  0  0  0  0  0  0  0  0  0
  140.7960   77.8820  221.7210 C   0  0  0  0  0  0  0  0  0  0  0  0
  140.7230   77.5600  220.2510 C   0  0  0  0  0  0  0  0  0  0  0  0
  140.6280   76.0820  219.9900 C   0  0  1  0  0  0  0  0  0  0  0  0
  141.8970   75.3730  220.1790 C   0  0  0  0  0  0  0  0  0  0  0  0
  143.1350   75.9400  219.9090 C   0  0  0  0  0  0  0  0  0  0  0  0
  144.3210   75.2480  220.0950 C   0  0  0  0  0  0  0  0  0  0  0  0
  144.3110   73.9560  220.5630 C   0  0  0  0  0  0  0  0  0  0  0  0
  145.9720   73.0540  220.8000 Br  0  0  0  0  0  0  0  0  0  0  0  0
  143.1050   73.3720  220.8370 C   0  0  0  0  0  0  0  0  0  0  0  0
  141.9470   74.0550  220.6520 C   0  0  0  0  0  0  0  0  0  0  0  0
  138.8170   71.2450  223.0650 C   0  0  0  0  0  0  0  0  0  0  0  0
  138.4360   69.9220  223.0920 C   0  0  0  0  0  0  0  0  0  0  0  0
  138.7690   69.0800  224.1320 C   0  0  0  0  0  0  0  0  0  0  0  0
  139.5160   69.6110  225.1790 C   0  0  0  0  0  0  0  0  0  0  0  0
  139.8820   68.8020  226.2600 C   0  0  0  0  0  0  0  0  0  0  0  0
  140.6250   69.3720  227.2780 C   0  0  0  0  0  0  0  0  0  0  0  0
  141.1070   68.4080  228.6500 Cl  0  0  0  0  0  0  0  0  0  0  0  0
  141.0070   70.7070  227.2480 C   0  0  0  0  0  0  0  0  0  0  0  0
  140.6380   71.5050  226.1660 C   0  0  0  0  0  0  0  0  0  0  0  0
  139.8950   70.9440  225.1430 C   0  0  0  0  0  0  0  0  0  0  0  0
  139.5300   71.7120  224.0850 N   0  0  0  0  0  0  0  0  0  0  0  0
  137.7260   73.7400  223.0300 H   0  0  0  0  0  0  0  0  0  0  0  0
  136.9191   73.3780  220.2146 H   0  0  0  0  0  0  0  0  0  0  0  0
  136.8595   74.9194  221.1743 H   0  0  0  0  0  0  0  0  0  0  0  0
  138.0962   75.9824  222.1829 H   0  0  0  0  0  0  0  0  0  0  0  0
  139.6761   75.2057  222.7424 H   0  0  0  0  0  0  0  0  0  0  0  0
  138.8762   77.9674  222.5441 H   0  0  0  0  0  0  0  0  0  0  0  0
  140.1910   77.0604  223.5027 H   0  0  0  0  0  0  0  0  0  0  0  0
  140.7320   78.9738  221.8392 H   0  0  0  0  0  0  0  0  0  0  0  0
  141.7471   77.4701  222.0893 H   0  0  0  0  0  0  0  0  0  0  0  0
  139.8354   78.0512  219.8258 H   0  0  0  0  0  0  0  0  0  0  0  0
  141.6494   77.9236  219.7825 H   0  0  0  0  0  0  0  0  0  0  0  0
  140.4244   75.9095  218.9229 H   0  0  0  0  0  0  0  0  0  0  0  0
  143.1759   76.9736  219.5347 H   0  0  0  0  0  0  0  0  0  0  0  0
  145.2792   75.7373  219.8660 H   0  0  0  0  0  0  0  0  0  0  0  0
  143.0733   72.3381  221.2112 H   0  0  0  0  0  0  0  0  0  0  0  0
  140.9991   73.5480  220.8853 H   0  0  0  0  0  0  0  0  0  0  0  0
  137.8452   69.5228  222.2544 H   0  0  0  0  0  0  0  0  0  0  0  0
  138.4552   68.0257  224.1339 H   0  0  0  0  0  0  0  0  0  0  0  0
  139.5874   67.7429  226.2993 H   0  0  0  0  0  0  0  0  0  0  0  0
  141.5972   71.1322  228.0731 H   0  0  0  0  0  0  0  0  0  0  0  0
  140.9330   72.5640  226.1265 H   0  0  0  0  0  0  0  0  0  0  0  0
  1  2  2  0
  2  3  1  0
  3  4  1  0
  4  5  1  0
  5  6  2  0
  5  7  1  0
  7  8  1  0
  8  9  1  0
  9 10  1  0
 10 11  1  0
 11 12  1  0
 12 13  1  0
 13 14  2  0
 14 15  1  0
 15 16  2  0
 16 17  1  0
 16 18  1  0
 18 19  2  0
  2 20  1  0
 20 21  2  0
 21 22  1  0
 22 23  2  0
 23 24  1  0
 24 25  2  0
 25 26  1  0
 25 27  1  0
 27 28  2  0
 28 29  1  0
 29 30  2  0
 12  7  1  0
 19 13  1  0
 30 20  1  0
 29 23  1  0
  3 31  1  0
  4 32  1  0
  4 33  1  0
  8 34  1  0
  8 35  1  0
  9 36  1  0
  9 37  1  0
 10 38  1  0
 10 39  1  0
 11 40  1  0
 11 41  1  0
 12 42  1  6
 14 43  1  0
 15 44  1  0
 18 45  1  0
 19 46  1  0
 21 47  1  0
 22 48  1  0
 24 49  1  0
 27 50  1  0
 28 51  1  0
M  END
>  <smiles>  (96) 
O=C(NCC(=O)N1CCCCC1c1ccc(Br)cc1)c1ccc2cc(Cl)ccc2n1

>  <score_type>  (96) 
oracle

>  <origin>  (96) 
autodockgpu

>  <m_score__min__energy>  (96) 
-9.1600000000000001

>  <m_primary>  (96) 
energy

>  <rmsd>  (96) 
2.3142587093989624

>  <m_score__min__rmsd>  (96) 
2.3142587093989624

>  <meeko>  (96) 
{"free_energy": -8.42, "intermolecular_energy": -9.91, "internal_energy": -1.75, "cluster_size": 32, "cluster_id": 1, "rank_in_cluster": 29}

>  <energy>  (96) 
-8.44

>  <cluster_rmsd>  (96) 
0.0

>  <cluster>  (96) 
5

$$$$

     RDKit          3D

 51 54  0  0  0  0  0  0  0  0999 V2000
  139.1100   71.1470  221.1650 O   0  0  0  0  0  0  0  0  0  0  0  0
  138.8360   71.6570  222.2880 C   0  0  0  0  0  0  0  0  0  0  0  0
  137.9470   72.7760  222.2640 N   0  0  0  0  0  0  0  0  0  0  0  0
  137.4540   73.2130  220.9910 C   0  0  0  0  0  0  0  0  0  0  0  0
  138.5150   73.8730  220.1730 C   0  0  0  0  0  0  0  0  0  0  0  0
  138.8110   73.4940  219.0110 O   0  0  0  0  0  0  0  0  0  0  0  0
  139.2420   74.9790  220.7000 N   0  0  0  0  0  0  0  0  0  0  0  0
  138.8830   75.4240  222.0280 C   0  0  0  0  0  0  0  0  0  0  0  0
  139.2490   76.8180  222.3700 C   0  0  0  0  0  0  0  0  0  0  0  0
  140.2370   77.5070  221.5090 C   0  0  0  0  0  0  0  0  0  0  0  0
  140.1960   77.0810  220.0640 C   0  0  0  0  0  0  0  0  0  0  0  0
  140.2810   75.5880  219.9020 C   0  0  1  0  0  0  0  0  0  0  0  0
  141.6280   75.0530  220.1200 C   0  0  0  0  0  0  0  0  0  0  0  0
  142.7860   75.7660  219.8430 C   0  0  0  0  0  0  0  0  0  0  0  0
  144.0480   75.2370  220.0580 C   0  0  0  0  0  0  0  0  0  0  0  0
  144.1980   73.9670  220.5620 C   0  0  0  0  0  0  0  0  0  0  0  0
  145.9580   73.2920  220.8370 Br  0  0  0  0  0  0  0  0  0  0  0  0
  143.0740   73.2410  220.8440 C   0  0  0  0  0  0  0  0  0  0  0  0
  141.8400   73.7660  220.6310 C   0  0  0  0  0  0  0  0  0  0  0  0
  139.3890   71.1400  223.5360 C   0  0  0  0  0  0  0  0  0  0  0  0
  140.3270   71.9110  224.1860 C   0  0  0  0  0  0  0  0  0  0  0  0
  140.9110   71.5160  225.3710 C   0  0  0  0  0  0  0  0  0  0  0  0
  140.5230   70.2910  225.9070 C   0  0  0  0  0  0  0  0  0  0  0  0
  141.0830   69.8410  227.1070 C   0  0  0  0  0  0  0  0  0  0  0  0
  140.6670   68.6190  227.6020 C   0  0  0  0  0  0  0  0  0  0  0  0
  141.3350   68.0100  229.0950 Cl  0  0  0  0  0  0  0  0  0  0  0  0
  139.7210   67.8440  226.9430 C   0  0  0  0  0  0  0  0  0  0  0  0
  139.1680   68.3020  225.7470 C   0  0  0  0  0  0  0  0  0  0  0  0
  139.5780   69.5230  225.2440 C   0  0  0  0  0  0  0  0  0  0  0  0
  139.0460   69.9780  224.0810 N   0  0  0  0  0  0  0  0  0  0  0  0
  137.6880   73.2360  223.1710 H   0  0  0  0  0  0  0  0  0  0  0  0
  137.0728   72.3406  220.4400 H   0  0  0  0  0  0  0  0  0  0  0  0
  136.6581   73.9506  221.1715 H   0  0  0  0  0  0  0  0  0  0  0  0
  137.7920   75.3282  222.1309 H   0  0  0  0  0  0  0  0  0  0  0  0
  139.4593   74.7898  222.7177 H   0  0  0  0  0  0  0  0  0  0  0  0
  138.3245   77.4138  222.3489 H   0  0  0  0  0  0  0  0  0  0  0  0
  139.7439   76.7404  223.3493 H   0  0  0  0  0  0  0  0  0  0  0  0
  140.0417   78.5885  221.5561 H   0  0  0  0  0  0  0  0  0  0  0  0
  141.2330   77.2384  221.8910 H   0  0  0  0  0  0  0  0  0  0  0  0
  139.2527   77.4311  219.6194 H   0  0  0  0  0  0  0  0  0  0  0  0
  141.0684   77.5225  219.5601 H   0  0  0  0  0  0  0  0  0  0  0  0
  140.0948   75.3204  218.8514 H   0  0  0  0  0  0  0  0  0  0  0  0
  142.6987   76.7855  219.4392 H   0  0  0  0  0  0  0  0  0  0  0  0
  144.9384   75.8388  219.8232 H   0  0  0  0  0  0  0  0  0  0  0  0
  143.1704   72.2221  221.2472 H   0  0  0  0  0  0  0  0  0  0  0  0
  140.9618   73.1491  220.8721 H   0  0  0  0  0  0  0  0  0  0  0  0
  140.6203   72.8750  223.7447 H   0  0  0  0  0  0  0  0  0  0  0  0
  141.6576   72.1469  225.8754 H   0  0  0  0  0  0  0  0  0  0  0  0
  141.8331   70.4422  227.6417 H   0  0  0  0  0  0  0  0  0  0  0  0
  139.4100   66.8755  227.3616 H   0  0  0  0  0  0  0  0  0  0  0  0
  138.4175   67.7012  225.2124 H   0  0  0  0  0  0  0  0  0  0  0  0
  1  2  2  0
  2  3  1  0
  3  4  1  0
  4  5  1  0
  5  6  2  0
  5  7  1  0
  7  8  1  0
  8  9  1  0
  9 10  1  0
 10 11  1  0
 11 12  1  0
 12 13  1  0
 13 14  2  0
 14 15  1  0
 15 16  2  0
 16 17  1  0
 16 18  1  0
 18 19  2  0
  2 20  1  0
 20 21  2  0
 21 22  1  0
 22 23  2  0
 23 24  1  0
 24 25  2  0
 25 26  1  0
 25 27  1  0
 27 28  2  0
 28 29  1  0
 29 30  2  0
 12  7  1  0
 19 13  1  0
 30 20  1  0
 29 23  1  0
  3 31  1  0
  4 32  1  0
  4 33  1  0
  8 34  1  0
  8 35  1  0
  9 36  1  0
  9 37  1  0
 10 38  1  0
 10 39  1  0
 11 40  1  0
 11 41  1  0
 12 42  1  6
 14 43  1  0
 15 44  1  0
 18 45  1  0
 19 46  1  0
 21 47  1  0
 22 48  1  0
 24 49  1  0
 27 50  1  0
 28 51  1  0
M  END
>  <smiles>  (97) 
O=C(NCC(=O)N1CCCCC1c1ccc(Br)cc1)c1ccc2cc(Cl)ccc2n1

>  <score_type>  (97) 
oracle

>  <origin>  (97) 
autodockgpu

>  <m_score__min__energy>  (97) 
-9.1600000000000001

>  <m_primary>  (97) 
energy

>  <rmsd>  (97) 
3.104923608583143

>  <m_score__min__rmsd>  (97) 
3.104923608583143

>  <meeko>  (97) 
{"free_energy": -8.53, "intermolecular_energy": -10.02, "internal_energy": -1.76, "cluster_size": 32, "cluster_id": 1, "rank_in_cluster": 22}

>  <energy>  (97) 
-8.14

>  <cluster_rmsd>  (97) 
0.0

>  <cluster>  (97) 
6

$$$$

     RDKit          3D

 51 54  0  0  0  0  0  0  0  0999 V2000
  139.0620   71.0870  221.1350 O   0  0  0  0  0  0  0  0  0  0  0  0
  138.8230   71.6370  222.2470 C   0  0  0  0  0  0  0  0  0  0  0  0
  137.9700   72.7830  222.2040 N   0  0  0  0  0  0  0  0  0  0  0  0
  137.4720   73.2010  220.9270 C   0  0  0  0  0  0  0  0  0  0  0  0
  138.5140   73.8980  220.1170 C   0  0  0  0  0  0  0  0  0  0  0  0
  138.7910   73.5660  218.9370 O   0  0  0  0  0  0  0  0  0  0  0  0
  139.2450   74.9870  220.6740 N   0  0  0  0  0  0  0  0  0  0  0  0
  138.8700   75.4150  222.0030 C   0  0  0  0  0  0  0  0  0  0  0  0
  139.2470   76.7980  222.3740 C   0  0  0  0  0  0  0  0  0  0  0  0
  140.2560   77.4900  221.5400 C   0  0  0  0  0  0  0  0  0  0  0  0
  140.2330   77.0870  220.0880 C   0  0  0  0  0  0  0  0  0  0  0  0
  140.3040   75.5970  219.9030 C   0  0  1  0  0  0  0  0  0  0  0  0
  141.6410   75.0420  220.1340 C   0  0  0  0  0  0  0  0  0  0  0  0
  141.8610   73.7620  220.6270 C   0  0  0  0  0  0  0  0  0  0  0  0
  143.1350   73.2620  220.8360 C   0  0  0  0  0  0  0  0  0  0  0  0
  144.2430   74.0260  220.5570 C   0  0  0  0  0  0  0  0  0  0  0  0
  145.9700   73.2840  220.8640 Br  0  0  0  0  0  0  0  0  0  0  0  0
  144.0550   75.2900  220.0690 C   0  0  0  0  0  0  0  0  0  0  0  0
  142.8040   75.7750  219.8670 C   0  0  0  0  0  0  0  0  0  0  0  0
  139.3790   71.1360  223.5000 C   0  0  0  0  0  0  0  0  0  0  0  0
  140.3170   71.9160  224.1390 C   0  0  0  0  0  0  0  0  0  0  0  0
  140.9040   71.5360  225.3270 C   0  0  0  0  0  0  0  0  0  0  0  0
  140.5170   70.3190  225.8800 C   0  0  0  0  0  0  0  0  0  0  0  0
  141.0800   69.8840  227.0840 C   0  0  0  0  0  0  0  0  0  0  0  0
  140.6650   68.6680  227.5960 C   0  0  0  0  0  0  0  0  0  0  0  0
  141.3360   68.0790  229.0950 Cl  0  0  0  0  0  0  0  0  0  0  0  0
  139.7190   67.8840  226.9480 C   0  0  0  0  0  0  0  0  0  0  0  0
  139.1630   68.3270  225.7480 C   0  0  0  0  0  0  0  0  0  0  0  0
  139.5710   69.5410  225.2280 C   0  0  0  0  0  0  0  0  0  0  0  0
  139.0370   69.9810  224.0610 N   0  0  0  0  0  0  0  0  0  0  0  0
  137.7400   73.2750  223.1020 H   0  0  0  0  0  0  0  0  0  0  0  0
  137.1270   72.3150  220.3738 H   0  0  0  0  0  0  0  0  0  0  0  0
  136.6488   73.9096  221.1007 H   0  0  0  0  0  0  0  0  0  0  0  0
  137.7764   75.3311  222.0868 H   0  0  0  0  0  0  0  0  0  0  0  0
  139.4276   74.7627  222.6912 H   0  0  0  0  0  0  0  0  0  0  0  0
  138.3300   77.4050  222.3493 H   0  0  0  0  0  0  0  0  0  0  0  0
  139.7262   76.6977  223.3590 H   0  0  0  0  0  0  0  0  0  0  0  0
  140.0715   78.5727  221.6013 H   0  0  0  0  0  0  0  0  0  0  0  0
  141.2430   77.2051  221.9334 H   0  0  0  0  0  0  0  0  0  0  0  0
  139.3007   77.4547  219.6346 H   0  0  0  0  0  0  0  0  0  0  0  0
  141.1183   77.5263  219.6051 H   0  0  0  0  0  0  0  0  0  0  0  0
  140.1326   75.3494  218.8450 H   0  0  0  0  0  0  0  0  0  0  0  0
  140.9947   73.1250  220.8589 H   0  0  0  0  0  0  0  0  0  0  0  0
  143.2618   72.2426  221.2295 H   0  0  0  0  0  0  0  0  0  0  0  0
  144.9269   75.9197  219.8380 H   0  0  0  0  0  0  0  0  0  0  0  0
  142.6979   76.7966  219.4732 H   0  0  0  0  0  0  0  0  0  0  0  0
  140.6078   72.8752  223.6859 H   0  0  0  0  0  0  0  0  0  0  0  0
  141.6526   72.1729  225.8209 H   0  0  0  0  0  0  0  0  0  0  0  0
  141.8317   70.4918  227.6090 H   0  0  0  0  0  0  0  0  0  0  0  0
  139.4103   66.9199  227.3785 H   0  0  0  0  0  0  0  0  0  0  0  0
  138.4110   67.7194  225.2233 H   0  0  0  0  0  0  0  0  0  0  0  0
  1  2  2  0
  2  3  1  0
  3  4  1  0
  4  5  1  0
  5  6  2  0
  5  7  1  0
  7  8  1  0
  8  9  1  0
  9 10  1  0
 10 11  1  0
 11 12  1  0
 12 13  1  0
 13 14  2  0
 14 15  1  0
 15 16  2  0
 16 17  1  0
 16 18  1  0
 18 19  2  0
  2 20  1  0
 20 21  2  0
 21 22  1  0
 22 23  2  0
 23 24  1  0
 24 25  2  0
 25 26  1  0
 25 27  1  0
 27 28  2  0
 28 29  1  0
 29 30  2  0
 12  7  1  0
 19 13  1  0
 30 20  1  0
 29 23  1  0
  3 31  1  0
  4 32  1  0
  4 33  1  0
  8 34  1  0
  8 35  1  0
  9 36  1  0
  9 37  1  0
 10 38  1  0
 10 39  1  0
 11 40  1  0
 11 41  1  0
 12 42  1  6
 14 43  1  0
 15 44  1  0
 18 45  1  0
 19 46  1  0
 21 47  1  0
 22 48  1  0
 24 49  1  0
 27 50  1  0
 28 51  1  0
M  END
>  <smiles>  (98) 
O=C(NCC(=O)N1CCCCC1c1ccc(Br)cc1)c1ccc2cc(Cl)ccc2n1

>  <score_type>  (98) 
oracle

>  <origin>  (98) 
autodockgpu

>  <m_score__min__energy>  (98) 
-9.1600000000000001

>  <m_primary>  (98) 
energy

>  <rmsd>  (98) 
3.098597377836159

>  <m_score__min__rmsd>  (98) 
3.098597377836159

>  <meeko>  (98) 
{"free_energy": -8.54, "intermolecular_energy": -10.03, "internal_energy": -1.74, "cluster_size": 32, "cluster_id": 1, "rank_in_cluster": 21}

>  <energy>  (98) 
-7.69

>  <cluster_rmsd>  (98) 
1.94

>  <cluster>  (98) 
6

$$$$

     RDKit          3D

 51 54  0  0  0  0  0  0  0  0999 V2000
  138.6760   71.5000  220.8390 O   0  0  0  0  0  0  0  0  0  0  0  0
  138.4520   71.8570  222.0300 C   0  0  0  0  0  0  0  0  0  0  0  0
  137.7610   73.0970  222.1890 N   0  0  0  0  0  0  0  0  0  0  0  0
  137.3910   73.8150  221.0050 C   0  0  0  0  0  0  0  0  0  0  0  0
  138.5800   74.3410  220.2700 C   0  0  0  0  0  0  0  0  0  0  0  0
  138.8950   73.9480  219.1190 O   0  0  0  0  0  0  0  0  0  0  0  0
  139.4140   75.3280  220.8710 N   0  0  0  0  0  0  0  0  0  0  0  0
  139.1240   75.6830  222.2420 C   0  0  0  0  0  0  0  0  0  0  0  0
  139.6200   77.0030  222.6930 C   0  0  0  0  0  0  0  0  0  0  0  0
  140.6460   77.6780  221.8670 C   0  0  0  0  0  0  0  0  0  0  0  0
  140.5370   77.3880  220.3920 C   0  0  0  0  0  0  0  0  0  0  0  0
  140.4850   75.9140  220.0990 C   0  0  1  0  0  0  0  0  0  0  0  0
  141.7840   75.2460  220.2300 C   0  0  0  0  0  0  0  0  0  0  0  0
  142.9910   75.8570  219.9170 C   0  0  0  0  0  0  0  0  0  0  0  0
  144.2040   75.2030  220.0500 C   0  0  0  0  0  0  0  0  0  0  0  0
  144.2560   73.9070  220.5040 C   0  0  0  0  0  0  0  0  0  0  0  0
  145.9540   73.0590  220.6670 Br  0  0  0  0  0  0  0  0  0  0  0  0
  143.0820   73.2810  220.8200 C   0  0  0  0  0  0  0  0  0  0  0  0
  141.8960   73.9270  220.6870 C   0  0  0  0  0  0  0  0  0  0  0  0
  138.8690   71.0550  223.1770 C   0  0  0  0  0  0  0  0  0  0  0  0
  138.4970   69.7290  223.1980 C   0  0  0  0  0  0  0  0  0  0  0  0
  138.8390   68.8860  224.2330 C   0  0  0  0  0  0  0  0  0  0  0  0
  139.5860   69.4170  225.2810 C   0  0  0  0  0  0  0  0  0  0  0  0
  139.9610   68.6060  226.3570 C   0  0  0  0  0  0  0  0  0  0  0  0
  140.7030   69.1760  227.3760 C   0  0  0  0  0  0  0  0  0  0  0  0
  141.1960   68.2090  228.7420 Cl  0  0  0  0  0  0  0  0  0  0  0  0
  141.0750   70.5140  227.3510 C   0  0  0  0  0  0  0  0  0  0  0  0
  140.6960   71.3140  226.2730 C   0  0  0  0  0  0  0  0  0  0  0  0
  139.9550   70.7530  225.2500 C   0  0  0  0  0  0  0  0  0  0  0  0
  139.5810   71.5230  224.1970 N   0  0  0  0  0  0  0  0  0  0  0  0
  137.5500   73.4380  223.1590 H   0  0  0  0  0  0  0  0  0  0  0  0
  136.8340   73.1386  220.3400 H   0  0  0  0  0  0  0  0  0  0  0  0
  136.7748   74.6739  221.3094 H   0  0  0  0  0  0  0  0  0  0  0  0
  138.0312   75.6741  222.3673 H   0  0  0  0  0  0  0  0  0  0  0  0
  139.6556   74.9422  222.8573 H   0  0  0  0  0  0  0  0  0  0  0  0
  138.7520   77.6762  222.7515 H   0  0  0  0  0  0  0  0  0  0  0  0
  140.1275   76.7951  223.6465 H   0  0  0  0  0  0  0  0  0  0  0  0
  140.5481   78.7638  222.0137 H   0  0  0  0  0  0  0  0  0  0  0  0
  141.6221   77.2912  222.1950 H   0  0  0  0  0  0  0  0  0  0  0  0
  139.6197   77.8572  220.0067 H   0  0  0  0  0  0  0  0  0  0  0  0
  141.4344   77.7952  219.9033 H   0  0  0  0  0  0  0  0  0  0  0  0
  140.2525   75.7593  219.0350 H   0  0  0  0  0  0  0  0  0  0  0  0
  142.9831   76.8945  219.5515 H   0  0  0  0  0  0  0  0  0  0  0  0
  145.1359   75.7263  219.7895 H   0  0  0  0  0  0  0  0  0  0  0  0
  143.0992   72.2437  221.1856 H   0  0  0  0  0  0  0  0  0  0  0  0
  140.9751   73.3867  220.9518 H   0  0  0  0  0  0  0  0  0  0  0  0
  137.9069   69.3294  222.3601 H   0  0  0  0  0  0  0  0  0  0  0  0
  138.5323   67.8296  224.2312 H   0  0  0  0  0  0  0  0  0  0  0  0
  139.6740   67.5447  226.3920 H   0  0  0  0  0  0  0  0  0  0  0  0
  141.6647   70.9400  228.1760 H   0  0  0  0  0  0  0  0  0  0  0  0
  140.9826   72.3754  226.2376 H   0  0  0  0  0  0  0  0  0  0  0  0
  1  2  2  0
  2  3  1  0
  3  4  1  0
  4  5  1  0
  5  6  2  0
  5  7  1  0
  7  8  1  0
  8  9  1  0
  9 10  1  0
 10 11  1  0
 11 12  1  0
 12 13  1  0
 13 14  2  0
 14 15  1  0
 15 16  2  0
 16 17  1  0
 16 18  1  0
 18 19  2  0
  2 20  1  0
 20 21  2  0
 21 22  1  0
 22 23  2  0
 23 24  1  0
 24 25  2  0
 25 26  1  0
 25 27  1  0
 27 28  2  0
 28 29  1  0
 29 30  2  0
 12  7  1  0
 19 13  1  0
 30 20  1  0
 29 23  1  0
  3 31  1  0
  4 32  1  0
  4 33  1  0
  8 34  1  0
  8 35  1  0
  9 36  1  0
  9 37  1  0
 10 38  1  0
 10 39  1  0
 11 40  1  0
 11 41  1  0
 12 42  1  6
 14 43  1  0
 15 44  1  0
 18 45  1  0
 19 46  1  0
 21 47  1  0
 22 48  1  0
 24 49  1  0
 27 50  1  0
 28 51  1  0
M  END
>  <smiles>  (99) 
O=C(NCC(=O)N1CCCCC1c1ccc(Br)cc1)c1ccc2cc(Cl)ccc2n1

>  <score_type>  (99) 
oracle

>  <origin>  (99) 
autodockgpu

>  <m_score__min__energy>  (99) 
-9.1600000000000001

>  <m_primary>  (99) 
energy

>  <rmsd>  (99) 
2.338625070606728

>  <m_score__min__rmsd>  (99) 
2.338625070606728

>  <meeko>  (99) 
{"free_energy": -8.48, "intermolecular_energy": -9.97, "internal_energy": -1.72, "cluster_size": 32, "cluster_id": 1, "rank_in_cluster": 27}

>  <energy>  (99) 
-8.13

>  <cluster_rmsd>  (99) 
0.0

>  <cluster>  (99) 
7

$$$$

     RDKit          3D

 51 54  0  0  0  0  0  0  0  0999 V2000
  138.7340   71.5690  220.9190 O   0  0  0  0  0  0  0  0  0  0  0  0
  138.4410   71.8830  222.1070 C   0  0  0  0  0  0  0  0  0  0  0  0
  137.6820   73.0830  222.2660 N   0  0  0  0  0  0  0  0  0  0  0  0
  137.3270   73.8130  221.0850 C   0  0  0  0  0  0  0  0  0  0  0  0
  138.5270   74.3030  220.3440 C   0  0  0  0  0  0  0  0  0  0  0  0
  138.8490   73.8690  219.2090 O   0  0  0  0  0  0  0  0  0  0  0  0
  139.3660   75.3010  220.9190 N   0  0  0  0  0  0  0  0  0  0  0  0
  139.0840   75.6850  222.2840 C   0  0  0  0  0  0  0  0  0  0  0  0
  139.5840   77.0140  222.7050 C   0  0  0  0  0  0  0  0  0  0  0  0
  140.6070   77.6700  221.8590 C   0  0  0  0  0  0  0  0  0  0  0  0
  140.4890   77.3490  220.3910 C   0  0  0  0  0  0  0  0  0  0  0  0
  140.4340   75.8690  220.1300 C   0  0  1  0  0  0  0  0  0  0  0  0
  141.7320   75.2020  220.2680 C   0  0  0  0  0  0  0  0  0  0  0  0
  141.8750   73.8970  220.7190 C   0  0  0  0  0  0  0  0  0  0  0  0
  143.1140   73.2900  220.8410 C   0  0  0  0  0  0  0  0  0  0  0  0
  144.2620   73.9690  220.5140 C   0  0  0  0  0  0  0  0  0  0  0  0
  145.9380   73.0830  220.7010 Br  0  0  0  0  0  0  0  0  0  0  0  0
  144.1510   75.2570  220.0660 C   0  0  0  0  0  0  0  0  0  0  0  0
  142.9340   75.8460  219.9490 C   0  0  0  0  0  0  0  0  0  0  0  0
  138.8480   71.0720  223.2520 C   0  0  0  0  0  0  0  0  0  0  0  0
  138.4340   69.7590  223.2840 C   0  0  0  0  0  0  0  0  0  0  0  0
  138.7640   68.9090  224.3170 C   0  0  0  0  0  0  0  0  0  0  0  0
  139.5420   69.4190  225.3520 C   0  0  0  0  0  0  0  0  0  0  0  0
  139.9060   68.6010  226.4270 C   0  0  0  0  0  0  0  0  0  0  0  0
  140.6790   69.1510  227.4320 C   0  0  0  0  0  0  0  0  0  0  0  0
  141.1600   68.1730  228.7950 Cl  0  0  0  0  0  0  0  0  0  0  0  0
  141.0940   70.4760  227.3970 C   0  0  0  0  0  0  0  0  0  0  0  0
  140.7260   71.2840  226.3210 C   0  0  0  0  0  0  0  0  0  0  0  0
  139.9530   70.7430  225.3110 C   0  0  0  0  0  0  0  0  0  0  0  0
  139.5890   71.5210  224.2600 N   0  0  0  0  0  0  0  0  0  0  0  0
  137.4120   73.3870  223.2340 H   0  0  0  0  0  0  0  0  0  0  0  0
  136.7458   73.1546  220.4226 H   0  0  0  0  0  0  0  0  0  0  0  0
  136.7388   74.6898  221.3935 H   0  0  0  0  0  0  0  0  0  0  0  0
  137.9919   75.6800  222.4154 H   0  0  0  0  0  0  0  0  0  0  0  0
  139.6184   74.9566  222.9116 H   0  0  0  0  0  0  0  0  0  0  0  0
  138.7172   77.6895  222.7538 H   0  0  0  0  0  0  0  0  0  0  0  0
  140.0959   76.8258  223.6603 H   0  0  0  0  0  0  0  0  0  0  0  0
  140.5118   78.7588  221.9833 H   0  0  0  0  0  0  0  0  0  0  0  0
  141.5844   77.2887  222.1897 H   0  0  0  0  0  0  0  0  0  0  0  0
  139.5698   77.8108  220.0013 H   0  0  0  0  0  0  0  0  0  0  0  0
  141.3837   77.7450  219.8883 H   0  0  0  0  0  0  0  0  0  0  0  0
  140.1964   75.6922  219.0706 H   0  0  0  0  0  0  0  0  0  0  0  0
  140.9743   73.3259  220.9885 H   0  0  0  0  0  0  0  0  0  0  0  0
  143.1791   72.2535  221.2035 H   0  0  0  0  0  0  0  0  0  0  0  0
  145.0569   75.8205  219.7981 H   0  0  0  0  0  0  0  0  0  0  0  0
  142.8894   76.8830  219.5847 H   0  0  0  0  0  0  0  0  0  0  0  0
  137.8188   69.3757  222.4566 H   0  0  0  0  0  0  0  0  0  0  0  0
  138.4241   67.8629  224.3234 H   0  0  0  0  0  0  0  0  0  0  0  0
  139.5859   67.5495  226.4711 H   0  0  0  0  0  0  0  0  0  0  0  0
  141.7087   70.8855  228.2122 H   0  0  0  0  0  0  0  0  0  0  0  0
  141.0461   72.3355  226.2770 H   0  0  0  0  0  0  0  0  0  0  0  0
  1  2  2  0
  2  3  1  0
  3  4  1  0
  4  5  1  0
  5  6  2  0
  5  7  1  0
  7  8  1  0
  8  9  1  0
  9 10  1  0
 10 11  1  0
 11 12  1  0
 12 13  1  0
 13 14  2  0
 14 15  1  0
 15 16  2  0
 16 17  1  0
 16 18  1  0
 18 19  2  0
  2 20  1  0
 20 21  2  0
 21 22  1  0
 22 23  2  0
 23 24  1  0
 24 25  2  0
 25 26  1  0
 25 27  1  0
 27 28  2  0
 28 29  1  0
 29 30  2  0
 12  7  1  0
 19 13  1  0
 30 20  1  0
 29 23  1  0
  3 31  1  0
  4 32  1  0
  4 33  1  0
  8 34  1  0
  8 35  1  0
  9 36  1  0
  9 37  1  0
 10 38  1  0
 10 39  1  0
 11 40  1  0
 11 41  1  0
 12 42  1  6
 14 43  1  0
 15 44  1  0
 18 45  1  0
 19 46  1  0
 21 47  1  0
 22 48  1  0
 24 49  1  0
 27 50  1  0
 28 51  1  0
M  END
>  <smiles>  (100) 
O=C(NCC(=O)N1CCCCC1c1ccc(Br)cc1)c1ccc2cc(Cl)ccc2n1

>  <score_type>  (100) 
oracle

>  <origin>  (100) 
autodockgpu

>  <m_score__min__energy>  (100) 
-9.1600000000000001

>  <m_primary>  (100) 
energy

>  <rmsd>  (100) 
2.3559519557867494

>  <m_score__min__rmsd>  (100) 
2.3559519557867494

>  <meeko>  (100) 
{"free_energy": -8.52, "intermolecular_energy": -10.01, "internal_energy": -1.68, "cluster_size": 32, "cluster_id": 1, "rank_in_cluster": 25}

>  <energy>  (100) 
-6.59

>  <cluster_rmsd>  (100) 
0.0

>  <cluster>  (100) 
8

$$$$
