
     RDKit          3D

 48 51  0  0  0  0  0  0  0  0999 V2000
  139.6670   68.6940  227.9620 N   0  0  0  0  0  0  0  0  0  0  0  0
  140.1040   68.2740  226.3740 S   0  0  0  0  0  0  0  0  0  0  0  0
  141.5210   67.8030  226.3590 O   0  0  0  0  0  0  0  0  0  0  0  0
  139.1750   67.1480  225.9440 O   0  0  0  0  0  0  0  0  0  0  0  0
  139.9000   69.5520  225.2110 C   0  0  0  0  0  0  0  0  0  0  0  0
  139.1200   69.3970  224.1130 C   0  0  0  0  0  0  0  0  0  0  0  0
  138.9550   70.4140  223.1840 C   0  0  0  0  0  0  0  0  0  0  0  0
  139.5890   71.6540  223.3370 C   0  0  0  0  0  0  0  0  0  0  0  0
  139.3900   72.7190  222.3200 C   0  0  0  0  0  0  0  0  0  0  0  0
  140.6060   73.2390  221.7640 N   0  0  0  0  0  0  0  0  0  0  0  0
  140.8810   74.5490  221.6200 C   0  0  0  0  0  0  0  0  0  0  0  0
  139.8720   75.5670  221.9870 C   0  0  0  0  0  0  0  0  0  0  0  0
  139.9340   76.7960  221.4870 C   0  0  0  0  0  0  0  0  0  0  0  0
  140.7910   77.8410  221.9880 C   0  0  0  0  0  0  0  0  0  0  0  0
  141.3470   78.8310  221.2140 C   0  0  0  0  0  0  0  0  0  0  0  0
  142.1690   79.8210  221.7410 C   0  0  0  0  0  0  0  0  0  0  0  0
  142.4380   79.8150  223.0860 C   0  0  0  0  0  0  0  0  0  0  0  0
  141.8680   78.8050  223.8560 C   0  0  0  0  0  0  0  0  0  0  0  0
  141.0850   77.8750  223.3080 N   0  0  0  0  0  0  0  0  0  0  0  0
  142.0520   75.0020  221.1130 N   0  0  0  0  0  0  0  0  0  0  0  0
  143.0180   74.1740  220.7180 C   0  0  0  0  0  0  0  0  0  0  0  0
  144.2010   74.6810  220.2050 C   0  0  0  0  0  0  0  0  0  0  0  0
  145.1920   73.7950  219.8010 C   0  0  0  0  0  0  0  0  0  0  0  0
  144.9650   72.4290  219.9240 C   0  0  0  0  0  0  0  0  0  0  0  0
  143.7770   71.9440  220.4390 C   0  0  0  0  0  0  0  0  0  0  0  0
  142.7860   72.8210  220.8440 C   0  0  0  0  0  0  0  0  0  0  0  0
  141.5810   72.3700  221.3650 C   0  0  0  0  0  0  0  0  0  0  0  0
  141.4490   71.1260  221.4450 O   0  0  0  0  0  0  0  0  0  0  0  0
  140.3720   71.7880  224.4560 C   0  0  0  0  0  0  0  0  0  0  0  0
  140.5370   70.7610  225.3910 C   0  0  0  0  0  0  0  0  0  0  0  0
  139.5690   67.9270  228.6350 H   0  0  0  0  0  0  0  0  0  0  0  0
  140.0160   69.5930  228.3110 H   0  0  0  0  0  0  0  0  0  0  0  0
  138.6038   68.4387  223.9544 H   0  0  0  0  0  0  0  0  0  0  0  0
  138.3122   70.2431  222.3079 H   0  0  0  0  0  0  0  0  0  0  0  0
  138.7862   72.3036  221.4998 H   0  0  0  0  0  0  0  0  0  0  0  0
  138.8950   73.5564  222.8336 H   0  0  0  0  0  0  0  0  0  0  0  0
  139.0612   75.3030  222.6819 H   0  0  0  0  0  0  0  0  0  0  0  0
  139.2858   77.0329  220.6304 H   0  0  0  0  0  0  0  0  0  0  0  0
  141.1334   78.8407  220.1350 H   0  0  0  0  0  0  0  0  0  0  0  0
  142.5970   80.5970  221.0893 H   0  0  0  0  0  0  0  0  0  0  0  0
  143.0821   80.5821  223.5407 H   0  0  0  0  0  0  0  0  0  0  0  0
  142.0673   78.7735  224.9373 H   0  0  0  0  0  0  0  0  0  0  0  0
  144.3531   75.7670  220.1190 H   0  0  0  0  0  0  0  0  0  0  0  0
  146.1415   74.1686  219.3902 H   0  0  0  0  0  0  0  0  0  0  0  0
  145.7446   71.7212  219.6059 H   0  0  0  0  0  0  0  0  0  0  0  0
  143.6192   70.8589  220.5270 H   0  0  0  0  0  0  0  0  0  0  0  0
  140.8915   72.7428  224.6246 H   0  0  0  0  0  0  0  0  0  0  0  0
  141.1766   70.9185  226.2720 H   0  0  0  0  0  0  0  0  0  0  0  0
  1  2  1  0
  2  3  2  0
  2  4  2  0
  2  5  1  0
  5  6  2  0
  6  7  1  0
  7  8  2  0
  8  9  1  0
  9 10  1  0
 10 11  1  0
 11 12  1  0
 12 13  2  0
 13 14  1  0
 14 15  2  0
 15 16  1  0
 16 17  2  0
 17 18  1  0
 18 19  2  0
 11 20  2  0
 20 21  1  0
 21 22  2  0
 22 23  1  0
 23 24  2  0
 24 25  1  0
 25 26  2  0
 26 27  1  0
 27 28  2  0
  8 29  1  0
 29 30  2  0
 30  5  1  0
 27 10  1  0
 19 14  1  0
 26 21  1  0
  1 31  1  0
  1 32  1  0
  6 33  1  0
  7 34  1  0
  9 35  1  0
  9 36  1  0
 12 37  1  0
 13 38  1  0
 15 39  1  0
 16 40  1  0
 17 41  1  0
 18 42  1  0
 22 43  1  0
 23 44  1  0
 24 45  1  0
 25 46  1  0
 29 47  1  0
 30 48  1  0
M  END
>  <smiles>  (1) 
NS(=O)(=O)c1ccc(Cn2c(/C=C/c3ccccn3)nc3ccccc3c2=O)cc1

>  <score_type>  (1) 
oracle

>  <origin>  (1) 
autodockgpu

>  <m_score__min__energy>  (1) 
-8.8399999999999999

>  <m_primary>  (1) 
energy

>  <rmsd>  (1) 
9.463777174872384

>  <m_score__min__rmsd>  (1) 
9.463777174872384

>  <meeko>  (1) 
{"free_energy": -8.56, "intermolecular_energy": -10.65, "internal_energy": -1.19, "cluster_size": 18, "cluster_id": 1, "rank_in_cluster": 10}

>  <energy>  (1) 
-8.84

>  <cluster_rmsd>  (1) 
0.0

>  <cluster>  (1) 
1

$$$$

     RDKit          3D

 48 51  0  0  0  0  0  0  0  0999 V2000
  144.5410   73.5540  218.6500 N   0  0  0  0  0  0  0  0  0  0  0  0
  144.0560   74.0230  220.2110 S   0  0  0  0  0  0  0  0  0  0  0  0
  145.1730   73.7790  221.1710 O   0  0  0  0  0  0  0  0  0  0  0  0
  143.7390   75.5100  220.1460 O   0  0  0  0  0  0  0  0  0  0  0  0
  142.6120   73.2360  220.7810 C   0  0  0  0  0  0  0  0  0  0  0  0
  142.4990   71.8850  220.8010 C   0  0  0  0  0  0  0  0  0  0  0  0
  141.3510   71.2550  221.2550 C   0  0  0  0  0  0  0  0  0  0  0  0
  140.2480   71.9860  221.7160 C   0  0  0  0  0  0  0  0  0  0  0  0
  139.0330   71.2760  222.1920 C   0  0  0  0  0  0  0  0  0  0  0  0
  139.2210   70.5290  223.4030 N   0  0  0  0  0  0  0  0  0  0  0  0
  138.7770   69.2750  223.6030 C   0  0  0  0  0  0  0  0  0  0  0  0
  137.9800   68.5910  222.5600 C   0  0  0  0  0  0  0  0  0  0  0  0
  136.6610   68.7400  222.5060 C   0  0  0  0  0  0  0  0  0  0  0  0
  135.8510   69.2560  223.5810 C   0  0  0  0  0  0  0  0  0  0  0  0
  135.8290   70.5720  223.9770 C   0  0  0  0  0  0  0  0  0  0  0  0
  135.0300   71.0260  225.0210 C   0  0  0  0  0  0  0  0  0  0  0  0
  134.2300   70.1300  225.6840 C   0  0  0  0  0  0  0  0  0  0  0  0
  134.2660   68.8020  225.2710 C   0  0  0  0  0  0  0  0  0  0  0  0
  135.0470   68.4100  224.2650 N   0  0  0  0  0  0  0  0  0  0  0  0
  138.9960   68.5920  224.7510 N   0  0  0  0  0  0  0  0  0  0  0  0
  139.6710   69.1220  225.7700 C   0  0  0  0  0  0  0  0  0  0  0  0
  139.8720   68.3890  226.9280 C   0  0  0  0  0  0  0  0  0  0  0  0
  140.5800   68.9660  227.9740 C   0  0  0  0  0  0  0  0  0  0  0  0
  141.0640   70.2620  227.8270 C   0  0  0  0  0  0  0  0  0  0  0  0
  140.8520   70.9760  226.6630 C   0  0  0  0  0  0  0  0  0  0  0  0
  140.1480   70.4070  225.6160 C   0  0  0  0  0  0  0  0  0  0  0  0
  139.9160   71.0960  224.4330 C   0  0  0  0  0  0  0  0  0  0  0  0
  140.3810   72.2570  224.3740 O   0  0  0  0  0  0  0  0  0  0  0  0
  140.3850   73.3510  221.6870 C   0  0  0  0  0  0  0  0  0  0  0  0
  141.5440   73.9850  221.2280 C   0  0  0  0  0  0  0  0  0  0  0  0
  145.2250   74.1530  218.1780 H   0  0  0  0  0  0  0  0  0  0  0  0
  144.5810   72.5450  218.4670 H   0  0  0  0  0  0  0  0  0  0  0  0
  143.3413   71.2723  220.4473 H   0  0  0  0  0  0  0  0  0  0  0  0
  141.3047   70.1560  221.2534 H   0  0  0  0  0  0  0  0  0  0  0  0
  138.2442   72.0225  222.3668 H   0  0  0  0  0  0  0  0  0  0  0  0
  138.7678   70.5480  221.4112 H   0  0  0  0  0  0  0  0  0  0  0  0
  138.4857   67.9520  221.8211 H   0  0  0  0  0  0  0  0  0  0  0  0
  136.1512   68.4492  221.5757 H   0  0  0  0  0  0  0  0  0  0  0  0
  136.4681   71.2941  223.4477 H   0  0  0  0  0  0  0  0  0  0  0  0
  135.0393   72.0871  225.3107 H   0  0  0  0  0  0  0  0  0  0  0  0
  133.5825   70.4506  226.5135 H   0  0  0  0  0  0  0  0  0  0  0  0
  133.6370   68.0605  225.7853 H   0  0  0  0  0  0  0  0  0  0  0  0
  139.4771   67.3662  227.0176 H   0  0  0  0  0  0  0  0  0  0  0  0
  140.7555   68.4068  228.9048 H   0  0  0  0  0  0  0  0  0  0  0  0
  141.6250   70.7263  228.6514 H   0  0  0  0  0  0  0  0  0  0  0  0
  141.2439   71.9995  226.5683 H   0  0  0  0  0  0  0  0  0  0  0  0
  139.5485   73.9724  222.0394 H   0  0  0  0  0  0  0  0  0  0  0  0
  141.6038   75.0834  221.2235 H   0  0  0  0  0  0  0  0  0  0  0  0
  1  2  1  0
  2  3  2  0
  2  4  2  0
  2  5  1  0
  5  6  2  0
  6  7  1  0
  7  8  2  0
  8  9  1  0
  9 10  1  0
 10 11  1  0
 11 12  1  0
 12 13  2  0
 13 14  1  0
 14 15  2  0
 15 16  1  0
 16 17  2  0
 17 18  1  0
 18 19  2  0
 11 20  2  0
 20 21  1  0
 21 22  2  0
 22 23  1  0
 23 24  2  0
 24 25  1  0
 25 26  2  0
 26 27  1  0
 27 28  2  0
  8 29  1  0
 29 30  2  0
 30  5  1  0
 27 10  1  0
 19 14  1  0
 26 21  1  0
  1 31  1  0
  1 32  1  0
  6 33  1  0
  7 34  1  0
  9 35  1  0
  9 36  1  0
 12 37  1  0
 13 38  1  0
 15 39  1  0
 16 40  1  0
 17 41  1  0
 18 42  1  0
 22 43  1  0
 23 44  1  0
 24 45  1  0
 25 46  1  0
 29 47  1  0
 30 48  1  0
M  END
>  <smiles>  (2) 
NS(=O)(=O)c1ccc(Cn2c(/C=C/c3ccccn3)nc3ccccc3c2=O)cc1

>  <score_type>  (2) 
oracle

>  <origin>  (2) 
autodockgpu

>  <m_score__min__energy>  (2) 
-8.8399999999999999

>  <m_primary>  (2) 
energy

>  <rmsd>  (2) 
9.808279354993903

>  <m_score__min__rmsd>  (2) 
9.808279354993903

>  <meeko>  (2) 
{"free_energy": -7.73, "intermolecular_energy": -9.82, "internal_energy": -1.44, "cluster_size": 13, "cluster_id": 2, "rank_in_cluster": 11}

>  <energy>  (2) 
-8.82

>  <cluster_rmsd>  (2) 
0.5

>  <cluster>  (2) 
1

$$$$

     RDKit          3D

 48 51  0  0  0  0  0  0  0  0999 V2000
  139.2260   67.2930  226.4130 N   0  0  0  0  0  0  0  0  0  0  0  0
  139.8750   68.8370  226.7010 S   0  0  0  0  0  0  0  0  0  0  0  0
  139.2150   69.4360  227.8990 O   0  0  0  0  0  0  0  0  0  0  0  0
  141.3620   68.6500  226.9620 O   0  0  0  0  0  0  0  0  0  0  0  0
  139.7450   69.9320  225.3540 C   0  0  0  0  0  0  0  0  0  0  0  0
  140.5870   70.9850  225.2100 C   0  0  0  0  0  0  0  0  0  0  0  0
  140.4870   71.8590  224.1380 C   0  0  0  0  0  0  0  0  0  0  0  0
  139.5070   71.6960  223.1510 C   0  0  0  0  0  0  0  0  0  0  0  0
  139.4280   72.6550  222.0180 C   0  0  0  0  0  0  0  0  0  0  0  0
  140.6960   73.1800  221.5980 N   0  0  0  0  0  0  0  0  0  0  0  0
  141.0080   74.4890  221.5690 C   0  0  0  0  0  0  0  0  0  0  0  0
  139.9940   75.5060  221.9250 C   0  0  0  0  0  0  0  0  0  0  0  0
  140.3060   76.5300  222.7120 C   0  0  0  0  0  0  0  0  0  0  0  0
  140.9040   77.7590  222.2570 C   0  0  0  0  0  0  0  0  0  0  0  0
  141.1490   78.8500  223.0570 C   0  0  0  0  0  0  0  0  0  0  0  0
  141.7300   80.0170  222.5740 C   0  0  0  0  0  0  0  0  0  0  0  0
  142.0760   80.0880  221.2480 C   0  0  0  0  0  0  0  0  0  0  0  0
  141.8210   78.9760  220.4520 C   0  0  0  0  0  0  0  0  0  0  0  0
  141.2610   77.8760  220.9570 N   0  0  0  0  0  0  0  0  0  0  0  0
  142.2250   74.9450  221.1900 N   0  0  0  0  0  0  0  0  0  0  0  0
  143.2040   74.1210  220.8170 C   0  0  0  0  0  0  0  0  0  0  0  0
  144.4340   74.6310  220.4370 C   0  0  0  0  0  0  0  0  0  0  0  0
  145.4360   73.7490  220.0520 C   0  0  0  0  0  0  0  0  0  0  0  0
  145.1730   72.3830  220.0610 C   0  0  0  0  0  0  0  0  0  0  0  0
  143.9370   71.8970  220.4440 C   0  0  0  0  0  0  0  0  0  0  0  0
  142.9340   72.7690  220.8280 C   0  0  0  0  0  0  0  0  0  0  0  0
  141.6810   72.3150  221.2190 C   0  0  0  0  0  0  0  0  0  0  0  0
  141.5180   71.0730  221.2010 O   0  0  0  0  0  0  0  0  0  0  0  0
  138.6660   70.6250  223.3170 C   0  0  0  0  0  0  0  0  0  0  0  0
  138.7690   69.7450  224.3990 C   0  0  0  0  0  0  0  0  0  0  0  0
  139.3150   66.9220  225.4610 H   0  0  0  0  0  0  0  0  0  0  0  0
  139.2680   66.6260  227.1910 H   0  0  0  0  0  0  0  0  0  0  0  0
  141.3707   71.1505  225.9640 H   0  0  0  0  0  0  0  0  0  0  0  0
  141.1931   72.6989  224.0612 H   0  0  0  0  0  0  0  0  0  0  0  0
  138.9682   72.1395  221.1620 H   0  0  0  0  0  0  0  0  0  0  0  0
  138.8344   73.5111  222.3713 H   0  0  0  0  0  0  0  0  0  0  0  0
  138.9702   75.4132  221.5336 H   0  0  0  0  0  0  0  0  0  0  0  0
  140.0926   76.4324  223.7867 H   0  0  0  0  0  0  0  0  0  0  0  0
  140.8746   78.7974  224.1209 H   0  0  0  0  0  0  0  0  0  0  0  0
  141.9096   80.8704  223.2445 H   0  0  0  0  0  0  0  0  0  0  0  0
  142.5392   80.9934  220.8288 H   0  0  0  0  0  0  0  0  0  0  0  0
  142.0865   79.0046  219.3849 H   0  0  0  0  0  0  0  0  0  0  0  0
  144.6147   75.7161  220.4399 H   0  0  0  0  0  0  0  0  0  0  0  0
  146.4229   74.1253  219.7446 H   0  0  0  0  0  0  0  0  0  0  0  0
  145.9615   71.6782  219.7584 H   0  0  0  0  0  0  0  0  0  0  0  0
  143.7502   70.8130  220.4435 H   0  0  0  0  0  0  0  0  0  0  0  0
  137.8787   70.4513  222.5687 H   0  0  0  0  0  0  0  0  0  0  0  0
  138.0690   68.9011  224.4881 H   0  0  0  0  0  0  0  0  0  0  0  0
  1  2  1  0
  2  3  2  0
  2  4  2  0
  2  5  1  0
  5  6  2  0
  6  7  1  0
  7  8  2  0
  8  9  1  0
  9 10  1  0
 10 11  1  0
 11 12  1  0
 12 13  2  0
 13 14  1  0
 14 15  2  0
 15 16  1  0
 16 17  2  0
 17 18  1  0
 18 19  2  0
 11 20  2  0
 20 21  1  0
 21 22  2  0
 22 23  1  0
 23 24  2  0
 24 25  1  0
 25 26  2  0
 26 27  1  0
 27 28  2  0
  8 29  1  0
 29 30  2  0
 30  5  1  0
 27 10  1  0
 19 14  1  0
 26 21  1  0
  1 31  1  0
  1 32  1  0
  6 33  1  0
  7 34  1  0
  9 35  1  0
  9 36  1  0
 12 37  1  0
 13 38  1  0
 15 39  1  0
 16 40  1  0
 17 41  1  0
 18 42  1  0
 22 43  1  0
 23 44  1  0
 24 45  1  0
 25 46  1  0
 29 47  1  0
 30 48  1  0
M  END
>  <smiles>  (3) 
NS(=O)(=O)c1ccc(Cn2c(/C=C/c3ccccn3)nc3ccccc3c2=O)cc1

>  <score_type>  (3) 
oracle

>  <origin>  (3) 
autodockgpu

>  <m_score__min__energy>  (3) 
-8.8399999999999999

>  <m_primary>  (3) 
energy

>  <rmsd>  (3) 
9.263182760195333

>  <m_score__min__rmsd>  (3) 
9.263182760195333

>  <meeko>  (3) 
{"free_energy": -8.41, "intermolecular_energy": -10.5, "internal_energy": -1.27, "cluster_size": 18, "cluster_id": 1, "rank_in_cluster": 16}

>  <energy>  (3) 
-8.8

>  <cluster_rmsd>  (3) 
0.63

>  <cluster>  (3) 
1

$$$$

     RDKit          3D

 48 51  0  0  0  0  0  0  0  0999 V2000
  133.4750   73.6360  226.8810 N   0  0  0  0  0  0  0  0  0  0  0  0
  133.3630   75.2600  226.3920 S   0  0  0  0  0  0  0  0  0  0  0  0
  131.9550   75.5640  226.0000 O   0  0  0  0  0  0  0  0  0  0  0  0
  133.7670   76.1100  227.5880 O   0  0  0  0  0  0  0  0  0  0  0  0
  134.4380   75.6940  225.0940 C   0  0  0  0  0  0  0  0  0  0  0  0
  134.4210   76.9320  224.5400 C   0  0  0  0  0  0  0  0  0  0  0  0
  135.2770   77.2810  223.5060 C   0  0  0  0  0  0  0  0  0  0  0  0
  136.2020   76.3690  222.9820 C   0  0  0  0  0  0  0  0  0  0  0  0
  137.1000   76.7780  221.8720 C   0  0  0  0  0  0  0  0  0  0  0  0
  138.3930   77.2360  222.2950 N   0  0  0  0  0  0  0  0  0  0  0  0
  139.4970   76.4680  222.3400 C   0  0  0  0  0  0  0  0  0  0  0  0
  139.4200   75.0300  221.9990 C   0  0  0  0  0  0  0  0  0  0  0  0
  140.1580   74.5240  221.0180 C   0  0  0  0  0  0  0  0  0  0  0  0
  141.3770   75.1110  220.5240 C   0  0  0  0  0  0  0  0  0  0  0  0
  142.6090   74.5020  220.5660 C   0  0  0  0  0  0  0  0  0  0  0  0
  143.7610   75.1090  220.0760 C   0  0  0  0  0  0  0  0  0  0  0  0
  143.6710   76.3630  219.5280 C   0  0  0  0  0  0  0  0  0  0  0  0
  142.4160   76.9650  219.4940 C   0  0  0  0  0  0  0  0  0  0  0  0
  141.3380   76.3480  219.9750 N   0  0  0  0  0  0  0  0  0  0  0  0
  140.7060   76.9420  222.7210 N   0  0  0  0  0  0  0  0  0  0  0  0
  140.8850   78.2120  223.0810 C   0  0  0  0  0  0  0  0  0  0  0  0
  142.1400   78.6560  223.4650 C   0  0  0  0  0  0  0  0  0  0  0  0
  142.2980   79.9850  223.8360 C   0  0  0  0  0  0  0  0  0  0  0  0
  141.1920   80.8280  223.8110 C   0  0  0  0  0  0  0  0  0  0  0  0
  139.9490   80.3640  223.4250 C   0  0  0  0  0  0  0  0  0  0  0  0
  139.7850   79.0410  223.0540 C   0  0  0  0  0  0  0  0  0  0  0  0
  138.5500   78.5420  222.6600 C   0  0  0  0  0  0  0  0  0  0  0  0
  137.6010   79.3600  222.6640 O   0  0  0  0  0  0  0  0  0  0  0  0
  136.2010   75.1230  223.5580 C   0  0  0  0  0  0  0  0  0  0  0  0
  135.3380   74.7730  224.6000 C   0  0  0  0  0  0  0  0  0  0  0  0
  134.2190   73.0730  226.4560 H   0  0  0  0  0  0  0  0  0  0  0  0
  133.2170   73.4310  227.8520 H   0  0  0  0  0  0  0  0  0  0  0  0
  133.7093   77.6792  224.9210 H   0  0  0  0  0  0  0  0  0  0  0  0
  135.2283   78.2973  223.0879 H   0  0  0  0  0  0  0  0  0  0  0  0
  137.2416   75.9131  221.2072 H   0  0  0  0  0  0  0  0  0  0  0  0
  136.6137   77.6280  221.3710 H   0  0  0  0  0  0  0  0  0  0  0  0
  138.7435   74.3726  222.5648 H   0  0  0  0  0  0  0  0  0  0  0  0
  139.8140   73.5902  220.5493 H   0  0  0  0  0  0  0  0  0  0  0  0
  142.6868   73.4959  221.0039 H   0  0  0  0  0  0  0  0  0  0  0  0
  144.7299   74.5907  220.1274 H   0  0  0  0  0  0  0  0  0  0  0  0
  144.5591   76.8752  219.1293 H   0  0  0  0  0  0  0  0  0  0  0  0
  142.3126   77.9709  219.0610 H   0  0  0  0  0  0  0  0  0  0  0  0
  142.9974   77.9670  223.4758 H   0  0  0  0  0  0  0  0  0  0  0  0
  143.2829   80.3651  224.1449 H   0  0  0  0  0  0  0  0  0  0  0  0
  141.3088   81.8820  224.1035 H   0  0  0  0  0  0  0  0  0  0  0  0
  139.0877   81.0480  223.4126 H   0  0  0  0  0  0  0  0  0  0  0  0
  136.9089   74.3687  223.1839 H   0  0  0  0  0  0  0  0  0  0  0  0
  135.3766   73.7602  225.0274 H   0  0  0  0  0  0  0  0  0  0  0  0
  1  2  1  0
  2  3  2  0
  2  4  2  0
  2  5  1  0
  5  6  2  0
  6  7  1  0
  7  8  2  0
  8  9  1  0
  9 10  1  0
 10 11  1  0
 11 12  1  0
 12 13  2  0
 13 14  1  0
 14 15  2  0
 15 16  1  0
 16 17  2  0
 17 18  1  0
 18 19  2  0
 11 20  2  0
 20 21  1  0
 21 22  2  0
 22 23  1  0
 23 24  2  0
 24 25  1  0
 25 26  2  0
 26 27  1  0
 27 28  2  0
  8 29  1  0
 29 30  2  0
 30  5  1  0
 27 10  1  0
 19 14  1  0
 26 21  1  0
  1 31  1  0
  1 32  1  0
  6 33  1  0
  7 34  1  0
  9 35  1  0
  9 36  1  0
 12 37  1  0
 13 38  1  0
 15 39  1  0
 16 40  1  0
 17 41  1  0
 18 42  1  0
 22 43  1  0
 23 44  1  0
 24 45  1  0
 25 46  1  0
 29 47  1  0
 30 48  1  0
M  END
>  <smiles>  (4) 
NS(=O)(=O)c1ccc(Cn2c(/C=C/c3ccccn3)nc3ccccc3c2=O)cc1

>  <score_type>  (4) 
oracle

>  <origin>  (4) 
autodockgpu

>  <m_score__min__energy>  (4) 
-8.8399999999999999

>  <m_primary>  (4) 
energy

>  <rmsd>  (4) 
7.291161418724377

>  <m_score__min__rmsd>  (4) 
7.291161418724377

>  <meeko>  (4) 
{"free_energy": -7.43, "intermolecular_energy": -9.52, "internal_energy": -1.52, "cluster_size": 1, "cluster_id": 8, "rank_in_cluster": 1}

>  <energy>  (4) 
-8.74

>  <cluster_rmsd>  (4) 
0.61

>  <cluster>  (4) 
1

$$$$

     RDKit          3D

 48 51  0  0  0  0  0  0  0  0999 V2000
  145.4900   71.6250  220.0760 N   0  0  0  0  0  0  0  0  0  0  0  0
  145.6400   73.2490  219.5970 S   0  0  0  0  0  0  0  0  0  0  0  0
  146.6520   73.9280  220.4590 O   0  0  0  0  0  0  0  0  0  0  0  0
  146.1090   73.2410  218.1490 O   0  0  0  0  0  0  0  0  0  0  0  0
  144.1500   74.1470  219.6270 C   0  0  0  0  0  0  0  0  0  0  0  0
  143.7090   74.8320  218.5430 C   0  0  0  0  0  0  0  0  0  0  0  0
  142.5220   75.5470  218.5630 C   0  0  0  0  0  0  0  0  0  0  0  0
  141.7180   75.5980  219.7090 C   0  0  0  0  0  0  0  0  0  0  0  0
  140.4540   76.3790  219.6950 C   0  0  0  0  0  0  0  0  0  0  0  0
  140.3500   77.3570  220.7390 N   0  0  0  0  0  0  0  0  0  0  0  0
  139.3890   77.3690  221.6810 C   0  0  0  0  0  0  0  0  0  0  0  0
  138.3020   76.3650  221.6500 C   0  0  0  0  0  0  0  0  0  0  0  0
  138.4040   75.2330  222.3380 C   0  0  0  0  0  0  0  0  0  0  0  0
  139.0970   74.0560  221.8780 C   0  0  0  0  0  0  0  0  0  0  0  0
  138.9270   73.4850  220.6390 C   0  0  0  0  0  0  0  0  0  0  0  0
  139.6190   72.3470  220.2380 C   0  0  0  0  0  0  0  0  0  0  0  0
  140.5070   71.7670  221.1090 C   0  0  0  0  0  0  0  0  0  0  0  0
  140.6660   72.3580  222.3590 C   0  0  0  0  0  0  0  0  0  0  0  0
  139.9820   73.4490  222.7020 N   0  0  0  0  0  0  0  0  0  0  0  0
  139.3390   78.2950  222.6670 N   0  0  0  0  0  0  0  0  0  0  0  0
  140.2450   79.2650  222.7720 C   0  0  0  0  0  0  0  0  0  0  0  0
  140.1560   80.1920  223.7970 C   0  0  0  0  0  0  0  0  0  0  0  0
  141.1150   81.1940  223.8820 C   0  0  0  0  0  0  0  0  0  0  0  0
  142.1340   81.2340  222.9360 C   0  0  0  0  0  0  0  0  0  0  0  0
  142.2040   80.2980  221.9210 C   0  0  0  0  0  0  0  0  0  0  0  0
  141.2520   79.2980  221.8310 C   0  0  0  0  0  0  0  0  0  0  0  0
  141.2920   78.3420  220.8240 C   0  0  0  0  0  0  0  0  0  0  0  0
  142.2370   78.4420  220.0090 O   0  0  0  0  0  0  0  0  0  0  0  0
  142.1830   74.8980  220.7940 C   0  0  0  0  0  0  0  0  0  0  0  0
  143.3810   74.1770  220.7710 C   0  0  0  0  0  0  0  0  0  0  0  0
  146.3470   71.0630  220.0870 H   0  0  0  0  0  0  0  0  0  0  0  0
  144.7750   71.4190  220.7820 H   0  0  0  0  0  0  0  0  0  0  0  0
  144.3103   74.8198  217.6220 H   0  0  0  0  0  0  0  0  0  0  0  0
  142.2040   76.0866  217.6587 H   0  0  0  0  0  0  0  0  0  0  0  0
  140.3815   76.8988  218.7283 H   0  0  0  0  0  0  0  0  0  0  0  0
  139.6384   75.6590  219.8571 H   0  0  0  0  0  0  0  0  0  0  0  0
  137.3999   76.5581  221.0509 H   0  0  0  0  0  0  0  0  0  0  0  0
  137.9261   75.1912  223.3279 H   0  0  0  0  0  0  0  0  0  0  0  0
  138.2161   73.9460  219.9375 H   0  0  0  0  0  0  0  0  0  0  0  0
  139.4570   71.9184  219.2380 H   0  0  0  0  0  0  0  0  0  0  0  0
  141.0733   70.8665  220.8289 H   0  0  0  0  0  0  0  0  0  0  0  0
  141.3707   71.9155  223.0785 H   0  0  0  0  0  0  0  0  0  0  0  0
  139.3394   80.1360  224.5319 H   0  0  0  0  0  0  0  0  0  0  0  0
  141.0690   81.9442  224.6852 H   0  0  0  0  0  0  0  0  0  0  0  0
  142.8972   82.0239  222.9966 H   0  0  0  0  0  0  0  0  0  0  0  0
  143.0184   80.3484  221.1833 H   0  0  0  0  0  0  0  0  0  0  0  0
  141.5890   74.9043  221.7198 H   0  0  0  0  0  0  0  0  0  0  0  0
  143.7107   73.6323  221.6680 H   0  0  0  0  0  0  0  0  0  0  0  0
  1  2  1  0
  2  3  2  0
  2  4  2  0
  2  5  1  0
  5  6  2  0
  6  7  1  0
  7  8  2  0
  8  9  1  0
  9 10  1  0
 10 11  1  0
 11 12  1  0
 12 13  2  0
 13 14  1  0
 14 15  2  0
 15 16  1  0
 16 17  2  0
 17 18  1  0
 18 19  2  0
 11 20  2  0
 20 21  1  0
 21 22  2  0
 22 23  1  0
 23 24  2  0
 24 25  1  0
 25 26  2  0
 26 27  1  0
 27 28  2  0
  8 29  1  0
 29 30  2  0
 30  5  1  0
 27 10  1  0
 19 14  1  0
 26 21  1  0
  1 31  1  0
  1 32  1  0
  6 33  1  0
  7 34  1  0
  9 35  1  0
  9 36  1  0
 12 37  1  0
 13 38  1  0
 15 39  1  0
 16 40  1  0
 17 41  1  0
 18 42  1  0
 22 43  1  0
 23 44  1  0
 24 45  1  0
 25 46  1  0
 29 47  1  0
 30 48  1  0
M  END
>  <smiles>  (5) 
NS(=O)(=O)c1ccc(Cn2c(/C=C/c3ccccn3)nc3ccccc3c2=O)cc1

>  <score_type>  (5) 
oracle

>  <origin>  (5) 
autodockgpu

>  <m_score__min__energy>  (5) 
-8.8399999999999999

>  <m_primary>  (5) 
energy

>  <rmsd>  (5) 
7.060186089155317

>  <m_score__min__rmsd>  (5) 
7.060186089155317

>  <meeko>  (5) 
{"free_energy": -7.39, "intermolecular_energy": -9.48, "internal_energy": -1.98, "cluster_size": 5, "cluster_id": 9, "rank_in_cluster": 1}

>  <energy>  (5) 
-8.64

>  <cluster_rmsd>  (5) 
0.5

>  <cluster>  (5) 
1

$$$$

     RDKit          3D

 48 51  0  0  0  0  0  0  0  0999 V2000
  142.5350   79.0700  222.2280 N   0  0  0  0  0  0  0  0  0  0  0  0
  140.9370   78.7970  222.7390 S   0  0  0  0  0  0  0  0  0  0  0  0
  140.8450   79.0130  224.2140 O   0  0  0  0  0  0  0  0  0  0  0  0
  140.0620   79.8040  222.0080 O   0  0  0  0  0  0  0  0  0  0  0  0
  140.3150   77.2220  222.3390 C   0  0  0  0  0  0  0  0  0  0  0  0
  139.0610   76.8420  222.6880 C   0  0  0  0  0  0  0  0  0  0  0  0
  138.5620   75.5880  222.3700 C   0  0  0  0  0  0  0  0  0  0  0  0
  139.3320   74.6500  221.6720 C   0  0  0  0  0  0  0  0  0  0  0  0
  138.7650   73.3140  221.3510 C   0  0  0  0  0  0  0  0  0  0  0  0
  138.7380   72.4020  222.4580 N   0  0  0  0  0  0  0  0  0  0  0  0
  137.6330   71.7740  222.9030 C   0  0  0  0  0  0  0  0  0  0  0  0
  136.3180   72.0520  222.2860 C   0  0  0  0  0  0  0  0  0  0  0  0
  135.7490   73.2470  222.4080 C   0  0  0  0  0  0  0  0  0  0  0  0
  135.2910   73.8120  223.6510 C   0  0  0  0  0  0  0  0  0  0  0  0
  135.5140   75.1090  224.0480 C   0  0  0  0  0  0  0  0  0  0  0  0
  135.0520   75.6120  225.2590 C   0  0  0  0  0  0  0  0  0  0  0  0
  134.3440   74.7860  226.0950 C   0  0  0  0  0  0  0  0  0  0  0  0
  134.1270   73.4760  225.6790 C   0  0  0  0  0  0  0  0  0  0  0  0
  134.5890   73.0360  224.5090 N   0  0  0  0  0  0  0  0  0  0  0  0
  137.6520   70.9000  223.9360 N   0  0  0  0  0  0  0  0  0  0  0  0
  138.7750   70.6000  224.5880 C   0  0  0  0  0  0  0  0  0  0  0  0
  138.7490   69.7000  225.6400 C   0  0  0  0  0  0  0  0  0  0  0  0
  139.9340   69.4060  226.3020 C   0  0  0  0  0  0  0  0  0  0  0  0
  141.1090   70.0250  225.8880 C   0  0  0  0  0  0  0  0  0  0  0  0
  141.1120   70.9210  224.8360 C   0  0  0  0  0  0  0  0  0  0  0  0
  139.9350   71.2180  224.1720 C   0  0  0  0  0  0  0  0  0  0  0  0
  139.9020   72.1130  223.1100 C   0  0  0  0  0  0  0  0  0  0  0  0
  140.9980   72.6310  222.7950 O   0  0  0  0  0  0  0  0  0  0  0  0
  140.5970   75.0560  221.3280 C   0  0  0  0  0  0  0  0  0  0  0  0
  141.0990   76.3210  221.6500 C   0  0  0  0  0  0  0  0  0  0  0  0
  143.2660   78.5010  222.6680 H   0  0  0  0  0  0  0  0  0  0  0  0
  142.6630   79.3360  221.2460 H   0  0  0  0  0  0  0  0  0  0  0  0
  138.4220   77.5480  223.2386 H   0  0  0  0  0  0  0  0  0  0  0  0
  137.5380   75.3242  222.6730 H   0  0  0  0  0  0  0  0  0  0  0  0
  137.7337   73.4541  220.9950 H   0  0  0  0  0  0  0  0  0  0  0  0
  139.4230   72.8672  220.5911 H   0  0  0  0  0  0  0  0  0  0  0  0
  135.8050   71.2608  221.7196 H   0  0  0  0  0  0  0  0  0  0  0  0
  135.6187   73.8467  221.4951 H   0  0  0  0  0  0  0  0  0  0  0  0
  136.0805   75.7755  223.3810 H   0  0  0  0  0  0  0  0  0  0  0  0
  135.2510   76.6560  225.5425 H   0  0  0  0  0  0  0  0  0  0  0  0
  133.9610   75.1470  227.0609 H   0  0  0  0  0  0  0  0  0  0  0  0
  133.5632   72.7903  226.3285 H   0  0  0  0  0  0  0  0  0  0  0  0
  137.8051   69.2256  225.9464 H   0  0  0  0  0  0  0  0  0  0  0  0
  139.9433   68.6945  227.1409 H   0  0  0  0  0  0  0  0  0  0  0  0
  142.0518   69.7973  226.4069 H   0  0  0  0  0  0  0  0  0  0  0  0
  142.0526   71.3994  224.5256 H   0  0  0  0  0  0  0  0  0  0  0  0
  141.2430   74.3574  220.7761 H   0  0  0  0  0  0  0  0  0  0  0  0
  142.1214   76.5977  221.3530 H   0  0  0  0  0  0  0  0  0  0  0  0
  1  2  1  0
  2  3  2  0
  2  4  2  0
  2  5  1  0
  5  6  2  0
  6  7  1  0
  7  8  2  0
  8  9  1  0
  9 10  1  0
 10 11  1  0
 11 12  1  0
 12 13  2  0
 13 14  1  0
 14 15  2  0
 15 16  1  0
 16 17  2  0
 17 18  1  0
 18 19  2  0
 11 20  2  0
 20 21  1  0
 21 22  2  0
 22 23  1  0
 23 24  2  0
 24 25  1  0
 25 26  2  0
 26 27  1  0
 27 28  2  0
  8 29  1  0
 29 30  2  0
 30  5  1  0
 27 10  1  0
 19 14  1  0
 26 21  1  0
  1 31  1  0
  1 32  1  0
  6 33  1  0
  7 34  1  0
  9 35  1  0
  9 36  1  0
 12 37  1  0
 13 38  1  0
 15 39  1  0
 16 40  1  0
 17 41  1  0
 18 42  1  0
 22 43  1  0
 23 44  1  0
 24 45  1  0
 25 46  1  0
 29 47  1  0
 30 48  1  0
M  END
>  <smiles>  (6) 
NS(=O)(=O)c1ccc(Cn2c(/C=C/c3ccccn3)nc3ccccc3c2=O)cc1

>  <score_type>  (6) 
oracle

>  <origin>  (6) 
autodockgpu

>  <m_score__min__energy>  (6) 
-8.8399999999999999

>  <m_primary>  (6) 
energy

>  <rmsd>  (6) 
7.696274144435267

>  <m_score__min__rmsd>  (6) 
7.696274144435267

>  <meeko>  (6) 
{"free_energy": -7.45, "intermolecular_energy": -9.54, "internal_energy": -1.54, "cluster_size": 3, "cluster_id": 7, "rank_in_cluster": 2}

>  <energy>  (6) 
-8.63

>  <cluster_rmsd>  (6) 
0.57

>  <cluster>  (6) 
1

$$$$

     RDKit          3D

 48 51  0  0  0  0  0  0  0  0999 V2000
  144.7330   73.5700  218.6830 N   0  0  0  0  0  0  0  0  0  0  0  0
  144.3060   74.0970  220.2420 S   0  0  0  0  0  0  0  0  0  0  0  0
  145.4100   73.7730  221.1940 O   0  0  0  0  0  0  0  0  0  0  0  0
  144.1140   75.6050  220.1600 O   0  0  0  0  0  0  0  0  0  0  0  0
  142.8090   73.4410  220.8360 C   0  0  0  0  0  0  0  0  0  0  0  0
  141.7770   74.2410  221.2030 C   0  0  0  0  0  0  0  0  0  0  0  0
  140.5810   73.7210  221.6760 C   0  0  0  0  0  0  0  0  0  0  0  0
  140.3830   72.3400  221.8000 C   0  0  0  0  0  0  0  0  0  0  0  0
  139.0890   71.8200  222.3150 C   0  0  0  0  0  0  0  0  0  0  0  0
  139.2170   70.8420  223.3560 N   0  0  0  0  0  0  0  0  0  0  0  0
  138.6460   69.6230  223.3330 C   0  0  0  0  0  0  0  0  0  0  0  0
  137.7630   69.2350  222.2110 C   0  0  0  0  0  0  0  0  0  0  0  0
  136.4790   68.9660  222.4180 C   0  0  0  0  0  0  0  0  0  0  0  0
  135.7140   69.4420  223.5420 C   0  0  0  0  0  0  0  0  0  0  0  0
  135.4540   70.7670  223.8040 C   0  0  0  0  0  0  0  0  0  0  0  0
  134.7100   71.1820  224.9030 C   0  0  0  0  0  0  0  0  0  0  0  0
  134.2120   70.2360  225.7630 C   0  0  0  0  0  0  0  0  0  0  0  0
  134.4840   68.9000  225.4850 C   0  0  0  0  0  0  0  0  0  0  0  0
  135.2030   68.5470  224.4190 N   0  0  0  0  0  0  0  0  0  0  0  0
  138.8110   68.7160  224.3240 N   0  0  0  0  0  0  0  0  0  0  0  0
  139.5560   68.9710  225.3990 C   0  0  0  0  0  0  0  0  0  0  0  0
  139.6980   68.0140  226.3900 C   0  0  0  0  0  0  0  0  0  0  0  0
  140.4810   68.3070  227.4990 C   0  0  0  0  0  0  0  0  0  0  0  0
  141.0980   69.5500  227.5800 C   0  0  0  0  0  0  0  0  0  0  0  0
  140.9420   70.4910  226.5790 C   0  0  0  0  0  0  0  0  0  0  0  0
  140.1640   70.2060  225.4710 C   0  0  0  0  0  0  0  0  0  0  0  0
  139.9860   71.1280  224.4470 C   0  0  0  0  0  0  0  0  0  0  0  0
  140.5710   72.2260  224.5910 O   0  0  0  0  0  0  0  0  0  0  0  0
  141.4400   71.5510  221.4240 C   0  0  0  0  0  0  0  0  0  0  0  0
  142.6440   72.0770  220.9470 C   0  0  0  0  0  0  0  0  0  0  0  0
  144.0220   73.0490  218.1590 H   0  0  0  0  0  0  0  0  0  0  0  0
  145.3700   74.1740  218.1530 H   0  0  0  0  0  0  0  0  0  0  0  0
  141.8915   75.3321  221.1234 H   0  0  0  0  0  0  0  0  0  0  0  0
  139.7704   74.4083  221.9599 H   0  0  0  0  0  0  0  0  0  0  0  0
  138.5094   72.6680  222.7087 H   0  0  0  0  0  0  0  0  0  0  0  0
  138.5936   71.3178  221.4710 H   0  0  0  0  0  0  0  0  0  0  0  0
  138.1749   69.1685  221.1932 H   0  0  0  0  0  0  0  0  0  0  0  0
  135.9633   68.3352  221.6790 H   0  0  0  0  0  0  0  0  0  0  0  0
  135.8505   71.5288  223.1167 H   0  0  0  0  0  0  0  0  0  0  0  0
  134.5237   72.2516  225.0801 H   0  0  0  0  0  0  0  0  0  0  0  0
  133.6177   70.5240  226.6427 H   0  0  0  0  0  0  0  0  0  0  0  0
  134.0983   68.1198  226.1578 H   0  0  0  0  0  0  0  0  0  0  0  0
  139.1988   67.0379  226.3002 H   0  0  0  0  0  0  0  0  0  0  0  0
  140.6110   67.5662  228.3016 H   0  0  0  0  0  0  0  0  0  0  0  0
  141.7206   69.7889  228.4548 H   0  0  0  0  0  0  0  0  0  0  0  0
  141.4380   71.4692  226.6638 H   0  0  0  0  0  0  0  0  0  0  0  0
  141.3359   70.4587  221.5010 H   0  0  0  0  0  0  0  0  0  0  0  0
  143.4622   71.4004  220.6594 H   0  0  0  0  0  0  0  0  0  0  0  0
  1  2  1  0
  2  3  2  0
  2  4  2  0
  2  5  1  0
  5  6  2  0
  6  7  1  0
  7  8  2  0
  8  9  1  0
  9 10  1  0
 10 11  1  0
 11 12  1  0
 12 13  2  0
 13 14  1  0
 14 15  2  0
 15 16  1  0
 16 17  2  0
 17 18  1  0
 18 19  2  0
 11 20  2  0
 20 21  1  0
 21 22  2  0
 22 23  1  0
 23 24  2  0
 24 25  1  0
 25 26  2  0
 26 27  1  0
 27 28  2  0
  8 29  1  0
 29 30  2  0
 30  5  1  0
 27 10  1  0
 19 14  1  0
 26 21  1  0
  1 31  1  0
  1 32  1  0
  6 33  1  0
  7 34  1  0
  9 35  1  0
  9 36  1  0
 12 37  1  0
 13 38  1  0
 15 39  1  0
 16 40  1  0
 17 41  1  0
 18 42  1  0
 22 43  1  0
 23 44  1  0
 24 45  1  0
 25 46  1  0
 29 47  1  0
 30 48  1  0
M  END
>  <smiles>  (7) 
NS(=O)(=O)c1ccc(Cn2c(/C=C/c3ccccn3)nc3ccccc3c2=O)cc1

>  <score_type>  (7) 
oracle

>  <origin>  (7) 
autodockgpu

>  <m_score__min__energy>  (7) 
-8.8399999999999999

>  <m_primary>  (7) 
energy

>  <rmsd>  (7) 
9.618487384584412

>  <m_score__min__rmsd>  (7) 
9.618487384584412

>  <meeko>  (7) 
{"free_energy": -7.66, "intermolecular_energy": -9.75, "internal_energy": -1.53, "cluster_size": 13, "cluster_id": 2, "rank_in_cluster": 13}

>  <energy>  (7) 
-8.6

>  <cluster_rmsd>  (7) 
0.63

>  <cluster>  (7) 
1

$$$$

     RDKit          3D

 48 51  0  0  0  0  0  0  0  0999 V2000
  145.4880   72.2680  220.5330 N   0  0  0  0  0  0  0  0  0  0  0  0
  144.1820   73.2550  220.0760 S   0  0  0  0  0  0  0  0  0  0  0  0
  144.4830   74.6730  220.4350 O   0  0  0  0  0  0  0  0  0  0  0  0
  144.0320   73.1190  218.5680 O   0  0  0  0  0  0  0  0  0  0  0  0
  142.6540   72.7890  220.7670 C   0  0  0  0  0  0  0  0  0  0  0  0
  142.2820   71.4890  220.8580 C   0  0  0  0  0  0  0  0  0  0  0  0
  141.0660   71.1130  221.4090 C   0  0  0  0  0  0  0  0  0  0  0  0
  140.1600   72.0640  221.8980 C   0  0  0  0  0  0  0  0  0  0  0  0
  138.8650   71.6240  222.4790 C   0  0  0  0  0  0  0  0  0  0  0  0
  138.9860   70.6510  223.5260 N   0  0  0  0  0  0  0  0  0  0  0  0
  138.3830   69.4480  223.5230 C   0  0  0  0  0  0  0  0  0  0  0  0
  137.4720   69.0730  222.4190 C   0  0  0  0  0  0  0  0  0  0  0  0
  136.2190   68.7080  222.6660 C   0  0  0  0  0  0  0  0  0  0  0  0
  135.4680   69.0980  223.8320 C   0  0  0  0  0  0  0  0  0  0  0  0
  135.4480   70.3680  224.3580 C   0  0  0  0  0  0  0  0  0  0  0  0
  134.7070   70.7000  225.4870 C   0  0  0  0  0  0  0  0  0  0  0  0
  133.9640   69.7260  226.1040 C   0  0  0  0  0  0  0  0  0  0  0  0
  133.9950   68.4460  225.5590 C   0  0  0  0  0  0  0  0  0  0  0  0
  134.7200   68.1720  224.4750 N   0  0  0  0  0  0  0  0  0  0  0  0
  138.5420   68.5440  224.5190 N   0  0  0  0  0  0  0  0  0  0  0  0
  139.3110   68.7890  225.5780 C   0  0  0  0  0  0  0  0  0  0  0  0
  139.4460   67.8370  226.5750 C   0  0  0  0  0  0  0  0  0  0  0  0
  140.2540   68.1190  227.6690 C   0  0  0  0  0  0  0  0  0  0  0  0
  140.9030   69.3470  227.7290 C   0  0  0  0  0  0  0  0  0  0  0  0
  140.7550   70.2840  226.7230 C   0  0  0  0  0  0  0  0  0  0  0  0
  139.9510   70.0090  225.6300 C   0  0  0  0  0  0  0  0  0  0  0  0
  139.7800   70.9270  224.6020 C   0  0  0  0  0  0  0  0  0  0  0  0
  140.3950   72.0110  224.7260 O   0  0  0  0  0  0  0  0  0  0  0  0
  140.5580   73.3730  221.7960 C   0  0  0  0  0  0  0  0  0  0  0  0
  141.7840   73.7490  221.2400 C   0  0  0  0  0  0  0  0  0  0  0  0
  145.7440   72.2680  221.5250 H   0  0  0  0  0  0  0  0  0  0  0  0
  145.6080   71.3950  220.0080 H   0  0  0  0  0  0  0  0  0  0  0  0
  142.9634   70.7104  220.4845 H   0  0  0  0  0  0  0  0  0  0  0  0
  140.8070   70.0453  221.4634 H   0  0  0  0  0  0  0  0  0  0  0  0
  138.3533   72.5077  222.8879 H   0  0  0  0  0  0  0  0  0  0  0  0
  138.3033   71.1418  221.6654 H   0  0  0  0  0  0  0  0  0  0  0  0
  137.8367   69.0968  221.3815 H   0  0  0  0  0  0  0  0  0  0  0  0
  135.7196   68.0626  221.9284 H   0  0  0  0  0  0  0  0  0  0  0  0
  136.0417   71.1527  223.8663 H   0  0  0  0  0  0  0  0  0  0  0  0
  134.7166   71.7277  225.8791 H   0  0  0  0  0  0  0  0  0  0  0  0
  133.3643   69.9490  226.9988 H   0  0  0  0  0  0  0  0  0  0  0  0
  133.4093   67.6443  226.0325 H   0  0  0  0  0  0  0  0  0  0  0  0
  138.9216   66.8728  226.5015 H   0  0  0  0  0  0  0  0  0  0  0  0
  140.3785   67.3818  228.4758 H   0  0  0  0  0  0  0  0  0  0  0  0
  141.5454   69.5772  228.5918 H   0  0  0  0  0  0  0  0  0  0  0  0
  141.2771   71.2498  226.7913 H   0  0  0  0  0  0  0  0  0  0  0  0
  139.8842   74.1593  222.1672 H   0  0  0  0  0  0  0  0  0  0  0  0
  142.0557   74.8132  221.1795 H   0  0  0  0  0  0  0  0  0  0  0  0
  1  2  1  0
  2  3  2  0
  2  4  2  0
  2  5  1  0
  5  6  2  0
  6  7  1  0
  7  8  2  0
  8  9  1  0
  9 10  1  0
 10 11  1  0
 11 12  1  0
 12 13  2  0
 13 14  1  0
 14 15  2  0
 15 16  1  0
 16 17  2  0
 17 18  1  0
 18 19  2  0
 11 20  2  0
 20 21  1  0
 21 22  2  0
 22 23  1  0
 23 24  2  0
 24 25  1  0
 25 26  2  0
 26 27  1  0
 27 28  2  0
  8 29  1  0
 29 30  2  0
 30  5  1  0
 27 10  1  0
 19 14  1  0
 26 21  1  0
  1 31  1  0
  1 32  1  0
  6 33  1  0
  7 34  1  0
  9 35  1  0
  9 36  1  0
 12 37  1  0
 13 38  1  0
 15 39  1  0
 16 40  1  0
 17 41  1  0
 18 42  1  0
 22 43  1  0
 23 44  1  0
 24 45  1  0
 25 46  1  0
 29 47  1  0
 30 48  1  0
M  END
>  <smiles>  (8) 
NS(=O)(=O)c1ccc(Cn2c(/C=C/c3ccccn3)nc3ccccc3c2=O)cc1

>  <score_type>  (8) 
oracle

>  <origin>  (8) 
autodockgpu

>  <m_score__min__energy>  (8) 
-8.8399999999999999

>  <m_primary>  (8) 
energy

>  <rmsd>  (8) 
10.047156300687018

>  <m_score__min__rmsd>  (8) 
10.047156300687018

>  <meeko>  (8) 
{"free_energy": -7.83, "intermolecular_energy": -9.92, "internal_energy": -1.52, "cluster_size": 13, "cluster_id": 2, "rank_in_cluster": 7}

>  <energy>  (8) 
-8.59

>  <cluster_rmsd>  (8) 
1.15

>  <cluster>  (8) 
1

$$$$

     RDKit          3D

 48 51  0  0  0  0  0  0  0  0999 V2000
  141.0190   68.1890  227.7110 N   0  0  0  0  0  0  0  0  0  0  0  0
  140.2940   69.7250  227.6600 S   0  0  0  0  0  0  0  0  0  0  0  0
  139.0380   69.7070  228.4670 O   0  0  0  0  0  0  0  0  0  0  0  0
  141.2890   70.7040  228.2650 O   0  0  0  0  0  0  0  0  0  0  0  0
  139.9490   70.3030  226.0550 C   0  0  0  0  0  0  0  0  0  0  0  0
  140.7030   71.2660  225.4680 C   0  0  0  0  0  0  0  0  0  0  0  0
  140.4320   71.7280  224.1890 C   0  0  0  0  0  0  0  0  0  0  0  0
  139.3620   71.2220  223.4400 C   0  0  0  0  0  0  0  0  0  0  0  0
  139.1010   71.7440  222.0730 C   0  0  0  0  0  0  0  0  0  0  0  0
  138.8110   73.1480  222.0220 N   0  0  0  0  0  0  0  0  0  0  0  0
  137.5720   73.6730  222.0320 C   0  0  0  0  0  0  0  0  0  0  0  0
  136.3870   72.7870  222.0330 C   0  0  0  0  0  0  0  0  0  0  0  0
  135.8580   72.3620  223.1750 C   0  0  0  0  0  0  0  0  0  0  0  0
  135.2720   73.2190  224.1740 C   0  0  0  0  0  0  0  0  0  0  0  0
  134.3890   72.7990  225.1410 C   0  0  0  0  0  0  0  0  0  0  0  0
  133.8470   73.6630  226.0870 C   0  0  0  0  0  0  0  0  0  0  0  0
  134.2060   74.9870  226.0600 C   0  0  0  0  0  0  0  0  0  0  0  0
  135.1010   75.3950  225.0750 C   0  0  0  0  0  0  0  0  0  0  0  0
  135.5950   74.5330  224.1880 N   0  0  0  0  0  0  0  0  0  0  0  0
  137.3390   75.0070  222.0080 N   0  0  0  0  0  0  0  0  0  0  0  0
  138.3300   75.8960  221.9720 C   0  0  0  0  0  0  0  0  0  0  0  0
  138.0470   77.2520  221.9480 C   0  0  0  0  0  0  0  0  0  0  0  0
  139.1000   78.1570  221.9100 C   0  0  0  0  0  0  0  0  0  0  0  0
  140.4040   77.6750  221.8980 C   0  0  0  0  0  0  0  0  0  0  0  0
  140.6640   76.3170  221.9220 C   0  0  0  0  0  0  0  0  0  0  0  0
  139.6200   75.4100  221.9590 C   0  0  0  0  0  0  0  0  0  0  0  0
  139.8450   74.0390  221.9850 C   0  0  0  0  0  0  0  0  0  0  0  0
  141.0450   73.6800  221.9700 O   0  0  0  0  0  0  0  0  0  0  0  0
  138.6140   70.2480  224.0530 C   0  0  0  0  0  0  0  0  0  0  0  0
  138.8890   69.7840  225.3430 C   0  0  0  0  0  0  0  0  0  0  0  0
  140.4070   67.3940  227.9240 H   0  0  0  0  0  0  0  0  0  0  0  0
  141.8020   68.0300  227.0670 H   0  0  0  0  0  0  0  0  0  0  0  0
  141.5526   71.6920  226.0218 H   0  0  0  0  0  0  0  0  0  0  0  0
  141.0717   72.5094  223.7528 H   0  0  0  0  0  0  0  0  0  0  0  0
  139.9914   71.5536  221.4558 H   0  0  0  0  0  0  0  0  0  0  0  0
  138.2050   71.2239  221.7033 H   0  0  0  0  0  0  0  0  0  0  0  0
  135.9391   72.4768  221.0774 H   0  0  0  0  0  0  0  0  0  0  0  0
  135.8681   71.2798  223.3718 H   0  0  0  0  0  0  0  0  0  0  0  0
  134.0999   71.7380  225.1675 H   0  0  0  0  0  0  0  0  0  0  0  0
  133.1418   73.2906  226.8447 H   0  0  0  0  0  0  0  0  0  0  0  0
  133.8005   75.7015  226.7915 H   0  0  0  0  0  0  0  0  0  0  0  0
  135.4064   76.4507  225.0283 H   0  0  0  0  0  0  0  0  0  0  0  0
  137.0056   77.6061  221.9589 H   0  0  0  0  0  0  0  0  0  0  0  0
  138.9050   79.2394  221.8897 H   0  0  0  0  0  0  0  0  0  0  0  0
  141.2430   78.3858  221.8689 H   0  0  0  0  0  0  0  0  0  0  0  0
  141.7034   75.9571  221.9116 H   0  0  0  0  0  0  0  0  0  0  0  0
  137.7631   69.8146  223.5069 H   0  0  0  0  0  0  0  0  0  0  0  0
  138.2576   69.0025  225.7909 H   0  0  0  0  0  0  0  0  0  0  0  0
  1  2  1  0
  2  3  2  0
  2  4  2  0
  2  5  1  0
  5  6  2  0
  6  7  1  0
  7  8  2  0
  8  9  1  0
  9 10  1  0
 10 11  1  0
 11 12  1  0
 12 13  2  0
 13 14  1  0
 14 15  2  0
 15 16  1  0
 16 17  2  0
 17 18  1  0
 18 19  2  0
 11 20  2  0
 20 21  1  0
 21 22  2  0
 22 23  1  0
 23 24  2  0
 24 25  1  0
 25 26  2  0
 26 27  1  0
 27 28  2  0
  8 29  1  0
 29 30  2  0
 30  5  1  0
 27 10  1  0
 19 14  1  0
 26 21  1  0
  1 31  1  0
  1 32  1  0
  6 33  1  0
  7 34  1  0
  9 35  1  0
  9 36  1  0
 12 37  1  0
 13 38  1  0
 15 39  1  0
 16 40  1  0
 17 41  1  0
 18 42  1  0
 22 43  1  0
 23 44  1  0
 24 45  1  0
 25 46  1  0
 29 47  1  0
 30 48  1  0
M  END
>  <smiles>  (9) 
NS(=O)(=O)c1ccc(Cn2c(/C=C/c3ccccn3)nc3ccccc3c2=O)cc1

>  <score_type>  (9) 
oracle

>  <origin>  (9) 
autodockgpu

>  <m_score__min__energy>  (9) 
-8.8399999999999999

>  <m_primary>  (9) 
energy

>  <rmsd>  (9) 
8.815223727272938

>  <m_score__min__rmsd>  (9) 
8.815223727272938

>  <meeko>  (9) 
{"free_energy": -7.65, "intermolecular_energy": -9.73, "internal_energy": -1.57, "cluster_size": 3, "cluster_id": 6, "rank_in_cluster": 3}

>  <energy>  (9) 
-8.58

>  <cluster_rmsd>  (9) 
0.98

>  <cluster>  (9) 
1

$$$$

     RDKit          3D

 48 51  0  0  0  0  0  0  0  0999 V2000
  146.3330   73.0150  221.1720 N   0  0  0  0  0  0  0  0  0  0  0  0
  145.4240   72.8910  219.7400 S   0  0  0  0  0  0  0  0  0  0  0  0
  146.3010   73.1950  218.5700 O   0  0  0  0  0  0  0  0  0  0  0  0
  144.9230   71.4570  219.6580 O   0  0  0  0  0  0  0  0  0  0  0  0
  144.0140   73.9100  219.6950 C   0  0  0  0  0  0  0  0  0  0  0  0
  143.6090   74.5140  218.5500 C   0  0  0  0  0  0  0  0  0  0  0  0
  142.4860   75.3260  218.5100 C   0  0  0  0  0  0  0  0  0  0  0  0
  141.7140   75.5630  219.6540 C   0  0  0  0  0  0  0  0  0  0  0  0
  140.5180   76.4410  219.5740 C   0  0  0  0  0  0  0  0  0  0  0  0
  140.4110   77.3940  220.6410 N   0  0  0  0  0  0  0  0  0  0  0  0
  139.4750   77.3570  221.6080 C   0  0  0  0  0  0  0  0  0  0  0  0
  138.4210   76.3190  221.5840 C   0  0  0  0  0  0  0  0  0  0  0  0
  138.5450   75.2090  222.3040 C   0  0  0  0  0  0  0  0  0  0  0  0
  139.2060   74.0110  221.8530 C   0  0  0  0  0  0  0  0  0  0  0  0
  139.0400   73.4500  220.6080 C   0  0  0  0  0  0  0  0  0  0  0  0
  139.7000   72.2900  220.2160 C   0  0  0  0  0  0  0  0  0  0  0  0
  140.5510   71.6780  221.1000 C   0  0  0  0  0  0  0  0  0  0  0  0
  140.7080   72.2590  222.3550 C   0  0  0  0  0  0  0  0  0  0  0  0
  140.0550   73.3710  222.6900 N   0  0  0  0  0  0  0  0  0  0  0  0
  139.4230   78.2610  222.6140 N   0  0  0  0  0  0  0  0  0  0  0  0
  140.3000   79.2580  222.7150 C   0  0  0  0  0  0  0  0  0  0  0  0
  140.2090   80.1610  223.7610 C   0  0  0  0  0  0  0  0  0  0  0  0
  141.1380   81.1910  223.8410 C   0  0  0  0  0  0  0  0  0  0  0  0
  142.1290   81.2830  222.8700 C   0  0  0  0  0  0  0  0  0  0  0  0
  142.2010   80.3700  221.8340 C   0  0  0  0  0  0  0  0  0  0  0  0
  141.2800   79.3420  221.7480 C   0  0  0  0  0  0  0  0  0  0  0  0
  141.3230   78.4070  220.7210 C   0  0  0  0  0  0  0  0  0  0  0  0
  142.2430   78.5550  219.8840 O   0  0  0  0  0  0  0  0  0  0  0  0
  142.1420   74.9410  220.8010 C   0  0  0  0  0  0  0  0  0  0  0  0
  143.2750   74.1230  220.8390 C   0  0  0  0  0  0  0  0  0  0  0  0
  146.4580   72.1560  221.7170 H   0  0  0  0  0  0  0  0  0  0  0  0
  147.1000   73.6960  221.1700 H   0  0  0  0  0  0  0  0  0  0  0  0
  144.1874   74.3552  217.6279 H   0  0  0  0  0  0  0  0  0  0  0  0
  142.1949   75.7946  217.5583 H   0  0  0  0  0  0  0  0  0  0  0  0
  140.5587   76.9922  218.6230 H   0  0  0  0  0  0  0  0  0  0  0  0
  139.6396   75.7833  219.6507 H   0  0  0  0  0  0  0  0  0  0  0  0
  137.5250   76.4677  220.9634 H   0  0  0  0  0  0  0  0  0  0  0  0
  138.1126   75.2046  223.3154 H   0  0  0  0  0  0  0  0  0  0  0  0
  138.3590   73.9376  219.8949 H   0  0  0  0  0  0  0  0  0  0  0  0
  139.5416   71.8699  219.2118 H   0  0  0  0  0  0  0  0  0  0  0  0
  141.0910   70.7595  220.8267 H   0  0  0  0  0  0  0  0  0  0  0  0
  141.3847   71.7907  223.0849 H   0  0  0  0  0  0  0  0  0  0  0  0
  139.4146   80.0644  224.5158 H   0  0  0  0  0  0  0  0  0  0  0  0
  141.0902   81.9231  224.6606 H   0  0  0  0  0  0  0  0  0  0  0  0
  142.8681   82.0957  222.9269 H   0  0  0  0  0  0  0  0  0  0  0  0
  142.9930   80.4617  221.0762 H   0  0  0  0  0  0  0  0  0  0  0  0
  141.5697   75.0927  221.7281 H   0  0  0  0  0  0  0  0  0  0  0  0
  143.5775   73.6482  221.7840 H   0  0  0  0  0  0  0  0  0  0  0  0
  1  2  1  0
  2  3  2  0
  2  4  2  0
  2  5  1  0
  5  6  2  0
  6  7  1  0
  7  8  2  0
  8  9  1  0
  9 10  1  0
 10 11  1  0
 11 12  1  0
 12 13  2  0
 13 14  1  0
 14 15  2  0
 15 16  1  0
 16 17  2  0
 17 18  1  0
 18 19  2  0
 11 20  2  0
 20 21  1  0
 21 22  2  0
 22 23  1  0
 23 24  2  0
 24 25  1  0
 25 26  2  0
 26 27  1  0
 27 28  2  0
  8 29  1  0
 29 30  2  0
 30  5  1  0
 27 10  1  0
 19 14  1  0
 26 21  1  0
  1 31  1  0
  1 32  1  0
  6 33  1  0
  7 34  1  0
  9 35  1  0
  9 36  1  0
 12 37  1  0
 13 38  1  0
 15 39  1  0
 16 40  1  0
 17 41  1  0
 18 42  1  0
 22 43  1  0
 23 44  1  0
 24 45  1  0
 25 46  1  0
 29 47  1  0
 30 48  1  0
M  END
>  <smiles>  (10) 
NS(=O)(=O)c1ccc(Cn2c(/C=C/c3ccccn3)nc3ccccc3c2=O)cc1

>  <score_type>  (10) 
oracle

>  <origin>  (10) 
autodockgpu

>  <m_score__min__energy>  (10) 
-8.8399999999999999

>  <m_primary>  (10) 
energy

>  <rmsd>  (10) 
7.115974554516072

>  <m_score__min__rmsd>  (10) 
7.115974554516072

>  <meeko>  (10) 
{"free_energy": -7.29, "intermolecular_energy": -9.37, "internal_energy": -2.05, "cluster_size": 5, "cluster_id": 9, "rank_in_cluster": 2}

>  <energy>  (10) 
-8.56

>  <cluster_rmsd>  (10) 
1.09

>  <cluster>  (10) 
1

$$$$

     RDKit          3D

 48 51  0  0  0  0  0  0  0  0999 V2000
  143.9920   74.1470  218.4920 N   0  0  0  0  0  0  0  0  0  0  0  0
  144.1790   73.0570  219.7820 S   0  0  0  0  0  0  0  0  0  0  0  0
  144.9300   71.8560  219.3110 O   0  0  0  0  0  0  0  0  0  0  0  0
  144.9740   73.7800  220.8600 O   0  0  0  0  0  0  0  0  0  0  0  0
  142.6850   72.5590  220.5230 C   0  0  0  0  0  0  0  0  0  0  0  0
  142.2580   71.2730  220.4690 C   0  0  0  0  0  0  0  0  0  0  0  0
  141.0690   70.8720  221.0590 C   0  0  0  0  0  0  0  0  0  0  0  0
  140.2480   71.7800  221.7400 C   0  0  0  0  0  0  0  0  0  0  0  0
  138.9790   71.3140  222.3570 C   0  0  0  0  0  0  0  0  0  0  0  0
  139.1520   70.3990  223.4480 N   0  0  0  0  0  0  0  0  0  0  0  0
  138.6570   69.1480  223.4820 C   0  0  0  0  0  0  0  0  0  0  0  0
  137.8160   68.6500  222.3710 C   0  0  0  0  0  0  0  0  0  0  0  0
  136.4910   68.6650  222.4630 C   0  0  0  0  0  0  0  0  0  0  0  0
  135.7530   69.2370  223.5600 C   0  0  0  0  0  0  0  0  0  0  0  0
  135.7560   70.5720  223.8900 C   0  0  0  0  0  0  0  0  0  0  0  0
  135.0270   71.0810  224.9600 C   0  0  0  0  0  0  0  0  0  0  0  0
  134.2730   70.2220  225.7180 C   0  0  0  0  0  0  0  0  0  0  0  0
  134.2820   68.8740  225.3710 C   0  0  0  0  0  0  0  0  0  0  0  0
  134.9950   68.4300  224.3370 N   0  0  0  0  0  0  0  0  0  0  0  0
  138.8640   68.3040  224.5200 N   0  0  0  0  0  0  0  0  0  0  0  0
  139.5770   68.6590  225.5880 C   0  0  0  0  0  0  0  0  0  0  0  0
  139.7630   67.7640  226.6280 C   0  0  0  0  0  0  0  0  0  0  0  0
  140.5110   68.1610  227.7300 C   0  0  0  0  0  0  0  0  0  0  0  0
  141.0480   69.4430  227.7530 C   0  0  0  0  0  0  0  0  0  0  0  0
  140.8500   70.3210  226.7040 C   0  0  0  0  0  0  0  0  0  0  0  0
  140.1060   69.9320  225.6040 C   0  0  0  0  0  0  0  0  0  0  0  0
  139.8870   70.7880  224.5320 C   0  0  0  0  0  0  0  0  0  0  0  0
  140.4010   71.9260  224.6250 O   0  0  0  0  0  0  0  0  0  0  0  0
  140.7000   73.0750  221.7820 C   0  0  0  0  0  0  0  0  0  0  0  0
  141.8990   73.4770  221.1870 C   0  0  0  0  0  0  0  0  0  0  0  0
  143.0860   74.6210  218.4120 H   0  0  0  0  0  0  0  0  0  0  0  0
  144.8290   74.6660  218.2050 H   0  0  0  0  0  0  0  0  0  0  0  0
  142.8719   70.5273  219.9425 H   0  0  0  0  0  0  0  0  0  0  0  0
  140.7637   69.8174  220.9908 H   0  0  0  0  0  0  0  0  0  0  0  0
  138.4338   72.1940  222.7290 H   0  0  0  0  0  0  0  0  0  0  0  0
  138.4306   70.7694  221.5743 H   0  0  0  0  0  0  0  0  0  0  0  0
  138.2935   68.2630  221.4587 H   0  0  0  0  0  0  0  0  0  0  0  0
  135.9166   68.2083  221.6435 H   0  0  0  0  0  0  0  0  0  0  0  0
  136.3585   71.2647  223.2841 H   0  0  0  0  0  0  0  0  0  0  0  0
  135.0549   72.1554  225.1944 H   0  0  0  0  0  0  0  0  0  0  0  0
  133.6814   70.5858  226.5710 H   0  0  0  0  0  0  0  0  0  0  0  0
  133.6886   68.1612  225.9624 H   0  0  0  0  0  0  0  0  0  0  0  0
  139.3260   66.7555  226.5828 H   0  0  0  0  0  0  0  0  0  0  0  0
  140.6756   67.4714  228.5710 H   0  0  0  0  0  0  0  0  0  0  0  0
  141.6412   69.7645  228.6217 H   0  0  0  0  0  0  0  0  0  0  0  0
  141.2846   71.3307  226.7436 H   0  0  0  0  0  0  0  0  0  0  0  0
  140.0932   73.8282  222.3059 H   0  0  0  0  0  0  0  0  0  0  0  0
  142.2165   74.5284  221.2485 H   0  0  0  0  0  0  0  0  0  0  0  0
  1  2  1  0
  2  3  2  0
  2  4  2  0
  2  5  1  0
  5  6  2  0
  6  7  1  0
  7  8  2  0
  8  9  1  0
  9 10  1  0
 10 11  1  0
 11 12  1  0
 12 13  2  0
 13 14  1  0
 14 15  2  0
 15 16  1  0
 16 17  2  0
 17 18  1  0
 18 19  2  0
 11 20  2  0
 20 21  1  0
 21 22  2  0
 22 23  1  0
 23 24  2  0
 24 25  1  0
 25 26  2  0
 26 27  1  0
 27 28  2  0
  8 29  1  0
 29 30  2  0
 30  5  1  0
 27 10  1  0
 19 14  1  0
 26 21  1  0
  1 31  1  0
  1 32  1  0
  6 33  1  0
  7 34  1  0
  9 35  1  0
  9 36  1  0
 12 37  1  0
 13 38  1  0
 15 39  1  0
 16 40  1  0
 17 41  1  0
 18 42  1  0
 22 43  1  0
 23 44  1  0
 24 45  1  0
 25 46  1  0
 29 47  1  0
 30 48  1  0
M  END
>  <smiles>  (11) 
NS(=O)(=O)c1ccc(Cn2c(/C=C/c3ccccn3)nc3ccccc3c2=O)cc1

>  <score_type>  (11) 
oracle

>  <origin>  (11) 
autodockgpu

>  <m_score__min__energy>  (11) 
-8.8399999999999999

>  <m_primary>  (11) 
energy

>  <rmsd>  (11) 
10.171061751103391

>  <m_score__min__rmsd>  (11) 
10.171061751103391

>  <meeko>  (11) 
{"free_energy": -7.7, "intermolecular_energy": -9.79, "internal_energy": -1.61, "cluster_size": 13, "cluster_id": 2, "rank_in_cluster": 12}

>  <energy>  (11) 
-8.55

>  <cluster_rmsd>  (11) 
0.73

>  <cluster>  (11) 
1

$$$$

     RDKit          3D

 48 51  0  0  0  0  0  0  0  0999 V2000
  145.9200   73.3970  218.0010 N   0  0  0  0  0  0  0  0  0  0  0  0
  145.8220   72.8490  219.6070 S   0  0  0  0  0  0  0  0  0  0  0  0
  146.4640   71.5040  219.7110 O   0  0  0  0  0  0  0  0  0  0  0  0
  146.5760   73.8550  220.4640 O   0  0  0  0  0  0  0  0  0  0  0  0
  144.2040   72.7750  220.2430 C   0  0  0  0  0  0  0  0  0  0  0  0
  143.6710   71.6150  220.6990 C   0  0  0  0  0  0  0  0  0  0  0  0
  142.3820   71.5520  221.2070 C   0  0  0  0  0  0  0  0  0  0  0  0
  141.5660   72.6890  221.2720 C   0  0  0  0  0  0  0  0  0  0  0  0
  140.1880   72.5830  221.8200 C   0  0  0  0  0  0  0  0  0  0  0  0
  139.7500   71.2380  222.0610 N   0  0  0  0  0  0  0  0  0  0  0  0
  139.5710   70.7020  223.2820 C   0  0  0  0  0  0  0  0  0  0  0  0
  139.8920   71.4860  224.4960 C   0  0  0  0  0  0  0  0  0  0  0  0
  140.9370   71.1700  225.2510 C   0  0  0  0  0  0  0  0  0  0  0  0
  140.9530   70.1070  226.2240 C   0  0  0  0  0  0  0  0  0  0  0  0
  140.8450   68.7710  225.9210 C   0  0  0  0  0  0  0  0  0  0  0  0
  140.8650   67.7780  226.8950 C   0  0  0  0  0  0  0  0  0  0  0  0
  140.9990   68.1410  228.2110 C   0  0  0  0  0  0  0  0  0  0  0  0
  141.1070   69.4980  228.5010 C   0  0  0  0  0  0  0  0  0  0  0  0
  141.0820   70.4160  227.5350 N   0  0  0  0  0  0  0  0  0  0  0  0
  139.1300   69.4350  223.4710 N   0  0  0  0  0  0  0  0  0  0  0  0
  138.8430   68.6280  222.4500 C   0  0  0  0  0  0  0  0  0  0  0  0
  138.3960   67.3390  222.6880 C   0  0  0  0  0  0  0  0  0  0  0  0
  138.1040   66.5190  221.6060 C   0  0  0  0  0  0  0  0  0  0  0  0
  138.2700   67.0180  220.3180 C   0  0  0  0  0  0  0  0  0  0  0  0
  138.7190   68.3080  220.1030 C   0  0  0  0  0  0  0  0  0  0  0  0
  139.0110   69.1300  221.1770 C   0  0  0  0  0  0  0  0  0  0  0  0
  139.4630   70.4310  220.9980 C   0  0  0  0  0  0  0  0  0  0  0  0
  139.5890   70.8090  219.8110 O   0  0  0  0  0  0  0  0  0  0  0  0
  142.1260   73.8510  220.8050 C   0  0  0  0  0  0  0  0  0  0  0  0
  143.4250   73.9120  220.2930 C   0  0  0  0  0  0  0  0  0  0  0  0
  146.4850   74.2350  217.8310 H   0  0  0  0  0  0  0  0  0  0  0  0
  145.8990   72.6780  217.2690 H   0  0  0  0  0  0  0  0  0  0  0  0
  144.2778   70.6981  220.6652 H   0  0  0  0  0  0  0  0  0  0  0  0
  141.9919   70.5884  221.5667 H   0  0  0  0  0  0  0  0  0  0  0  0
  140.1528   73.1326  222.7722 H   0  0  0  0  0  0  0  0  0  0  0  0
  139.5134   73.0023  221.0590 H   0  0  0  0  0  0  0  0  0  0  0  0
  139.2574   72.3399  224.7755 H   0  0  0  0  0  0  0  0  0  0  0  0
  141.8559   71.7614  225.1251 H   0  0  0  0  0  0  0  0  0  0  0  0
  140.7386   68.4752  224.8669 H   0  0  0  0  0  0  0  0  0  0  0  0
  140.7748   66.7183  226.6143 H   0  0  0  0  0  0  0  0  0  0  0  0
  141.0204   67.3853  229.0100 H   0  0  0  0  0  0  0  0  0  0  0  0
  141.2151   69.8190  229.5476 H   0  0  0  0  0  0  0  0  0  0  0  0
  138.2742   66.9707  223.7173 H   0  0  0  0  0  0  0  0  0  0  0  0
  137.7470   65.4908  221.7649 H   0  0  0  0  0  0  0  0  0  0  0  0
  138.0401   66.3751  219.4556 H   0  0  0  0  0  0  0  0  0  0  0  0
  138.8443   68.6815  219.0760 H   0  0  0  0  0  0  0  0  0  0  0  0
  141.5275   74.7735  220.8347 H   0  0  0  0  0  0  0  0  0  0  0  0
  143.8270   74.8691  219.9291 H   0  0  0  0  0  0  0  0  0  0  0  0
  1  2  1  0
  2  3  2  0
  2  4  2  0
  2  5  1  0
  5  6  2  0
  6  7  1  0
  7  8  2  0
  8  9  1  0
  9 10  1  0
 10 11  1  0
 11 12  1  0
 12 13  2  0
 13 14  1  0
 14 15  2  0
 15 16  1  0
 16 17  2  0
 17 18  1  0
 18 19  2  0
 11 20  2  0
 20 21  1  0
 21 22  2  0
 22 23  1  0
 23 24  2  0
 24 25  1  0
 25 26  2  0
 26 27  1  0
 27 28  2  0
  8 29  1  0
 29 30  2  0
 30  5  1  0
 27 10  1  0
 19 14  1  0
 26 21  1  0
  1 31  1  0
  1 32  1  0
  6 33  1  0
  7 34  1  0
  9 35  1  0
  9 36  1  0
 12 37  1  0
 13 38  1  0
 15 39  1  0
 16 40  1  0
 17 41  1  0
 18 42  1  0
 22 43  1  0
 23 44  1  0
 24 45  1  0
 25 46  1  0
 29 47  1  0
 30 48  1  0
M  END
>  <smiles>  (12) 
NS(=O)(=O)c1ccc(Cn2c(/C=C/c3ccccn3)nc3ccccc3c2=O)cc1

>  <score_type>  (12) 
oracle

>  <origin>  (12) 
autodockgpu

>  <m_score__min__energy>  (12) 
-8.8399999999999999

>  <m_primary>  (12) 
energy

>  <rmsd>  (12) 
9.209233263133985

>  <m_score__min__rmsd>  (12) 
9.209233263133985

>  <meeko>  (12) 
{"free_energy": -7.73, "intermolecular_energy": -9.82, "internal_energy": -1.37, "cluster_size": 1, "cluster_id": 4, "rank_in_cluster": 1}

>  <energy>  (12) 
-8.55

>  <cluster_rmsd>  (12) 
0.52

>  <cluster>  (12) 
1

$$$$

     RDKit          3D

 48 51  0  0  0  0  0  0  0  0999 V2000
  135.9860   81.4730  230.6840 N   0  0  0  0  0  0  0  0  0  0  0  0
  134.7190   81.6150  229.5600 S   0  0  0  0  0  0  0  0  0  0  0  0
  133.7000   80.5550  229.8260 O   0  0  0  0  0  0  0  0  0  0  0  0
  134.1030   82.9920  229.7600 O   0  0  0  0  0  0  0  0  0  0  0  0
  135.2230   81.5370  227.8970 C   0  0  0  0  0  0  0  0  0  0  0  0
  136.4170   82.0370  227.4910 C   0  0  0  0  0  0  0  0  0  0  0  0
  136.8230   81.9760  226.1670 C   0  0  0  0  0  0  0  0  0  0  0  0
  136.0160   81.3940  225.1810 C   0  0  0  0  0  0  0  0  0  0  0  0
  136.4830   81.3500  223.7700 C   0  0  0  0  0  0  0  0  0  0  0  0
  137.2130   80.1640  223.4260 N   0  0  0  0  0  0  0  0  0  0  0  0
  136.6540   79.0320  222.9590 C   0  0  0  0  0  0  0  0  0  0  0  0
  135.1840   78.9250  222.8290 C   0  0  0  0  0  0  0  0  0  0  0  0
  134.5660   77.7670  223.0370 C   0  0  0  0  0  0  0  0  0  0  0  0
  134.3760   77.1620  224.3300 C   0  0  0  0  0  0  0  0  0  0  0  0
  134.9360   75.9700  224.7230 C   0  0  0  0  0  0  0  0  0  0  0  0
  134.7250   75.4230  225.9840 C   0  0  0  0  0  0  0  0  0  0  0  0
  133.9270   76.0950  226.8750 C   0  0  0  0  0  0  0  0  0  0  0  0
  133.3670   77.3000  226.4610 C   0  0  0  0  0  0  0  0  0  0  0  0
  133.5960   77.7880  225.2430 N   0  0  0  0  0  0  0  0  0  0  0  0
  137.3790   77.9400  222.6200 N   0  0  0  0  0  0  0  0  0  0  0  0
  138.7070   77.9130  222.7290 C   0  0  0  0  0  0  0  0  0  0  0  0
  139.4100   76.7740  222.3710 C   0  0  0  0  0  0  0  0  0  0  0  0
  140.7940   76.7730  222.4950 C   0  0  0  0  0  0  0  0  0  0  0  0
  141.4290   77.9140  222.9740 C   0  0  0  0  0  0  0  0  0  0  0  0
  140.7070   79.0390  223.3250 C   0  0  0  0  0  0  0  0  0  0  0  0
  139.3290   79.0470  223.2040 C   0  0  0  0  0  0  0  0  0  0  0  0
  138.5720   80.1610  223.5480 C   0  0  0  0  0  0  0  0  0  0  0  0
  139.2140   81.1500  223.9710 O   0  0  0  0  0  0  0  0  0  0  0  0
  134.8130   80.8950  225.6140 C   0  0  0  0  0  0  0  0  0  0  0  0
  134.4060   80.9570  226.9500 C   0  0  0  0  0  0  0  0  0  0  0  0
  136.5710   82.3020  230.8310 H   0  0  0  0  0  0  0  0  0  0  0  0
  135.8180   80.8580  231.4880 H   0  0  0  0  0  0  0  0  0  0  0  0
  137.0814   82.5038  228.2331 H   0  0  0  0  0  0  0  0  0  0  0  0
  137.8005   82.3939  225.8844 H   0  0  0  0  0  0  0  0  0  0  0  0
  135.6027   81.4151  223.1137 H   0  0  0  0  0  0  0  0  0  0  0  0
  137.1759   82.1946  223.6413 H   0  0  0  0  0  0  0  0  0  0  0  0
  134.5960   79.8140  222.5571 H   0  0  0  0  0  0  0  0  0  0  0  0
  134.1718   77.2330  222.1598 H   0  0  0  0  0  0  0  0  0  0  0  0
  135.5763   75.4273  224.0121 H   0  0  0  0  0  0  0  0  0  0  0  0
  135.1907   74.4662  226.2628 H   0  0  0  0  0  0  0  0  0  0  0  0
  133.7364   75.6952  227.8819 H   0  0  0  0  0  0  0  0  0  0  0  0
  132.7222   77.8607  227.1537 H   0  0  0  0  0  0  0  0  0  0  0  0
  138.8815   75.8856  221.9950 H   0  0  0  0  0  0  0  0  0  0  0  0
  141.3786   75.8832  222.2185 H   0  0  0  0  0  0  0  0  0  0  0  0
  142.5243   77.9211  223.0752 H   0  0  0  0  0  0  0  0  0  0  0  0
  141.2296   79.9306  223.7017 H   0  0  0  0  0  0  0  0  0  0  0  0
  134.1413   80.4269  224.8794 H   0  0  0  0  0  0  0  0  0  0  0  0
  133.4314   80.5419  227.2464 H   0  0  0  0  0  0  0  0  0  0  0  0
  1  2  1  0
  2  3  2  0
  2  4  2  0
  2  5  1  0
  5  6  2  0
  6  7  1  0
  7  8  2  0
  8  9  1  0
  9 10  1  0
 10 11  1  0
 11 12  1  0
 12 13  2  0
 13 14  1  0
 14 15  2  0
 15 16  1  0
 16 17  2  0
 17 18  1  0
 18 19  2  0
 11 20  2  0
 20 21  1  0
 21 22  2  0
 22 23  1  0
 23 24  2  0
 24 25  1  0
 25 26  2  0
 26 27  1  0
 27 28  2  0
  8 29  1  0
 29 30  2  0
 30  5  1  0
 27 10  1  0
 19 14  1  0
 26 21  1  0
  1 31  1  0
  1 32  1  0
  6 33  1  0
  7 34  1  0
  9 35  1  0
  9 36  1  0
 12 37  1  0
 13 38  1  0
 15 39  1  0
 16 40  1  0
 17 41  1  0
 18 42  1  0
 22 43  1  0
 23 44  1  0
 24 45  1  0
 25 46  1  0
 29 47  1  0
 30 48  1  0
M  END
>  <smiles>  (13) 
NS(=O)(=O)c1ccc(Cn2c(/C=C/c3ccccn3)nc3ccccc3c2=O)cc1

>  <score_type>  (13) 
oracle

>  <origin>  (13) 
autodockgpu

>  <m_score__min__energy>  (13) 
-8.8399999999999999

>  <m_primary>  (13) 
energy

>  <rmsd>  (13) 
6.257131030963226

>  <m_score__min__rmsd>  (13) 
6.257131030963226

>  <meeko>  (13) 
{"free_energy": -7.59, "intermolecular_energy": -9.68, "internal_energy": -1.78, "cluster_size": 4, "cluster_id": 5, "rank_in_cluster": 3}

>  <energy>  (13) 
-8.47

>  <cluster_rmsd>  (13) 
1.0

>  <cluster>  (13) 
1

$$$$

     RDKit          3D

 48 51  0  0  0  0  0  0  0  0999 V2000
  134.3260   83.1020  230.2190 N   0  0  0  0  0  0  0  0  0  0  0  0
  134.9410   81.5910  229.7400 S   0  0  0  0  0  0  0  0  0  0  0  0
  136.1730   81.2860  230.5260 O   0  0  0  0  0  0  0  0  0  0  0  0
  133.8630   80.5600  230.0390 O   0  0  0  0  0  0  0  0  0  0  0  0
  135.2860   81.4640  228.0390 C   0  0  0  0  0  0  0  0  0  0  0  0
  136.4410   81.9400  227.5100 C   0  0  0  0  0  0  0  0  0  0  0  0
  136.7200   81.8400  226.1550 C   0  0  0  0  0  0  0  0  0  0  0  0
  135.8180   81.2410  225.2660 C   0  0  0  0  0  0  0  0  0  0  0  0
  136.1500   81.1550  223.8190 C   0  0  0  0  0  0  0  0  0  0  0  0
  137.0430   80.0840  223.4800 N   0  0  0  0  0  0  0  0  0  0  0  0
  136.6630   78.9240  222.9140 C   0  0  0  0  0  0  0  0  0  0  0  0
  135.2310   78.6540  222.6570 C   0  0  0  0  0  0  0  0  0  0  0  0
  134.6970   77.4750  222.9570 C   0  0  0  0  0  0  0  0  0  0  0  0
  134.4020   77.0270  224.2940 C   0  0  0  0  0  0  0  0  0  0  0  0
  133.5650   77.6790  225.1680 C   0  0  0  0  0  0  0  0  0  0  0  0
  133.3080   77.2090  226.4520 C   0  0  0  0  0  0  0  0  0  0  0  0
  133.9110   76.0490  226.8670 C   0  0  0  0  0  0  0  0  0  0  0  0
  134.7560   75.4010  225.9710 C   0  0  0  0  0  0  0  0  0  0  0  0
  134.9740   75.8880  224.7490 N   0  0  0  0  0  0  0  0  0  0  0  0
  137.5390   77.9460  222.5850 N   0  0  0  0  0  0  0  0  0  0  0  0
  138.8480   78.0670  222.8030 C   0  0  0  0  0  0  0  0  0  0  0  0
  139.7090   77.0410  222.4500 C   0  0  0  0  0  0  0  0  0  0  0  0
  141.0690   77.1950  222.6890 C   0  0  0  0  0  0  0  0  0  0  0  0
  141.5220   78.3720  223.2730 C   0  0  0  0  0  0  0  0  0  0  0  0
  140.6450   79.3840  223.6170 C   0  0  0  0  0  0  0  0  0  0  0  0
  139.2890   79.2370  223.3820 C   0  0  0  0  0  0  0  0  0  0  0  0
  138.3790   80.2330  223.7150 C   0  0  0  0  0  0  0  0  0  0  0  0
  138.8620   81.2640  224.2380 O   0  0  0  0  0  0  0  0  0  0  0  0
  134.6570   80.7670  225.8230 C   0  0  0  0  0  0  0  0  0  0  0  0
  134.3780   80.8690  227.1890 C   0  0  0  0  0  0  0  0  0  0  0  0
  133.9290   83.1620  231.1630 H   0  0  0  0  0  0  0  0  0  0  0  0
  134.8030   83.9300  229.8480 H   0  0  0  0  0  0  0  0  0  0  0  0
  137.1763   82.4183  228.1737 H   0  0  0  0  0  0  0  0  0  0  0  0
  137.6699   82.2396  225.7702 H   0  0  0  0  0  0  0  0  0  0  0  0
  135.2140   81.0133  223.2588 H   0  0  0  0  0  0  0  0  0  0  0  0
  136.6671   82.0903  223.5586 H   0  0  0  0  0  0  0  0  0  0  0  0
  134.6012   79.4386  222.2123 H   0  0  0  0  0  0  0  0  0  0  0  0
  134.4638   76.7930  222.1261 H   0  0  0  0  0  0  0  0  0  0  0  0
  133.0791   78.6094  224.8391 H   0  0  0  0  0  0  0  0  0  0  0  0
  132.6321   77.7588  227.1235 H   0  0  0  0  0  0  0  0  0  0  0  0
  133.7327   75.6445  227.8743 H   0  0  0  0  0  0  0  0  0  0  0  0
  135.2537   74.4689  226.2768 H   0  0  0  0  0  0  0  0  0  0  0  0
  139.3227   76.1203  221.9885 H   0  0  0  0  0  0  0  0  0  0  0  0
  141.7768   76.3971  222.4199 H   0  0  0  0  0  0  0  0  0  0  0  0
  142.5975   78.5007  223.4649 H   0  0  0  0  0  0  0  0  0  0  0  0
  141.0255   80.3073  224.0781 H   0  0  0  0  0  0  0  0  0  0  0  0
  133.9153   80.2870  225.1677 H   0  0  0  0  0  0  0  0  0  0  0  0
  133.4317   80.4736  227.5867 H   0  0  0  0  0  0  0  0  0  0  0  0
  1  2  1  0
  2  3  2  0
  2  4  2  0
  2  5  1  0
  5  6  2  0
  6  7  1  0
  7  8  2  0
  8  9  1  0
  9 10  1  0
 10 11  1  0
 11 12  1  0
 12 13  2  0
 13 14  1  0
 14 15  2  0
 15 16  1  0
 16 17  2  0
 17 18  1  0
 18 19  2  0
 11 20  2  0
 20 21  1  0
 21 22  2  0
 22 23  1  0
 23 24  2  0
 24 25  1  0
 25 26  2  0
 26 27  1  0
 27 28  2  0
  8 29  1  0
 29 30  2  0
 30  5  1  0
 27 10  1  0
 19 14  1  0
 26 21  1  0
  1 31  1  0
  1 32  1  0
  6 33  1  0
  7 34  1  0
  9 35  1  0
  9 36  1  0
 12 37  1  0
 13 38  1  0
 15 39  1  0
 16 40  1  0
 17 41  1  0
 18 42  1  0
 22 43  1  0
 23 44  1  0
 24 45  1  0
 25 46  1  0
 29 47  1  0
 30 48  1  0
M  END
>  <smiles>  (14) 
NS(=O)(=O)c1ccc(Cn2c(/C=C/c3ccccn3)nc3ccccc3c2=O)cc1

>  <score_type>  (14) 
oracle

>  <origin>  (14) 
autodockgpu

>  <m_score__min__energy>  (14) 
-8.8399999999999999

>  <m_primary>  (14) 
energy

>  <rmsd>  (14) 
6.4749871783258355

>  <m_score__min__rmsd>  (14) 
6.4749871783258355

>  <meeko>  (14) 
{"free_energy": -7.25, "intermolecular_energy": -9.34, "internal_energy": -1.73, "cluster_size": 4, "cluster_id": 5, "rank_in_cluster": 4}

>  <energy>  (14) 
-8.46

>  <cluster_rmsd>  (14) 
1.19

>  <cluster>  (14) 
1

$$$$

     RDKit          3D

 48 51  0  0  0  0  0  0  0  0999 V2000
  143.7450   75.3620  219.8330 N   0  0  0  0  0  0  0  0  0  0  0  0
  143.8550   73.7020  220.1830 S   0  0  0  0  0  0  0  0  0  0  0  0
  144.2440   72.9600  218.9470 O   0  0  0  0  0  0  0  0  0  0  0  0
  144.9330   73.5450  221.2460 O   0  0  0  0  0  0  0  0  0  0  0  0
  142.4040   73.0100  220.8490 C   0  0  0  0  0  0  0  0  0  0  0  0
  142.1850   71.6720  220.8420 C   0  0  0  0  0  0  0  0  0  0  0  0
  141.0300   71.1170  221.3720 C   0  0  0  0  0  0  0  0  0  0  0  0
  140.0300   71.9160  221.9410 C   0  0  0  0  0  0  0  0  0  0  0  0
  138.8040   71.2860  222.4960 C   0  0  0  0  0  0  0  0  0  0  0  0
  139.0460   70.3650  223.5690 N   0  0  0  0  0  0  0  0  0  0  0  0
  138.6100   69.0920  223.5950 C   0  0  0  0  0  0  0  0  0  0  0  0
  137.7660   68.5700  222.4980 C   0  0  0  0  0  0  0  0  0  0  0  0
  136.4410   68.6490  222.5640 C   0  0  0  0  0  0  0  0  0  0  0  0
  135.7040   69.0950  223.7180 C   0  0  0  0  0  0  0  0  0  0  0  0
  135.7650   70.3660  224.2390 C   0  0  0  0  0  0  0  0  0  0  0  0
  135.0350   70.7530  225.3580 C   0  0  0  0  0  0  0  0  0  0  0  0
  134.2190   69.8350  225.9690 C   0  0  0  0  0  0  0  0  0  0  0  0
  134.1700   68.5530  225.4300 C   0  0  0  0  0  0  0  0  0  0  0  0
  134.8870   68.2250  224.3560 N   0  0  0  0  0  0  0  0  0  0  0  0
  138.8810   68.2440  224.6150 N   0  0  0  0  0  0  0  0  0  0  0  0
  139.6030   68.6160  225.6710 C   0  0  0  0  0  0  0  0  0  0  0  0
  139.8560   67.7160  226.6930 C   0  0  0  0  0  0  0  0  0  0  0  0
  140.6120   68.1310  227.7820 C   0  0  0  0  0  0  0  0  0  0  0  0
  141.0900   69.4370  227.8120 C   0  0  0  0  0  0  0  0  0  0  0  0
  140.8250   70.3190  226.7810 C   0  0  0  0  0  0  0  0  0  0  0  0
  140.0730   69.9120  225.6930 C   0  0  0  0  0  0  0  0  0  0  0  0
  139.7880   70.7720  224.6400 C   0  0  0  0  0  0  0  0  0  0  0  0
  140.2520   71.9310  224.7390 O   0  0  0  0  0  0  0  0  0  0  0  0
  140.2730   73.2670  221.9380 C   0  0  0  0  0  0  0  0  0  0  0  0
  141.4380   73.8240  221.4020 C   0  0  0  0  0  0  0  0  0  0  0  0
  143.4140   75.9730  220.5860 H   0  0  0  0  0  0  0  0  0  0  0  0
  144.4400   75.7400  219.1810 H   0  0  0  0  0  0  0  0  0  0  0  0
  142.9447   71.0082  220.4037 H   0  0  0  0  0  0  0  0  0  0  0  0
  140.8962   70.0255  221.3450 H   0  0  0  0  0  0  0  0  0  0  0  0
  138.1456   72.0842  222.8694 H   0  0  0  0  0  0  0  0  0  0  0  0
  138.3516   70.7049  221.6789 H   0  0  0  0  0  0  0  0  0  0  0  0
  138.2404   68.1114  221.6179 H   0  0  0  0  0  0  0  0  0  0  0  0
  135.8665   68.3527  221.6740 H   0  0  0  0  0  0  0  0  0  0  0  0
  136.4168   71.1060  223.7516 H   0  0  0  0  0  0  0  0  0  0  0  0
  135.1109   71.7791  225.7469 H   0  0  0  0  0  0  0  0  0  0  0  0
  133.6239   70.1031  226.8545 H   0  0  0  0  0  0  0  0  0  0  0  0
  133.5262   67.7950  225.9002 H   0  0  0  0  0  0  0  0  0  0  0  0
  139.4646   66.6892  226.6431 H   0  0  0  0  0  0  0  0  0  0  0  0
  140.8293   67.4376  228.6078 H   0  0  0  0  0  0  0  0  0  0  0  0
  141.6891   69.7737  228.6709 H   0  0  0  0  0  0  0  0  0  0  0  0
  141.2130   71.3473  226.8256 H   0  0  0  0  0  0  0  0  0  0  0  0
  139.5201   73.9391  222.3754 H   0  0  0  0  0  0  0  0  0  0  0  0
  141.5843   74.9140  221.4214 H   0  0  0  0  0  0  0  0  0  0  0  0
  1  2  1  0
  2  3  2  0
  2  4  2  0
  2  5  1  0
  5  6  2  0
  6  7  1  0
  7  8  2  0
  8  9  1  0
  9 10  1  0
 10 11  1  0
 11 12  1  0
 12 13  2  0
 13 14  1  0
 14 15  2  0
 15 16  1  0
 16 17  2  0
 17 18  1  0
 18 19  2  0
 11 20  2  0
 20 21  1  0
 21 22  2  0
 22 23  1  0
 23 24  2  0
 24 25  1  0
 25 26  2  0
 26 27  1  0
 27 28  2  0
  8 29  1  0
 29 30  2  0
 30  5  1  0
 27 10  1  0
 19 14  1  0
 26 21  1  0
  1 31  1  0
  1 32  1  0
  6 33  1  0
  7 34  1  0
  9 35  1  0
  9 36  1  0
 12 37  1  0
 13 38  1  0
 15 39  1  0
 16 40  1  0
 17 41  1  0
 18 42  1  0
 22 43  1  0
 23 44  1  0
 24 45  1  0
 25 46  1  0
 29 47  1  0
 30 48  1  0
M  END
>  <smiles>  (15) 
NS(=O)(=O)c1ccc(Cn2c(/C=C/c3ccccn3)nc3ccccc3c2=O)cc1

>  <score_type>  (15) 
oracle

>  <origin>  (15) 
autodockgpu

>  <m_score__min__energy>  (15) 
-8.8399999999999999

>  <m_primary>  (15) 
energy

>  <rmsd>  (15) 
10.055199695295489

>  <m_score__min__rmsd>  (15) 
10.055199695295489

>  <meeko>  (15) 
{"free_energy": -8.06, "intermolecular_energy": -10.14, "internal_energy": -1.57, "cluster_size": 13, "cluster_id": 2, "rank_in_cluster": 3}

>  <energy>  (15) 
-8.43

>  <cluster_rmsd>  (15) 
1.19

>  <cluster>  (15) 
1

$$$$

     RDKit          3D

 48 51  0  0  0  0  0  0  0  0999 V2000
  146.6830   73.5560  220.2170 N   0  0  0  0  0  0  0  0  0  0  0  0
  145.4130   73.0010  219.2310 S   0  0  0  0  0  0  0  0  0  0  0  0
  145.9080   72.8390  217.8320 O   0  0  0  0  0  0  0  0  0  0  0  0
  144.9770   71.6550  219.7900 O   0  0  0  0  0  0  0  0  0  0  0  0
  144.0020   74.0180  219.2390 C   0  0  0  0  0  0  0  0  0  0  0  0
  143.6930   74.8000  220.3030 C   0  0  0  0  0  0  0  0  0  0  0  0
  142.5690   75.6120  220.3120 C   0  0  0  0  0  0  0  0  0  0  0  0
  141.6960   75.6640  219.2180 C   0  0  0  0  0  0  0  0  0  0  0  0
  140.4990   76.5440  219.2650 C   0  0  0  0  0  0  0  0  0  0  0  0
  140.4470   77.4110  220.4070 N   0  0  0  0  0  0  0  0  0  0  0  0
  139.5930   77.2660  221.4370 C   0  0  0  0  0  0  0  0  0  0  0  0
  138.5740   76.1930  221.4150 C   0  0  0  0  0  0  0  0  0  0  0  0
  138.8060   75.0240  222.0010 C   0  0  0  0  0  0  0  0  0  0  0  0
  139.5840   73.9580  221.4220 C   0  0  0  0  0  0  0  0  0  0  0  0
  139.2750   73.3180  220.2460 C   0  0  0  0  0  0  0  0  0  0  0  0
  140.0560   72.2920  219.7230 C   0  0  0  0  0  0  0  0  0  0  0  0
  141.1810   71.9010  220.4040 C   0  0  0  0  0  0  0  0  0  0  0  0
  141.4790   72.5600  221.5930 C   0  0  0  0  0  0  0  0  0  0  0  0
  140.7020   73.5380  222.0570 N   0  0  0  0  0  0  0  0  0  0  0  0
  139.5910   78.0900  222.5110 N   0  0  0  0  0  0  0  0  0  0  0  0
  140.4420   79.1100  222.6200 C   0  0  0  0  0  0  0  0  0  0  0  0
  140.4050   79.9290  223.7370 C   0  0  0  0  0  0  0  0  0  0  0  0
  141.3030   80.9850  223.8250 C   0  0  0  0  0  0  0  0  0  0  0  0
  142.2110   81.1860  222.7900 C   0  0  0  0  0  0  0  0  0  0  0  0
  142.2300   80.3560  221.6850 C   0  0  0  0  0  0  0  0  0  0  0  0
  141.3380   79.3030  221.5910 C   0  0  0  0  0  0  0  0  0  0  0  0
  141.3290   78.4490  220.4950 C   0  0  0  0  0  0  0  0  0  0  0  0
  142.1750   78.6940  219.6030 O   0  0  0  0  0  0  0  0  0  0  0  0
  142.0280   74.8660  218.1530 C   0  0  0  0  0  0  0  0  0  0  0  0
  143.1610   74.0470  218.1460 C   0  0  0  0  0  0  0  0  0  0  0  0
  147.0370   74.5000  220.0280 H   0  0  0  0  0  0  0  0  0  0  0  0
  146.6840   73.2310  221.1900 H   0  0  0  0  0  0  0  0  0  0  0  0
  144.3524   74.7899  221.1834 H   0  0  0  0  0  0  0  0  0  0  0  0
  142.3583   76.2290  221.1980 H   0  0  0  0  0  0  0  0  0  0  0  0
  140.4942   77.1675  218.3588 H   0  0  0  0  0  0  0  0  0  0  0  0
  139.6237   75.8812  219.3331 H   0  0  0  0  0  0  0  0  0  0  0  0
  137.6135   76.3657  220.9075 H   0  0  0  0  0  0  0  0  0  0  0  0
  138.3738   74.8577  222.9988 H   0  0  0  0  0  0  0  0  0  0  0  0
  138.3745   73.6291  219.6962 H   0  0  0  0  0  0  0  0  0  0  0  0
  139.7759   71.8023  218.7787 H   0  0  0  0  0  0  0  0  0  0  0  0
  141.8251   71.0946  220.0234 H   0  0  0  0  0  0  0  0  0  0  0  0
  142.3742   72.2675  222.1613 H   0  0  0  0  0  0  0  0  0  0  0  0
  139.6766   79.7460  224.5407 H   0  0  0  0  0  0  0  0  0  0  0  0
  141.2964   81.6522  224.6995 H   0  0  0  0  0  0  0  0  0  0  0  0
  142.9259   82.0197  222.8523 H   0  0  0  0  0  0  0  0  0  0  0  0
  142.9564   80.5333  220.8782 H   0  0  0  0  0  0  0  0  0  0  0  0
  141.3755   74.8706  217.2674 H   0  0  0  0  0  0  0  0  0  0  0  0
  143.3824   73.4242  217.2667 H   0  0  0  0  0  0  0  0  0  0  0  0
  1  2  1  0
  2  3  2  0
  2  4  2  0
  2  5  1  0
  5  6  2  0
  6  7  1  0
  7  8  2  0
  8  9  1  0
  9 10  1  0
 10 11  1  0
 11 12  1  0
 12 13  2  0
 13 14  1  0
 14 15  2  0
 15 16  1  0
 16 17  2  0
 17 18  1  0
 18 19  2  0
 11 20  2  0
 20 21  1  0
 21 22  2  0
 22 23  1  0
 23 24  2  0
 24 25  1  0
 25 26  2  0
 26 27  1  0
 27 28  2  0
  8 29  1  0
 29 30  2  0
 30  5  1  0
 27 10  1  0
 19 14  1  0
 26 21  1  0
  1 31  1  0
  1 32  1  0
  6 33  1  0
  7 34  1  0
  9 35  1  0
  9 36  1  0
 12 37  1  0
 13 38  1  0
 15 39  1  0
 16 40  1  0
 17 41  1  0
 18 42  1  0
 22 43  1  0
 23 44  1  0
 24 45  1  0
 25 46  1  0
 29 47  1  0
 30 48  1  0
M  END
>  <smiles>  (16) 
NS(=O)(=O)c1ccc(Cn2c(/C=C/c3ccccn3)nc3ccccc3c2=O)cc1

>  <score_type>  (16) 
oracle

>  <origin>  (16) 
autodockgpu

>  <m_score__min__energy>  (16) 
-8.8399999999999999

>  <m_primary>  (16) 
energy

>  <rmsd>  (16) 
7.184142519484491

>  <m_score__min__rmsd>  (16) 
7.184142519484491

>  <meeko>  (16) 
{"free_energy": -6.84, "intermolecular_energy": -8.93, "internal_energy": -2.29, "cluster_size": 5, "cluster_id": 9, "rank_in_cluster": 5}

>  <energy>  (16) 
-8.41

>  <cluster_rmsd>  (16) 
0.49

>  <cluster>  (16) 
1

$$$$

     RDKit          3D

 48 51  0  0  0  0  0  0  0  0999 V2000
  139.1420   67.2680  226.3140 N   0  0  0  0  0  0  0  0  0  0  0  0
  139.9430   68.7510  226.5400 S   0  0  0  0  0  0  0  0  0  0  0  0
  139.4380   69.4020  227.7850 O   0  0  0  0  0  0  0  0  0  0  0  0
  141.4250   68.4350  226.6800 O   0  0  0  0  0  0  0  0  0  0  0  0
  139.8000   69.8540  225.2020 C   0  0  0  0  0  0  0  0  0  0  0  0
  140.5220   71.0010  225.1450 C   0  0  0  0  0  0  0  0  0  0  0  0
  140.4100   71.8820  224.0800 C   0  0  0  0  0  0  0  0  0  0  0  0
  139.5420   71.6310  223.0100 C   0  0  0  0  0  0  0  0  0  0  0  0
  139.4470   72.6000  221.8880 C   0  0  0  0  0  0  0  0  0  0  0  0
  140.7070   73.1410  221.4650 N   0  0  0  0  0  0  0  0  0  0  0  0
  140.9740   74.4560  221.3530 C   0  0  0  0  0  0  0  0  0  0  0  0
  139.9150   75.4560  221.6120 C   0  0  0  0  0  0  0  0  0  0  0  0
  140.0680   76.3790  222.5560 C   0  0  0  0  0  0  0  0  0  0  0  0
  140.8660   77.5700  222.4140 C   0  0  0  0  0  0  0  0  0  0  0  0
  141.4390   78.2530  223.4600 C   0  0  0  0  0  0  0  0  0  0  0  0
  142.2030   79.4010  223.2760 C   0  0  0  0  0  0  0  0  0  0  0  0
  142.3960   79.8740  222.0030 C   0  0  0  0  0  0  0  0  0  0  0  0
  141.8090   79.1700  220.9550 C   0  0  0  0  0  0  0  0  0  0  0  0
  141.0840   78.0740  221.1780 N   0  0  0  0  0  0  0  0  0  0  0  0
  142.1850   74.9290  220.9750 N   0  0  0  0  0  0  0  0  0  0  0  0
  143.2010   74.1180  220.6850 C   0  0  0  0  0  0  0  0  0  0  0  0
  144.4240   74.6450  220.3020 C   0  0  0  0  0  0  0  0  0  0  0  0
  145.4660   73.7770  220.0050 C   0  0  0  0  0  0  0  0  0  0  0  0
  145.2500   72.4060  220.1020 C   0  0  0  0  0  0  0  0  0  0  0  0
  144.0220   71.9020  220.4860 C   0  0  0  0  0  0  0  0  0  0  0  0
  142.9790   72.7610  220.7840 C   0  0  0  0  0  0  0  0  0  0  0  0
  141.7320   72.2890  221.1730 C   0  0  0  0  0  0  0  0  0  0  0  0
  141.6130   71.0430  221.2370 O   0  0  0  0  0  0  0  0  0  0  0  0
  138.8220   70.4650  223.0890 C   0  0  0  0  0  0  0  0  0  0  0  0
  138.9360   69.5780  224.1640 C   0  0  0  0  0  0  0  0  0  0  0  0
  139.4770   66.4720  226.8670 H   0  0  0  0  0  0  0  0  0  0  0  0
  138.1390   67.3170  226.1050 H   0  0  0  0  0  0  0  0  0  0  0  0
  141.2149   71.2386  225.9656 H   0  0  0  0  0  0  0  0  0  0  0  0
  141.0170   72.7993  224.0755 H   0  0  0  0  0  0  0  0  0  0  0  0
  138.9863   72.0889  221.0298 H   0  0  0  0  0  0  0  0  0  0  0  0
  138.8481   73.4470  222.2539 H   0  0  0  0  0  0  0  0  0  0  0  0
  138.9904   75.4354  221.0165 H   0  0  0  0  0  0  0  0  0  0  0  0
  139.5488   76.2225  223.5130 H   0  0  0  0  0  0  0  0  0  0  0  0
  141.2876   77.8772  224.4827 H   0  0  0  0  0  0  0  0  0  0  0  0
  142.6455   79.9214  224.1382 H   0  0  0  0  0  0  0  0  0  0  0  0
  142.9939   80.7783  221.8166 H   0  0  0  0  0  0  0  0  0  0  0  0
  141.9462   79.5252  219.9230 H   0  0  0  0  0  0  0  0  0  0  0  0
  144.5669   75.7336  220.2344 H   0  0  0  0  0  0  0  0  0  0  0  0
  146.4475   74.1673  219.6977 H   0  0  0  0  0  0  0  0  0  0  0  0
  146.0706   71.7115  219.8691 H   0  0  0  0  0  0  0  0  0  0  0  0
  143.8731   70.8143  220.5550 H   0  0  0  0  0  0  0  0  0  0  0  0
  138.1267   70.2182  222.2731 H   0  0  0  0  0  0  0  0  0  0  0  0
  138.3344   68.6573  224.1814 H   0  0  0  0  0  0  0  0  0  0  0  0
  1  2  1  0
  2  3  2  0
  2  4  2  0
  2  5  1  0
  5  6  2  0
  6  7  1  0
  7  8  2  0
  8  9  1  0
  9 10  1  0
 10 11  1  0
 11 12  1  0
 12 13  2  0
 13 14  1  0
 14 15  2  0
 15 16  1  0
 16 17  2  0
 17 18  1  0
 18 19  2  0
 11 20  2  0
 20 21  1  0
 21 22  2  0
 22 23  1  0
 23 24  2  0
 24 25  1  0
 25 26  2  0
 26 27  1  0
 27 28  2  0
  8 29  1  0
 29 30  2  0
 30  5  1  0
 27 10  1  0
 19 14  1  0
 26 21  1  0
  1 31  1  0
  1 32  1  0
  6 33  1  0
  7 34  1  0
  9 35  1  0
  9 36  1  0
 12 37  1  0
 13 38  1  0
 15 39  1  0
 16 40  1  0
 17 41  1  0
 18 42  1  0
 22 43  1  0
 23 44  1  0
 24 45  1  0
 25 46  1  0
 29 47  1  0
 30 48  1  0
M  END
>  <smiles>  (17) 
NS(=O)(=O)c1ccc(Cn2c(/C=C/c3ccccn3)nc3ccccc3c2=O)cc1

>  <score_type>  (17) 
oracle

>  <origin>  (17) 
autodockgpu

>  <m_score__min__energy>  (17) 
-8.8399999999999999

>  <m_primary>  (17) 
energy

>  <rmsd>  (17) 
9.305425521978021

>  <m_score__min__rmsd>  (17) 
9.305425521978021

>  <meeko>  (17) 
{"free_energy": -8.64, "intermolecular_energy": -10.73, "internal_energy": -1.28, "cluster_size": 18, "cluster_id": 1, "rank_in_cluster": 5}

>  <energy>  (17) 
-8.12

>  <cluster_rmsd>  (17) 
1.27

>  <cluster>  (17) 
1

$$$$

     RDKit          3D

 48 51  0  0  0  0  0  0  0  0999 V2000
  139.2270   67.3020  226.4200 N   0  0  0  0  0  0  0  0  0  0  0  0
  139.8880   68.8460  226.6860 S   0  0  0  0  0  0  0  0  0  0  0  0
  139.2410   69.4620  227.8820 O   0  0  0  0  0  0  0  0  0  0  0  0
  141.3750   68.6510  226.9390 O   0  0  0  0  0  0  0  0  0  0  0  0
  139.7560   69.9260  225.3280 C   0  0  0  0  0  0  0  0  0  0  0  0
  140.5620   71.0090  225.2000 C   0  0  0  0  0  0  0  0  0  0  0  0
  140.4610   71.8720  224.1190 C   0  0  0  0  0  0  0  0  0  0  0  0
  139.5170   71.6660  223.1050 C   0  0  0  0  0  0  0  0  0  0  0  0
  139.4350   72.6140  221.9630 C   0  0  0  0  0  0  0  0  0  0  0  0
  140.7000   73.1490  221.5480 N   0  0  0  0  0  0  0  0  0  0  0  0
  140.9870   74.4620  221.4770 C   0  0  0  0  0  0  0  0  0  0  0  0
  139.9450   75.4700  221.7780 C   0  0  0  0  0  0  0  0  0  0  0  0
  140.1590   76.4170  222.6850 C   0  0  0  0  0  0  0  0  0  0  0  0
  140.8790   77.6400  222.4370 C   0  0  0  0  0  0  0  0  0  0  0  0
  141.1270   78.1590  221.1880 C   0  0  0  0  0  0  0  0  0  0  0  0
  141.8280   79.3450  220.9960 C   0  0  0  0  0  0  0  0  0  0  0  0
  142.2910   80.0280  222.0920 C   0  0  0  0  0  0  0  0  0  0  0  0
  142.0320   79.4890  223.3480 C   0  0  0  0  0  0  0  0  0  0  0  0
  141.3560   78.3490  223.4860 N   0  0  0  0  0  0  0  0  0  0  0  0
  142.2010   74.9300  221.1050 N   0  0  0  0  0  0  0  0  0  0  0  0
  143.2020   74.1140  220.7790 C   0  0  0  0  0  0  0  0  0  0  0  0
  144.4300   74.6350  220.4030 C   0  0  0  0  0  0  0  0  0  0  0  0
  145.4560   73.7610  220.0680 C   0  0  0  0  0  0  0  0  0  0  0  0
  145.2200   72.3910  220.1220 C   0  0  0  0  0  0  0  0  0  0  0  0
  143.9870   71.8930  220.4990 C   0  0  0  0  0  0  0  0  0  0  0  0
  142.9600   72.7580  220.8340 C   0  0  0  0  0  0  0  0  0  0  0  0
  141.7100   72.2920  221.2190 C   0  0  0  0  0  0  0  0  0  0  0  0
  141.5720   71.0470  221.2420 O   0  0  0  0  0  0  0  0  0  0  0  0
  138.7130   70.5640  223.2550 C   0  0  0  0  0  0  0  0  0  0  0  0
  138.8160   69.6960  224.3460 C   0  0  0  0  0  0  0  0  0  0  0  0
  139.3020   66.9230  225.4710 H   0  0  0  0  0  0  0  0  0  0  0  0
  139.2740   66.6420  227.2030 H   0  0  0  0  0  0  0  0  0  0  0  0
  141.3168   71.2085  225.9749 H   0  0  0  0  0  0  0  0  0  0  0  0
  141.1372   72.7374  224.0566 H   0  0  0  0  0  0  0  0  0  0  0  0
  138.9872   72.0859  221.1083 H   0  0  0  0  0  0  0  0  0  0  0  0
  138.8290   73.4663  222.3039 H   0  0  0  0  0  0  0  0  0  0  0  0
  138.9834   75.4344  221.2450 H   0  0  0  0  0  0  0  0  0  0  0  0
  139.7582   76.2559  223.6966 H   0  0  0  0  0  0  0  0  0  0  0  0
  140.7567   77.6152  220.3065 H   0  0  0  0  0  0  0  0  0  0  0  0
  142.0083   79.7293  219.9812 H   0  0  0  0  0  0  0  0  0  0  0  0
  142.8482   80.9700  221.9814 H   0  0  0  0  0  0  0  0  0  0  0  0
  142.3923   80.0142  224.2449 H   0  0  0  0  0  0  0  0  0  0  0  0
  144.5894   75.7229  220.3704 H   0  0  0  0  0  0  0  0  0  0  0  0
  146.4406   74.1462  219.7645 H   0  0  0  0  0  0  0  0  0  0  0  0
  146.0283   71.6923  219.8602 H   0  0  0  0  0  0  0  0  0  0  0  0
  143.8216   70.8060  220.5328 H   0  0  0  0  0  0  0  0  0  0  0  0
  137.9560   70.3550  222.4847 H   0  0  0  0  0  0  0  0  0  0  0  0
  138.1454   68.8273  224.4211 H   0  0  0  0  0  0  0  0  0  0  0  0
  1  2  1  0
  2  3  2  0
  2  4  2  0
  2  5  1  0
  5  6  2  0
  6  7  1  0
  7  8  2  0
  8  9  1  0
  9 10  1  0
 10 11  1  0
 11 12  1  0
 12 13  2  0
 13 14  1  0
 14 15  2  0
 15 16  1  0
 16 17  2  0
 17 18  1  0
 18 19  2  0
 11 20  2  0
 20 21  1  0
 21 22  2  0
 22 23  1  0
 23 24  2  0
 24 25  1  0
 25 26  2  0
 26 27  1  0
 27 28  2  0
  8 29  1  0
 29 30  2  0
 30  5  1  0
 27 10  1  0
 19 14  1  0
 26 21  1  0
  1 31  1  0
  1 32  1  0
  6 33  1  0
  7 34  1  0
  9 35  1  0
  9 36  1  0
 12 37  1  0
 13 38  1  0
 15 39  1  0
 16 40  1  0
 17 41  1  0
 18 42  1  0
 22 43  1  0
 23 44  1  0
 24 45  1  0
 25 46  1  0
 29 47  1  0
 30 48  1  0
M  END
>  <smiles>  (18) 
NS(=O)(=O)c1ccc(Cn2c(/C=C/c3ccccn3)nc3ccccc3c2=O)cc1

>  <score_type>  (18) 
oracle

>  <origin>  (18) 
autodockgpu

>  <m_score__min__energy>  (18) 
-8.8399999999999999

>  <m_primary>  (18) 
energy

>  <rmsd>  (18) 
9.284874470335659

>  <m_score__min__rmsd>  (18) 
9.284874470335659

>  <meeko>  (18) 
{"free_energy": -8.63, "intermolecular_energy": -10.72, "internal_energy": -1.28, "cluster_size": 18, "cluster_id": 1, "rank_in_cluster": 6}

>  <energy>  (18) 
-7.87

>  <cluster_rmsd>  (18) 
1.14

>  <cluster>  (18) 
1

$$$$

     RDKit          3D

 48 51  0  0  0  0  0  0  0  0999 V2000
  139.2060   67.1050  226.4470 N   0  0  0  0  0  0  0  0  0  0  0  0
  140.1650   68.5010  226.5910 S   0  0  0  0  0  0  0  0  0  0  0  0
  139.9140   69.1400  227.9180 O   0  0  0  0  0  0  0  0  0  0  0  0
  141.6160   68.0530  226.4940 O   0  0  0  0  0  0  0  0  0  0  0  0
  139.9240   69.6700  225.3250 C   0  0  0  0  0  0  0  0  0  0  0  0
  139.1230   69.4130  224.2610 C   0  0  0  0  0  0  0  0  0  0  0  0
  138.9290   70.3420  223.2510 C   0  0  0  0  0  0  0  0  0  0  0  0
  139.5530   71.5950  223.2800 C   0  0  0  0  0  0  0  0  0  0  0  0
  139.3230   72.5650  222.1770 C   0  0  0  0  0  0  0  0  0  0  0  0
  140.5170   73.1780  221.6700 N   0  0  0  0  0  0  0  0  0  0  0  0
  140.6940   74.5040  221.5290 C   0  0  0  0  0  0  0  0  0  0  0  0
  139.5930   75.4410  221.8470 C   0  0  0  0  0  0  0  0  0  0  0  0
  139.7820   76.4510  222.6880 C   0  0  0  0  0  0  0  0  0  0  0  0
  140.6560   77.5700  222.4410 C   0  0  0  0  0  0  0  0  0  0  0  0
  140.8960   78.1120  221.2010 C   0  0  0  0  0  0  0  0  0  0  0  0
  141.7490   79.1940  221.0090 C   0  0  0  0  0  0  0  0  0  0  0  0
  142.3780   79.7450  222.0960 C   0  0  0  0  0  0  0  0  0  0  0  0
  142.1250   79.1840  223.3440 C   0  0  0  0  0  0  0  0  0  0  0  0
  141.3000   78.1460  223.4820 N   0  0  0  0  0  0  0  0  0  0  0  0
  141.8460   75.0470  221.0700 N   0  0  0  0  0  0  0  0  0  0  0  0
  142.8900   74.2970  220.7220 C   0  0  0  0  0  0  0  0  0  0  0  0
  144.0510   74.8940  220.2570 C   0  0  0  0  0  0  0  0  0  0  0  0
  145.1240   74.0880  219.9010 C   0  0  0  0  0  0  0  0  0  0  0  0
  145.0010   72.7080  220.0230 C   0  0  0  0  0  0  0  0  0  0  0  0
  143.8340   72.1330  220.4900 C   0  0  0  0  0  0  0  0  0  0  0  0
  142.7610   72.9310  220.8460 C   0  0  0  0  0  0  0  0  0  0  0  0
  141.5730   72.3870  221.3190 C   0  0  0  0  0  0  0  0  0  0  0  0
  141.5360   71.1370  221.4010 O   0  0  0  0  0  0  0  0  0  0  0  0
  140.3580   71.8350  224.3650 C   0  0  0  0  0  0  0  0  0  0  0  0
  140.5530   70.8960  225.3830 C   0  0  0  0  0  0  0  0  0  0  0  0
  139.5260   66.2690  226.9480 H   0  0  0  0  0  0  0  0  0  0  0  0
  138.1950   67.2500  226.3580 H   0  0  0  0  0  0  0  0  0  0  0  0
  138.6133   68.4403  224.1980 H   0  0  0  0  0  0  0  0  0  0  0  0
  138.2698   70.0892  222.4075 H   0  0  0  0  0  0  0  0  0  0  0  0
  138.8301   72.0344  221.3490 H   0  0  0  0  0  0  0  0  0  0  0  0
  138.7062   73.3749  222.5938 H   0  0  0  0  0  0  0  0  0  0  0  0
  138.6067   75.2989  221.3811 H   0  0  0  0  0  0  0  0  0  0  0  0
  139.2325   76.4323  223.6408 H   0  0  0  0  0  0  0  0  0  0  0  0
  140.3940   77.6731  220.3262 H   0  0  0  0  0  0  0  0  0  0  0  0
  141.9164   79.6013  220.0010 H   0  0  0  0  0  0  0  0  0  0  0  0
  143.0594   80.6014  221.9850 H   0  0  0  0  0  0  0  0  0  0  0  0
  142.6153   79.6052  224.2340 H   0  0  0  0  0  0  0  0  0  0  0  0
  144.1213   75.9884  220.1714 H   0  0  0  0  0  0  0  0  0  0  0  0
  146.0576   74.5343  219.5280 H   0  0  0  0  0  0  0  0  0  0  0  0
  145.8470   72.0631  219.7430 H   0  0  0  0  0  0  0  0  0  0  0  0
  143.7581   71.0392  220.5788 H   0  0  0  0  0  0  0  0  0  0  0  0
  140.8709   72.8055  224.4371 H   0  0  0  0  0  0  0  0  0  0  0  0
  141.2098   71.1360  226.2322 H   0  0  0  0  0  0  0  0  0  0  0  0
  1  2  1  0
  2  3  2  0
  2  4  2  0
  2  5  1  0
  5  6  2  0
  6  7  1  0
  7  8  2  0
  8  9  1  0
  9 10  1  0
 10 11  1  0
 11 12  1  0
 12 13  2  0
 13 14  1  0
 14 15  2  0
 15 16  1  0
 16 17  2  0
 17 18  1  0
 18 19  2  0
 11 20  2  0
 20 21  1  0
 21 22  2  0
 22 23  1  0
 23 24  2  0
 24 25  1  0
 25 26  2  0
 26 27  1  0
 27 28  2  0
  8 29  1  0
 29 30  2  0
 30  5  1  0
 27 10  1  0
 19 14  1  0
 26 21  1  0
  1 31  1  0
  1 32  1  0
  6 33  1  0
  7 34  1  0
  9 35  1  0
  9 36  1  0
 12 37  1  0
 13 38  1  0
 15 39  1  0
 16 40  1  0
 17 41  1  0
 18 42  1  0
 22 43  1  0
 23 44  1  0
 24 45  1  0
 25 46  1  0
 29 47  1  0
 30 48  1  0
M  END
>  <smiles>  (19) 
NS(=O)(=O)c1ccc(Cn2c(/C=C/c3ccccn3)nc3ccccc3c2=O)cc1

>  <score_type>  (19) 
oracle

>  <origin>  (19) 
autodockgpu

>  <m_score__min__energy>  (19) 
-8.8399999999999999

>  <m_primary>  (19) 
energy

>  <rmsd>  (19) 
9.460914069882095

>  <m_score__min__rmsd>  (19) 
9.460914069882095

>  <meeko>  (19) 
{"free_energy": -8.55, "intermolecular_energy": -10.64, "internal_energy": -1.34, "cluster_size": 18, "cluster_id": 1, "rank_in_cluster": 11}

>  <energy>  (19) 
-8.22

>  <cluster_rmsd>  (19) 
0.0

>  <cluster>  (19) 
2

$$$$

     RDKit          3D

 48 51  0  0  0  0  0  0  0  0999 V2000
  141.2440   67.9680  226.8410 N   0  0  0  0  0  0  0  0  0  0  0  0
  139.6770   68.5420  226.5180 S   0  0  0  0  0  0  0  0  0  0  0  0
  138.7840   67.3890  226.1970 O   0  0  0  0  0  0  0  0  0  0  0  0
  139.1940   69.2410  227.7800 O   0  0  0  0  0  0  0  0  0  0  0  0
  139.5940   69.7190  225.2400 C   0  0  0  0  0  0  0  0  0  0  0  0
  138.6700   69.6320  224.2510 C   0  0  0  0  0  0  0  0  0  0  0  0
  138.6000   70.5680  223.2310 C   0  0  0  0  0  0  0  0  0  0  0  0
  139.4840   71.6530  223.1720 C   0  0  0  0  0  0  0  0  0  0  0  0
  139.3810   72.6360  222.0620 C   0  0  0  0  0  0  0  0  0  0  0  0
  140.6380   73.1800  221.6350 N   0  0  0  0  0  0  0  0  0  0  0  0
  140.9270   74.4940  221.5950 C   0  0  0  0  0  0  0  0  0  0  0  0
  139.8940   75.4950  221.9450 C   0  0  0  0  0  0  0  0  0  0  0  0
  139.9490   76.7270  221.4520 C   0  0  0  0  0  0  0  0  0  0  0  0
  140.6130   77.8350  222.0910 C   0  0  0  0  0  0  0  0  0  0  0  0
  141.8140   78.3650  221.6830 C   0  0  0  0  0  0  0  0  0  0  0  0
  142.4190   79.4370  222.3310 C   0  0  0  0  0  0  0  0  0  0  0  0
  141.7960   79.9920  223.4200 C   0  0  0  0  0  0  0  0  0  0  0  0
  140.5820   79.4430  223.8210 C   0  0  0  0  0  0  0  0  0  0  0  0
  140.0380   78.4150  223.1700 N   0  0  0  0  0  0  0  0  0  0  0  0
  142.1340   74.9690  221.2100 N   0  0  0  0  0  0  0  0  0  0  0  0
  143.1270   74.1600  220.8410 C   0  0  0  0  0  0  0  0  0  0  0  0
  144.3470   74.6880  220.4540 C   0  0  0  0  0  0  0  0  0  0  0  0
  145.3640   73.8220  220.0740 C   0  0  0  0  0  0  0  0  0  0  0  0
  145.1250   72.4520  220.0940 C   0  0  0  0  0  0  0  0  0  0  0  0
  143.8990   71.9460  220.4840 C   0  0  0  0  0  0  0  0  0  0  0  0
  142.8820   72.8030  220.8640 C   0  0  0  0  0  0  0  0  0  0  0  0
  141.6380   72.3290  221.2610 C   0  0  0  0  0  0  0  0  0  0  0  0
  141.4980   71.0850  221.2530 O   0  0  0  0  0  0  0  0  0  0  0  0
  140.4100   71.7220  224.1830 C   0  0  0  0  0  0  0  0  0  0  0  0
  140.4790   70.7760  225.2100 C   0  0  0  0  0  0  0  0  0  0  0  0
  141.9890   68.6690  226.9150 H   0  0  0  0  0  0  0  0  0  0  0  0
  141.3140   67.1330  227.4340 H   0  0  0  0  0  0  0  0  0  0  0  0
  137.9561   68.7952  224.2585 H   0  0  0  0  0  0  0  0  0  0  0  0
  137.8331   70.4562  222.4504 H   0  0  0  0  0  0  0  0  0  0  0  0
  138.9123   72.1359  221.2017 H   0  0  0  0  0  0  0  0  0  0  0  0
  138.7865   73.4794  222.4431 H   0  0  0  0  0  0  0  0  0  0  0  0
  139.0721   75.2154  222.6206 H   0  0  0  0  0  0  0  0  0  0  0  0
  139.4530   76.9148  220.4883 H   0  0  0  0  0  0  0  0  0  0  0  0
  142.3165   77.9239  220.8095 H   0  0  0  0  0  0  0  0  0  0  0  0
  143.3817   79.8334  221.9758 H   0  0  0  0  0  0  0  0  0  0  0  0
  142.2411   80.8421  223.9578 H   0  0  0  0  0  0  0  0  0  0  0  0
  140.0609   79.8658  224.6926 H   0  0  0  0  0  0  0  0  0  0  0  0
  144.5082   75.7761  220.4476 H   0  0  0  0  0  0  0  0  0  0  0  0
  146.3435   74.2135  219.7620 H   0  0  0  0  0  0  0  0  0  0  0  0
  145.9252   71.7592  219.7944 H   0  0  0  0  0  0  0  0  0  0  0  0
  143.7318   70.8588  220.4921 H   0  0  0  0  0  0  0  0  0  0  0  0
  141.1273   72.5560  224.1851 H   0  0  0  0  0  0  0  0  0  0  0  0
  141.2416   70.8752  225.9965 H   0  0  0  0  0  0  0  0  0  0  0  0
  1  2  1  0
  2  3  2  0
  2  4  2  0
  2  5  1  0
  5  6  2  0
  6  7  1  0
  7  8  2  0
  8  9  1  0
  9 10  1  0
 10 11  1  0
 11 12  1  0
 12 13  2  0
 13 14  1  0
 14 15  2  0
 15 16  1  0
 16 17  2  0
 17 18  1  0
 18 19  2  0
 11 20  2  0
 20 21  1  0
 21 22  2  0
 22 23  1  0
 23 24  2  0
 24 25  1  0
 25 26  2  0
 26 27  1  0
 27 28  2  0
  8 29  1  0
 29 30  2  0
 30  5  1  0
 27 10  1  0
 19 14  1  0
 26 21  1  0
  1 31  1  0
  1 32  1  0
  6 33  1  0
  7 34  1  0
  9 35  1  0
  9 36  1  0
 12 37  1  0
 13 38  1  0
 15 39  1  0
 16 40  1  0
 17 41  1  0
 18 42  1  0
 22 43  1  0
 23 44  1  0
 24 45  1  0
 25 46  1  0
 29 47  1  0
 30 48  1  0
M  END
>  <smiles>  (20) 
NS(=O)(=O)c1ccc(Cn2c(/C=C/c3ccccn3)nc3ccccc3c2=O)cc1

>  <score_type>  (20) 
oracle

>  <origin>  (20) 
autodockgpu

>  <m_score__min__energy>  (20) 
-8.8399999999999999

>  <m_primary>  (20) 
energy

>  <rmsd>  (20) 
9.470280189955973

>  <m_score__min__rmsd>  (20) 
9.470280189955973

>  <meeko>  (20) 
{"free_energy": -8.59, "intermolecular_energy": -10.68, "internal_energy": -1.21, "cluster_size": 18, "cluster_id": 1, "rank_in_cluster": 8}

>  <energy>  (20) 
-8.06

>  <cluster_rmsd>  (20) 
0.25

>  <cluster>  (20) 
2

$$$$

     RDKit          3D

 48 51  0  0  0  0  0  0  0  0999 V2000
  135.8870   81.4450  230.7150 N   0  0  0  0  0  0  0  0  0  0  0  0
  134.6330   81.5860  229.5750 S   0  0  0  0  0  0  0  0  0  0  0  0
  133.6280   80.5060  229.8080 O   0  0  0  0  0  0  0  0  0  0  0  0
  133.9930   82.9500  229.7900 O   0  0  0  0  0  0  0  0  0  0  0  0
  135.1610   81.5460  227.9180 C   0  0  0  0  0  0  0  0  0  0  0  0
  136.3500   82.0750  227.5370 C   0  0  0  0  0  0  0  0  0  0  0  0
  136.7750   82.0440  226.2170 C   0  0  0  0  0  0  0  0  0  0  0  0
  135.9920   81.4630  225.2110 C   0  0  0  0  0  0  0  0  0  0  0  0
  136.4790   81.4510  223.8070 C   0  0  0  0  0  0  0  0  0  0  0  0
  137.2180   80.2750  223.4470 N   0  0  0  0  0  0  0  0  0  0  0  0
  136.6760   79.1670  222.9100 C   0  0  0  0  0  0  0  0  0  0  0  0
  135.2130   79.0750  222.7100 C   0  0  0  0  0  0  0  0  0  0  0  0
  134.5900   77.9040  222.7870 C   0  0  0  0  0  0  0  0  0  0  0  0
  134.5990   77.0450  223.9430 C   0  0  0  0  0  0  0  0  0  0  0  0
  133.8470   77.2520  225.0750 C   0  0  0  0  0  0  0  0  0  0  0  0
  133.8890   76.3950  226.1700 C   0  0  0  0  0  0  0  0  0  0  0  0
  134.7110   75.2980  226.1240 C   0  0  0  0  0  0  0  0  0  0  0  0
  135.4660   75.1030  224.9710 C   0  0  0  0  0  0  0  0  0  0  0  0
  135.3950   75.9510  223.9450 N   0  0  0  0  0  0  0  0  0  0  0  0
  137.4110   78.0850  222.5590 N   0  0  0  0  0  0  0  0  0  0  0  0
  138.7320   78.0450  222.7260 C   0  0  0  0  0  0  0  0  0  0  0  0
  139.4460   76.9180  222.3540 C   0  0  0  0  0  0  0  0  0  0  0  0
  140.8230   76.9030  222.5390 C   0  0  0  0  0  0  0  0  0  0  0  0
  141.4410   78.0200  223.0910 C   0  0  0  0  0  0  0  0  0  0  0  0
  140.7090   79.1350  223.4560 C   0  0  0  0  0  0  0  0  0  0  0  0
  139.3370   79.1560  223.2740 C   0  0  0  0  0  0  0  0  0  0  0  0
  138.5710   80.2590  223.6290 C   0  0  0  0  0  0  0  0  0  0  0  0
  139.1980   81.2260  224.1210 O   0  0  0  0  0  0  0  0  0  0  0  0
  134.7940   80.9340  225.6190 C   0  0  0  0  0  0  0  0  0  0  0  0
  134.3680   80.9660  226.9510 C   0  0  0  0  0  0  0  0  0  0  0  0
  136.0040   80.5310  231.1640 H   0  0  0  0  0  0  0  0  0  0  0  0
  136.7290   82.0020  230.5400 H   0  0  0  0  0  0  0  0  0  0  0  0
  136.9954   82.5416  228.2958 H   0  0  0  0  0  0  0  0  0  0  0  0
  137.7478   82.4851  225.9544 H   0  0  0  0  0  0  0  0  0  0  0  0
  135.6078   81.5278  223.1398 H   0  0  0  0  0  0  0  0  0  0  0  0
  137.1711   82.3001  223.7071 H   0  0  0  0  0  0  0  0  0  0  0  0
  134.6348   79.9858  222.4953 H   0  0  0  0  0  0  0  0  0  0  0  0
  134.0269   77.5663  221.9045 H   0  0  0  0  0  0  0  0  0  0  0  0
  133.1858   78.1301  225.1166 H   0  0  0  0  0  0  0  0  0  0  0  0
  133.2725   76.5941  227.0590 H   0  0  0  0  0  0  0  0  0  0  0  0
  134.7715   74.5965  226.9691 H   0  0  0  0  0  0  0  0  0  0  0  0
  136.1345   74.2319  224.9052 H   0  0  0  0  0  0  0  0  0  0  0  0
  138.9311   76.0487  221.9190 H   0  0  0  0  0  0  0  0  0  0  0  0
  141.4153   76.0212  222.2533 H   0  0  0  0  0  0  0  0  0  0  0  0
  142.5309   78.0164  223.2398 H   0  0  0  0  0  0  0  0  0  0  0  0
  141.2182   80.0072  223.8919 H   0  0  0  0  0  0  0  0  0  0  0  0
  134.1414   80.4653  224.8678 H   0  0  0  0  0  0  0  0  0  0  0  0
  133.3979   80.5273  227.2275 H   0  0  0  0  0  0  0  0  0  0  0  0
  1  2  1  0
  2  3  2  0
  2  4  2  0
  2  5  1  0
  5  6  2  0
  6  7  1  0
  7  8  2  0
  8  9  1  0
  9 10  1  0
 10 11  1  0
 11 12  1  0
 12 13  2  0
 13 14  1  0
 14 15  2  0
 15 16  1  0
 16 17  2  0
 17 18  1  0
 18 19  2  0
 11 20  2  0
 20 21  1  0
 21 22  2  0
 22 23  1  0
 23 24  2  0
 24 25  1  0
 25 26  2  0
 26 27  1  0
 27 28  2  0
  8 29  1  0
 29 30  2  0
 30  5  1  0
 27 10  1  0
 19 14  1  0
 26 21  1  0
  1 31  1  0
  1 32  1  0
  6 33  1  0
  7 34  1  0
  9 35  1  0
  9 36  1  0
 12 37  1  0
 13 38  1  0
 15 39  1  0
 16 40  1  0
 17 41  1  0
 18 42  1  0
 22 43  1  0
 23 44  1  0
 24 45  1  0
 25 46  1  0
 29 47  1  0
 30 48  1  0
M  END
>  <smiles>  (21) 
NS(=O)(=O)c1ccc(Cn2c(/C=C/c3ccccn3)nc3ccccc3c2=O)cc1

>  <score_type>  (21) 
oracle

>  <origin>  (21) 
autodockgpu

>  <m_score__min__energy>  (21) 
-8.8399999999999999

>  <m_primary>  (21) 
energy

>  <rmsd>  (21) 
6.34223135283808

>  <m_score__min__rmsd>  (21) 
6.34223135283808

>  <meeko>  (21) 
{"free_energy": -7.62, "intermolecular_energy": -9.71, "internal_energy": -1.73, "cluster_size": 4, "cluster_id": 5, "rank_in_cluster": 2}

>  <energy>  (21) 
-8.06

>  <cluster_rmsd>  (21) 
0.23

>  <cluster>  (21) 
2

$$$$

     RDKit          3D

 48 51  0  0  0  0  0  0  0  0999 V2000
  143.7200   75.3880  219.8390 N   0  0  0  0  0  0  0  0  0  0  0  0
  143.8200   73.7260  220.1810 S   0  0  0  0  0  0  0  0  0  0  0  0
  144.1920   72.9860  218.9390 O   0  0  0  0  0  0  0  0  0  0  0  0
  144.9050   73.5570  221.2340 O   0  0  0  0  0  0  0  0  0  0  0  0
  142.3680   73.0440  220.8560 C   0  0  0  0  0  0  0  0  0  0  0  0
  142.1450   71.7070  220.8590 C   0  0  0  0  0  0  0  0  0  0  0  0
  140.9900   71.1600  221.3970 C   0  0  0  0  0  0  0  0  0  0  0  0
  139.9940   71.9660  221.9630 C   0  0  0  0  0  0  0  0  0  0  0  0
  138.7680   71.3440  222.5270 C   0  0  0  0  0  0  0  0  0  0  0  0
  139.0110   70.4230  223.5990 N   0  0  0  0  0  0  0  0  0  0  0  0
  138.5650   69.1530  223.6310 C   0  0  0  0  0  0  0  0  0  0  0  0
  137.7070   68.6370  222.5410 C   0  0  0  0  0  0  0  0  0  0  0  0
  136.3860   68.6030  222.6750 C   0  0  0  0  0  0  0  0  0  0  0  0
  135.6530   69.2540  223.7310 C   0  0  0  0  0  0  0  0  0  0  0  0
  135.6390   70.6110  223.9480 C   0  0  0  0  0  0  0  0  0  0  0  0
  134.9160   71.1970  224.9820 C   0  0  0  0  0  0  0  0  0  0  0  0
  134.1850   70.3930  225.8200 C   0  0  0  0  0  0  0  0  0  0  0  0
  134.2100   69.0210  225.5860 C   0  0  0  0  0  0  0  0  0  0  0  0
  134.9180   68.5030  224.5830 N   0  0  0  0  0  0  0  0  0  0  0  0
  138.8370   68.3040  224.6500 N   0  0  0  0  0  0  0  0  0  0  0  0
  139.5700   68.6720  225.6990 C   0  0  0  0  0  0  0  0  0  0  0  0
  139.8240   67.7710  226.7200 C   0  0  0  0  0  0  0  0  0  0  0  0
  140.5920   68.1820  227.8030 C   0  0  0  0  0  0  0  0  0  0  0  0
  141.0810   69.4840  227.8270 C   0  0  0  0  0  0  0  0  0  0  0  0
  140.8150   70.3670  226.7970 C   0  0  0  0  0  0  0  0  0  0  0  0
  140.0510   69.9640  225.7160 C   0  0  0  0  0  0  0  0  0  0  0  0
  139.7650   70.8250  224.6640 C   0  0  0  0  0  0  0  0  0  0  0  0
  140.2390   71.9810  224.7570 O   0  0  0  0  0  0  0  0  0  0  0  0
  140.2420   73.3160  221.9500 C   0  0  0  0  0  0  0  0  0  0  0  0
  141.4070   73.8650  221.4080 C   0  0  0  0  0  0  0  0  0  0  0  0
  143.3970   75.9990  220.5960 H   0  0  0  0  0  0  0  0  0  0  0  0
  144.4160   75.7640  219.1860 H   0  0  0  0  0  0  0  0  0  0  0  0
  142.9010   71.0376  220.4227 H   0  0  0  0  0  0  0  0  0  0  0  0
  140.8529   70.0687  221.3789 H   0  0  0  0  0  0  0  0  0  0  0  0
  138.1170   72.1467  222.9038 H   0  0  0  0  0  0  0  0  0  0  0  0
  138.3069   70.7646  221.7135 H   0  0  0  0  0  0  0  0  0  0  0  0
  138.1685   68.2776  221.6094 H   0  0  0  0  0  0  0  0  0  0  0  0
  135.8108   68.0378  221.9268 H   0  0  0  0  0  0  0  0  0  0  0  0
  136.2225   71.2593  223.2777 H   0  0  0  0  0  0  0  0  0  0  0  0
  134.9301   72.2875  225.1256 H   0  0  0  0  0  0  0  0  0  0  0  0
  133.5993   70.8181  226.6484 H   0  0  0  0  0  0  0  0  0  0  0  0
  133.6341   68.3515  226.2418 H   0  0  0  0  0  0  0  0  0  0  0  0
  139.4245   66.7471  226.6744 H   0  0  0  0  0  0  0  0  0  0  0  0
  140.8098   67.4883  228.6285 H   0  0  0  0  0  0  0  0  0  0  0  0
  141.6900   69.8169  228.6804 H   0  0  0  0  0  0  0  0  0  0  0  0
  141.2116   71.3922  226.8369 H   0  0  0  0  0  0  0  0  0  0  0  0
  139.4924   73.9939  222.3843 H   0  0  0  0  0  0  0  0  0  0  0  0
  141.5580   74.9545  221.4216 H   0  0  0  0  0  0  0  0  0  0  0  0
  1  2  1  0
  2  3  2  0
  2  4  2  0
  2  5  1  0
  5  6  2  0
  6  7  1  0
  7  8  2  0
  8  9  1  0
  9 10  1  0
 10 11  1  0
 11 12  1  0
 12 13  2  0
 13 14  1  0
 14 15  2  0
 15 16  1  0
 16 17  2  0
 17 18  1  0
 18 19  2  0
 11 20  2  0
 20 21  1  0
 21 22  2  0
 22 23  1  0
 23 24  2  0
 24 25  1  0
 25 26  2  0
 26 27  1  0
 27 28  2  0
  8 29  1  0
 29 30  2  0
 30  5  1  0
 27 10  1  0
 19 14  1  0
 26 21  1  0
  1 31  1  0
  1 32  1  0
  6 33  1  0
  7 34  1  0
  9 35  1  0
  9 36  1  0
 12 37  1  0
 13 38  1  0
 15 39  1  0
 16 40  1  0
 17 41  1  0
 18 42  1  0
 22 43  1  0
 23 44  1  0
 24 45  1  0
 25 46  1  0
 29 47  1  0
 30 48  1  0
M  END
>  <smiles>  (22) 
NS(=O)(=O)c1ccc(Cn2c(/C=C/c3ccccn3)nc3ccccc3c2=O)cc1

>  <score_type>  (22) 
oracle

>  <origin>  (22) 
autodockgpu

>  <m_score__min__energy>  (22) 
-8.8399999999999999

>  <m_primary>  (22) 
energy

>  <rmsd>  (22) 
10.024029289557499

>  <m_score__min__rmsd>  (22) 
10.024029289557499

>  <meeko>  (22) 
{"free_energy": -8.02, "intermolecular_energy": -10.11, "internal_energy": -1.58, "cluster_size": 13, "cluster_id": 2, "rank_in_cluster": 5}

>  <energy>  (22) 
-8.05

>  <cluster_rmsd>  (22) 
0.27

>  <cluster>  (22) 
2

$$$$

     RDKit          3D

 48 51  0  0  0  0  0  0  0  0999 V2000
  141.0190   67.8530  227.4380 N   0  0  0  0  0  0  0  0  0  0  0  0
  140.3320   69.4060  227.5170 S   0  0  0  0  0  0  0  0  0  0  0  0
  139.1210   69.3680  228.3900 O   0  0  0  0  0  0  0  0  0  0  0  0
  141.3830   70.3240  228.1220 O   0  0  0  0  0  0  0  0  0  0  0  0
  139.9160   70.0850  225.9700 C   0  0  0  0  0  0  0  0  0  0  0  0
  140.7280   70.9700  225.3400 C   0  0  0  0  0  0  0  0  0  0  0  0
  140.4000   71.5130  224.1070 C   0  0  0  0  0  0  0  0  0  0  0  0
  139.2110   71.1730  223.4510 C   0  0  0  0  0  0  0  0  0  0  0  0
  138.8920   71.7780  222.1320 C   0  0  0  0  0  0  0  0  0  0  0  0
  138.5720   73.1760  222.1830 N   0  0  0  0  0  0  0  0  0  0  0  0
  137.3280   73.6700  222.3250 C   0  0  0  0  0  0  0  0  0  0  0  0
  136.1650   72.7570  222.3750 C   0  0  0  0  0  0  0  0  0  0  0  0
  135.6780   72.3400  223.5380 C   0  0  0  0  0  0  0  0  0  0  0  0
  135.0320   73.1890  224.5070 C   0  0  0  0  0  0  0  0  0  0  0  0
  134.0160   72.7870  225.3420 C   0  0  0  0  0  0  0  0  0  0  0  0
  133.4210   73.6430  226.2630 C   0  0  0  0  0  0  0  0  0  0  0  0
  133.8620   74.9390  226.3470 C   0  0  0  0  0  0  0  0  0  0  0  0
  134.8900   75.3300  225.4950 C   0  0  0  0  0  0  0  0  0  0  0  0
  135.4320   74.4760  224.6260 N   0  0  0  0  0  0  0  0  0  0  0  0
  137.0690   74.9970  222.3960 N   0  0  0  0  0  0  0  0  0  0  0  0
  138.0360   75.9100  222.3270 C   0  0  0  0  0  0  0  0  0  0  0  0
  137.7260   77.2580  222.4030 C   0  0  0  0  0  0  0  0  0  0  0  0
  138.7550   78.1890  222.3290 C   0  0  0  0  0  0  0  0  0  0  0  0
  140.0620   77.7390  222.1820 C   0  0  0  0  0  0  0  0  0  0  0  0
  140.3490   76.3890  222.1080 C   0  0  0  0  0  0  0  0  0  0  0  0
  139.3300   75.4560  222.1810 C   0  0  0  0  0  0  0  0  0  0  0  0
  139.5820   74.0920  222.1100 C   0  0  0  0  0  0  0  0  0  0  0  0
  140.7830   73.7630  221.9760 O   0  0  0  0  0  0  0  0  0  0  0  0
  138.4050   70.2760  224.1060 C   0  0  0  0  0  0  0  0  0  0  0  0
  138.7370   69.7300  225.3500 C   0  0  0  0  0  0  0  0  0  0  0  0
  141.9930   67.7610  227.7420 H   0  0  0  0  0  0  0  0  0  0  0  0
  140.3880   67.0630  227.6130 H   0  0  0  0  0  0  0  0  0  0  0  0
  141.6726   71.2651  225.8203 H   0  0  0  0  0  0  0  0  0  0  0  0
  141.0898   72.2272  223.6336 H   0  0  0  0  0  0  0  0  0  0  0  0
  139.7640   71.6484  221.4741 H   0  0  0  0  0  0  0  0  0  0  0  0
  137.9938   71.2637  221.7596 H   0  0  0  0  0  0  0  0  0  0  0  0
  135.6982   72.4196  221.4379 H   0  0  0  0  0  0  0  0  0  0  0  0
  135.7745   71.2710  223.7787 H   0  0  0  0  0  0  0  0  0  0  0  0
  133.6600   71.7481  225.2792 H   0  0  0  0  0  0  0  0  0  0  0  0
  132.6093   73.2860  226.9139 H   0  0  0  0  0  0  0  0  0  0  0  0
  133.4179   75.6454  227.0638 H   0  0  0  0  0  0  0  0  0  0  0  0
  135.2630   76.3639  225.5390 H   0  0  0  0  0  0  0  0  0  0  0  0
  136.6826   77.5860  222.5200 H   0  0  0  0  0  0  0  0  0  0  0  0
  138.5385   79.2660  222.3859 H   0  0  0  0  0  0  0  0  0  0  0  0
  140.8820   78.4699  222.1236 H   0  0  0  0  0  0  0  0  0  0  0  0
  141.3906   76.0554  221.9907 H   0  0  0  0  0  0  0  0  0  0  0  0
  137.4589   69.9740  223.6331 H   0  0  0  0  0  0  0  0  0  0  0  0
  138.0556   69.0155  225.8350 H   0  0  0  0  0  0  0  0  0  0  0  0
  1  2  1  0
  2  3  2  0
  2  4  2  0
  2  5  1  0
  5  6  2  0
  6  7  1  0
  7  8  2  0
  8  9  1  0
  9 10  1  0
 10 11  1  0
 11 12  1  0
 12 13  2  0
 13 14  1  0
 14 15  2  0
 15 16  1  0
 16 17  2  0
 17 18  1  0
 18 19  2  0
 11 20  2  0
 20 21  1  0
 21 22  2  0
 22 23  1  0
 23 24  2  0
 24 25  1  0
 25 26  2  0
 26 27  1  0
 27 28  2  0
  8 29  1  0
 29 30  2  0
 30  5  1  0
 27 10  1  0
 19 14  1  0
 26 21  1  0
  1 31  1  0
  1 32  1  0
  6 33  1  0
  7 34  1  0
  9 35  1  0
  9 36  1  0
 12 37  1  0
 13 38  1  0
 15 39  1  0
 16 40  1  0
 17 41  1  0
 18 42  1  0
 22 43  1  0
 23 44  1  0
 24 45  1  0
 25 46  1  0
 29 47  1  0
 30 48  1  0
M  END
>  <smiles>  (23) 
NS(=O)(=O)c1ccc(Cn2c(/C=C/c3ccccn3)nc3ccccc3c2=O)cc1

>  <score_type>  (23) 
oracle

>  <origin>  (23) 
autodockgpu

>  <m_score__min__energy>  (23) 
-8.8399999999999999

>  <m_primary>  (23) 
energy

>  <rmsd>  (23) 
8.92549797637647

>  <m_score__min__rmsd>  (23) 
8.92549797637647

>  <meeko>  (23) 
{"free_energy": -7.67, "intermolecular_energy": -9.76, "internal_energy": -1.55, "cluster_size": 3, "cluster_id": 6, "rank_in_cluster": 1}

>  <energy>  (23) 
-8.02

>  <cluster_rmsd>  (23) 
0.32

>  <cluster>  (23) 
2

$$$$

     RDKit          3D

 48 51  0  0  0  0  0  0  0  0999 V2000
  141.3940   68.1070  226.5710 N   0  0  0  0  0  0  0  0  0  0  0  0
  139.8150   68.6450  226.2430 S   0  0  0  0  0  0  0  0  0  0  0  0
  138.9470   67.4710  225.9290 O   0  0  0  0  0  0  0  0  0  0  0  0
  139.3150   69.3420  227.5000 O   0  0  0  0  0  0  0  0  0  0  0  0
  139.7080   69.8120  224.9570 C   0  0  0  0  0  0  0  0  0  0  0  0
  140.4030   70.9750  224.9910 C   0  0  0  0  0  0  0  0  0  0  0  0
  140.3210   71.9070  223.9680 C   0  0  0  0  0  0  0  0  0  0  0  0
  139.5110   71.6910  222.8460 C   0  0  0  0  0  0  0  0  0  0  0  0
  139.4450   72.7140  221.7700 C   0  0  0  0  0  0  0  0  0  0  0  0
  140.7190   73.2480  221.3830 N   0  0  0  0  0  0  0  0  0  0  0  0
  140.9940   74.5600  221.2650 C   0  0  0  0  0  0  0  0  0  0  0  0
  139.9290   75.5660  221.4770 C   0  0  0  0  0  0  0  0  0  0  0  0
  140.0430   76.4830  222.4320 C   0  0  0  0  0  0  0  0  0  0  0  0
  140.8440   77.6760  222.3300 C   0  0  0  0  0  0  0  0  0  0  0  0
  141.0490   78.3810  221.1680 C   0  0  0  0  0  0  0  0  0  0  0  0
  141.8320   79.5290  221.1170 C   0  0  0  0  0  0  0  0  0  0  0  0
  142.4250   79.9810  222.2680 C   0  0  0  0  0  0  0  0  0  0  0  0
  142.2080   79.2550  223.4360 C   0  0  0  0  0  0  0  0  0  0  0  0
  141.4500   78.1590  223.4390 N   0  0  0  0  0  0  0  0  0  0  0  0
  142.2170   75.0270  220.9210 N   0  0  0  0  0  0  0  0  0  0  0  0
  143.2410   74.2100  220.6730 C   0  0  0  0  0  0  0  0  0  0  0  0
  144.4760   74.7310  220.3250 C   0  0  0  0  0  0  0  0  0  0  0  0
  145.5250   73.8560  220.0710 C   0  0  0  0  0  0  0  0  0  0  0  0
  145.3030   72.4880  220.1760 C   0  0  0  0  0  0  0  0  0  0  0  0
  144.0620   71.9900  220.5260 C   0  0  0  0  0  0  0  0  0  0  0  0
  143.0120   72.8550  220.7790 C   0  0  0  0  0  0  0  0  0  0  0  0
  141.7520   72.3900  221.1330 C   0  0  0  0  0  0  0  0  0  0  0  0
  141.6280   71.1450  221.2070 O   0  0  0  0  0  0  0  0  0  0  0  0
  138.8170   70.5070  222.8320 C   0  0  0  0  0  0  0  0  0  0  0  0
  138.9010   69.5690  223.8650 C   0  0  0  0  0  0  0  0  0  0  0  0
  141.9550   67.7980  225.7710 H   0  0  0  0  0  0  0  0  0  0  0  0
  141.8820   68.5660  227.3480 H   0  0  0  0  0  0  0  0  0  0  0  0
  141.0506   71.1854  225.8549 H   0  0  0  0  0  0  0  0  0  0  0  0
  140.9049   72.8365  224.0390 H   0  0  0  0  0  0  0  0  0  0  0  0
  138.9815   72.2535  220.8851 H   0  0  0  0  0  0  0  0  0  0  0  0
  138.8601   73.5549  222.1709 H   0  0  0  0  0  0  0  0  0  0  0  0
  139.0341   75.5544  220.8375 H   0  0  0  0  0  0  0  0  0  0  0  0
  139.4863   76.3195  223.3666 H   0  0  0  0  0  0  0  0  0  0  0  0
  140.5751   78.0230  220.2421 H   0  0  0  0  0  0  0  0  0  0  0  0
  141.9736   80.0665  220.1678 H   0  0  0  0  0  0  0  0  0  0  0  0
  143.0505   80.8859  222.2684 H   0  0  0  0  0  0  0  0  0  0  0  0
  142.6713   79.5927  224.3748 H   0  0  0  0  0  0  0  0  0  0  0  0
  144.6239   75.8185  220.2510 H   0  0  0  0  0  0  0  0  0  0  0  0
  146.5168   74.2404  219.7909 H   0  0  0  0  0  0  0  0  0  0  0  0
  146.1292   71.7895  219.9771 H   0  0  0  0  0  0  0  0  0  0  0  0
  143.9087   70.9035  220.6036 H   0  0  0  0  0  0  0  0  0  0  0  0
  138.1675   70.2870  221.9719 H   0  0  0  0  0  0  0  0  0  0  0  0
  138.3224   68.6353  223.8070 H   0  0  0  0  0  0  0  0  0  0  0  0
  1  2  1  0
  2  3  2  0
  2  4  2  0
  2  5  1  0
  5  6  2  0
  6  7  1  0
  7  8  2  0
  8  9  1  0
  9 10  1  0
 10 11  1  0
 11 12  1  0
 12 13  2  0
 13 14  1  0
 14 15  2  0
 15 16  1  0
 16 17  2  0
 17 18  1  0
 18 19  2  0
 11 20  2  0
 20 21  1  0
 21 22  2  0
 22 23  1  0
 23 24  2  0
 24 25  1  0
 25 26  2  0
 26 27  1  0
 27 28  2  0
  8 29  1  0
 29 30  2  0
 30  5  1  0
 27 10  1  0
 19 14  1  0
 26 21  1  0
  1 31  1  0
  1 32  1  0
  6 33  1  0
  7 34  1  0
  9 35  1  0
  9 36  1  0
 12 37  1  0
 13 38  1  0
 15 39  1  0
 16 40  1  0
 17 41  1  0
 18 42  1  0
 22 43  1  0
 23 44  1  0
 24 45  1  0
 25 46  1  0
 29 47  1  0
 30 48  1  0
M  END
>  <smiles>  (24) 
NS(=O)(=O)c1ccc(Cn2c(/C=C/c3ccccn3)nc3ccccc3c2=O)cc1

>  <score_type>  (24) 
oracle

>  <origin>  (24) 
autodockgpu

>  <m_score__min__energy>  (24) 
-8.8399999999999999

>  <m_primary>  (24) 
energy

>  <rmsd>  (24) 
9.268501289875573

>  <m_score__min__rmsd>  (24) 
9.268501289875573

>  <meeko>  (24) 
{"free_energy": -8.46, "intermolecular_energy": -10.55, "internal_energy": -1.23, "cluster_size": 18, "cluster_id": 1, "rank_in_cluster": 14}

>  <energy>  (24) 
-8.01

>  <cluster_rmsd>  (24) 
0.34

>  <cluster>  (24) 
2

$$$$

     RDKit          3D

 48 51  0  0  0  0  0  0  0  0999 V2000
  139.2090   67.3010  226.3930 N   0  0  0  0  0  0  0  0  0  0  0  0
  139.9200   68.8180  226.6810 S   0  0  0  0  0  0  0  0  0  0  0  0
  139.3370   69.4100  227.9220 O   0  0  0  0  0  0  0  0  0  0  0  0
  141.4110   68.5790  226.8670 O   0  0  0  0  0  0  0  0  0  0  0  0
  139.7620   69.9460  225.3650 C   0  0  0  0  0  0  0  0  0  0  0  0
  140.6310   70.9730  225.2000 C   0  0  0  0  0  0  0  0  0  0  0  0
  140.5090   71.8740  224.1530 C   0  0  0  0  0  0  0  0  0  0  0  0
  139.4770   71.7650  223.2120 C   0  0  0  0  0  0  0  0  0  0  0  0
  139.3760   72.7510  222.1050 C   0  0  0  0  0  0  0  0  0  0  0  0
  140.6370   73.2600  221.6490 N   0  0  0  0  0  0  0  0  0  0  0  0
  140.9600   74.5650  221.5960 C   0  0  0  0  0  0  0  0  0  0  0  0
  139.9620   75.5950  221.9630 C   0  0  0  0  0  0  0  0  0  0  0  0
  140.0440   76.8260  221.4710 C   0  0  0  0  0  0  0  0  0  0  0  0
  140.5510   77.9640  222.1950 C   0  0  0  0  0  0  0  0  0  0  0  0
  139.8460   78.6570  223.1510 C   0  0  0  0  0  0  0  0  0  0  0  0
  140.3760   79.7520  223.8260 C   0  0  0  0  0  0  0  0  0  0  0  0
  141.6520   80.1600  223.5310 C   0  0  0  0  0  0  0  0  0  0  0  0
  142.3510   79.4490  222.5610 C   0  0  0  0  0  0  0  0  0  0  0  0
  141.8040   78.4050  221.9380 N   0  0  0  0  0  0  0  0  0  0  0  0
  142.1710   75.0070  221.1840 N   0  0  0  0  0  0  0  0  0  0  0  0
  143.1340   74.1700  220.7980 C   0  0  0  0  0  0  0  0  0  0  0  0
  144.3590   74.6650  220.3820 C   0  0  0  0  0  0  0  0  0  0  0  0
  145.3440   73.7700  219.9850 C   0  0  0  0  0  0  0  0  0  0  0  0
  145.0700   72.4070  220.0170 C   0  0  0  0  0  0  0  0  0  0  0  0
  143.8400   71.9350  220.4350 C   0  0  0  0  0  0  0  0  0  0  0  0
  142.8540   72.8210  220.8320 C   0  0  0  0  0  0  0  0  0  0  0  0
  141.6070   72.3820  221.2580 C   0  0  0  0  0  0  0  0  0  0  0  0
  141.4330   71.1410  221.2580 O   0  0  0  0  0  0  0  0  0  0  0  0
  138.6090   70.7180  223.3980 C   0  0  0  0  0  0  0  0  0  0  0  0
  138.7340   69.8120  224.4550 C   0  0  0  0  0  0  0  0  0  0  0  0
  139.5440   66.5160  226.9620 H   0  0  0  0  0  0  0  0  0  0  0  0
  138.2220   67.3030  226.1150 H   0  0  0  0  0  0  0  0  0  0  0  0
  141.4563   71.0952  225.9169 H   0  0  0  0  0  0  0  0  0  0  0  0
  141.2384   72.6920  224.0593 H   0  0  0  0  0  0  0  0  0  0  0  0
  138.8737   72.2647  221.2557 H   0  0  0  0  0  0  0  0  0  0  0  0
  138.8144   73.6105  222.4999 H   0  0  0  0  0  0  0  0  0  0  0  0
  139.1432   75.3379  222.6510 H   0  0  0  0  0  0  0  0  0  0  0  0
  139.7009   76.9881  220.4385 H   0  0  0  0  0  0  0  0  0  0  0  0
  138.8227   78.3328  223.3915 H   0  0  0  0  0  0  0  0  0  0  0  0
  139.7812   80.2822  224.5843 H   0  0  0  0  0  0  0  0  0  0  0  0
  142.1070   81.0201  224.0440 H   0  0  0  0  0  0  0  0  0  0  0  0
  143.3757   79.7543  222.3028 H   0  0  0  0  0  0  0  0  0  0  0  0
  144.5484   75.7485  220.3664 H   0  0  0  0  0  0  0  0  0  0  0  0
  146.3265   74.1340  219.6501 H   0  0  0  0  0  0  0  0  0  0  0  0
  145.8455   71.6922  219.7043 H   0  0  0  0  0  0  0  0  0  0  0  0
  143.6445   70.8526  220.4521 H   0  0  0  0  0  0  0  0  0  0  0  0
  137.7810   70.5866  222.6859 H   0  0  0  0  0  0  0  0  0  0  0  0
  138.0108   68.9900  224.5614 H   0  0  0  0  0  0  0  0  0  0  0  0
  1  2  1  0
  2  3  2  0
  2  4  2  0
  2  5  1  0
  5  6  2  0
  6  7  1  0
  7  8  2  0
  8  9  1  0
  9 10  1  0
 10 11  1  0
 11 12  1  0
 12 13  2  0
 13 14  1  0
 14 15  2  0
 15 16  1  0
 16 17  2  0
 17 18  1  0
 18 19  2  0
 11 20  2  0
 20 21  1  0
 21 22  2  0
 22 23  1  0
 23 24  2  0
 24 25  1  0
 25 26  2  0
 26 27  1  0
 27 28  2  0
  8 29  1  0
 29 30  2  0
 30  5  1  0
 27 10  1  0
 19 14  1  0
 26 21  1  0
  1 31  1  0
  1 32  1  0
  6 33  1  0
  7 34  1  0
  9 35  1  0
  9 36  1  0
 12 37  1  0
 13 38  1  0
 15 39  1  0
 16 40  1  0
 17 41  1  0
 18 42  1  0
 22 43  1  0
 23 44  1  0
 24 45  1  0
 25 46  1  0
 29 47  1  0
 30 48  1  0
M  END
>  <smiles>  (25) 
NS(=O)(=O)c1ccc(Cn2c(/C=C/c3ccccn3)nc3ccccc3c2=O)cc1

>  <score_type>  (25) 
oracle

>  <origin>  (25) 
autodockgpu

>  <m_score__min__energy>  (25) 
-8.8399999999999999

>  <m_primary>  (25) 
energy

>  <rmsd>  (25) 
9.210082223137926

>  <m_score__min__rmsd>  (25) 
9.210082223137926

>  <meeko>  (25) 
{"free_energy": -8.74, "intermolecular_energy": -10.82, "internal_energy": -1.14, "cluster_size": 18, "cluster_id": 1, "rank_in_cluster": 4}

>  <energy>  (25) 
-7.83

>  <cluster_rmsd>  (25) 
1.36

>  <cluster>  (25) 
2

$$$$

     RDKit          3D

 48 51  0  0  0  0  0  0  0  0999 V2000
  139.5970   68.9740  228.0590 N   0  0  0  0  0  0  0  0  0  0  0  0
  140.0790   68.4690  226.5090 S   0  0  0  0  0  0  0  0  0  0  0  0
  141.4970   68.0030  226.5590 O   0  0  0  0  0  0  0  0  0  0  0  0
  139.1650   67.3180  226.1150 O   0  0  0  0  0  0  0  0  0  0  0  0
  139.9050   69.6810  225.2720 C   0  0  0  0  0  0  0  0  0  0  0  0
  138.9390   69.5970  224.3240 C   0  0  0  0  0  0  0  0  0  0  0  0
  138.7970   70.5620  223.3380 C   0  0  0  0  0  0  0  0  0  0  0  0
  139.6490   71.6720  223.2740 C   0  0  0  0  0  0  0  0  0  0  0  0
  139.4690   72.6840  222.2000 C   0  0  0  0  0  0  0  0  0  0  0  0
  140.6940   73.1990  221.6600 N   0  0  0  0  0  0  0  0  0  0  0  0
  141.0040   74.5060  221.5790 C   0  0  0  0  0  0  0  0  0  0  0  0
  140.0250   75.5310  222.0050 C   0  0  0  0  0  0  0  0  0  0  0  0
  140.0450   76.7500  221.4760 C   0  0  0  0  0  0  0  0  0  0  0  0
  140.6190   77.9080  222.1120 C   0  0  0  0  0  0  0  0  0  0  0  0
  141.8240   78.4720  221.7650 C   0  0  0  0  0  0  0  0  0  0  0  0
  142.3400   79.5920  222.4080 C   0  0  0  0  0  0  0  0  0  0  0  0
  141.6220   80.1620  223.4280 C   0  0  0  0  0  0  0  0  0  0  0  0
  140.4050   79.5790  223.7670 C   0  0  0  0  0  0  0  0  0  0  0  0
  139.9480   78.5050  223.1240 N   0  0  0  0  0  0  0  0  0  0  0  0
  142.1830   74.9520  221.0860 N   0  0  0  0  0  0  0  0  0  0  0  0
  143.1230   74.1200  220.6430 C   0  0  0  0  0  0  0  0  0  0  0  0
  144.3160   74.6190  220.1450 C   0  0  0  0  0  0  0  0  0  0  0  0
  145.2790   73.7280  219.6900 C   0  0  0  0  0  0  0  0  0  0  0  0
  145.0170   72.3640  219.7470 C   0  0  0  0  0  0  0  0  0  0  0  0
  143.8200   71.8870  220.2470 C   0  0  0  0  0  0  0  0  0  0  0  0
  142.8560   72.7690  220.7030 C   0  0  0  0  0  0  0  0  0  0  0  0
  141.6420   72.3240  221.2120 C   0  0  0  0  0  0  0  0  0  0  0  0
  141.4770   71.0830  221.2310 O   0  0  0  0  0  0  0  0  0  0  0  0
  140.6180   71.7370  224.2430 C   0  0  0  0  0  0  0  0  0  0  0  0
  140.7600   70.7630  225.2360 C   0  0  0  0  0  0  0  0  0  0  0  0
  139.7040   68.2970  228.8210 H   0  0  0  0  0  0  0  0  0  0  0  0
  139.7290   69.9670  228.2790 H   0  0  0  0  0  0  0  0  0  0  0  0
  138.2493   68.7402  224.3374 H   0  0  0  0  0  0  0  0  0  0  0  0
  137.9979   70.4533  222.5899 H   0  0  0  0  0  0  0  0  0  0  0  0
  138.9005   72.2191  221.3810 H   0  0  0  0  0  0  0  0  0  0  0  0
  138.9442   73.5362  222.6564 H   0  0  0  0  0  0  0  0  0  0  0  0
  139.2727   75.2811  222.7677 H   0  0  0  0  0  0  0  0  0  0  0  0
  139.5914   76.8841  220.4829 H   0  0  0  0  0  0  0  0  0  0  0  0
  142.4028   78.0194  220.9464 H   0  0  0  0  0  0  0  0  0  0  0  0
  143.3090   80.0141  222.1032 H   0  0  0  0  0  0  0  0  0  0  0  0
  141.9954   81.0496  223.9598 H   0  0  0  0  0  0  0  0  0  0  0  0
  139.8080   80.0135  224.5823 H   0  0  0  0  0  0  0  0  0  0  0  0
  144.4972   75.7034  220.1107 H   0  0  0  0  0  0  0  0  0  0  0  0
  146.2354   74.0962  219.2903 H   0  0  0  0  0  0  0  0  0  0  0  0
  145.7751   71.6523  219.3881 H   0  0  0  0  0  0  0  0  0  0  0  0
  143.6331   70.8036  220.2826 H   0  0  0  0  0  0  0  0  0  0  0  0
  141.3118   72.5906  224.2385 H   0  0  0  0  0  0  0  0  0  0  0  0
  141.5551   70.8597  225.9900 H   0  0  0  0  0  0  0  0  0  0  0  0
  1  2  1  0
  2  3  2  0
  2  4  2  0
  2  5  1  0
  5  6  2  0
  6  7  1  0
  7  8  2  0
  8  9  1  0
  9 10  1  0
 10 11  1  0
 11 12  1  0
 12 13  2  0
 13 14  1  0
 14 15  2  0
 15 16  1  0
 16 17  2  0
 17 18  1  0
 18 19  2  0
 11 20  2  0
 20 21  1  0
 21 22  2  0
 22 23  1  0
 23 24  2  0
 24 25  1  0
 25 26  2  0
 26 27  1  0
 27 28  2  0
  8 29  1  0
 29 30  2  0
 30  5  1  0
 27 10  1  0
 19 14  1  0
 26 21  1  0
  1 31  1  0
  1 32  1  0
  6 33  1  0
  7 34  1  0
  9 35  1  0
  9 36  1  0
 12 37  1  0
 13 38  1  0
 15 39  1  0
 16 40  1  0
 17 41  1  0
 18 42  1  0
 22 43  1  0
 23 44  1  0
 24 45  1  0
 25 46  1  0
 29 47  1  0
 30 48  1  0
M  END
>  <smiles>  (26) 
NS(=O)(=O)c1ccc(Cn2c(/C=C/c3ccccn3)nc3ccccc3c2=O)cc1

>  <score_type>  (26) 
oracle

>  <origin>  (26) 
autodockgpu

>  <m_score__min__energy>  (26) 
-8.8399999999999999

>  <m_primary>  (26) 
energy

>  <rmsd>  (26) 
9.452182722658124

>  <m_score__min__rmsd>  (26) 
9.452182722658124

>  <meeko>  (26) 
{"free_energy": -8.43, "intermolecular_energy": -10.52, "internal_energy": -1.15, "cluster_size": 18, "cluster_id": 1, "rank_in_cluster": 15}

>  <energy>  (26) 
-7.81

>  <cluster_rmsd>  (26) 
0.54

>  <cluster>  (26) 
2

$$$$

     RDKit          3D

 48 51  0  0  0  0  0  0  0  0999 V2000
  146.3180   67.5490  220.0730 N   0  0  0  0  0  0  0  0  0  0  0  0
  146.0040   68.9510  219.1640 S   0  0  0  0  0  0  0  0  0  0  0  0
  147.0540   69.9730  219.4530 O   0  0  0  0  0  0  0  0  0  0  0  0
  146.0570   68.5480  217.6980 O   0  0  0  0  0  0  0  0  0  0  0  0
  144.4290   69.6400  219.4300 C   0  0  0  0  0  0  0  0  0  0  0  0
  144.2740   70.8760  219.9660 C   0  0  0  0  0  0  0  0  0  0  0  0
  143.0200   71.4290  220.1790 C   0  0  0  0  0  0  0  0  0  0  0  0
  141.8490   70.7340  219.8490 C   0  0  0  0  0  0  0  0  0  0  0  0
  140.5230   71.3570  220.0940 C   0  0  0  0  0  0  0  0  0  0  0  0
  140.5840   72.6890  220.6260 N   0  0  0  0  0  0  0  0  0  0  0  0
  140.1980   73.0330  221.8680 C   0  0  0  0  0  0  0  0  0  0  0  0
  139.6050   72.0220  222.7720 C   0  0  0  0  0  0  0  0  0  0  0  0
  140.3750   71.1500  223.4130 C   0  0  0  0  0  0  0  0  0  0  0  0
  140.4270   71.0010  224.8450 C   0  0  0  0  0  0  0  0  0  0  0  0
  139.8530   69.9650  225.5430 C   0  0  0  0  0  0  0  0  0  0  0  0
  139.9290   69.8630  226.9280 C   0  0  0  0  0  0  0  0  0  0  0  0
  140.6020   70.8300  227.6300 C   0  0  0  0  0  0  0  0  0  0  0  0
  141.1750   71.8730  226.9090 C   0  0  0  0  0  0  0  0  0  0  0  0
  141.0780   71.9320  225.5810 N   0  0  0  0  0  0  0  0  0  0  0  0
  140.2950   74.2970  222.3430 N   0  0  0  0  0  0  0  0  0  0  0  0
  140.7810   75.2940  221.6060 C   0  0  0  0  0  0  0  0  0  0  0  0
  140.8620   76.5730  222.1310 C   0  0  0  0  0  0  0  0  0  0  0  0
  141.3740   77.5930  221.3390 C   0  0  0  0  0  0  0  0  0  0  0  0
  141.7890   77.2990  220.0450 C   0  0  0  0  0  0  0  0  0  0  0  0
  141.6990   76.0150  219.5400 C   0  0  0  0  0  0  0  0  0  0  0  0
  141.1900   74.9940  220.3240 C   0  0  0  0  0  0  0  0  0  0  0  0
  141.0860   73.6930  219.8490 C   0  0  0  0  0  0  0  0  0  0  0  0
  141.4780   73.5040  218.6740 O   0  0  0  0  0  0  0  0  0  0  0  0
  142.0300   69.4860  219.3080 C   0  0  0  0  0  0  0  0  0  0  0  0
  143.2950   68.9310  219.0950 C   0  0  0  0  0  0  0  0  0  0  0  0
  147.0420   66.9170  219.7150 H   0  0  0  0  0  0  0  0  0  0  0  0
  146.2150   67.6290  221.0900 H   0  0  0  0  0  0  0  0  0  0  0  0
  145.1677   71.4561  220.2395 H   0  0  0  0  0  0  0  0  0  0  0  0
  142.9431   72.4353  220.6166 H   0  0  0  0  0  0  0  0  0  0  0  0
  139.9775   71.3922  219.1394 H   0  0  0  0  0  0  0  0  0  0  0  0
  140.0201   70.7384  220.8519 H   0  0  0  0  0  0  0  0  0  0  0  0
  138.5147   71.9925  222.9145 H   0  0  0  0  0  0  0  0  0  0  0  0
  141.0187   70.4951  222.8075 H   0  0  0  0  0  0  0  0  0  0  0  0
  139.3126   69.1865  224.9844 H   0  0  0  0  0  0  0  0  0  0  0  0
  139.4564   69.0194  227.4524 H   0  0  0  0  0  0  0  0  0  0  0  0
  140.6860   70.7827  228.7258 H   0  0  0  0  0  0  0  0  0  0  0  0
  141.7188   72.6645  227.4456 H   0  0  0  0  0  0  0  0  0  0  0  0
  140.5264   76.7778  223.1583 H   0  0  0  0  0  0  0  0  0  0  0  0
  141.4500   78.6184  221.7300 H   0  0  0  0  0  0  0  0  0  0  0  0
  142.1959   78.1016  219.4122 H   0  0  0  0  0  0  0  0  0  0  0  0
  142.0326   75.8044  218.5132 H   0  0  0  0  0  0  0  0  0  0  0  0
  141.1428   68.8980  219.0304 H   0  0  0  0  0  0  0  0  0  0  0  0
  143.3861   67.9253  218.6587 H   0  0  0  0  0  0  0  0  0  0  0  0
  1  2  1  0
  2  3  2  0
  2  4  2  0
  2  5  1  0
  5  6  2  0
  6  7  1  0
  7  8  2  0
  8  9  1  0
  9 10  1  0
 10 11  1  0
 11 12  1  0
 12 13  2  0
 13 14  1  0
 14 15  2  0
 15 16  1  0
 16 17  2  0
 17 18  1  0
 18 19  2  0
 11 20  2  0
 20 21  1  0
 21 22  2  0
 22 23  1  0
 23 24  2  0
 24 25  1  0
 25 26  2  0
 26 27  1  0
 27 28  2  0
  8 29  1  0
 29 30  2  0
 30  5  1  0
 27 10  1  0
 19 14  1  0
 26 21  1  0
  1 31  1  0
  1 32  1  0
  6 33  1  0
  7 34  1  0
  9 35  1  0
  9 36  1  0
 12 37  1  0
 13 38  1  0
 15 39  1  0
 16 40  1  0
 17 41  1  0
 18 42  1  0
 22 43  1  0
 23 44  1  0
 24 45  1  0
 25 46  1  0
 29 47  1  0
 30 48  1  0
M  END
>  <smiles>  (27) 
NS(=O)(=O)c1ccc(Cn2c(/C=C/c3ccccn3)nc3ccccc3c2=O)cc1

>  <score_type>  (27) 
oracle

>  <origin>  (27) 
autodockgpu

>  <m_score__min__energy>  (27) 
-8.8399999999999999

>  <m_primary>  (27) 
energy

>  <rmsd>  (27) 
9.059030077157962

>  <m_score__min__rmsd>  (27) 
9.059030077157962

>  <meeko>  (27) 
{"free_energy": -7.98, "intermolecular_energy": -10.07, "internal_energy": -1.11, "cluster_size": 1, "cluster_id": 3, "rank_in_cluster": 1}

>  <energy>  (27) 
-7.79

>  <cluster_rmsd>  (27) 
0.57

>  <cluster>  (27) 
2

$$$$

     RDKit          3D

 48 51  0  0  0  0  0  0  0  0999 V2000
  143.7190   75.3030  219.9060 N   0  0  0  0  0  0  0  0  0  0  0  0
  143.8100   73.6300  220.1950 S   0  0  0  0  0  0  0  0  0  0  0  0
  144.1560   72.9270  218.9240 O   0  0  0  0  0  0  0  0  0  0  0  0
  144.9100   73.4190  221.2250 O   0  0  0  0  0  0  0  0  0  0  0  0
  142.3630   72.9390  220.8710 C   0  0  0  0  0  0  0  0  0  0  0  0
  142.1190   71.6060  220.8150 C   0  0  0  0  0  0  0  0  0  0  0  0
  140.9670   71.0510  221.3530 C   0  0  0  0  0  0  0  0  0  0  0  0
  139.9980   71.8440  221.9810 C   0  0  0  0  0  0  0  0  0  0  0  0
  138.7750   71.2140  222.5430 C   0  0  0  0  0  0  0  0  0  0  0  0
  139.0210   70.3080  223.6280 N   0  0  0  0  0  0  0  0  0  0  0  0
  138.5990   69.0300  223.6660 C   0  0  0  0  0  0  0  0  0  0  0  0
  137.7670   68.4870  222.5700 C   0  0  0  0  0  0  0  0  0  0  0  0
  136.4420   68.5740  222.6160 C   0  0  0  0  0  0  0  0  0  0  0  0
  135.6920   69.0500  223.7500 C   0  0  0  0  0  0  0  0  0  0  0  0
  135.7720   70.3250  224.2590 C   0  0  0  0  0  0  0  0  0  0  0  0
  135.0270   70.7400  225.3580 C   0  0  0  0  0  0  0  0  0  0  0  0
  134.1780   69.8480  225.9610 C   0  0  0  0  0  0  0  0  0  0  0  0
  134.1100   68.5610  225.4350 C   0  0  0  0  0  0  0  0  0  0  0  0
  134.8420   68.2050  224.3790 N   0  0  0  0  0  0  0  0  0  0  0  0
  138.8740   68.1970  224.6970 N   0  0  0  0  0  0  0  0  0  0  0  0
  139.5860   68.5900  225.7530 C   0  0  0  0  0  0  0  0  0  0  0  0
  139.8430   67.7040  226.7860 C   0  0  0  0  0  0  0  0  0  0  0  0
  140.5880   68.1410  227.8750 C   0  0  0  0  0  0  0  0  0  0  0  0
  141.0510   69.4520  227.8920 C   0  0  0  0  0  0  0  0  0  0  0  0
  140.7820   70.3190  226.8500 C   0  0  0  0  0  0  0  0  0  0  0  0
  140.0410   69.8910  225.7630 C   0  0  0  0  0  0  0  0  0  0  0  0
  139.7530   70.7350  224.6980 C   0  0  0  0  0  0  0  0  0  0  0  0
  140.2030   71.9010  224.7860 O   0  0  0  0  0  0  0  0  0  0  0  0
  140.2670   73.1890  222.0260 C   0  0  0  0  0  0  0  0  0  0  0  0
  141.4280   73.7460  221.4830 C   0  0  0  0  0  0  0  0  0  0  0  0
  143.3750   75.8880  220.6750 H   0  0  0  0  0  0  0  0  0  0  0  0
  144.4320   75.7010  219.2860 H   0  0  0  0  0  0  0  0  0  0  0  0
  142.8544   70.9472  220.3299 H   0  0  0  0  0  0  0  0  0  0  0  0
  140.8110   69.9642  221.2849 H   0  0  0  0  0  0  0  0  0  0  0  0
  138.1117   72.0131  222.9055 H   0  0  0  0  0  0  0  0  0  0  0  0
  138.3269   70.6199  221.7329 H   0  0  0  0  0  0  0  0  0  0  0  0
  138.2508   68.0058  221.7072 H   0  0  0  0  0  0  0  0  0  0  0  0
  135.8779   68.2604  221.7252 H   0  0  0  0  0  0  0  0  0  0  0  0
  136.4514   71.0445  223.7786 H   0  0  0  0  0  0  0  0  0  0  0  0
  135.1176   71.7684  225.7376 H   0  0  0  0  0  0  0  0  0  0  0  0
  133.5712   70.1395  226.8309 H   0  0  0  0  0  0  0  0  0  0  0  0
  133.4393   67.8233  225.8996 H   0  0  0  0  0  0  0  0  0  0  0  0
  139.4640   66.6721  226.7453 H   0  0  0  0  0  0  0  0  0  0  0  0
  140.8079   67.4602  228.7105 H   0  0  0  0  0  0  0  0  0  0  0  0
  141.6418   69.8053  228.7500 H   0  0  0  0  0  0  0  0  0  0  0  0
  141.1581   71.3521  226.8850 H   0  0  0  0  0  0  0  0  0  0  0  0
  139.5385   73.8564  222.5096 H   0  0  0  0  0  0  0  0  0  0  0  0
  141.5961   74.8314  221.5441 H   0  0  0  0  0  0  0  0  0  0  0  0
  1  2  1  0
  2  3  2  0
  2  4  2  0
  2  5  1  0
  5  6  2  0
  6  7  1  0
  7  8  2  0
  8  9  1  0
  9 10  1  0
 10 11  1  0
 11 12  1  0
 12 13  2  0
 13 14  1  0
 14 15  2  0
 15 16  1  0
 16 17  2  0
 17 18  1  0
 18 19  2  0
 11 20  2  0
 20 21  1  0
 21 22  2  0
 22 23  1  0
 23 24  2  0
 24 25  1  0
 25 26  2  0
 26 27  1  0
 27 28  2  0
  8 29  1  0
 29 30  2  0
 30  5  1  0
 27 10  1  0
 19 14  1  0
 26 21  1  0
  1 31  1  0
  1 32  1  0
  6 33  1  0
  7 34  1  0
  9 35  1  0
  9 36  1  0
 12 37  1  0
 13 38  1  0
 15 39  1  0
 16 40  1  0
 17 41  1  0
 18 42  1  0
 22 43  1  0
 23 44  1  0
 24 45  1  0
 25 46  1  0
 29 47  1  0
 30 48  1  0
M  END
>  <smiles>  (28) 
NS(=O)(=O)c1ccc(Cn2c(/C=C/c3ccccn3)nc3ccccc3c2=O)cc1

>  <score_type>  (28) 
oracle

>  <origin>  (28) 
autodockgpu

>  <m_score__min__energy>  (28) 
-8.8399999999999999

>  <m_primary>  (28) 
energy

>  <rmsd>  (28) 
10.114396288816726

>  <m_score__min__rmsd>  (28) 
10.114396288816726

>  <meeko>  (28) 
{"free_energy": -8.06, "intermolecular_energy": -10.15, "internal_energy": -1.56, "cluster_size": 13, "cluster_id": 2, "rank_in_cluster": 2}

>  <energy>  (28) 
-7.74

>  <cluster_rmsd>  (28) 
0.69

>  <cluster>  (28) 
2

$$$$

     RDKit          3D

 48 51  0  0  0  0  0  0  0  0999 V2000
  143.7470   75.3790  219.7800 N   0  0  0  0  0  0  0  0  0  0  0  0
  143.8530   73.7200  220.1380 S   0  0  0  0  0  0  0  0  0  0  0  0
  144.2070   72.9680  218.8980 O   0  0  0  0  0  0  0  0  0  0  0  0
  144.9540   73.5620  221.1770 O   0  0  0  0  0  0  0  0  0  0  0  0
  142.4120   73.0440  220.8410 C   0  0  0  0  0  0  0  0  0  0  0  0
  141.4450   73.8300  221.3760 C   0  0  0  0  0  0  0  0  0  0  0  0
  140.2950   73.2950  221.9360 C   0  0  0  0  0  0  0  0  0  0  0  0
  140.0760   71.9130  221.9770 C   0  0  0  0  0  0  0  0  0  0  0  0
  138.8330   71.3750  222.5880 C   0  0  0  0  0  0  0  0  0  0  0  0
  139.0540   70.4490  223.6610 N   0  0  0  0  0  0  0  0  0  0  0  0
  138.5600   69.1970  223.7030 C   0  0  0  0  0  0  0  0  0  0  0  0
  137.6700   68.7110  222.6250 C   0  0  0  0  0  0  0  0  0  0  0  0
  136.3790   69.0220  222.6170 C   0  0  0  0  0  0  0  0  0  0  0  0
  135.5640   69.1600  223.7970 C   0  0  0  0  0  0  0  0  0  0  0  0
  135.5540   70.2670  224.6130 C   0  0  0  0  0  0  0  0  0  0  0  0
  134.7490   70.3560  225.7440 C   0  0  0  0  0  0  0  0  0  0  0  0
  133.9300   69.3030  226.0620 C   0  0  0  0  0  0  0  0  0  0  0  0
  133.9520   68.1900  225.2260 C   0  0  0  0  0  0  0  0  0  0  0  0
  134.7400   68.1470  224.1520 N   0  0  0  0  0  0  0  0  0  0  0  0
  138.8110   68.3420  224.7210 N   0  0  0  0  0  0  0  0  0  0  0  0
  139.5710   68.6850  225.7610 C   0  0  0  0  0  0  0  0  0  0  0  0
  139.8020   67.7790  226.7820 C   0  0  0  0  0  0  0  0  0  0  0  0
  140.5980   68.1640  227.8540 C   0  0  0  0  0  0  0  0  0  0  0  0
  141.1370   69.4460  227.8680 C   0  0  0  0  0  0  0  0  0  0  0  0
  140.8920   70.3350  226.8380 C   0  0  0  0  0  0  0  0  0  0  0  0
  140.1010   69.9580  225.7670 C   0  0  0  0  0  0  0  0  0  0  0  0
  139.8350   70.8250  224.7150 C   0  0  0  0  0  0  0  0  0  0  0  0
  140.3540   71.9630  224.7980 O   0  0  0  0  0  0  0  0  0  0  0  0
  141.0670   71.1370  221.4290 C   0  0  0  0  0  0  0  0  0  0  0  0
  142.2260   71.6780  220.8650 C   0  0  0  0  0  0  0  0  0  0  0  0
  143.4190   75.9950  220.5310 H   0  0  0  0  0  0  0  0  0  0  0  0
  144.4430   75.7520  219.1260 H   0  0  0  0  0  0  0  0  0  0  0  0
  141.5767   74.9220  221.3654 H   0  0  0  0  0  0  0  0  0  0  0  0
  139.5374   73.9720  222.3577 H   0  0  0  0  0  0  0  0  0  0  0  0
  138.2473   72.2205  222.9781 H   0  0  0  0  0  0  0  0  0  0  0  0
  138.3085   70.8197  221.7965 H   0  0  0  0  0  0  0  0  0  0  0  0
  138.0829   68.0845  221.8206 H   0  0  0  0  0  0  0  0  0  0  0  0
  135.8983   69.1857  221.6412 H   0  0  0  0  0  0  0  0  0  0  0  0
  136.2080   71.1150  224.3616 H   0  0  0  0  0  0  0  0  0  0  0  0
  134.7691   71.2576  226.3739 H   0  0  0  0  0  0  0  0  0  0  0  0
  133.2780   69.3366  226.9473 H   0  0  0  0  0  0  0  0  0  0  0  0
  133.3066   67.3295  225.4563 H   0  0  0  0  0  0  0  0  0  0  0  0
  139.3628   66.7712  226.7453 H   0  0  0  0  0  0  0  0  0  0  0  0
  140.7988   67.4651  228.6793 H   0  0  0  0  0  0  0  0  0  0  0  0
  141.7688   69.7578  228.7127 H   0  0  0  0  0  0  0  0  0  0  0  0
  141.3270   71.3448  226.8699 H   0  0  0  0  0  0  0  0  0  0  0  0
  140.9439   70.0439  221.4339 H   0  0  0  0  0  0  0  0  0  0  0  0
  142.9914   71.0124  220.4394 H   0  0  0  0  0  0  0  0  0  0  0  0
  1  2  1  0
  2  3  2  0
  2  4  2  0
  2  5  1  0
  5  6  2  0
  6  7  1  0
  7  8  2  0
  8  9  1  0
  9 10  1  0
 10 11  1  0
 11 12  1  0
 12 13  2  0
 13 14  1  0
 14 15  2  0
 15 16  1  0
 16 17  2  0
 17 18  1  0
 18 19  2  0
 11 20  2  0
 20 21  1  0
 21 22  2  0
 22 23  1  0
 23 24  2  0
 24 25  1  0
 25 26  2  0
 26 27  1  0
 27 28  2  0
  8 29  1  0
 29 30  2  0
 30  5  1  0
 27 10  1  0
 19 14  1  0
 26 21  1  0
  1 31  1  0
  1 32  1  0
  6 33  1  0
  7 34  1  0
  9 35  1  0
  9 36  1  0
 12 37  1  0
 13 38  1  0
 15 39  1  0
 16 40  1  0
 17 41  1  0
 18 42  1  0
 22 43  1  0
 23 44  1  0
 24 45  1  0
 25 46  1  0
 29 47  1  0
 30 48  1  0
M  END
>  <smiles>  (29) 
NS(=O)(=O)c1ccc(Cn2c(/C=C/c3ccccn3)nc3ccccc3c2=O)cc1

>  <score_type>  (29) 
oracle

>  <origin>  (29) 
autodockgpu

>  <m_score__min__energy>  (29) 
-8.8399999999999999

>  <m_primary>  (29) 
energy

>  <rmsd>  (29) 
9.958982150201097

>  <m_score__min__rmsd>  (29) 
9.958982150201097

>  <meeko>  (29) 
{"free_energy": -8.22, "intermolecular_energy": -10.31, "internal_energy": -1.51, "cluster_size": 13, "cluster_id": 2, "rank_in_cluster": 1}

>  <energy>  (29) 
-7.73

>  <cluster_rmsd>  (29) 
1.02

>  <cluster>  (29) 
2

$$$$

     RDKit          3D

 48 51  0  0  0  0  0  0  0  0999 V2000
  139.1850   67.2880  226.4690 N   0  0  0  0  0  0  0  0  0  0  0  0
  139.8960   68.8110  226.7210 S   0  0  0  0  0  0  0  0  0  0  0  0
  139.3090   69.4350  227.9440 O   0  0  0  0  0  0  0  0  0  0  0  0
  141.3860   68.5750  226.9190 O   0  0  0  0  0  0  0  0  0  0  0  0
  139.7450   69.9050  225.3770 C   0  0  0  0  0  0  0  0  0  0  0  0
  140.5340   71.0020  225.2590 C   0  0  0  0  0  0  0  0  0  0  0  0
  140.4170   71.8750  224.1890 C   0  0  0  0  0  0  0  0  0  0  0  0
  139.4740   71.6670  223.1750 C   0  0  0  0  0  0  0  0  0  0  0  0
  139.3750   72.6270  222.0440 C   0  0  0  0  0  0  0  0  0  0  0  0
  140.6340   73.1590  221.6090 N   0  0  0  0  0  0  0  0  0  0  0  0
  140.9400   74.4700  221.5790 C   0  0  0  0  0  0  0  0  0  0  0  0
  139.9250   75.4800  221.9510 C   0  0  0  0  0  0  0  0  0  0  0  0
  139.9790   76.7120  221.4550 C   0  0  0  0  0  0  0  0  0  0  0  0
  140.6210   77.8270  222.1020 C   0  0  0  0  0  0  0  0  0  0  0  0
  141.8230   78.3690  221.7130 C   0  0  0  0  0  0  0  0  0  0  0  0
  142.4060   79.4480  222.3690 C   0  0  0  0  0  0  0  0  0  0  0  0
  141.7610   79.9970  223.4470 C   0  0  0  0  0  0  0  0  0  0  0  0
  140.5450   79.4370  223.8290 C   0  0  0  0  0  0  0  0  0  0  0  0
  140.0230   78.4020  223.1710 N   0  0  0  0  0  0  0  0  0  0  0  0
  142.1490   74.9330  221.1850 N   0  0  0  0  0  0  0  0  0  0  0  0
  143.1270   74.1150  220.7970 C   0  0  0  0  0  0  0  0  0  0  0  0
  144.3490   74.6320  220.4010 C   0  0  0  0  0  0  0  0  0  0  0  0
  145.3510   73.7560  220.0010 C   0  0  0  0  0  0  0  0  0  0  0  0
  145.0940   72.3890  220.0100 C   0  0  0  0  0  0  0  0  0  0  0  0
  143.8660   71.8950  220.4080 C   0  0  0  0  0  0  0  0  0  0  0  0
  142.8650   72.7620  220.8080 C   0  0  0  0  0  0  0  0  0  0  0  0
  141.6190   72.3000  221.2150 C   0  0  0  0  0  0  0  0  0  0  0  0
  141.4620   71.0570  221.1950 O   0  0  0  0  0  0  0  0  0  0  0  0
  138.6860   70.5520  223.3140 C   0  0  0  0  0  0  0  0  0  0  0  0
  138.8060   69.6720  224.3940 C   0  0  0  0  0  0  0  0  0  0  0  0
  139.2430   66.9000  225.5220 H   0  0  0  0  0  0  0  0  0  0  0  0
  139.2160   66.6320  227.2560 H   0  0  0  0  0  0  0  0  0  0  0  0
  141.2877   71.2044  226.0342 H   0  0  0  0  0  0  0  0  0  0  0  0
  141.0800   72.7511  224.1351 H   0  0  0  0  0  0  0  0  0  0  0  0
  138.9071   72.1099  221.1933 H   0  0  0  0  0  0  0  0  0  0  0  0
  138.7811   73.4794  222.4056 H   0  0  0  0  0  0  0  0  0  0  0  0
  139.1166   75.2084  222.6458 H   0  0  0  0  0  0  0  0  0  0  0  0
  139.4995   76.8927  220.4816 H   0  0  0  0  0  0  0  0  0  0  0  0
  142.3444   77.9320  220.8486 H   0  0  0  0  0  0  0  0  0  0  0  0
  143.3696   79.8545  222.0282 H   0  0  0  0  0  0  0  0  0  0  0  0
  142.1898   80.8511  223.9917 H   0  0  0  0  0  0  0  0  0  0  0  0
  140.0046   79.8567  224.6903 H   0  0  0  0  0  0  0  0  0  0  0  0
  144.5238   75.7180  220.4030 H   0  0  0  0  0  0  0  0  0  0  0  0
  146.3321   74.1378  219.6822 H   0  0  0  0  0  0  0  0  0  0  0  0
  145.8818   71.6889  219.6949 H   0  0  0  0  0  0  0  0  0  0  0  0
  143.6843   70.8101  220.4067 H   0  0  0  0  0  0  0  0  0  0  0  0
  137.9289   70.3420  222.5441 H   0  0  0  0  0  0  0  0  0  0  0  0
  138.1498   68.7916  224.4598 H   0  0  0  0  0  0  0  0  0  0  0  0
  1  2  1  0
  2  3  2  0
  2  4  2  0
  2  5  1  0
  5  6  2  0
  6  7  1  0
  7  8  2  0
  8  9  1  0
  9 10  1  0
 10 11  1  0
 11 12  1  0
 12 13  2  0
 13 14  1  0
 14 15  2  0
 15 16  1  0
 16 17  2  0
 17 18  1  0
 18 19  2  0
 11 20  2  0
 20 21  1  0
 21 22  2  0
 22 23  1  0
 23 24  2  0
 24 25  1  0
 25 26  2  0
 26 27  1  0
 27 28  2  0
  8 29  1  0
 29 30  2  0
 30  5  1  0
 27 10  1  0
 19 14  1  0
 26 21  1  0
  1 31  1  0
  1 32  1  0
  6 33  1  0
  7 34  1  0
  9 35  1  0
  9 36  1  0
 12 37  1  0
 13 38  1  0
 15 39  1  0
 16 40  1  0
 17 41  1  0
 18 42  1  0
 22 43  1  0
 23 44  1  0
 24 45  1  0
 25 46  1  0
 29 47  1  0
 30 48  1  0
M  END
>  <smiles>  (30) 
NS(=O)(=O)c1ccc(Cn2c(/C=C/c3ccccn3)nc3ccccc3c2=O)cc1

>  <score_type>  (30) 
oracle

>  <origin>  (30) 
autodockgpu

>  <m_score__min__energy>  (30) 
-8.8399999999999999

>  <m_primary>  (30) 
energy

>  <rmsd>  (30) 
9.269188120059152

>  <m_score__min__rmsd>  (30) 
9.269188120059152

>  <meeko>  (30) 
{"free_energy": -8.8, "intermolecular_energy": -10.89, "internal_energy": -1.23, "cluster_size": 18, "cluster_id": 1, "rank_in_cluster": 3}

>  <energy>  (30) 
-7.7

>  <cluster_rmsd>  (30) 
0.73

>  <cluster>  (30) 
2

$$$$

     RDKit          3D

 48 51  0  0  0  0  0  0  0  0999 V2000
  145.8400   72.3670  220.8710 N   0  0  0  0  0  0  0  0  0  0  0  0
  145.1160   72.6000  219.3500 S   0  0  0  0  0  0  0  0  0  0  0  0
  146.1440   73.0820  218.3810 O   0  0  0  0  0  0  0  0  0  0  0  0
  144.5750   71.2480  218.9070 O   0  0  0  0  0  0  0  0  0  0  0  0
  143.7620   73.6930  219.3590 C   0  0  0  0  0  0  0  0  0  0  0  0
  142.9240   73.7970  218.2980 C   0  0  0  0  0  0  0  0  0  0  0  0
  141.8440   74.6660  218.3020 C   0  0  0  0  0  0  0  0  0  0  0  0
  141.5660   75.4820  219.4070 C   0  0  0  0  0  0  0  0  0  0  0  0
  140.4010   76.4040  219.3740 C   0  0  0  0  0  0  0  0  0  0  0  0
  140.3300   77.3080  220.4860 N   0  0  0  0  0  0  0  0  0  0  0  0
  139.3990   77.2520  221.4570 C   0  0  0  0  0  0  0  0  0  0  0  0
  138.3130   76.2480  221.3910 C   0  0  0  0  0  0  0  0  0  0  0  0
  138.4230   75.0870  222.0270 C   0  0  0  0  0  0  0  0  0  0  0  0
  139.2390   73.9850  221.5860 C   0  0  0  0  0  0  0  0  0  0  0  0
  139.0340   73.2780  220.4250 C   0  0  0  0  0  0  0  0  0  0  0  0
  139.8490   72.2200  220.0370 C   0  0  0  0  0  0  0  0  0  0  0  0
  140.9020   71.8640  220.8410 C   0  0  0  0  0  0  0  0  0  0  0  0
  141.0960   72.5890  222.0130 C   0  0  0  0  0  0  0  0  0  0  0  0
  140.2890   73.5970  222.3460 N   0  0  0  0  0  0  0  0  0  0  0  0
  139.3800   78.1070  222.5060 N   0  0  0  0  0  0  0  0  0  0  0  0
  140.2880   79.0710  222.6480 C   0  0  0  0  0  0  0  0  0  0  0  0
  140.2310   79.9250  223.7370 C   0  0  0  0  0  0  0  0  0  0  0  0
  141.1910   80.9210  223.8610 C   0  0  0  0  0  0  0  0  0  0  0  0
  142.1790   81.0300  222.8880 C   0  0  0  0  0  0  0  0  0  0  0  0
  142.2170   80.1670  221.8080 C   0  0  0  0  0  0  0  0  0  0  0  0
  141.2640   79.1720  221.6800 C   0  0  0  0  0  0  0  0  0  0  0  0
  141.2730   78.2880  220.6090 C   0  0  0  0  0  0  0  0  0  0  0  0
  142.1920   78.4480  219.7720 O   0  0  0  0  0  0  0  0  0  0  0  0
  142.4260   75.3600  220.4690 C   0  0  0  0  0  0  0  0  0  0  0  0
  143.5150   74.4830  220.4620 C   0  0  0  0  0  0  0  0  0  0  0  0
  145.2100   72.2610  221.6730 H   0  0  0  0  0  0  0  0  0  0  0  0
  146.7210   71.8440  220.8830 H   0  0  0  0  0  0  0  0  0  0  0  0
  143.1063   73.1745  217.4096 H   0  0  0  0  0  0  0  0  0  0  0  0
  141.1908   74.7162  217.4184 H   0  0  0  0  0  0  0  0  0  0  0  0
  140.4586   76.9985  218.4502 H   0  0  0  0  0  0  0  0  0  0  0  0
  139.5003   75.7744  219.4227 H   0  0  0  0  0  0  0  0  0  0  0  0
  137.4053   76.4658  220.8091 H   0  0  0  0  0  0  0  0  0  0  0  0
  137.8499   74.9579  222.9570 H   0  0  0  0  0  0  0  0  0  0  0  0
  138.1914   73.5605  219.7768 H   0  0  0  0  0  0  0  0  0  0  0  0
  139.6525   71.6774  219.1005 H   0  0  0  0  0  0  0  0  0  0  0  0
  141.5702   71.0338  220.5686 H   0  0  0  0  0  0  0  0  0  0  0  0
  141.9317   72.3253  222.6779 H   0  0  0  0  0  0  0  0  0  0  0  0
  139.4381   79.8161  224.4916 H   0  0  0  0  0  0  0  0  0  0  0  0
  141.1703   81.6131  224.7157 H   0  0  0  0  0  0  0  0  0  0  0  0
  142.9431   81.8160  222.9791 H   0  0  0  0  0  0  0  0  0  0  0  0
  143.0064   80.2718  221.0492 H   0  0  0  0  0  0  0  0  0  0  0  0
  142.2517   75.9774  221.3625 H   0  0  0  0  0  0  0  0  0  0  0  0
  144.1766   74.4231  221.3388 H   0  0  0  0  0  0  0  0  0  0  0  0
  1  2  1  0
  2  3  2  0
  2  4  2  0
  2  5  1  0
  5  6  2  0
  6  7  1  0
  7  8  2  0
  8  9  1  0
  9 10  1  0
 10 11  1  0
 11 12  1  0
 12 13  2  0
 13 14  1  0
 14 15  2  0
 15 16  1  0
 16 17  2  0
 17 18  1  0
 18 19  2  0
 11 20  2  0
 20 21  1  0
 21 22  2  0
 22 23  1  0
 23 24  2  0
 24 25  1  0
 25 26  2  0
 26 27  1  0
 27 28  2  0
  8 29  1  0
 29 30  2  0
 30  5  1  0
 27 10  1  0
 19 14  1  0
 26 21  1  0
  1 31  1  0
  1 32  1  0
  6 33  1  0
  7 34  1  0
  9 35  1  0
  9 36  1  0
 12 37  1  0
 13 38  1  0
 15 39  1  0
 16 40  1  0
 17 41  1  0
 18 42  1  0
 22 43  1  0
 23 44  1  0
 24 45  1  0
 25 46  1  0
 29 47  1  0
 30 48  1  0
M  END
>  <smiles>  (31) 
NS(=O)(=O)c1ccc(Cn2c(/C=C/c3ccccn3)nc3ccccc3c2=O)cc1

>  <score_type>  (31) 
oracle

>  <origin>  (31) 
autodockgpu

>  <m_score__min__energy>  (31) 
-8.8399999999999999

>  <m_primary>  (31) 
energy

>  <rmsd>  (31) 
7.2030342947175505

>  <m_score__min__rmsd>  (31) 
7.2030342947175505

>  <meeko>  (31) 
{"free_energy": -7.09, "intermolecular_energy": -9.18, "internal_energy": -2.27, "cluster_size": 5, "cluster_id": 9, "rank_in_cluster": 3}

>  <energy>  (31) 
-7.66

>  <cluster_rmsd>  (31) 
1.03

>  <cluster>  (31) 
2

$$$$

     RDKit          3D

 48 51  0  0  0  0  0  0  0  0999 V2000
  143.0550   75.8290  220.0890 N   0  0  0  0  0  0  0  0  0  0  0  0
  143.1280   74.1300  220.0690 S   0  0  0  0  0  0  0  0  0  0  0  0
  143.2400   73.6570  218.6570 O   0  0  0  0  0  0  0  0  0  0  0  0
  144.3710   73.7330  220.8520 O   0  0  0  0  0  0  0  0  0  0  0  0
  141.7840   73.3450  220.8450 C   0  0  0  0  0  0  0  0  0  0  0  0
  140.6000   73.9790  221.0310 C   0  0  0  0  0  0  0  0  0  0  0  0
  139.5260   73.3550  221.6480 C   0  0  0  0  0  0  0  0  0  0  0  0
  139.6140   72.0370  222.1120 C   0  0  0  0  0  0  0  0  0  0  0  0
  138.4430   71.4030  222.7720 C   0  0  0  0  0  0  0  0  0  0  0  0
  138.7810   70.3940  223.7350 N   0  0  0  0  0  0  0  0  0  0  0  0
  138.4130   69.1020  223.6490 C   0  0  0  0  0  0  0  0  0  0  0  0
  137.5490   68.6460  222.5380 C   0  0  0  0  0  0  0  0  0  0  0  0
  136.2310   68.8070  222.5930 C   0  0  0  0  0  0  0  0  0  0  0  0
  135.4970   69.1440  223.7860 C   0  0  0  0  0  0  0  0  0  0  0  0
  135.5020   70.3830  224.3810 C   0  0  0  0  0  0  0  0  0  0  0  0
  134.7770   70.6620  225.5340 C   0  0  0  0  0  0  0  0  0  0  0  0
  134.0230   69.6670  226.1040 C   0  0  0  0  0  0  0  0  0  0  0  0
  134.0290   68.4190  225.4890 C   0  0  0  0  0  0  0  0  0  0  0  0
  134.7400   68.1940  224.3840 N   0  0  0  0  0  0  0  0  0  0  0  0
  138.7740   68.1730  224.5650 N   0  0  0  0  0  0  0  0  0  0  0  0
  139.5220   68.4790  225.6240 C   0  0  0  0  0  0  0  0  0  0  0  0
  139.8680   67.4970  226.5380 C   0  0  0  0  0  0  0  0  0  0  0  0
  140.6490   67.8440  227.6330 C   0  0  0  0  0  0  0  0  0  0  0  0
  141.0600   69.1640  227.7770 C   0  0  0  0  0  0  0  0  0  0  0  0
  140.7030   70.1290  226.8530 C   0  0  0  0  0  0  0  0  0  0  0  0
  139.9250   69.7900  225.7600 C   0  0  0  0  0  0  0  0  0  0  0  0
  139.5480   70.7330  224.8120 C   0  0  0  0  0  0  0  0  0  0  0  0
  139.9550   71.9020  225.0090 O   0  0  0  0  0  0  0  0  0  0  0  0
  140.8210   71.4150  221.9130 C   0  0  0  0  0  0  0  0  0  0  0  0
  141.9020   72.0450  221.2910 C   0  0  0  0  0  0  0  0  0  0  0  0
  142.5700   76.2620  220.8820 H   0  0  0  0  0  0  0  0  0  0  0  0
  143.8570   76.3270  219.6900 H   0  0  0  0  0  0  0  0  0  0  0  0
  140.4882   75.0165  220.6831 H   0  0  0  0  0  0  0  0  0  0  0  0
  138.5838   73.9081  221.7757 H   0  0  0  0  0  0  0  0  0  0  0  0
  137.8691   72.1893  223.2842 H   0  0  0  0  0  0  0  0  0  0  0  0
  137.8687   70.9013  221.9792 H   0  0  0  0  0  0  0  0  0  0  0  0
  138.0025   68.1685  221.6569 H   0  0  0  0  0  0  0  0  0  0  0  0
  135.6603   68.6736  221.6621 H   0  0  0  0  0  0  0  0  0  0  0  0
  136.1029   71.1849  223.9273 H   0  0  0  0  0  0  0  0  0  0  0  0
  134.8073   71.6658  225.9829 H   0  0  0  0  0  0  0  0  0  0  0  0
  133.4345   69.8498  227.0152 H   0  0  0  0  0  0  0  0  0  0  0  0
  133.4350   67.6014  225.9234 H   0  0  0  0  0  0  0  0  0  0  0  0
  139.5298   66.4596  226.3988 H   0  0  0  0  0  0  0  0  0  0  0  0
  140.9380   67.0854  228.3753 H   0  0  0  0  0  0  0  0  0  0  0  0
  141.6799   69.4459  228.6408 H   0  0  0  0  0  0  0  0  0  0  0  0
  141.0381   71.1681  226.9871 H   0  0  0  0  0  0  0  0  0  0  0  0
  140.9425   70.3774  222.2574 H   0  0  0  0  0  0  0  0  0  0  0  0
  142.8496   71.5029  221.1566 H   0  0  0  0  0  0  0  0  0  0  0  0
  1  2  1  0
  2  3  2  0
  2  4  2  0
  2  5  1  0
  5  6  2  0
  6  7  1  0
  7  8  2  0
  8  9  1  0
  9 10  1  0
 10 11  1  0
 11 12  1  0
 12 13  2  0
 13 14  1  0
 14 15  2  0
 15 16  1  0
 16 17  2  0
 17 18  1  0
 18 19  2  0
 11 20  2  0
 20 21  1  0
 21 22  2  0
 22 23  1  0
 23 24  2  0
 24 25  1  0
 25 26  2  0
 26 27  1  0
 27 28  2  0
  8 29  1  0
 29 30  2  0
 30  5  1  0
 27 10  1  0
 19 14  1  0
 26 21  1  0
  1 31  1  0
  1 32  1  0
  6 33  1  0
  7 34  1  0
  9 35  1  0
  9 36  1  0
 12 37  1  0
 13 38  1  0
 15 39  1  0
 16 40  1  0
 17 41  1  0
 18 42  1  0
 22 43  1  0
 23 44  1  0
 24 45  1  0
 25 46  1  0
 29 47  1  0
 30 48  1  0
M  END
>  <smiles>  (32) 
NS(=O)(=O)c1ccc(Cn2c(/C=C/c3ccccn3)nc3ccccc3c2=O)cc1

>  <score_type>  (32) 
oracle

>  <origin>  (32) 
autodockgpu

>  <m_score__min__energy>  (32) 
-8.8399999999999999

>  <m_primary>  (32) 
energy

>  <rmsd>  (32) 
9.895488954065186

>  <m_score__min__rmsd>  (32) 
9.895488954065186

>  <meeko>  (32) 
{"free_energy": -7.79, "intermolecular_energy": -9.88, "internal_energy": -1.57, "cluster_size": 13, "cluster_id": 2, "rank_in_cluster": 9}

>  <energy>  (32) 
-7.98

>  <cluster_rmsd>  (32) 
0.0

>  <cluster>  (32) 
3

$$$$

     RDKit          3D

 48 51  0  0  0  0  0  0  0  0999 V2000
  141.2580   67.9530  226.6980 N   0  0  0  0  0  0  0  0  0  0  0  0
  139.6980   68.5500  226.3830 S   0  0  0  0  0  0  0  0  0  0  0  0
  138.7850   67.4110  226.0730 O   0  0  0  0  0  0  0  0  0  0  0  0
  139.2350   69.2610  227.6460 O   0  0  0  0  0  0  0  0  0  0  0  0
  139.6250   69.7250  225.1020 C   0  0  0  0  0  0  0  0  0  0  0  0
  138.8270   69.5480  224.0190 C   0  0  0  0  0  0  0  0  0  0  0  0
  138.7650   70.4820  222.9960 C   0  0  0  0  0  0  0  0  0  0  0  0
  139.5280   71.6570  223.0320 C   0  0  0  0  0  0  0  0  0  0  0  0
  139.4380   72.6330  221.9150 C   0  0  0  0  0  0  0  0  0  0  0  0
  140.7000   73.1790  221.5040 N   0  0  0  0  0  0  0  0  0  0  0  0
  140.9630   74.4940  221.3930 C   0  0  0  0  0  0  0  0  0  0  0  0
  139.8980   75.4910  221.6410 C   0  0  0  0  0  0  0  0  0  0  0  0
  140.0400   76.4160  222.5850 C   0  0  0  0  0  0  0  0  0  0  0  0
  140.8460   77.6020  222.4530 C   0  0  0  0  0  0  0  0  0  0  0  0
  141.4460   78.2580  223.5020 C   0  0  0  0  0  0  0  0  0  0  0  0
  142.2170   79.4020  223.3280 C   0  0  0  0  0  0  0  0  0  0  0  0
  142.3920   79.8990  222.0610 C   0  0  0  0  0  0  0  0  0  0  0  0
  141.7780   79.2240  221.0110 C   0  0  0  0  0  0  0  0  0  0  0  0
  141.0460   78.1300  221.2230 N   0  0  0  0  0  0  0  0  0  0  0  0
  142.1750   74.9720  221.0260 N   0  0  0  0  0  0  0  0  0  0  0  0
  143.1970   74.1650  220.7460 C   0  0  0  0  0  0  0  0  0  0  0  0
  144.4210   74.6970  220.3740 C   0  0  0  0  0  0  0  0  0  0  0  0
  145.4700   73.8320  220.0870 C   0  0  0  0  0  0  0  0  0  0  0  0
  145.2580   72.4610  220.1830 C   0  0  0  0  0  0  0  0  0  0  0  0
  144.0280   71.9510  220.5560 C   0  0  0  0  0  0  0  0  0  0  0  0
  142.9800   72.8070  220.8430 C   0  0  0  0  0  0  0  0  0  0  0  0
  141.7310   72.3300  221.2210 C   0  0  0  0  0  0  0  0  0  0  0  0
  141.6160   71.0850  221.2850 O   0  0  0  0  0  0  0  0  0  0  0  0
  140.3270   71.8150  224.1360 C   0  0  0  0  0  0  0  0  0  0  0  0
  140.3880   70.8710  225.1660 C   0  0  0  0  0  0  0  0  0  0  0  0
  141.3310   67.1670  227.3530 H   0  0  0  0  0  0  0  0  0  0  0  0
  141.9290   67.9920  225.9230 H   0  0  0  0  0  0  0  0  0  0  0  0
  138.2122   68.6384  223.9506 H   0  0  0  0  0  0  0  0  0  0  0  0
  138.1026   70.2967  222.1376 H   0  0  0  0  0  0  0  0  0  0  0  0
  138.9841   72.1263  221.0506 H   0  0  0  0  0  0  0  0  0  0  0  0
  138.8346   73.4764  222.2818 H   0  0  0  0  0  0  0  0  0  0  0  0
  138.9787   75.4664  221.0375 H   0  0  0  0  0  0  0  0  0  0  0  0
  139.5042   76.2649  223.5337 H   0  0  0  0  0  0  0  0  0  0  0  0
  141.3107   77.8620  224.5193 H   0  0  0  0  0  0  0  0  0  0  0  0
  142.6794   79.9008  224.1925 H   0  0  0  0  0  0  0  0  0  0  0  0
  142.9969   80.8001  221.8818 H   0  0  0  0  0  0  0  0  0  0  0  0
  141.8989   79.6006  219.9846 H   0  0  0  0  0  0  0  0  0  0  0  0
  144.5601   75.7861  220.3069 H   0  0  0  0  0  0  0  0  0  0  0  0
  146.4528   74.2256  219.7885 H   0  0  0  0  0  0  0  0  0  0  0  0
  146.0836   71.7698  219.9582 H   0  0  0  0  0  0  0  0  0  0  0  0
  143.8827   70.8628  220.6246 H   0  0  0  0  0  0  0  0  0  0  0  0
  140.9451   72.7215  224.2142 H   0  0  0  0  0  0  0  0  0  0  0  0
  141.0469   71.0436  226.0298 H   0  0  0  0  0  0  0  0  0  0  0  0
  1  2  1  0
  2  3  2  0
  2  4  2  0
  2  5  1  0
  5  6  2  0
  6  7  1  0
  7  8  2  0
  8  9  1  0
  9 10  1  0
 10 11  1  0
 11 12  1  0
 12 13  2  0
 13 14  1  0
 14 15  2  0
 15 16  1  0
 16 17  2  0
 17 18  1  0
 18 19  2  0
 11 20  2  0
 20 21  1  0
 21 22  2  0
 22 23  1  0
 23 24  2  0
 24 25  1  0
 25 26  2  0
 26 27  1  0
 27 28  2  0
  8 29  1  0
 29 30  2  0
 30  5  1  0
 27 10  1  0
 19 14  1  0
 26 21  1  0
  1 31  1  0
  1 32  1  0
  6 33  1  0
  7 34  1  0
  9 35  1  0
  9 36  1  0
 12 37  1  0
 13 38  1  0
 15 39  1  0
 16 40  1  0
 17 41  1  0
 18 42  1  0
 22 43  1  0
 23 44  1  0
 24 45  1  0
 25 46  1  0
 29 47  1  0
 30 48  1  0
M  END
>  <smiles>  (33) 
NS(=O)(=O)c1ccc(Cn2c(/C=C/c3ccccn3)nc3ccccc3c2=O)cc1

>  <score_type>  (33) 
oracle

>  <origin>  (33) 
autodockgpu

>  <m_score__min__energy>  (33) 
-8.8399999999999999

>  <m_primary>  (33) 
energy

>  <rmsd>  (33) 
9.468741734623732

>  <m_score__min__rmsd>  (33) 
9.468741734623732

>  <meeko>  (33) 
{"free_energy": -8.47, "intermolecular_energy": -10.55, "internal_energy": -1.27, "cluster_size": 18, "cluster_id": 1, "rank_in_cluster": 13}

>  <energy>  (33) 
-7.73

>  <cluster_rmsd>  (33) 
0.0

>  <cluster>  (33) 
4

$$$$

     RDKit          3D

 48 51  0  0  0  0  0  0  0  0999 V2000
  143.9740   74.2730  218.5720 N   0  0  0  0  0  0  0  0  0  0  0  0
  144.1580   73.1270  219.8140 S   0  0  0  0  0  0  0  0  0  0  0  0
  144.9270   71.9560  219.2970 O   0  0  0  0  0  0  0  0  0  0  0  0
  144.9340   73.8080  220.9310 O   0  0  0  0  0  0  0  0  0  0  0  0
  142.6620   72.5820  220.5140 C   0  0  0  0  0  0  0  0  0  0  0  0
  142.2560   71.2920  220.4110 C   0  0  0  0  0  0  0  0  0  0  0  0
  141.0650   70.8530  220.9680 C   0  0  0  0  0  0  0  0  0  0  0  0
  140.2200   71.7250  221.6670 C   0  0  0  0  0  0  0  0  0  0  0  0
  138.9490   71.2200  222.2480 C   0  0  0  0  0  0  0  0  0  0  0  0
  139.1200   70.3330  223.3630 N   0  0  0  0  0  0  0  0  0  0  0  0
  138.6250   69.0830  223.4270 C   0  0  0  0  0  0  0  0  0  0  0  0
  137.7860   68.5560  222.3280 C   0  0  0  0  0  0  0  0  0  0  0  0
  136.4650   68.4920  222.4520 C   0  0  0  0  0  0  0  0  0  0  0  0
  135.7190   69.0410  223.5550 C   0  0  0  0  0  0  0  0  0  0  0  0
  135.7600   70.3580  223.9450 C   0  0  0  0  0  0  0  0  0  0  0  0
  135.0210   70.8450  225.0190 C   0  0  0  0  0  0  0  0  0  0  0  0
  134.2180   69.9810  225.7190 C   0  0  0  0  0  0  0  0  0  0  0  0
  134.1890   68.6500  225.3110 C   0  0  0  0  0  0  0  0  0  0  0  0
  134.9140   68.2270  224.2760 N   0  0  0  0  0  0  0  0  0  0  0  0
  138.8290   68.2660  224.4870 N   0  0  0  0  0  0  0  0  0  0  0  0
  139.5390   68.6480  225.5470 C   0  0  0  0  0  0  0  0  0  0  0  0
  139.7230   67.7800  226.6110 C   0  0  0  0  0  0  0  0  0  0  0  0
  140.4680   68.2050  227.7030 C   0  0  0  0  0  0  0  0  0  0  0  0
  141.0060   69.4870  227.6960 C   0  0  0  0  0  0  0  0  0  0  0  0
  140.8090   70.3380  226.6240 C   0  0  0  0  0  0  0  0  0  0  0  0
  140.0680   69.9210  225.5320 C   0  0  0  0  0  0  0  0  0  0  0  0
  139.8510   70.7490  224.4380 C   0  0  0  0  0  0  0  0  0  0  0  0
  140.3650   71.8900  224.5030 O   0  0  0  0  0  0  0  0  0  0  0  0
  140.6500   73.0250  221.7600 C   0  0  0  0  0  0  0  0  0  0  0  0
  141.8520   73.4650  221.1970 C   0  0  0  0  0  0  0  0  0  0  0  0
  143.1050   74.8170  218.5680 H   0  0  0  0  0  0  0  0  0  0  0  0
  144.8290   74.7360  218.2450 H   0  0  0  0  0  0  0  0  0  0  0  0
  142.8898   70.5738  219.8701 H   0  0  0  0  0  0  0  0  0  0  0  0
  140.7770   69.7970  220.8588 H   0  0  0  0  0  0  0  0  0  0  0  0
  138.3563   72.0840  222.5830 H   0  0  0  0  0  0  0  0  0  0  0  0
  138.4504   70.6396  221.4577 H   0  0  0  0  0  0  0  0  0  0  0  0
  138.2618   68.2132  221.3974 H   0  0  0  0  0  0  0  0  0  0  0  0
  135.9009   67.9838  221.6560 H   0  0  0  0  0  0  0  0  0  0  0  0
  136.4022   71.0547  223.3863 H   0  0  0  0  0  0  0  0  0  0  0  0
  135.0799   71.9063  225.3021 H   0  0  0  0  0  0  0  0  0  0  0  0
  133.6177   70.3276  226.5731 H   0  0  0  0  0  0  0  0  0  0  0  0
  133.5550   67.9335  225.8538 H   0  0  0  0  0  0  0  0  0  0  0  0
  139.2861   66.7707  226.5910 H   0  0  0  0  0  0  0  0  0  0  0  0
  140.6302   67.5368  228.5616 H   0  0  0  0  0  0  0  0  0  0  0  0
  141.5980   69.8300  228.5573 H   0  0  0  0  0  0  0  0  0  0  0  0
  141.2424   71.3489  226.6392 H   0  0  0  0  0  0  0  0  0  0  0  0
  140.0234   73.7505  222.2995 H   0  0  0  0  0  0  0  0  0  0  0  0
  142.1524   74.5183  221.2991 H   0  0  0  0  0  0  0  0  0  0  0  0
  1  2  1  0
  2  3  2  0
  2  4  2  0
  2  5  1  0
  5  6  2  0
  6  7  1  0
  7  8  2  0
  8  9  1  0
  9 10  1  0
 10 11  1  0
 11 12  1  0
 12 13  2  0
 13 14  1  0
 14 15  2  0
 15 16  1  0
 16 17  2  0
 17 18  1  0
 18 19  2  0
 11 20  2  0
 20 21  1  0
 21 22  2  0
 22 23  1  0
 23 24  2  0
 24 25  1  0
 25 26  2  0
 26 27  1  0
 27 28  2  0
  8 29  1  0
 29 30  2  0
 30  5  1  0
 27 10  1  0
 19 14  1  0
 26 21  1  0
  1 31  1  0
  1 32  1  0
  6 33  1  0
  7 34  1  0
  9 35  1  0
  9 36  1  0
 12 37  1  0
 13 38  1  0
 15 39  1  0
 16 40  1  0
 17 41  1  0
 18 42  1  0
 22 43  1  0
 23 44  1  0
 24 45  1  0
 25 46  1  0
 29 47  1  0
 30 48  1  0
M  END
>  <smiles>  (34) 
NS(=O)(=O)c1ccc(Cn2c(/C=C/c3ccccn3)nc3ccccc3c2=O)cc1

>  <score_type>  (34) 
oracle

>  <origin>  (34) 
autodockgpu

>  <m_score__min__energy>  (34) 
-8.8399999999999999

>  <m_primary>  (34) 
energy

>  <rmsd>  (34) 
10.152993023549131

>  <m_score__min__rmsd>  (34) 
10.152993023549131

>  <meeko>  (34) 
{"free_energy": -7.74, "intermolecular_energy": -9.82, "internal_energy": -1.55, "cluster_size": 13, "cluster_id": 2, "rank_in_cluster": 10}

>  <energy>  (34) 
-7.69

>  <cluster_rmsd>  (34) 
0.0

>  <cluster>  (34) 
5

$$$$

     RDKit          3D

 48 51  0  0  0  0  0  0  0  0999 V2000
  139.1490   67.3890  226.4070 N   0  0  0  0  0  0  0  0  0  0  0  0
  139.9780   68.8620  226.5880 S   0  0  0  0  0  0  0  0  0  0  0  0
  139.5020   69.5500  227.8250 O   0  0  0  0  0  0  0  0  0  0  0  0
  141.4560   68.5250  226.7140 O   0  0  0  0  0  0  0  0  0  0  0  0
  139.8330   69.9390  225.2280 C   0  0  0  0  0  0  0  0  0  0  0  0
  140.5570   71.0830  225.1460 C   0  0  0  0  0  0  0  0  0  0  0  0
  140.4450   71.9430  224.0640 C   0  0  0  0  0  0  0  0  0  0  0  0
  139.5740   71.6700  223.0010 C   0  0  0  0  0  0  0  0  0  0  0  0
  139.4780   72.6170  221.8590 C   0  0  0  0  0  0  0  0  0  0  0  0
  140.7270   73.2120  221.4780 N   0  0  0  0  0  0  0  0  0  0  0  0
  140.9490   74.5380  221.4010 C   0  0  0  0  0  0  0  0  0  0  0  0
  139.8480   75.4940  221.6560 C   0  0  0  0  0  0  0  0  0  0  0  0
  139.9760   76.4470  222.5720 C   0  0  0  0  0  0  0  0  0  0  0  0
  140.8140   77.6110  222.4310 C   0  0  0  0  0  0  0  0  0  0  0  0
  141.4160   78.2700  223.4760 C   0  0  0  0  0  0  0  0  0  0  0  0
  142.2180   79.3920  223.2920 C   0  0  0  0  0  0  0  0  0  0  0  0
  142.4200   79.8630  222.0190 C   0  0  0  0  0  0  0  0  0  0  0  0
  141.8020   79.1850  220.9730 C   0  0  0  0  0  0  0  0  0  0  0  0
  141.0410   78.1130  221.1950 N   0  0  0  0  0  0  0  0  0  0  0  0
  142.1490   75.0620  221.0620 N   0  0  0  0  0  0  0  0  0  0  0  0
  143.2010   74.2950  220.7780 C   0  0  0  0  0  0  0  0  0  0  0  0
  144.4120   74.8740  220.4350 C   0  0  0  0  0  0  0  0  0  0  0  0
  145.4910   74.0500  220.1440 C   0  0  0  0  0  0  0  0  0  0  0  0
  145.3240   72.6710  220.2060 C   0  0  0  0  0  0  0  0  0  0  0  0
  144.1060   72.1150  220.5500 C   0  0  0  0  0  0  0  0  0  0  0  0
  143.0260   72.9300  220.8420 C   0  0  0  0  0  0  0  0  0  0  0  0
  141.7890   72.4040  221.1910 C   0  0  0  0  0  0  0  0  0  0  0  0
  141.7140   71.1540  221.2250 O   0  0  0  0  0  0  0  0  0  0  0  0
  138.8520   70.5080  223.1050 C   0  0  0  0  0  0  0  0  0  0  0  0
  138.9670   69.6420  224.1970 C   0  0  0  0  0  0  0  0  0  0  0  0
  139.4180   66.6250  227.0350 H   0  0  0  0  0  0  0  0  0  0  0  0
  138.1650   67.4490  226.1220 H   0  0  0  0  0  0  0  0  0  0  0  0
  141.2522   71.3355  225.9602 H   0  0  0  0  0  0  0  0  0  0  0  0
  141.0531   72.8593  224.0397 H   0  0  0  0  0  0  0  0  0  0  0  0
  139.0777   72.0713  220.9918 H   0  0  0  0  0  0  0  0  0  0  0  0
  138.8244   73.4392  222.1859 H   0  0  0  0  0  0  0  0  0  0  0  0
  138.9139   75.4142  221.0807 H   0  0  0  0  0  0  0  0  0  0  0  0
  139.4018   76.3404  223.5042 H   0  0  0  0  0  0  0  0  0  0  0  0
  141.2576   77.8957  224.4981 H   0  0  0  0  0  0  0  0  0  0  0  0
  142.6829   79.8937  224.1535 H   0  0  0  0  0  0  0  0  0  0  0  0
  143.0488   80.7460  221.8320 H   0  0  0  0  0  0  0  0  0  0  0  0
  141.9442   79.5406  219.9418 H   0  0  0  0  0  0  0  0  0  0  0  0
  144.5169   75.9682  220.3939 H   0  0  0  0  0  0  0  0  0  0  0  0
  146.4643   74.4821  219.8683 H   0  0  0  0  0  0  0  0  0  0  0  0
  146.1746   72.0120  219.9777 H   0  0  0  0  0  0  0  0  0  0  0  0
  143.9947   71.0214  220.5918 H   0  0  0  0  0  0  0  0  0  0  0  0
  138.1539   70.2468  222.2960 H   0  0  0  0  0  0  0  0  0  0  0  0
  138.3653   68.7219  224.2335 H   0  0  0  0  0  0  0  0  0  0  0  0
  1  2  1  0
  2  3  2  0
  2  4  2  0
  2  5  1  0
  5  6  2  0
  6  7  1  0
  7  8  2  0
  8  9  1  0
  9 10  1  0
 10 11  1  0
 11 12  1  0
 12 13  2  0
 13 14  1  0
 14 15  2  0
 15 16  1  0
 16 17  2  0
 17 18  1  0
 18 19  2  0
 11 20  2  0
 20 21  1  0
 21 22  2  0
 22 23  1  0
 23 24  2  0
 24 25  1  0
 25 26  2  0
 26 27  1  0
 27 28  2  0
  8 29  1  0
 29 30  2  0
 30  5  1  0
 27 10  1  0
 19 14  1  0
 26 21  1  0
  1 31  1  0
  1 32  1  0
  6 33  1  0
  7 34  1  0
  9 35  1  0
  9 36  1  0
 12 37  1  0
 13 38  1  0
 15 39  1  0
 16 40  1  0
 17 41  1  0
 18 42  1  0
 22 43  1  0
 23 44  1  0
 24 45  1  0
 25 46  1  0
 29 47  1  0
 30 48  1  0
M  END
>  <smiles>  (35) 
NS(=O)(=O)c1ccc(Cn2c(/C=C/c3ccccn3)nc3ccccc3c2=O)cc1

>  <score_type>  (35) 
oracle

>  <origin>  (35) 
autodockgpu

>  <m_score__min__energy>  (35) 
-8.8399999999999999

>  <m_primary>  (35) 
energy

>  <rmsd>  (35) 
9.2538866306961

>  <m_score__min__rmsd>  (35) 
9.2538866306961

>  <meeko>  (35) 
{"free_energy": -8.55, "intermolecular_energy": -10.64, "internal_energy": -1.33, "cluster_size": 18, "cluster_id": 1, "rank_in_cluster": 12}

>  <energy>  (35) 
-7.62

>  <cluster_rmsd>  (35) 
0.61

>  <cluster>  (35) 
5

$$$$

     RDKit          3D

 48 51  0  0  0  0  0  0  0  0999 V2000
  135.8250   81.4500  230.7330 N   0  0  0  0  0  0  0  0  0  0  0  0
  134.5930   81.5000  229.5630 S   0  0  0  0  0  0  0  0  0  0  0  0
  133.6530   80.3610  229.7840 O   0  0  0  0  0  0  0  0  0  0  0  0
  133.8620   82.8220  229.7480 O   0  0  0  0  0  0  0  0  0  0  0  0
  135.1630   81.4780  227.9200 C   0  0  0  0  0  0  0  0  0  0  0  0
  136.3770   81.9780  227.5810 C   0  0  0  0  0  0  0  0  0  0  0  0
  136.8350   81.9620  226.2720 C   0  0  0  0  0  0  0  0  0  0  0  0
  136.0620   81.4270  225.2340 C   0  0  0  0  0  0  0  0  0  0  0  0
  136.5850   81.4290  223.8420 C   0  0  0  0  0  0  0  0  0  0  0  0
  137.2760   80.2290  223.4680 N   0  0  0  0  0  0  0  0  0  0  0  0
  136.6770   79.1100  223.0220 C   0  0  0  0  0  0  0  0  0  0  0  0
  135.2010   79.0330  222.9490 C   0  0  0  0  0  0  0  0  0  0  0  0
  134.5730   77.8730  223.1040 C   0  0  0  0  0  0  0  0  0  0  0  0
  134.3740   77.2130  224.3690 C   0  0  0  0  0  0  0  0  0  0  0  0
  134.9310   76.0040  224.7130 C   0  0  0  0  0  0  0  0  0  0  0  0
  134.7120   75.4030  225.9480 C   0  0  0  0  0  0  0  0  0  0  0  0
  133.9090   76.0370  226.8630 C   0  0  0  0  0  0  0  0  0  0  0  0
  133.3530   77.2590  226.4980 C   0  0  0  0  0  0  0  0  0  0  0  0
  133.5900   77.7990  225.3030 N   0  0  0  0  0  0  0  0  0  0  0  0
  137.3660   78.0050  222.6540 N   0  0  0  0  0  0  0  0  0  0  0  0
  138.6960   77.9500  222.7110 C   0  0  0  0  0  0  0  0  0  0  0  0
  139.3620   76.7980  222.3240 C   0  0  0  0  0  0  0  0  0  0  0  0
  140.7490   76.7690  222.3940 C   0  0  0  0  0  0  0  0  0  0  0  0
  141.4250   77.8950  222.8490 C   0  0  0  0  0  0  0  0  0  0  0  0
  140.7410   79.0350  223.2300 C   0  0  0  0  0  0  0  0  0  0  0  0
  139.3590   79.0710  223.1630 C   0  0  0  0  0  0  0  0  0  0  0  0
  138.6400   80.1980  223.5370 C   0  0  0  0  0  0  0  0  0  0  0  0
  139.3170   81.1730  223.9370 O   0  0  0  0  0  0  0  0  0  0  0  0
  134.8380   80.9260  225.6000 C   0  0  0  0  0  0  0  0  0  0  0  0
  134.3780   80.9440  226.9200 C   0  0  0  0  0  0  0  0  0  0  0  0
  135.9470   80.5670  231.2410 H   0  0  0  0  0  0  0  0  0  0  0  0
  136.6630   82.0100  230.5410 H   0  0  0  0  0  0  0  0  0  0  0  0
  137.0163   82.4082  228.3660 H   0  0  0  0  0  0  0  0  0  0  0  0
  137.8272   82.3787  226.0441 H   0  0  0  0  0  0  0  0  0  0  0  0
  135.7364   81.5657  223.1556 H   0  0  0  0  0  0  0  0  0  0  0  0
  137.3193   82.2459  223.7832 H   0  0  0  0  0  0  0  0  0  0  0  0
  134.6173   79.9469  222.7643 H   0  0  0  0  0  0  0  0  0  0  0  0
  134.1769   77.3816  222.2031 H   0  0  0  0  0  0  0  0  0  0  0  0
  135.5751   75.4920  223.9829 H   0  0  0  0  0  0  0  0  0  0  0  0
  135.1752   74.4345  226.1878 H   0  0  0  0  0  0  0  0  0  0  0  0
  133.7119   75.5943  227.8505 H   0  0  0  0  0  0  0  0  0  0  0  0
  132.7046   77.7902  227.2103 H   0  0  0  0  0  0  0  0  0  0  0  0
  138.8016   75.9212  221.9674 H   0  0  0  0  0  0  0  0  0  0  0  0
  141.3042   75.8681  222.0937 H   0  0  0  0  0  0  0  0  0  0  0  0
  142.5234   77.8791  222.9071 H   0  0  0  0  0  0  0  0  0  0  0  0
  141.2964   79.9148  223.5870 H   0  0  0  0  0  0  0  0  0  0  0  0
  134.1920   80.4922  224.8225 H   0  0  0  0  0  0  0  0  0  0  0  0
  133.3874   80.5312  227.1615 H   0  0  0  0  0  0  0  0  0  0  0  0
  1  2  1  0
  2  3  2  0
  2  4  2  0
  2  5  1  0
  5  6  2  0
  6  7  1  0
  7  8  2  0
  8  9  1  0
  9 10  1  0
 10 11  1  0
 11 12  1  0
 12 13  2  0
 13 14  1  0
 14 15  2  0
 15 16  1  0
 16 17  2  0
 17 18  1  0
 18 19  2  0
 11 20  2  0
 20 21  1  0
 21 22  2  0
 22 23  1  0
 23 24  2  0
 24 25  1  0
 25 26  2  0
 26 27  1  0
 27 28  2  0
  8 29  1  0
 29 30  2  0
 30  5  1  0
 27 10  1  0
 19 14  1  0
 26 21  1  0
  1 31  1  0
  1 32  1  0
  6 33  1  0
  7 34  1  0
  9 35  1  0
  9 36  1  0
 12 37  1  0
 13 38  1  0
 15 39  1  0
 16 40  1  0
 17 41  1  0
 18 42  1  0
 22 43  1  0
 23 44  1  0
 24 45  1  0
 25 46  1  0
 29 47  1  0
 30 48  1  0
M  END
>  <smiles>  (36) 
NS(=O)(=O)c1ccc(Cn2c(/C=C/c3ccccn3)nc3ccccc3c2=O)cc1

>  <score_type>  (36) 
oracle

>  <origin>  (36) 
autodockgpu

>  <m_score__min__energy>  (36) 
-8.8399999999999999

>  <m_primary>  (36) 
energy

>  <rmsd>  (36) 
6.250051757894306

>  <m_score__min__rmsd>  (36) 
6.250051757894306

>  <meeko>  (36) 
{"free_energy": -7.69, "intermolecular_energy": -9.78, "internal_energy": -1.75, "cluster_size": 4, "cluster_id": 5, "rank_in_cluster": 1}

>  <energy>  (36) 
-7.59

>  <cluster_rmsd>  (36) 
0.15

>  <cluster>  (36) 
5

$$$$

     RDKit          3D

 48 51  0  0  0  0  0  0  0  0999 V2000
  146.5450   73.0470  221.4780 N   0  0  0  0  0  0  0  0  0  0  0  0
  145.5230   72.9340  220.1240 S   0  0  0  0  0  0  0  0  0  0  0  0
  146.2830   73.3130  218.8960 O   0  0  0  0  0  0  0  0  0  0  0  0
  145.0710   71.4850  220.0310 O   0  0  0  0  0  0  0  0  0  0  0  0
  144.0760   73.8950  220.2360 C   0  0  0  0  0  0  0  0  0  0  0  0
  144.0900   75.2310  220.0050 C   0  0  0  0  0  0  0  0  0  0  0  0
  142.9390   76.0000  220.0920 C   0  0  0  0  0  0  0  0  0  0  0  0
  141.7030   75.4310  220.4260 C   0  0  0  0  0  0  0  0  0  0  0  0
  140.4910   76.2870  220.5130 C   0  0  0  0  0  0  0  0  0  0  0  0
  140.7590   77.6620  220.8240 N   0  0  0  0  0  0  0  0  0  0  0  0
  140.6720   78.6750  219.9430 C   0  0  0  0  0  0  0  0  0  0  0  0
  140.3400   78.4040  218.5260 C   0  0  0  0  0  0  0  0  0  0  0  0
  141.2920   78.3710  217.6000 C   0  0  0  0  0  0  0  0  0  0  0  0
  142.0290   77.1910  217.2260 C   0  0  0  0  0  0  0  0  0  0  0  0
  143.3550   77.1830  216.8600 C   0  0  0  0  0  0  0  0  0  0  0  0
  144.0270   76.0180  216.5060 C   0  0  0  0  0  0  0  0  0  0  0  0
  143.3450   74.8270  216.5220 C   0  0  0  0  0  0  0  0  0  0  0  0
  142.0050   74.8530  216.8930 C   0  0  0  0  0  0  0  0  0  0  0  0
  141.4000   75.9940  217.2250 N   0  0  0  0  0  0  0  0  0  0  0  0
  140.9080   79.9640  220.2810 N   0  0  0  0  0  0  0  0  0  0  0  0
  141.2470   80.3190  221.5190 C   0  0  0  0  0  0  0  0  0  0  0  0
  141.4800   81.6510  221.8210 C   0  0  0  0  0  0  0  0  0  0  0  0
  141.8330   81.9930  223.1210 C   0  0  0  0  0  0  0  0  0  0  0  0
  141.9400   80.9880  224.0770 C   0  0  0  0  0  0  0  0  0  0  0  0
  141.7030   79.6650  223.7530 C   0  0  0  0  0  0  0  0  0  0  0  0
  141.3520   79.3180  222.4610 C   0  0  0  0  0  0  0  0  0  0  0  0
  141.1060   77.9990  222.1010 C   0  0  0  0  0  0  0  0  0  0  0  0
  141.2230   77.1500  223.0150 O   0  0  0  0  0  0  0  0  0  0  0  0
  141.7130   74.0780  220.6550 C   0  0  0  0  0  0  0  0  0  0  0  0
  142.8750   73.3050  220.5660 C   0  0  0  0  0  0  0  0  0  0  0  0
  146.6880   73.9810  221.8740 H   0  0  0  0  0  0  0  0  0  0  0  0
  146.5410   72.2500  222.1230 H   0  0  0  0  0  0  0  0  0  0  0  0
  145.0403   75.7184  219.7414 H   0  0  0  0  0  0  0  0  0  0  0  0
  142.9978   77.0805  219.8944 H   0  0  0  0  0  0  0  0  0  0  0  0
  139.9717   76.2481  219.5441 H   0  0  0  0  0  0  0  0  0  0  0  0
  139.8842   75.8899  221.3402 H   0  0  0  0  0  0  0  0  0  0  0  0
  139.2934   78.2280  218.2366 H   0  0  0  0  0  0  0  0  0  0  0  0
  141.5346   79.3108  217.0824 H   0  0  0  0  0  0  0  0  0  0  0  0
  143.9053   78.1353  216.8468 H   0  0  0  0  0  0  0  0  0  0  0  0
  145.0881   76.0505  216.2178 H   0  0  0  0  0  0  0  0  0  0  0  0
  143.8416   73.8838  216.2505 H   0  0  0  0  0  0  0  0  0  0  0  0
  141.4328   73.9137  216.9130 H   0  0  0  0  0  0  0  0  0  0  0  0
  141.3871   82.4249  221.0448 H   0  0  0  0  0  0  0  0  0  0  0  0
  142.0248   83.0422  223.3899 H   0  0  0  0  0  0  0  0  0  0  0  0
  142.2180   81.2505  225.1084 H   0  0  0  0  0  0  0  0  0  0  0  0
  141.7938   78.8864  224.5247 H   0  0  0  0  0  0  0  0  0  0  0  0
  140.7680   73.5810  220.9195 H   0  0  0  0  0  0  0  0  0  0  0  0
  142.8303   72.2231  220.7599 H   0  0  0  0  0  0  0  0  0  0  0  0
  1  2  1  0
  2  3  2  0
  2  4  2  0
  2  5  1  0
  5  6  2  0
  6  7  1  0
  7  8  2  0
  8  9  1  0
  9 10  1  0
 10 11  1  0
 11 12  1  0
 12 13  2  0
 13 14  1  0
 14 15  2  0
 15 16  1  0
 16 17  2  0
 17 18  1  0
 18 19  2  0
 11 20  2  0
 20 21  1  0
 21 22  2  0
 22 23  1  0
 23 24  2  0
 24 25  1  0
 25 26  2  0
 26 27  1  0
 27 28  2  0
  8 29  1  0
 29 30  2  0
 30  5  1  0
 27 10  1  0
 19 14  1  0
 26 21  1  0
  1 31  1  0
  1 32  1  0
  6 33  1  0
  7 34  1  0
  9 35  1  0
  9 36  1  0
 12 37  1  0
 13 38  1  0
 15 39  1  0
 16 40  1  0
 17 41  1  0
 18 42  1  0
 22 43  1  0
 23 44  1  0
 24 45  1  0
 25 46  1  0
 29 47  1  0
 30 48  1  0
M  END
>  <smiles>  (37) 
NS(=O)(=O)c1ccc(Cn2c(/C=C/c3ccccn3)nc3ccccc3c2=O)cc1

>  <score_type>  (37) 
oracle

>  <origin>  (37) 
autodockgpu

>  <m_score__min__energy>  (37) 
-8.8399999999999999

>  <m_primary>  (37) 
energy

>  <rmsd>  (37) 
7.303642166448164

>  <m_score__min__rmsd>  (37) 
7.303642166448164

>  <meeko>  (37) 
{"free_energy": -7.1, "intermolecular_energy": -9.19, "internal_energy": -2.23, "cluster_size": 1, "cluster_id": 10, "rank_in_cluster": 1}

>  <energy>  (37) 
-7.25

>  <cluster_rmsd>  (37) 
1.13

>  <cluster>  (37) 
5

$$$$

     RDKit          3D

 48 51  0  0  0  0  0  0  0  0999 V2000
  143.6510   75.2150  220.0160 N   0  0  0  0  0  0  0  0  0  0  0  0
  143.6060   73.5180  220.0980 S   0  0  0  0  0  0  0  0  0  0  0  0
  143.7340   72.9530  218.7210 O   0  0  0  0  0  0  0  0  0  0  0  0
  144.7890   73.0860  220.9510 O   0  0  0  0  0  0  0  0  0  0  0  0
  142.1840   72.8730  220.8650 C   0  0  0  0  0  0  0  0  0  0  0  0
  141.9090   71.5450  220.8530 C   0  0  0  0  0  0  0  0  0  0  0  0
  140.7770   71.0280  221.4640 C   0  0  0  0  0  0  0  0  0  0  0  0
  139.8590   71.8550  222.1240 C   0  0  0  0  0  0  0  0  0  0  0  0
  138.6550   71.2650  222.7650 C   0  0  0  0  0  0  0  0  0  0  0  0
  138.9420   70.3230  223.8080 N   0  0  0  0  0  0  0  0  0  0  0  0
  138.5480   69.0360  223.8050 C   0  0  0  0  0  0  0  0  0  0  0  0
  137.7060   68.5180  222.7040 C   0  0  0  0  0  0  0  0  0  0  0  0
  136.4060   68.7890  222.6580 C   0  0  0  0  0  0  0  0  0  0  0  0
  135.5770   69.0210  223.8130 C   0  0  0  0  0  0  0  0  0  0  0  0
  135.6260   70.1510  224.5940 C   0  0  0  0  0  0  0  0  0  0  0  0
  134.8050   70.3320  225.7010 C   0  0  0  0  0  0  0  0  0  0  0  0
  133.9080   69.3480  226.0320 C   0  0  0  0  0  0  0  0  0  0  0  0
  133.8710   68.2100  225.2310 C   0  0  0  0  0  0  0  0  0  0  0  0
  134.6770   68.0780  224.1780 N   0  0  0  0  0  0  0  0  0  0  0  0
  138.8600   68.1700  224.7970 N   0  0  0  0  0  0  0  0  0  0  0  0
  139.5840   68.5370  225.8540 C   0  0  0  0  0  0  0  0  0  0  0  0
  139.8810   67.6180  226.8470 C   0  0  0  0  0  0  0  0  0  0  0  0
  140.6370   68.0280  227.9370 C   0  0  0  0  0  0  0  0  0  0  0  0
  141.0730   69.3480  227.9970 C   0  0  0  0  0  0  0  0  0  0  0  0
  140.7660   70.2480  226.9950 C   0  0  0  0  0  0  0  0  0  0  0  0
  140.0130   69.8460  225.9060 C   0  0  0  0  0  0  0  0  0  0  0  0
  139.6850   70.7250  224.8810 C   0  0  0  0  0  0  0  0  0  0  0  0
  140.1120   71.8960  225.0050 O   0  0  0  0  0  0  0  0  0  0  0  0
  140.1580   73.1950  222.1240 C   0  0  0  0  0  0  0  0  0  0  0  0
  141.3000   73.7140  221.5070 C   0  0  0  0  0  0  0  0  0  0  0  0
  143.3160   75.7280  220.8390 H   0  0  0  0  0  0  0  0  0  0  0  0
  144.4180   75.6280  219.4760 H   0  0  0  0  0  0  0  0  0  0  0  0
  142.6030   70.8595  220.3446 H   0  0  0  0  0  0  0  0  0  0  0  0
  140.5956   69.9436  221.4297 H   0  0  0  0  0  0  0  0  0  0  0  0
  138.0579   72.0829  223.1945 H   0  0  0  0  0  0  0  0  0  0  0  0
  138.1200   70.7112  221.9795 H   0  0  0  0  0  0  0  0  0  0  0  0
  138.1613   67.9017  221.9148 H   0  0  0  0  0  0  0  0  0  0  0  0
  135.9292   68.8398  221.6680 H   0  0  0  0  0  0  0  0  0  0  0  0
  136.3431   70.9432  224.3328 H   0  0  0  0  0  0  0  0  0  0  0  0
  134.8734   71.2504  226.3026 H   0  0  0  0  0  0  0  0  0  0  0  0
  133.2411   69.4546  226.9003 H   0  0  0  0  0  0  0  0  0  0  0  0
  133.1625   67.4038  225.4720 H   0  0  0  0  0  0  0  0  0  0  0  0
  139.5237   66.5803  226.7732 H   0  0  0  0  0  0  0  0  0  0  0  0
  140.8874   67.3201  228.7409 H   0  0  0  0  0  0  0  0  0  0  0  0
  141.6725   69.6806  228.8572 H   0  0  0  0  0  0  0  0  0  0  0  0
  141.1211   71.2869  227.0630 H   0  0  0  0  0  0  0  0  0  0  0  0
  139.4707   73.8887  222.6303 H   0  0  0  0  0  0  0  0  0  0  0  0
  141.4939   74.7964  221.5338 H   0  0  0  0  0  0  0  0  0  0  0  0
  1  2  1  0
  2  3  2  0
  2  4  2  0
  2  5  1  0
  5  6  2  0
  6  7  1  0
  7  8  2  0
  8  9  1  0
  9 10  1  0
 10 11  1  0
 11 12  1  0
 12 13  2  0
 13 14  1  0
 14 15  2  0
 15 16  1  0
 16 17  2  0
 17 18  1  0
 18 19  2  0
 11 20  2  0
 20 21  1  0
 21 22  2  0
 22 23  1  0
 23 24  2  0
 24 25  1  0
 25 26  2  0
 26 27  1  0
 27 28  2  0
  8 29  1  0
 29 30  2  0
 30  5  1  0
 27 10  1  0
 19 14  1  0
 26 21  1  0
  1 31  1  0
  1 32  1  0
  6 33  1  0
  7 34  1  0
  9 35  1  0
  9 36  1  0
 12 37  1  0
 13 38  1  0
 15 39  1  0
 16 40  1  0
 17 41  1  0
 18 42  1  0
 22 43  1  0
 23 44  1  0
 24 45  1  0
 25 46  1  0
 29 47  1  0
 30 48  1  0
M  END
>  <smiles>  (38) 
NS(=O)(=O)c1ccc(Cn2c(/C=C/c3ccccn3)nc3ccccc3c2=O)cc1

>  <score_type>  (38) 
oracle

>  <origin>  (38) 
autodockgpu

>  <m_score__min__energy>  (38) 
-8.8399999999999999

>  <m_primary>  (38) 
energy

>  <rmsd>  (38) 
10.182994513516972

>  <m_score__min__rmsd>  (38) 
10.182994513516972

>  <meeko>  (38) 
{"free_energy": -8.05, "intermolecular_energy": -10.14, "internal_energy": -1.54, "cluster_size": 13, "cluster_id": 2, "rank_in_cluster": 4}

>  <energy>  (38) 
-7.67

>  <cluster_rmsd>  (38) 
0.0

>  <cluster>  (38) 
6

$$$$

     RDKit          3D

 48 51  0  0  0  0  0  0  0  0999 V2000
  139.2060   67.3460  226.4440 N   0  0  0  0  0  0  0  0  0  0  0  0
  139.8940   68.8660  226.7690 S   0  0  0  0  0  0  0  0  0  0  0  0
  139.2600   69.4450  227.9910 O   0  0  0  0  0  0  0  0  0  0  0  0
  141.3790   68.6360  227.0110 O   0  0  0  0  0  0  0  0  0  0  0  0
  139.7780   70.0020  225.4560 C   0  0  0  0  0  0  0  0  0  0  0  0
  138.7480   69.9690  224.5760 C   0  0  0  0  0  0  0  0  0  0  0  0
  138.6520   70.8730  223.5290 C   0  0  0  0  0  0  0  0  0  0  0  0
  139.6190   71.8660  223.3290 C   0  0  0  0  0  0  0  0  0  0  0  0
  139.4850   72.8150  222.1930 C   0  0  0  0  0  0  0  0  0  0  0  0
  140.7330   73.2940  221.6720 N   0  0  0  0  0  0  0  0  0  0  0  0
  141.0730   74.5920  221.5760 C   0  0  0  0  0  0  0  0  0  0  0  0
  140.1080   75.6460  221.9640 C   0  0  0  0  0  0  0  0  0  0  0  0
  140.1930   76.8670  221.4480 C   0  0  0  0  0  0  0  0  0  0  0  0
  141.0070   77.9280  221.9860 C   0  0  0  0  0  0  0  0  0  0  0  0
  141.4040   78.0170  223.2990 C   0  0  0  0  0  0  0  0  0  0  0  0
  142.1910   79.0600  223.7740 C   0  0  0  0  0  0  0  0  0  0  0  0
  142.5900   80.0420  222.9030 C   0  0  0  0  0  0  0  0  0  0  0  0
  142.1780   79.9370  221.5770 C   0  0  0  0  0  0  0  0  0  0  0  0
  141.4240   78.9190  221.1650 N   0  0  0  0  0  0  0  0  0  0  0  0
  142.2710   75.0050  221.1010 N   0  0  0  0  0  0  0  0  0  0  0  0
  143.2030   74.1450  220.6920 C   0  0  0  0  0  0  0  0  0  0  0  0
  144.4160   74.6100  220.2120 C   0  0  0  0  0  0  0  0  0  0  0  0
  145.3690   73.6910  219.7920 C   0  0  0  0  0  0  0  0  0  0  0  0
  145.0750   72.3340  219.8660 C   0  0  0  0  0  0  0  0  0  0  0  0
  143.8570   71.8910  220.3480 C   0  0  0  0  0  0  0  0  0  0  0  0
  142.9040   72.8010  220.7680 C   0  0  0  0  0  0  0  0  0  0  0  0
  141.6700   72.3920  221.2580 C   0  0  0  0  0  0  0  0  0  0  0  0
  141.4780   71.1540  221.2930 O   0  0  0  0  0  0  0  0  0  0  0  0
  140.6530   71.8800  224.2320 C   0  0  0  0  0  0  0  0  0  0  0  0
  140.7470   70.9680  225.2870 C   0  0  0  0  0  0  0  0  0  0  0  0
  139.2940   66.9920  225.4860 H   0  0  0  0  0  0  0  0  0  0  0  0
  139.2220   66.6630  227.2090 H   0  0  0  0  0  0  0  0  0  0  0  0
  137.9666   69.2041  224.6956 H   0  0  0  0  0  0  0  0  0  0  0  0
  137.7970   70.8087  222.8400 H   0  0  0  0  0  0  0  0  0  0  0  0
  138.9456   72.3057  221.3808 H   0  0  0  0  0  0  0  0  0  0  0  0
  138.9474   73.6936  222.5790 H   0  0  0  0  0  0  0  0  0  0  0  0
  139.3121   75.4153  222.6874 H   0  0  0  0  0  0  0  0  0  0  0  0
  139.6006   77.0837  220.5468 H   0  0  0  0  0  0  0  0  0  0  0  0
  141.0866   77.2322  224.0014 H   0  0  0  0  0  0  0  0  0  0  0  0
  142.4892   79.0973  224.8321 H   0  0  0  0  0  0  0  0  0  0  0  0
  143.2136   80.8830  223.2403 H   0  0  0  0  0  0  0  0  0  0  0  0
  142.4811   80.7100  220.8554 H   0  0  0  0  0  0  0  0  0  0  0  0
  144.6214   75.6896  220.1642 H   0  0  0  0  0  0  0  0  0  0  0  0
  146.3414   74.0315  219.4068 H   0  0  0  0  0  0  0  0  0  0  0  0
  145.8245   71.5999  219.5353 H   0  0  0  0  0  0  0  0  0  0  0  0
  143.6456   70.8126  220.3975 H   0  0  0  0  0  0  0  0  0  0  0  0
  141.4400   72.6404  224.1206 H   0  0  0  0  0  0  0  0  0  0  0  0
  141.5962   71.0212  225.9842 H   0  0  0  0  0  0  0  0  0  0  0  0
  1  2  1  0
  2  3  2  0
  2  4  2  0
  2  5  1  0
  5  6  2  0
  6  7  1  0
  7  8  2  0
  8  9  1  0
  9 10  1  0
 10 11  1  0
 11 12  1  0
 12 13  2  0
 13 14  1  0
 14 15  2  0
 15 16  1  0
 16 17  2  0
 17 18  1  0
 18 19  2  0
 11 20  2  0
 20 21  1  0
 21 22  2  0
 22 23  1  0
 23 24  2  0
 24 25  1  0
 25 26  2  0
 26 27  1  0
 27 28  2  0
  8 29  1  0
 29 30  2  0
 30  5  1  0
 27 10  1  0
 19 14  1  0
 26 21  1  0
  1 31  1  0
  1 32  1  0
  6 33  1  0
  7 34  1  0
  9 35  1  0
  9 36  1  0
 12 37  1  0
 13 38  1  0
 15 39  1  0
 16 40  1  0
 17 41  1  0
 18 42  1  0
 22 43  1  0
 23 44  1  0
 24 45  1  0
 25 46  1  0
 29 47  1  0
 30 48  1  0
M  END
>  <smiles>  (39) 
NS(=O)(=O)c1ccc(Cn2c(/C=C/c3ccccn3)nc3ccccc3c2=O)cc1

>  <score_type>  (39) 
oracle

>  <origin>  (39) 
autodockgpu

>  <m_score__min__energy>  (39) 
-8.8399999999999999

>  <m_primary>  (39) 
energy

>  <rmsd>  (39) 
9.345366955626877

>  <m_score__min__rmsd>  (39) 
9.345366955626877

>  <meeko>  (39) 
{"free_energy": -8.84, "intermolecular_energy": -10.93, "internal_energy": -1.2, "cluster_size": 18, "cluster_id": 1, "rank_in_cluster": 1}

>  <energy>  (39) 
-7.66

>  <cluster_rmsd>  (39) 
0.53

>  <cluster>  (39) 
6

$$$$

     RDKit          3D

 48 51  0  0  0  0  0  0  0  0999 V2000
  142.3970   78.8670  221.5930 N   0  0  0  0  0  0  0  0  0  0  0  0
  141.0410   78.4990  222.5490 S   0  0  0  0  0  0  0  0  0  0  0  0
  141.4010   78.6320  223.9920 O   0  0  0  0  0  0  0  0  0  0  0  0
  139.9590   79.5050  222.1860 O   0  0  0  0  0  0  0  0  0  0  0  0
  140.3650   76.9220  222.2590 C   0  0  0  0  0  0  0  0  0  0  0  0
  141.1020   75.9200  221.7180 C   0  0  0  0  0  0  0  0  0  0  0  0
  140.5670   74.6620  221.4860 C   0  0  0  0  0  0  0  0  0  0  0  0
  139.2340   74.3650  221.7990 C   0  0  0  0  0  0  0  0  0  0  0  0
  138.6940   73.0060  221.5330 C   0  0  0  0  0  0  0  0  0  0  0  0
  138.7040   72.1330  222.6720 N   0  0  0  0  0  0  0  0  0  0  0  0
  137.6140   71.5260  223.1780 C   0  0  0  0  0  0  0  0  0  0  0  0
  136.2780   71.7890  222.5980 C   0  0  0  0  0  0  0  0  0  0  0  0
  135.2360   72.0440  223.3820 C   0  0  0  0  0  0  0  0  0  0  0  0
  135.0660   73.2500  224.1510 C   0  0  0  0  0  0  0  0  0  0  0  0
  135.6140   74.4680  223.8230 C   0  0  0  0  0  0  0  0  0  0  0  0
  135.4220   75.6080  224.5960 C   0  0  0  0  0  0  0  0  0  0  0  0
  134.6580   75.5200  225.7320 C   0  0  0  0  0  0  0  0  0  0  0  0
  134.1110   74.2800  226.0500 C   0  0  0  0  0  0  0  0  0  0  0  0
  134.3210   73.2130  225.2800 N   0  0  0  0  0  0  0  0  0  0  0  0
  137.6660   70.6880  224.2390 N   0  0  0  0  0  0  0  0  0  0  0  0
  138.8110   70.4060  224.8600 C   0  0  0  0  0  0  0  0  0  0  0  0
  138.8190   69.5420  225.9430 C   0  0  0  0  0  0  0  0  0  0  0  0
  140.0260   69.2660  226.5720 C   0  0  0  0  0  0  0  0  0  0  0  0
  141.1880   69.8640  226.0950 C   0  0  0  0  0  0  0  0  0  0  0  0
  141.1560   70.7230  225.0130 C   0  0  0  0  0  0  0  0  0  0  0  0
  139.9570   71.0030  224.3820 C   0  0  0  0  0  0  0  0  0  0  0  0
  139.8890   71.8610  223.2910 C   0  0  0  0  0  0  0  0  0  0  0  0
  140.9750   72.3620  222.9200 O   0  0  0  0  0  0  0  0  0  0  0  0
  138.5080   75.3930  222.3460 C   0  0  0  0  0  0  0  0  0  0  0  0
  139.0490   76.6610  222.5790 C   0  0  0  0  0  0  0  0  0  0  0  0
  142.9280   79.7070  221.8450 H   0  0  0  0  0  0  0  0  0  0  0  0
  142.9180   78.0700  221.2100 H   0  0  0  0  0  0  0  0  0  0  0  0
  142.1532   76.1107  221.4561 H   0  0  0  0  0  0  0  0  0  0  0  0
  141.2033   73.8798  221.0464 H   0  0  0  0  0  0  0  0  0  0  0  0
  137.6548   73.1098  221.1877 H   0  0  0  0  0  0  0  0  0  0  0  0
  139.3513   72.5479  220.7793 H   0  0  0  0  0  0  0  0  0  0  0  0
  136.1463   71.7732  221.5060 H   0  0  0  0  0  0  0  0  0  0  0  0
  134.4474   71.2800  223.4485 H   0  0  0  0  0  0  0  0  0  0  0  0
  136.2282   74.5434  222.9136 H   0  0  0  0  0  0  0  0  0  0  0  0
  135.8758   76.5656  224.3010 H   0  0  0  0  0  0  0  0  0  0  0  0
  134.4836   76.3991  226.3698 H   0  0  0  0  0  0  0  0  0  0  0  0
  133.4933   74.1791  226.9546 H   0  0  0  0  0  0  0  0  0  0  0  0
  137.8851   69.0824  226.2986 H   0  0  0  0  0  0  0  0  0  0  0  0
  140.0627   68.5846  227.4347 H   0  0  0  0  0  0  0  0  0  0  0  0
  142.1481   69.6495  226.5872 H   0  0  0  0  0  0  0  0  0  0  0  0
  142.0866   71.1855  224.6523 H   0  0  0  0  0  0  0  0  0  0  0  0
  137.4562   75.2118  222.6123 H   0  0  0  0  0  0  0  0  0  0  0  0
  138.4237   77.4522  223.0185 H   0  0  0  0  0  0  0  0  0  0  0  0
  1  2  1  0
  2  3  2  0
  2  4  2  0
  2  5  1  0
  5  6  2  0
  6  7  1  0
  7  8  2  0
  8  9  1  0
  9 10  1  0
 10 11  1  0
 11 12  1  0
 12 13  2  0
 13 14  1  0
 14 15  2  0
 15 16  1  0
 16 17  2  0
 17 18  1  0
 18 19  2  0
 11 20  2  0
 20 21  1  0
 21 22  2  0
 22 23  1  0
 23 24  2  0
 24 25  1  0
 25 26  2  0
 26 27  1  0
 27 28  2  0
  8 29  1  0
 29 30  2  0
 30  5  1  0
 27 10  1  0
 19 14  1  0
 26 21  1  0
  1 31  1  0
  1 32  1  0
  6 33  1  0
  7 34  1  0
  9 35  1  0
  9 36  1  0
 12 37  1  0
 13 38  1  0
 15 39  1  0
 16 40  1  0
 17 41  1  0
 18 42  1  0
 22 43  1  0
 23 44  1  0
 24 45  1  0
 25 46  1  0
 29 47  1  0
 30 48  1  0
M  END
>  <smiles>  (40) 
NS(=O)(=O)c1ccc(Cn2c(/C=C/c3ccccn3)nc3ccccc3c2=O)cc1

>  <score_type>  (40) 
oracle

>  <origin>  (40) 
autodockgpu

>  <m_score__min__energy>  (40) 
-8.8399999999999999

>  <m_primary>  (40) 
energy

>  <rmsd>  (40) 
7.773308410314729

>  <m_score__min__rmsd>  (40) 
7.773308410314729

>  <meeko>  (40) 
{"free_energy": -7.46, "intermolecular_energy": -9.55, "internal_energy": -1.49, "cluster_size": 3, "cluster_id": 7, "rank_in_cluster": 1}

>  <energy>  (40) 
-7.65

>  <cluster_rmsd>  (40) 
0.4

>  <cluster>  (40) 
6

$$$$

     RDKit          3D

 48 51  0  0  0  0  0  0  0  0999 V2000
  141.4420   68.3210  226.8950 N   0  0  0  0  0  0  0  0  0  0  0  0
  139.8210   68.6620  226.5110 S   0  0  0  0  0  0  0  0  0  0  0  0
  139.1180   67.3930  226.1600 O   0  0  0  0  0  0  0  0  0  0  0  0
  139.1940   69.2810  227.7510 O   0  0  0  0  0  0  0  0  0  0  0  0
  139.6160   69.8180  225.2260 C   0  0  0  0  0  0  0  0  0  0  0  0
  140.5810   70.7210  224.9210 C   0  0  0  0  0  0  0  0  0  0  0  0
  140.4220   71.6430  223.8980 C   0  0  0  0  0  0  0  0  0  0  0  0
  139.2520   71.6870  223.1280 C   0  0  0  0  0  0  0  0  0  0  0  0
  139.1160   72.6910  222.0420 C   0  0  0  0  0  0  0  0  0  0  0  0
  140.3540   73.2840  221.6250 N   0  0  0  0  0  0  0  0  0  0  0  0
  140.6360   74.5980  221.7040 C   0  0  0  0  0  0  0  0  0  0  0  0
  139.6140   75.5520  222.1880 C   0  0  0  0  0  0  0  0  0  0  0  0
  139.5620   76.7910  221.7120 C   0  0  0  0  0  0  0  0  0  0  0  0
  140.3610   77.8880  222.1960 C   0  0  0  0  0  0  0  0  0  0  0  0
  141.5230   78.3260  221.6060 C   0  0  0  0  0  0  0  0  0  0  0  0
  142.2620   79.3910  222.1100 C   0  0  0  0  0  0  0  0  0  0  0  0
  141.8200   80.0330  223.2380 C   0  0  0  0  0  0  0  0  0  0  0  0
  140.6420   79.5770  223.8230 C   0  0  0  0  0  0  0  0  0  0  0  0
  139.9650   78.5520  223.3070 N   0  0  0  0  0  0  0  0  0  0  0  0
  141.8270   75.1170  221.3250 N   0  0  0  0  0  0  0  0  0  0  0  0
  142.8080   74.3560  220.8420 C   0  0  0  0  0  0  0  0  0  0  0  0
  144.0120   74.9290  220.4650 C   0  0  0  0  0  0  0  0  0  0  0  0
  145.0170   74.1110  219.9650 C   0  0  0  0  0  0  0  0  0  0  0  0
  144.7850   72.7440  219.8590 C   0  0  0  0  0  0  0  0  0  0  0  0
  143.5760   72.1930  220.2410 C   0  0  0  0  0  0  0  0  0  0  0  0
  142.5700   73.0020  220.7400 C   0  0  0  0  0  0  0  0  0  0  0  0
  141.3430   72.4820  221.1340 C   0  0  0  0  0  0  0  0  0  0  0  0
  141.2070   71.2430  221.0080 O   0  0  0  0  0  0  0  0  0  0  0  0
  138.2900   70.7640  223.4540 C   0  0  0  0  0  0  0  0  0  0  0  0
  138.4530   69.8350  224.4870 C   0  0  0  0  0  0  0  0  0  0  0  0
  141.9420   67.6820  226.2690 H   0  0  0  0  0  0  0  0  0  0  0  0
  141.9780   69.0780  227.3330 H   0  0  0  0  0  0  0  0  0  0  0  0
  141.5155   70.7218  225.5013 H   0  0  0  0  0  0  0  0  0  0  0  0
  141.2324   72.3560  223.6860 H   0  0  0  0  0  0  0  0  0  0  0  0
  138.6608   72.1965  221.1712 H   0  0  0  0  0  0  0  0  0  0  0  0
  138.4969   73.5065  222.4440 H   0  0  0  0  0  0  0  0  0  0  0  0
  138.8890   75.2316  222.9507 H   0  0  0  0  0  0  0  0  0  0  0  0
  138.8594   76.9939  220.8903 H   0  0  0  0  0  0  0  0  0  0  0  0
  141.8820   77.8146  220.7007 H   0  0  0  0  0  0  0  0  0  0  0  0
  143.1876   79.7136  221.6109 H   0  0  0  0  0  0  0  0  0  0  0  0
  142.3772   80.8794  223.6661 H   0  0  0  0  0  0  0  0  0  0  0  0
  140.2627   80.0725  224.7289 H   0  0  0  0  0  0  0  0  0  0  0  0
  144.1692   76.0135  220.5601 H   0  0  0  0  0  0  0  0  0  0  0  0
  145.9827   74.5384  219.6572 H   0  0  0  0  0  0  0  0  0  0  0  0
  145.5767   72.0901  219.4646 H   0  0  0  0  0  0  0  0  0  0  0  0
  143.4132   71.1091  220.1481 H   0  0  0  0  0  0  0  0  0  0  0  0
  137.3521   70.7544  222.8793 H   0  0  0  0  0  0  0  0  0  0  0  0
  137.6508   69.1162  224.7100 H   0  0  0  0  0  0  0  0  0  0  0  0
  1  2  1  0
  2  3  2  0
  2  4  2  0
  2  5  1  0
  5  6  2  0
  6  7  1  0
  7  8  2  0
  8  9  1  0
  9 10  1  0
 10 11  1  0
 11 12  1  0
 12 13  2  0
 13 14  1  0
 14 15  2  0
 15 16  1  0
 16 17  2  0
 17 18  1  0
 18 19  2  0
 11 20  2  0
 20 21  1  0
 21 22  2  0
 22 23  1  0
 23 24  2  0
 24 25  1  0
 25 26  2  0
 26 27  1  0
 27 28  2  0
  8 29  1  0
 29 30  2  0
 30  5  1  0
 27 10  1  0
 19 14  1  0
 26 21  1  0
  1 31  1  0
  1 32  1  0
  6 33  1  0
  7 34  1  0
  9 35  1  0
  9 36  1  0
 12 37  1  0
 13 38  1  0
 15 39  1  0
 16 40  1  0
 17 41  1  0
 18 42  1  0
 22 43  1  0
 23 44  1  0
 24 45  1  0
 25 46  1  0
 29 47  1  0
 30 48  1  0
M  END
>  <smiles>  (41) 
NS(=O)(=O)c1ccc(Cn2c(/C=C/c3ccccn3)nc3ccccc3c2=O)cc1

>  <score_type>  (41) 
oracle

>  <origin>  (41) 
autodockgpu

>  <m_score__min__energy>  (41) 
-8.8399999999999999

>  <m_primary>  (41) 
energy

>  <rmsd>  (41) 
9.146826407347268

>  <m_score__min__rmsd>  (41) 
9.146826407347268

>  <meeko>  (41) 
{"free_energy": -8.12, "intermolecular_energy": -10.21, "internal_energy": -1.19, "cluster_size": 18, "cluster_id": 1, "rank_in_cluster": 17}

>  <energy>  (41) 
-7.46

>  <cluster_rmsd>  (41) 
0.0

>  <cluster>  (41) 
7

$$$$

     RDKit          3D

 48 51  0  0  0  0  0  0  0  0999 V2000
  143.8240   75.3420  219.7360 N   0  0  0  0  0  0  0  0  0  0  0  0
  143.9330   73.6940  220.1390 S   0  0  0  0  0  0  0  0  0  0  0  0
  144.3530   72.9170  218.9340 O   0  0  0  0  0  0  0  0  0  0  0  0
  144.9870   73.5750  221.2290 O   0  0  0  0  0  0  0  0  0  0  0  0
  142.4700   73.0160  220.7920 C   0  0  0  0  0  0  0  0  0  0  0  0
  142.2510   71.6780  220.8090 C   0  0  0  0  0  0  0  0  0  0  0  0
  141.0860   71.1340  221.3300 C   0  0  0  0  0  0  0  0  0  0  0  0
  140.0760   71.9450  221.8620 C   0  0  0  0  0  0  0  0  0  0  0  0
  138.8400   71.3260  222.4080 C   0  0  0  0  0  0  0  0  0  0  0  0
  139.0590   70.4480  223.5210 N   0  0  0  0  0  0  0  0  0  0  0  0
  138.5800   69.1940  223.6110 C   0  0  0  0  0  0  0  0  0  0  0  0
  137.7090   68.6510  222.5440 C   0  0  0  0  0  0  0  0  0  0  0  0
  136.4010   68.5190  222.7370 C   0  0  0  0  0  0  0  0  0  0  0  0
  135.6520   69.2040  223.7600 C   0  0  0  0  0  0  0  0  0  0  0  0
  135.6670   70.5640  223.9600 C   0  0  0  0  0  0  0  0  0  0  0  0
  134.9260   71.1820  224.9620 C   0  0  0  0  0  0  0  0  0  0  0  0
  134.1470   70.4090  225.7850 C   0  0  0  0  0  0  0  0  0  0  0  0
  134.1440   69.0340  225.5700 C   0  0  0  0  0  0  0  0  0  0  0  0
  134.8700   68.4830  224.5970 N   0  0  0  0  0  0  0  0  0  0  0  0
  138.8300   68.3850  224.6670 N   0  0  0  0  0  0  0  0  0  0  0  0
  139.5740   68.7810  225.6990 C   0  0  0  0  0  0  0  0  0  0  0  0
  139.8050   67.9210  226.7600 C   0  0  0  0  0  0  0  0  0  0  0  0
  140.5830   68.3610  227.8230 C   0  0  0  0  0  0  0  0  0  0  0  0
  141.1060   69.6490  227.7890 C   0  0  0  0  0  0  0  0  0  0  0  0
  140.8630   70.4910  226.7200 C   0  0  0  0  0  0  0  0  0  0  0  0
  140.0880   70.0590  225.6580 C   0  0  0  0  0  0  0  0  0  0  0  0
  139.8240   70.8790  224.5670 C   0  0  0  0  0  0  0  0  0  0  0  0
  140.3280   72.0250  224.6080 O   0  0  0  0  0  0  0  0  0  0  0  0
  140.3190   73.2950  221.8350 C   0  0  0  0  0  0  0  0  0  0  0  0
  141.4940   73.8410  221.3090 C   0  0  0  0  0  0  0  0  0  0  0  0
  143.5860   75.9900  220.4940 H   0  0  0  0  0  0  0  0  0  0  0  0
  144.4570   75.6770  219.0020 H   0  0  0  0  0  0  0  0  0  0  0  0
  143.0183   71.0053  220.3983 H   0  0  0  0  0  0  0  0  0  0  0  0
  140.9528   70.0421  221.3251 H   0  0  0  0  0  0  0  0  0  0  0  0
  138.1661   72.1323  222.7332 H   0  0  0  0  0  0  0  0  0  0  0  0
  138.4144   70.7106  221.6017 H   0  0  0  0  0  0  0  0  0  0  0  0
  138.1495   68.3536  221.5809 H   0  0  0  0  0  0  0  0  0  0  0  0
  135.8514   67.8393  222.0692 H   0  0  0  0  0  0  0  0  0  0  0  0
  136.2894   71.1880  223.3019 H   0  0  0  0  0  0  0  0  0  0  0  0
  134.9641   72.2736  225.0924 H   0  0  0  0  0  0  0  0  0  0  0  0
  133.5452   70.8605  226.5875 H   0  0  0  0  0  0  0  0  0  0  0  0
  133.5303   68.3889  226.2159 H   0  0  0  0  0  0  0  0  0  0  0  0
  139.3794   66.9067  226.7606 H   0  0  0  0  0  0  0  0  0  0  0  0
  140.7826   67.7002  228.6794 H   0  0  0  0  0  0  0  0  0  0  0  0
  141.7237   70.0039  228.6272 H   0  0  0  0  0  0  0  0  0  0  0  0
  141.2864   71.5062  226.7135 H   0  0  0  0  0  0  0  0  0  0  0  0
  139.5581   73.9760  222.2440 H   0  0  0  0  0  0  0  0  0  0  0  0
  141.6399   74.9313  221.3078 H   0  0  0  0  0  0  0  0  0  0  0  0
  1  2  1  0
  2  3  2  0
  2  4  2  0
  2  5  1  0
  5  6  2  0
  6  7  1  0
  7  8  2  0
  8  9  1  0
  9 10  1  0
 10 11  1  0
 11 12  1  0
 12 13  2  0
 13 14  1  0
 14 15  2  0
 15 16  1  0
 16 17  2  0
 17 18  1  0
 18 19  2  0
 11 20  2  0
 20 21  1  0
 21 22  2  0
 22 23  1  0
 23 24  2  0
 24 25  1  0
 25 26  2  0
 26 27  1  0
 27 28  2  0
  8 29  1  0
 29 30  2  0
 30  5  1  0
 27 10  1  0
 19 14  1  0
 26 21  1  0
  1 31  1  0
  1 32  1  0
  6 33  1  0
  7 34  1  0
  9 35  1  0
  9 36  1  0
 12 37  1  0
 13 38  1  0
 15 39  1  0
 16 40  1  0
 17 41  1  0
 18 42  1  0
 22 43  1  0
 23 44  1  0
 24 45  1  0
 25 46  1  0
 29 47  1  0
 30 48  1  0
M  END
>  <smiles>  (42) 
NS(=O)(=O)c1ccc(Cn2c(/C=C/c3ccccn3)nc3ccccc3c2=O)cc1

>  <score_type>  (42) 
oracle

>  <origin>  (42) 
autodockgpu

>  <m_score__min__energy>  (42) 
-8.8399999999999999

>  <m_primary>  (42) 
energy

>  <rmsd>  (42) 
9.988402157055097

>  <m_score__min__rmsd>  (42) 
9.988402157055097

>  <meeko>  (42) 
{"free_energy": -8.01, "intermolecular_energy": -10.1, "internal_energy": -1.53, "cluster_size": 13, "cluster_id": 2, "rank_in_cluster": 6}

>  <energy>  (42) 
-7.45

>  <cluster_rmsd>  (42) 
0.61

>  <cluster>  (42) 
7

$$$$

     RDKit          3D

 48 51  0  0  0  0  0  0  0  0999 V2000
  141.2670   68.0170  226.8760 N   0  0  0  0  0  0  0  0  0  0  0  0
  139.7000   68.5670  226.5120 S   0  0  0  0  0  0  0  0  0  0  0  0
  138.8390   67.4030  226.1500 O   0  0  0  0  0  0  0  0  0  0  0  0
  139.1660   69.2410  227.7670 O   0  0  0  0  0  0  0  0  0  0  0  0
  139.6350   69.7600  225.2460 C   0  0  0  0  0  0  0  0  0  0  0  0
  138.6080   69.8020  224.3610 C   0  0  0  0  0  0  0  0  0  0  0  0
  138.5520   70.7520  223.3520 C   0  0  0  0  0  0  0  0  0  0  0  0
  139.5580   71.7140  223.1970 C   0  0  0  0  0  0  0  0  0  0  0  0
  139.4650   72.7140  222.1020 C   0  0  0  0  0  0  0  0  0  0  0  0
  140.7310   73.2150  221.6500 N   0  0  0  0  0  0  0  0  0  0  0  0
  141.0660   74.5180  221.6070 C   0  0  0  0  0  0  0  0  0  0  0  0
  140.0780   75.5540  221.9830 C   0  0  0  0  0  0  0  0  0  0  0  0
  140.1360   76.7710  221.4530 C   0  0  0  0  0  0  0  0  0  0  0  0
  140.8770   77.8730  222.0110 C   0  0  0  0  0  0  0  0  0  0  0  0
  141.4050   77.8940  223.2800 C   0  0  0  0  0  0  0  0  0  0  0  0
  142.1150   78.9820  223.7770 C   0  0  0  0  0  0  0  0  0  0  0  0
  142.3000   80.0780  222.9740 C   0  0  0  0  0  0  0  0  0  0  0  0
  141.7590   80.0400  221.6930 C   0  0  0  0  0  0  0  0  0  0  0  0
  141.0850   78.9770  221.2570 N   0  0  0  0  0  0  0  0  0  0  0  0
  142.2820   74.9510  221.1980 N   0  0  0  0  0  0  0  0  0  0  0  0
  143.2360   74.1090  220.8050 C   0  0  0  0  0  0  0  0  0  0  0  0
  144.4660   74.5950  220.3940 C   0  0  0  0  0  0  0  0  0  0  0  0
  145.4430   73.6940  219.9890 C   0  0  0  0  0  0  0  0  0  0  0  0
  145.1560   72.3330  220.0100 C   0  0  0  0  0  0  0  0  0  0  0  0
  143.9210   71.8700  220.4240 C   0  0  0  0  0  0  0  0  0  0  0  0
  142.9440   72.7620  220.8290 C   0  0  0  0  0  0  0  0  0  0  0  0
  141.6930   72.3310  221.2510 C   0  0  0  0  0  0  0  0  0  0  0  0
  141.5070   71.0920  221.2420 O   0  0  0  0  0  0  0  0  0  0  0  0
  140.5860   71.6530  224.1040 C   0  0  0  0  0  0  0  0  0  0  0  0
  140.6400   70.6950  225.1210 C   0  0  0  0  0  0  0  0  0  0  0  0
  141.9900   68.7310  227.0080 H   0  0  0  0  0  0  0  0  0  0  0  0
  141.3330   67.1610  227.4370 H   0  0  0  0  0  0  0  0  0  0  0  0
  137.7978   69.0628  224.4458 H   0  0  0  0  0  0  0  0  0  0  0  0
  137.6985   70.7498  222.6581 H   0  0  0  0  0  0  0  0  0  0  0  0
  138.9562   72.2431  221.2480 H   0  0  0  0  0  0  0  0  0  0  0  0
  138.9128   73.5745  222.5077 H   0  0  0  0  0  0  0  0  0  0  0  0
  139.2873   75.3138  222.7090 H   0  0  0  0  0  0  0  0  0  0  0  0
  139.5784   76.9497  220.5218 H   0  0  0  0  0  0  0  0  0  0  0  0
  141.2605   77.0165  223.9274 H   0  0  0  0  0  0  0  0  0  0  0  0
  142.5219   78.9635  224.7988 H   0  0  0  0  0  0  0  0  0  0  0  0
  142.8570   80.9570  223.3305 H   0  0  0  0  0  0  0  0  0  0  0  0
  141.8904   80.9053  221.0266 H   0  0  0  0  0  0  0  0  0  0  0  0
  144.6662   75.6766  220.3883 H   0  0  0  0  0  0  0  0  0  0  0  0
  146.4288   74.0515  219.6567 H   0  0  0  0  0  0  0  0  0  0  0  0
  145.9246   71.6132  219.6919 H   0  0  0  0  0  0  0  0  0  0  0  0
  143.7145   70.7896  220.4315 H   0  0  0  0  0  0  0  0  0  0  0  0
  141.4009   72.3879  224.0278 H   0  0  0  0  0  0  0  0  0  0  0  0
  141.4867   70.6875  225.8232 H   0  0  0  0  0  0  0  0  0  0  0  0
  1  2  1  0
  2  3  2  0
  2  4  2  0
  2  5  1  0
  5  6  2  0
  6  7  1  0
  7  8  2  0
  8  9  1  0
  9 10  1  0
 10 11  1  0
 11 12  1  0
 12 13  2  0
 13 14  1  0
 14 15  2  0
 15 16  1  0
 16 17  2  0
 17 18  1  0
 18 19  2  0
 11 20  2  0
 20 21  1  0
 21 22  2  0
 22 23  1  0
 23 24  2  0
 24 25  1  0
 25 26  2  0
 26 27  1  0
 27 28  2  0
  8 29  1  0
 29 30  2  0
 30  5  1  0
 27 10  1  0
 19 14  1  0
 26 21  1  0
  1 31  1  0
  1 32  1  0
  6 33  1  0
  7 34  1  0
  9 35  1  0
  9 36  1  0
 12 37  1  0
 13 38  1  0
 15 39  1  0
 16 40  1  0
 17 41  1  0
 18 42  1  0
 22 43  1  0
 23 44  1  0
 24 45  1  0
 25 46  1  0
 29 47  1  0
 30 48  1  0
M  END
>  <smiles>  (43) 
NS(=O)(=O)c1ccc(Cn2c(/C=C/c3ccccn3)nc3ccccc3c2=O)cc1

>  <score_type>  (43) 
oracle

>  <origin>  (43) 
autodockgpu

>  <m_score__min__energy>  (43) 
-8.8399999999999999

>  <m_primary>  (43) 
energy

>  <rmsd>  (43) 
9.452648953913526

>  <m_score__min__rmsd>  (43) 
9.452648953913526

>  <meeko>  (43) 
{"free_energy": -8.58, "intermolecular_energy": -10.67, "internal_energy": -1.15, "cluster_size": 18, "cluster_id": 1, "rank_in_cluster": 9}

>  <energy>  (43) 
-7.4

>  <cluster_rmsd>  (43) 
0.68

>  <cluster>  (43) 
7

$$$$

     RDKit          3D

 48 51  0  0  0  0  0  0  0  0999 V2000
  142.5410   79.0860  222.1840 N   0  0  0  0  0  0  0  0  0  0  0  0
  140.9510   78.8010  222.7150 S   0  0  0  0  0  0  0  0  0  0  0  0
  140.8760   79.0150  224.1900 O   0  0  0  0  0  0  0  0  0  0  0  0
  140.0600   79.8020  221.9950 O   0  0  0  0  0  0  0  0  0  0  0  0
  140.3360   77.2210  222.3210 C   0  0  0  0  0  0  0  0  0  0  0  0
  139.0800   76.8420  222.6630 C   0  0  0  0  0  0  0  0  0  0  0  0
  138.5860   75.5840  222.3510 C   0  0  0  0  0  0  0  0  0  0  0  0
  139.3640   74.6430  221.6650 C   0  0  0  0  0  0  0  0  0  0  0  0
  138.8010   73.3030  221.3510 C   0  0  0  0  0  0  0  0  0  0  0  0
  138.7610   72.4020  222.4660 N   0  0  0  0  0  0  0  0  0  0  0  0
  137.6560   71.7610  222.8900 C   0  0  0  0  0  0  0  0  0  0  0  0
  136.3520   72.0120  222.2370 C   0  0  0  0  0  0  0  0  0  0  0  0
  135.2700   72.2780  222.9610 C   0  0  0  0  0  0  0  0  0  0  0  0
  135.1450   73.3910  223.8670 C   0  0  0  0  0  0  0  0  0  0  0  0
  134.4090   73.3720  225.0290 C   0  0  0  0  0  0  0  0  0  0  0  0
  134.3170   74.4720  225.8750 C   0  0  0  0  0  0  0  0  0  0  0  0
  134.9850   75.6240  225.5430 C   0  0  0  0  0  0  0  0  0  0  0  0
  135.7250   75.6260  224.3640 C   0  0  0  0  0  0  0  0  0  0  0  0
  135.7850   74.5490  223.5820 N   0  0  0  0  0  0  0  0  0  0  0  0
  137.6620   70.8970  223.9320 N   0  0  0  0  0  0  0  0  0  0  0  0
  138.7730   70.6210  224.6140 C   0  0  0  0  0  0  0  0  0  0  0  0
  138.7340   69.7310  225.6740 C   0  0  0  0  0  0  0  0  0  0  0  0
  139.9070   69.4620  226.3680 C   0  0  0  0  0  0  0  0  0  0  0  0
  141.0820   70.0950  225.9770 C   0  0  0  0  0  0  0  0  0  0  0  0
  141.0980   70.9810  224.9160 C   0  0  0  0  0  0  0  0  0  0  0  0
  139.9330   71.2530  224.2200 C   0  0  0  0  0  0  0  0  0  0  0  0
  139.9130   72.1370  223.1490 C   0  0  0  0  0  0  0  0  0  0  0  0
  141.0080   72.6690  222.8560 O   0  0  0  0  0  0  0  0  0  0  0  0
  140.6310   75.0480  221.3290 C   0  0  0  0  0  0  0  0  0  0  0  0
  141.1270   76.3170  221.6450 C   0  0  0  0  0  0  0  0  0  0  0  0
  143.2760   78.4930  222.5830 H   0  0  0  0  0  0  0  0  0  0  0  0
  142.6520   79.3950  221.2120 H   0  0  0  0  0  0  0  0  0  0  0  0
  138.4352   77.5514  223.2025 H   0  0  0  0  0  0  0  0  0  0  0  0
  137.5606   75.3196  222.6489 H   0  0  0  0  0  0  0  0  0  0  0  0
  137.7739   73.4392  220.9815 H   0  0  0  0  0  0  0  0  0  0  0  0
  139.4684   72.8489  220.6038 H   0  0  0  0  0  0  0  0  0  0  0  0
  136.2776   71.9780  221.1400 H   0  0  0  0  0  0  0  0  0  0  0  0
  134.4091   71.6006  222.8615 H   0  0  0  0  0  0  0  0  0  0  0  0
  133.8722   72.4508  225.2996 H   0  0  0  0  0  0  0  0  0  0  0  0
  133.7180   74.4195  226.7961 H   0  0  0  0  0  0  0  0  0  0  0  0
  134.9373   76.5150  226.1864 H   0  0  0  0  0  0  0  0  0  0  0  0
  136.2712   76.5351  224.0721 H   0  0  0  0  0  0  0  0  0  0  0  0
  137.7900   69.2451  225.9618 H   0  0  0  0  0  0  0  0  0  0  0  0
  139.9064   68.7589  227.2140 H   0  0  0  0  0  0  0  0  0  0  0  0
  142.0149   69.8870  226.5215 H   0  0  0  0  0  0  0  0  0  0  0  0
  142.0387   71.4709  224.6242 H   0  0  0  0  0  0  0  0  0  0  0  0
  141.2834   74.3460  220.7890 H   0  0  0  0  0  0  0  0  0  0  0  0
  142.1508   76.5942  221.3534 H   0  0  0  0  0  0  0  0  0  0  0  0
  1  2  1  0
  2  3  2  0
  2  4  2  0
  2  5  1  0
  5  6  2  0
  6  7  1  0
  7  8  2  0
  8  9  1  0
  9 10  1  0
 10 11  1  0
 11 12  1  0
 12 13  2  0
 13 14  1  0
 14 15  2  0
 15 16  1  0
 16 17  2  0
 17 18  1  0
 18 19  2  0
 11 20  2  0
 20 21  1  0
 21 22  2  0
 22 23  1  0
 23 24  2  0
 24 25  1  0
 25 26  2  0
 26 27  1  0
 27 28  2  0
  8 29  1  0
 29 30  2  0
 30  5  1  0
 27 10  1  0
 19 14  1  0
 26 21  1  0
  1 31  1  0
  1 32  1  0
  6 33  1  0
  7 34  1  0
  9 35  1  0
  9 36  1  0
 12 37  1  0
 13 38  1  0
 15 39  1  0
 16 40  1  0
 17 41  1  0
 18 42  1  0
 22 43  1  0
 23 44  1  0
 24 45  1  0
 25 46  1  0
 29 47  1  0
 30 48  1  0
M  END
>  <smiles>  (44) 
NS(=O)(=O)c1ccc(Cn2c(/C=C/c3ccccn3)nc3ccccc3c2=O)cc1

>  <score_type>  (44) 
oracle

>  <origin>  (44) 
autodockgpu

>  <m_score__min__energy>  (44) 
-8.8399999999999999

>  <m_primary>  (44) 
energy

>  <rmsd>  (44) 
7.704024839688517

>  <m_score__min__rmsd>  (44) 
7.704024839688517

>  <meeko>  (44) 
{"free_energy": -7.4, "intermolecular_energy": -9.49, "internal_energy": -1.63, "cluster_size": 3, "cluster_id": 7, "rank_in_cluster": 3}

>  <energy>  (44) 
-7.43

>  <cluster_rmsd>  (44) 
0.0

>  <cluster>  (44) 
8

$$$$

     RDKit          3D

 48 51  0  0  0  0  0  0  0  0999 V2000
  140.6970   67.7320  226.9130 N   0  0  0  0  0  0  0  0  0  0  0  0
  140.2330   69.3550  227.1120 S   0  0  0  0  0  0  0  0  0  0  0  0
  139.0850   69.4290  228.0640 O   0  0  0  0  0  0  0  0  0  0  0  0
  141.4350   70.0910  227.6850 O   0  0  0  0  0  0  0  0  0  0  0  0
  139.8170   70.1690  225.6310 C   0  0  0  0  0  0  0  0  0  0  0  0
  140.6200   71.1200  225.0920 C   0  0  0  0  0  0  0  0  0  0  0  0
  140.2930   71.7700  223.9120 C   0  0  0  0  0  0  0  0  0  0  0  0
  139.1120   71.4750  223.2180 C   0  0  0  0  0  0  0  0  0  0  0  0
  138.7930   72.1950  221.9580 C   0  0  0  0  0  0  0  0  0  0  0  0
  138.5340   73.5960  222.1260 N   0  0  0  0  0  0  0  0  0  0  0  0
  137.3140   74.1290  222.3200 C   0  0  0  0  0  0  0  0  0  0  0  0
  136.1120   73.2650  222.3070 C   0  0  0  0  0  0  0  0  0  0  0  0
  135.6140   72.7770  223.4370 C   0  0  0  0  0  0  0  0  0  0  0  0
  135.0110   73.5730  224.4760 C   0  0  0  0  0  0  0  0  0  0  0  0
  133.9970   73.1430  225.2980 C   0  0  0  0  0  0  0  0  0  0  0  0
  133.4440   73.9470  226.2900 C   0  0  0  0  0  0  0  0  0  0  0  0
  133.9270   75.2190  226.4590 C   0  0  0  0  0  0  0  0  0  0  0  0
  134.9540   75.6390  225.6190 C   0  0  0  0  0  0  0  0  0  0  0  0
  135.4540   74.8350  224.6810 N   0  0  0  0  0  0  0  0  0  0  0  0
  137.1120   75.4560  222.5000 N   0  0  0  0  0  0  0  0  0  0  0  0
  138.1170   76.3300  222.4970 C   0  0  0  0  0  0  0  0  0  0  0  0
  137.8660   77.6790  222.6850 C   0  0  0  0  0  0  0  0  0  0  0  0
  138.9330   78.5680  222.6760 C   0  0  0  0  0  0  0  0  0  0  0  0
  140.2190   78.0770  222.4800 C   0  0  0  0  0  0  0  0  0  0  0  0
  140.4470   76.7260  222.2940 C   0  0  0  0  0  0  0  0  0  0  0  0
  139.3890   75.8350  222.3010 C   0  0  0  0  0  0  0  0  0  0  0  0
  139.5820   74.4720  222.1170 C   0  0  0  0  0  0  0  0  0  0  0  0
  140.7670   74.1040  221.9450 O   0  0  0  0  0  0  0  0  0  0  0  0
  138.3160   70.5100  223.7810 C   0  0  0  0  0  0  0  0  0  0  0  0
  138.6480   69.8560  224.9710 C   0  0  0  0  0  0  0  0  0  0  0  0
  140.0670   67.0190  227.2950 H   0  0  0  0  0  0  0  0  0  0  0  0
  141.2120   67.5040  226.0560 H   0  0  0  0  0  0  0  0  0  0  0  0
  141.5567   71.3828  225.6054 H   0  0  0  0  0  0  0  0  0  0  0  0
  140.9756   72.5341  223.5117 H   0  0  0  0  0  0  0  0  0  0  0  0
  139.6455   72.0824  221.2720 H   0  0  0  0  0  0  0  0  0  0  0  0
  137.8666   71.7489  221.5670 H   0  0  0  0  0  0  0  0  0  0  0  0
  135.6257   73.0245  221.3501 H   0  0  0  0  0  0  0  0  0  0  0  0
  135.6653   71.6890  223.5908 H   0  0  0  0  0  0  0  0  0  0  0  0
  133.6071   72.1228  225.1665 H   0  0  0  0  0  0  0  0  0  0  0  0
  132.6323   73.5681  226.9284 H   0  0  0  0  0  0  0  0  0  0  0  0
  133.5166   75.8850  227.2324 H   0  0  0  0  0  0  0  0  0  0  0  0
  135.3611   76.6547  225.7315 H   0  0  0  0  0  0  0  0  0  0  0  0
  136.8385   78.0404  222.8389 H   0  0  0  0  0  0  0  0  0  0  0  0
  138.7632   79.6450  222.8218 H   0  0  0  0  0  0  0  0  0  0  0  0
  141.0691   78.7750  222.4728 H   0  0  0  0  0  0  0  0  0  0  0  0
  141.4724   76.3588  222.1401 H   0  0  0  0  0  0  0  0  0  0  0  0
  137.3775   70.2396  223.2750 H   0  0  0  0  0  0  0  0  0  0  0  0
  137.9745   69.0895  225.3819 H   0  0  0  0  0  0  0  0  0  0  0  0
  1  2  1  0
  2  3  2  0
  2  4  2  0
  2  5  1  0
  5  6  2  0
  6  7  1  0
  7  8  2  0
  8  9  1  0
  9 10  1  0
 10 11  1  0
 11 12  1  0
 12 13  2  0
 13 14  1  0
 14 15  2  0
 15 16  1  0
 16 17  2  0
 17 18  1  0
 18 19  2  0
 11 20  2  0
 20 21  1  0
 21 22  2  0
 22 23  1  0
 23 24  2  0
 24 25  1  0
 25 26  2  0
 26 27  1  0
 27 28  2  0
  8 29  1  0
 29 30  2  0
 30  5  1  0
 27 10  1  0
 19 14  1  0
 26 21  1  0
  1 31  1  0
  1 32  1  0
  6 33  1  0
  7 34  1  0
  9 35  1  0
  9 36  1  0
 12 37  1  0
 13 38  1  0
 15 39  1  0
 16 40  1  0
 17 41  1  0
 18 42  1  0
 22 43  1  0
 23 44  1  0
 24 45  1  0
 25 46  1  0
 29 47  1  0
 30 48  1  0
M  END
>  <smiles>  (45) 
NS(=O)(=O)c1ccc(Cn2c(/C=C/c3ccccn3)nc3ccccc3c2=O)cc1

>  <score_type>  (45) 
oracle

>  <origin>  (45) 
autodockgpu

>  <m_score__min__energy>  (45) 
-8.8399999999999999

>  <m_primary>  (45) 
energy

>  <rmsd>  (45) 
8.792803907363101

>  <m_score__min__rmsd>  (45) 
8.792803907363101

>  <meeko>  (45) 
{"free_energy": -7.66, "intermolecular_energy": -9.75, "internal_energy": -1.54, "cluster_size": 3, "cluster_id": 6, "rank_in_cluster": 2}

>  <energy>  (45) 
-7.39

>  <cluster_rmsd>  (45) 
0.0

>  <cluster>  (45) 
9

$$$$

     RDKit          3D

 48 51  0  0  0  0  0  0  0  0999 V2000
  144.4000   74.5710  220.4270 N   0  0  0  0  0  0  0  0  0  0  0  0
  143.6690   73.1740  219.7900 S   0  0  0  0  0  0  0  0  0  0  0  0
  143.3480   73.3970  218.3490 O   0  0  0  0  0  0  0  0  0  0  0  0
  144.6770   72.0440  219.9320 O   0  0  0  0  0  0  0  0  0  0  0  0
  142.2360   72.6650  220.6360 C   0  0  0  0  0  0  0  0  0  0  0  0
  141.8600   71.3630  220.6800 C   0  0  0  0  0  0  0  0  0  0  0  0
  140.7190   70.9540  221.3540 C   0  0  0  0  0  0  0  0  0  0  0  0
  139.8970   71.8690  222.0230 C   0  0  0  0  0  0  0  0  0  0  0  0
  138.6810   71.3940  222.7310 C   0  0  0  0  0  0  0  0  0  0  0  0
  138.9380   70.4520  223.7820 N   0  0  0  0  0  0  0  0  0  0  0  0
  138.4900   69.1830  223.7960 C   0  0  0  0  0  0  0  0  0  0  0  0
  137.6160   68.6890  222.7090 C   0  0  0  0  0  0  0  0  0  0  0  0
  136.3240   68.9990  222.6830 C   0  0  0  0  0  0  0  0  0  0  0  0
  135.4970   69.1590  223.8510 C   0  0  0  0  0  0  0  0  0  0  0  0
  135.4530   70.2940  224.6270 C   0  0  0  0  0  0  0  0  0  0  0  0
  134.6380   70.4040  225.7480 C   0  0  0  0  0  0  0  0  0  0  0  0
  133.8430   69.3420  226.0980 C   0  0  0  0  0  0  0  0  0  0  0  0
  133.8990   68.2010  225.3030 C   0  0  0  0  0  0  0  0  0  0  0  0
  134.6960   68.1390  224.2360 N   0  0  0  0  0  0  0  0  0  0  0  0
  138.7760   68.3140  224.7940 N   0  0  0  0  0  0  0  0  0  0  0  0
  139.5260   68.6610  225.8390 C   0  0  0  0  0  0  0  0  0  0  0  0
  139.7940   67.7400  226.8390 C   0  0  0  0  0  0  0  0  0  0  0  0
  140.5780   68.1290  227.9180 C   0  0  0  0  0  0  0  0  0  0  0  0
  141.0700   69.4290  227.9600 C   0  0  0  0  0  0  0  0  0  0  0  0
  140.7900   70.3320  226.9510 C   0  0  0  0  0  0  0  0  0  0  0  0
  140.0100   69.9510  225.8740 C   0  0  0  0  0  0  0  0  0  0  0  0
  139.7090   70.8320  224.8430 C   0  0  0  0  0  0  0  0  0  0  0  0
  140.1860   71.9860  224.9500 O   0  0  0  0  0  0  0  0  0  0  0  0
  140.2970   73.1810  221.9650 C   0  0  0  0  0  0  0  0  0  0  0  0
  141.4470   73.5920  221.2850 C   0  0  0  0  0  0  0  0  0  0  0  0
  145.2360   74.9180  219.9450 H   0  0  0  0  0  0  0  0  0  0  0  0
  143.7740   75.2620  220.8540 H   0  0  0  0  0  0  0  0  0  0  0  0
  142.4769   70.6105  220.1670 H   0  0  0  0  0  0  0  0  0  0  0  0
  140.4538   69.8865  221.3632 H   0  0  0  0  0  0  0  0  0  0  0  0
  138.1739   72.2670  223.1677 H   0  0  0  0  0  0  0  0  0  0  0  0
  138.0663   70.8710  221.9836 H   0  0  0  0  0  0  0  0  0  0  0  0
  138.0403   68.0584  221.9139 H   0  0  0  0  0  0  0  0  0  0  0  0
  135.8529   69.1436  221.6996 H   0  0  0  0  0  0  0  0  0  0  0  0
  136.0878   71.1484  224.3496 H   0  0  0  0  0  0  0  0  0  0  0  0
  134.6307   71.3279  226.3449 H   0  0  0  0  0  0  0  0  0  0  0  0
  133.1837   69.3907  226.9772 H   0  0  0  0  0  0  0  0  0  0  0  0
  133.2735   67.3334  225.5600 H   0  0  0  0  0  0  0  0  0  0  0  0
  139.3926   66.7176  226.7795 H   0  0  0  0  0  0  0  0  0  0  0  0
  140.8061   67.4193  228.7269 H   0  0  0  0  0  0  0  0  0  0  0  0
  141.6925   69.7443  228.8104 H   0  0  0  0  0  0  0  0  0  0  0  0
  141.1885   71.3559  227.0049 H   0  0  0  0  0  0  0  0  0  0  0  0
  139.6868   73.9408  222.4752 H   0  0  0  0  0  0  0  0  0  0  0  0
  141.7234   74.6566  221.2674 H   0  0  0  0  0  0  0  0  0  0  0  0
  1  2  1  0
  2  3  2  0
  2  4  2  0
  2  5  1  0
  5  6  2  0
  6  7  1  0
  7  8  2  0
  8  9  1  0
  9 10  1  0
 10 11  1  0
 11 12  1  0
 12 13  2  0
 13 14  1  0
 14 15  2  0
 15 16  1  0
 16 17  2  0
 17 18  1  0
 18 19  2  0
 11 20  2  0
 20 21  1  0
 21 22  2  0
 22 23  1  0
 23 24  2  0
 24 25  1  0
 25 26  2  0
 26 27  1  0
 27 28  2  0
  8 29  1  0
 29 30  2  0
 30  5  1  0
 27 10  1  0
 19 14  1  0
 26 21  1  0
  1 31  1  0
  1 32  1  0
  6 33  1  0
  7 34  1  0
  9 35  1  0
  9 36  1  0
 12 37  1  0
 13 38  1  0
 15 39  1  0
 16 40  1  0
 17 41  1  0
 18 42  1  0
 22 43  1  0
 23 44  1  0
 24 45  1  0
 25 46  1  0
 29 47  1  0
 30 48  1  0
M  END
>  <smiles>  (46) 
NS(=O)(=O)c1ccc(Cn2c(/C=C/c3ccccn3)nc3ccccc3c2=O)cc1

>  <score_type>  (46) 
oracle

>  <origin>  (46) 
autodockgpu

>  <m_score__min__energy>  (46) 
-8.8399999999999999

>  <m_primary>  (46) 
energy

>  <rmsd>  (46) 
10.1833372583999

>  <m_score__min__rmsd>  (46) 
10.1833372583999

>  <meeko>  (46) 
{"free_energy": -7.81, "intermolecular_energy": -9.9, "internal_energy": -1.54, "cluster_size": 13, "cluster_id": 2, "rank_in_cluster": 8}

>  <energy>  (46) 
-7.29

>  <cluster_rmsd>  (46) 
0.87

>  <cluster>  (46) 
9

$$$$

     RDKit          3D

 48 51  0  0  0  0  0  0  0  0999 V2000
  139.2820   67.0590  226.1900 N   0  0  0  0  0  0  0  0  0  0  0  0
  140.0530   68.5430  226.4980 S   0  0  0  0  0  0  0  0  0  0  0  0
  139.5610   69.0970  227.7940 O   0  0  0  0  0  0  0  0  0  0  0  0
  141.5450   68.2560  226.5870 O   0  0  0  0  0  0  0  0  0  0  0  0
  139.8540   69.7300  225.2410 C   0  0  0  0  0  0  0  0  0  0  0  0
  139.0060   69.5300  224.2020 C   0  0  0  0  0  0  0  0  0  0  0  0
  138.8440   70.4730  223.1990 C   0  0  0  0  0  0  0  0  0  0  0  0
  139.5520   71.6820  223.2110 C   0  0  0  0  0  0  0  0  0  0  0  0
  139.3540   72.6680  222.1170 C   0  0  0  0  0  0  0  0  0  0  0  0
  140.5700   73.2240  221.5950 N   0  0  0  0  0  0  0  0  0  0  0  0
  140.7830   74.5370  221.3900 C   0  0  0  0  0  0  0  0  0  0  0  0
  139.7030   75.5160  221.6450 C   0  0  0  0  0  0  0  0  0  0  0  0
  139.8610   76.4830  222.5420 C   0  0  0  0  0  0  0  0  0  0  0  0
  140.7290   77.6200  222.3750 C   0  0  0  0  0  0  0  0  0  0  0  0
  140.9560   78.2590  221.1800 C   0  0  0  0  0  0  0  0  0  0  0  0
  141.8040   79.3560  221.0660 C   0  0  0  0  0  0  0  0  0  0  0  0
  142.4400   79.8230  222.1880 C   0  0  0  0  0  0  0  0  0  0  0  0
  142.1990   79.1650  223.3900 C   0  0  0  0  0  0  0  0  0  0  0  0
  141.3790   78.1170  223.4530 N   0  0  0  0  0  0  0  0  0  0  0  0
  141.9540   75.0260  220.9190 N   0  0  0  0  0  0  0  0  0  0  0  0
  142.9830   74.2330  220.6240 C   0  0  0  0  0  0  0  0  0  0  0  0
  144.1640   74.7760  220.1440 C   0  0  0  0  0  0  0  0  0  0  0  0
  145.2210   73.9250  219.8440 C   0  0  0  0  0  0  0  0  0  0  0  0
  145.0600   72.5570  220.0350 C   0  0  0  0  0  0  0  0  0  0  0  0
  143.8730   72.0370  220.5140 C   0  0  0  0  0  0  0  0  0  0  0  0
  142.8160   72.8780  220.8150 C   0  0  0  0  0  0  0  0  0  0  0  0
  141.6090   72.3890  221.2990 C   0  0  0  0  0  0  0  0  0  0  0  0
  141.5390   71.1470  221.4440 O   0  0  0  0  0  0  0  0  0  0  0  0
  140.4030   71.8630  224.2720 C   0  0  0  0  0  0  0  0  0  0  0  0
  140.5650   70.9100  225.2820 C   0  0  0  0  0  0  0  0  0  0  0  0
  139.1980   66.7760  225.2090 H   0  0  0  0  0  0  0  0  0  0  0  0
  139.4110   66.3220  226.8920 H   0  0  0  0  0  0  0  0  0  0  0  0
  138.4308   68.5936  224.1537 H   0  0  0  0  0  0  0  0  0  0  0  0
  138.1442   70.2676  222.3755 H   0  0  0  0  0  0  0  0  0  0  0  0
  138.8231   72.1672  221.2940 H   0  0  0  0  0  0  0  0  0  0  0  0
  138.7843   73.5050  222.5470 H   0  0  0  0  0  0  0  0  0  0  0  0
  138.7588   75.4422  221.0855 H   0  0  0  0  0  0  0  0  0  0  0  0
  139.2884   76.4102  223.4784 H   0  0  0  0  0  0  0  0  0  0  0  0
  140.4472   77.8886  220.2778 H   0  0  0  0  0  0  0  0  0  0  0  0
  141.9620   79.8412  220.0915 H   0  0  0  0  0  0  0  0  0  0  0  0
  143.1175   80.6882  222.1392 H   0  0  0  0  0  0  0  0  0  0  0  0
  142.6953   79.5171  224.3063 H   0  0  0  0  0  0  0  0  0  0  0  0
  144.2633   75.8624  220.0028 H   0  0  0  0  0  0  0  0  0  0  0  0
  146.1705   74.3274  219.4613 H   0  0  0  0  0  0  0  0  0  0  0  0
  145.8923   71.8770  219.8006 H   0  0  0  0  0  0  0  0  0  0  0  0
  143.7678   70.9514  220.6565 H   0  0  0  0  0  0  0  0  0  0  0  0
  140.9817   72.7966  224.3303 H   0  0  0  0  0  0  0  0  0  0  0  0
  141.2616   71.1024  226.1113 H   0  0  0  0  0  0  0  0  0  0  0  0
  1  2  1  0
  2  3  2  0
  2  4  2  0
  2  5  1  0
  5  6  2  0
  6  7  1  0
  7  8  2  0
  8  9  1  0
  9 10  1  0
 10 11  1  0
 11 12  1  0
 12 13  2  0
 13 14  1  0
 14 15  2  0
 15 16  1  0
 16 17  2  0
 17 18  1  0
 18 19  2  0
 11 20  2  0
 20 21  1  0
 21 22  2  0
 22 23  1  0
 23 24  2  0
 24 25  1  0
 25 26  2  0
 26 27  1  0
 27 28  2  0
  8 29  1  0
 29 30  2  0
 30  5  1  0
 27 10  1  0
 19 14  1  0
 26 21  1  0
  1 31  1  0
  1 32  1  0
  6 33  1  0
  7 34  1  0
  9 35  1  0
  9 36  1  0
 12 37  1  0
 13 38  1  0
 15 39  1  0
 16 40  1  0
 17 41  1  0
 18 42  1  0
 22 43  1  0
 23 44  1  0
 24 45  1  0
 25 46  1  0
 29 47  1  0
 30 48  1  0
M  END
>  <smiles>  (47) 
NS(=O)(=O)c1ccc(Cn2c(/C=C/c3ccccn3)nc3ccccc3c2=O)cc1

>  <score_type>  (47) 
oracle

>  <origin>  (47) 
autodockgpu

>  <m_score__min__energy>  (47) 
-8.8399999999999999

>  <m_primary>  (47) 
energy

>  <rmsd>  (47) 
9.42847001743644

>  <m_score__min__rmsd>  (47) 
9.42847001743644

>  <meeko>  (47) 
{"free_energy": -8.6, "intermolecular_energy": -10.68, "internal_energy": -1.26, "cluster_size": 18, "cluster_id": 1, "rank_in_cluster": 7}

>  <energy>  (47) 
-7.09

>  <cluster_rmsd>  (47) 
0.76

>  <cluster>  (47) 
9

$$$$

     RDKit          3D

 48 51  0  0  0  0  0  0  0  0999 V2000
  139.2430   67.3930  226.4550 N   0  0  0  0  0  0  0  0  0  0  0  0
  139.8400   68.9430  226.8130 S   0  0  0  0  0  0  0  0  0  0  0  0
  139.1090   69.4960  227.9920 O   0  0  0  0  0  0  0  0  0  0  0  0
  141.3170   68.7830  227.1440 O   0  0  0  0  0  0  0  0  0  0  0  0
  139.7520   70.0690  225.4890 C   0  0  0  0  0  0  0  0  0  0  0  0
  138.6980   70.0820  224.6350 C   0  0  0  0  0  0  0  0  0  0  0  0
  138.6240   70.9790  223.5800 C   0  0  0  0  0  0  0  0  0  0  0  0
  139.6370   71.9160  223.3440 C   0  0  0  0  0  0  0  0  0  0  0  0
  139.5240   72.8590  222.2010 C   0  0  0  0  0  0  0  0  0  0  0  0
  140.7830   73.2850  221.6590 N   0  0  0  0  0  0  0  0  0  0  0  0
  141.1770   74.5680  221.5620 C   0  0  0  0  0  0  0  0  0  0  0  0
  140.2660   75.6610  221.9700 C   0  0  0  0  0  0  0  0  0  0  0  0
  140.3710   76.8700  221.4300 C   0  0  0  0  0  0  0  0  0  0  0  0
  141.0620   77.9800  222.0340 C   0  0  0  0  0  0  0  0  0  0  0  0
  141.5420   79.0680  221.3450 C   0  0  0  0  0  0  0  0  0  0  0  0
  142.2040   80.1190  221.9720 C   0  0  0  0  0  0  0  0  0  0  0  0
  142.3880   80.0720  223.3300 C   0  0  0  0  0  0  0  0  0  0  0  0
  141.8970   78.9630  224.0130 C   0  0  0  0  0  0  0  0  0  0  0  0
  141.2680   77.9790  223.3720 N   0  0  0  0  0  0  0  0  0  0  0  0
  142.3840   74.9300  221.0680 N   0  0  0  0  0  0  0  0  0  0  0  0
  143.2700   74.0320  220.6390 C   0  0  0  0  0  0  0  0  0  0  0  0
  144.4940   74.4460  220.1400 C   0  0  0  0  0  0  0  0  0  0  0  0
  145.3990   73.4880  219.7000 C   0  0  0  0  0  0  0  0  0  0  0  0
  145.0470   72.1440  219.7740 C   0  0  0  0  0  0  0  0  0  0  0  0
  143.8200   71.7530  220.2760 C   0  0  0  0  0  0  0  0  0  0  0  0
  142.9140   72.7020  220.7160 C   0  0  0  0  0  0  0  0  0  0  0  0
  141.6730   72.3450  221.2260 C   0  0  0  0  0  0  0  0  0  0  0  0
  141.4270   71.1170  221.2600 O   0  0  0  0  0  0  0  0  0  0  0  0
  140.6930   71.8850  224.2210 C   0  0  0  0  0  0  0  0  0  0  0  0
  140.7660   70.9800  225.2840 C   0  0  0  0  0  0  0  0  0  0  0  0
  139.3900   67.0480  225.5010 H   0  0  0  0  0  0  0  0  0  0  0  0
  139.2600   66.7080  227.2190 H   0  0  0  0  0  0  0  0  0  0  0  0
  137.8800   69.3616  224.7834 H   0  0  0  0  0  0  0  0  0  0  0  0
  137.7494   70.9537  222.9134 H   0  0  0  0  0  0  0  0  0  0  0  0
  138.9546   72.3635  221.4008 H   0  0  0  0  0  0  0  0  0  0  0  0
  139.0256   73.7611  222.5855 H   0  0  0  0  0  0  0  0  0  0  0  0
  139.4932   75.4698  222.7291 H   0  0  0  0  0  0  0  0  0  0  0  0
  139.8963   77.0353  220.4516 H   0  0  0  0  0  0  0  0  0  0  0  0
  141.3972   79.1095  220.2554 H   0  0  0  0  0  0  0  0  0  0  0  0
  142.5739   80.9742  221.3874 H   0  0  0  0  0  0  0  0  0  0  0  0
  142.9063   80.8835  223.8618 H   0  0  0  0  0  0  0  0  0  0  0  0
  142.0309   78.8978  225.1029 H   0  0  0  0  0  0  0  0  0  0  0  0
  144.7454   75.5158  220.0928 H   0  0  0  0  0  0  0  0  0  0  0  0
  146.3787   73.7875  219.2993 H   0  0  0  0  0  0  0  0  0  0  0  0
  145.7575   71.3793  219.4270 H   0  0  0  0  0  0  0  0  0  0  0  0
  143.5630   70.6846  220.3259 H   0  0  0  0  0  0  0  0  0  0  0  0
  141.5155   72.6019  224.0814 H   0  0  0  0  0  0  0  0  0  0  0  0
  141.6348   70.9949  225.9585 H   0  0  0  0  0  0  0  0  0  0  0  0
  1  2  1  0
  2  3  2  0
  2  4  2  0
  2  5  1  0
  5  6  2  0
  6  7  1  0
  7  8  2  0
  8  9  1  0
  9 10  1  0
 10 11  1  0
 11 12  1  0
 12 13  2  0
 13 14  1  0
 14 15  2  0
 15 16  1  0
 16 17  2  0
 17 18  1  0
 18 19  2  0
 11 20  2  0
 20 21  1  0
 21 22  2  0
 22 23  1  0
 23 24  2  0
 24 25  1  0
 25 26  2  0
 26 27  1  0
 27 28  2  0
  8 29  1  0
 29 30  2  0
 30  5  1  0
 27 10  1  0
 19 14  1  0
 26 21  1  0
  1 31  1  0
  1 32  1  0
  6 33  1  0
  7 34  1  0
  9 35  1  0
  9 36  1  0
 12 37  1  0
 13 38  1  0
 15 39  1  0
 16 40  1  0
 17 41  1  0
 18 42  1  0
 22 43  1  0
 23 44  1  0
 24 45  1  0
 25 46  1  0
 29 47  1  0
 30 48  1  0
M  END
>  <smiles>  (48) 
NS(=O)(=O)c1ccc(Cn2c(/C=C/c3ccccn3)nc3ccccc3c2=O)cc1

>  <score_type>  (48) 
oracle

>  <origin>  (48) 
autodockgpu

>  <m_score__min__energy>  (48) 
-8.8399999999999999

>  <m_primary>  (48) 
energy

>  <rmsd>  (48) 
9.328890765844749

>  <m_score__min__rmsd>  (48) 
9.328890765844749

>  <meeko>  (48) 
{"free_energy": -8.82, "intermolecular_energy": -10.91, "internal_energy": -1.15, "cluster_size": 18, "cluster_id": 1, "rank_in_cluster": 2}

>  <energy>  (48) 
-6.95

>  <cluster_rmsd>  (48) 
0.73

>  <cluster>  (48) 
9

$$$$

     RDKit          3D

 48 51  0  0  0  0  0  0  0  0999 V2000
  145.2660   71.5350  220.0680 N   0  0  0  0  0  0  0  0  0  0  0  0
  145.5020   72.9680  219.1840 S   0  0  0  0  0  0  0  0  0  0  0  0
  146.6890   73.6940  219.7270 O   0  0  0  0  0  0  0  0  0  0  0  0
  145.7540   72.5610  217.7400 O   0  0  0  0  0  0  0  0  0  0  0  0
  144.1250   74.0320  219.1630 C   0  0  0  0  0  0  0  0  0  0  0  0
  143.8600   74.8740  220.1920 C   0  0  0  0  0  0  0  0  0  0  0  0
  142.7650   75.7240  220.1780 C   0  0  0  0  0  0  0  0  0  0  0  0
  141.8760   75.7530  219.0960 C   0  0  0  0  0  0  0  0  0  0  0  0
  140.7110   76.6750  219.1180 C   0  0  0  0  0  0  0  0  0  0  0  0
  140.6220   77.4890  220.2960 N   0  0  0  0  0  0  0  0  0  0  0  0
  139.7950   77.2490  221.3300 C   0  0  0  0  0  0  0  0  0  0  0  0
  138.8450   76.1150  221.2760 C   0  0  0  0  0  0  0  0  0  0  0  0
  139.0690   75.0080  221.9750 C   0  0  0  0  0  0  0  0  0  0  0  0
  139.8220   73.8770  221.4970 C   0  0  0  0  0  0  0  0  0  0  0  0
  139.7150   73.3460  220.2330 C   0  0  0  0  0  0  0  0  0  0  0  0
  140.4650   72.2520  219.8150 C   0  0  0  0  0  0  0  0  0  0  0  0
  141.3470   71.6750  220.6930 C   0  0  0  0  0  0  0  0  0  0  0  0
  141.4420   72.2240  221.9680 C   0  0  0  0  0  0  0  0  0  0  0  0
  140.7050   73.2740  222.3270 N   0  0  0  0  0  0  0  0  0  0  0  0
  139.7580   78.0260  222.4370 N   0  0  0  0  0  0  0  0  0  0  0  0
  140.5450   79.0920  222.5790 C   0  0  0  0  0  0  0  0  0  0  0  0
  140.4750   79.8610  223.7290 C   0  0  0  0  0  0  0  0  0  0  0  0
  141.3060   80.9670  223.8490 C   0  0  0  0  0  0  0  0  0  0  0  0
  142.1830   81.2670  222.8120 C   0  0  0  0  0  0  0  0  0  0  0  0
  142.2370   80.4860  221.6730 C   0  0  0  0  0  0  0  0  0  0  0  0
  141.4110   79.3830  221.5460 C   0  0  0  0  0  0  0  0  0  0  0  0
  141.4390   78.5770  220.4160 C   0  0  0  0  0  0  0  0  0  0  0  0
  142.2530   78.9100  219.5240 O   0  0  0  0  0  0  0  0  0  0  0  0
  142.1640   74.8940  218.0660 C   0  0  0  0  0  0  0  0  0  0  0  0
  143.2690   74.0370  218.0820 C   0  0  0  0  0  0  0  0  0  0  0  0
  145.5700   71.5380  221.0460 H   0  0  0  0  0  0  0  0  0  0  0  0
  144.4380   70.9790  219.8260 H   0  0  0  0  0  0  0  0  0  0  0  0
  144.5327   74.8829  221.0623 H   0  0  0  0  0  0  0  0  0  0  0  0
  142.5904   76.3904  221.0356 H   0  0  0  0  0  0  0  0  0  0  0  0
  140.7820   77.3401  218.2447 H   0  0  0  0  0  0  0  0  0  0  0  0
  139.8104   76.0436  219.1038 H   0  0  0  0  0  0  0  0  0  0  0  0
  137.9436   76.1899  220.6500 H   0  0  0  0  0  0  0  0  0  0  0  0
  138.6499   74.9509  222.9905 H   0  0  0  0  0  0  0  0  0  0  0  0
  139.0088   73.8044  219.5251 H   0  0  0  0  0  0  0  0  0  0  0  0
  140.3526   71.8552  218.7952 H   0  0  0  0  0  0  0  0  0  0  0  0
  141.9578   70.8086  220.3993 H   0  0  0  0  0  0  0  0  0  0  0  0
  142.1399   71.7820  222.6943 H   0  0  0  0  0  0  0  0  0  0  0  0
  139.7725   79.5998  224.5341 H   0  0  0  0  0  0  0  0  0  0  0  0
  141.2712   81.5963  224.7505 H   0  0  0  0  0  0  0  0  0  0  0  0
  142.8451   82.1410  222.8999 H   0  0  0  0  0  0  0  0  0  0  0  0
  142.9385   80.7419  220.8652 H   0  0  0  0  0  0  0  0  0  0  0  0
  141.4979   74.8786  217.1908 H   0  0  0  0  0  0  0  0  0  0  0  0
  143.4556   73.3658  217.2308 H   0  0  0  0  0  0  0  0  0  0  0  0
  1  2  1  0
  2  3  2  0
  2  4  2  0
  2  5  1  0
  5  6  2  0
  6  7  1  0
  7  8  2  0
  8  9  1  0
  9 10  1  0
 10 11  1  0
 11 12  1  0
 12 13  2  0
 13 14  1  0
 14 15  2  0
 15 16  1  0
 16 17  2  0
 17 18  1  0
 18 19  2  0
 11 20  2  0
 20 21  1  0
 21 22  2  0
 22 23  1  0
 23 24  2  0
 24 25  1  0
 25 26  2  0
 26 27  1  0
 27 28  2  0
  8 29  1  0
 29 30  2  0
 30  5  1  0
 27 10  1  0
 19 14  1  0
 26 21  1  0
  1 31  1  0
  1 32  1  0
  6 33  1  0
  7 34  1  0
  9 35  1  0
  9 36  1  0
 12 37  1  0
 13 38  1  0
 15 39  1  0
 16 40  1  0
 17 41  1  0
 18 42  1  0
 22 43  1  0
 23 44  1  0
 24 45  1  0
 25 46  1  0
 29 47  1  0
 30 48  1  0
M  END
>  <smiles>  (49) 
NS(=O)(=O)c1ccc(Cn2c(/C=C/c3ccccn3)nc3ccccc3c2=O)cc1

>  <score_type>  (49) 
oracle

>  <origin>  (49) 
autodockgpu

>  <m_score__min__energy>  (49) 
-8.8399999999999999

>  <m_primary>  (49) 
energy

>  <rmsd>  (49) 
7.218652924449065

>  <m_score__min__rmsd>  (49) 
7.218652924449065

>  <meeko>  (49) 
{"free_energy": -6.95, "intermolecular_energy": -9.04, "internal_energy": -2.25, "cluster_size": 5, "cluster_id": 9, "rank_in_cluster": 4}

>  <energy>  (49) 
-6.84

>  <cluster_rmsd>  (49) 
1.13

>  <cluster>  (49) 
9

$$$$

     RDKit          3D

 48 51  0  0  0  0  0  0  0  0999 V2000
  140.8960   68.1430  227.7110 N   0  0  0  0  0  0  0  0  0  0  0  0
  140.2390   69.7120  227.7190 S   0  0  0  0  0  0  0  0  0  0  0  0
  138.9460   69.7030  228.4650 O   0  0  0  0  0  0  0  0  0  0  0  0
  141.2450   70.6080  228.4260 O   0  0  0  0  0  0  0  0  0  0  0  0
  139.9970   70.3950  226.1370 C   0  0  0  0  0  0  0  0  0  0  0  0
  138.9590   70.0180  225.3500 C   0  0  0  0  0  0  0  0  0  0  0  0
  138.7620   70.5610  224.0900 C   0  0  0  0  0  0  0  0  0  0  0  0
  139.6300   71.5280  223.5670 C   0  0  0  0  0  0  0  0  0  0  0  0
  139.3890   72.0860  222.2100 C   0  0  0  0  0  0  0  0  0  0  0  0
  140.5000   72.8090  221.6620 N   0  0  0  0  0  0  0  0  0  0  0  0
  140.6300   74.1480  221.6930 C   0  0  0  0  0  0  0  0  0  0  0  0
  139.5540   74.9880  222.2650 C   0  0  0  0  0  0  0  0  0  0  0  0
  139.3380   76.2170  221.8100 C   0  0  0  0  0  0  0  0  0  0  0  0
  140.2910   77.2960  221.8820 C   0  0  0  0  0  0  0  0  0  0  0  0
  140.9170   77.8570  220.7940 C   0  0  0  0  0  0  0  0  0  0  0  0
  141.8320   78.8980  220.9110 C   0  0  0  0  0  0  0  0  0  0  0  0
  142.1250   79.3890  222.1590 C   0  0  0  0  0  0  0  0  0  0  0  0
  141.4830   78.8080  223.2490 C   0  0  0  0  0  0  0  0  0  0  0  0
  140.6130   77.8120  223.0910 N   0  0  0  0  0  0  0  0  0  0  0  0
  141.7070   74.7940  221.1870 N   0  0  0  0  0  0  0  0  0  0  0  0
  142.7190   74.1410  220.6180 C   0  0  0  0  0  0  0  0  0  0  0  0
  143.8020   74.8410  220.1130 C   0  0  0  0  0  0  0  0  0  0  0  0
  144.8440   74.1340  219.5250 C   0  0  0  0  0  0  0  0  0  0  0  0
  144.7670   72.7470  219.4630 C   0  0  0  0  0  0  0  0  0  0  0  0
  143.6760   72.0680  219.9730 C   0  0  0  0  0  0  0  0  0  0  0  0
  142.6350   72.7660  220.5600 C   0  0  0  0  0  0  0  0  0  0  0  0
  141.5250   72.1160  221.0830 C   0  0  0  0  0  0  0  0  0  0  0  0
  141.5260   70.8670  220.9900 O   0  0  0  0  0  0  0  0  0  0  0  0
  140.6720   71.8950  224.3800 C   0  0  0  0  0  0  0  0  0  0  0  0
  140.8690   71.3460  225.6510 C   0  0  0  0  0  0  0  0  0  0  0  0
  140.2380   67.3650  227.8270 H   0  0  0  0  0  0  0  0  0  0  0  0
  141.7150   67.9920  227.1130 H   0  0  0  0  0  0  0  0  0  0  0  0
  138.2537   69.2602  225.7219 H   0  0  0  0  0  0  0  0  0  0  0  0
  137.9051   70.2251  223.4875 H   0  0  0  0  0  0  0  0  0  0  0  0
  139.1525   71.2526  221.5321 H   0  0  0  0  0  0  0  0  0  0  0  0
  138.5630   72.8058  222.3081 H   0  0  0  0  0  0  0  0  0  0  0  0
  138.9263   74.5901  223.0759 H   0  0  0  0  0  0  0  0  0  0  0  0
  138.3631   76.4262  221.3455 H   0  0  0  0  0  0  0  0  0  0  0  0
  140.6851   77.4673  219.7918 H   0  0  0  0  0  0  0  0  0  0  0  0
  142.3135   79.3214  220.0172 H   0  0  0  0  0  0  0  0  0  0  0  0
  142.8418   80.2125  222.2930 H   0  0  0  0  0  0  0  0  0  0  0  0
  141.6987   79.1792  224.2618 H   0  0  0  0  0  0  0  0  0  0  0  0
  143.8369   75.9386  220.1763 H   0  0  0  0  0  0  0  0  0  0  0  0
  145.7165   74.6636  219.1148 H   0  0  0  0  0  0  0  0  0  0  0  0
  145.5883   72.1802  219.0002 H   0  0  0  0  0  0  0  0  0  0  0  0
  143.6353   70.9704  219.9121 H   0  0  0  0  0  0  0  0  0  0  0  0
  141.3822   72.6526  224.0172 H   0  0  0  0  0  0  0  0  0  0  0  0
  141.7214   71.6736  226.2643 H   0  0  0  0  0  0  0  0  0  0  0  0
  1  2  1  0
  2  3  2  0
  2  4  2  0
  2  5  1  0
  5  6  2  0
  6  7  1  0
  7  8  2  0
  8  9  1  0
  9 10  1  0
 10 11  1  0
 11 12  1  0
 12 13  2  0
 13 14  1  0
 14 15  2  0
 15 16  1  0
 16 17  2  0
 17 18  1  0
 18 19  2  0
 11 20  2  0
 20 21  1  0
 21 22  2  0
 22 23  1  0
 23 24  2  0
 24 25  1  0
 25 26  2  0
 26 27  1  0
 27 28  2  0
  8 29  1  0
 29 30  2  0
 30  5  1  0
 27 10  1  0
 19 14  1  0
 26 21  1  0
  1 31  1  0
  1 32  1  0
  6 33  1  0
  7 34  1  0
  9 35  1  0
  9 36  1  0
 12 37  1  0
 13 38  1  0
 15 39  1  0
 16 40  1  0
 17 41  1  0
 18 42  1  0
 22 43  1  0
 23 44  1  0
 24 45  1  0
 25 46  1  0
 29 47  1  0
 30 48  1  0
M  END
>  <smiles>  (50) 
NS(=O)(=O)c1ccc(Cn2c(/C=C/c3ccccn3)nc3ccccc3c2=O)cc1

>  <score_type>  (50) 
oracle

>  <origin>  (50) 
autodockgpu

>  <m_score__min__energy>  (50) 
-8.8399999999999999

>  <m_primary>  (50) 
energy

>  <rmsd>  (50) 
9.403560946351657

>  <m_score__min__rmsd>  (50) 
9.403560946351657

>  <meeko>  (50) 
{"free_energy": -7.87, "intermolecular_energy": -9.96, "internal_energy": -1.41, "cluster_size": 18, "cluster_id": 1, "rank_in_cluster": 18}

>  <energy>  (50) 
-7.1

>  <cluster_rmsd>  (50) 
0.0

>  <cluster>  (50) 
10

$$$$
