
     RDKit          3D

 64 69  0  0  0  0  0  0  0  0999 V2000
  146.3310   69.2120  218.9790 C   0  0  0  0  0  0  0  0  0  0  0  0
  145.2830   68.3700  219.2910 C   0  0  0  0  0  0  0  0  0  0  0  0
  144.0150   68.8580  219.6290 C   0  0  0  0  0  0  0  0  0  0  0  0
  143.8160   70.2450  219.6480 C   0  0  0  0  0  0  0  0  0  0  0  0
  144.8810   71.0840  219.3310 C   0  0  0  0  0  0  0  0  0  0  0  0
  146.1180   70.5920  219.0000 C   0  0  0  0  0  0  0  0  0  0  0  0
  144.5690   72.5430  219.3990 C   0  0  0  0  0  0  0  0  0  0  0  0
  143.8520   72.7760  220.7390 C   0  0  0  0  0  0  0  0  0  0  0  0
  142.5850   72.0430  220.6360 N   0  0  0  0  0  0  0  0  0  0  0  0
  141.4660   72.6760  221.2340 C   0  0  0  0  0  0  0  0  0  0  0  0
  140.4850   72.0250  221.8750 N   0  0  0  0  0  0  0  0  0  0  0  0
  139.4330   72.6930  222.4430 C   0  0  0  0  0  0  0  0  0  0  0  0
  138.4130   72.0420  223.1370 N   0  0  0  0  0  0  0  0  0  0  0  0
  138.3320   70.6140  223.3730 C   0  0  0  0  0  0  0  0  0  0  0  0
  139.5070   70.1660  224.2300 C   0  0  2  0  0  0  0  0  0  0  0  0
  138.9910   69.5440  225.5300 C   0  0  0  0  0  0  0  0  0  0  0  0
  140.2100   69.6700  226.4160 C   0  0  0  0  0  0  0  0  0  0  0  0
  141.1040   70.6860  225.7480 C   0  0  0  0  0  0  0  0  0  0  0  0
  140.2130   71.3150  224.7870 N   0  0  0  0  0  0  0  0  0  0  0  0
  139.4290   74.0390  222.3260 N   0  0  0  0  0  0  0  0  0  0  0  0
  140.3940   74.7250  221.6930 C   0  0  0  0  0  0  0  0  0  0  0  0
  140.3390   76.1380  221.6110 N   0  0  0  0  0  0  0  0  0  0  0  0
  140.5730   76.7690  220.2990 C   0  0  0  0  0  0  0  0  0  0  0  0
  141.9250   77.4810  220.5110 C   0  0  0  0  0  0  0  0  0  0  0  0
  141.5980   78.5970  221.4750 C   0  0  0  0  0  0  0  0  0  0  0  0
  142.1880   79.8230  221.2860 C   0  0  0  0  0  0  0  0  0  0  0  0
  141.8680   80.8300  222.1710 C   0  0  0  0  0  0  0  0  0  0  0  0
  140.9770   80.6370  223.2310 C   0  0  0  0  0  0  0  0  0  0  0  0
  140.3920   79.3750  223.3950 C   0  0  0  0  0  0  0  0  0  0  0  0
  140.7000   78.3550  222.5230 C   0  0  0  0  0  0  0  0  0  0  0  0
  140.0670   77.0200  222.7190 C   0  0  0  0  0  0  0  0  0  0  0  0
  141.4030   74.0120  221.1550 N   0  0  0  0  0  0  0  0  0  0  0  0
  142.4680   70.7580  219.9880 C   0  0  0  0  0  0  0  0  0  0  0  0
  147.3181   68.8027  218.7180 H   0  0  0  0  0  0  0  0  0  0  0  0
  145.4489   67.2827  219.2736 H   0  0  0  0  0  0  0  0  0  0  0  0
  143.1938   68.1684  219.8740 H   0  0  0  0  0  0  0  0  0  0  0  0
  146.9385   71.2814  218.7522 H   0  0  0  0  0  0  0  0  0  0  0  0
  145.4970   73.1321  219.3575 H   0  0  0  0  0  0  0  0  0  0  0  0
  143.9394   72.8543  218.5524 H   0  0  0  0  0  0  0  0  0  0  0  0
  144.4558   72.3856  221.5715 H   0  0  0  0  0  0  0  0  0  0  0  0
  143.6905   73.8461  220.9357 H   0  0  0  0  0  0  0  0  0  0  0  0
  137.6310   72.6580  223.5220 H   0  0  0  0  0  0  0  0  0  0  0  0
  137.3910   70.3827  223.8936 H   0  0  0  0  0  0  0  0  0  0  0  0
  138.3622   70.0842  222.4095 H   0  0  0  0  0  0  0  0  0  0  0  0
  140.1119   69.5126  223.5840 H   0  0  0  0  0  0  0  0  0  0  0  0
  138.1372   70.1066  225.9356 H   0  0  0  0  0  0  0  0  0  0  0  0
  138.6142   68.5162  225.4218 H   0  0  0  0  0  0  0  0  0  0  0  0
  139.9199   70.0164  227.4189 H   0  0  0  0  0  0  0  0  0  0  0  0
  140.7201   68.7034  226.5407 H   0  0  0  0  0  0  0  0  0  0  0  0
  141.4837   71.4188  226.4752 H   0  0  0  0  0  0  0  0  0  0  0  0
  141.9992   70.2429  225.2873 H   0  0  0  0  0  0  0  0  0  0  0  0
  140.6950   71.8500  224.0460 H   0  0  0  0  0  0  0  0  0  0  0  0
  140.6411   76.0149  219.5011 H   0  0  0  0  0  0  0  0  0  0  0  0
  139.7641   77.4455  219.9858 H   0  0  0  0  0  0  0  0  0  0  0  0
  142.6661   76.7934  220.9445 H   0  0  0  0  0  0  0  0  0  0  0  0
  142.3651   77.8462  219.5714 H   0  0  0  0  0  0  0  0  0  0  0  0
  142.8910   79.9950  220.4576 H   0  0  0  0  0  0  0  0  0  0  0  0
  142.3295   81.8197  222.0388 H   0  0  0  0  0  0  0  0  0  0  0  0
  140.7403   81.4594  223.9220 H   0  0  0  0  0  0  0  0  0  0  0  0
  139.6865   79.1988  224.2204 H   0  0  0  0  0  0  0  0  0  0  0  0
  140.4630   76.5686  223.6407 H   0  0  0  0  0  0  0  0  0  0  0  0
  138.9783   77.1612  222.7883 H   0  0  0  0  0  0  0  0  0  0  0  0
  141.9681   70.0508  220.6662 H   0  0  0  0  0  0  0  0  0  0  0  0
  141.8770   70.8673  219.0667 H   0  0  0  0  0  0  0  0  0  0  0  0
  1  2  2  0
  2  3  1  0
  3  4  2  0
  4  5  1  0
  5  6  2  0
  5  7  1  0
  7  8  1  0
  8  9  1  0
  9 10  1  0
 10 11  2  0
 11 12  1  0
 12 13  1  0
 13 14  1  0
 14 15  1  0
 15 16  1  0
 16 17  1  0
 17 18  1  0
 18 19  1  0
 12 20  2  0
 20 21  1  0
 21 22  1  0
 22 23  1  0
 23 24  1  0
 24 25  1  0
 25 26  2  0
 26 27  1  0
 27 28  2  0
 28 29  1  0
 29 30  2  0
 30 31  1  0
 21 32  2  0
  9 33  1  0
  6  1  1  0
 32 10  1  0
 33  4  1  0
 19 15  1  0
 31 22  1  0
 30 25  1  0
  1 34  1  0
  2 35  1  0
  3 36  1  0
  6 37  1  0
  7 38  1  0
  7 39  1  0
  8 40  1  0
  8 41  1  0
 13 42  1  0
 14 43  1  0
 14 44  1  0
 15 45  1  6
 16 46  1  0
 16 47  1  0
 17 48  1  0
 17 49  1  0
 18 50  1  0
 18 51  1  0
 19 52  1  0
 23 53  1  0
 23 54  1  0
 24 55  1  0
 24 56  1  0
 26 57  1  0
 27 58  1  0
 28 59  1  0
 29 60  1  0
 31 61  1  0
 31 62  1  0
 33 63  1  0
 33 64  1  0
M  END
>  <smiles>  (1) 
c1ccc2c(c1)CCN(c1nc(NCC3CCCN3)nc(N3CCc4ccccc4C3)n1)C2

>  <score_type>  (1) 
oracle

>  <origin>  (1) 
autodockgpu

>  <m_score__min__energy>  (1) 
-9.8200000000000003

>  <m_primary>  (1) 
energy

>  <rmsd>  (1) 
10.00409310306786

>  <m_score__min__rmsd>  (1) 
10.00409310306786

>  <meeko>  (1) 
{"free_energy": -8.75, "intermolecular_energy": -10.24, "internal_energy": -1.76, "cluster_size": 4, "cluster_id": 2, "rank_in_cluster": 2}

>  <energy>  (1) 
-9.82

>  <cluster_rmsd>  (1) 
0.0

>  <cluster>  (1) 
1

$$$$

     RDKit          3D

 64 69  0  0  0  0  0  0  0  0999 V2000
  139.3510   68.4440  226.6070 C   0  0  0  0  0  0  0  0  0  0  0  0
  140.6000   68.9970  226.8110 C   0  0  0  0  0  0  0  0  0  0  0  0
  141.0470   70.1050  226.0820 C   0  0  0  0  0  0  0  0  0  0  0  0
  140.1940   70.6610  225.1210 C   0  0  0  0  0  0  0  0  0  0  0  0
  138.9380   70.0950  224.9240 C   0  0  0  0  0  0  0  0  0  0  0  0
  138.5110   69.0090  225.6460 C   0  0  0  0  0  0  0  0  0  0  0  0
  138.1150   70.7500  223.8630 C   0  0  0  0  0  0  0  0  0  0  0  0
  139.0270   70.9050  222.6350 C   0  0  0  0  0  0  0  0  0  0  0  0
  140.0770   71.8470  223.0450 N   0  0  0  0  0  0  0  0  0  0  0  0
  140.4960   72.7620  222.0460 C   0  0  0  0  0  0  0  0  0  0  0  0
  140.9750   72.4020  220.8470 N   0  0  0  0  0  0  0  0  0  0  0  0
  141.3560   73.3330  219.9190 C   0  0  0  0  0  0  0  0  0  0  0  0
  141.8330   72.9860  218.6550 N   0  0  0  0  0  0  0  0  0  0  0  0
  143.1090   72.3560  218.3790 C   0  0  0  0  0  0  0  0  0  0  0  0
  144.2290   73.1550  219.0310 C   0  0  2  0  0  0  0  0  0  0  0  0
  145.5230   72.3380  219.0170 C   0  0  0  0  0  0  0  0  0  0  0  0
  146.3060   73.0160  220.1190 C   0  0  0  0  0  0  0  0  0  0  0  0
  145.2970   73.8070  220.9170 C   0  0  0  0  0  0  0  0  0  0  0  0
  144.0300   73.2510  220.4720 N   0  0  0  0  0  0  0  0  0  0  0  0
  141.2270   74.6320  220.2670 N   0  0  0  0  0  0  0  0  0  0  0  0
  140.7500   75.0310  221.4570 C   0  0  0  0  0  0  0  0  0  0  0  0
  140.6300   76.4080  221.7620 N   0  0  0  0  0  0  0  0  0  0  0  0
  140.0070   77.2920  220.7580 C   0  0  0  0  0  0  0  0  0  0  0  0
  141.1970   78.1610  220.3010 C   0  0  0  0  0  0  0  0  0  0  0  0
  141.5000   79.0220  221.5050 C   0  0  0  0  0  0  0  0  0  0  0  0
  141.8300   80.3390  221.3050 C   0  0  0  0  0  0  0  0  0  0  0  0
  142.0920   81.1090  222.4180 C   0  0  0  0  0  0  0  0  0  0  0  0
  142.0300   80.5910  223.7150 C   0  0  0  0  0  0  0  0  0  0  0  0
  141.6890   79.2430  223.8840 C   0  0  0  0  0  0  0  0  0  0  0  0
  141.4250   78.4570  222.7860 C   0  0  0  0  0  0  0  0  0  0  0  0
  141.0680   77.0240  222.9900 C   0  0  0  0  0  0  0  0  0  0  0  0
  140.3930   74.0670  222.3300 N   0  0  0  0  0  0  0  0  0  0  0  0
  140.6630   71.8460  224.3640 C   0  0  0  0  0  0  0  0  0  0  0  0
  139.0234   67.5723  227.1925 H   0  0  0  0  0  0  0  0  0  0  0  0
  141.2629   68.5536  227.5686 H   0  0  0  0  0  0  0  0  0  0  0  0
  142.0461   70.5295  226.2601 H   0  0  0  0  0  0  0  0  0  0  0  0
  137.5114   68.5857  225.4683 H   0  0  0  0  0  0  0  0  0  0  0  0
  137.2466   70.1223  223.6143 H   0  0  0  0  0  0  0  0  0  0  0  0
  137.7343   71.7252  224.2008 H   0  0  0  0  0  0  0  0  0  0  0  0
  139.4667   69.9357  222.3574 H   0  0  0  0  0  0  0  0  0  0  0  0
  138.4725   71.2675  221.7569 H   0  0  0  0  0  0  0  0  0  0  0  0
  141.1970   73.2080  217.8270 H   0  0  0  0  0  0  0  0  0  0  0  0
  143.1065   71.3331  218.7835 H   0  0  0  0  0  0  0  0  0  0  0  0
  143.2709   72.3235  217.2915 H   0  0  0  0  0  0  0  0  0  0  0  0
  144.2548   74.1165  218.4973 H   0  0  0  0  0  0  0  0  0  0  0  0
  145.3345   71.2792  219.2483 H   0  0  0  0  0  0  0  0  0  0  0  0
  146.0354   72.3178  218.0438 H   0  0  0  0  0  0  0  0  0  0  0  0
  146.7958   72.2661  220.7575 H   0  0  0  0  0  0  0  0  0  0  0  0
  147.0970   73.6636  219.7129 H   0  0  0  0  0  0  0  0  0  0  0  0
  145.4390   73.6554  221.9972 H   0  0  0  0  0  0  0  0  0  0  0  0
  145.3745   74.8935  220.7636 H   0  0  0  0  0  0  0  0  0  0  0  0
  143.2070   73.8360  220.6960 H   0  0  0  0  0  0  0  0  0  0  0  0
  139.5919   76.7127  219.9201 H   0  0  0  0  0  0  0  0  0  0  0  0
  139.1606   77.8753  221.1496 H   0  0  0  0  0  0  0  0  0  0  0  0
  142.0624   77.5340  220.0402 H   0  0  0  0  0  0  0  0  0  0  0  0
  140.9702   78.7528  219.4019 H   0  0  0  0  0  0  0  0  0  0  0  0
  141.8836   80.7651  220.2923 H   0  0  0  0  0  0  0  0  0  0  0  0
  142.3590   82.1673  222.2809 H   0  0  0  0  0  0  0  0  0  0  0  0
  142.2446   81.2290  224.5850 H   0  0  0  0  0  0  0  0  0  0  0  0
  141.6322   78.8127  224.8947 H   0  0  0  0  0  0  0  0  0  0  0  0
  141.9510   76.4856  223.3647 H   0  0  0  0  0  0  0  0  0  0  0  0
  140.2419   76.9741  223.7146 H   0  0  0  0  0  0  0  0  0  0  0  0
  141.7590   71.8132  224.2766 H   0  0  0  0  0  0  0  0  0  0  0  0
  140.3608   72.7599  224.8963 H   0  0  0  0  0  0  0  0  0  0  0  0
  1  2  2  0
  2  3  1  0
  3  4  2  0
  4  5  1  0
  5  6  2  0
  5  7  1  0
  7  8  1  0
  8  9  1  0
  9 10  1  0
 10 11  2  0
 11 12  1  0
 12 13  1  0
 13 14  1  0
 14 15  1  0
 15 16  1  0
 16 17  1  0
 17 18  1  0
 18 19  1  0
 12 20  2  0
 20 21  1  0
 21 22  1  0
 22 23  1  0
 23 24  1  0
 24 25  1  0
 25 26  2  0
 26 27  1  0
 27 28  2  0
 28 29  1  0
 29 30  2  0
 30 31  1  0
 21 32  2  0
  9 33  1  0
  6  1  1  0
 32 10  1  0
 33  4  1  0
 19 15  1  0
 31 22  1  0
 30 25  1  0
  1 34  1  0
  2 35  1  0
  3 36  1  0
  6 37  1  0
  7 38  1  0
  7 39  1  0
  8 40  1  0
  8 41  1  0
 13 42  1  0
 14 43  1  0
 14 44  1  0
 15 45  1  6
 16 46  1  0
 16 47  1  0
 17 48  1  0
 17 49  1  0
 18 50  1  0
 18 51  1  0
 19 52  1  0
 23 53  1  0
 23 54  1  0
 24 55  1  0
 24 56  1  0
 26 57  1  0
 27 58  1  0
 28 59  1  0
 29 60  1  0
 31 61  1  0
 31 62  1  0
 33 63  1  0
 33 64  1  0
M  END
>  <smiles>  (2) 
c1ccc2c(c1)CCN(c1nc(NCC3CCCN3)nc(N3CCc4ccccc4C3)n1)C2

>  <score_type>  (2) 
oracle

>  <origin>  (2) 
autodockgpu

>  <m_score__min__energy>  (2) 
-9.8200000000000003

>  <m_primary>  (2) 
energy

>  <rmsd>  (2) 
10.668586199634166

>  <m_score__min__rmsd>  (2) 
10.668586199634166

>  <meeko>  (2) 
{"free_energy": -8.97, "intermolecular_energy": -10.46, "internal_energy": -1.73, "cluster_size": 41, "cluster_id": 1, "rank_in_cluster": 28}

>  <energy>  (2) 
-9.79

>  <cluster_rmsd>  (2) 
0.04

>  <cluster>  (2) 
1

$$$$

     RDKit          3D

 64 69  0  0  0  0  0  0  0  0999 V2000
  139.5860   68.5730  226.8300 C   0  0  0  0  0  0  0  0  0  0  0  0
  140.7370   69.2960  227.0710 C   0  0  0  0  0  0  0  0  0  0  0  0
  141.1140   70.3780  226.2670 C   0  0  0  0  0  0  0  0  0  0  0  0
  140.2920   70.7270  225.1880 C   0  0  0  0  0  0  0  0  0  0  0  0
  139.1350   69.9900  224.9550 C   0  0  0  0  0  0  0  0  0  0  0  0
  138.7760   68.9320  225.7520 C   0  0  0  0  0  0  0  0  0  0  0  0
  138.3390   70.4310  223.7690 C   0  0  0  0  0  0  0  0  0  0  0  0
  139.3340   70.5840  222.6070 C   0  0  0  0  0  0  0  0  0  0  0  0
  140.2230   71.6850  222.9960 N   0  0  0  0  0  0  0  0  0  0  0  0
  140.6200   72.5470  221.9420 C   0  0  0  0  0  0  0  0  0  0  0  0
  141.1000   72.1250  220.7640 N   0  0  0  0  0  0  0  0  0  0  0  0
  141.4580   73.0070  219.7790 C   0  0  0  0  0  0  0  0  0  0  0  0
  141.9360   72.5930  218.5350 N   0  0  0  0  0  0  0  0  0  0  0  0
  143.3320   72.4720  218.1660 C   0  0  0  0  0  0  0  0  0  0  0  0
  144.1890   73.2940  219.1190 C   0  0  2  0  0  0  0  0  0  0  0  0
  145.6710   73.0260  218.8420 C   0  0  0  0  0  0  0  0  0  0  0  0
  146.2930   73.4610  220.1510 C   0  0  0  0  0  0  0  0  0  0  0  0
  145.1630   73.5080  221.1510 C   0  0  0  0  0  0  0  0  0  0  0  0
  144.1080   72.7690  220.4770 N   0  0  0  0  0  0  0  0  0  0  0  0
  141.3060   74.3210  220.0500 N   0  0  0  0  0  0  0  0  0  0  0  0
  140.8280   74.7810  221.2170 C   0  0  0  0  0  0  0  0  0  0  0  0
  140.6820   76.1710  221.4400 N   0  0  0  0  0  0  0  0  0  0  0  0
  140.4100   77.0380  220.2780 C   0  0  0  0  0  0  0  0  0  0  0  0
  141.7160   77.8520  220.1610 C   0  0  0  0  0  0  0  0  0  0  0  0
  141.6970   78.7440  221.3790 C   0  0  0  0  0  0  0  0  0  0  0  0
  142.1240   80.0430  221.2490 C   0  0  0  0  0  0  0  0  0  0  0  0
  142.0890   80.8430  222.3710 C   0  0  0  0  0  0  0  0  0  0  0  0
  141.6370   80.3740  223.6080 C   0  0  0  0  0  0  0  0  0  0  0  0
  141.2060   79.0450  223.7060 C   0  0  0  0  0  0  0  0  0  0  0  0
  141.2360   78.2280  222.5980 C   0  0  0  0  0  0  0  0  0  0  0  0
  140.7760   76.8170  222.7260 C   0  0  0  0  0  0  0  0  0  0  0  0
  140.4930   73.8640  222.1480 N   0  0  0  0  0  0  0  0  0  0  0  0
  140.6840   71.8850  224.3490 C   0  0  0  0  0  0  0  0  0  0  0  0
  139.3117   67.7272  227.4776 H   0  0  0  0  0  0  0  0  0  0  0  0
  141.3768   69.0135  227.9200 H   0  0  0  0  0  0  0  0  0  0  0  0
  142.0349   70.9414  226.4778 H   0  0  0  0  0  0  0  0  0  0  0  0
  137.8542   68.3697  225.5420 H   0  0  0  0  0  0  0  0  0  0  0  0
  137.5779   69.6767  223.5206 H   0  0  0  0  0  0  0  0  0  0  0  0
  137.8154   71.3770  223.9712 H   0  0  0  0  0  0  0  0  0  0  0  0
  139.9086   69.6564  222.4680 H   0  0  0  0  0  0  0  0  0  0  0  0
  138.8222   70.7889  221.6551 H   0  0  0  0  0  0  0  0  0  0  0  0
  141.2010   72.3490  217.8000 H   0  0  0  0  0  0  0  0  0  0  0  0
  143.6344   71.4158  218.2212 H   0  0  0  0  0  0  0  0  0  0  0  0
  143.4706   72.8433  217.1399 H   0  0  0  0  0  0  0  0  0  0  0  0
  143.8510   74.3338  218.9986 H   0  0  0  0  0  0  0  0  0  0  0  0
  145.8580   71.9610  218.6401 H   0  0  0  0  0  0  0  0  0  0  0  0
  146.0678   73.5449  217.9570 H   0  0  0  0  0  0  0  0  0  0  0  0
  147.0570   72.7371  220.4708 H   0  0  0  0  0  0  0  0  0  0  0  0
  146.7898   74.4379  220.0570 H   0  0  0  0  0  0  0  0  0  0  0  0
  145.4481   73.0202  222.0948 H   0  0  0  0  0  0  0  0  0  0  0  0
  144.8695   74.5308  221.4299 H   0  0  0  0  0  0  0  0  0  0  0  0
  143.1650   72.9140  220.8760 H   0  0  0  0  0  0  0  0  0  0  0  0
  140.2291   76.4428  219.3708 H   0  0  0  0  0  0  0  0  0  0  0  0
  139.5116   77.6618  220.3950 H   0  0  0  0  0  0  0  0  0  0  0  0
  142.5934   77.1887  220.1751 H   0  0  0  0  0  0  0  0  0  0  0  0
  141.7803   78.4188  219.2205 H   0  0  0  0  0  0  0  0  0  0  0  0
  142.4812   80.4311  220.2837 H   0  0  0  0  0  0  0  0  0  0  0  0
  142.4284   81.8862  222.2903 H   0  0  0  0  0  0  0  0  0  0  0  0
  141.6202   81.0355  224.4867 H   0  0  0  0  0  0  0  0  0  0  0  0
  140.8435   78.6539  224.6681 H   0  0  0  0  0  0  0  0  0  0  0  0
  141.4914   76.2636  223.3521 H   0  0  0  0  0  0  0  0  0  0  0  0
  139.7755   76.8212  223.1831 H   0  0  0  0  0  0  0  0  0  0  0  0
  141.7796   71.9835  224.3510 H   0  0  0  0  0  0  0  0  0  0  0  0
  140.2296   72.8000  224.7567 H   0  0  0  0  0  0  0  0  0  0  0  0
  1  2  2  0
  2  3  1  0
  3  4  2  0
  4  5  1  0
  5  6  2  0
  5  7  1  0
  7  8  1  0
  8  9  1  0
  9 10  1  0
 10 11  2  0
 11 12  1  0
 12 13  1  0
 13 14  1  0
 14 15  1  0
 15 16  1  0
 16 17  1  0
 17 18  1  0
 18 19  1  0
 12 20  2  0
 20 21  1  0
 21 22  1  0
 22 23  1  0
 23 24  1  0
 24 25  1  0
 25 26  2  0
 26 27  1  0
 27 28  2  0
 28 29  1  0
 29 30  2  0
 30 31  1  0
 21 32  2  0
  9 33  1  0
  6  1  1  0
 32 10  1  0
 33  4  1  0
 19 15  1  0
 31 22  1  0
 30 25  1  0
  1 34  1  0
  2 35  1  0
  3 36  1  0
  6 37  1  0
  7 38  1  0
  7 39  1  0
  8 40  1  0
  8 41  1  0
 13 42  1  0
 14 43  1  0
 14 44  1  0
 15 45  1  1
 16 46  1  0
 16 47  1  0
 17 48  1  0
 17 49  1  0
 18 50  1  0
 18 51  1  0
 19 52  1  0
 23 53  1  0
 23 54  1  0
 24 55  1  0
 24 56  1  0
 26 57  1  0
 27 58  1  0
 28 59  1  0
 29 60  1  0
 31 61  1  0
 31 62  1  0
 33 63  1  0
 33 64  1  0
M  END
>  <smiles>  (3) 
c1ccc2c(c1)CCN(c1nc(NCC3CCCN3)nc(N3CCc4ccccc4C3)n1)C2

>  <score_type>  (3) 
oracle

>  <origin>  (3) 
autodockgpu

>  <m_score__min__energy>  (3) 
-9.8200000000000003

>  <m_primary>  (3) 
energy

>  <rmsd>  (3) 
10.657819820195783

>  <m_score__min__rmsd>  (3) 
10.657819820195783

>  <meeko>  (3) 
{"free_energy": -9.13, "intermolecular_energy": -10.62, "internal_energy": -1.93, "cluster_size": 41, "cluster_id": 1, "rank_in_cluster": 23}

>  <energy>  (3) 
-9.79

>  <cluster_rmsd>  (3) 
0.04

>  <cluster>  (3) 
1

$$$$

     RDKit          3D

 64 69  0  0  0  0  0  0  0  0999 V2000
  139.3410   68.4560  226.5220 C   0  0  0  0  0  0  0  0  0  0  0  0
  140.5600   69.0470  226.7880 C   0  0  0  0  0  0  0  0  0  0  0  0
  141.0150   70.1620  226.0740 C   0  0  0  0  0  0  0  0  0  0  0  0
  140.2000   70.6850  225.0610 C   0  0  0  0  0  0  0  0  0  0  0  0
  138.9730   70.0800  224.8020 C   0  0  0  0  0  0  0  0  0  0  0  0
  138.5400   68.9880  225.5110 C   0  0  0  0  0  0  0  0  0  0  0  0
  138.1910   70.7010  223.6910 C   0  0  0  0  0  0  0  0  0  0  0  0
  139.1640   70.8730  222.5140 C   0  0  0  0  0  0  0  0  0  0  0  0
  140.1620   71.8490  222.9700 N   0  0  0  0  0  0  0  0  0  0  0  0
  140.6090   72.7670  221.9870 C   0  0  0  0  0  0  0  0  0  0  0  0
  141.1450   72.4110  220.8110 N   0  0  0  0  0  0  0  0  0  0  0  0
  141.5500   73.3460  219.8960 C   0  0  0  0  0  0  0  0  0  0  0  0
  142.0870   73.0020  218.6550 N   0  0  0  0  0  0  0  0  0  0  0  0
  143.4080   72.4470  218.4330 C   0  0  0  0  0  0  0  0  0  0  0  0
  144.2630   72.6410  219.6770 C   0  0  2  0  0  0  0  0  0  0  0  0
  144.4650   74.1360  219.9370 C   0  0  0  0  0  0  0  0  0  0  0  0
  145.7020   74.1150  220.8080 C   0  0  0  0  0  0  0  0  0  0  0  0
  146.3220   72.7530  220.6120 C   0  0  0  0  0  0  0  0  0  0  0  0
  145.6480   72.2610  219.4210 N   0  0  0  0  0  0  0  0  0  0  0  0
  141.3840   74.6430  220.2330 N   0  0  0  0  0  0  0  0  0  0  0  0
  140.8490   75.0380  221.4000 C   0  0  0  0  0  0  0  0  0  0  0  0
  140.6920   76.4140  221.6930 N   0  0  0  0  0  0  0  0  0  0  0  0
  140.0860   77.2810  220.6650 C   0  0  0  0  0  0  0  0  0  0  0  0
  141.2740   78.1710  220.2420 C   0  0  0  0  0  0  0  0  0  0  0  0
  141.5200   79.0430  221.4520 C   0  0  0  0  0  0  0  0  0  0  0  0
  141.8310   80.3660  221.2550 C   0  0  0  0  0  0  0  0  0  0  0  0
  142.0420   81.1460  222.3720 C   0  0  0  0  0  0  0  0  0  0  0  0
  141.9470   80.6330  223.6690 C   0  0  0  0  0  0  0  0  0  0  0  0
  141.6270   79.2790  223.8340 C   0  0  0  0  0  0  0  0  0  0  0  0
  141.4140   78.4820  222.7320 C   0  0  0  0  0  0  0  0  0  0  0  0
  141.0780   77.0450  222.9320 C   0  0  0  0  0  0  0  0  0  0  0  0
  140.4710   74.0710  222.2600 N   0  0  0  0  0  0  0  0  0  0  0  0
  140.6750   71.8770  224.3190 C   0  0  0  0  0  0  0  0  0  0  0  0
  139.0068   67.5802  227.0976 H   0  0  0  0  0  0  0  0  0  0  0  0
  141.1928   68.6293  227.5849 H   0  0  0  0  0  0  0  0  0  0  0  0
  141.9899   70.6171  226.3029 H   0  0  0  0  0  0  0  0  0  0  0  0
  137.5646   68.5335  225.2831 H   0  0  0  0  0  0  0  0  0  0  0  0
  137.3565   70.0455  223.4013 H   0  0  0  0  0  0  0  0  0  0  0  0
  137.7636   71.6671  223.9976 H   0  0  0  0  0  0  0  0  0  0  0  0
  139.6464   69.9148  222.2707 H   0  0  0  0  0  0  0  0  0  0  0  0
  138.6478   71.2119  221.6037 H   0  0  0  0  0  0  0  0  0  0  0  0
  141.4640   73.1670  217.8040 H   0  0  0  0  0  0  0  0  0  0  0  0
  143.3208   71.3727  218.2134 H   0  0  0  0  0  0  0  0  0  0  0  0
  143.8805   72.9612  217.5831 H   0  0  0  0  0  0  0  0  0  0  0  0
  143.7606   72.0717  220.4729 H   0  0  0  0  0  0  0  0  0  0  0  0
  144.6391   74.6884  219.0018 H   0  0  0  0  0  0  0  0  0  0  0  0
  143.5986   74.6373  220.3931 H   0  0  0  0  0  0  0  0  0  0  0  0
  146.4031   74.9032  220.4961 H   0  0  0  0  0  0  0  0  0  0  0  0
  145.4557   74.2987  221.8642 H   0  0  0  0  0  0  0  0  0  0  0  0
  147.4071   72.8312  220.4495 H   0  0  0  0  0  0  0  0  0  0  0  0
  146.2052   72.0917  221.4832 H   0  0  0  0  0  0  0  0  0  0  0  0
  145.7330   71.2420  219.2740 H   0  0  0  0  0  0  0  0  0  0  0  0
  139.7095   76.6900  219.8171 H   0  0  0  0  0  0  0  0  0  0  0  0
  139.2165   77.8499  221.0259 H   0  0  0  0  0  0  0  0  0  0  0  0
  142.1594   77.5598  220.0129 H   0  0  0  0  0  0  0  0  0  0  0  0
  141.0662   78.7540  219.3327 H   0  0  0  0  0  0  0  0  0  0  0  0
  141.9089   80.7882  220.2423 H   0  0  0  0  0  0  0  0  0  0  0  0
  142.2937   82.2084  222.2381 H   0  0  0  0  0  0  0  0  0  0  0  0
  142.1200   81.2792  224.5422 H   0  0  0  0  0  0  0  0  0  0  0  0
  141.5459   78.8526  224.8447 H   0  0  0  0  0  0  0  0  0  0  0  0
  141.9583   76.5255  223.3385 H   0  0  0  0  0  0  0  0  0  0  0  0
  140.2296   76.9831  223.6294 H   0  0  0  0  0  0  0  0  0  0  0  0
  141.7747   71.8761  224.2917 H   0  0  0  0  0  0  0  0  0  0  0  0
  140.3179   72.7862  224.8249 H   0  0  0  0  0  0  0  0  0  0  0  0
  1  2  2  0
  2  3  1  0
  3  4  2  0
  4  5  1  0
  5  6  2  0
  5  7  1  0
  7  8  1  0
  8  9  1  0
  9 10  1  0
 10 11  2  0
 11 12  1  0
 12 13  1  0
 13 14  1  0
 14 15  1  0
 15 16  1  0
 16 17  1  0
 17 18  1  0
 18 19  1  0
 12 20  2  0
 20 21  1  0
 21 22  1  0
 22 23  1  0
 23 24  1  0
 24 25  1  0
 25 26  2  0
 26 27  1  0
 27 28  2  0
 28 29  1  0
 29 30  2  0
 30 31  1  0
 21 32  2  0
  9 33  1  0
  6  1  1  0
 32 10  1  0
 33  4  1  0
 19 15  1  0
 31 22  1  0
 30 25  1  0
  1 34  1  0
  2 35  1  0
  3 36  1  0
  6 37  1  0
  7 38  1  0
  7 39  1  0
  8 40  1  0
  8 41  1  0
 13 42  1  0
 14 43  1  0
 14 44  1  0
 15 45  1  1
 16 46  1  0
 16 47  1  0
 17 48  1  0
 17 49  1  0
 18 50  1  0
 18 51  1  0
 19 52  1  0
 23 53  1  0
 23 54  1  0
 24 55  1  0
 24 56  1  0
 26 57  1  0
 27 58  1  0
 28 59  1  0
 29 60  1  0
 31 61  1  0
 31 62  1  0
 33 63  1  0
 33 64  1  0
M  END
>  <smiles>  (4) 
c1ccc2c(c1)CCN(c1nc(NCC3CCCN3)nc(N3CCc4ccccc4C3)n1)C2

>  <score_type>  (4) 
oracle

>  <origin>  (4) 
autodockgpu

>  <m_score__min__energy>  (4) 
-9.8200000000000003

>  <m_primary>  (4) 
energy

>  <rmsd>  (4) 
10.605282756204764

>  <m_score__min__rmsd>  (4) 
10.605282756204764

>  <meeko>  (4) 
{"free_energy": -9.63, "intermolecular_energy": -11.12, "internal_energy": -1.14, "cluster_size": 41, "cluster_id": 1, "rank_in_cluster": 15}

>  <energy>  (4) 
-9.78

>  <cluster_rmsd>  (4) 
0.06

>  <cluster>  (4) 
1

$$$$

     RDKit          3D

 64 69  0  0  0  0  0  0  0  0999 V2000
  146.3220   68.6750  218.3560 C   0  0  0  0  0  0  0  0  0  0  0  0
  145.2620   67.8540  218.6880 C   0  0  0  0  0  0  0  0  0  0  0  0
  144.0470   68.3670  219.1580 C   0  0  0  0  0  0  0  0  0  0  0  0
  143.9150   69.7550  219.2930 C   0  0  0  0  0  0  0  0  0  0  0  0
  144.9910   70.5710  218.9550 C   0  0  0  0  0  0  0  0  0  0  0  0
  146.1760   70.0560  218.4940 C   0  0  0  0  0  0  0  0  0  0  0  0
  144.7540   72.0330  219.1530 C   0  0  0  0  0  0  0  0  0  0  0  0
  144.1510   72.1920  220.5590 C   0  0  0  0  0  0  0  0  0  0  0  0
  142.8470   71.5220  220.5030 N   0  0  0  0  0  0  0  0  0  0  0  0
  141.8070   72.1530  221.2310 C   0  0  0  0  0  0  0  0  0  0  0  0
  141.0450   71.5360  222.1460 N   0  0  0  0  0  0  0  0  0  0  0  0
  140.0610   72.2020  222.8260 C   0  0  0  0  0  0  0  0  0  0  0  0
  139.2710   71.5900  223.7990 N   0  0  0  0  0  0  0  0  0  0  0  0
  139.4780   70.2610  224.3400 C   0  0  0  0  0  0  0  0  0  0  0  0
  140.3570   70.3410  225.5800 C   0  0  2  0  0  0  0  0  0  0  0  0
  139.6570   69.6540  226.7550 C   0  0  0  0  0  0  0  0  0  0  0  0
  140.3750   70.2820  227.9280 C   0  0  0  0  0  0  0  0  0  0  0  0
  141.0560   71.5150  227.3840 C   0  0  0  0  0  0  0  0  0  0  0  0
  140.4020   71.7020  226.1000 N   0  0  0  0  0  0  0  0  0  0  0  0
  139.8920   73.5100  222.5320 N   0  0  0  0  0  0  0  0  0  0  0  0
  140.6360   74.1620  221.6250 C   0  0  0  0  0  0  0  0  0  0  0  0
  140.4190   75.5370  221.3660 N   0  0  0  0  0  0  0  0  0  0  0  0
  140.6280   76.0290  219.9920 C   0  0  0  0  0  0  0  0  0  0  0  0
  141.8770   76.9220  220.1490 C   0  0  0  0  0  0  0  0  0  0  0  0
  141.3820   78.0980  220.9580 C   0  0  0  0  0  0  0  0  0  0  0  0
  141.8300   79.3540  220.6330 C   0  0  0  0  0  0  0  0  0  0  0  0
  141.3580   80.4140  221.3770 C   0  0  0  0  0  0  0  0  0  0  0  0
  140.4540   80.2420  222.4300 C   0  0  0  0  0  0  0  0  0  0  0  0
  140.0160   78.9470  222.7340 C   0  0  0  0  0  0  0  0  0  0  0  0
  140.4770   77.8750  222.0050 C   0  0  0  0  0  0  0  0  0  0  0  0
  140.0000   76.5060  222.3490 C   0  0  0  0  0  0  0  0  0  0  0  0
  141.5890   73.4520  220.9880 N   0  0  0  0  0  0  0  0  0  0  0  0
  142.6220   70.2960  219.7740 C   0  0  0  0  0  0  0  0  0  0  0  0
  147.2664   68.2470  217.9886 H   0  0  0  0  0  0  0  0  0  0  0  0
  145.3757   66.7652  218.5800 H   0  0  0  0  0  0  0  0  0  0  0  0
  143.2149   67.6952  219.4154 H   0  0  0  0  0  0  0  0  0  0  0  0
  147.0070   70.7283  218.2344 H   0  0  0  0  0  0  0  0  0  0  0  0
  145.7030   72.5847  219.0820 H   0  0  0  0  0  0  0  0  0  0  0  0
  144.0784   72.4340  218.3831 H   0  0  0  0  0  0  0  0  0  0  0  0
  144.7968   71.7146  221.3107 H   0  0  0  0  0  0  0  0  0  0  0  0
  144.0549   73.2498  220.8452 H   0  0  0  0  0  0  0  0  0  0  0  0
  138.4470   72.1580  224.1700 H   0  0  0  0  0  0  0  0  0  0  0  0
  138.5065   69.8206  224.6087 H   0  0  0  0  0  0  0  0  0  0  0  0
  139.9725   69.6337  223.5838 H   0  0  0  0  0  0  0  0  0  0  0  0
  141.3291   69.9225  225.2801 H   0  0  0  0  0  0  0  0  0  0  0  0
  138.5807   69.8806  226.7722 H   0  0  0  0  0  0  0  0  0  0  0  0
  139.7044   68.5553  226.7306 H   0  0  0  0  0  0  0  0  0  0  0  0
  139.6562   70.5571  228.7139 H   0  0  0  0  0  0  0  0  0  0  0  0
  141.0984   69.5864  228.3783 H   0  0  0  0  0  0  0  0  0  0  0  0
  140.8926   72.3812  228.0421 H   0  0  0  0  0  0  0  0  0  0  0  0
  142.1483   71.4114  227.3061 H   0  0  0  0  0  0  0  0  0  0  0  0
  140.9060   72.3320  225.4530 H   0  0  0  0  0  0  0  0  0  0  0  0
  140.8170   75.1985  219.2959 H   0  0  0  0  0  0  0  0  0  0  0  0
  139.7577   76.5580  219.5763 H   0  0  0  0  0  0  0  0  0  0  0  0
  142.6759   76.3874  220.6837 H   0  0  0  0  0  0  0  0  0  0  0  0
  142.3083   77.2226  219.1828 H   0  0  0  0  0  0  0  0  0  0  0  0
  142.5407   79.5092  219.8079 H   0  0  0  0  0  0  0  0  0  0  0  0
  141.7041   81.4295  221.1343 H   0  0  0  0  0  0  0  0  0  0  0  0
  140.0943   81.1062  223.0077 H   0  0  0  0  0  0  0  0  0  0  0  0
  139.3030   78.7868  223.5561 H   0  0  0  0  0  0  0  0  0  0  0  0
  140.4096   76.2207  223.3292 H   0  0  0  0  0  0  0  0  0  0  0  0
  138.9003   76.5198  222.3728 H   0  0  0  0  0  0  0  0  0  0  0  0
  142.1416   69.5603  220.4358 H   0  0  0  0  0  0  0  0  0  0  0  0
  141.9697   70.4998  218.9120 H   0  0  0  0  0  0  0  0  0  0  0  0
  1  2  2  0
  2  3  1  0
  3  4  2  0
  4  5  1  0
  5  6  2  0
  5  7  1  0
  7  8  1  0
  8  9  1  0
  9 10  1  0
 10 11  2  0
 11 12  1  0
 12 13  1  0
 13 14  1  0
 14 15  1  0
 15 16  1  0
 16 17  1  0
 17 18  1  0
 18 19  1  0
 12 20  2  0
 20 21  1  0
 21 22  1  0
 22 23  1  0
 23 24  1  0
 24 25  1  0
 25 26  2  0
 26 27  1  0
 27 28  2  0
 28 29  1  0
 29 30  2  0
 30 31  1  0
 21 32  2  0
  9 33  1  0
  6  1  1  0
 32 10  1  0
 33  4  1  0
 19 15  1  0
 31 22  1  0
 30 25  1  0
  1 34  1  0
  2 35  1  0
  3 36  1  0
  6 37  1  0
  7 38  1  0
  7 39  1  0
  8 40  1  0
  8 41  1  0
 13 42  1  0
 14 43  1  0
 14 44  1  0
 15 45  1  6
 16 46  1  0
 16 47  1  0
 17 48  1  0
 17 49  1  0
 18 50  1  0
 18 51  1  0
 19 52  1  0
 23 53  1  0
 23 54  1  0
 24 55  1  0
 24 56  1  0
 26 57  1  0
 27 58  1  0
 28 59  1  0
 29 60  1  0
 31 61  1  0
 31 62  1  0
 33 63  1  0
 33 64  1  0
M  END
>  <smiles>  (5) 
c1ccc2c(c1)CCN(c1nc(NCC3CCCN3)nc(N3CCc4ccccc4C3)n1)C2

>  <score_type>  (5) 
oracle

>  <origin>  (5) 
autodockgpu

>  <m_score__min__energy>  (5) 
-9.8200000000000003

>  <m_primary>  (5) 
energy

>  <rmsd>  (5) 
10.453895905688043

>  <m_score__min__rmsd>  (5) 
10.453895905688043

>  <meeko>  (5) 
{"free_energy": -8.88, "intermolecular_energy": -10.37, "internal_energy": -1.23, "cluster_size": 4, "cluster_id": 2, "rank_in_cluster": 1}

>  <energy>  (5) 
-9.77

>  <cluster_rmsd>  (5) 
0.84

>  <cluster>  (5) 
1

$$$$

     RDKit          3D

 64 69  0  0  0  0  0  0  0  0999 V2000
  139.4260   68.5060  226.7020 C   0  0  0  0  0  0  0  0  0  0  0  0
  140.6430   69.1160  226.9320 C   0  0  0  0  0  0  0  0  0  0  0  0
  141.0760   70.2140  226.1790 C   0  0  0  0  0  0  0  0  0  0  0  0
  140.2420   70.6990  225.1640 C   0  0  0  0  0  0  0  0  0  0  0  0
  139.0180   70.0750  224.9410 C   0  0  0  0  0  0  0  0  0  0  0  0
  138.6050   69.0010  225.6880 C   0  0  0  0  0  0  0  0  0  0  0  0
  138.2130   70.6570  223.8240 C   0  0  0  0  0  0  0  0  0  0  0  0
  139.1670   70.8030  222.6280 C   0  0  0  0  0  0  0  0  0  0  0  0
  140.1620   71.8000  223.0410 N   0  0  0  0  0  0  0  0  0  0  0  0
  140.5860   72.6940  222.0250 C   0  0  0  0  0  0  0  0  0  0  0  0
  141.0770   72.3080  220.8390 N   0  0  0  0  0  0  0  0  0  0  0  0
  141.4610   73.2190  219.8910 C   0  0  0  0  0  0  0  0  0  0  0  0
  141.9520   72.8450  218.6400 N   0  0  0  0  0  0  0  0  0  0  0  0
  143.3420   72.8890  218.2320 C   0  0  0  0  0  0  0  0  0  0  0  0
  144.2410   72.8340  219.4600 C   0  0  2  0  0  0  0  0  0  0  0  0
  144.4250   74.2430  220.0290 C   0  0  0  0  0  0  0  0  0  0  0  0
  145.6940   74.0680  220.8330 C   0  0  0  0  0  0  0  0  0  0  0  0
  146.3310   72.7960  220.3280 C   0  0  0  0  0  0  0  0  0  0  0  0
  145.6210   72.5540  219.0830 N   0  0  0  0  0  0  0  0  0  0  0  0
  141.3220   74.5250  220.2080 N   0  0  0  0  0  0  0  0  0  0  0  0
  140.8320   74.9500  221.3830 C   0  0  0  0  0  0  0  0  0  0  0  0
  140.7020   76.3330  221.6540 N   0  0  0  0  0  0  0  0  0  0  0  0
  140.1500   77.2010  220.5960 C   0  0  0  0  0  0  0  0  0  0  0  0
  141.3720   78.0550  220.2000 C   0  0  0  0  0  0  0  0  0  0  0  0
  141.6030   78.9370  221.4050 C   0  0  0  0  0  0  0  0  0  0  0  0
  141.9530   80.2490  221.2010 C   0  0  0  0  0  0  0  0  0  0  0  0
  142.1490   81.0380  222.3140 C   0  0  0  0  0  0  0  0  0  0  0  0
  142.0020   80.5450  223.6130 C   0  0  0  0  0  0  0  0  0  0  0  0
  141.6420   79.2030  223.7860 C   0  0  0  0  0  0  0  0  0  0  0  0
  141.4440   78.3970  222.6880 C   0  0  0  0  0  0  0  0  0  0  0  0
  141.0650   76.9700  222.8960 C   0  0  0  0  0  0  0  0  0  0  0  0
  140.4720   74.0050  222.2750 N   0  0  0  0  0  0  0  0  0  0  0  0
  140.6950   71.8730  224.3800 C   0  0  0  0  0  0  0  0  0  0  0  0
  139.1089   67.6443  227.3078 H   0  0  0  0  0  0  0  0  0  0  0  0
  141.2919   68.7277  227.7308 H   0  0  0  0  0  0  0  0  0  0  0  0
  142.0494   70.6851  226.3801 H   0  0  0  0  0  0  0  0  0  0  0  0
  137.6303   68.5318  225.4884 H   0  0  0  0  0  0  0  0  0  0  0  0
  137.3803   69.9861  223.5661 H   0  0  0  0  0  0  0  0  0  0  0  0
  137.7811   71.6277  224.1089 H   0  0  0  0  0  0  0  0  0  0  0  0
  139.6545   69.8424  222.4054 H   0  0  0  0  0  0  0  0  0  0  0  0
  138.6346   71.1106  221.7159 H   0  0  0  0  0  0  0  0  0  0  0  0
  141.2340   72.4980  217.9310 H   0  0  0  0  0  0  0  0  0  0  0  0
  143.5592   72.0291  217.5814 H   0  0  0  0  0  0  0  0  0  0  0  0
  143.5309   73.8243  217.6847 H   0  0  0  0  0  0  0  0  0  0  0  0
  143.7798   72.0942  220.1308 H   0  0  0  0  0  0  0  0  0  0  0  0
  144.5531   74.9876  219.2296 H   0  0  0  0  0  0  0  0  0  0  0  0
  143.5675   74.6118  220.6110 H   0  0  0  0  0  0  0  0  0  0  0  0
  146.3682   74.9226  220.6748 H   0  0  0  0  0  0  0  0  0  0  0  0
  145.4849   74.0146  221.9116 H   0  0  0  0  0  0  0  0  0  0  0  0
  147.4075   72.9353  220.1498 H   0  0  0  0  0  0  0  0  0  0  0  0
  146.2600   71.9604  221.0399 H   0  0  0  0  0  0  0  0  0  0  0  0
  145.7190   71.5920  218.7160 H   0  0  0  0  0  0  0  0  0  0  0  0
  139.7856   76.6081  219.7442 H   0  0  0  0  0  0  0  0  0  0  0  0
  139.2840   77.7959  220.9218 H   0  0  0  0  0  0  0  0  0  0  0  0
  142.2483   77.4188  220.0066 H   0  0  0  0  0  0  0  0  0  0  0  0
  141.2068   78.6309  219.2775 H   0  0  0  0  0  0  0  0  0  0  0  0
  142.0726   80.6557  220.1860 H   0  0  0  0  0  0  0  0  0  0  0  0
  142.4309   82.0921  222.1748 H   0  0  0  0  0  0  0  0  0  0  0  0
  142.1659   81.1983  224.4827 H   0  0  0  0  0  0  0  0  0  0  0  0
  141.5175   78.7930  224.7991 H   0  0  0  0  0  0  0  0  0  0  0  0
  141.9187   76.4340  223.3364 H   0  0  0  0  0  0  0  0  0  0  0  0
  140.1942   76.9386  223.5674 H   0  0  0  0  0  0  0  0  0  0  0  0
  141.7941   71.8810  224.3359 H   0  0  0  0  0  0  0  0  0  0  0  0
  140.3375   72.7937  224.8642 H   0  0  0  0  0  0  0  0  0  0  0  0
  1  2  2  0
  2  3  1  0
  3  4  2  0
  4  5  1  0
  5  6  2  0
  5  7  1  0
  7  8  1  0
  8  9  1  0
  9 10  1  0
 10 11  2  0
 11 12  1  0
 12 13  1  0
 13 14  1  0
 14 15  1  0
 15 16  1  0
 16 17  1  0
 17 18  1  0
 18 19  1  0
 12 20  2  0
 20 21  1  0
 21 22  1  0
 22 23  1  0
 23 24  1  0
 24 25  1  0
 25 26  2  0
 26 27  1  0
 27 28  2  0
 28 29  1  0
 29 30  2  0
 30 31  1  0
 21 32  2  0
  9 33  1  0
  6  1  1  0
 32 10  1  0
 33  4  1  0
 19 15  1  0
 31 22  1  0
 30 25  1  0
  1 34  1  0
  2 35  1  0
  3 36  1  0
  6 37  1  0
  7 38  1  0
  7 39  1  0
  8 40  1  0
  8 41  1  0
 13 42  1  0
 14 43  1  0
 14 44  1  0
 15 45  1  1
 16 46  1  0
 16 47  1  0
 17 48  1  0
 17 49  1  0
 18 50  1  0
 18 51  1  0
 19 52  1  0
 23 53  1  0
 23 54  1  0
 24 55  1  0
 24 56  1  0
 26 57  1  0
 27 58  1  0
 28 59  1  0
 29 60  1  0
 31 61  1  0
 31 62  1  0
 33 63  1  0
 33 64  1  0
M  END
>  <smiles>  (6) 
c1ccc2c(c1)CCN(c1nc(NCC3CCCN3)nc(N3CCc4ccccc4C3)n1)C2

>  <score_type>  (6) 
oracle

>  <origin>  (6) 
autodockgpu

>  <m_score__min__energy>  (6) 
-9.8200000000000003

>  <m_primary>  (6) 
energy

>  <rmsd>  (6) 
10.658923087084766

>  <m_score__min__rmsd>  (6) 
10.658923087084766

>  <meeko>  (6) 
{"free_energy": -9.71, "intermolecular_energy": -11.21, "internal_energy": -1.22, "cluster_size": 41, "cluster_id": 1, "rank_in_cluster": 13}

>  <energy>  (6) 
-9.76

>  <cluster_rmsd>  (6) 
0.78

>  <cluster>  (6) 
1

$$$$

     RDKit          3D

 64 69  0  0  0  0  0  0  0  0999 V2000
  146.3490   69.0180  218.8390 C   0  0  0  0  0  0  0  0  0  0  0  0
  145.2780   68.1900  219.1140 C   0  0  0  0  0  0  0  0  0  0  0  0
  144.0220   68.6970  219.4660 C   0  0  0  0  0  0  0  0  0  0  0  0
  143.8580   70.0860  219.5400 C   0  0  0  0  0  0  0  0  0  0  0  0
  144.9450   70.9100  219.2610 C   0  0  0  0  0  0  0  0  0  0  0  0
  146.1720   70.4000  218.9160 C   0  0  0  0  0  0  0  0  0  0  0  0
  144.6710   72.3730  219.3870 C   0  0  0  0  0  0  0  0  0  0  0  0
  143.9540   72.5690  220.7320 C   0  0  0  0  0  0  0  0  0  0  0  0
  142.6680   71.8740  220.5950 N   0  0  0  0  0  0  0  0  0  0  0  0
  141.5630   72.5110  221.2140 C   0  0  0  0  0  0  0  0  0  0  0  0
  140.6150   71.8680  221.9090 N   0  0  0  0  0  0  0  0  0  0  0  0
  139.5740   72.5400  222.4940 C   0  0  0  0  0  0  0  0  0  0  0  0
  138.5880   71.8970  223.2430 N   0  0  0  0  0  0  0  0  0  0  0  0
  138.4600   70.4640  223.4160 C   0  0  0  0  0  0  0  0  0  0  0  0
  139.5880   69.9500  224.2990 C   0  0  2  0  0  0  0  0  0  0  0  0
  139.0170   69.4500  225.6280 C   0  0  0  0  0  0  0  0  0  0  0  0
  140.2450   69.5020  226.5100 C   0  0  0  0  0  0  0  0  0  0  0  0
  141.2320   70.3910  225.7920 C   0  0  0  0  0  0  0  0  0  0  0  0
  140.4040   71.0520  224.7970 N   0  0  0  0  0  0  0  0  0  0  0  0
  139.5480   73.8810  222.3370 N   0  0  0  0  0  0  0  0  0  0  0  0
  140.4810   74.5600  221.6500 C   0  0  0  0  0  0  0  0  0  0  0  0
  140.4050   75.9690  221.5290 N   0  0  0  0  0  0  0  0  0  0  0  0
  140.6220   76.5660  220.1980 C   0  0  0  0  0  0  0  0  0  0  0  0
  141.9650   77.3040  220.3830 C   0  0  0  0  0  0  0  0  0  0  0  0
  141.6250   78.4420  221.3170 C   0  0  0  0  0  0  0  0  0  0  0  0
  142.1960   79.6710  221.0900 C   0  0  0  0  0  0  0  0  0  0  0  0
  141.8650   80.6980  221.9470 C   0  0  0  0  0  0  0  0  0  0  0  0
  140.9820   80.5210  223.0170 C   0  0  0  0  0  0  0  0  0  0  0  0
  140.4170   79.2560  223.2200 C   0  0  0  0  0  0  0  0  0  0  0  0
  140.7360   78.2160  222.3760 C   0  0  0  0  0  0  0  0  0  0  0  0
  140.1240   76.8780  222.6130 C   0  0  0  0  0  0  0  0  0  0  0  0
  141.4790   73.8430  221.0970 N   0  0  0  0  0  0  0  0  0  0  0  0
  142.5220   70.6210  219.8950 C   0  0  0  0  0  0  0  0  0  0  0  0
  147.3261   68.5945  218.5636 H   0  0  0  0  0  0  0  0  0  0  0  0
  145.4164   67.1004  219.0546 H   0  0  0  0  0  0  0  0  0  0  0  0
  143.1821   68.0196  219.6799 H   0  0  0  0  0  0  0  0  0  0  0  0
  147.0116   71.0775  218.7013 H   0  0  0  0  0  0  0  0  0  0  0  0
  145.6143   72.9387  219.3733 H   0  0  0  0  0  0  0  0  0  0  0  0
  144.0544   72.7354  218.5513 H   0  0  0  0  0  0  0  0  0  0  0  0
  144.5436   72.1291  221.5498 H   0  0  0  0  0  0  0  0  0  0  0  0
  143.8191   73.6341  220.9715 H   0  0  0  0  0  0  0  0  0  0  0  0
  137.8720   72.5250  223.7250 H   0  0  0  0  0  0  0  0  0  0  0  0
  137.4932   70.2380  223.8896 H   0  0  0  0  0  0  0  0  0  0  0  0
  138.5145   69.9726  222.4334 H   0  0  0  0  0  0  0  0  0  0  0  0
  140.1251   69.2082  223.6897 H   0  0  0  0  0  0  0  0  0  0  0  0
  138.2234   70.1138  226.0016 H   0  0  0  0  0  0  0  0  0  0  0  0
  138.5413   68.4597  225.5723 H   0  0  0  0  0  0  0  0  0  0  0  0
  139.9925   69.9262  227.4930 H   0  0  0  0  0  0  0  0  0  0  0  0
  140.6589   68.4982  226.6860 H   0  0  0  0  0  0  0  0  0  0  0  0
  141.6824   71.1207  226.4810 H   0  0  0  0  0  0  0  0  0  0  0  0
  142.0792   69.8400  225.3577 H   0  0  0  0  0  0  0  0  0  0  0  0
  140.9340   71.4980  224.0300 H   0  0  0  0  0  0  0  0  0  0  0  0
  140.6972   75.7908  219.4212 H   0  0  0  0  0  0  0  0  0  0  0  0
  139.8013   77.2209  219.8701 H   0  0  0  0  0  0  0  0  0  0  0  0
  142.7184   76.6401  220.8321 H   0  0  0  0  0  0  0  0  0  0  0  0
  142.3956   77.6488  219.4313 H   0  0  0  0  0  0  0  0  0  0  0  0
  142.8927   79.8294  220.2537 H   0  0  0  0  0  0  0  0  0  0  0  0
  142.3103   81.6905  221.7841 H   0  0  0  0  0  0  0  0  0  0  0  0
  140.7362   81.3590  223.6859 H   0  0  0  0  0  0  0  0  0  0  0  0
  139.7183   79.0931  224.0538 H   0  0  0  0  0  0  0  0  0  0  0  0
  140.5305   76.4590  223.5453 H   0  0  0  0  0  0  0  0  0  0  0  0
  139.0336   77.0047  222.6835 H   0  0  0  0  0  0  0  0  0  0  0  0
  141.9999   69.9002  220.5414 H   0  0  0  0  0  0  0  0  0  0  0  0
  141.9399   70.7839  218.9760 H   0  0  0  0  0  0  0  0  0  0  0  0
  1  2  2  0
  2  3  1  0
  3  4  2  0
  4  5  1  0
  5  6  2  0
  5  7  1  0
  7  8  1  0
  8  9  1  0
  9 10  1  0
 10 11  2  0
 11 12  1  0
 12 13  1  0
 13 14  1  0
 14 15  1  0
 15 16  1  0
 16 17  1  0
 17 18  1  0
 18 19  1  0
 12 20  2  0
 20 21  1  0
 21 22  1  0
 22 23  1  0
 23 24  1  0
 24 25  1  0
 25 26  2  0
 26 27  1  0
 27 28  2  0
 28 29  1  0
 29 30  2  0
 30 31  1  0
 21 32  2  0
  9 33  1  0
  6  1  1  0
 32 10  1  0
 33  4  1  0
 19 15  1  0
 31 22  1  0
 30 25  1  0
  1 34  1  0
  2 35  1  0
  3 36  1  0
  6 37  1  0
  7 38  1  0
  7 39  1  0
  8 40  1  0
  8 41  1  0
 13 42  1  0
 14 43  1  0
 14 44  1  0
 15 45  1  6
 16 46  1  0
 16 47  1  0
 17 48  1  0
 17 49  1  0
 18 50  1  0
 18 51  1  0
 19 52  1  0
 23 53  1  0
 23 54  1  0
 24 55  1  0
 24 56  1  0
 26 57  1  0
 27 58  1  0
 28 59  1  0
 29 60  1  0
 31 61  1  0
 31 62  1  0
 33 63  1  0
 33 64  1  0
M  END
>  <smiles>  (7) 
c1ccc2c(c1)CCN(c1nc(NCC3CCCN3)nc(N3CCc4ccccc4C3)n1)C2

>  <score_type>  (7) 
oracle

>  <origin>  (7) 
autodockgpu

>  <m_score__min__energy>  (7) 
-9.8200000000000003

>  <m_primary>  (7) 
energy

>  <rmsd>  (7) 
10.163161045294082

>  <m_score__min__rmsd>  (7) 
10.163161045294082

>  <meeko>  (7) 
{"free_energy": -8.69, "intermolecular_energy": -10.18, "internal_energy": -1.77, "cluster_size": 4, "cluster_id": 2, "rank_in_cluster": 3}

>  <energy>  (7) 
-9.76

>  <cluster_rmsd>  (7) 
0.11

>  <cluster>  (7) 
1

$$$$

     RDKit          3D

 64 69  0  0  0  0  0  0  0  0999 V2000
  139.7050   68.7030  227.3290 C   0  0  0  0  0  0  0  0  0  0  0  0
  140.7890   69.5250  227.5610 C   0  0  0  0  0  0  0  0  0  0  0  0
  141.1260   70.5710  226.6930 C   0  0  0  0  0  0  0  0  0  0  0  0
  140.3310   70.7800  225.5590 C   0  0  0  0  0  0  0  0  0  0  0  0
  139.2400   69.9450  225.3360 C   0  0  0  0  0  0  0  0  0  0  0  0
  138.9210   68.9240  226.1950 C   0  0  0  0  0  0  0  0  0  0  0  0
  138.4700   70.2400  224.0900 C   0  0  0  0  0  0  0  0  0  0  0  0
  139.5030   70.3810  222.9600 C   0  0  0  0  0  0  0  0  0  0  0  0
  140.2940   71.5700  223.3000 N   0  0  0  0  0  0  0  0  0  0  0  0
  140.6760   72.3800  222.2010 C   0  0  0  0  0  0  0  0  0  0  0  0
  141.1860   71.9050  221.0560 N   0  0  0  0  0  0  0  0  0  0  0  0
  141.5290   72.7390  220.0240 C   0  0  0  0  0  0  0  0  0  0  0  0
  142.0380   72.2690  218.8130 N   0  0  0  0  0  0  0  0  0  0  0  0
  143.2930   72.6740  218.2120 C   0  0  0  0  0  0  0  0  0  0  0  0
  144.1680   73.3510  219.2570 C   0  0  2  0  0  0  0  0  0  0  0  0
  145.6370   73.2640  218.8350 C   0  0  0  0  0  0  0  0  0  0  0  0
  146.3330   73.4730  220.1620 C   0  0  0  0  0  0  0  0  0  0  0  0
  145.2870   73.2250  221.2210 C   0  0  0  0  0  0  0  0  0  0  0  0
  144.2310   72.5570  220.4790 N   0  0  0  0  0  0  0  0  0  0  0  0
  141.3290   74.0610  220.2150 N   0  0  0  0  0  0  0  0  0  0  0  0
  140.8190   74.5730  221.3460 C   0  0  0  0  0  0  0  0  0  0  0  0
  140.6240   75.9690  221.4830 N   0  0  0  0  0  0  0  0  0  0  0  0
  140.3160   76.7510  220.2710 C   0  0  0  0  0  0  0  0  0  0  0  0
  141.5910   77.6030  220.0960 C   0  0  0  0  0  0  0  0  0  0  0  0
  141.5440   78.5680  221.2570 C   0  0  0  0  0  0  0  0  0  0  0  0
  141.9230   79.8700  221.0450 C   0  0  0  0  0  0  0  0  0  0  0  0
  141.8630   80.7370  222.1150 C   0  0  0  0  0  0  0  0  0  0  0  0
  141.4320   80.3290  223.3810 C   0  0  0  0  0  0  0  0  0  0  0  0
  141.0510   78.9940  223.5630 C   0  0  0  0  0  0  0  0  0  0  0  0
  141.1060   78.1120  222.5080 C   0  0  0  0  0  0  0  0  0  0  0  0
  140.6980   76.6950  222.7260 C   0  0  0  0  0  0  0  0  0  0  0  0
  140.5020   73.7030  222.3260 N   0  0  0  0  0  0  0  0  0  0  0  0
  140.6780   71.9000  224.6520 C   0  0  0  0  0  0  0  0  0  0  0  0
  139.4627   67.8872  228.0259 H   0  0  0  0  0  0  0  0  0  0  0  0
  141.4069   69.3534  228.4547 H   0  0  0  0  0  0  0  0  0  0  0  0
  141.9951   71.2137  226.8971 H   0  0  0  0  0  0  0  0  0  0  0  0
  138.0512   68.2822  225.9912 H   0  0  0  0  0  0  0  0  0  0  0  0
  137.7753   69.4163  223.8689 H   0  0  0  0  0  0  0  0  0  0  0  0
  137.8733   71.1576  224.1996 H   0  0  0  0  0  0  0  0  0  0  0  0
  140.1472   69.4905  222.9143 H   0  0  0  0  0  0  0  0  0  0  0  0
  139.0215   70.4781  221.9758 H   0  0  0  0  0  0  0  0  0  0  0  0
  141.4430   71.5500  218.2940 H   0  0  0  0  0  0  0  0  0  0  0  0
  143.8127   71.7879  217.8186 H   0  0  0  0  0  0  0  0  0  0  0  0
  143.0930   73.3796  217.3922 H   0  0  0  0  0  0  0  0  0  0  0  0
  143.7541   74.3630  219.3775 H   0  0  0  0  0  0  0  0  0  0  0  0
  145.8758   72.2803  218.4044 H   0  0  0  0  0  0  0  0  0  0  0  0
  145.9270   73.9818  218.0535 H   0  0  0  0  0  0  0  0  0  0  0  0
  147.1659   72.7632  220.2732 H   0  0  0  0  0  0  0  0  0  0  0  0
  146.7560   74.4853  220.2413 H   0  0  0  0  0  0  0  0  0  0  0  0
  145.6784   72.5797  222.0213 H   0  0  0  0  0  0  0  0  0  0  0  0
  144.9515   74.1430  221.7257 H   0  0  0  0  0  0  0  0  0  0  0  0
  143.3160   72.5420  220.9600 H   0  0  0  0  0  0  0  0  0  0  0  0
  140.1537   76.0941  219.4037 H   0  0  0  0  0  0  0  0  0  0  0  0
  139.3956   77.3477  220.3540 H   0  0  0  0  0  0  0  0  0  0  0  0
  142.4921   76.9741  220.1458 H   0  0  0  0  0  0  0  0  0  0  0  0
  141.6310   78.1123  219.1218 H   0  0  0  0  0  0  0  0  0  0  0  0
  142.2628   80.2099  220.0556 H   0  0  0  0  0  0  0  0  0  0  0  0
  142.1642   81.7847  221.9680 H   0  0  0  0  0  0  0  0  0  0  0  0
  141.3930   81.0425  224.2173 H   0  0  0  0  0  0  0  0  0  0  0  0
  140.7075   78.6500  224.5498 H   0  0  0  0  0  0  0  0  0  0  0  0
  141.4351   76.2076  223.3812 H   0  0  0  0  0  0  0  0  0  0  0  0
  139.6997   76.6906  223.1880 H   0  0  0  0  0  0  0  0  0  0  0  0
  141.7627   72.0787  224.6905 H   0  0  0  0  0  0  0  0  0  0  0  0
  140.1421   72.8060  224.9714 H   0  0  0  0  0  0  0  0  0  0  0  0
  1  2  2  0
  2  3  1  0
  3  4  2  0
  4  5  1  0
  5  6  2  0
  5  7  1  0
  7  8  1  0
  8  9  1  0
  9 10  1  0
 10 11  2  0
 11 12  1  0
 12 13  1  0
 13 14  1  0
 14 15  1  0
 15 16  1  0
 16 17  1  0
 17 18  1  0
 18 19  1  0
 12 20  2  0
 20 21  1  0
 21 22  1  0
 22 23  1  0
 23 24  1  0
 24 25  1  0
 25 26  2  0
 26 27  1  0
 27 28  2  0
 28 29  1  0
 29 30  2  0
 30 31  1  0
 21 32  2  0
  9 33  1  0
  6  1  1  0
 32 10  1  0
 33  4  1  0
 19 15  1  0
 31 22  1  0
 30 25  1  0
  1 34  1  0
  2 35  1  0
  3 36  1  0
  6 37  1  0
  7 38  1  0
  7 39  1  0
  8 40  1  0
  8 41  1  0
 13 42  1  0
 14 43  1  0
 14 44  1  0
 15 45  1  1
 16 46  1  0
 16 47  1  0
 17 48  1  0
 17 49  1  0
 18 50  1  0
 18 51  1  0
 19 52  1  0
 23 53  1  0
 23 54  1  0
 24 55  1  0
 24 56  1  0
 26 57  1  0
 27 58  1  0
 28 59  1  0
 29 60  1  0
 31 61  1  0
 31 62  1  0
 33 63  1  0
 33 64  1  0
M  END
>  <smiles>  (8) 
c1ccc2c(c1)CCN(c1nc(NCC3CCCN3)nc(N3CCc4ccccc4C3)n1)C2

>  <score_type>  (8) 
oracle

>  <origin>  (8) 
autodockgpu

>  <m_score__min__energy>  (8) 
-9.8200000000000003

>  <m_primary>  (8) 
energy

>  <rmsd>  (8) 
10.823188551306945

>  <m_score__min__rmsd>  (8) 
10.823188551306945

>  <meeko>  (8) 
{"free_energy": -9.13, "intermolecular_energy": -10.62, "internal_energy": -1.79, "cluster_size": 41, "cluster_id": 1, "rank_in_cluster": 22}

>  <energy>  (8) 
-9.75

>  <cluster_rmsd>  (8) 
1.4

>  <cluster>  (8) 
1

$$$$

     RDKit          3D

 64 69  0  0  0  0  0  0  0  0999 V2000
  139.4990   68.6750  227.2320 C   0  0  0  0  0  0  0  0  0  0  0  0
  140.5820   69.4740  227.5370 C   0  0  0  0  0  0  0  0  0  0  0  0
  140.9850   70.5260  226.7060 C   0  0  0  0  0  0  0  0  0  0  0  0
  140.2600   70.7650  225.5320 C   0  0  0  0  0  0  0  0  0  0  0  0
  139.1690   69.9530  225.2350 C   0  0  0  0  0  0  0  0  0  0  0  0
  138.7850   68.9250  226.0590 C   0  0  0  0  0  0  0  0  0  0  0  0
  138.4770   70.2790  223.9510 C   0  0  0  0  0  0  0  0  0  0  0  0
  139.5750   70.4170  222.8850 C   0  0  0  0  0  0  0  0  0  0  0  0
  140.3650   71.5870  223.2870 N   0  0  0  0  0  0  0  0  0  0  0  0
  140.8240   72.4060  222.2240 C   0  0  0  0  0  0  0  0  0  0  0  0
  141.4510   71.9440  221.1330 N   0  0  0  0  0  0  0  0  0  0  0  0
  141.8620   72.7840  220.1330 C   0  0  0  0  0  0  0  0  0  0  0  0
  142.4950   72.3270  218.9760 N   0  0  0  0  0  0  0  0  0  0  0  0
  143.4860   73.0570  218.2130 C   0  0  0  0  0  0  0  0  0  0  0  0
  144.6900   73.3650  219.0930 C   0  0  2  0  0  0  0  0  0  0  0  0
  144.8160   72.3000  220.1850 C   0  0  0  0  0  0  0  0  0  0  0  0
  145.6580   73.0320  221.2070 C   0  0  0  0  0  0  0  0  0  0  0  0
  145.5650   74.4960  220.8480 C   0  0  0  0  0  0  0  0  0  0  0  0
  144.4360   74.5300  219.9320 N   0  0  0  0  0  0  0  0  0  0  0  0
  141.6070   74.1000  220.2970 N   0  0  0  0  0  0  0  0  0  0  0  0
  140.9800   74.6000  221.3740 C   0  0  0  0  0  0  0  0  0  0  0  0
  140.7320   75.9890  221.4850 N   0  0  0  0  0  0  0  0  0  0  0  0
  140.5470   76.7650  220.2440 C   0  0  0  0  0  0  0  0  0  0  0  0
  141.8100   77.6520  220.2190 C   0  0  0  0  0  0  0  0  0  0  0  0
  141.6000   78.6130  221.3650 C   0  0  0  0  0  0  0  0  0  0  0  0
  141.9660   79.9260  221.1970 C   0  0  0  0  0  0  0  0  0  0  0  0
  141.7570   80.7880  222.2520 C   0  0  0  0  0  0  0  0  0  0  0  0
  141.1920   80.3670  223.4590 C   0  0  0  0  0  0  0  0  0  0  0  0
  140.8280   79.0210  223.5970 C   0  0  0  0  0  0  0  0  0  0  0  0
  141.0310   78.1430  222.5570 C   0  0  0  0  0  0  0  0  0  0  0  0
  140.6400   76.7150  222.7280 C   0  0  0  0  0  0  0  0  0  0  0  0
  140.6000   73.7230  222.3250 N   0  0  0  0  0  0  0  0  0  0  0  0
  140.6770   71.8910  224.6630 C   0  0  0  0  0  0  0  0  0  0  0  0
  139.2032   67.8545  227.9023 H   0  0  0  0  0  0  0  0  0  0  0  0
  141.1457   69.2783  228.4611 H   0  0  0  0  0  0  0  0  0  0  0  0
  141.8514   71.1506  226.9692 H   0  0  0  0  0  0  0  0  0  0  0  0
  137.9183   68.3007  225.7962 H   0  0  0  0  0  0  0  0  0  0  0  0
  137.7822   69.4710  223.6782 H   0  0  0  0  0  0  0  0  0  0  0  0
  137.8908   71.2055  224.0398 H   0  0  0  0  0  0  0  0  0  0  0  0
  140.2056   69.5160  222.8634 H   0  0  0  0  0  0  0  0  0  0  0  0
  139.1527   70.5360  221.8763 H   0  0  0  0  0  0  0  0  0  0  0  0
  142.2160   71.3550  218.6340 H   0  0  0  0  0  0  0  0  0  0  0  0
  143.8070   72.4486  217.3547 H   0  0  0  0  0  0  0  0  0  0  0  0
  143.0468   73.9999  217.8551 H   0  0  0  0  0  0  0  0  0  0  0  0
  145.5433   73.4608  218.4055 H   0  0  0  0  0  0  0  0  0  0  0  0
  143.8333   72.0234  220.5947 H   0  0  0  0  0  0  0  0  0  0  0  0
  145.2461   71.3475  219.8418 H   0  0  0  0  0  0  0  0  0  0  0  0
  145.2649   72.8607  222.2200 H   0  0  0  0  0  0  0  0  0  0  0  0
  146.7000   72.6796  221.1988 H   0  0  0  0  0  0  0  0  0  0  0  0
  145.3714   75.1113  221.7390 H   0  0  0  0  0  0  0  0  0  0  0  0
  146.4919   74.8983  220.4132 H   0  0  0  0  0  0  0  0  0  0  0  0
  144.3750   75.3920  219.3640 H   0  0  0  0  0  0  0  0  0  0  0  0
  140.5058   76.1058  219.3644 H   0  0  0  0  0  0  0  0  0  0  0  0
  139.6072   77.3361  220.2177 H   0  0  0  0  0  0  0  0  0  0  0  0
  142.7159   77.0480  220.3754 H   0  0  0  0  0  0  0  0  0  0  0  0
  141.9505   78.1640  219.2556 H   0  0  0  0  0  0  0  0  0  0  0  0
  142.4102   80.2772  220.2540 H   0  0  0  0  0  0  0  0  0  0  0  0
  142.0448   81.8438  222.1401 H   0  0  0  0  0  0  0  0  0  0  0  0
  141.0362   81.0779  224.2839 H   0  0  0  0  0  0  0  0  0  0  0  0
  140.3799   78.6661  224.5368 H   0  0  0  0  0  0  0  0  0  0  0  0
  141.3088   76.2472  223.4655 H   0  0  0  0  0  0  0  0  0  0  0  0
  139.5951   76.6820  223.0703 H   0  0  0  0  0  0  0  0  0  0  0  0
  141.7607   72.0497  224.7654 H   0  0  0  0  0  0  0  0  0  0  0  0
  140.1393   72.8019  224.9650 H   0  0  0  0  0  0  0  0  0  0  0  0
  1  2  2  0
  2  3  1  0
  3  4  2  0
  4  5  1  0
  5  6  2  0
  5  7  1  0
  7  8  1  0
  8  9  1  0
  9 10  1  0
 10 11  2  0
 11 12  1  0
 12 13  1  0
 13 14  1  0
 14 15  1  0
 15 16  1  0
 16 17  1  0
 17 18  1  0
 18 19  1  0
 12 20  2  0
 20 21  1  0
 21 22  1  0
 22 23  1  0
 23 24  1  0
 24 25  1  0
 25 26  2  0
 26 27  1  0
 27 28  2  0
 28 29  1  0
 29 30  2  0
 30 31  1  0
 21 32  2  0
  9 33  1  0
  6  1  1  0
 32 10  1  0
 33  4  1  0
 19 15  1  0
 31 22  1  0
 30 25  1  0
  1 34  1  0
  2 35  1  0
  3 36  1  0
  6 37  1  0
  7 38  1  0
  7 39  1  0
  8 40  1  0
  8 41  1  0
 13 42  1  0
 14 43  1  0
 14 44  1  0
 15 45  1  6
 16 46  1  0
 16 47  1  0
 17 48  1  0
 17 49  1  0
 18 50  1  0
 18 51  1  0
 19 52  1  0
 23 53  1  0
 23 54  1  0
 24 55  1  0
 24 56  1  0
 26 57  1  0
 27 58  1  0
 28 59  1  0
 29 60  1  0
 31 61  1  0
 31 62  1  0
 33 63  1  0
 33 64  1  0
M  END
>  <smiles>  (9) 
c1ccc2c(c1)CCN(c1nc(NCC3CCCN3)nc(N3CCc4ccccc4C3)n1)C2

>  <score_type>  (9) 
oracle

>  <origin>  (9) 
autodockgpu

>  <m_score__min__energy>  (9) 
-9.8200000000000003

>  <m_primary>  (9) 
energy

>  <rmsd>  (9) 
10.798765913706834

>  <m_score__min__rmsd>  (9) 
10.798765913706834

>  <meeko>  (9) 
{"free_energy": -9.5, "intermolecular_energy": -10.99, "internal_energy": -1.35, "cluster_size": 41, "cluster_id": 1, "rank_in_cluster": 17}

>  <energy>  (9) 
-9.74

>  <cluster_rmsd>  (9) 
0.89

>  <cluster>  (9) 
1

$$$$

     RDKit          3D

 64 69  0  0  0  0  0  0  0  0999 V2000
  139.9470   68.6850  227.9720 C   0  0  0  0  0  0  0  0  0  0  0  0
  140.9030   69.6620  228.1710 C   0  0  0  0  0  0  0  0  0  0  0  0
  141.1210   70.6850  227.2410 C   0  0  0  0  0  0  0  0  0  0  0  0
  140.3410   70.7090  226.0780 C   0  0  0  0  0  0  0  0  0  0  0  0
  139.3810   69.7190  225.8890 C   0  0  0  0  0  0  0  0  0  0  0  0
  139.1770   68.7220  226.8090 C   0  0  0  0  0  0  0  0  0  0  0  0
  138.6180   69.8240  224.6090 C   0  0  0  0  0  0  0  0  0  0  0  0
  139.6570   70.0320  223.4950 C   0  0  0  0  0  0  0  0  0  0  0  0
  140.2690   71.3380  223.7700 N   0  0  0  0  0  0  0  0  0  0  0  0
  140.5720   72.1200  222.6270 C   0  0  0  0  0  0  0  0  0  0  0  0
  141.2450   71.6660  221.5610 N   0  0  0  0  0  0  0  0  0  0  0  0
  141.5000   72.4680  220.4800 C   0  0  0  0  0  0  0  0  0  0  0  0
  142.1760   72.0140  219.3470 N   0  0  0  0  0  0  0  0  0  0  0  0
  143.5900   71.7020  219.2780 C   0  0  0  0  0  0  0  0  0  0  0  0
  144.3410   72.4810  220.3490 C   0  0  2  0  0  0  0  0  0  0  0  0
  144.2860   73.9770  220.0340 C   0  0  0  0  0  0  0  0  0  0  0  0
  145.4660   74.4860  220.8320 C   0  0  0  0  0  0  0  0  0  0  0  0
  146.3070   73.2720  221.1450 C   0  0  0  0  0  0  0  0  0  0  0  0
  145.7800   72.2710  220.2310 N   0  0  0  0  0  0  0  0  0  0  0  0
  141.0420   73.7370  220.5390 N   0  0  0  0  0  0  0  0  0  0  0  0
  140.3620   74.2270  221.5890 C   0  0  0  0  0  0  0  0  0  0  0  0
  139.8990   75.5640  221.5880 N   0  0  0  0  0  0  0  0  0  0  0  0
  140.8320   76.6250  221.1660 C   0  0  0  0  0  0  0  0  0  0  0  0
  141.0750   77.3940  222.4820 C   0  0  0  0  0  0  0  0  0  0  0  0
  139.7520   78.0680  222.7570 C   0  0  0  0  0  0  0  0  0  0  0  0
  139.7570   79.3510  223.2450 C   0  0  0  0  0  0  0  0  0  0  0  0
  138.5380   79.9510  223.4790 C   0  0  0  0  0  0  0  0  0  0  0  0
  137.3260   79.2980  223.2360 C   0  0  0  0  0  0  0  0  0  0  0  0
  137.3560   77.9900  222.7360 C   0  0  0  0  0  0  0  0  0  0  0  0
  138.5630   77.3720  222.4970 C   0  0  0  0  0  0  0  0  0  0  0  0
  138.5710   75.9790  221.9690 C   0  0  0  0  0  0  0  0  0  0  0  0
  140.1430   73.3890  222.6220 N   0  0  0  0  0  0  0  0  0  0  0  0
  140.5620   71.8050  225.1040 C   0  0  0  0  0  0  0  0  0  0  0  0
  139.7953   67.8910  228.7180 H   0  0  0  0  0  0  0  0  0  0  0  0
  141.5109   69.6352  229.0874 H   0  0  0  0  0  0  0  0  0  0  0  0
  141.8879   71.4531  227.4195 H   0  0  0  0  0  0  0  0  0  0  0  0
  138.4093   67.9547  226.6305 H   0  0  0  0  0  0  0  0  0  0  0  0
  138.0487   68.9001  224.4295 H   0  0  0  0  0  0  0  0  0  0  0  0
  137.8995   70.6563  224.6422 H   0  0  0  0  0  0  0  0  0  0  0  0
  140.4169   69.2372  223.5245 H   0  0  0  0  0  0  0  0  0  0  0  0
  139.1975   69.9983  222.4962 H   0  0  0  0  0  0  0  0  0  0  0  0
  141.5920   71.8900  218.4620 H   0  0  0  0  0  0  0  0  0  0  0  0
  143.7348   70.6238  219.4411 H   0  0  0  0  0  0  0  0  0  0  0  0
  143.9764   71.9812  218.2866 H   0  0  0  0  0  0  0  0  0  0  0  0
  143.8989   72.1693  221.3068 H   0  0  0  0  0  0  0  0  0  0  0  0
  144.4138   74.1679  218.9582 H   0  0  0  0  0  0  0  0  0  0  0  0
  143.3288   74.4574  220.2851 H   0  0  0  0  0  0  0  0  0  0  0  0
  146.0447   75.2103  220.2400 H   0  0  0  0  0  0  0  0  0  0  0  0
  145.1423   75.0009  221.7486 H   0  0  0  0  0  0  0  0  0  0  0  0
  147.3718   73.4663  220.9488 H   0  0  0  0  0  0  0  0  0  0  0  0
  146.2565   72.9675  222.2008 H   0  0  0  0  0  0  0  0  0  0  0  0
  146.0350   71.2990  220.4710 H   0  0  0  0  0  0  0  0  0  0  0  0
  141.7680   76.1996  220.7748 H   0  0  0  0  0  0  0  0  0  0  0  0
  140.4423   77.2558  220.3534 H   0  0  0  0  0  0  0  0  0  0  0  0
  141.3392   76.7031  223.2962 H   0  0  0  0  0  0  0  0  0  0  0  0
  141.9084   78.1082  222.4088 H   0  0  0  0  0  0  0  0  0  0  0  0
  140.7002   79.8816  223.4423 H   0  0  0  0  0  0  0  0  0  0  0  0
  138.5184   80.9788  223.8704 H   0  0  0  0  0  0  0  0  0  0  0  0
  136.3681   79.8013  223.4335 H   0  0  0  0  0  0  0  0  0  0  0  0
  136.4154   77.4565  222.5343 H   0  0  0  0  0  0  0  0  0  0  0  0
  138.1942   75.2997  222.7478 H   0  0  0  0  0  0  0  0  0  0  0  0
  137.9301   75.9456  221.0756 H   0  0  0  0  0  0  0  0  0  0  0  0
  141.6108   72.1327  225.1544 H   0  0  0  0  0  0  0  0  0  0  0  0
  139.8989   72.6480  225.3482 H   0  0  0  0  0  0  0  0  0  0  0  0
  1  2  2  0
  2  3  1  0
  3  4  2  0
  4  5  1  0
  5  6  2  0
  5  7  1  0
  7  8  1  0
  8  9  1  0
  9 10  1  0
 10 11  2  0
 11 12  1  0
 12 13  1  0
 13 14  1  0
 14 15  1  0
 15 16  1  0
 16 17  1  0
 17 18  1  0
 18 19  1  0
 12 20  2  0
 20 21  1  0
 21 22  1  0
 22 23  1  0
 23 24  1  0
 24 25  1  0
 25 26  2  0
 26 27  1  0
 27 28  2  0
 28 29  1  0
 29 30  2  0
 30 31  1  0
 21 32  2  0
  9 33  1  0
  6  1  1  0
 32 10  1  0
 33  4  1  0
 19 15  1  0
 31 22  1  0
 30 25  1  0
  1 34  1  0
  2 35  1  0
  3 36  1  0
  6 37  1  0
  7 38  1  0
  7 39  1  0
  8 40  1  0
  8 41  1  0
 13 42  1  0
 14 43  1  0
 14 44  1  0
 15 45  1  1
 16 46  1  0
 16 47  1  0
 17 48  1  0
 17 49  1  0
 18 50  1  0
 18 51  1  0
 19 52  1  0
 23 53  1  0
 23 54  1  0
 24 55  1  0
 24 56  1  0
 26 57  1  0
 27 58  1  0
 28 59  1  0
 29 60  1  0
 31 61  1  0
 31 62  1  0
 33 63  1  0
 33 64  1  0
M  END
>  <smiles>  (10) 
c1ccc2c(c1)CCN(c1nc(NCC3CCCN3)nc(N3CCc4ccccc4C3)n1)C2

>  <score_type>  (10) 
oracle

>  <origin>  (10) 
autodockgpu

>  <m_score__min__energy>  (10) 
-9.8200000000000003

>  <m_primary>  (10) 
energy

>  <rmsd>  (10) 
11.183244301343768

>  <m_score__min__rmsd>  (10) 
11.183244301343768

>  <meeko>  (10) 
{"free_energy": -9.79, "intermolecular_energy": -11.28, "internal_energy": -1.2, "cluster_size": 41, "cluster_id": 1, "rank_in_cluster": 3}

>  <energy>  (10) 
-9.72

>  <cluster_rmsd>  (10) 
0.06

>  <cluster>  (10) 
1

$$$$

     RDKit          3D

 64 69  0  0  0  0  0  0  0  0999 V2000
  139.1710   68.1280  226.3140 C   0  0  0  0  0  0  0  0  0  0  0  0
  140.4420   68.5780  226.6080 C   0  0  0  0  0  0  0  0  0  0  0  0
  140.9830   69.7180  226.0030 C   0  0  0  0  0  0  0  0  0  0  0  0
  140.2030   70.4150  225.0720 C   0  0  0  0  0  0  0  0  0  0  0  0
  138.9220   69.9510  224.7840 C   0  0  0  0  0  0  0  0  0  0  0  0
  138.4030   68.8330  225.3850 C   0  0  0  0  0  0  0  0  0  0  0  0
  138.1810   70.7540  223.7650 C   0  0  0  0  0  0  0  0  0  0  0  0
  139.1460   70.9640  222.5860 C   0  0  0  0  0  0  0  0  0  0  0  0
  140.2350   71.7940  223.1160 N   0  0  0  0  0  0  0  0  0  0  0  0
  140.7460   72.7690  222.2230 C   0  0  0  0  0  0  0  0  0  0  0  0
  141.6530   72.5150  221.2690 N   0  0  0  0  0  0  0  0  0  0  0  0
  142.1030   73.4980  220.4280 C   0  0  0  0  0  0  0  0  0  0  0  0
  143.0270   73.2550  219.4120 N   0  0  0  0  0  0  0  0  0  0  0  0
  144.4520   73.0640  219.5960 C   0  0  0  0  0  0  0  0  0  0  0  0
  144.7450   71.5930  219.8570 C   0  0  2  0  0  0  0  0  0  0  0  0
  145.6080   71.0300  218.7250 C   0  0  0  0  0  0  0  0  0  0  0  0
  145.3380   69.5480  218.8650 C   0  0  0  0  0  0  0  0  0  0  0  0
  144.0880   69.4330  219.7040 C   0  0  0  0  0  0  0  0  0  0  0  0
  143.5490   70.7820  219.6630 N   0  0  0  0  0  0  0  0  0  0  0  0
  141.5910   74.7350  220.6050 N   0  0  0  0  0  0  0  0  0  0  0  0
  140.6800   75.0270  221.5480 C   0  0  0  0  0  0  0  0  0  0  0  0
  140.1720   76.3420  221.6780 N   0  0  0  0  0  0  0  0  0  0  0  0
  141.0640   77.4690  221.3460 C   0  0  0  0  0  0  0  0  0  0  0  0
  141.3010   78.1200  222.7250 C   0  0  0  0  0  0  0  0  0  0  0  0
  139.9600   78.7190  223.0780 C   0  0  0  0  0  0  0  0  0  0  0  0
  139.9300   79.9510  223.6840 C   0  0  0  0  0  0  0  0  0  0  0  0
  138.6960   80.4840  223.9880 C   0  0  0  0  0  0  0  0  0  0  0  0
  137.5030   79.8150  223.6990 C   0  0  0  0  0  0  0  0  0  0  0  0
  137.5690   78.5610  223.0790 C   0  0  0  0  0  0  0  0  0  0  0  0
  138.7910   78.0100  222.7690 C   0  0  0  0  0  0  0  0  0  0  0  0
  138.8370   76.6730  222.1120 C   0  0  0  0  0  0  0  0  0  0  0  0
  140.2770   74.0170  222.3450 N   0  0  0  0  0  0  0  0  0  0  0  0
  140.7710   71.6320  224.4470 C   0  0  0  0  0  0  0  0  0  0  0  0
  138.7694   67.2285  226.8035 H   0  0  0  0  0  0  0  0  0  0  0  0
  141.0481   68.0240  227.3399 H   0  0  0  0  0  0  0  0  0  0  0  0
  141.9984   70.0590  226.2532 H   0  0  0  0  0  0  0  0  0  0  0  0
  137.3867   68.4932  225.1365 H   0  0  0  0  0  0  0  0  0  0  0  0
  137.2856   70.2097  223.4305 H   0  0  0  0  0  0  0  0  0  0  0  0
  137.8488   71.7160  224.1824 H   0  0  0  0  0  0  0  0  0  0  0  0
  139.5358   69.9985  222.2311 H   0  0  0  0  0  0  0  0  0  0  0  0
  138.6475   71.4416  221.7296 H   0  0  0  0  0  0  0  0  0  0  0  0
  142.6410   73.2090  218.4180 H   0  0  0  0  0  0  0  0  0  0  0  0
  144.9840   73.3871  218.6890 H   0  0  0  0  0  0  0  0  0  0  0  0
  144.7906   73.6603  220.4561 H   0  0  0  0  0  0  0  0  0  0  0  0
  145.1793   71.5522  220.8668 H   0  0  0  0  0  0  0  0  0  0  0  0
  145.2846   71.4085  217.7441 H   0  0  0  0  0  0  0  0  0  0  0  0
  146.6714   71.3047  218.7863 H   0  0  0  0  0  0  0  0  0  0  0  0
  145.1785   69.0930  217.8763 H   0  0  0  0  0  0  0  0  0  0  0  0
  146.1865   69.0249  219.3303 H   0  0  0  0  0  0  0  0  0  0  0  0
  143.3825   68.7108  219.2673 H   0  0  0  0  0  0  0  0  0  0  0  0
  144.2799   69.0710  220.7248 H   0  0  0  0  0  0  0  0  0  0  0  0
  142.8420   70.9810  220.3910 H   0  0  0  0  0  0  0  0  0  0  0  0
  142.0075   77.1137  220.9060 H   0  0  0  0  0  0  0  0  0  0  0  0
  140.6422   78.1591  220.6004 H   0  0  0  0  0  0  0  0  0  0  0  0
  141.6007   77.3659  223.4677 H   0  0  0  0  0  0  0  0  0  0  0  0
  142.1086   78.8666  222.7090 H   0  0  0  0  0  0  0  0  0  0  0  0
  140.8580   80.4931  223.9184 H   0  0  0  0  0  0  0  0  0  0  0  0
  138.6481   81.4694  224.4746 H   0  0  0  0  0  0  0  0  0  0  0  0
  136.5319   80.2646  223.9535 H   0  0  0  0  0  0  0  0  0  0  0  0
  136.6437   78.0164  222.8398 H   0  0  0  0  0  0  0  0  0  0  0  0
  138.4949   75.9112  222.8279 H   0  0  0  0  0  0  0  0  0  0  0  0
  138.1839   76.7010  221.2273 H   0  0  0  0  0  0  0  0  0  0  0  0
  141.8654   71.5369  224.3909 H   0  0  0  0  0  0  0  0  0  0  0  0
  140.5059   72.5098  225.0546 H   0  0  0  0  0  0  0  0  0  0  0  0
  1  2  2  0
  2  3  1  0
  3  4  2  0
  4  5  1  0
  5  6  2  0
  5  7  1  0
  7  8  1  0
  8  9  1  0
  9 10  1  0
 10 11  2  0
 11 12  1  0
 12 13  1  0
 13 14  1  0
 14 15  1  0
 15 16  1  0
 16 17  1  0
 17 18  1  0
 18 19  1  0
 12 20  2  0
 20 21  1  0
 21 22  1  0
 22 23  1  0
 23 24  1  0
 24 25  1  0
 25 26  2  0
 26 27  1  0
 27 28  2  0
 28 29  1  0
 29 30  2  0
 30 31  1  0
 21 32  2  0
  9 33  1  0
  6  1  1  0
 32 10  1  0
 33  4  1  0
 19 15  1  0
 31 22  1  0
 30 25  1  0
  1 34  1  0
  2 35  1  0
  3 36  1  0
  6 37  1  0
  7 38  1  0
  7 39  1  0
  8 40  1  0
  8 41  1  0
 13 42  1  0
 14 43  1  0
 14 44  1  0
 15 45  1  1
 16 46  1  0
 16 47  1  0
 17 48  1  0
 17 49  1  0
 18 50  1  0
 18 51  1  0
 19 52  1  0
 23 53  1  0
 23 54  1  0
 24 55  1  0
 24 56  1  0
 26 57  1  0
 27 58  1  0
 28 59  1  0
 29 60  1  0
 31 61  1  0
 31 62  1  0
 33 63  1  0
 33 64  1  0
M  END
>  <smiles>  (11) 
c1ccc2c(c1)CCN(c1nc(NCC3CCCN3)nc(N3CCc4ccccc4C3)n1)C2

>  <score_type>  (11) 
oracle

>  <origin>  (11) 
autodockgpu

>  <m_score__min__energy>  (11) 
-9.8200000000000003

>  <m_primary>  (11) 
energy

>  <rmsd>  (11) 
10.781451806125629

>  <m_score__min__rmsd>  (11) 
10.781451806125629

>  <meeko>  (11) 
{"free_energy": -8.34, "intermolecular_energy": -9.83, "internal_energy": -1.81, "cluster_size": 41, "cluster_id": 1, "rank_in_cluster": 38}

>  <energy>  (11) 
-9.72

>  <cluster_rmsd>  (11) 
1.38

>  <cluster>  (11) 
1

$$$$

     RDKit          3D

 64 69  0  0  0  0  0  0  0  0999 V2000
  139.5710   68.5050  226.8210 C   0  0  0  0  0  0  0  0  0  0  0  0
  140.7230   69.2190  227.0830 C   0  0  0  0  0  0  0  0  0  0  0  0
  141.1030   70.3220  226.3090 C   0  0  0  0  0  0  0  0  0  0  0  0
  140.2820   70.7030  225.2400 C   0  0  0  0  0  0  0  0  0  0  0  0
  139.1230   69.9760  224.9860 C   0  0  0  0  0  0  0  0  0  0  0  0
  138.7620   68.8970  225.7530 C   0  0  0  0  0  0  0  0  0  0  0  0
  138.3290   70.4520  223.8130 C   0  0  0  0  0  0  0  0  0  0  0  0
  139.3250   70.6340  222.6560 C   0  0  0  0  0  0  0  0  0  0  0  0
  140.2160   71.7230  223.0760 N   0  0  0  0  0  0  0  0  0  0  0  0
  140.6150   72.6130  222.0470 C   0  0  0  0  0  0  0  0  0  0  0  0
  141.1050   72.2230  220.8620 N   0  0  0  0  0  0  0  0  0  0  0  0
  141.4650   73.1310  219.9020 C   0  0  0  0  0  0  0  0  0  0  0  0
  141.9540   72.7520  218.6510 N   0  0  0  0  0  0  0  0  0  0  0  0
  143.3460   72.7720  218.2490 C   0  0  0  0  0  0  0  0  0  0  0  0
  144.2380   72.7990  219.4820 C   0  0  2  0  0  0  0  0  0  0  0  0
  144.3970   74.2410  219.9720 C   0  0  0  0  0  0  0  0  0  0  0  0
  145.6640   74.1300  220.7910 C   0  0  0  0  0  0  0  0  0  0  0  0
  146.3230   72.8420  220.3620 C   0  0  0  0  0  0  0  0  0  0  0  0
  145.6240   72.5190  219.1280 N   0  0  0  0  0  0  0  0  0  0  0  0
  141.3040   74.4370  220.2050 N   0  0  0  0  0  0  0  0  0  0  0  0
  140.8150   74.8660  221.3800 C   0  0  0  0  0  0  0  0  0  0  0  0
  140.6600   76.2490  221.6360 N   0  0  0  0  0  0  0  0  0  0  0  0
  140.0750   77.0930  220.5770 C   0  0  0  0  0  0  0  0  0  0  0  0
  141.2730   77.9670  220.1520 C   0  0  0  0  0  0  0  0  0  0  0  0
  141.5040   78.8670  221.3430 C   0  0  0  0  0  0  0  0  0  0  0  0
  141.8250   80.1840  221.1190 C   0  0  0  0  0  0  0  0  0  0  0  0
  142.0220   80.9900  222.2200 C   0  0  0  0  0  0  0  0  0  0  0  0
  141.9040   80.5090  223.5270 C   0  0  0  0  0  0  0  0  0  0  0  0
  141.5740   79.1620  223.7210 C   0  0  0  0  0  0  0  0  0  0  0  0
  141.3760   78.3390  222.6350 C   0  0  0  0  0  0  0  0  0  0  0  0
  141.0290   76.9080  222.8650 C   0  0  0  0  0  0  0  0  0  0  0  0
  140.4790   73.9240  222.2850 N   0  0  0  0  0  0  0  0  0  0  0  0
  140.6770   71.8830  224.4340 C   0  0  0  0  0  0  0  0  0  0  0  0
  139.2950   67.6412  227.4436 H   0  0  0  0  0  0  0  0  0  0  0  0
  141.3613   68.9123  227.9247 H   0  0  0  0  0  0  0  0  0  0  0  0
  142.0254   70.8769  226.5353 H   0  0  0  0  0  0  0  0  0  0  0  0
  137.8388   68.3431  225.5272 H   0  0  0  0  0  0  0  0  0  0  0  0
  137.5656   69.7073  223.5435 H   0  0  0  0  0  0  0  0  0  0  0  0
  137.8082   71.3936  224.0411 H   0  0  0  0  0  0  0  0  0  0  0  0
  139.8980   69.7094  222.4924 H   0  0  0  0  0  0  0  0  0  0  0  0
  138.8146   70.8652  221.7094 H   0  0  0  0  0  0  0  0  0  0  0  0
  141.2310   72.4210  217.9380 H   0  0  0  0  0  0  0  0  0  0  0  0
  143.5682   71.8719  217.6571 H   0  0  0  0  0  0  0  0  0  0  0  0
  143.5363   73.6701  217.6431 H   0  0  0  0  0  0  0  0  0  0  0  0
  143.7846   72.0909  220.1912 H   0  0  0  0  0  0  0  0  0  0  0  0
  144.5186   74.9416  219.1328 H   0  0  0  0  0  0  0  0  0  0  0  0
  143.5306   74.6290  220.5277 H   0  0  0  0  0  0  0  0  0  0  0  0
  146.3264   74.9845  220.5886 H   0  0  0  0  0  0  0  0  0  0  0  0
  145.4489   74.1335  221.8698 H   0  0  0  0  0  0  0  0  0  0  0  0
  147.3983   72.9877  220.1820 H   0  0  0  0  0  0  0  0  0  0  0  0
  146.2602   72.0469  221.1195 H   0  0  0  0  0  0  0  0  0  0  0  0
  145.7390   71.5400  218.8170 H   0  0  0  0  0  0  0  0  0  0  0  0
  139.7098   76.4828  219.7378 H   0  0  0  0  0  0  0  0  0  0  0  0
  139.2023   77.6743  220.9095 H   0  0  0  0  0  0  0  0  0  0  0  0
  142.1591   77.3466  219.9521 H   0  0  0  0  0  0  0  0  0  0  0  0
  141.0820   78.5285  219.2256 H   0  0  0  0  0  0  0  0  0  0  0  0
  141.9214   80.5811  220.0977 H   0  0  0  0  0  0  0  0  0  0  0  0
  142.2809   82.0477  222.0645 H   0  0  0  0  0  0  0  0  0  0  0  0
  142.0672   81.1757  224.3866 H   0  0  0  0  0  0  0  0  0  0  0  0
  141.4730   78.7616  224.7405 H   0  0  0  0  0  0  0  0  0  0  0  0
  141.8998   76.3943  223.2984 H   0  0  0  0  0  0  0  0  0  0  0  0
  140.1692   76.8673  223.5499 H   0  0  0  0  0  0  0  0  0  0  0  0
  141.7728   71.9785  224.4389 H   0  0  0  0  0  0  0  0  0  0  0  0
  140.2245   72.7872  224.8673 H   0  0  0  0  0  0  0  0  0  0  0  0
  1  2  2  0
  2  3  1  0
  3  4  2  0
  4  5  1  0
  5  6  2  0
  5  7  1  0
  7  8  1  0
  8  9  1  0
  9 10  1  0
 10 11  2  0
 11 12  1  0
 12 13  1  0
 13 14  1  0
 14 15  1  0
 15 16  1  0
 16 17  1  0
 17 18  1  0
 18 19  1  0
 12 20  2  0
 20 21  1  0
 21 22  1  0
 22 23  1  0
 23 24  1  0
 24 25  1  0
 25 26  2  0
 26 27  1  0
 27 28  2  0
 28 29  1  0
 29 30  2  0
 30 31  1  0
 21 32  2  0
  9 33  1  0
  6  1  1  0
 32 10  1  0
 33  4  1  0
 19 15  1  0
 31 22  1  0
 30 25  1  0
  1 34  1  0
  2 35  1  0
  3 36  1  0
  6 37  1  0
  7 38  1  0
  7 39  1  0
  8 40  1  0
  8 41  1  0
 13 42  1  0
 14 43  1  0
 14 44  1  0
 15 45  1  1
 16 46  1  0
 16 47  1  0
 17 48  1  0
 17 49  1  0
 18 50  1  0
 18 51  1  0
 19 52  1  0
 23 53  1  0
 23 54  1  0
 24 55  1  0
 24 56  1  0
 26 57  1  0
 27 58  1  0
 28 59  1  0
 29 60  1  0
 31 61  1  0
 31 62  1  0
 33 63  1  0
 33 64  1  0
M  END
>  <smiles>  (12) 
c1ccc2c(c1)CCN(c1nc(NCC3CCCN3)nc(N3CCc4ccccc4C3)n1)C2

>  <score_type>  (12) 
oracle

>  <origin>  (12) 
autodockgpu

>  <m_score__min__energy>  (12) 
-9.8200000000000003

>  <m_primary>  (12) 
energy

>  <rmsd>  (12) 
10.69319022296925

>  <m_score__min__rmsd>  (12) 
10.69319022296925

>  <meeko>  (12) 
{"free_energy": -9.72, "intermolecular_energy": -11.21, "internal_energy": -1.22, "cluster_size": 41, "cluster_id": 1, "rank_in_cluster": 11}

>  <energy>  (12) 
-9.72

>  <cluster_rmsd>  (12) 
1.3

>  <cluster>  (12) 
1

$$$$

     RDKit          3D

 64 69  0  0  0  0  0  0  0  0999 V2000
  139.6840   68.6730  227.1900 C   0  0  0  0  0  0  0  0  0  0  0  0
  140.7900   69.4660  227.4230 C   0  0  0  0  0  0  0  0  0  0  0  0
  141.1390   70.5190  226.5690 C   0  0  0  0  0  0  0  0  0  0  0  0
  140.3360   70.7660  225.4490 C   0  0  0  0  0  0  0  0  0  0  0  0
  139.2240   69.9590  225.2250 C   0  0  0  0  0  0  0  0  0  0  0  0
  138.8920   68.9310  226.0710 C   0  0  0  0  0  0  0  0  0  0  0  0
  138.4460   70.2930  223.9940 C   0  0  0  0  0  0  0  0  0  0  0  0
  139.4690   70.4300  222.8540 C   0  0  0  0  0  0  0  0  0  0  0  0
  140.2900   71.5950  223.2040 N   0  0  0  0  0  0  0  0  0  0  0  0
  140.6780   72.4160  222.1150 C   0  0  0  0  0  0  0  0  0  0  0  0
  141.1690   71.9500  220.9580 N   0  0  0  0  0  0  0  0  0  0  0  0
  141.5180   72.7930  219.9370 C   0  0  0  0  0  0  0  0  0  0  0  0
  142.0080   72.3330  218.7140 N   0  0  0  0  0  0  0  0  0  0  0  0
  143.3330   72.5890  218.1870 C   0  0  0  0  0  0  0  0  0  0  0  0
  144.1810   73.2870  219.2420 C   0  0  2  0  0  0  0  0  0  0  0  0
  145.6580   73.2160  218.8480 C   0  0  0  0  0  0  0  0  0  0  0  0
  146.3260   73.4450  220.1850 C   0  0  0  0  0  0  0  0  0  0  0  0
  145.2640   73.1920  221.2270 C   0  0  0  0  0  0  0  0  0  0  0  0
  144.2300   72.5040  220.4710 N   0  0  0  0  0  0  0  0  0  0  0  0
  141.3440   74.1150  220.1490 N   0  0  0  0  0  0  0  0  0  0  0  0
  140.8530   74.6190  221.2930 C   0  0  0  0  0  0  0  0  0  0  0  0
  140.6840   76.0150  221.4530 N   0  0  0  0  0  0  0  0  0  0  0  0
  140.5050   76.8390  220.2430 C   0  0  0  0  0  0  0  0  0  0  0  0
  141.8130   77.6570  220.2040 C   0  0  0  0  0  0  0  0  0  0  0  0
  141.6900   78.5910  221.3840 C   0  0  0  0  0  0  0  0  0  0  0  0
  142.1210   79.8870  221.2440 C   0  0  0  0  0  0  0  0  0  0  0  0
  141.9910   80.7260  222.3300 C   0  0  0  0  0  0  0  0  0  0  0  0
  141.4410   80.2980  223.5410 C   0  0  0  0  0  0  0  0  0  0  0  0
  141.0090   78.9700  223.6510 C   0  0  0  0  0  0  0  0  0  0  0  0
  141.1320   78.1150  222.5790 C   0  0  0  0  0  0  0  0  0  0  0  0
  140.6690   76.7060  222.7190 C   0  0  0  0  0  0  0  0  0  0  0  0
  140.5290   73.7390  222.2620 N   0  0  0  0  0  0  0  0  0  0  0  0
  140.6980   71.8930  224.5570 C   0  0  0  0  0  0  0  0  0  0  0  0
  139.4314   67.8509  227.8758 H   0  0  0  0  0  0  0  0  0  0  0  0
  141.4151   69.2645  228.3054 H   0  0  0  0  0  0  0  0  0  0  0  0
  142.0246   71.1386  226.7734 H   0  0  0  0  0  0  0  0  0  0  0  0
  138.0051   68.3129  225.8677 H   0  0  0  0  0  0  0  0  0  0  0  0
  137.7300   69.4893  223.7674 H   0  0  0  0  0  0  0  0  0  0  0  0
  137.8716   71.2217  224.1265 H   0  0  0  0  0  0  0  0  0  0  0  0
  140.0925   69.5264  222.7860 H   0  0  0  0  0  0  0  0  0  0  0  0
  138.9784   70.5542  221.8773 H   0  0  0  0  0  0  0  0  0  0  0  0
  141.3400   71.7440  218.1250 H   0  0  0  0  0  0  0  0  0  0  0  0
  143.8064   71.6355  217.9099 H   0  0  0  0  0  0  0  0  0  0  0  0
  143.2529   73.2343  217.2997 H   0  0  0  0  0  0  0  0  0  0  0  0
  143.7533   74.2951  219.3458 H   0  0  0  0  0  0  0  0  0  0  0  0
  145.9176   72.2321  218.4302 H   0  0  0  0  0  0  0  0  0  0  0  0
  145.9530   73.9311  218.0659 H   0  0  0  0  0  0  0  0  0  0  0  0
  147.1659   72.7472  220.3175 H   0  0  0  0  0  0  0  0  0  0  0  0
  146.7340   74.4635  220.2633 H   0  0  0  0  0  0  0  0  0  0  0  0
  145.6489   72.5583  222.0396 H   0  0  0  0  0  0  0  0  0  0  0  0
  144.9076   74.1096  221.7179 H   0  0  0  0  0  0  0  0  0  0  0  0
  143.3070   72.4800  220.9350 H   0  0  0  0  0  0  0  0  0  0  0  0
  140.4011   76.2113  219.3457 H   0  0  0  0  0  0  0  0  0  0  0  0
  139.5978   77.4607  220.2644 H   0  0  0  0  0  0  0  0  0  0  0  0
  142.6889   77.0007  220.3136 H   0  0  0  0  0  0  0  0  0  0  0  0
  141.9524   78.1906  219.2522 H   0  0  0  0  0  0  0  0  0  0  0  0
  142.5550   80.2434  220.2982 H   0  0  0  0  0  0  0  0  0  0  0  0
  142.3319   81.7680  222.2401 H   0  0  0  0  0  0  0  0  0  0  0  0
  141.3490   80.9901  224.3911 H   0  0  0  0  0  0  0  0  0  0  0  0
  140.5715   78.6103  224.5940 H   0  0  0  0  0  0  0  0  0  0  0  0
  141.3328   76.1800  223.4209 H   0  0  0  0  0  0  0  0  0  0  0  0
  139.6344   76.7188  223.0923 H   0  0  0  0  0  0  0  0  0  0  0  0
  141.7870   72.0459  224.5850 H   0  0  0  0  0  0  0  0  0  0  0  0
  140.1873   72.8055  224.8983 H   0  0  0  0  0  0  0  0  0  0  0  0
  1  2  2  0
  2  3  1  0
  3  4  2  0
  4  5  1  0
  5  6  2  0
  5  7  1  0
  7  8  1  0
  8  9  1  0
  9 10  1  0
 10 11  2  0
 11 12  1  0
 12 13  1  0
 13 14  1  0
 14 15  1  0
 15 16  1  0
 16 17  1  0
 17 18  1  0
 18 19  1  0
 12 20  2  0
 20 21  1  0
 21 22  1  0
 22 23  1  0
 23 24  1  0
 24 25  1  0
 25 26  2  0
 26 27  1  0
 27 28  2  0
 28 29  1  0
 29 30  2  0
 30 31  1  0
 21 32  2  0
  9 33  1  0
  6  1  1  0
 32 10  1  0
 33  4  1  0
 19 15  1  0
 31 22  1  0
 30 25  1  0
  1 34  1  0
  2 35  1  0
  3 36  1  0
  6 37  1  0
  7 38  1  0
  7 39  1  0
  8 40  1  0
  8 41  1  0
 13 42  1  0
 14 43  1  0
 14 44  1  0
 15 45  1  1
 16 46  1  0
 16 47  1  0
 17 48  1  0
 17 49  1  0
 18 50  1  0
 18 51  1  0
 19 52  1  0
 23 53  1  0
 23 54  1  0
 24 55  1  0
 24 56  1  0
 26 57  1  0
 27 58  1  0
 28 59  1  0
 29 60  1  0
 31 61  1  0
 31 62  1  0
 33 63  1  0
 33 64  1  0
M  END
>  <smiles>  (13) 
c1ccc2c(c1)CCN(c1nc(NCC3CCCN3)nc(N3CCc4ccccc4C3)n1)C2

>  <score_type>  (13) 
oracle

>  <origin>  (13) 
autodockgpu

>  <m_score__min__energy>  (13) 
-9.8200000000000003

>  <m_primary>  (13) 
energy

>  <rmsd>  (13) 
10.77229452836058

>  <m_score__min__rmsd>  (13) 
10.77229452836058

>  <meeko>  (13) 
{"free_energy": -9.19, "intermolecular_energy": -10.68, "internal_energy": -1.84, "cluster_size": 41, "cluster_id": 1, "rank_in_cluster": 19}

>  <energy>  (13) 
-9.71

>  <cluster_rmsd>  (13) 
1.44

>  <cluster>  (13) 
1

$$$$

     RDKit          3D

 64 69  0  0  0  0  0  0  0  0999 V2000
  140.0910   67.9340  227.0140 C   0  0  0  0  0  0  0  0  0  0  0  0
  141.0270   68.9060  227.3060 C   0  0  0  0  0  0  0  0  0  0  0  0
  141.1320   70.0830  226.5550 C   0  0  0  0  0  0  0  0  0  0  0  0
  140.2570   70.2680  225.4770 C   0  0  0  0  0  0  0  0  0  0  0  0
  139.3190   69.2810  225.1920 C   0  0  0  0  0  0  0  0  0  0  0  0
  139.2250   68.1320  225.9370 C   0  0  0  0  0  0  0  0  0  0  0  0
  138.4480   69.5660  224.0120 C   0  0  0  0  0  0  0  0  0  0  0  0
  139.3830   70.0110  222.8760 C   0  0  0  0  0  0  0  0  0  0  0  0
  139.9710   71.2780  223.3260 N   0  0  0  0  0  0  0  0  0  0  0  0
  140.1510   72.2580  222.3170 C   0  0  0  0  0  0  0  0  0  0  0  0
  140.4230   71.9770  221.0350 N   0  0  0  0  0  0  0  0  0  0  0  0
  140.5770   72.9680  220.1020 C   0  0  0  0  0  0  0  0  0  0  0  0
  140.8360   72.7030  218.7570 N   0  0  0  0  0  0  0  0  0  0  0  0
  142.1510   72.5900  218.1580 C   0  0  0  0  0  0  0  0  0  0  0  0
  143.1710   73.3330  219.0100 C   0  0  2  0  0  0  0  0  0  0  0  0
  144.5820   73.0560  218.4870 C   0  0  0  0  0  0  0  0  0  0  0  0
  145.4140   73.3950  219.7040 C   0  0  0  0  0  0  0  0  0  0  0  0
  144.4570   73.3980  220.8720 C   0  0  0  0  0  0  0  0  0  0  0  0
  143.2880   72.7250  220.3300 N   0  0  0  0  0  0  0  0  0  0  0  0
  140.4420   74.2410  220.5340 N   0  0  0  0  0  0  0  0  0  0  0  0
  140.1680   74.5600  221.8090 C   0  0  0  0  0  0  0  0  0  0  0  0
  140.0280   75.9140  222.2000 N   0  0  0  0  0  0  0  0  0  0  0  0
  138.7030   76.5460  222.0600 C   0  0  0  0  0  0  0  0  0  0  0  0
  138.9460   77.5730  220.9340 C   0  0  0  0  0  0  0  0  0  0  0  0
  139.8500   78.6020  221.5710 C   0  0  0  0  0  0  0  0  0  0  0  0
  139.6390   79.9280  221.2880 C   0  0  0  0  0  0  0  0  0  0  0  0
  140.4690   80.8510  221.8870 C   0  0  0  0  0  0  0  0  0  0  0  0
  141.4960   80.4750  222.7580 C   0  0  0  0  0  0  0  0  0  0  0  0
  141.6840   79.1130  223.0270 C   0  0  0  0  0  0  0  0  0  0  0  0
  140.8670   78.1760  222.4370 C   0  0  0  0  0  0  0  0  0  0  0  0
  141.0880   76.7330  222.7350 C   0  0  0  0  0  0  0  0  0  0  0  0
  140.0280   73.5410  222.6810 N   0  0  0  0  0  0  0  0  0  0  0  0
  140.3580   71.5230  224.6950 C   0  0  0  0  0  0  0  0  0  0  0  0
  140.0286   67.0182  227.6202 H   0  0  0  0  0  0  0  0  0  0  0  0
  141.7105   68.7511  228.1538 H   0  0  0  0  0  0  0  0  0  0  0  0
  141.8845   70.8451  226.8058 H   0  0  0  0  0  0  0  0  0  0  0  0
  138.4712   67.3710  225.6867 H   0  0  0  0  0  0  0  0  0  0  0  0
  137.8978   68.6599  223.7183 H   0  0  0  0  0  0  0  0  0  0  0  0
  137.7061   70.3443  224.2442 H   0  0  0  0  0  0  0  0  0  0  0  0
  140.1693   69.2602  222.7089 H   0  0  0  0  0  0  0  0  0  0  0  0
  138.8431   70.1267  221.9247 H   0  0  0  0  0  0  0  0  0  0  0  0
  139.9860   72.5750  218.1250 H   0  0  0  0  0  0  0  0  0  0  0  0
  142.4329   71.5287  218.0933 H   0  0  0  0  0  0  0  0  0  0  0  0
  142.1301   73.0299  217.1500 H   0  0  0  0  0  0  0  0  0  0  0  0
  142.8490   74.3848  219.0061 H   0  0  0  0  0  0  0  0  0  0  0  0
  144.7047   72.0027  218.1947 H   0  0  0  0  0  0  0  0  0  0  0  0
  144.8495   73.6230  217.5832 H   0  0  0  0  0  0  0  0  0  0  0  0
  146.1984   72.6385  219.8540 H   0  0  0  0  0  0  0  0  0  0  0  0
  145.9168   74.3669  219.5914 H   0  0  0  0  0  0  0  0  0  0  0  0
  144.8727   72.8442  221.7267 H   0  0  0  0  0  0  0  0  0  0  0  0
  144.2410   74.4058  221.2564 H   0  0  0  0  0  0  0  0  0  0  0  0
  142.4240   72.8610  220.8820 H   0  0  0  0  0  0  0  0  0  0  0  0
  137.9391   75.8097  221.7696 H   0  0  0  0  0  0  0  0  0  0  0  0
  138.3281   76.9944  222.9919 H   0  0  0  0  0  0  0  0  0  0  0  0
  139.4383   77.0995  220.0718 H   0  0  0  0  0  0  0  0  0  0  0  0
  138.0126   78.0087  220.5480 H   0  0  0  0  0  0  0  0  0  0  0  0
  138.8352   80.2434  220.6066 H   0  0  0  0  0  0  0  0  0  0  0  0
  140.3183   81.9193  221.6726 H   0  0  0  0  0  0  0  0  0  0  0  0
  142.1434   81.2333  223.2227 H   0  0  0  0  0  0  0  0  0  0  0  0
  142.4847   78.7926  223.7098 H   0  0  0  0  0  0  0  0  0  0  0  0
  142.0428   76.4181  222.2888 H   0  0  0  0  0  0  0  0  0  0  0  0
  141.1050   76.6050  223.8274 H   0  0  0  0  0  0  0  0  0  0  0  0
  141.3955   71.8875  224.7217 H   0  0  0  0  0  0  0  0  0  0  0  0
  139.6887   72.2785  225.1322 H   0  0  0  0  0  0  0  0  0  0  0  0
  1  2  2  0
  2  3  1  0
  3  4  2  0
  4  5  1  0
  5  6  2  0
  5  7  1  0
  7  8  1  0
  8  9  1  0
  9 10  1  0
 10 11  2  0
 11 12  1  0
 12 13  1  0
 13 14  1  0
 14 15  1  0
 15 16  1  0
 16 17  1  0
 17 18  1  0
 18 19  1  0
 12 20  2  0
 20 21  1  0
 21 22  1  0
 22 23  1  0
 23 24  1  0
 24 25  1  0
 25 26  2  0
 26 27  1  0
 27 28  2  0
 28 29  1  0
 29 30  2  0
 30 31  1  0
 21 32  2  0
  9 33  1  0
  6  1  1  0
 32 10  1  0
 33  4  1  0
 19 15  1  0
 31 22  1  0
 30 25  1  0
  1 34  1  0
  2 35  1  0
  3 36  1  0
  6 37  1  0
  7 38  1  0
  7 39  1  0
  8 40  1  0
  8 41  1  0
 13 42  1  0
 14 43  1  0
 14 44  1  0
 15 45  1  1
 16 46  1  0
 16 47  1  0
 17 48  1  0
 17 49  1  0
 18 50  1  0
 18 51  1  0
 19 52  1  0
 23 53  1  0
 23 54  1  0
 24 55  1  0
 24 56  1  0
 26 57  1  0
 27 58  1  0
 28 59  1  0
 29 60  1  0
 31 61  1  0
 31 62  1  0
 33 63  1  0
 33 64  1  0
M  END
>  <smiles>  (14) 
c1ccc2c(c1)CCN(c1nc(NCC3CCCN3)nc(N3CCc4ccccc4C3)n1)C2

>  <score_type>  (14) 
oracle

>  <origin>  (14) 
autodockgpu

>  <m_score__min__energy>  (14) 
-9.8200000000000003

>  <m_primary>  (14) 
energy

>  <rmsd>  (14) 
11.153980482536417

>  <m_score__min__rmsd>  (14) 
11.153980482536417

>  <meeko>  (14) 
{"free_energy": -8.23, "intermolecular_energy": -9.72, "internal_energy": -1.9, "cluster_size": 41, "cluster_id": 1, "rank_in_cluster": 41}

>  <energy>  (14) 
-9.66

>  <cluster_rmsd>  (14) 
0.19

>  <cluster>  (14) 
1

$$$$

     RDKit          3D

 64 69  0  0  0  0  0  0  0  0999 V2000
  140.0110   68.7140  228.0420 C   0  0  0  0  0  0  0  0  0  0  0  0
  140.9420   69.7160  228.2370 C   0  0  0  0  0  0  0  0  0  0  0  0
  141.1460   70.7310  227.2950 C   0  0  0  0  0  0  0  0  0  0  0  0
  140.3780   70.7190  226.1230 C   0  0  0  0  0  0  0  0  0  0  0  0
  139.4440   69.7050  225.9390 C   0  0  0  0  0  0  0  0  0  0  0  0
  139.2530   68.7160  226.8710 C   0  0  0  0  0  0  0  0  0  0  0  0
  138.6920   69.7730  224.6490 C   0  0  0  0  0  0  0  0  0  0  0  0
  139.7380   69.9890  223.5440 C   0  0  0  0  0  0  0  0  0  0  0  0
  140.3160   71.3130  223.8060 N   0  0  0  0  0  0  0  0  0  0  0  0
  140.6130   72.0860  222.6550 C   0  0  0  0  0  0  0  0  0  0  0  0
  141.2880   71.6250  221.5920 N   0  0  0  0  0  0  0  0  0  0  0  0
  141.5360   72.4180  220.5030 C   0  0  0  0  0  0  0  0  0  0  0  0
  142.2140   71.9560  219.3740 N   0  0  0  0  0  0  0  0  0  0  0  0
  143.6350   71.6860  219.2950 C   0  0  0  0  0  0  0  0  0  0  0  0
  144.3710   72.4860  220.3620 C   0  0  2  0  0  0  0  0  0  0  0  0
  144.2870   73.9790  220.0360 C   0  0  0  0  0  0  0  0  0  0  0  0
  145.4570   74.5150  220.8320 C   0  0  0  0  0  0  0  0  0  0  0  0
  146.3200   73.3190  221.1550 C   0  0  0  0  0  0  0  0  0  0  0  0
  145.8130   72.3030  220.2480 N   0  0  0  0  0  0  0  0  0  0  0  0
  141.0710   73.6850  220.5500 N   0  0  0  0  0  0  0  0  0  0  0  0
  140.3900   74.1800  221.5950 C   0  0  0  0  0  0  0  0  0  0  0  0
  139.9190   75.5150  221.5830 N   0  0  0  0  0  0  0  0  0  0  0  0
  140.8500   76.5790  221.1620 C   0  0  0  0  0  0  0  0  0  0  0  0
  141.0760   77.3570  222.4760 C   0  0  0  0  0  0  0  0  0  0  0  0
  139.7460   78.0250  222.7340 C   0  0  0  0  0  0  0  0  0  0  0  0
  139.7390   79.3110  223.2140 C   0  0  0  0  0  0  0  0  0  0  0  0
  138.5150   79.9050  223.4330 C   0  0  0  0  0  0  0  0  0  0  0  0
  137.3090   79.2440  223.1820 C   0  0  0  0  0  0  0  0  0  0  0  0
  137.3520   77.9330  222.6910 C   0  0  0  0  0  0  0  0  0  0  0  0
  138.5640   77.3210  222.4670 C   0  0  0  0  0  0  0  0  0  0  0  0
  138.5850   75.9240  221.9480 C   0  0  0  0  0  0  0  0  0  0  0  0
  140.1770   73.3520  222.6380 N   0  0  0  0  0  0  0  0  0  0  0  0
  140.5840   71.8050  225.1360 C   0  0  0  0  0  0  0  0  0  0  0  0
  139.8698   67.9274  228.7979 H   0  0  0  0  0  0  0  0  0  0  0  0
  141.5406   69.7161  229.1598 H   0  0  0  0  0  0  0  0  0  0  0  0
  141.8921   71.5200  227.4707 H   0  0  0  0  0  0  0  0  0  0  0  0
  138.5055   67.9283  226.6954 H   0  0  0  0  0  0  0  0  0  0  0  0
  138.1465   68.8333  224.4773 H   0  0  0  0  0  0  0  0  0  0  0  0
  137.9535   70.5881  224.6620 H   0  0  0  0  0  0  0  0  0  0  0  0
  140.5160   69.2130  223.5938 H   0  0  0  0  0  0  0  0  0  0  0  0
  139.2907   69.9297  222.5408 H   0  0  0  0  0  0  0  0  0  0  0  0
  141.6240   71.7920  218.4990 H   0  0  0  0  0  0  0  0  0  0  0  0
  143.8124   70.6124  219.4559 H   0  0  0  0  0  0  0  0  0  0  0  0
  144.0059   71.9775  218.3013 H   0  0  0  0  0  0  0  0  0  0  0  0
  143.9347   72.1717  221.3216 H   0  0  0  0  0  0  0  0  0  0  0  0
  144.4121   74.1649  218.9591 H   0  0  0  0  0  0  0  0  0  0  0  0
  143.3206   74.4431  220.2822 H   0  0  0  0  0  0  0  0  0  0  0  0
  146.0231   75.2455  220.2354 H   0  0  0  0  0  0  0  0  0  0  0  0
  145.1226   75.0301  221.7446 H   0  0  0  0  0  0  0  0  0  0  0  0
  147.3813   73.5315  220.9589 H   0  0  0  0  0  0  0  0  0  0  0  0
  146.2738   73.0211  222.2129 H   0  0  0  0  0  0  0  0  0  0  0  0
  146.0860   71.3370  220.4940 H   0  0  0  0  0  0  0  0  0  0  0  0
  141.7920   76.1568  220.7820 H   0  0  0  0  0  0  0  0  0  0  0  0
  140.4647   77.2024  220.3417 H   0  0  0  0  0  0  0  0  0  0  0  0
  141.3362   76.6724  223.2967 H   0  0  0  0  0  0  0  0  0  0  0  0
  141.9061   78.0755  222.4070 H   0  0  0  0  0  0  0  0  0  0  0  0
  140.6772   79.8483  223.4167 H   0  0  0  0  0  0  0  0  0  0  0  0
  138.4859   80.9348  223.8186 H   0  0  0  0  0  0  0  0  0  0  0  0
  136.3463   79.7432  223.3663 H   0  0  0  0  0  0  0  0  0  0  0  0
  136.4166   77.3924  222.4843 H   0  0  0  0  0  0  0  0  0  0  0  0
  138.2046   75.2475  222.7275 H   0  0  0  0  0  0  0  0  0  0  0  0
  137.9529   75.8807  221.0488 H   0  0  0  0  0  0  0  0  0  0  0  0
  141.6245   72.1574  225.1924 H   0  0  0  0  0  0  0  0  0  0  0  0
  139.8990   72.6357  225.3612 H   0  0  0  0  0  0  0  0  0  0  0  0
  1  2  2  0
  2  3  1  0
  3  4  2  0
  4  5  1  0
  5  6  2  0
  5  7  1  0
  7  8  1  0
  8  9  1  0
  9 10  1  0
 10 11  2  0
 11 12  1  0
 12 13  1  0
 13 14  1  0
 14 15  1  0
 15 16  1  0
 16 17  1  0
 17 18  1  0
 18 19  1  0
 12 20  2  0
 20 21  1  0
 21 22  1  0
 22 23  1  0
 23 24  1  0
 24 25  1  0
 25 26  2  0
 26 27  1  0
 27 28  2  0
 28 29  1  0
 29 30  2  0
 30 31  1  0
 21 32  2  0
  9 33  1  0
  6  1  1  0
 32 10  1  0
 33  4  1  0
 19 15  1  0
 31 22  1  0
 30 25  1  0
  1 34  1  0
  2 35  1  0
  3 36  1  0
  6 37  1  0
  7 38  1  0
  7 39  1  0
  8 40  1  0
  8 41  1  0
 13 42  1  0
 14 43  1  0
 14 44  1  0
 15 45  1  1
 16 46  1  0
 16 47  1  0
 17 48  1  0
 17 49  1  0
 18 50  1  0
 18 51  1  0
 19 52  1  0
 23 53  1  0
 23 54  1  0
 24 55  1  0
 24 56  1  0
 26 57  1  0
 27 58  1  0
 28 59  1  0
 29 60  1  0
 31 61  1  0
 31 62  1  0
 33 63  1  0
 33 64  1  0
M  END
>  <smiles>  (15) 
c1ccc2c(c1)CCN(c1nc(NCC3CCCN3)nc(N3CCc4ccccc4C3)n1)C2

>  <score_type>  (15) 
oracle

>  <origin>  (15) 
autodockgpu

>  <m_score__min__energy>  (15) 
-9.8200000000000003

>  <m_primary>  (15) 
energy

>  <rmsd>  (15) 
11.202477506864934

>  <m_score__min__rmsd>  (15) 
11.202477506864934

>  <meeko>  (15) 
{"free_energy": -9.79, "intermolecular_energy": -11.28, "internal_energy": -1.21, "cluster_size": 41, "cluster_id": 1, "rank_in_cluster": 2}

>  <energy>  (15) 
-9.63

>  <cluster_rmsd>  (15) 
1.43

>  <cluster>  (15) 
1

$$$$

     RDKit          3D

 64 69  0  0  0  0  0  0  0  0999 V2000
  146.3250   69.1030  218.9430 C   0  0  0  0  0  0  0  0  0  0  0  0
  145.2720   68.2680  219.2580 C   0  0  0  0  0  0  0  0  0  0  0  0
  144.0100   68.7640  219.6040 C   0  0  0  0  0  0  0  0  0  0  0  0
  143.8220   70.1520  219.6280 C   0  0  0  0  0  0  0  0  0  0  0  0
  144.8910   70.9840  219.3090 C   0  0  0  0  0  0  0  0  0  0  0  0
  146.1230   70.4840  218.9700 C   0  0  0  0  0  0  0  0  0  0  0  0
  144.5910   72.4460  219.3840 C   0  0  0  0  0  0  0  0  0  0  0  0
  143.8830   72.6790  220.7280 C   0  0  0  0  0  0  0  0  0  0  0  0
  142.6090   71.9560  220.6290 N   0  0  0  0  0  0  0  0  0  0  0  0
  141.4990   72.5960  221.2350 C   0  0  0  0  0  0  0  0  0  0  0  0
  140.4940   71.9470  221.8410 N   0  0  0  0  0  0  0  0  0  0  0  0
  139.4510   72.6220  222.4180 C   0  0  0  0  0  0  0  0  0  0  0  0
  138.4060   71.9720  223.0770 N   0  0  0  0  0  0  0  0  0  0  0  0
  138.5000   70.6920  223.7500 C   0  0  0  0  0  0  0  0  0  0  0  0
  139.8530   70.5700  224.4370 C   0  0  2  0  0  0  0  0  0  0  0  0
  139.6880   69.8550  225.7800 C   0  0  0  0  0  0  0  0  0  0  0  0
  140.9410   70.2980  226.5010 C   0  0  0  0  0  0  0  0  0  0  0  0
  141.4510   71.5000  225.7430 C   0  0  0  0  0  0  0  0  0  0  0  0
  140.3100   71.8680  224.9200 N   0  0  0  0  0  0  0  0  0  0  0  0
  139.4810   73.9700  222.3490 N   0  0  0  0  0  0  0  0  0  0  0  0
  140.4710   74.6540  221.7530 C   0  0  0  0  0  0  0  0  0  0  0  0
  140.4520   76.0690  221.7200 N   0  0  0  0  0  0  0  0  0  0  0  0
  139.7880   76.7310  220.5810 C   0  0  0  0  0  0  0  0  0  0  0  0
  140.9750   77.3760  219.8360 C   0  0  0  0  0  0  0  0  0  0  0  0
  141.4320   78.4740  220.7670 C   0  0  0  0  0  0  0  0  0  0  0  0
  141.8120   79.6780  220.2260 C   0  0  0  0  0  0  0  0  0  0  0  0
  142.2170   80.6700  221.0930 C   0  0  0  0  0  0  0  0  0  0  0  0
  142.2470   80.4830  222.4780 C   0  0  0  0  0  0  0  0  0  0  0  0
  141.8520   79.2430  222.9970 C   0  0  0  0  0  0  0  0  0  0  0  0
  141.4470   78.2390  222.1480 C   0  0  0  0  0  0  0  0  0  0  0  0
  141.0340   76.9270  222.7230 C   0  0  0  0  0  0  0  0  0  0  0  0
  141.4690   73.9350  221.2020 N   0  0  0  0  0  0  0  0  0  0  0  0
  142.4800   70.6750  219.9770 C   0  0  0  0  0  0  0  0  0  0  0  0
  147.3074   68.6870  218.6750 H   0  0  0  0  0  0  0  0  0  0  0  0
  145.4296   67.1796  219.2364 H   0  0  0  0  0  0  0  0  0  0  0  0
  143.1849   68.0799  219.8514 H   0  0  0  0  0  0  0  0  0  0  0  0
  146.9475   71.1681  218.7207 H   0  0  0  0  0  0  0  0  0  0  0  0
  145.5235   73.0278  219.3401 H   0  0  0  0  0  0  0  0  0  0  0  0
  143.9598   72.7658  218.5418 H   0  0  0  0  0  0  0  0  0  0  0  0
  144.4881   72.2806  221.5557 H   0  0  0  0  0  0  0  0  0  0  0  0
  143.7308   73.7496  220.9296 H   0  0  0  0  0  0  0  0  0  0  0  0
  137.4620   72.4700  223.0770 H   0  0  0  0  0  0  0  0  0  0  0  0
  137.7004   70.6147  224.5014 H   0  0  0  0  0  0  0  0  0  0  0  0
  138.3931   69.8840  223.0113 H   0  0  0  0  0  0  0  0  0  0  0  0
  140.5138   70.0835  223.7044 H   0  0  0  0  0  0  0  0  0  0  0  0
  138.7808   70.1878  226.3056 H   0  0  0  0  0  0  0  0  0  0  0  0
  139.5732   68.7639  225.7008 H   0  0  0  0  0  0  0  0  0  0  0  0
  140.7078   70.5718  227.5405 H   0  0  0  0  0  0  0  0  0  0  0  0
  141.6917   69.4948  226.5372 H   0  0  0  0  0  0  0  0  0  0  0  0
  141.7240   72.3150  226.4294 H   0  0  0  0  0  0  0  0  0  0  0  0
  142.3608   71.2941  225.1601 H   0  0  0  0  0  0  0  0  0  0  0  0
  140.5380   72.4990  224.1330 H   0  0  0  0  0  0  0  0  0  0  0  0
  139.2678   76.0005  219.9440 H   0  0  0  0  0  0  0  0  0  0  0  0
  139.0134   77.4518  220.8818 H   0  0  0  0  0  0  0  0  0  0  0  0
  141.7784   76.6431  219.6704 H   0  0  0  0  0  0  0  0  0  0  0  0
  140.6983   77.7512  218.8397 H   0  0  0  0  0  0  0  0  0  0  0  0
  141.7937   79.8447  219.1389 H   0  0  0  0  0  0  0  0  0  0  0  0
  142.5271   81.6417  220.6811 H   0  0  0  0  0  0  0  0  0  0  0  0
  142.5740   81.2929  223.1467 H   0  0  0  0  0  0  0  0  0  0  0  0
  141.8657   79.0721  224.0836 H   0  0  0  0  0  0  0  0  0  0  0  0
  141.9177   76.4298  223.1495 H   0  0  0  0  0  0  0  0  0  0  0  0
  140.2767   77.1136  223.4987 H   0  0  0  0  0  0  0  0  0  0  0  0
  141.9779   69.9691  220.6549 H   0  0  0  0  0  0  0  0  0  0  0  0
  141.8861   70.7930  219.0587 H   0  0  0  0  0  0  0  0  0  0  0  0
  1  2  2  0
  2  3  1  0
  3  4  2  0
  4  5  1  0
  5  6  2  0
  5  7  1  0
  7  8  1  0
  8  9  1  0
  9 10  1  0
 10 11  2  0
 11 12  1  0
 12 13  1  0
 13 14  1  0
 14 15  1  0
 15 16  1  0
 16 17  1  0
 17 18  1  0
 18 19  1  0
 12 20  2  0
 20 21  1  0
 21 22  1  0
 22 23  1  0
 23 24  1  0
 24 25  1  0
 25 26  2  0
 26 27  1  0
 27 28  2  0
 28 29  1  0
 29 30  2  0
 30 31  1  0
 21 32  2  0
  9 33  1  0
  6  1  1  0
 32 10  1  0
 33  4  1  0
 19 15  1  0
 31 22  1  0
 30 25  1  0
  1 34  1  0
  2 35  1  0
  3 36  1  0
  6 37  1  0
  7 38  1  0
  7 39  1  0
  8 40  1  0
  8 41  1  0
 13 42  1  0
 14 43  1  0
 14 44  1  0
 15 45  1  6
 16 46  1  0
 16 47  1  0
 17 48  1  0
 17 49  1  0
 18 50  1  0
 18 51  1  0
 19 52  1  0
 23 53  1  0
 23 54  1  0
 24 55  1  0
 24 56  1  0
 26 57  1  0
 27 58  1  0
 28 59  1  0
 29 60  1  0
 31 61  1  0
 31 62  1  0
 33 63  1  0
 33 64  1  0
M  END
>  <smiles>  (16) 
c1ccc2c(c1)CCN(c1nc(NCC3CCCN3)nc(N3CCc4ccccc4C3)n1)C2

>  <score_type>  (16) 
oracle

>  <origin>  (16) 
autodockgpu

>  <m_score__min__energy>  (16) 
-9.8200000000000003

>  <m_primary>  (16) 
energy

>  <rmsd>  (16) 
10.082972541266008

>  <m_score__min__rmsd>  (16) 
10.082972541266008

>  <meeko>  (16) 
{"free_energy": -8.54, "intermolecular_energy": -10.03, "internal_energy": -1.62, "cluster_size": 4, "cluster_id": 2, "rank_in_cluster": 4}

>  <energy>  (16) 
-9.57

>  <cluster_rmsd>  (16) 
0.5

>  <cluster>  (16) 
1

$$$$

     RDKit          3D

 64 69  0  0  0  0  0  0  0  0999 V2000
  140.0800   67.8190  225.9020 C   0  0  0  0  0  0  0  0  0  0  0  0
  141.0400   68.6790  226.3970 C   0  0  0  0  0  0  0  0  0  0  0  0
  141.1560   69.9990  225.9440 C   0  0  0  0  0  0  0  0  0  0  0  0
  140.2670   70.4490  224.9600 C   0  0  0  0  0  0  0  0  0  0  0  0
  139.3040   69.5720  224.4680 C   0  0  0  0  0  0  0  0  0  0  0  0
  139.2000   68.2810  224.9220 C   0  0  0  0  0  0  0  0  0  0  0  0
  138.4200   70.1430  223.4080 C   0  0  0  0  0  0  0  0  0  0  0  0
  139.3450   70.8300  222.3900 C   0  0  0  0  0  0  0  0  0  0  0  0
  139.9660   71.9450  223.1160 N   0  0  0  0  0  0  0  0  0  0  0  0
  140.1490   73.1330  222.3650 C   0  0  0  0  0  0  0  0  0  0  0  0
  139.2830   74.1560  222.3500 N   0  0  0  0  0  0  0  0  0  0  0  0
  139.5200   75.2850  221.6110 C   0  0  0  0  0  0  0  0  0  0  0  0
  138.6480   76.3740  221.5970 N   0  0  0  0  0  0  0  0  0  0  0  0
  139.0380   77.7650  221.4820 C   0  0  0  0  0  0  0  0  0  0  0  0
  139.9960   78.1260  222.6080 C   0  0  2  0  0  0  0  0  0  0  0  0
  139.9260   79.6290  222.8840 C   0  0  0  0  0  0  0  0  0  0  0  0
  141.2480   79.8580  223.5840 C   0  0  0  0  0  0  0  0  0  0  0  0
  142.0970   78.6500  223.2680 C   0  0  0  0  0  0  0  0  0  0  0  0
  141.3810   78.0350  222.1620 N   0  0  0  0  0  0  0  0  0  0  0  0
  140.6670   75.3180  220.8970 N   0  0  0  0  0  0  0  0  0  0  0  0
  141.5580   74.3150  220.8890 C   0  0  0  0  0  0  0  0  0  0  0  0
  142.7480   74.4120  220.1280 N   0  0  0  0  0  0  0  0  0  0  0  0
  143.1980   75.7530  219.7080 C   0  0  0  0  0  0  0  0  0  0  0  0
  142.9940   75.7050  218.1790 C   0  0  0  0  0  0  0  0  0  0  0  0
  144.0430   74.7280  217.7040 C   0  0  0  0  0  0  0  0  0  0  0  0
  144.7160   75.0020  216.5390 C   0  0  0  0  0  0  0  0  0  0  0  0
  145.6770   74.1030  216.1280 C   0  0  0  0  0  0  0  0  0  0  0  0
  145.9750   72.9460  216.8550 C   0  0  0  0  0  0  0  0  0  0  0  0
  145.2710   72.6980  218.0400 C   0  0  0  0  0  0  0  0  0  0  0  0
  144.3060   73.5820  218.4660 C   0  0  0  0  0  0  0  0  0  0  0  0
  143.5670   73.2950  219.7280 C   0  0  0  0  0  0  0  0  0  0  0  0
  141.2690   73.2300  221.6360 N   0  0  0  0  0  0  0  0  0  0  0  0
  140.3810   71.8520  224.4950 C   0  0  0  0  0  0  0  0  0  0  0  0
  140.0098   66.7862  226.2740 H   0  0  0  0  0  0  0  0  0  0  0  0
  141.7340   68.3167  227.1698 H   0  0  0  0  0  0  0  0  0  0  0  0
  141.9283   70.6676  226.3521 H   0  0  0  0  0  0  0  0  0  0  0  0
  138.4263   67.6132  224.5152 H   0  0  0  0  0  0  0  0  0  0  0  0
  137.8463   69.3416  222.9195 H   0  0  0  0  0  0  0  0  0  0  0  0
  137.6986   70.8559  223.8338 H   0  0  0  0  0  0  0  0  0  0  0  0
  140.1131   70.1280  222.0332 H   0  0  0  0  0  0  0  0  0  0  0  0
  138.7921   71.1765  221.5044 H   0  0  0  0  0  0  0  0  0  0  0  0
  137.6070   76.1510  221.6800 H   0  0  0  0  0  0  0  0  0  0  0  0
  139.5348   77.9262  220.5139 H   0  0  0  0  0  0  0  0  0  0  0  0
  138.1425   78.4003  221.5491 H   0  0  0  0  0  0  0  0  0  0  0  0
  139.7300   77.4648  223.4459 H   0  0  0  0  0  0  0  0  0  0  0  0
  139.8576   80.2079  221.9512 H   0  0  0  0  0  0  0  0  0  0  0  0
  139.0460   79.9420  223.4650 H   0  0  0  0  0  0  0  0  0  0  0  0
  141.7280   80.7727  223.2059 H   0  0  0  0  0  0  0  0  0  0  0  0
  141.1145   79.9859  224.6684 H   0  0  0  0  0  0  0  0  0  0  0  0
  143.1124   78.9469  222.9667 H   0  0  0  0  0  0  0  0  0  0  0  0
  142.2340   77.9766  224.1269 H   0  0  0  0  0  0  0  0  0  0  0  0
  141.6490   77.0550  221.9740 H   0  0  0  0  0  0  0  0  0  0  0  0
  142.5834   76.5413  220.1672 H   0  0  0  0  0  0  0  0  0  0  0  0
  144.2308   75.9846  220.0073 H   0  0  0  0  0  0  0  0  0  0  0  0
  141.9842   75.3471  217.9298 H   0  0  0  0  0  0  0  0  0  0  0  0
  143.0898   76.6938  217.7066 H   0  0  0  0  0  0  0  0  0  0  0  0
  144.4961   75.9072  215.9540 H   0  0  0  0  0  0  0  0  0  0  0  0
  146.2279   74.3024  215.1970 H   0  0  0  0  0  0  0  0  0  0  0  0
  146.7465   72.2452  216.5033 H   0  0  0  0  0  0  0  0  0  0  0  0
  145.4895   71.7961  218.6306 H   0  0  0  0  0  0  0  0  0  0  0  0
  142.9226   72.4171  219.5728 H   0  0  0  0  0  0  0  0  0  0  0  0
  144.3033   73.1056  220.5229 H   0  0  0  0  0  0  0  0  0  0  0  0
  141.4262   72.1828  224.5849 H   0  0  0  0  0  0  0  0  0  0  0  0
  139.7350   72.4931  225.1128 H   0  0  0  0  0  0  0  0  0  0  0  0
  1  2  2  0
  2  3  1  0
  3  4  2  0
  4  5  1  0
  5  6  2  0
  5  7  1  0
  7  8  1  0
  8  9  1  0
  9 10  1  0
 10 11  2  0
 11 12  1  0
 12 13  1  0
 13 14  1  0
 14 15  1  0
 15 16  1  0
 16 17  1  0
 17 18  1  0
 18 19  1  0
 12 20  2  0
 20 21  1  0
 21 22  1  0
 22 23  1  0
 23 24  1  0
 24 25  1  0
 25 26  2  0
 26 27  1  0
 27 28  2  0
 28 29  1  0
 29 30  2  0
 30 31  1  0
 21 32  2  0
  9 33  1  0
  6  1  1  0
 32 10  1  0
 33  4  1  0
 19 15  1  0
 31 22  1  0
 30 25  1  0
  1 34  1  0
  2 35  1  0
  3 36  1  0
  6 37  1  0
  7 38  1  0
  7 39  1  0
  8 40  1  0
  8 41  1  0
 13 42  1  0
 14 43  1  0
 14 44  1  0
 15 45  1  1
 16 46  1  0
 16 47  1  0
 17 48  1  0
 17 49  1  0
 18 50  1  0
 18 51  1  0
 19 52  1  0
 23 53  1  0
 23 54  1  0
 24 55  1  0
 24 56  1  0
 26 57  1  0
 27 58  1  0
 28 59  1  0
 29 60  1  0
 31 61  1  0
 31 62  1  0
 33 63  1  0
 33 64  1  0
M  END
>  <smiles>  (17) 
c1ccc2c(c1)CCN(c1nc(NCC3CCCN3)nc(N3CCc4ccccc4C3)n1)C2

>  <score_type>  (17) 
oracle

>  <origin>  (17) 
autodockgpu

>  <m_score__min__energy>  (17) 
-9.8200000000000003

>  <m_primary>  (17) 
energy

>  <rmsd>  (17) 
10.646041911259914

>  <m_score__min__rmsd>  (17) 
10.646041911259914

>  <meeko>  (17) 
{"free_energy": -8.22, "intermolecular_energy": -9.71, "internal_energy": -1.74, "cluster_size": 1, "cluster_id": 4, "rank_in_cluster": 1}

>  <energy>  (17) 
-9.5

>  <cluster_rmsd>  (17) 
1.47

>  <cluster>  (17) 
1

$$$$

     RDKit          3D

 64 69  0  0  0  0  0  0  0  0999 V2000
  139.7450   68.4190  227.2370 C   0  0  0  0  0  0  0  0  0  0  0  0
  140.8190   69.2510  227.4840 C   0  0  0  0  0  0  0  0  0  0  0  0
  141.1120   70.3460  226.6620 C   0  0  0  0  0  0  0  0  0  0  0  0
  140.2840   70.5940  225.5600 C   0  0  0  0  0  0  0  0  0  0  0  0
  139.2050   69.7480  225.3220 C   0  0  0  0  0  0  0  0  0  0  0  0
  138.9280   68.6790  226.1360 C   0  0  0  0  0  0  0  0  0  0  0  0
  138.3980   70.0880  224.1110 C   0  0  0  0  0  0  0  0  0  0  0  0
  139.3990   70.3080  222.9650 C   0  0  0  0  0  0  0  0  0  0  0  0
  140.1740   71.4950  223.3450 N   0  0  0  0  0  0  0  0  0  0  0  0
  140.5120   72.3670  222.2800 C   0  0  0  0  0  0  0  0  0  0  0  0
  141.2130   71.9990  221.1980 N   0  0  0  0  0  0  0  0  0  0  0  0
  141.5000   72.8860  220.1950 C   0  0  0  0  0  0  0  0  0  0  0  0
  142.2060   72.5220  219.0470 N   0  0  0  0  0  0  0  0  0  0  0  0
  143.5380   71.9540  219.0210 C   0  0  0  0  0  0  0  0  0  0  0  0
  144.3690   72.5370  220.1560 C   0  0  2  0  0  0  0  0  0  0  0  0
  144.4240   74.0610  220.0260 C   0  0  0  0  0  0  0  0  0  0  0  0
  145.6550   74.3780  220.8450 C   0  0  0  0  0  0  0  0  0  0  0  0
  146.4050   73.0750  220.9850 C   0  0  0  0  0  0  0  0  0  0  0  0
  145.7840   72.2370  219.9730 N   0  0  0  0  0  0  0  0  0  0  0  0
  141.0460   74.1490  220.3460 N   0  0  0  0  0  0  0  0  0  0  0  0
  140.3400   74.5540  221.4140 C   0  0  0  0  0  0  0  0  0  0  0  0
  139.8820   75.8900  221.5120 N   0  0  0  0  0  0  0  0  0  0  0  0
  140.8280   76.9760  221.1920 C   0  0  0  0  0  0  0  0  0  0  0  0
  141.0500   77.6360  222.5690 C   0  0  0  0  0  0  0  0  0  0  0  0
  139.7250   78.2930  222.8740 C   0  0  0  0  0  0  0  0  0  0  0  0
  139.7270   79.5330  223.4630 C   0  0  0  0  0  0  0  0  0  0  0  0
  138.5070   80.1200  223.7230 C   0  0  0  0  0  0  0  0  0  0  0  0
  137.2960   79.4950  223.4070 C   0  0  0  0  0  0  0  0  0  0  0  0
  137.3300   78.2310  222.8050 C   0  0  0  0  0  0  0  0  0  0  0  0
  138.5380   77.6270  222.5390 C   0  0  0  0  0  0  0  0  0  0  0  0
  138.5490   76.2800  221.9010 C   0  0  0  0  0  0  0  0  0  0  0  0
  140.0890   73.6350  222.3690 N   0  0  0  0  0  0  0  0  0  0  0  0
  140.5860   71.7650  224.7020 C   0  0  0  0  0  0  0  0  0  0  0  0
  139.5367   67.5646  227.8978 H   0  0  0  0  0  0  0  0  0  0  0  0
  141.4633   69.0476  228.3520 H   0  0  0  0  0  0  0  0  0  0  0  0
  141.9727   70.9965  226.8768 H   0  0  0  0  0  0  0  0  0  0  0  0
  138.0661   68.0300  225.9218 H   0  0  0  0  0  0  0  0  0  0  0  0
  137.7152   69.2613  223.8653 H   0  0  0  0  0  0  0  0  0  0  0  0
  137.7855   70.9857  224.2811 H   0  0  0  0  0  0  0  0  0  0  0  0
  140.0598   69.4351  222.8587 H   0  0  0  0  0  0  0  0  0  0  0  0
  138.8906   70.4441  221.9991 H   0  0  0  0  0  0  0  0  0  0  0  0
  141.7120   72.6820  218.1140 H   0  0  0  0  0  0  0  0  0  0  0  0
  143.4720   70.8624  219.1399 H   0  0  0  0  0  0  0  0  0  0  0  0
  144.0166   72.1936  218.0600 H   0  0  0  0  0  0  0  0  0  0  0  0
  143.9231   72.1430  221.0811 H   0  0  0  0  0  0  0  0  0  0  0  0
  144.5451   74.3726  218.9780 H   0  0  0  0  0  0  0  0  0  0  0  0
  143.5121   74.5772  220.3608 H   0  0  0  0  0  0  0  0  0  0  0  0
  146.2768   75.1239  220.3283 H   0  0  0  0  0  0  0  0  0  0  0  0
  145.3902   74.7993  221.8260 H   0  0  0  0  0  0  0  0  0  0  0  0
  147.4777   73.2114  220.7831 H   0  0  0  0  0  0  0  0  0  0  0  0
  146.3518   72.6480  221.9973 H   0  0  0  0  0  0  0  0  0  0  0  0
  145.9680   71.2260  220.0860 H   0  0  0  0  0  0  0  0  0  0  0  0
  141.7690   76.5774  220.7851 H   0  0  0  0  0  0  0  0  0  0  0  0
  140.4565   77.6717  220.4252 H   0  0  0  0  0  0  0  0  0  0  0  0
  141.2968   76.8809  223.3298 H   0  0  0  0  0  0  0  0  0  0  0  0
  141.8872   78.3495  222.5677 H   0  0  0  0  0  0  0  0  0  0  0  0
  140.6689   80.0404  223.7185 H   0  0  0  0  0  0  0  0  0  0  0  0
  138.4850   81.1134  224.1949 H   0  0  0  0  0  0  0  0  0  0  0  0
  136.3367   79.9863  223.6269 H   0  0  0  0  0  0  0  0  0  0  0  0
  136.3910   77.7206  222.5446 H   0  0  0  0  0  0  0  0  0  0  0  0
  138.1552   75.5426  222.6160 H   0  0  0  0  0  0  0  0  0  0  0  0
  137.9239   76.3214  220.9968 H   0  0  0  0  0  0  0  0  0  0  0  0
  141.6677   71.9638  224.7227 H   0  0  0  0  0  0  0  0  0  0  0  0
  140.0410   72.6427  225.0797 H   0  0  0  0  0  0  0  0  0  0  0  0
  1  2  2  0
  2  3  1  0
  3  4  2  0
  4  5  1  0
  5  6  2  0
  5  7  1  0
  7  8  1  0
  8  9  1  0
  9 10  1  0
 10 11  2  0
 11 12  1  0
 12 13  1  0
 13 14  1  0
 14 15  1  0
 15 16  1  0
 16 17  1  0
 17 18  1  0
 18 19  1  0
 12 20  2  0
 20 21  1  0
 21 22  1  0
 22 23  1  0
 23 24  1  0
 24 25  1  0
 25 26  2  0
 26 27  1  0
 27 28  2  0
 28 29  1  0
 29 30  2  0
 30 31  1  0
 21 32  2  0
  9 33  1  0
  6  1  1  0
 32 10  1  0
 33  4  1  0
 19 15  1  0
 31 22  1  0
 30 25  1  0
  1 34  1  0
  2 35  1  0
  3 36  1  0
  6 37  1  0
  7 38  1  0
  7 39  1  0
  8 40  1  0
  8 41  1  0
 13 42  1  0
 14 43  1  0
 14 44  1  0
 15 45  1  1
 16 46  1  0
 16 47  1  0
 17 48  1  0
 17 49  1  0
 18 50  1  0
 18 51  1  0
 19 52  1  0
 23 53  1  0
 23 54  1  0
 24 55  1  0
 24 56  1  0
 26 57  1  0
 27 58  1  0
 28 59  1  0
 29 60  1  0
 31 61  1  0
 31 62  1  0
 33 63  1  0
 33 64  1  0
M  END
>  <smiles>  (18) 
c1ccc2c(c1)CCN(c1nc(NCC3CCCN3)nc(N3CCc4ccccc4C3)n1)C2

>  <score_type>  (18) 
oracle

>  <origin>  (18) 
autodockgpu

>  <m_score__min__energy>  (18) 
-9.8200000000000003

>  <m_primary>  (18) 
energy

>  <rmsd>  (18) 
10.959966315936754

>  <m_score__min__rmsd>  (18) 
10.959966315936754

>  <meeko>  (18) 
{"free_energy": -9.57, "intermolecular_energy": -11.06, "internal_energy": -1.15, "cluster_size": 41, "cluster_id": 1, "rank_in_cluster": 16}

>  <energy>  (18) 
-9.31

>  <cluster_rmsd>  (18) 
0.94

>  <cluster>  (18) 
1

$$$$

     RDKit          3D

 64 69  0  0  0  0  0  0  0  0999 V2000
  139.6160   68.6630  227.1350 C   0  0  0  0  0  0  0  0  0  0  0  0
  140.7560   69.4140  227.3430 C   0  0  0  0  0  0  0  0  0  0  0  0
  141.1140   70.4680  226.4940 C   0  0  0  0  0  0  0  0  0  0  0  0
  140.2840   70.7610  225.4050 C   0  0  0  0  0  0  0  0  0  0  0  0
  139.1370   69.9970  225.2060 C   0  0  0  0  0  0  0  0  0  0  0  0
  138.7970   68.9660  226.0460 C   0  0  0  0  0  0  0  0  0  0  0  0
  138.3320   70.3770  224.0060 C   0  0  0  0  0  0  0  0  0  0  0  0
  139.3210   70.4980  222.8360 C   0  0  0  0  0  0  0  0  0  0  0  0
  140.1930   71.6280  223.1760 N   0  0  0  0  0  0  0  0  0  0  0  0
  140.5740   72.4530  222.0880 C   0  0  0  0  0  0  0  0  0  0  0  0
  141.0400   71.9900  220.9190 N   0  0  0  0  0  0  0  0  0  0  0  0
  141.3830   72.8370  219.8990 C   0  0  0  0  0  0  0  0  0  0  0  0
  141.8470   72.3810  218.6640 N   0  0  0  0  0  0  0  0  0  0  0  0
  143.2370   72.1790  218.3090 C   0  0  0  0  0  0  0  0  0  0  0  0
  144.1180   73.1110  219.1280 C   0  0  2  0  0  0  0  0  0  0  0  0
  145.5900   72.7490  218.9160 C   0  0  0  0  0  0  0  0  0  0  0  0
  146.2200   73.3660  220.1460 C   0  0  0  0  0  0  0  0  0  0  0  0
  145.0870   73.6120  221.1120 C   0  0  0  0  0  0  0  0  0  0  0  0
  144.0080   72.8140  220.5510 N   0  0  0  0  0  0  0  0  0  0  0  0
  141.2290   74.1600  220.1250 N   0  0  0  0  0  0  0  0  0  0  0  0
  140.7640   74.6600  221.2800 C   0  0  0  0  0  0  0  0  0  0  0  0
  140.6150   76.0570  221.4550 N   0  0  0  0  0  0  0  0  0  0  0  0
  140.4860   76.9000  220.2510 C   0  0  0  0  0  0  0  0  0  0  0  0
  141.8090   77.6940  220.2600 C   0  0  0  0  0  0  0  0  0  0  0  0
  141.6690   78.6150  221.4490 C   0  0  0  0  0  0  0  0  0  0  0  0
  142.1280   79.9050  221.3380 C   0  0  0  0  0  0  0  0  0  0  0  0
  141.9820   80.7310  222.4310 C   0  0  0  0  0  0  0  0  0  0  0  0
  141.3900   80.2970  223.6210 C   0  0  0  0  0  0  0  0  0  0  0  0
  140.9310   78.9760  223.7000 C   0  0  0  0  0  0  0  0  0  0  0  0
  141.0700   78.1340  222.6210 C   0  0  0  0  0  0  0  0  0  0  0  0
  140.5770   76.7310  222.7290 C   0  0  0  0  0  0  0  0  0  0  0  0
  140.4440   73.7760  222.2470 N   0  0  0  0  0  0  0  0  0  0  0  0
  140.6550   71.8890  224.5190 C   0  0  0  0  0  0  0  0  0  0  0  0
  139.3574   67.8392  227.8165 H   0  0  0  0  0  0  0  0  0  0  0  0
  141.4020   69.1770  228.2012 H   0  0  0  0  0  0  0  0  0  0  0  0
  142.0271   71.0530  226.6783 H   0  0  0  0  0  0  0  0  0  0  0  0
  137.8836   68.3814  225.8619 H   0  0  0  0  0  0  0  0  0  0  0  0
  137.5820   69.6016  223.7907 H   0  0  0  0  0  0  0  0  0  0  0  0
  137.7945   71.3224  224.1713 H   0  0  0  0  0  0  0  0  0  0  0  0
  139.9102   69.5748  222.7335 H   0  0  0  0  0  0  0  0  0  0  0  0
  138.8033   70.6554  221.8783 H   0  0  0  0  0  0  0  0  0  0  0  0
  141.1050   72.1660  217.9270 H   0  0  0  0  0  0  0  0  0  0  0  0
  143.5186   71.1357  218.5145 H   0  0  0  0  0  0  0  0  0  0  0  0
  143.3742   72.3957  217.2393 H   0  0  0  0  0  0  0  0  0  0  0  0
  143.8206   74.1297  218.8383 H   0  0  0  0  0  0  0  0  0  0  0  0
  145.7382   71.6593  218.8898 H   0  0  0  0  0  0  0  0  0  0  0  0
  146.0115   73.1045  217.9642 H   0  0  0  0  0  0  0  0  0  0  0  0
  146.9552   72.6762  220.5862 H   0  0  0  0  0  0  0  0  0  0  0  0
  146.7527   74.2972  219.9029 H   0  0  0  0  0  0  0  0  0  0  0  0
  145.3479   73.2701  222.1244 H   0  0  0  0  0  0  0  0  0  0  0  0
  144.8308   74.6761  221.2217 H   0  0  0  0  0  0  0  0  0  0  0  0
  143.0690   73.0550  220.9110 H   0  0  0  0  0  0  0  0  0  0  0  0
  140.3965   76.2859  219.3428 H   0  0  0  0  0  0  0  0  0  0  0  0
  139.5901   77.5382  220.2549 H   0  0  0  0  0  0  0  0  0  0  0  0
  142.6694   77.0203  220.3855 H   0  0  0  0  0  0  0  0  0  0  0  0
  141.9853   78.2372  219.3199 H   0  0  0  0  0  0  0  0  0  0  0  0
  142.5954   80.2655  220.4098 H   0  0  0  0  0  0  0  0  0  0  0  0
  142.3437   81.7678  222.3652 H   0  0  0  0  0  0  0  0  0  0  0  0
  141.2868   80.9791  224.4778 H   0  0  0  0  0  0  0  0  0  0  0  0
  140.4594   78.6119  224.6247 H   0  0  0  0  0  0  0  0  0  0  0  0
  141.2110   76.1834  223.4419 H   0  0  0  0  0  0  0  0  0  0  0  0
  139.5327   76.7582  223.0736 H   0  0  0  0  0  0  0  0  0  0  0  0
  141.7489   72.0042  224.5130 H   0  0  0  0  0  0  0  0  0  0  0  0
  140.1873   72.8124  224.8912 H   0  0  0  0  0  0  0  0  0  0  0  0
  1  2  2  0
  2  3  1  0
  3  4  2  0
  4  5  1  0
  5  6  2  0
  5  7  1  0
  7  8  1  0
  8  9  1  0
  9 10  1  0
 10 11  2  0
 11 12  1  0
 12 13  1  0
 13 14  1  0
 14 15  1  0
 15 16  1  0
 16 17  1  0
 17 18  1  0
 18 19  1  0
 12 20  2  0
 20 21  1  0
 21 22  1  0
 22 23  1  0
 23 24  1  0
 24 25  1  0
 25 26  2  0
 26 27  1  0
 27 28  2  0
 28 29  1  0
 29 30  2  0
 30 31  1  0
 21 32  2  0
  9 33  1  0
  6  1  1  0
 32 10  1  0
 33  4  1  0
 19 15  1  0
 31 22  1  0
 30 25  1  0
  1 34  1  0
  2 35  1  0
  3 36  1  0
  6 37  1  0
  7 38  1  0
  7 39  1  0
  8 40  1  0
  8 41  1  0
 13 42  1  0
 14 43  1  0
 14 44  1  0
 15 45  1  1
 16 46  1  0
 16 47  1  0
 17 48  1  0
 17 49  1  0
 18 50  1  0
 18 51  1  0
 19 52  1  0
 23 53  1  0
 23 54  1  0
 24 55  1  0
 24 56  1  0
 26 57  1  0
 27 58  1  0
 28 59  1  0
 29 60  1  0
 31 61  1  0
 31 62  1  0
 33 63  1  0
 33 64  1  0
M  END
>  <smiles>  (19) 
c1ccc2c(c1)CCN(c1nc(NCC3CCCN3)nc(N3CCc4ccccc4C3)n1)C2

>  <score_type>  (19) 
oracle

>  <origin>  (19) 
autodockgpu

>  <m_score__min__energy>  (19) 
-9.8200000000000003

>  <m_primary>  (19) 
energy

>  <rmsd>  (19) 
10.760410817631568

>  <m_score__min__rmsd>  (19) 
10.760410817631568

>  <meeko>  (19) 
{"free_energy": -9.09, "intermolecular_energy": -10.58, "internal_energy": -1.95, "cluster_size": 41, "cluster_id": 1, "rank_in_cluster": 25}

>  <energy>  (19) 
-9.19

>  <cluster_rmsd>  (19) 
1.38

>  <cluster>  (19) 
1

$$$$

     RDKit          3D

 64 69  0  0  0  0  0  0  0  0999 V2000
  139.6120   68.8180  227.6610 C   0  0  0  0  0  0  0  0  0  0  0  0
  140.6590   69.6910  227.8810 C   0  0  0  0  0  0  0  0  0  0  0  0
  140.9980   70.6890  226.9600 C   0  0  0  0  0  0  0  0  0  0  0  0
  140.2460   70.7960  225.7840 C   0  0  0  0  0  0  0  0  0  0  0  0
  139.1930   69.9110  225.5730 C   0  0  0  0  0  0  0  0  0  0  0  0
  138.8710   68.9370  226.4850 C   0  0  0  0  0  0  0  0  0  0  0  0
  138.4670   70.0970  224.2800 C   0  0  0  0  0  0  0  0  0  0  0  0
  139.5420   70.2000  223.1860 C   0  0  0  0  0  0  0  0  0  0  0  0
  140.2790   71.4360  223.4780 N   0  0  0  0  0  0  0  0  0  0  0  0
  140.6820   72.1860  222.3440 C   0  0  0  0  0  0  0  0  0  0  0  0
  141.3070   71.6650  221.2790 N   0  0  0  0  0  0  0  0  0  0  0  0
  141.6630   72.4400  220.2070 C   0  0  0  0  0  0  0  0  0  0  0  0
  142.2920   71.9180  219.0760 N   0  0  0  0  0  0  0  0  0  0  0  0
  143.7200   71.7270  218.9190 C   0  0  0  0  0  0  0  0  0  0  0  0
  144.4560   72.3630  220.0890 C   0  0  2  0  0  0  0  0  0  0  0  0
  144.4430   73.8870  219.9410 C   0  0  0  0  0  0  0  0  0  0  0  0
  145.6100   74.2740  220.8210 C   0  0  0  0  0  0  0  0  0  0  0  0
  146.4150   73.0130  221.0200 C   0  0  0  0  0  0  0  0  0  0  0  0
  145.8930   72.1330  219.9870 N   0  0  0  0  0  0  0  0  0  0  0  0
  141.3550   73.7530  220.2730 N   0  0  0  0  0  0  0  0  0  0  0  0
  140.7270   74.3100  221.3220 C   0  0  0  0  0  0  0  0  0  0  0  0
  140.4220   75.6930  221.3290 N   0  0  0  0  0  0  0  0  0  0  0  0
  140.6700   76.4680  220.0990 C   0  0  0  0  0  0  0  0  0  0  0  0
  141.8390   77.3850  220.5170 C   0  0  0  0  0  0  0  0  0  0  0  0
  141.2130   78.3380  221.5090 C   0  0  0  0  0  0  0  0  0  0  0  0
  141.5830   79.6600  221.4730 C   0  0  0  0  0  0  0  0  0  0  0  0
  140.9930   80.5140  222.3790 C   0  0  0  0  0  0  0  0  0  0  0  0
  140.0480   80.0750  223.3120 C   0  0  0  0  0  0  0  0  0  0  0  0
  139.6920   78.7200  223.3200 C   0  0  0  0  0  0  0  0  0  0  0  0
  140.2710   77.8500  222.4240 C   0  0  0  0  0  0  0  0  0  0  0  0
  139.8790   76.4130  222.4540 C   0  0  0  0  0  0  0  0  0  0  0  0
  140.4030   73.4960  222.3470 N   0  0  0  0  0  0  0  0  0  0  0  0
  140.5950   71.8660  224.8190 C   0  0  0  0  0  0  0  0  0  0  0  0
  139.3663   68.0417  228.4006 H   0  0  0  0  0  0  0  0  0  0  0  0
  141.2442   69.5994  228.8079 H   0  0  0  0  0  0  0  0  0  0  0  0
  141.8363   71.3738  227.1558 H   0  0  0  0  0  0  0  0  0  0  0  0
  138.0320   68.2530  226.2894 H   0  0  0  0  0  0  0  0  0  0  0  0
  137.8092   69.2368  224.0865 H   0  0  0  0  0  0  0  0  0  0  0  0
  137.8367   70.9982  224.3041 H   0  0  0  0  0  0  0  0  0  0  0  0
  140.2160   69.3316  223.2259 H   0  0  0  0  0  0  0  0  0  0  0  0
  139.1002   70.2157  222.1788 H   0  0  0  0  0  0  0  0  0  0  0  0
  141.6570   71.6410  218.2640 H   0  0  0  0  0  0  0  0  0  0  0  0
  143.9434   70.6504  218.8886 H   0  0  0  0  0  0  0  0  0  0  0  0
  144.0492   72.2000  217.9821 H   0  0  0  0  0  0  0  0  0  0  0  0
  143.9795   71.9572  220.9936 H   0  0  0  0  0  0  0  0  0  0  0  0
  144.6059   74.1926  218.8969 H   0  0  0  0  0  0  0  0  0  0  0  0
  143.4899   74.3608  220.2186 H   0  0  0  0  0  0  0  0  0  0  0  0
  146.2215   75.0444  220.3285 H   0  0  0  0  0  0  0  0  0  0  0  0
  145.2709   74.6919  221.7803 H   0  0  0  0  0  0  0  0  0  0  0  0
  147.4890   73.2012  220.8750 H   0  0  0  0  0  0  0  0  0  0  0  0
  146.3276   72.5953  222.0338 H   0  0  0  0  0  0  0  0  0  0  0  0
  146.1200   71.1340  220.1240 H   0  0  0  0  0  0  0  0  0  0  0  0
  140.9580   75.8106  219.2654 H   0  0  0  0  0  0  0  0  0  0  0  0
  139.7872   77.0167  219.7390 H   0  0  0  0  0  0  0  0  0  0  0  0
  142.6447   76.8027  220.9879 H   0  0  0  0  0  0  0  0  0  0  0  0
  142.3000   77.9025  219.6628 H   0  0  0  0  0  0  0  0  0  0  0  0
  142.3243   80.0243  220.7465 H   0  0  0  0  0  0  0  0  0  0  0  0
  141.2747   81.5773  222.3682 H   0  0  0  0  0  0  0  0  0  0  0  0
  139.5937   80.7790  224.0247 H   0  0  0  0  0  0  0  0  0  0  0  0
  138.9493   78.3511  224.0428 H   0  0  0  0  0  0  0  0  0  0  0  0
  140.2543   75.9596  223.3833 H   0  0  0  0  0  0  0  0  0  0  0  0
  138.7817   76.3537  222.4043 H   0  0  0  0  0  0  0  0  0  0  0  0
  141.6709   72.0841  224.8887 H   0  0  0  0  0  0  0  0  0  0  0  0
  140.0175   72.7717  225.0559 H   0  0  0  0  0  0  0  0  0  0  0  0
  1  2  2  0
  2  3  1  0
  3  4  2  0
  4  5  1  0
  5  6  2  0
  5  7  1  0
  7  8  1  0
  8  9  1  0
  9 10  1  0
 10 11  2  0
 11 12  1  0
 12 13  1  0
 13 14  1  0
 14 15  1  0
 15 16  1  0
 16 17  1  0
 17 18  1  0
 18 19  1  0
 12 20  2  0
 20 21  1  0
 21 22  1  0
 22 23  1  0
 23 24  1  0
 24 25  1  0
 25 26  2  0
 26 27  1  0
 27 28  2  0
 28 29  1  0
 29 30  2  0
 30 31  1  0
 21 32  2  0
  9 33  1  0
  6  1  1  0
 32 10  1  0
 33  4  1  0
 19 15  1  0
 31 22  1  0
 30 25  1  0
  1 34  1  0
  2 35  1  0
  3 36  1  0
  6 37  1  0
  7 38  1  0
  7 39  1  0
  8 40  1  0
  8 41  1  0
 13 42  1  0
 14 43  1  0
 14 44  1  0
 15 45  1  1
 16 46  1  0
 16 47  1  0
 17 48  1  0
 17 49  1  0
 18 50  1  0
 18 51  1  0
 19 52  1  0
 23 53  1  0
 23 54  1  0
 24 55  1  0
 24 56  1  0
 26 57  1  0
 27 58  1  0
 28 59  1  0
 29 60  1  0
 31 61  1  0
 31 62  1  0
 33 63  1  0
 33 64  1  0
M  END
>  <smiles>  (20) 
c1ccc2c(c1)CCN(c1nc(NCC3CCCN3)nc(N3CCc4ccccc4C3)n1)C2

>  <score_type>  (20) 
oracle

>  <origin>  (20) 
autodockgpu

>  <m_score__min__energy>  (20) 
-9.8200000000000003

>  <m_primary>  (20) 
energy

>  <rmsd>  (20) 
10.948786550607633

>  <m_score__min__rmsd>  (20) 
10.948786550607633

>  <meeko>  (20) 
{"free_energy": -9.77, "intermolecular_energy": -11.26, "internal_energy": -1.25, "cluster_size": 41, "cluster_id": 1, "rank_in_cluster": 5}

>  <energy>  (20) 
-9.16

>  <cluster_rmsd>  (20) 
1.4

>  <cluster>  (20) 
1

$$$$

     RDKit          3D

 64 69  0  0  0  0  0  0  0  0999 V2000
  139.1870   80.3230  222.5580 C   0  0  0  0  0  0  0  0  0  0  0  0
  140.3180   79.9760  223.2690 C   0  0  0  0  0  0  0  0  0  0  0  0
  140.9370   78.7300  223.1140 C   0  0  0  0  0  0  0  0  0  0  0  0
  140.3840   77.8170  222.2070 C   0  0  0  0  0  0  0  0  0  0  0  0
  139.2440   78.1790  221.4960 C   0  0  0  0  0  0  0  0  0  0  0  0
  138.6470   79.4040  221.6570 C   0  0  0  0  0  0  0  0  0  0  0  0
  138.7230   77.1280  220.5700 C   0  0  0  0  0  0  0  0  0  0  0  0
  138.6760   75.8200  221.3770 C   0  0  0  0  0  0  0  0  0  0  0  0
  140.0750   75.5010  221.6870 N   0  0  0  0  0  0  0  0  0  0  0  0
  140.4090   74.1240  221.6440 C   0  0  0  0  0  0  0  0  0  0  0  0
  141.0150   73.5290  220.6070 N   0  0  0  0  0  0  0  0  0  0  0  0
  141.3230   72.1940  220.6270 C   0  0  0  0  0  0  0  0  0  0  0  0
  141.9760   71.5550  219.5730 N   0  0  0  0  0  0  0  0  0  0  0  0
  143.3870   71.6690  219.2620 C   0  0  0  0  0  0  0  0  0  0  0  0
  144.0850   72.4960  220.3330 C   0  0  2  0  0  0  0  0  0  0  0  0
  144.0150   73.9800  219.9660 C   0  0  0  0  0  0  0  0  0  0  0  0
  145.1560   74.5360  220.7900 C   0  0  0  0  0  0  0  0  0  0  0  0
  146.0050   73.3490  221.1740 C   0  0  0  0  0  0  0  0  0  0  0  0
  145.5300   72.3090  220.2750 N   0  0  0  0  0  0  0  0  0  0  0  0
  140.9870   71.5060  221.7400 N   0  0  0  0  0  0  0  0  0  0  0  0
  140.3810   72.0680  222.7980 C   0  0  0  0  0  0  0  0  0  0  0  0
  140.0620   71.2970  223.9410 N   0  0  0  0  0  0  0  0  0  0  0  0
  140.3190   71.8820  225.2710 C   0  0  0  0  0  0  0  0  0  0  0  0
  141.4720   71.0040  225.8010 C   0  0  0  0  0  0  0  0  0  0  0  0
  140.8230   69.6600  226.0380 C   0  0  0  0  0  0  0  0  0  0  0  0
  141.1800   68.9470  227.1560 C   0  0  0  0  0  0  0  0  0  0  0  0
  140.5690   67.7280  227.3590 C   0  0  0  0  0  0  0  0  0  0  0  0
  139.6160   67.2150  226.4740 C   0  0  0  0  0  0  0  0  0  0  0  0
  139.2730   67.9690  225.3440 C   0  0  0  0  0  0  0  0  0  0  0  0
  139.8740   69.1880  225.1220 C   0  0  0  0  0  0  0  0  0  0  0  0
  139.4960   69.9710  223.9120 C   0  0  0  0  0  0  0  0  0  0  0  0
  140.1040   73.3850  222.7190 N   0  0  0  0  0  0  0  0  0  0  0  0
  141.0530   76.5060  222.0300 C   0  0  0  0  0  0  0  0  0  0  0  0
  138.7186   81.3082  222.6992 H   0  0  0  0  0  0  0  0  0  0  0  0
  140.7456   80.6999  223.9784 H   0  0  0  0  0  0  0  0  0  0  0  0
  141.8374   78.4737  223.6915 H   0  0  0  0  0  0  0  0  0  0  0  0
  137.7471   79.6605  221.0787 H   0  0  0  0  0  0  0  0  0  0  0  0
  137.7149   77.3953  220.2204 H   0  0  0  0  0  0  0  0  0  0  0  0
  139.3653   77.0254  219.6829 H   0  0  0  0  0  0  0  0  0  0  0  0
  138.0991   75.9600  222.3031 H   0  0  0  0  0  0  0  0  0  0  0  0
  138.1874   75.0105  220.8148 H   0  0  0  0  0  0  0  0  0  0  0  0
  141.3740   70.9330  218.9480 H   0  0  0  0  0  0  0  0  0  0  0  0
  143.8353   70.6652  219.2255 H   0  0  0  0  0  0  0  0  0  0  0  0
  143.5055   72.1630  218.2863 H   0  0  0  0  0  0  0  0  0  0  0  0
  143.6140   72.2073  221.2842 H   0  0  0  0  0  0  0  0  0  0  0  0
  144.1794   74.1381  218.8899 H   0  0  0  0  0  0  0  0  0  0  0  0
  143.0409   74.4506  220.1650 H   0  0  0  0  0  0  0  0  0  0  0  0
  145.7441   75.2510  220.1960 H   0  0  0  0  0  0  0  0  0  0  0  0
  144.7894   75.0743  221.6765 H   0  0  0  0  0  0  0  0  0  0  0  0
  147.0729   73.5563  221.0110 H   0  0  0  0  0  0  0  0  0  0  0  0
  145.9200   73.0783  222.2368 H   0  0  0  0  0  0  0  0  0  0  0  0
  145.7930   71.3500  220.5560 H   0  0  0  0  0  0  0  0  0  0  0  0
  140.6255   72.9353  225.1901 H   0  0  0  0  0  0  0  0  0  0  0  0
  139.4354   71.8902  225.9261 H   0  0  0  0  0  0  0  0  0  0  0  0
  142.2777   70.9241  225.0564 H   0  0  0  0  0  0  0  0  0  0  0  0
  141.9384   71.4167  226.7077 H   0  0  0  0  0  0  0  0  0  0  0  0
  141.9269   69.3347  227.8644 H   0  0  0  0  0  0  0  0  0  0  0  0
  140.8405   67.1390  228.2474 H   0  0  0  0  0  0  0  0  0  0  0  0
  139.1448   66.2388  226.6611 H   0  0  0  0  0  0  0  0  0  0  0  0
  138.5240   67.5874  224.6345 H   0  0  0  0  0  0  0  0  0  0  0  0
  139.8625   69.4457  223.0177 H   0  0  0  0  0  0  0  0  0  0  0  0
  138.4002   70.0645  223.8905 H   0  0  0  0  0  0  0  0  0  0  0  0
  141.5549   76.2226  222.9669 H   0  0  0  0  0  0  0  0  0  0  0  0
  141.7945   76.5826  221.2211 H   0  0  0  0  0  0  0  0  0  0  0  0
  1  2  2  0
  2  3  1  0
  3  4  2  0
  4  5  1  0
  5  6  2  0
  5  7  1  0
  7  8  1  0
  8  9  1  0
  9 10  1  0
 10 11  2  0
 11 12  1  0
 12 13  1  0
 13 14  1  0
 14 15  1  0
 15 16  1  0
 16 17  1  0
 17 18  1  0
 18 19  1  0
 12 20  2  0
 20 21  1  0
 21 22  1  0
 22 23  1  0
 23 24  1  0
 24 25  1  0
 25 26  2  0
 26 27  1  0
 27 28  2  0
 28 29  1  0
 29 30  2  0
 30 31  1  0
 21 32  2  0
  9 33  1  0
  6  1  1  0
 32 10  1  0
 33  4  1  0
 19 15  1  0
 31 22  1  0
 30 25  1  0
  1 34  1  0
  2 35  1  0
  3 36  1  0
  6 37  1  0
  7 38  1  0
  7 39  1  0
  8 40  1  0
  8 41  1  0
 13 42  1  0
 14 43  1  0
 14 44  1  0
 15 45  1  1
 16 46  1  0
 16 47  1  0
 17 48  1  0
 17 49  1  0
 18 50  1  0
 18 51  1  0
 19 52  1  0
 23 53  1  0
 23 54  1  0
 24 55  1  0
 24 56  1  0
 26 57  1  0
 27 58  1  0
 28 59  1  0
 29 60  1  0
 31 61  1  0
 31 62  1  0
 33 63  1  0
 33 64  1  0
M  END
>  <smiles>  (21) 
c1ccc2c(c1)CCN(c1nc(NCC3CCCN3)nc(N3CCc4ccccc4C3)n1)C2

>  <score_type>  (21) 
oracle

>  <origin>  (21) 
autodockgpu

>  <m_score__min__energy>  (21) 
-9.8200000000000003

>  <m_primary>  (21) 
energy

>  <rmsd>  (21) 
4.6157254512466235

>  <m_score__min__rmsd>  (21) 
4.6157254512466235

>  <meeko>  (21) 
{"free_energy": -9.31, "intermolecular_energy": -10.8, "internal_energy": -1.25, "cluster_size": 41, "cluster_id": 1, "rank_in_cluster": 18}

>  <energy>  (21) 
-9.13

>  <cluster_rmsd>  (21) 
1.52

>  <cluster>  (21) 
1

$$$$

     RDKit          3D

 64 69  0  0  0  0  0  0  0  0999 V2000
  139.5640   68.5800  226.7670 C   0  0  0  0  0  0  0  0  0  0  0  0
  140.7410   69.2680  226.9840 C   0  0  0  0  0  0  0  0  0  0  0  0
  141.1240   70.3510  226.1830 C   0  0  0  0  0  0  0  0  0  0  0  0
  140.2810   70.7370  225.1340 C   0  0  0  0  0  0  0  0  0  0  0  0
  139.0980   70.0340  224.9250 C   0  0  0  0  0  0  0  0  0  0  0  0
  138.7330   68.9760  225.7180 C   0  0  0  0  0  0  0  0  0  0  0  0
  138.2810   70.5130  223.7690 C   0  0  0  0  0  0  0  0  0  0  0  0
  139.2460   70.6550  222.5800 C   0  0  0  0  0  0  0  0  0  0  0  0
  140.1760   71.7260  222.9570 N   0  0  0  0  0  0  0  0  0  0  0  0
  140.5660   72.5920  221.9040 C   0  0  0  0  0  0  0  0  0  0  0  0
  141.0210   72.1730  220.7150 N   0  0  0  0  0  0  0  0  0  0  0  0
  141.3740   73.0580  219.7310 C   0  0  0  0  0  0  0  0  0  0  0  0
  141.8270   72.6490  218.4760 N   0  0  0  0  0  0  0  0  0  0  0  0
  143.2070   72.3750  218.1260 C   0  0  0  0  0  0  0  0  0  0  0  0
  144.1330   73.2500  218.9600 C   0  0  2  0  0  0  0  0  0  0  0  0
  145.5840   72.8150  218.7480 C   0  0  0  0  0  0  0  0  0  0  0  0
  146.2410   73.3810  219.9880 C   0  0  0  0  0  0  0  0  0  0  0  0
  145.1180   73.6740  220.9540 C   0  0  0  0  0  0  0  0  0  0  0  0
  144.0020   72.9410  220.3790 N   0  0  0  0  0  0  0  0  0  0  0  0
  141.2420   74.3720  220.0140 N   0  0  0  0  0  0  0  0  0  0  0  0
  140.7870   74.8290  221.1920 C   0  0  0  0  0  0  0  0  0  0  0  0
  140.6610   76.2190  221.4280 N   0  0  0  0  0  0  0  0  0  0  0  0
  140.3660   77.0960  220.2790 C   0  0  0  0  0  0  0  0  0  0  0  0
  141.6760   77.8980  220.1310 C   0  0  0  0  0  0  0  0  0  0  0  0
  141.6980   78.7830  221.3560 C   0  0  0  0  0  0  0  0  0  0  0  0
  142.1350   80.0780  221.2220 C   0  0  0  0  0  0  0  0  0  0  0  0
  142.1380   80.8710  222.3500 C   0  0  0  0  0  0  0  0  0  0  0  0
  141.7160   80.3980  223.5960 C   0  0  0  0  0  0  0  0  0  0  0  0
  141.2750   79.0720  223.6970 C   0  0  0  0  0  0  0  0  0  0  0  0
  141.2660   78.2630  222.5830 C   0  0  0  0  0  0  0  0  0  0  0  0
  140.7960   76.8550  222.7150 C   0  0  0  0  0  0  0  0  0  0  0  0
  140.4570   73.9090  222.1210 N   0  0  0  0  0  0  0  0  0  0  0  0
  140.6810   71.8950  224.2990 C   0  0  0  0  0  0  0  0  0  0  0  0
  139.2854   67.7328  227.4109 H   0  0  0  0  0  0  0  0  0  0  0  0
  141.3971   68.9565  227.8101 H   0  0  0  0  0  0  0  0  0  0  0  0
  142.0659   70.8863  226.3737 H   0  0  0  0  0  0  0  0  0  0  0  0
  137.7901   68.4423  225.5281 H   0  0  0  0  0  0  0  0  0  0  0  0
  137.4923   69.7834  223.5331 H   0  0  0  0  0  0  0  0  0  0  0  0
  137.7901   71.4702  223.9989 H   0  0  0  0  0  0  0  0  0  0  0  0
  139.7906   69.7141  222.4121 H   0  0  0  0  0  0  0  0  0  0  0  0
  138.7126   70.8869  221.6463 H   0  0  0  0  0  0  0  0  0  0  0  0
  141.0860   72.5320  217.7170 H   0  0  0  0  0  0  0  0  0  0  0  0
  143.4303   71.3159  218.3221 H   0  0  0  0  0  0  0  0  0  0  0  0
  143.3621   72.5946  217.0594 H   0  0  0  0  0  0  0  0  0  0  0  0
  143.8904   74.2864  218.6824 H   0  0  0  0  0  0  0  0  0  0  0  0
  145.6752   71.7195  218.7071 H   0  0  0  0  0  0  0  0  0  0  0  0
  146.0270   73.1614  217.8026 H   0  0  0  0  0  0  0  0  0  0  0  0
  146.9367   72.6473  220.4212 H   0  0  0  0  0  0  0  0  0  0  0  0
  146.8235   74.2856  219.7594 H   0  0  0  0  0  0  0  0  0  0  0  0
  145.3565   73.3061  221.9628 H   0  0  0  0  0  0  0  0  0  0  0  0
  144.9173   74.7485  221.0769 H   0  0  0  0  0  0  0  0  0  0  0  0
  143.0750   73.2250  220.7390 H   0  0  0  0  0  0  0  0  0  0  0  0
  140.1545   76.5083  219.3735 H   0  0  0  0  0  0  0  0  0  0  0  0
  139.4774   77.7278  220.4245 H   0  0  0  0  0  0  0  0  0  0  0  0
  142.5471   77.2264  220.1172 H   0  0  0  0  0  0  0  0  0  0  0  0
  141.7206   78.4700  219.1924 H   0  0  0  0  0  0  0  0  0  0  0  0
  142.4705   80.4685  220.2499 H   0  0  0  0  0  0  0  0  0  0  0  0
  142.4844   81.9117  222.2666 H   0  0  0  0  0  0  0  0  0  0  0  0
  141.7299   81.0536  224.4792 H   0  0  0  0  0  0  0  0  0  0  0  0
  140.9360   78.6773  224.6662 H   0  0  0  0  0  0  0  0  0  0  0  0
  141.5229   76.2908  223.3178 H   0  0  0  0  0  0  0  0  0  0  0  0
  139.8086   76.8653  223.1996 H   0  0  0  0  0  0  0  0  0  0  0  0
  141.7785   71.9633  224.2706 H   0  0  0  0  0  0  0  0  0  0  0  0
  140.2641   72.8166  224.7313 H   0  0  0  0  0  0  0  0  0  0  0  0
  1  2  2  0
  2  3  1  0
  3  4  2  0
  4  5  1  0
  5  6  2  0
  5  7  1  0
  7  8  1  0
  8  9  1  0
  9 10  1  0
 10 11  2  0
 11 12  1  0
 12 13  1  0
 13 14  1  0
 14 15  1  0
 15 16  1  0
 16 17  1  0
 17 18  1  0
 18 19  1  0
 12 20  2  0
 20 21  1  0
 21 22  1  0
 22 23  1  0
 23 24  1  0
 24 25  1  0
 25 26  2  0
 26 27  1  0
 27 28  2  0
 28 29  1  0
 29 30  2  0
 30 31  1  0
 21 32  2  0
  9 33  1  0
  6  1  1  0
 32 10  1  0
 33  4  1  0
 19 15  1  0
 31 22  1  0
 30 25  1  0
  1 34  1  0
  2 35  1  0
  3 36  1  0
  6 37  1  0
  7 38  1  0
  7 39  1  0
  8 40  1  0
  8 41  1  0
 13 42  1  0
 14 43  1  0
 14 44  1  0
 15 45  1  1
 16 46  1  0
 16 47  1  0
 17 48  1  0
 17 49  1  0
 18 50  1  0
 18 51  1  0
 19 52  1  0
 23 53  1  0
 23 54  1  0
 24 55  1  0
 24 56  1  0
 26 57  1  0
 27 58  1  0
 28 59  1  0
 29 60  1  0
 31 61  1  0
 31 62  1  0
 33 63  1  0
 33 64  1  0
M  END
>  <smiles>  (22) 
c1ccc2c(c1)CCN(c1nc(NCC3CCCN3)nc(N3CCc4ccccc4C3)n1)C2

>  <score_type>  (22) 
oracle

>  <origin>  (22) 
autodockgpu

>  <m_score__min__energy>  (22) 
-9.8200000000000003

>  <m_primary>  (22) 
energy

>  <rmsd>  (22) 
10.627419112062425

>  <m_score__min__rmsd>  (22) 
10.627419112062425

>  <meeko>  (22) 
{"free_energy": -9.05, "intermolecular_energy": -10.55, "internal_energy": -1.92, "cluster_size": 41, "cluster_id": 1, "rank_in_cluster": 26}

>  <energy>  (22) 
-9.13

>  <cluster_rmsd>  (22) 
1.35

>  <cluster>  (22) 
1

$$$$

     RDKit          3D

 64 69  0  0  0  0  0  0  0  0999 V2000
  139.5700   68.5370  226.8590 C   0  0  0  0  0  0  0  0  0  0  0  0
  140.7190   69.2580  227.1130 C   0  0  0  0  0  0  0  0  0  0  0  0
  141.1020   70.3480  226.3220 C   0  0  0  0  0  0  0  0  0  0  0  0
  140.2850   70.7080  225.2430 C   0  0  0  0  0  0  0  0  0  0  0  0
  139.1290   69.9740  224.9960 C   0  0  0  0  0  0  0  0  0  0  0  0
  138.7650   68.9090  225.7800 C   0  0  0  0  0  0  0  0  0  0  0  0
  138.3400   70.4280  223.8110 C   0  0  0  0  0  0  0  0  0  0  0  0
  139.3410   70.5920  222.6560 C   0  0  0  0  0  0  0  0  0  0  0  0
  140.2290   71.6890  223.0600 N   0  0  0  0  0  0  0  0  0  0  0  0
  140.6320   72.5610  222.0180 C   0  0  0  0  0  0  0  0  0  0  0  0
  141.1130   72.1510  220.8360 N   0  0  0  0  0  0  0  0  0  0  0  0
  141.4770   73.0430  219.8620 C   0  0  0  0  0  0  0  0  0  0  0  0
  141.9580   72.6420  218.6150 N   0  0  0  0  0  0  0  0  0  0  0  0
  143.3120   72.8280  218.1330 C   0  0  0  0  0  0  0  0  0  0  0  0
  144.1800   73.3960  219.2470 C   0  0  2  0  0  0  0  0  0  0  0  0
  145.6550   73.3090  218.8480 C   0  0  0  0  0  0  0  0  0  0  0  0
  146.3280   73.3910  220.2000 C   0  0  0  0  0  0  0  0  0  0  0  0
  145.2540   73.0810  221.2150 C   0  0  0  0  0  0  0  0  0  0  0  0
  144.1990   72.5020  220.4000 N   0  0  0  0  0  0  0  0  0  0  0  0
  141.3290   74.3540  220.1480 N   0  0  0  0  0  0  0  0  0  0  0  0
  140.8480   74.8030  221.3190 C   0  0  0  0  0  0  0  0  0  0  0  0
  140.7070   76.1910  221.5570 N   0  0  0  0  0  0  0  0  0  0  0  0
  140.1600   77.0310  220.4750 C   0  0  0  0  0  0  0  0  0  0  0  0
  141.3820   77.8840  220.0710 C   0  0  0  0  0  0  0  0  0  0  0  0
  141.5950   78.7940  221.2580 C   0  0  0  0  0  0  0  0  0  0  0  0
  141.9400   80.1030  221.0290 C   0  0  0  0  0  0  0  0  0  0  0  0
  142.1210   80.9180  222.1250 C   0  0  0  0  0  0  0  0  0  0  0  0
  141.9640   80.4540  223.4340 C   0  0  0  0  0  0  0  0  0  0  0  0
  141.6100   79.1130  223.6330 C   0  0  0  0  0  0  0  0  0  0  0  0
  141.4270   78.2820  222.5520 C   0  0  0  0  0  0  0  0  0  0  0  0
  141.0540   76.8580  222.7880 C   0  0  0  0  0  0  0  0  0  0  0  0
  140.5080   73.8770  222.2380 N   0  0  0  0  0  0  0  0  0  0  0  0
  140.6830   71.8740  224.4180 C   0  0  0  0  0  0  0  0  0  0  0  0
  139.2929   67.6838  227.4956 H   0  0  0  0  0  0  0  0  0  0  0  0
  141.3536   68.9674  227.9632 H   0  0  0  0  0  0  0  0  0  0  0  0
  142.0226   70.9082  226.5428 H   0  0  0  0  0  0  0  0  0  0  0  0
  137.8433   68.3504  225.5599 H   0  0  0  0  0  0  0  0  0  0  0  0
  137.5794   69.6772  223.5508 H   0  0  0  0  0  0  0  0  0  0  0  0
  137.8164   71.3725  224.0203 H   0  0  0  0  0  0  0  0  0  0  0  0
  139.9159   69.6655  222.5109 H   0  0  0  0  0  0  0  0  0  0  0  0
  138.8340   70.8067  221.7037 H   0  0  0  0  0  0  0  0  0  0  0  0
  141.2590   72.1590  217.9690 H   0  0  0  0  0  0  0  0  0  0  0  0
  143.7208   71.8597  217.8086 H   0  0  0  0  0  0  0  0  0  0  0  0
  143.3036   73.5284  217.2848 H   0  0  0  0  0  0  0  0  0  0  0  0
  143.7868   74.4045  219.4427 H   0  0  0  0  0  0  0  0  0  0  0  0
  145.8807   72.3588  218.3419 H   0  0  0  0  0  0  0  0  0  0  0  0
  145.9770   74.0821  218.1348 H   0  0  0  0  0  0  0  0  0  0  0  0
  147.1425   72.6548  220.2675 H   0  0  0  0  0  0  0  0  0  0  0  0
  146.7720   74.3827  220.3712 H   0  0  0  0  0  0  0  0  0  0  0  0
  145.6141   72.3625  221.9661 H   0  0  0  0  0  0  0  0  0  0  0  0
  144.9284   73.9619  221.7877 H   0  0  0  0  0  0  0  0  0  0  0  0
  143.2740   72.4690  220.8600 H   0  0  0  0  0  0  0  0  0  0  0  0
  139.8072   76.4167  219.6335 H   0  0  0  0  0  0  0  0  0  0  0  0
  139.2874   77.6277  220.7790 H   0  0  0  0  0  0  0  0  0  0  0  0
  142.2640   77.2491  219.9008 H   0  0  0  0  0  0  0  0  0  0  0  0
  141.2231   78.4376  219.1338 H   0  0  0  0  0  0  0  0  0  0  0  0
  142.0674   80.4876  220.0063 H   0  0  0  0  0  0  0  0  0  0  0  0
  142.3987   81.9702  221.9643 H   0  0  0  0  0  0  0  0  0  0  0  0
  142.1152   81.1277  224.2903 H   0  0  0  0  0  0  0  0  0  0  0  0
  141.4784   78.7246  224.6537 H   0  0  0  0  0  0  0  0  0  0  0  0
  141.9062   76.3370  223.2488 H   0  0  0  0  0  0  0  0  0  0  0  0
  140.1766   76.8366  223.4511 H   0  0  0  0  0  0  0  0  0  0  0  0
  141.7787   71.9709  224.4269 H   0  0  0  0  0  0  0  0  0  0  0  0
  140.2274   72.7853  224.8327 H   0  0  0  0  0  0  0  0  0  0  0  0
  1  2  2  0
  2  3  1  0
  3  4  2  0
  4  5  1  0
  5  6  2  0
  5  7  1  0
  7  8  1  0
  8  9  1  0
  9 10  1  0
 10 11  2  0
 11 12  1  0
 12 13  1  0
 13 14  1  0
 14 15  1  0
 15 16  1  0
 16 17  1  0
 17 18  1  0
 18 19  1  0
 12 20  2  0
 20 21  1  0
 21 22  1  0
 22 23  1  0
 23 24  1  0
 24 25  1  0
 25 26  2  0
 26 27  1  0
 27 28  2  0
 28 29  1  0
 29 30  2  0
 30 31  1  0
 21 32  2  0
  9 33  1  0
  6  1  1  0
 32 10  1  0
 33  4  1  0
 19 15  1  0
 31 22  1  0
 30 25  1  0
  1 34  1  0
  2 35  1  0
  3 36  1  0
  6 37  1  0
  7 38  1  0
  7 39  1  0
  8 40  1  0
  8 41  1  0
 13 42  1  0
 14 43  1  0
 14 44  1  0
 15 45  1  1
 16 46  1  0
 16 47  1  0
 17 48  1  0
 17 49  1  0
 18 50  1  0
 18 51  1  0
 19 52  1  0
 23 53  1  0
 23 54  1  0
 24 55  1  0
 24 56  1  0
 26 57  1  0
 27 58  1  0
 28 59  1  0
 29 60  1  0
 31 61  1  0
 31 62  1  0
 33 63  1  0
 33 64  1  0
M  END
>  <smiles>  (23) 
c1ccc2c(c1)CCN(c1nc(NCC3CCCN3)nc(N3CCc4ccccc4C3)n1)C2

>  <score_type>  (23) 
oracle

>  <origin>  (23) 
autodockgpu

>  <m_score__min__energy>  (23) 
-9.8200000000000003

>  <m_primary>  (23) 
energy

>  <rmsd>  (23) 
10.695027019414205

>  <m_score__min__rmsd>  (23) 
10.695027019414205

>  <meeko>  (23) 
{"free_energy": -9.1, "intermolecular_energy": -10.59, "internal_energy": -1.86, "cluster_size": 41, "cluster_id": 1, "rank_in_cluster": 24}

>  <energy>  (23) 
-9.13

>  <cluster_rmsd>  (23) 
1.49

>  <cluster>  (23) 
1

$$$$

     RDKit          3D

 64 69  0  0  0  0  0  0  0  0999 V2000
  139.6660   68.7390  227.4450 C   0  0  0  0  0  0  0  0  0  0  0  0
  140.7320   69.5830  227.6860 C   0  0  0  0  0  0  0  0  0  0  0  0
  141.0790   70.6100  226.8010 C   0  0  0  0  0  0  0  0  0  0  0  0
  140.3150   70.7780  225.6390 C   0  0  0  0  0  0  0  0  0  0  0  0
  139.2430   69.9210  225.4070 C   0  0  0  0  0  0  0  0  0  0  0  0
  138.9130   68.9180  226.2830 C   0  0  0  0  0  0  0  0  0  0  0  0
  138.5060   70.1720  224.1310 C   0  0  0  0  0  0  0  0  0  0  0  0
  139.5700   70.2980  223.0290 C   0  0  0  0  0  0  0  0  0  0  0  0
  140.3340   71.5070  223.3600 N   0  0  0  0  0  0  0  0  0  0  0  0
  140.7380   72.2940  222.2520 C   0  0  0  0  0  0  0  0  0  0  0  0
  141.2620   71.7940  221.1240 N   0  0  0  0  0  0  0  0  0  0  0  0
  141.6250   72.6050  220.0810 C   0  0  0  0  0  0  0  0  0  0  0  0
  142.1490   72.1090  218.8870 N   0  0  0  0  0  0  0  0  0  0  0  0
  142.0420   70.7400  218.4240 C   0  0  0  0  0  0  0  0  0  0  0  0
  143.4230   70.2060  218.0720 C   0  0  2  0  0  0  0  0  0  0  0  0
  144.0550   69.5530  219.3040 C   0  0  0  0  0  0  0  0  0  0  0  0
  145.5200   69.5880  218.9320 C   0  0  0  0  0  0  0  0  0  0  0  0
  145.6380   70.5920  217.8110 C   0  0  0  0  0  0  0  0  0  0  0  0
  144.3690   71.2980  217.8770 N   0  0  0  0  0  0  0  0  0  0  0  0
  141.4300   73.9320  220.2430 N   0  0  0  0  0  0  0  0  0  0  0  0
  140.9060   74.4690  221.3560 C   0  0  0  0  0  0  0  0  0  0  0  0
  140.7170   75.8680  221.4630 N   0  0  0  0  0  0  0  0  0  0  0  0
  140.5470   76.6450  220.2210 C   0  0  0  0  0  0  0  0  0  0  0  0
  141.8450   77.4780  220.1730 C   0  0  0  0  0  0  0  0  0  0  0  0
  141.6910   78.4530  221.3170 C   0  0  0  0  0  0  0  0  0  0  0  0
  142.1090   79.7490  221.1370 C   0  0  0  0  0  0  0  0  0  0  0  0
  141.9500   80.6240  222.1890 C   0  0  0  0  0  0  0  0  0  0  0  0
  141.3850   80.2320  223.4070 C   0  0  0  0  0  0  0  0  0  0  0  0
  140.9680   78.9040  223.5570 C   0  0  0  0  0  0  0  0  0  0  0  0
  141.1200   78.0130  222.5190 C   0  0  0  0  0  0  0  0  0  0  0  0
  140.6720   76.6030  222.7030 C   0  0  0  0  0  0  0  0  0  0  0  0
  140.5700   73.6200  222.3480 N   0  0  0  0  0  0  0  0  0  0  0  0
  140.6730   71.8780  224.7130 C   0  0  0  0  0  0  0  0  0  0  0  0
  139.4143   67.9389  228.1567 H   0  0  0  0  0  0  0  0  0  0  0  0
  141.3263   69.4439  228.6011 H   0  0  0  0  0  0  0  0  0  0  0  0
  141.9326   71.2706  227.0131 H   0  0  0  0  0  0  0  0  0  0  0  0
  138.0591   68.2579  226.0708 H   0  0  0  0  0  0  0  0  0  0  0  0
  137.8295   69.3328  223.9117 H   0  0  0  0  0  0  0  0  0  0  0  0
  137.8937   71.0833  224.1983 H   0  0  0  0  0  0  0  0  0  0  0  0
  140.2275   69.4161  223.0264 H   0  0  0  0  0  0  0  0  0  0  0  0
  139.1169   70.3619  222.0287 H   0  0  0  0  0  0  0  0  0  0  0  0
  142.6730   72.8060  218.2710 H   0  0  0  0  0  0  0  0  0  0  0  0
  141.6018   70.1191  219.2182 H   0  0  0  0  0  0  0  0  0  0  0  0
  141.4012   70.7076  217.5305 H   0  0  0  0  0  0  0  0  0  0  0  0
  143.2736   69.5542  217.1986 H   0  0  0  0  0  0  0  0  0  0  0  0
  143.8561   70.1349  220.2160 H   0  0  0  0  0  0  0  0  0  0  0  0
  143.6696   68.5482  219.5316 H   0  0  0  0  0  0  0  0  0  0  0  0
  146.1262   69.9037  219.7939 H   0  0  0  0  0  0  0  0  0  0  0  0
  145.8828   68.5958  218.6256 H   0  0  0  0  0  0  0  0  0  0  0  0
  146.4819   71.2771  217.9797 H   0  0  0  0  0  0  0  0  0  0  0  0
  145.8295   70.1305  216.8310 H   0  0  0  0  0  0  0  0  0  0  0  0
  144.1400   71.8430  217.0290 H   0  0  0  0  0  0  0  0  0  0  0  0
  140.4655   75.9838  219.3456 H   0  0  0  0  0  0  0  0  0  0  0  0
  139.6317   77.2549  220.2052 H   0  0  0  0  0  0  0  0  0  0  0  0
  142.7271   76.8376  220.3202 H   0  0  0  0  0  0  0  0  0  0  0  0
  141.9932   77.9786  219.2048 H   0  0  0  0  0  0  0  0  0  0  0  0
  142.5550   80.0766  220.1863 H   0  0  0  0  0  0  0  0  0  0  0  0
  142.2786   81.6667  222.0670 H   0  0  0  0  0  0  0  0  0  0  0  0
  141.2706   80.9525  224.2303 H   0  0  0  0  0  0  0  0  0  0  0  0
  140.5187   78.5725  224.5048 H   0  0  0  0  0  0  0  0  0  0  0  0
  141.3305   76.1112  223.4341 H   0  0  0  0  0  0  0  0  0  0  0  0
  139.6314   76.6152  223.0594 H   0  0  0  0  0  0  0  0  0  0  0  0
  141.7535   72.0735  224.7784 H   0  0  0  0  0  0  0  0  0  0  0  0
  140.1152   72.7841  224.9921 H   0  0  0  0  0  0  0  0  0  0  0  0
  1  2  2  0
  2  3  1  0
  3  4  2  0
  4  5  1  0
  5  6  2  0
  5  7  1  0
  7  8  1  0
  8  9  1  0
  9 10  1  0
 10 11  2  0
 11 12  1  0
 12 13  1  0
 13 14  1  0
 14 15  1  0
 15 16  1  0
 16 17  1  0
 17 18  1  0
 18 19  1  0
 12 20  2  0
 20 21  1  0
 21 22  1  0
 22 23  1  0
 23 24  1  0
 24 25  1  0
 25 26  2  0
 26 27  1  0
 27 28  2  0
 28 29  1  0
 29 30  2  0
 30 31  1  0
 21 32  2  0
  9 33  1  0
  6  1  1  0
 32 10  1  0
 33  4  1  0
 19 15  1  0
 31 22  1  0
 30 25  1  0
  1 34  1  0
  2 35  1  0
  3 36  1  0
  6 37  1  0
  7 38  1  0
  7 39  1  0
  8 40  1  0
  8 41  1  0
 13 42  1  0
 14 43  1  0
 14 44  1  0
 15 45  1  6
 16 46  1  0
 16 47  1  0
 17 48  1  0
 17 49  1  0
 18 50  1  0
 18 51  1  0
 19 52  1  0
 23 53  1  0
 23 54  1  0
 24 55  1  0
 24 56  1  0
 26 57  1  0
 27 58  1  0
 28 59  1  0
 29 60  1  0
 31 61  1  0
 31 62  1  0
 33 63  1  0
 33 64  1  0
M  END
>  <smiles>  (24) 
c1ccc2c(c1)CCN(c1nc(NCC3CCCN3)nc(N3CCc4ccccc4C3)n1)C2

>  <score_type>  (24) 
oracle

>  <origin>  (24) 
autodockgpu

>  <m_score__min__energy>  (24) 
-9.8200000000000003

>  <m_primary>  (24) 
energy

>  <rmsd>  (24) 
10.869045037217678

>  <m_score__min__rmsd>  (24) 
10.869045037217678

>  <meeko>  (24) 
{"free_energy": -8.25, "intermolecular_energy": -9.74, "internal_energy": -1.55, "cluster_size": 41, "cluster_id": 1, "rank_in_cluster": 39}

>  <energy>  (24) 
-9.1

>  <cluster_rmsd>  (24) 
1.51

>  <cluster>  (24) 
1

$$$$

     RDKit          3D

 64 69  0  0  0  0  0  0  0  0999 V2000
  143.7270   75.0650  219.9070 C   0  0  0  0  0  0  0  0  0  0  0  0
  144.3200   73.8870  220.3160 C   0  0  0  0  0  0  0  0  0  0  0  0
  143.5700   72.8100  220.8030 C   0  0  0  0  0  0  0  0  0  0  0  0
  142.1780   72.9430  220.8730 C   0  0  0  0  0  0  0  0  0  0  0  0
  141.5920   74.1350  220.4570 C   0  0  0  0  0  0  0  0  0  0  0  0
  142.3390   75.1830  219.9810 C   0  0  0  0  0  0  0  0  0  0  0  0
  140.1040   74.1810  220.5900 C   0  0  0  0  0  0  0  0  0  0  0  0
  139.7760   73.6810  222.0060 C   0  0  0  0  0  0  0  0  0  0  0  0
  140.1920   72.2740  222.0290 N   0  0  0  0  0  0  0  0  0  0  0  0
  139.3470   71.4010  222.7610 C   0  0  0  0  0  0  0  0  0  0  0  0
  139.6990   70.1710  223.1600 N   0  0  0  0  0  0  0  0  0  0  0  0
  138.8410   69.3770  223.8740 C   0  0  0  0  0  0  0  0  0  0  0  0
  139.1910   68.1030  224.3220 N   0  0  0  0  0  0  0  0  0  0  0  0
  139.6340   67.7720  225.6620 C   0  0  0  0  0  0  0  0  0  0  0  0
  140.4620   68.9180  226.2270 C   0  0  2  0  0  0  0  0  0  0  0  0
  140.7420   68.6710  227.7110 C   0  0  0  0  0  0  0  0  0  0  0  0
  141.0630   70.0710  228.1840 C   0  0  0  0  0  0  0  0  0  0  0  0
  140.5350   70.9990  227.1160 C   0  0  0  0  0  0  0  0  0  0  0  0
  139.6630   70.1320  226.3410 N   0  0  0  0  0  0  0  0  0  0  0  0
  137.6250   69.8910  224.1580 N   0  0  0  0  0  0  0  0  0  0  0  0
  137.2380   71.1190  223.7780 C   0  0  0  0  0  0  0  0  0  0  0  0
  135.9530   71.6080  224.1140 N   0  0  0  0  0  0  0  0  0  0  0  0
  135.4630   72.8140  223.4210 C   0  0  0  0  0  0  0  0  0  0  0  0
  135.4450   73.8610  224.5550 C   0  0  0  0  0  0  0  0  0  0  0  0
  134.3260   73.3970  225.4570 C   0  0  0  0  0  0  0  0  0  0  0  0
  133.4950   74.3400  226.0120 C   0  0  0  0  0  0  0  0  0  0  0  0
  132.4750   73.8940  226.8240 C   0  0  0  0  0  0  0  0  0  0  0  0
  132.2710   72.5370  227.0890 C   0  0  0  0  0  0  0  0  0  0  0  0
  133.1350   71.6010  226.5060 C   0  0  0  0  0  0  0  0  0  0  0  0
  134.1620   72.0250  225.6940 C   0  0  0  0  0  0  0  0  0  0  0  0
  135.0710   71.0120  225.0870 C   0  0  0  0  0  0  0  0  0  0  0  0
  138.1260   71.8530  223.0770 N   0  0  0  0  0  0  0  0  0  0  0  0
  141.3840   71.7950  221.3710 C   0  0  0  0  0  0  0  0  0  0  0  0
  144.3392   75.8970  219.5289 H   0  0  0  0  0  0  0  0  0  0  0  0
  145.4143   73.7920  220.2574 H   0  0  0  0  0  0  0  0  0  0  0  0
  144.0631   71.8804  221.1234 H   0  0  0  0  0  0  0  0  0  0  0  0
  141.8456   76.1120  219.6592 H   0  0  0  0  0  0  0  0  0  0  0  0
  139.7425   75.2114  220.4577 H   0  0  0  0  0  0  0  0  0  0  0  0
  139.6171   73.5576  219.8256 H   0  0  0  0  0  0  0  0  0  0  0  0
  140.3338   74.2595  222.7572 H   0  0  0  0  0  0  0  0  0  0  0  0
  138.7079   73.7955  222.2429 H   0  0  0  0  0  0  0  0  0  0  0  0
  139.1230   67.3120  223.6090 H   0  0  0  0  0  0  0  0  0  0  0  0
  138.7579   67.6022  226.3052 H   0  0  0  0  0  0  0  0  0  0  0  0
  140.2493   66.8608  225.6274 H   0  0  0  0  0  0  0  0  0  0  0  0
  141.3420   68.9968  225.5717 H   0  0  0  0  0  0  0  0  0  0  0  0
  139.8594   68.2636  228.2258 H   0  0  0  0  0  0  0  0  0  0  0  0
  141.5359   67.9348  227.9051 H   0  0  0  0  0  0  0  0  0  0  0  0
  140.5682   70.2731  229.1454 H   0  0  0  0  0  0  0  0  0  0  0  0
  142.1433   70.2073  228.3399 H   0  0  0  0  0  0  0  0  0  0  0  0
  139.9722   71.8339  227.5590 H   0  0  0  0  0  0  0  0  0  0  0  0
  141.3279   71.4693  226.5159 H   0  0  0  0  0  0  0  0  0  0  0  0
  139.4130   70.5030  225.4080 H   0  0  0  0  0  0  0  0  0  0  0  0
  136.1460   73.1141  222.6127 H   0  0  0  0  0  0  0  0  0  0  0  0
  134.4865   72.6757  222.9338 H   0  0  0  0  0  0  0  0  0  0  0  0
  136.4039   73.8713  225.0939 H   0  0  0  0  0  0  0  0  0  0  0  0
  135.2954   74.8860  224.1849 H   0  0  0  0  0  0  0  0  0  0  0  0
  133.6388   75.4126  225.8151 H   0  0  0  0  0  0  0  0  0  0  0  0
  131.7978   74.6316  227.2795 H   0  0  0  0  0  0  0  0  0  0  0  0
  131.4485   72.2105  227.7423 H   0  0  0  0  0  0  0  0  0  0  0  0
  132.9925   70.5272  226.6972 H   0  0  0  0  0  0  0  0  0  0  0  0
  135.6754   70.5519  225.8827 H   0  0  0  0  0  0  0  0  0  0  0  0
  134.4545   70.2572  224.5769 H   0  0  0  0  0  0  0  0  0  0  0  0
  141.9877   71.2158  222.0852 H   0  0  0  0  0  0  0  0  0  0  0  0
  141.0987   71.1554  220.5228 H   0  0  0  0  0  0  0  0  0  0  0  0
  1  2  2  0
  2  3  1  0
  3  4  2  0
  4  5  1  0
  5  6  2  0
  5  7  1  0
  7  8  1  0
  8  9  1  0
  9 10  1  0
 10 11  2  0
 11 12  1  0
 12 13  1  0
 13 14  1  0
 14 15  1  0
 15 16  1  0
 16 17  1  0
 17 18  1  0
 18 19  1  0
 12 20  2  0
 20 21  1  0
 21 22  1  0
 22 23  1  0
 23 24  1  0
 24 25  1  0
 25 26  2  0
 26 27  1  0
 27 28  2  0
 28 29  1  0
 29 30  2  0
 30 31  1  0
 21 32  2  0
  9 33  1  0
  6  1  1  0
 32 10  1  0
 33  4  1  0
 19 15  1  0
 31 22  1  0
 30 25  1  0
  1 34  1  0
  2 35  1  0
  3 36  1  0
  6 37  1  0
  7 38  1  0
  7 39  1  0
  8 40  1  0
  8 41  1  0
 13 42  1  0
 14 43  1  0
 14 44  1  0
 15 45  1  6
 16 46  1  0
 16 47  1  0
 17 48  1  0
 17 49  1  0
 18 50  1  0
 18 51  1  0
 19 52  1  0
 23 53  1  0
 23 54  1  0
 24 55  1  0
 24 56  1  0
 26 57  1  0
 27 58  1  0
 28 59  1  0
 29 60  1  0
 31 61  1  0
 31 62  1  0
 33 63  1  0
 33 64  1  0
M  END
>  <smiles>  (25) 
c1ccc2c(c1)CCN(c1nc(NCC3CCCN3)nc(N3CCc4ccccc4C3)n1)C2

>  <score_type>  (25) 
oracle

>  <origin>  (25) 
autodockgpu

>  <m_score__min__energy>  (25) 
-9.8200000000000003

>  <m_primary>  (25) 
energy

>  <rmsd>  (25) 
6.606579319291525

>  <m_score__min__rmsd>  (25) 
6.606579319291525

>  <meeko>  (25) 
{"free_energy": -7.81, "intermolecular_energy": -9.3, "internal_energy": -2.0, "cluster_size": 2, "cluster_id": 5, "rank_in_cluster": 1}

>  <energy>  (25) 
-9.09

>  <cluster_rmsd>  (25) 
1.39

>  <cluster>  (25) 
1

$$$$

     RDKit          3D

 64 69  0  0  0  0  0  0  0  0999 V2000
  139.6170   68.8370  227.6960 C   0  0  0  0  0  0  0  0  0  0  0  0
  140.6640   69.7100  227.9130 C   0  0  0  0  0  0  0  0  0  0  0  0
  141.0090   70.6990  226.9840 C   0  0  0  0  0  0  0  0  0  0  0  0
  140.2630   70.7960  225.8030 C   0  0  0  0  0  0  0  0  0  0  0  0
  139.2090   69.9100  225.5960 C   0  0  0  0  0  0  0  0  0  0  0  0
  138.8820   68.9450  226.5150 C   0  0  0  0  0  0  0  0  0  0  0  0
  138.4910   70.0850  224.2970 C   0  0  0  0  0  0  0  0  0  0  0  0
  139.5710   70.1760  223.2080 C   0  0  0  0  0  0  0  0  0  0  0  0
  140.3080   71.4140  223.4910 N   0  0  0  0  0  0  0  0  0  0  0  0
  140.7170   72.1530  222.3530 C   0  0  0  0  0  0  0  0  0  0  0  0
  141.3350   71.6180  221.2900 N   0  0  0  0  0  0  0  0  0  0  0  0
  141.6980   72.3830  220.2130 C   0  0  0  0  0  0  0  0  0  0  0  0
  142.3180   71.8480  219.0840 N   0  0  0  0  0  0  0  0  0  0  0  0
  143.7470   71.8160  218.8420 C   0  0  0  0  0  0  0  0  0  0  0  0
  144.4830   72.4130  220.0340 C   0  0  2  0  0  0  0  0  0  0  0  0
  144.4990   73.9390  219.9210 C   0  0  0  0  0  0  0  0  0  0  0  0
  145.6640   74.2850  220.8210 C   0  0  0  0  0  0  0  0  0  0  0  0
  146.4440   73.0050  220.9990 C   0  0  0  0  0  0  0  0  0  0  0  0
  145.9160   72.1590  219.9410 N   0  0  0  0  0  0  0  0  0  0  0  0
  141.4050   73.7000  220.2720 N   0  0  0  0  0  0  0  0  0  0  0  0
  140.7860   74.2710  221.3180 C   0  0  0  0  0  0  0  0  0  0  0  0
  140.4970   75.6560  221.3180 N   0  0  0  0  0  0  0  0  0  0  0  0
  140.6770   76.4060  220.0600 C   0  0  0  0  0  0  0  0  0  0  0  0
  141.8780   77.3170  220.3880 C   0  0  0  0  0  0  0  0  0  0  0  0
  141.3260   78.2940  221.3980 C   0  0  0  0  0  0  0  0  0  0  0  0
  141.7080   79.6110  221.3140 C   0  0  0  0  0  0  0  0  0  0  0  0
  141.1840   80.4890  222.2390 C   0  0  0  0  0  0  0  0  0  0  0  0
  140.2940   80.0780  223.2360 C   0  0  0  0  0  0  0  0  0  0  0  0
  139.9240   78.7280  223.2930 C   0  0  0  0  0  0  0  0  0  0  0  0
  140.4370   77.8350  222.3800 C   0  0  0  0  0  0  0  0  0  0  0  0
  140.0320   76.4040  222.4610 C   0  0  0  0  0  0  0  0  0  0  0  0
  140.4550   73.4660  222.3480 N   0  0  0  0  0  0  0  0  0  0  0  0
  140.6180   71.8560  224.8300 C   0  0  0  0  0  0  0  0  0  0  0  0
  139.3662   68.0686  228.4421 H   0  0  0  0  0  0  0  0  0  0  0  0
  141.2446   69.6262  228.8435 H   0  0  0  0  0  0  0  0  0  0  0  0
  141.8473   71.3844  227.1775 H   0  0  0  0  0  0  0  0  0  0  0  0
  138.0439   68.2594  226.3214 H   0  0  0  0  0  0  0  0  0  0  0  0
  137.8329   69.2241  224.1080 H   0  0  0  0  0  0  0  0  0  0  0  0
  137.8626   70.9878  224.3093 H   0  0  0  0  0  0  0  0  0  0  0  0
  140.2438   69.3073  223.2599 H   0  0  0  0  0  0  0  0  0  0  0  0
  139.1340   70.1822  222.1985 H   0  0  0  0  0  0  0  0  0  0  0  0
  141.6760   71.4290  218.3410 H   0  0  0  0  0  0  0  0  0  0  0  0
  144.0700   70.7746  218.6970 H   0  0  0  0  0  0  0  0  0  0  0  0
  143.9770   72.4030  217.9406 H   0  0  0  0  0  0  0  0  0  0  0  0
  143.9898   71.9960  220.9244 H   0  0  0  0  0  0  0  0  0  0  0  0
  144.6779   74.2652  218.8858 H   0  0  0  0  0  0  0  0  0  0  0  0
  143.5518   74.4235  220.2004 H   0  0  0  0  0  0  0  0  0  0  0  0
  146.2942   75.0550  220.3520 H   0  0  0  0  0  0  0  0  0  0  0  0
  145.3229   74.6875  221.7862 H   0  0  0  0  0  0  0  0  0  0  0  0
  147.5227   73.1765  220.8686 H   0  0  0  0  0  0  0  0  0  0  0  0
  146.3392   72.5660  222.0021 H   0  0  0  0  0  0  0  0  0  0  0  0
  146.1240   71.1530  220.0570 H   0  0  0  0  0  0  0  0  0  0  0  0
  140.9067   75.7303  219.2230 H   0  0  0  0  0  0  0  0  0  0  0  0
  139.7793   76.9579  219.7444 H   0  0  0  0  0  0  0  0  0  0  0  0
  142.7055   76.7341  220.8188 H   0  0  0  0  0  0  0  0  0  0  0  0
  142.2897   77.8141  219.4973 H   0  0  0  0  0  0  0  0  0  0  0  0
  142.4070   79.9528  220.5365 H   0  0  0  0  0  0  0  0  0  0  0  0
  141.4760   81.5485  222.1910 H   0  0  0  0  0  0  0  0  0  0  0  0
  139.8922   80.8006  223.9615 H   0  0  0  0  0  0  0  0  0  0  0  0
  139.2236   78.3818  224.0673 H   0  0  0  0  0  0  0  0  0  0  0  0
  140.4587   75.9631  223.3740 H   0  0  0  0  0  0  0  0  0  0  0  0
  138.9331   76.3574  222.4794 H   0  0  0  0  0  0  0  0  0  0  0  0
  141.6938   72.0734  224.9030 H   0  0  0  0  0  0  0  0  0  0  0  0
  140.0403   72.7645  225.0556 H   0  0  0  0  0  0  0  0  0  0  0  0
  1  2  2  0
  2  3  1  0
  3  4  2  0
  4  5  1  0
  5  6  2  0
  5  7  1  0
  7  8  1  0
  8  9  1  0
  9 10  1  0
 10 11  2  0
 11 12  1  0
 12 13  1  0
 13 14  1  0
 14 15  1  0
 15 16  1  0
 16 17  1  0
 17 18  1  0
 18 19  1  0
 12 20  2  0
 20 21  1  0
 21 22  1  0
 22 23  1  0
 23 24  1  0
 24 25  1  0
 25 26  2  0
 26 27  1  0
 27 28  2  0
 28 29  1  0
 29 30  2  0
 30 31  1  0
 21 32  2  0
  9 33  1  0
  6  1  1  0
 32 10  1  0
 33  4  1  0
 19 15  1  0
 31 22  1  0
 30 25  1  0
  1 34  1  0
  2 35  1  0
  3 36  1  0
  6 37  1  0
  7 38  1  0
  7 39  1  0
  8 40  1  0
  8 41  1  0
 13 42  1  0
 14 43  1  0
 14 44  1  0
 15 45  1  1
 16 46  1  0
 16 47  1  0
 17 48  1  0
 17 49  1  0
 18 50  1  0
 18 51  1  0
 19 52  1  0
 23 53  1  0
 23 54  1  0
 24 55  1  0
 24 56  1  0
 26 57  1  0
 27 58  1  0
 28 59  1  0
 29 60  1  0
 31 61  1  0
 31 62  1  0
 33 63  1  0
 33 64  1  0
M  END
>  <smiles>  (26) 
c1ccc2c(c1)CCN(c1nc(NCC3CCCN3)nc(N3CCc4ccccc4C3)n1)C2

>  <score_type>  (26) 
oracle

>  <origin>  (26) 
autodockgpu

>  <m_score__min__energy>  (26) 
-9.8200000000000003

>  <m_primary>  (26) 
energy

>  <rmsd>  (26) 
10.960066184547927

>  <m_score__min__rmsd>  (26) 
10.960066184547927

>  <meeko>  (26) 
{"free_energy": -9.74, "intermolecular_energy": -11.23, "internal_energy": -1.28, "cluster_size": 41, "cluster_id": 1, "rank_in_cluster": 9}

>  <energy>  (26) 
-9.05

>  <cluster_rmsd>  (26) 
1.54

>  <cluster>  (26) 
1

$$$$

     RDKit          3D

 64 69  0  0  0  0  0  0  0  0999 V2000
  139.9450   68.7500  228.0970 C   0  0  0  0  0  0  0  0  0  0  0  0
  140.8770   69.7450  228.3100 C   0  0  0  0  0  0  0  0  0  0  0  0
  141.1060   70.7600  227.3730 C   0  0  0  0  0  0  0  0  0  0  0  0
  140.3600   70.7550  226.1880 C   0  0  0  0  0  0  0  0  0  0  0  0
  139.4230   69.7460  225.9840 C   0  0  0  0  0  0  0  0  0  0  0  0
  139.2080   68.7570  226.9110 C   0  0  0  0  0  0  0  0  0  0  0  0
  138.6960   69.8200  224.6810 C   0  0  0  0  0  0  0  0  0  0  0  0
  139.7640   70.0320  223.5950 C   0  0  0  0  0  0  0  0  0  0  0  0
  140.3440   71.3520  223.8700 N   0  0  0  0  0  0  0  0  0  0  0  0
  140.6680   72.1240  222.7260 C   0  0  0  0  0  0  0  0  0  0  0  0
  141.3870   71.6700  221.6890 N   0  0  0  0  0  0  0  0  0  0  0  0
  141.6590   72.4620  220.6050 C   0  0  0  0  0  0  0  0  0  0  0  0
  142.3830   72.0070  219.5030 N   0  0  0  0  0  0  0  0  0  0  0  0
  142.9620   72.8430  218.4700 C   0  0  0  0  0  0  0  0  0  0  0  0
  144.1640   73.5920  219.0290 C   0  0  2  0  0  0  0  0  0  0  0  0
  145.3740   72.6570  219.0840 C   0  0  0  0  0  0  0  0  0  0  0  0
  146.2390   73.3620  220.1060 C   0  0  0  0  0  0  0  0  0  0  0  0
  145.3240   74.3200  220.8310 C   0  0  0  0  0  0  0  0  0  0  0  0
  144.0010   73.8470  220.4550 N   0  0  0  0  0  0  0  0  0  0  0  0
  141.1700   73.7210  220.6290 N   0  0  0  0  0  0  0  0  0  0  0  0
  140.4450   74.2100  221.6480 C   0  0  0  0  0  0  0  0  0  0  0  0
  139.9510   75.5360  221.6120 N   0  0  0  0  0  0  0  0  0  0  0  0
  140.8630   76.6070  221.1690 C   0  0  0  0  0  0  0  0  0  0  0  0
  141.0800   77.4130  222.4670 C   0  0  0  0  0  0  0  0  0  0  0  0
  139.7390   78.0630  222.7170 C   0  0  0  0  0  0  0  0  0  0  0  0
  139.7120   79.3580  223.1730 C   0  0  0  0  0  0  0  0  0  0  0  0
  138.4790   79.9360  223.3850 C   0  0  0  0  0  0  0  0  0  0  0  0
  137.2830   79.2490  223.1500 C   0  0  0  0  0  0  0  0  0  0  0  0
  137.3470   77.9300  222.6830 C   0  0  0  0  0  0  0  0  0  0  0  0
  138.5690   77.3340  222.4670 C   0  0  0  0  0  0  0  0  0  0  0  0
  138.6110   75.9290  221.9730 C   0  0  0  0  0  0  0  0  0  0  0  0
  140.2110   73.3830  222.6870 N   0  0  0  0  0  0  0  0  0  0  0  0
  140.5900   71.8410  225.2060 C   0  0  0  0  0  0  0  0  0  0  0  0
  139.7852   67.9638  228.8495 H   0  0  0  0  0  0  0  0  0  0  0  0
  141.4577   69.7407  229.2442 H   0  0  0  0  0  0  0  0  0  0  0  0
  141.8546   71.5432  227.5634 H   0  0  0  0  0  0  0  0  0  0  0  0
  138.4591   67.9741  226.7207 H   0  0  0  0  0  0  0  0  0  0  0  0
  138.1487   68.8836  224.4978 H   0  0  0  0  0  0  0  0  0  0  0  0
  137.9620   70.6393  224.6816 H   0  0  0  0  0  0  0  0  0  0  0  0
  140.5367   69.2516  223.6578 H   0  0  0  0  0  0  0  0  0  0  0  0
  139.3351   69.9766  222.5836 H   0  0  0  0  0  0  0  0  0  0  0  0
  142.5150   70.9500  219.4230 H   0  0  0  0  0  0  0  0  0  0  0  0
  143.2833   72.2131  217.6274 H   0  0  0  0  0  0  0  0  0  0  0  0
  142.2101   73.5676  218.1242 H   0  0  0  0  0  0  0  0  0  0  0  0
  144.2709   74.4901  218.4029 H   0  0  0  0  0  0  0  0  0  0  0  0
  145.0905   71.6491  219.4214 H   0  0  0  0  0  0  0  0  0  0  0  0
  145.8635   72.4920  218.1128 H   0  0  0  0  0  0  0  0  0  0  0  0
  146.6682   72.6349  220.8111 H   0  0  0  0  0  0  0  0  0  0  0  0
  147.0798   73.8879  219.6301 H   0  0  0  0  0  0  0  0  0  0  0  0
  145.4713   74.2618  221.9195 H   0  0  0  0  0  0  0  0  0  0  0  0
  145.5008   75.3738  220.5698 H   0  0  0  0  0  0  0  0  0  0  0  0
  143.2410   74.5270  220.6280 H   0  0  0  0  0  0  0  0  0  0  0  0
  141.8107   76.1932  220.7940 H   0  0  0  0  0  0  0  0  0  0  0  0
  140.4649   77.2087  220.3386 H   0  0  0  0  0  0  0  0  0  0  0  0
  141.3545   76.7485  223.2995 H   0  0  0  0  0  0  0  0  0  0  0  0
  141.8975   78.1441  222.3818 H   0  0  0  0  0  0  0  0  0  0  0  0
  140.6418   79.9144  223.3624 H   0  0  0  0  0  0  0  0  0  0  0  0
  138.4336   80.9722  223.7513 H   0  0  0  0  0  0  0  0  0  0  0  0
  136.3123   79.7348  223.3283 H   0  0  0  0  0  0  0  0  0  0  0  0
  136.4203   77.3701  222.4887 H   0  0  0  0  0  0  0  0  0  0  0  0
  138.2435   75.2603  222.7653 H   0  0  0  0  0  0  0  0  0  0  0  0
  137.9772   75.8590  221.0767 H   0  0  0  0  0  0  0  0  0  0  0  0
  141.6311   72.1878  225.2821 H   0  0  0  0  0  0  0  0  0  0  0  0
  139.9052   72.6750  225.4195 H   0  0  0  0  0  0  0  0  0  0  0  0
  1  2  2  0
  2  3  1  0
  3  4  2  0
  4  5  1  0
  5  6  2  0
  5  7  1  0
  7  8  1  0
  8  9  1  0
  9 10  1  0
 10 11  2  0
 11 12  1  0
 12 13  1  0
 13 14  1  0
 14 15  1  0
 15 16  1  0
 16 17  1  0
 17 18  1  0
 18 19  1  0
 12 20  2  0
 20 21  1  0
 21 22  1  0
 22 23  1  0
 23 24  1  0
 24 25  1  0
 25 26  2  0
 26 27  1  0
 27 28  2  0
 28 29  1  0
 29 30  2  0
 30 31  1  0
 21 32  2  0
  9 33  1  0
  6  1  1  0
 32 10  1  0
 33  4  1  0
 19 15  1  0
 31 22  1  0
 30 25  1  0
  1 34  1  0
  2 35  1  0
  3 36  1  0
  6 37  1  0
  7 38  1  0
  7 39  1  0
  8 40  1  0
  8 41  1  0
 13 42  1  0
 14 43  1  0
 14 44  1  0
 15 45  1  6
 16 46  1  0
 16 47  1  0
 17 48  1  0
 17 49  1  0
 18 50  1  0
 18 51  1  0
 19 52  1  0
 23 53  1  0
 23 54  1  0
 24 55  1  0
 24 56  1  0
 26 57  1  0
 27 58  1  0
 28 59  1  0
 29 60  1  0
 31 61  1  0
 31 62  1  0
 33 63  1  0
 33 64  1  0
M  END
>  <smiles>  (27) 
c1ccc2c(c1)CCN(c1nc(NCC3CCCN3)nc(N3CCc4ccccc4C3)n1)C2

>  <score_type>  (27) 
oracle

>  <origin>  (27) 
autodockgpu

>  <m_score__min__energy>  (27) 
-9.8200000000000003

>  <m_primary>  (27) 
energy

>  <rmsd>  (27) 
11.208375790667626

>  <m_score__min__rmsd>  (27) 
11.208375790667626

>  <meeko>  (27) 
{"free_energy": -8.83, "intermolecular_energy": -10.32, "internal_energy": -1.67, "cluster_size": 41, "cluster_id": 1, "rank_in_cluster": 33}

>  <energy>  (27) 
-8.98

>  <cluster_rmsd>  (27) 
1.54

>  <cluster>  (27) 
1

$$$$

     RDKit          3D

 64 69  0  0  0  0  0  0  0  0999 V2000
  143.7410   75.0400  219.9320 C   0  0  0  0  0  0  0  0  0  0  0  0
  144.3130   73.8430  220.3150 C   0  0  0  0  0  0  0  0  0  0  0  0
  143.5460   72.7770  220.7980 C   0  0  0  0  0  0  0  0  0  0  0  0
  142.1580   72.9410  220.8920 C   0  0  0  0  0  0  0  0  0  0  0  0
  141.5930   74.1520  220.5030 C   0  0  0  0  0  0  0  0  0  0  0  0
  142.3570   75.1890  220.0300 C   0  0  0  0  0  0  0  0  0  0  0  0
  140.1090   74.2310  220.6620 C   0  0  0  0  0  0  0  0  0  0  0  0
  139.7920   73.7170  222.0750 C   0  0  0  0  0  0  0  0  0  0  0  0
  140.1760   72.3000  222.0720 N   0  0  0  0  0  0  0  0  0  0  0  0
  139.3230   71.4370  222.8050 C   0  0  0  0  0  0  0  0  0  0  0  0
  139.6640   70.2050  223.2070 N   0  0  0  0  0  0  0  0  0  0  0  0
  138.7990   69.4200  223.9230 C   0  0  0  0  0  0  0  0  0  0  0  0
  139.1380   68.1440  224.3750 N   0  0  0  0  0  0  0  0  0  0  0  0
  139.6400   67.8230  225.6960 C   0  0  0  0  0  0  0  0  0  0  0  0
  140.4500   68.9930  226.2360 C   0  0  2  0  0  0  0  0  0  0  0  0
  140.7770   68.7570  227.7130 C   0  0  0  0  0  0  0  0  0  0  0  0
  141.0710   70.1670  228.1740 C   0  0  0  0  0  0  0  0  0  0  0  0
  140.4880   71.0770  227.1200 C   0  0  0  0  0  0  0  0  0  0  0  0
  139.6190   70.1840  226.3710 N   0  0  0  0  0  0  0  0  0  0  0  0
  137.5870   69.9450  224.2030 N   0  0  0  0  0  0  0  0  0  0  0  0
  137.2110   71.1750  223.8200 C   0  0  0  0  0  0  0  0  0  0  0  0
  135.9290   71.6750  224.1520 N   0  0  0  0  0  0  0  0  0  0  0  0
  135.4520   72.8870  223.4600 C   0  0  0  0  0  0  0  0  0  0  0  0
  135.4410   73.9320  224.5950 C   0  0  0  0  0  0  0  0  0  0  0  0
  134.3150   73.4780  225.4940 C   0  0  0  0  0  0  0  0  0  0  0  0
  133.4920   74.4270  226.0470 C   0  0  0  0  0  0  0  0  0  0  0  0
  132.4650   73.9910  226.8560 C   0  0  0  0  0  0  0  0  0  0  0  0
  132.2470   72.6350  227.1180 C   0  0  0  0  0  0  0  0  0  0  0  0
  133.1040   71.6920  226.5370 C   0  0  0  0  0  0  0  0  0  0  0  0
  134.1370   72.1070  225.7280 C   0  0  0  0  0  0  0  0  0  0  0  0
  135.0390   71.0860  225.1230 C   0  0  0  0  0  0  0  0  0  0  0  0
  138.1060   71.9000  223.1170 N   0  0  0  0  0  0  0  0  0  0  0  0
  141.3460   71.8040  221.3870 C   0  0  0  0  0  0  0  0  0  0  0  0
  144.3663   75.8630  219.5557 H   0  0  0  0  0  0  0  0  0  0  0  0
  145.4038   73.7239  220.2381 H   0  0  0  0  0  0  0  0  0  0  0  0
  144.0222   71.8316  221.0971 H   0  0  0  0  0  0  0  0  0  0  0  0
  141.8805   76.1338  219.7293 H   0  0  0  0  0  0  0  0  0  0  0  0
  139.7701   75.2717  220.5516 H   0  0  0  0  0  0  0  0  0  0  0  0
  139.5951   73.6310  219.8966 H   0  0  0  0  0  0  0  0  0  0  0  0
  140.3744   74.2716  222.8255 H   0  0  0  0  0  0  0  0  0  0  0  0
  138.7304   73.8517  222.3297 H   0  0  0  0  0  0  0  0  0  0  0  0
  139.0130   67.3440  223.6790 H   0  0  0  0  0  0  0  0  0  0  0  0
  138.7939   67.6223  226.3697 H   0  0  0  0  0  0  0  0  0  0  0  0
  140.2830   66.9326  225.6346 H   0  0  0  0  0  0  0  0  0  0  0  0
  141.3091   69.0957  225.5567 H   0  0  0  0  0  0  0  0  0  0  0  0
  139.9205   68.3263  228.2523 H   0  0  0  0  0  0  0  0  0  0  0  0
  141.5960   68.0436  227.8871 H   0  0  0  0  0  0  0  0  0  0  0  0
  140.5975   70.3575  229.1484 H   0  0  0  0  0  0  0  0  0  0  0  0
  142.1510   70.3340  228.2992 H   0  0  0  0  0  0  0  0  0  0  0  0
  139.9148   71.8970  227.5771 H   0  0  0  0  0  0  0  0  0  0  0  0
  141.2504   71.5677  226.4971 H   0  0  0  0  0  0  0  0  0  0  0  0
  139.3340   70.5450  225.4450 H   0  0  0  0  0  0  0  0  0  0  0  0
  136.1398   73.1820  222.6538 H   0  0  0  0  0  0  0  0  0  0  0  0
  134.4753   72.7587  222.9705 H   0  0  0  0  0  0  0  0  0  0  0  0
  136.3985   73.9322  225.1364 H   0  0  0  0  0  0  0  0  0  0  0  0
  135.3021   74.9588  224.2257 H   0  0  0  0  0  0  0  0  0  0  0  0
  133.6467   75.4983  225.8513 H   0  0  0  0  0  0  0  0  0  0  0  0
  131.7943   74.7348  227.3109 H   0  0  0  0  0  0  0  0  0  0  0  0
  131.4188   72.3152  227.7675 H   0  0  0  0  0  0  0  0  0  0  0  0
  132.9514   70.6194  226.7274 H   0  0  0  0  0  0  0  0  0  0  0  0
  135.6373   70.6205  225.9201 H   0  0  0  0  0  0  0  0  0  0  0  0
  134.4174   70.3365  224.6112 H   0  0  0  0  0  0  0  0  0  0  0  0
  141.9480   71.2008  222.0825 H   0  0  0  0  0  0  0  0  0  0  0  0
  141.0320   71.1838  220.5345 H   0  0  0  0  0  0  0  0  0  0  0  0
  1  2  2  0
  2  3  1  0
  3  4  2  0
  4  5  1  0
  5  6  2  0
  5  7  1  0
  7  8  1  0
  8  9  1  0
  9 10  1  0
 10 11  2  0
 11 12  1  0
 12 13  1  0
 13 14  1  0
 14 15  1  0
 15 16  1  0
 16 17  1  0
 17 18  1  0
 18 19  1  0
 12 20  2  0
 20 21  1  0
 21 22  1  0
 22 23  1  0
 23 24  1  0
 24 25  1  0
 25 26  2  0
 26 27  1  0
 27 28  2  0
 28 29  1  0
 29 30  2  0
 30 31  1  0
 21 32  2  0
  9 33  1  0
  6  1  1  0
 32 10  1  0
 33  4  1  0
 19 15  1  0
 31 22  1  0
 30 25  1  0
  1 34  1  0
  2 35  1  0
  3 36  1  0
  6 37  1  0
  7 38  1  0
  7 39  1  0
  8 40  1  0
  8 41  1  0
 13 42  1  0
 14 43  1  0
 14 44  1  0
 15 45  1  6
 16 46  1  0
 16 47  1  0
 17 48  1  0
 17 49  1  0
 18 50  1  0
 18 51  1  0
 19 52  1  0
 23 53  1  0
 23 54  1  0
 24 55  1  0
 24 56  1  0
 26 57  1  0
 27 58  1  0
 28 59  1  0
 29 60  1  0
 31 61  1  0
 31 62  1  0
 33 63  1  0
 33 64  1  0
M  END
>  <smiles>  (28) 
c1ccc2c(c1)CCN(c1nc(NCC3CCCN3)nc(N3CCc4ccccc4C3)n1)C2

>  <score_type>  (28) 
oracle

>  <origin>  (28) 
autodockgpu

>  <m_score__min__energy>  (28) 
-9.8200000000000003

>  <m_primary>  (28) 
energy

>  <rmsd>  (28) 
6.622609459380327

>  <m_score__min__rmsd>  (28) 
6.622609459380327

>  <meeko>  (28) 
{"free_energy": -7.77, "intermolecular_energy": -9.26, "internal_energy": -2.0, "cluster_size": 2, "cluster_id": 5, "rank_in_cluster": 2}

>  <energy>  (28) 
-8.97

>  <cluster_rmsd>  (28) 
1.6

>  <cluster>  (28) 
1

$$$$

     RDKit          3D

 64 69  0  0  0  0  0  0  0  0999 V2000
  139.5680   68.4520  226.7590 C   0  0  0  0  0  0  0  0  0  0  0  0
  140.7580   69.1120  226.9910 C   0  0  0  0  0  0  0  0  0  0  0  0
  141.1490   70.2230  226.2350 C   0  0  0  0  0  0  0  0  0  0  0  0
  140.2990   70.6690  225.2140 C   0  0  0  0  0  0  0  0  0  0  0  0
  139.1020   69.9950  224.9900 C   0  0  0  0  0  0  0  0  0  0  0  0
  138.7310   68.9080  225.7390 C   0  0  0  0  0  0  0  0  0  0  0  0
  138.2790   70.5380  223.8670 C   0  0  0  0  0  0  0  0  0  0  0  0
  139.2310   70.7190  222.6740 C   0  0  0  0  0  0  0  0  0  0  0  0
  140.1830   71.7580  223.0860 N   0  0  0  0  0  0  0  0  0  0  0  0
  140.5730   72.6640  222.0680 C   0  0  0  0  0  0  0  0  0  0  0  0
  141.0380   72.2920  220.8670 N   0  0  0  0  0  0  0  0  0  0  0  0
  141.3910   73.2150  219.9180 C   0  0  0  0  0  0  0  0  0  0  0  0
  141.8530   72.8550  218.6520 N   0  0  0  0  0  0  0  0  0  0  0  0
  143.1620   72.3060  218.3570 C   0  0  0  0  0  0  0  0  0  0  0  0
  144.2270   73.0720  219.1290 C   0  0  2  0  0  0  0  0  0  0  0  0
  145.5650   72.3360  219.0310 C   0  0  0  0  0  0  0  0  0  0  0  0
  146.2970   72.9020  220.2270 C   0  0  0  0  0  0  0  0  0  0  0  0
  145.2360   73.5230  221.1040 C   0  0  0  0  0  0  0  0  0  0  0  0
  144.0070   72.9630  220.5670 N   0  0  0  0  0  0  0  0  0  0  0  0
  141.2490   74.5170  220.2500 N   0  0  0  0  0  0  0  0  0  0  0  0
  140.7850   74.9270  221.4410 C   0  0  0  0  0  0  0  0  0  0  0  0
  140.6500   76.3070  221.7270 N   0  0  0  0  0  0  0  0  0  0  0  0
  140.0500   77.1760  220.6970 C   0  0  0  0  0  0  0  0  0  0  0  0
  141.2470   78.0470  220.2620 C   0  0  0  0  0  0  0  0  0  0  0  0
  141.5130   78.9220  221.4650 C   0  0  0  0  0  0  0  0  0  0  0  0
  141.8420   80.2390  221.2590 C   0  0  0  0  0  0  0  0  0  0  0  0
  142.0710   81.0230  222.3690 C   0  0  0  0  0  0  0  0  0  0  0  0
  141.9770   80.5180  223.6700 C   0  0  0  0  0  0  0  0  0  0  0  0
  141.6380   79.1700  223.8450 C   0  0  0  0  0  0  0  0  0  0  0  0
  141.4080   78.3700  222.7490 C   0  0  0  0  0  0  0  0  0  0  0  0
  141.0520   76.9390  222.9590 C   0  0  0  0  0  0  0  0  0  0  0  0
  140.4550   73.9710  222.3330 N   0  0  0  0  0  0  0  0  0  0  0  0
  140.7070   71.8570  224.4270 C   0  0  0  0  0  0  0  0  0  0  0  0
  139.2839   67.5810  227.3679 H   0  0  0  0  0  0  0  0  0  0  0  0
  141.4188   68.7540  227.7942 H   0  0  0  0  0  0  0  0  0  0  0  0
  142.1016   70.7344  226.4376 H   0  0  0  0  0  0  0  0  0  0  0  0
  137.7779   68.3974  225.5370 H   0  0  0  0  0  0  0  0  0  0  0  0
  137.4763   69.8318  223.6085 H   0  0  0  0  0  0  0  0  0  0  0  0
  137.8061   71.4912  224.1459 H   0  0  0  0  0  0  0  0  0  0  0  0
  139.7585   69.7785  222.4570 H   0  0  0  0  0  0  0  0  0  0  0  0
  138.6896   71.0012  221.7590 H   0  0  0  0  0  0  0  0  0  0  0  0
  141.1780   73.0020  217.8390 H   0  0  0  0  0  0  0  0  0  0  0  0
  143.1886   71.2464  218.6512 H   0  0  0  0  0  0  0  0  0  0  0  0
  143.3594   72.3957  217.2786 H   0  0  0  0  0  0  0  0  0  0  0  0
  144.2039   74.0961  218.7281 H   0  0  0  0  0  0  0  0  0  0  0  0
  145.4338   71.2472  219.1164 H   0  0  0  0  0  0  0  0  0  0  0  0
  146.0883   72.4742  218.0734 H   0  0  0  0  0  0  0  0  0  0  0  0
  146.8213   72.1013  220.7691 H   0  0  0  0  0  0  0  0  0  0  0  0
  147.0550   73.6398  219.9252 H   0  0  0  0  0  0  0  0  0  0  0  0
  145.3749   73.2370  222.1570 H   0  0  0  0  0  0  0  0  0  0  0  0
  145.2534   74.6228  221.0966 H   0  0  0  0  0  0  0  0  0  0  0  0
  143.1500   73.4660  220.8510 H   0  0  0  0  0  0  0  0  0  0  0  0
  139.6608   76.5850  219.8549 H   0  0  0  0  0  0  0  0  0  0  0  0
  139.1904   77.7589  221.0593 H   0  0  0  0  0  0  0  0  0  0  0  0
  142.1224   77.4224  220.0306 H   0  0  0  0  0  0  0  0  0  0  0  0
  141.0411   78.6280  219.3509 H   0  0  0  0  0  0  0  0  0  0  0  0
  141.9201   80.6539  220.2433 H   0  0  0  0  0  0  0  0  0  0  0  0
  142.3365   82.0810  222.2272 H   0  0  0  0  0  0  0  0  0  0  0  0
  142.1655   81.1663  224.5384 H   0  0  0  0  0  0  0  0  0  0  0  0
  141.5556   78.7509  224.8587 H   0  0  0  0  0  0  0  0  0  0  0  0
  141.9269   76.4089  223.3635 H   0  0  0  0  0  0  0  0  0  0  0  0
  140.2066   76.8937  223.6614 H   0  0  0  0  0  0  0  0  0  0  0  0
  141.8050   71.9093  224.3872 H   0  0  0  0  0  0  0  0  0  0  0  0
  140.3101   72.7641  224.9062 H   0  0  0  0  0  0  0  0  0  0  0  0
  1  2  2  0
  2  3  1  0
  3  4  2  0
  4  5  1  0
  5  6  2  0
  5  7  1  0
  7  8  1  0
  8  9  1  0
  9 10  1  0
 10 11  2  0
 11 12  1  0
 12 13  1  0
 13 14  1  0
 14 15  1  0
 15 16  1  0
 16 17  1  0
 17 18  1  0
 18 19  1  0
 12 20  2  0
 20 21  1  0
 21 22  1  0
 22 23  1  0
 23 24  1  0
 24 25  1  0
 25 26  2  0
 26 27  1  0
 27 28  2  0
 28 29  1  0
 29 30  2  0
 30 31  1  0
 21 32  2  0
  9 33  1  0
  6  1  1  0
 32 10  1  0
 33  4  1  0
 19 15  1  0
 31 22  1  0
 30 25  1  0
  1 34  1  0
  2 35  1  0
  3 36  1  0
  6 37  1  0
  7 38  1  0
  7 39  1  0
  8 40  1  0
  8 41  1  0
 13 42  1  0
 14 43  1  0
 14 44  1  0
 15 45  1  6
 16 46  1  0
 16 47  1  0
 17 48  1  0
 17 49  1  0
 18 50  1  0
 18 51  1  0
 19 52  1  0
 23 53  1  0
 23 54  1  0
 24 55  1  0
 24 56  1  0
 26 57  1  0
 27 58  1  0
 28 59  1  0
 29 60  1  0
 31 61  1  0
 31 62  1  0
 33 63  1  0
 33 64  1  0
M  END
>  <smiles>  (29) 
c1ccc2c(c1)CCN(c1nc(NCC3CCCN3)nc(N3CCc4ccccc4C3)n1)C2

>  <score_type>  (29) 
oracle

>  <origin>  (29) 
autodockgpu

>  <m_score__min__energy>  (29) 
-9.8200000000000003

>  <m_primary>  (29) 
energy

>  <rmsd>  (29) 
10.707021696970909

>  <m_score__min__rmsd>  (29) 
10.707021696970909

>  <meeko>  (29) 
{"free_energy": -8.98, "intermolecular_energy": -10.47, "internal_energy": -1.8, "cluster_size": 41, "cluster_id": 1, "rank_in_cluster": 27}

>  <energy>  (29) 
-8.94

>  <cluster_rmsd>  (29) 
1.2

>  <cluster>  (29) 
1

$$$$

     RDKit          3D

 64 69  0  0  0  0  0  0  0  0999 V2000
  139.4650   68.5790  226.7300 C   0  0  0  0  0  0  0  0  0  0  0  0
  140.6700   69.2170  226.9490 C   0  0  0  0  0  0  0  0  0  0  0  0
  141.0920   70.2930  226.1600 C   0  0  0  0  0  0  0  0  0  0  0  0
  140.2600   70.7280  225.1210 C   0  0  0  0  0  0  0  0  0  0  0  0
  139.0480   70.0770  224.9100 C   0  0  0  0  0  0  0  0  0  0  0  0
  138.6450   69.0230  225.6910 C   0  0  0  0  0  0  0  0  0  0  0  0
  138.2440   70.6050  223.7660 C   0  0  0  0  0  0  0  0  0  0  0  0
  139.2070   70.7230  222.5740 C   0  0  0  0  0  0  0  0  0  0  0  0
  140.1820   71.7510  222.9590 N   0  0  0  0  0  0  0  0  0  0  0  0
  140.6000   72.6140  221.9150 C   0  0  0  0  0  0  0  0  0  0  0  0
  141.0940   72.1940  220.7420 N   0  0  0  0  0  0  0  0  0  0  0  0
  141.4730   73.0770  219.7660 C   0  0  0  0  0  0  0  0  0  0  0  0
  141.9660   72.6650  218.5270 N   0  0  0  0  0  0  0  0  0  0  0  0
  143.3580   72.6850  218.1250 C   0  0  0  0  0  0  0  0  0  0  0  0
  144.2500   72.6980  219.3580 C   0  0  2  0  0  0  0  0  0  0  0  0
  144.4090   74.1320  219.8670 C   0  0  0  0  0  0  0  0  0  0  0  0
  145.6750   74.0120  220.6840 C   0  0  0  0  0  0  0  0  0  0  0  0
  146.3350   72.7300  220.2390 C   0  0  0  0  0  0  0  0  0  0  0  0
  145.6370   72.4230  219.0010 N   0  0  0  0  0  0  0  0  0  0  0  0
  141.3270   74.3910  220.0410 N   0  0  0  0  0  0  0  0  0  0  0  0
  140.8350   74.8500  221.2030 C   0  0  0  0  0  0  0  0  0  0  0  0
  140.6970   76.2400  221.4290 N   0  0  0  0  0  0  0  0  0  0  0  0
  140.4830   77.1180  220.2640 C   0  0  0  0  0  0  0  0  0  0  0  0
  141.8020   77.9170  220.2060 C   0  0  0  0  0  0  0  0  0  0  0  0
  141.7430   78.8010  221.4290 C   0  0  0  0  0  0  0  0  0  0  0  0
  142.1910   80.0950  221.3270 C   0  0  0  0  0  0  0  0  0  0  0  0
  142.1190   80.8880  222.4520 C   0  0  0  0  0  0  0  0  0  0  0  0
  141.6110   80.4160  223.6660 C   0  0  0  0  0  0  0  0  0  0  0  0
  141.1610   79.0910  223.7360 C   0  0  0  0  0  0  0  0  0  0  0  0
  141.2260   78.2820  222.6240 C   0  0  0  0  0  0  0  0  0  0  0  0
  140.7450   76.8760  222.7230 C   0  0  0  0  0  0  0  0  0  0  0  0
  140.4800   73.9320  222.1240 N   0  0  0  0  0  0  0  0  0  0  0  0
  140.7010   71.8800  224.2990 C   0  0  0  0  0  0  0  0  0  0  0  0
  139.1563   67.7347  227.3639 H   0  0  0  0  0  0  0  0  0  0  0  0
  141.3171   68.8692  227.7677 H   0  0  0  0  0  0  0  0  0  0  0  0
  142.0563   70.7863  226.3518 H   0  0  0  0  0  0  0  0  0  0  0  0
  137.6804   68.5303  225.4993 H   0  0  0  0  0  0  0  0  0  0  0  0
  137.4245   69.9118  223.5254 H   0  0  0  0  0  0  0  0  0  0  0  0
  137.7938   71.5781  224.0117 H   0  0  0  0  0  0  0  0  0  0  0  0
  139.7121   69.7631  222.3911 H   0  0  0  0  0  0  0  0  0  0  0  0
  138.6784   70.9882  221.6465 H   0  0  0  0  0  0  0  0  0  0  0  0
  141.2470   72.3080  217.8240 H   0  0  0  0  0  0  0  0  0  0  0  0
  143.5777   71.7898  217.5246 H   0  0  0  0  0  0  0  0  0  0  0  0
  143.5508   73.5882  217.5275 H   0  0  0  0  0  0  0  0  0  0  0  0
  143.7958   71.9810  220.0577 H   0  0  0  0  0  0  0  0  0  0  0  0
  144.5302   74.8437  219.0371 H   0  0  0  0  0  0  0  0  0  0  0  0
  143.5425   74.5116  220.4283 H   0  0  0  0  0  0  0  0  0  0  0  0
  146.3367   74.8695  220.4923 H   0  0  0  0  0  0  0  0  0  0  0  0
  145.4599   74.0020  221.7627 H   0  0  0  0  0  0  0  0  0  0  0  0
  147.4104   72.8785  220.0615 H   0  0  0  0  0  0  0  0  0  0  0  0
  146.2724   71.9251  220.9861 H   0  0  0  0  0  0  0  0  0  0  0  0
  145.7520   71.4480  218.6770 H   0  0  0  0  0  0  0  0  0  0  0  0
  140.3321   76.5314  219.3458 H   0  0  0  0  0  0  0  0  0  0  0  0
  139.5880   77.7518  220.3493 H   0  0  0  0  0  0  0  0  0  0  0  0
  142.6704   77.2433  220.2512 H   0  0  0  0  0  0  0  0  0  0  0  0
  141.9116   78.4892  219.2729 H   0  0  0  0  0  0  0  0  0  0  0  0
  142.5933   80.4851  220.3804 H   0  0  0  0  0  0  0  0  0  0  0  0
  142.4733   81.9277  222.3927 H   0  0  0  0  0  0  0  0  0  0  0  0
  141.5655   81.0715  224.5482 H   0  0  0  0  0  0  0  0  0  0  0  0
  140.7557   78.6971  224.6797 H   0  0  0  0  0  0  0  0  0  0  0  0
  141.4274   76.3100  223.3741 H   0  0  0  0  0  0  0  0  0  0  0  0
  139.7267   76.8887  223.1387 H   0  0  0  0  0  0  0  0  0  0  0  0
  141.8002   71.9043  224.2642 H   0  0  0  0  0  0  0  0  0  0  0  0
  140.3238   72.8113  224.7466 H   0  0  0  0  0  0  0  0  0  0  0  0
  1  2  2  0
  2  3  1  0
  3  4  2  0
  4  5  1  0
  5  6  2  0
  5  7  1  0
  7  8  1  0
  8  9  1  0
  9 10  1  0
 10 11  2  0
 11 12  1  0
 12 13  1  0
 13 14  1  0
 14 15  1  0
 15 16  1  0
 16 17  1  0
 17 18  1  0
 18 19  1  0
 12 20  2  0
 20 21  1  0
 21 22  1  0
 22 23  1  0
 23 24  1  0
 24 25  1  0
 25 26  2  0
 26 27  1  0
 27 28  2  0
 28 29  1  0
 29 30  2  0
 30 31  1  0
 21 32  2  0
  9 33  1  0
  6  1  1  0
 32 10  1  0
 33  4  1  0
 19 15  1  0
 31 22  1  0
 30 25  1  0
  1 34  1  0
  2 35  1  0
  3 36  1  0
  6 37  1  0
  7 38  1  0
  7 39  1  0
  8 40  1  0
  8 41  1  0
 13 42  1  0
 14 43  1  0
 14 44  1  0
 15 45  1  1
 16 46  1  0
 16 47  1  0
 17 48  1  0
 17 49  1  0
 18 50  1  0
 18 51  1  0
 19 52  1  0
 23 53  1  0
 23 54  1  0
 24 55  1  0
 24 56  1  0
 26 57  1  0
 27 58  1  0
 28 59  1  0
 29 60  1  0
 31 61  1  0
 31 62  1  0
 33 63  1  0
 33 64  1  0
M  END
>  <smiles>  (30) 
c1ccc2c(c1)CCN(c1nc(NCC3CCCN3)nc(N3CCc4ccccc4C3)n1)C2

>  <score_type>  (30) 
oracle

>  <origin>  (30) 
autodockgpu

>  <m_score__min__energy>  (30) 
-9.8200000000000003

>  <m_primary>  (30) 
energy

>  <rmsd>  (30) 
10.623783448905458

>  <m_score__min__rmsd>  (30) 
10.623783448905458

>  <meeko>  (30) 
{"free_energy": -9.75, "intermolecular_energy": -11.24, "internal_energy": -1.22, "cluster_size": 41, "cluster_id": 1, "rank_in_cluster": 8}

>  <energy>  (30) 
-8.94

>  <cluster_rmsd>  (30) 
1.61

>  <cluster>  (30) 
1

$$$$

     RDKit          3D

 64 69  0  0  0  0  0  0  0  0999 V2000
  139.9290   68.5790  227.7540 C   0  0  0  0  0  0  0  0  0  0  0  0
  140.8990   69.5360  227.9770 C   0  0  0  0  0  0  0  0  0  0  0  0
  141.1240   70.5870  227.0810 C   0  0  0  0  0  0  0  0  0  0  0  0
  140.3350   70.6590  225.9250 C   0  0  0  0  0  0  0  0  0  0  0  0
  139.3610   69.6890  225.7110 C   0  0  0  0  0  0  0  0  0  0  0  0
  139.1500   68.6640  226.5990 C   0  0  0  0  0  0  0  0  0  0  0  0
  138.5890   69.8460  224.4410 C   0  0  0  0  0  0  0  0  0  0  0  0
  139.6230   70.0770  223.3270 C   0  0  0  0  0  0  0  0  0  0  0  0
  140.2530   71.3650  223.6400 N   0  0  0  0  0  0  0  0  0  0  0  0
  140.5580   72.1810  222.5210 C   0  0  0  0  0  0  0  0  0  0  0  0
  141.2460   71.7640  221.4490 N   0  0  0  0  0  0  0  0  0  0  0  0
  141.5020   72.5970  220.3930 C   0  0  0  0  0  0  0  0  0  0  0  0
  142.1940   72.1810  219.2550 N   0  0  0  0  0  0  0  0  0  0  0  0
  143.5570   71.6900  219.2300 C   0  0  0  0  0  0  0  0  0  0  0  0
  144.3770   72.3950  220.3010 C   0  0  2  0  0  0  0  0  0  0  0  0
  144.3050   73.9090  220.0940 C   0  0  0  0  0  0  0  0  0  0  0  0
  145.5360   74.3640  220.8480 C   0  0  0  0  0  0  0  0  0  0  0  0
  146.3920   73.1330  221.0230 C   0  0  0  0  0  0  0  0  0  0  0  0
  145.8050   72.1970  220.0780 N   0  0  0  0  0  0  0  0  0  0  0  0
  141.0280   73.8590  220.4810 N   0  0  0  0  0  0  0  0  0  0  0  0
  140.3340   74.3130  221.5370 C   0  0  0  0  0  0  0  0  0  0  0  0
  139.8550   75.6440  221.5680 N   0  0  0  0  0  0  0  0  0  0  0  0
  140.7580   76.7200  221.1170 C   0  0  0  0  0  0  0  0  0  0  0  0
  141.0450   77.4800  222.4290 C   0  0  0  0  0  0  0  0  0  0  0  0
  139.7260   78.1350  222.7640 C   0  0  0  0  0  0  0  0  0  0  0  0
  139.7360   79.4150  223.2640 C   0  0  0  0  0  0  0  0  0  0  0  0
  138.5220   79.9980  223.5530 C   0  0  0  0  0  0  0  0  0  0  0  0
  137.3080   79.3320  223.3540 C   0  0  0  0  0  0  0  0  0  0  0  0
  137.3330   78.0290  222.8410 C   0  0  0  0  0  0  0  0  0  0  0  0
  138.5360   77.4280  222.5480 C   0  0  0  0  0  0  0  0  0  0  0  0
  138.5390   76.0390  222.0060 C   0  0  0  0  0  0  0  0  0  0  0  0
  140.1150   73.4450  222.5460 N   0  0  0  0  0  0  0  0  0  0  0  0
  140.5630   71.7830  224.9860 C   0  0  0  0  0  0  0  0  0  0  0  0
  139.7727   67.7629  228.4748 H   0  0  0  0  0  0  0  0  0  0  0  0
  141.5137   69.4702  228.8869 H   0  0  0  0  0  0  0  0  0  0  0  0
  141.9019   71.3390  227.2793 H   0  0  0  0  0  0  0  0  0  0  0  0
  138.3708   67.9132  226.4014 H   0  0  0  0  0  0  0  0  0  0  0  0
  138.0062   68.9360  224.2357 H   0  0  0  0  0  0  0  0  0  0  0  0
  137.8813   70.6855  224.5070 H   0  0  0  0  0  0  0  0  0  0  0  0
  140.3729   69.2723  223.3252 H   0  0  0  0  0  0  0  0  0  0  0  0
  139.1565   70.0815  222.3308 H   0  0  0  0  0  0  0  0  0  0  0  0
  141.6640   72.2340  218.3300 H   0  0  0  0  0  0  0  0  0  0  0  0
  143.5589   70.6069  219.4221 H   0  0  0  0  0  0  0  0  0  0  0  0
  143.9982   71.8913  218.2427 H   0  0  0  0  0  0  0  0  0  0  0  0
  143.9965   72.0167  221.2612 H   0  0  0  0  0  0  0  0  0  0  0  0
  144.3636   74.1740  219.0280 H   0  0  0  0  0  0  0  0  0  0  0  0
  143.3671   74.3691  220.4385 H   0  0  0  0  0  0  0  0  0  0  0  0
  146.0777   75.1279  220.2709 H   0  0  0  0  0  0  0  0  0  0  0  0
  145.2731   74.8143  221.8166 H   0  0  0  0  0  0  0  0  0  0  0  0
  147.4427   73.3420  220.7732 H   0  0  0  0  0  0  0  0  0  0  0  0
  146.4083   72.7566  222.0565 H   0  0  0  0  0  0  0  0  0  0  0  0
  146.0730   71.2110  220.2330 H   0  0  0  0  0  0  0  0  0  0  0  0
  141.6821   76.3093  220.6842 H   0  0  0  0  0  0  0  0  0  0  0  0
  140.3286   77.3528  220.3263 H   0  0  0  0  0  0  0  0  0  0  0  0
  141.3505   76.7852  223.2252 H   0  0  0  0  0  0  0  0  0  0  0  0
  141.8660   78.2053  222.3288 H   0  0  0  0  0  0  0  0  0  0  0  0
  140.6803   79.9550  223.4277 H   0  0  0  0  0  0  0  0  0  0  0  0
  138.5066   81.0222  223.9539 H   0  0  0  0  0  0  0  0  0  0  0  0
  136.3531   79.8218  223.5955 H   0  0  0  0  0  0  0  0  0  0  0  0
  136.3913   77.4861  222.6723 H   0  0  0  0  0  0  0  0  0  0  0  0
  138.2020   75.3479  222.7926 H   0  0  0  0  0  0  0  0  0  0  0  0
  137.8630   76.0061  221.1389 H   0  0  0  0  0  0  0  0  0  0  0  0
  141.6166   72.0947  225.0382 H   0  0  0  0  0  0  0  0  0  0  0  0
  139.9133   72.6261  225.2636 H   0  0  0  0  0  0  0  0  0  0  0  0
  1  2  2  0
  2  3  1  0
  3  4  2  0
  4  5  1  0
  5  6  2  0
  5  7  1  0
  7  8  1  0
  8  9  1  0
  9 10  1  0
 10 11  2  0
 11 12  1  0
 12 13  1  0
 13 14  1  0
 14 15  1  0
 15 16  1  0
 16 17  1  0
 17 18  1  0
 18 19  1  0
 12 20  2  0
 20 21  1  0
 21 22  1  0
 22 23  1  0
 23 24  1  0
 24 25  1  0
 25 26  2  0
 26 27  1  0
 27 28  2  0
 28 29  1  0
 29 30  2  0
 30 31  1  0
 21 32  2  0
  9 33  1  0
  6  1  1  0
 32 10  1  0
 33  4  1  0
 19 15  1  0
 31 22  1  0
 30 25  1  0
  1 34  1  0
  2 35  1  0
  3 36  1  0
  6 37  1  0
  7 38  1  0
  7 39  1  0
  8 40  1  0
  8 41  1  0
 13 42  1  0
 14 43  1  0
 14 44  1  0
 15 45  1  1
 16 46  1  0
 16 47  1  0
 17 48  1  0
 17 49  1  0
 18 50  1  0
 18 51  1  0
 19 52  1  0
 23 53  1  0
 23 54  1  0
 24 55  1  0
 24 56  1  0
 26 57  1  0
 27 58  1  0
 28 59  1  0
 29 60  1  0
 31 61  1  0
 31 62  1  0
 33 63  1  0
 33 64  1  0
M  END
>  <smiles>  (31) 
c1ccc2c(c1)CCN(c1nc(NCC3CCCN3)nc(N3CCc4ccccc4C3)n1)C2

>  <score_type>  (31) 
oracle

>  <origin>  (31) 
autodockgpu

>  <m_score__min__energy>  (31) 
-9.8200000000000003

>  <m_primary>  (31) 
energy

>  <rmsd>  (31) 
11.124664123083766

>  <m_score__min__rmsd>  (31) 
11.124664123083766

>  <meeko>  (31) 
{"free_energy": -9.66, "intermolecular_energy": -11.15, "internal_energy": -1.15, "cluster_size": 41, "cluster_id": 1, "rank_in_cluster": 14}

>  <energy>  (31) 
-8.91

>  <cluster_rmsd>  (31) 
1.34

>  <cluster>  (31) 
1

$$$$

     RDKit          3D

 64 69  0  0  0  0  0  0  0  0999 V2000
  139.6250   68.4840  226.8740 C   0  0  0  0  0  0  0  0  0  0  0  0
  140.7460   69.2410  227.1510 C   0  0  0  0  0  0  0  0  0  0  0  0
  141.1100   70.3400  226.3640 C   0  0  0  0  0  0  0  0  0  0  0  0
  140.3060   70.6730  225.2670 C   0  0  0  0  0  0  0  0  0  0  0  0
  139.1790   69.9020  224.9980 C   0  0  0  0  0  0  0  0  0  0  0  0
  138.8320   68.8270  225.7780 C   0  0  0  0  0  0  0  0  0  0  0  0
  138.4020   70.3280  223.7950 C   0  0  0  0  0  0  0  0  0  0  0  0
  139.4210   70.5200  222.6610 C   0  0  0  0  0  0  0  0  0  0  0  0
  140.2650   71.6450  223.0800 N   0  0  0  0  0  0  0  0  0  0  0  0
  140.6630   72.5270  222.0440 C   0  0  0  0  0  0  0  0  0  0  0  0
  141.1720   72.1280  220.8700 N   0  0  0  0  0  0  0  0  0  0  0  0
  141.5290   73.0290  219.9010 C   0  0  0  0  0  0  0  0  0  0  0  0
  142.0390   72.6400  218.6620 N   0  0  0  0  0  0  0  0  0  0  0  0
  143.4410   72.4530  218.3470 C   0  0  0  0  0  0  0  0  0  0  0  0
  144.2790   72.6370  219.6050 C   0  0  2  0  0  0  0  0  0  0  0  0
  144.4200   74.1290  219.9180 C   0  0  0  0  0  0  0  0  0  0  0  0
  145.6500   74.1260  220.7980 C   0  0  0  0  0  0  0  0  0  0  0  0
  146.3250   72.7960  220.5610 C   0  0  0  0  0  0  0  0  0  0  0  0
  145.6790   72.3200  219.3480 N   0  0  0  0  0  0  0  0  0  0  0  0
  141.3440   74.3360  220.1840 N   0  0  0  0  0  0  0  0  0  0  0  0
  140.8350   74.7730  221.3470 C   0  0  0  0  0  0  0  0  0  0  0  0
  140.6560   76.1570  221.5820 N   0  0  0  0  0  0  0  0  0  0  0  0
  140.1290   76.9880  220.4830 C   0  0  0  0  0  0  0  0  0  0  0  0
  141.3440   77.8680  220.1230 C   0  0  0  0  0  0  0  0  0  0  0  0
  141.4980   78.7790  221.3180 C   0  0  0  0  0  0  0  0  0  0  0  0
  141.8220   80.0960  221.1020 C   0  0  0  0  0  0  0  0  0  0  0  0
  141.9480   80.9130  222.2050 C   0  0  0  0  0  0  0  0  0  0  0  0
  141.7560   80.4420  223.5080 C   0  0  0  0  0  0  0  0  0  0  0  0
  141.4240   79.0930  223.6920 C   0  0  0  0  0  0  0  0  0  0  0  0
  141.2960   78.2610  222.6040 C   0  0  0  0  0  0  0  0  0  0  0  0
  140.9460   76.8290  222.8250 C   0  0  0  0  0  0  0  0  0  0  0  0
  140.5030   73.8390  222.2610 N   0  0  0  0  0  0  0  0  0  0  0  0
  140.6840   71.8480  224.4470 C   0  0  0  0  0  0  0  0  0  0  0  0
  139.3611   67.6241  227.5072 H   0  0  0  0  0  0  0  0  0  0  0  0
  141.3713   68.9727  228.0153 H   0  0  0  0  0  0  0  0  0  0  0  0
  142.0079   70.9291  226.6021 H   0  0  0  0  0  0  0  0  0  0  0  0
  137.9333   68.2388  225.5403 H   0  0  0  0  0  0  0  0  0  0  0  0
  137.6707   69.5532  223.5213 H   0  0  0  0  0  0  0  0  0  0  0  0
  137.8453   71.2564  223.9901 H   0  0  0  0  0  0  0  0  0  0  0  0
  140.0276   69.6116  222.5311 H   0  0  0  0  0  0  0  0  0  0  0  0
  138.9278   70.7160  221.6975 H   0  0  0  0  0  0  0  0  0  0  0  0
  141.3250   72.4680  217.8860 H   0  0  0  0  0  0  0  0  0  0  0  0
  143.5945   71.4384  217.9506 H   0  0  0  0  0  0  0  0  0  0  0  0
  143.7470   73.1942  217.5940 H   0  0  0  0  0  0  0  0  0  0  0  0
  143.7937   72.0215  220.3768 H   0  0  0  0  0  0  0  0  0  0  0  0
  144.5790   74.7200  219.0040 H   0  0  0  0  0  0  0  0  0  0  0  0
  143.5312   74.5799  220.3836 H   0  0  0  0  0  0  0  0  0  0  0  0
  146.3219   74.9512  220.5193 H   0  0  0  0  0  0  0  0  0  0  0  0
  145.3888   74.2633  221.8577 H   0  0  0  0  0  0  0  0  0  0  0  0
  147.4074   72.9220  220.4105 H   0  0  0  0  0  0  0  0  0  0  0  0
  146.2284   72.1009  221.4081 H   0  0  0  0  0  0  0  0  0  0  0  0
  145.8050   71.3100  219.1670 H   0  0  0  0  0  0  0  0  0  0  0  0
  139.8190   76.3684  219.6286 H   0  0  0  0  0  0  0  0  0  0  0  0
  139.2338   77.5650  220.7579 H   0  0  0  0  0  0  0  0  0  0  0  0
  142.2447   77.2528  219.9810 H   0  0  0  0  0  0  0  0  0  0  0  0
  141.2040   78.4211  219.1825 H   0  0  0  0  0  0  0  0  0  0  0  0
  141.9756   80.4851  220.0847 H   0  0  0  0  0  0  0  0  0  0  0  0
  142.2084   81.9712  222.0555 H   0  0  0  0  0  0  0  0  0  0  0  0
  141.8634   81.1164  224.3703 H   0  0  0  0  0  0  0  0  0  0  0  0
  141.2657   78.6993  224.7068 H   0  0  0  0  0  0  0  0  0  0  0  0
  141.7929   76.3256  223.3142 H   0  0  0  0  0  0  0  0  0  0  0  0
  140.0469   76.7874  223.4573 H   0  0  0  0  0  0  0  0  0  0  0  0
  141.7756   71.9797  224.4788 H   0  0  0  0  0  0  0  0  0  0  0  0
  140.1909   72.7454  224.8488 H   0  0  0  0  0  0  0  0  0  0  0  0
  1  2  2  0
  2  3  1  0
  3  4  2  0
  4  5  1  0
  5  6  2  0
  5  7  1  0
  7  8  1  0
  8  9  1  0
  9 10  1  0
 10 11  2  0
 11 12  1  0
 12 13  1  0
 13 14  1  0
 14 15  1  0
 15 16  1  0
 16 17  1  0
 17 18  1  0
 18 19  1  0
 12 20  2  0
 20 21  1  0
 21 22  1  0
 22 23  1  0
 23 24  1  0
 24 25  1  0
 25 26  2  0
 26 27  1  0
 27 28  2  0
 28 29  1  0
 29 30  2  0
 30 31  1  0
 21 32  2  0
  9 33  1  0
  6  1  1  0
 32 10  1  0
 33  4  1  0
 19 15  1  0
 31 22  1  0
 30 25  1  0
  1 34  1  0
  2 35  1  0
  3 36  1  0
  6 37  1  0
  7 38  1  0
  7 39  1  0
  8 40  1  0
  8 41  1  0
 13 42  1  0
 14 43  1  0
 14 44  1  0
 15 45  1  1
 16 46  1  0
 16 47  1  0
 17 48  1  0
 17 49  1  0
 18 50  1  0
 18 51  1  0
 19 52  1  0
 23 53  1  0
 23 54  1  0
 24 55  1  0
 24 56  1  0
 26 57  1  0
 27 58  1  0
 28 59  1  0
 29 60  1  0
 31 61  1  0
 31 62  1  0
 33 63  1  0
 33 64  1  0
M  END
>  <smiles>  (32) 
c1ccc2c(c1)CCN(c1nc(NCC3CCCN3)nc(N3CCc4ccccc4C3)n1)C2

>  <score_type>  (32) 
oracle

>  <origin>  (32) 
autodockgpu

>  <m_score__min__energy>  (32) 
-9.8200000000000003

>  <m_primary>  (32) 
energy

>  <rmsd>  (32) 
10.729672450555114

>  <m_score__min__rmsd>  (32) 
10.729672450555114

>  <meeko>  (32) 
{"free_energy": -9.72, "intermolecular_energy": -11.21, "internal_energy": -1.21, "cluster_size": 41, "cluster_id": 1, "rank_in_cluster": 12}

>  <energy>  (32) 
-8.88

>  <cluster_rmsd>  (32) 
1.3

>  <cluster>  (32) 
1

$$$$

     RDKit          3D

 64 69  0  0  0  0  0  0  0  0999 V2000
  139.8710   68.8210  227.6630 C   0  0  0  0  0  0  0  0  0  0  0  0
  140.8920   69.7340  227.8370 C   0  0  0  0  0  0  0  0  0  0  0  0
  141.1610   70.7330  226.8950 C   0  0  0  0  0  0  0  0  0  0  0  0
  140.3650   70.7990  225.7440 C   0  0  0  0  0  0  0  0  0  0  0  0
  139.3390   69.8720  225.5800 C   0  0  0  0  0  0  0  0  0  0  0  0
  139.0850   68.8980  226.5130 C   0  0  0  0  0  0  0  0  0  0  0  0
  138.5620   70.0170  224.3120 C   0  0  0  0  0  0  0  0  0  0  0  0
  139.5940   70.1470  223.1800 C   0  0  0  0  0  0  0  0  0  0  0  0
  140.2940   71.4120  223.4320 N   0  0  0  0  0  0  0  0  0  0  0  0
  140.6290   72.1630  222.2770 C   0  0  0  0  0  0  0  0  0  0  0  0
  141.1090   71.6300  221.1450 N   0  0  0  0  0  0  0  0  0  0  0  0
  141.4050   72.4080  220.0570 C   0  0  0  0  0  0  0  0  0  0  0  0
  141.8830   71.8760  218.8580 N   0  0  0  0  0  0  0  0  0  0  0  0
  143.2730   71.8290  218.4510 C   0  0  0  0  0  0  0  0  0  0  0  0
  144.0740   72.8560  219.2380 C   0  0  2  0  0  0  0  0  0  0  0  0
  145.5680   72.6660  218.9640 C   0  0  0  0  0  0  0  0  0  0  0  0
  146.1730   73.3510  220.1700 C   0  0  0  0  0  0  0  0  0  0  0  0
  145.0600   73.4650  221.1830 C   0  0  0  0  0  0  0  0  0  0  0  0
  144.0580   72.5480  220.6630 N   0  0  0  0  0  0  0  0  0  0  0  0
  141.1910   73.7360  220.1780 N   0  0  0  0  0  0  0  0  0  0  0  0
  140.7100   74.3050  221.2940 C   0  0  0  0  0  0  0  0  0  0  0  0
  140.4970   75.7030  221.3580 N   0  0  0  0  0  0  0  0  0  0  0  0
  140.6370   76.4870  220.1160 C   0  0  0  0  0  0  0  0  0  0  0  0
  141.9050   77.3210  220.3940 C   0  0  0  0  0  0  0  0  0  0  0  0
  141.4720   78.2900  221.4690 C   0  0  0  0  0  0  0  0  0  0  0  0
  141.9180   79.5870  221.4030 C   0  0  0  0  0  0  0  0  0  0  0  0
  141.5030   80.4570  222.3880 C   0  0  0  0  0  0  0  0  0  0  0  0
  140.6560   80.0580  223.4270 C   0  0  0  0  0  0  0  0  0  0  0  0
  140.2180   78.7280  223.4640 C   0  0  0  0  0  0  0  0  0  0  0  0
  140.6230   77.8430  222.4910 C   0  0  0  0  0  0  0  0  0  0  0  0
  140.1460   76.4320  222.5520 C   0  0  0  0  0  0  0  0  0  0  0  0
  140.4380   73.4880  222.3320 N   0  0  0  0  0  0  0  0  0  0  0  0
  140.6400   71.8690  224.7570 C   0  0  0  0  0  0  0  0  0  0  0  0
  139.6803   68.0452  228.4191 H   0  0  0  0  0  0  0  0  0  0  0  0
  141.5125   69.6742  228.7433 H   0  0  0  0  0  0  0  0  0  0  0  0
  141.9793   71.4506  227.0546 H   0  0  0  0  0  0  0  0  0  0  0  0
  138.2655   68.1815  226.3548 H   0  0  0  0  0  0  0  0  0  0  0  0
  137.9300   69.1313  224.1502 H   0  0  0  0  0  0  0  0  0  0  0  0
  137.8999   70.8946  224.3494 H   0  0  0  0  0  0  0  0  0  0  0  0
  140.3009   69.3046  223.2054 H   0  0  0  0  0  0  0  0  0  0  0  0
  139.1168   70.1347  222.1889 H   0  0  0  0  0  0  0  0  0  0  0  0
  141.1520   71.4730  218.1920 H   0  0  0  0  0  0  0  0  0  0  0  0
  143.6767   70.8243  218.6446 H   0  0  0  0  0  0  0  0  0  0  0  0
  143.3456   72.0562  217.3772 H   0  0  0  0  0  0  0  0  0  0  0  0
  143.6495   73.8336  218.9659 H   0  0  0  0  0  0  0  0  0  0  0  0
  145.8393   71.6007  218.9263 H   0  0  0  0  0  0  0  0  0  0  0  0
  145.9061   73.0680  217.9975 H   0  0  0  0  0  0  0  0  0  0  0  0
  147.0001   72.7503  220.5763 H   0  0  0  0  0  0  0  0  0  0  0  0
  146.5847   74.3373  219.9098 H   0  0  0  0  0  0  0  0  0  0  0  0
  145.4001   73.1555  222.1823 H   0  0  0  0  0  0  0  0  0  0  0  0
  144.6877   74.4925  221.3082 H   0  0  0  0  0  0  0  0  0  0  0  0
  143.1140   72.6790  221.0620 H   0  0  0  0  0  0  0  0  0  0  0  0
  140.7752   75.8306  219.2442 H   0  0  0  0  0  0  0  0  0  0  0  0
  139.7527   77.0964  219.8781 H   0  0  0  0  0  0  0  0  0  0  0  0
  142.7246   76.6803  220.7513 H   0  0  0  0  0  0  0  0  0  0  0  0
  142.2865   77.8267  219.4947 H   0  0  0  0  0  0  0  0  0  0  0  0
  142.5831   79.9199  220.5925 H   0  0  0  0  0  0  0  0  0  0  0  0
  141.8496   81.5005  222.3559 H   0  0  0  0  0  0  0  0  0  0  0  0
  140.3401   80.7743  224.1997 H   0  0  0  0  0  0  0  0  0  0  0  0
  139.5504   78.3910  224.2707 H   0  0  0  0  0  0  0  0  0  0  0  0
  140.6045   75.9370  223.4207 H   0  0  0  0  0  0  0  0  0  0  0  0
  139.0496   76.4420  222.6404 H   0  0  0  0  0  0  0  0  0  0  0  0
  141.7088   72.1275  224.7868 H   0  0  0  0  0  0  0  0  0  0  0  0
  140.0375   72.7554  225.0046 H   0  0  0  0  0  0  0  0  0  0  0  0
  1  2  2  0
  2  3  1  0
  3  4  2  0
  4  5  1  0
  5  6  2  0
  5  7  1  0
  7  8  1  0
  8  9  1  0
  9 10  1  0
 10 11  2  0
 11 12  1  0
 12 13  1  0
 13 14  1  0
 14 15  1  0
 15 16  1  0
 16 17  1  0
 17 18  1  0
 18 19  1  0
 12 20  2  0
 20 21  1  0
 21 22  1  0
 22 23  1  0
 23 24  1  0
 24 25  1  0
 25 26  2  0
 26 27  1  0
 27 28  2  0
 28 29  1  0
 29 30  2  0
 30 31  1  0
 21 32  2  0
  9 33  1  0
  6  1  1  0
 32 10  1  0
 33  4  1  0
 19 15  1  0
 31 22  1  0
 30 25  1  0
  1 34  1  0
  2 35  1  0
  3 36  1  0
  6 37  1  0
  7 38  1  0
  7 39  1  0
  8 40  1  0
  8 41  1  0
 13 42  1  0
 14 43  1  0
 14 44  1  0
 15 45  1  1
 16 46  1  0
 16 47  1  0
 17 48  1  0
 17 49  1  0
 18 50  1  0
 18 51  1  0
 19 52  1  0
 23 53  1  0
 23 54  1  0
 24 55  1  0
 24 56  1  0
 26 57  1  0
 27 58  1  0
 28 59  1  0
 29 60  1  0
 31 61  1  0
 31 62  1  0
 33 63  1  0
 33 64  1  0
M  END
>  <smiles>  (33) 
c1ccc2c(c1)CCN(c1nc(NCC3CCCN3)nc(N3CCc4ccccc4C3)n1)C2

>  <score_type>  (33) 
oracle

>  <origin>  (33) 
autodockgpu

>  <m_score__min__energy>  (33) 
-9.8200000000000003

>  <m_primary>  (33) 
energy

>  <rmsd>  (33) 
10.934601493827863

>  <m_score__min__rmsd>  (33) 
10.934601493827863

>  <meeko>  (33) 
{"free_energy": -8.94, "intermolecular_energy": -10.43, "internal_energy": -1.96, "cluster_size": 41, "cluster_id": 1, "rank_in_cluster": 29}

>  <energy>  (33) 
-8.83

>  <cluster_rmsd>  (33) 
0.93

>  <cluster>  (33) 
1

$$$$

     RDKit          3D

 64 69  0  0  0  0  0  0  0  0999 V2000
  139.8980   68.7600  227.5210 C   0  0  0  0  0  0  0  0  0  0  0  0
  140.8770   69.7130  227.7210 C   0  0  0  0  0  0  0  0  0  0  0  0
  141.1080   70.7420  226.8020 C   0  0  0  0  0  0  0  0  0  0  0  0
  140.3160   70.7970  225.6470 C   0  0  0  0  0  0  0  0  0  0  0  0
  139.3330   69.8310  225.4570 C   0  0  0  0  0  0  0  0  0  0  0  0
  139.1160   68.8280  226.3670 C   0  0  0  0  0  0  0  0  0  0  0  0
  138.5580   69.9680  224.1860 C   0  0  0  0  0  0  0  0  0  0  0  0
  139.5900   70.1660  223.0640 C   0  0  0  0  0  0  0  0  0  0  0  0
  140.2330   71.4550  223.3480 N   0  0  0  0  0  0  0  0  0  0  0  0
  140.5410   72.2440  222.2110 C   0  0  0  0  0  0  0  0  0  0  0  0
  140.9270   71.7440  221.0290 N   0  0  0  0  0  0  0  0  0  0  0  0
  141.2030   72.5580  219.9620 C   0  0  0  0  0  0  0  0  0  0  0  0
  141.5820   72.0620  218.7140 N   0  0  0  0  0  0  0  0  0  0  0  0
  142.9460   71.8900  218.2540 C   0  0  0  0  0  0  0  0  0  0  0  0
  143.8630   72.8550  218.9920 C   0  0  2  0  0  0  0  0  0  0  0  0
  145.3240   72.5160  218.6860 C   0  0  0  0  0  0  0  0  0  0  0  0
  146.0240   73.1700  219.8570 C   0  0  0  0  0  0  0  0  0  0  0  0
  144.9550   73.4160  220.8930 C   0  0  0  0  0  0  0  0  0  0  0  0
  143.8570   72.5870  220.4250 N   0  0  0  0  0  0  0  0  0  0  0  0
  141.0680   73.8870  220.1560 N   0  0  0  0  0  0  0  0  0  0  0  0
  140.6810   74.4250  221.3250 C   0  0  0  0  0  0  0  0  0  0  0  0
  140.5480   75.8270  221.4650 N   0  0  0  0  0  0  0  0  0  0  0  0
  140.3800   76.6370  220.2440 C   0  0  0  0  0  0  0  0  0  0  0  0
  141.7070   77.4220  220.1820 C   0  0  0  0  0  0  0  0  0  0  0  0
  141.6170   78.3760  221.3500 C   0  0  0  0  0  0  0  0  0  0  0  0
  142.0790   79.6590  221.1860 C   0  0  0  0  0  0  0  0  0  0  0  0
  141.9780   80.5170  222.2600 C   0  0  0  0  0  0  0  0  0  0  0  0
  141.4280   80.1200  223.4820 C   0  0  0  0  0  0  0  0  0  0  0  0
  140.9640   78.8050  223.6150 C   0  0  0  0  0  0  0  0  0  0  0  0
  141.0580   77.9320  222.5550 C   0  0  0  0  0  0  0  0  0  0  0  0
  140.5610   76.5370  222.7210 C   0  0  0  0  0  0  0  0  0  0  0  0
  140.4250   73.5730  222.3380 N   0  0  0  0  0  0  0  0  0  0  0  0
  140.5510   71.8990  224.6840 C   0  0  0  0  0  0  0  0  0  0  0  0
  139.7371   67.9604  228.2591 H   0  0  0  0  0  0  0  0  0  0  0  0
  141.4938   69.6615  228.6303 H   0  0  0  0  0  0  0  0  0  0  0  0
  141.8934   71.4909  226.9817 H   0  0  0  0  0  0  0  0  0  0  0  0
  138.3291   68.0805  226.1881 H   0  0  0  0  0  0  0  0  0  0  0  0
  137.9664   69.0591  224.0019 H   0  0  0  0  0  0  0  0  0  0  0  0
  137.8582   70.8152  224.2365 H   0  0  0  0  0  0  0  0  0  0  0  0
  140.3325   69.3545  223.0766 H   0  0  0  0  0  0  0  0  0  0  0  0
  139.1201   70.1538  222.0695 H   0  0  0  0  0  0  0  0  0  0  0  0
  140.7920   71.7890  218.0500 H   0  0  0  0  0  0  0  0  0  0  0  0
  143.2698   70.8569  218.4487 H   0  0  0  0  0  0  0  0  0  0  0  0
  142.9945   72.0956  217.1745 H   0  0  0  0  0  0  0  0  0  0  0  0
  143.5261   73.8615  218.7032 H   0  0  0  0  0  0  0  0  0  0  0  0
  145.4918   71.4290  218.6710 H   0  0  0  0  0  0  0  0  0  0  0  0
  145.6721   72.8592  217.7006 H   0  0  0  0  0  0  0  0  0  0  0  0
  146.8007   72.5031  220.2595 H   0  0  0  0  0  0  0  0  0  0  0  0
  146.5208   74.1052  219.5594 H   0  0  0  0  0  0  0  0  0  0  0  0
  145.2913   73.1013  221.8919 H   0  0  0  0  0  0  0  0  0  0  0  0
  144.6857   74.4774  220.9977 H   0  0  0  0  0  0  0  0  0  0  0  0
  142.9400   72.8180  220.8430 H   0  0  0  0  0  0  0  0  0  0  0  0
  140.2535   75.9986  219.3572 H   0  0  0  0  0  0  0  0  0  0  0  0
  139.4887   77.2813  220.2632 H   0  0  0  0  0  0  0  0  0  0  0  0
  142.5676   76.7461  220.2937 H   0  0  0  0  0  0  0  0  0  0  0  0
  141.8510   77.9383  219.2215 H   0  0  0  0  0  0  0  0  0  0  0  0
  142.5141   79.9900  220.2315 H   0  0  0  0  0  0  0  0  0  0  0  0
  142.3426   81.5491  222.1517 H   0  0  0  0  0  0  0  0  0  0  0  0
  141.3608   80.8262  224.3227 H   0  0  0  0  0  0  0  0  0  0  0  0
  140.5247   78.4701  224.5663 H   0  0  0  0  0  0  0  0  0  0  0  0
  141.2175   76.0052  223.4254 H   0  0  0  0  0  0  0  0  0  0  0  0
  139.5304   76.5811  223.1030 H   0  0  0  0  0  0  0  0  0  0  0  0
  141.6075   72.2024  224.7265 H   0  0  0  0  0  0  0  0  0  0  0  0
  139.9099   72.7537  224.9456 H   0  0  0  0  0  0  0  0  0  0  0  0
  1  2  2  0
  2  3  1  0
  3  4  2  0
  4  5  1  0
  5  6  2  0
  5  7  1  0
  7  8  1  0
  8  9  1  0
  9 10  1  0
 10 11  2  0
 11 12  1  0
 12 13  1  0
 13 14  1  0
 14 15  1  0
 15 16  1  0
 16 17  1  0
 17 18  1  0
 18 19  1  0
 12 20  2  0
 20 21  1  0
 21 22  1  0
 22 23  1  0
 23 24  1  0
 24 25  1  0
 25 26  2  0
 26 27  1  0
 27 28  2  0
 28 29  1  0
 29 30  2  0
 30 31  1  0
 21 32  2  0
  9 33  1  0
  6  1  1  0
 32 10  1  0
 33  4  1  0
 19 15  1  0
 31 22  1  0
 30 25  1  0
  1 34  1  0
  2 35  1  0
  3 36  1  0
  6 37  1  0
  7 38  1  0
  7 39  1  0
  8 40  1  0
  8 41  1  0
 13 42  1  0
 14 43  1  0
 14 44  1  0
 15 45  1  1
 16 46  1  0
 16 47  1  0
 17 48  1  0
 17 49  1  0
 18 50  1  0
 18 51  1  0
 19 52  1  0
 23 53  1  0
 23 54  1  0
 24 55  1  0
 24 56  1  0
 26 57  1  0
 27 58  1  0
 28 59  1  0
 29 60  1  0
 31 61  1  0
 31 62  1  0
 33 63  1  0
 33 64  1  0
M  END
>  <smiles>  (34) 
c1ccc2c(c1)CCN(c1nc(NCC3CCCN3)nc(N3CCc4ccccc4C3)n1)C2

>  <score_type>  (34) 
oracle

>  <origin>  (34) 
autodockgpu

>  <m_score__min__energy>  (34) 
-9.8200000000000003

>  <m_primary>  (34) 
energy

>  <rmsd>  (34) 
10.876624068543926

>  <m_score__min__rmsd>  (34) 
10.876624068543926

>  <meeko>  (34) 
{"free_energy": -8.91, "intermolecular_energy": -10.4, "internal_energy": -1.96, "cluster_size": 41, "cluster_id": 1, "rank_in_cluster": 31}

>  <energy>  (34) 
-8.75

>  <cluster_rmsd>  (34) 
1.82

>  <cluster>  (34) 
1

$$$$

     RDKit          3D

 64 69  0  0  0  0  0  0  0  0999 V2000
  140.0100   68.7240  228.0320 C   0  0  0  0  0  0  0  0  0  0  0  0
  140.9430   69.7230  228.2270 C   0  0  0  0  0  0  0  0  0  0  0  0
  141.1500   70.7380  227.2850 C   0  0  0  0  0  0  0  0  0  0  0  0
  140.3810   70.7300  226.1150 C   0  0  0  0  0  0  0  0  0  0  0  0
  139.4430   69.7180  225.9300 C   0  0  0  0  0  0  0  0  0  0  0  0
  139.2510   68.7290  226.8610 C   0  0  0  0  0  0  0  0  0  0  0  0
  138.6910   69.7890  224.6410 C   0  0  0  0  0  0  0  0  0  0  0  0
  139.7370   70.0040  223.5350 C   0  0  0  0  0  0  0  0  0  0  0  0
  140.3180   71.3260  223.7970 N   0  0  0  0  0  0  0  0  0  0  0  0
  140.6160   72.0990  222.6470 C   0  0  0  0  0  0  0  0  0  0  0  0
  141.2770   71.6340  221.5770 N   0  0  0  0  0  0  0  0  0  0  0  0
  141.5270   72.4270  220.4890 C   0  0  0  0  0  0  0  0  0  0  0  0
  142.1900   71.9610  219.3530 N   0  0  0  0  0  0  0  0  0  0  0  0
  143.6170   71.7350  219.2440 C   0  0  0  0  0  0  0  0  0  0  0  0
  144.3460   72.5040  220.3370 C   0  0  2  0  0  0  0  0  0  0  0  0
  144.3270   74.0010  220.0170 C   0  0  0  0  0  0  0  0  0  0  0  0
  145.4880   74.4910  220.8530 C   0  0  0  0  0  0  0  0  0  0  0  0
  146.2960   73.2640  221.1990 C   0  0  0  0  0  0  0  0  0  0  0  0
  145.7830   72.2700  220.2700 N   0  0  0  0  0  0  0  0  0  0  0  0
  141.0780   73.7000  220.5440 N   0  0  0  0  0  0  0  0  0  0  0  0
  140.4110   74.2000  221.5970 C   0  0  0  0  0  0  0  0  0  0  0  0
  139.9570   75.5410  221.5920 N   0  0  0  0  0  0  0  0  0  0  0  0
  140.9100   76.5990  221.2090 C   0  0  0  0  0  0  0  0  0  0  0  0
  141.1150   77.3550  222.5380 C   0  0  0  0  0  0  0  0  0  0  0  0
  139.7880   78.0360  222.7750 C   0  0  0  0  0  0  0  0  0  0  0  0
  139.7850   79.3160  223.2740 C   0  0  0  0  0  0  0  0  0  0  0  0
  138.5640   79.9220  223.4730 C   0  0  0  0  0  0  0  0  0  0  0  0
  137.3560   79.2790  223.1850 C   0  0  0  0  0  0  0  0  0  0  0  0
  137.3940   77.9750  222.6760 C   0  0  0  0  0  0  0  0  0  0  0  0
  138.6040   77.3510  222.4710 C   0  0  0  0  0  0  0  0  0  0  0  0
  138.6200   75.9610  221.9320 C   0  0  0  0  0  0  0  0  0  0  0  0
  140.1960   73.3710  222.6380 N   0  0  0  0  0  0  0  0  0  0  0  0
  140.5880   71.8170  225.1280 C   0  0  0  0  0  0  0  0  0  0  0  0
  139.8673   67.9371  228.7873 H   0  0  0  0  0  0  0  0  0  0  0  0
  141.5415   69.7214  229.1499 H   0  0  0  0  0  0  0  0  0  0  0  0
  141.8996   71.5237  227.4601 H   0  0  0  0  0  0  0  0  0  0  0  0
  138.5018   67.9430  226.6852 H   0  0  0  0  0  0  0  0  0  0  0  0
  138.1434   68.8507  224.4686 H   0  0  0  0  0  0  0  0  0  0  0  0
  137.9544   70.6059  224.6553 H   0  0  0  0  0  0  0  0  0  0  0  0
  140.5134   69.2263  223.5836 H   0  0  0  0  0  0  0  0  0  0  0  0
  139.2885   69.9466  222.5322 H   0  0  0  0  0  0  0  0  0  0  0  0
  141.5840   71.7570  218.4990 H   0  0  0  0  0  0  0  0  0  0  0  0
  143.8258   70.6604  219.3522 H   0  0  0  0  0  0  0  0  0  0  0  0
  143.9658   72.0833  218.2606 H   0  0  0  0  0  0  0  0  0  0  0  0
  143.8667   72.2016  221.2798 H   0  0  0  0  0  0  0  0  0  0  0  0
  144.4940   74.1870  218.9458 H   0  0  0  0  0  0  0  0  0  0  0  0
  143.3704   74.4985  220.2346 H   0  0  0  0  0  0  0  0  0  0  0  0
  146.0996   75.2024  220.2787 H   0  0  0  0  0  0  0  0  0  0  0  0
  145.1423   75.0147  221.7564 H   0  0  0  0  0  0  0  0  0  0  0  0
  147.3703   73.4387  221.0395 H   0  0  0  0  0  0  0  0  0  0  0  0
  146.2039   72.9642  222.2533 H   0  0  0  0  0  0  0  0  0  0  0  0
  146.0130   71.2940  220.5210 H   0  0  0  0  0  0  0  0  0  0  0  0
  141.8554   76.1705  220.8447 H   0  0  0  0  0  0  0  0  0  0  0  0
  140.5511   77.2390  220.3895 H   0  0  0  0  0  0  0  0  0  0  0  0
  141.3477   76.6556  223.3546 H   0  0  0  0  0  0  0  0  0  0  0  0
  141.9552   78.0638  222.4983 H   0  0  0  0  0  0  0  0  0  0  0  0
  140.7246   79.8386  223.5065 H   0  0  0  0  0  0  0  0  0  0  0  0
  138.5383   80.9467  223.8721 H   0  0  0  0  0  0  0  0  0  0  0  0
  136.3954   79.7873  223.3549 H   0  0  0  0  0  0  0  0  0  0  0  0
  136.4571   77.4492  222.4399 H   0  0  0  0  0  0  0  0  0  0  0  0
  138.2134   75.2781  222.6925 H   0  0  0  0  0  0  0  0  0  0  0  0
  138.0084   75.9383  221.0180 H   0  0  0  0  0  0  0  0  0  0  0  0
  141.6291   72.1678  225.1838 H   0  0  0  0  0  0  0  0  0  0  0  0
  139.9045   72.6486  225.3543 H   0  0  0  0  0  0  0  0  0  0  0  0
  1  2  2  0
  2  3  1  0
  3  4  2  0
  4  5  1  0
  5  6  2  0
  5  7  1  0
  7  8  1  0
  8  9  1  0
  9 10  1  0
 10 11  2  0
 11 12  1  0
 12 13  1  0
 13 14  1  0
 14 15  1  0
 15 16  1  0
 16 17  1  0
 17 18  1  0
 18 19  1  0
 12 20  2  0
 20 21  1  0
 21 22  1  0
 22 23  1  0
 23 24  1  0
 24 25  1  0
 25 26  2  0
 26 27  1  0
 27 28  2  0
 28 29  1  0
 29 30  2  0
 30 31  1  0
 21 32  2  0
  9 33  1  0
  6  1  1  0
 32 10  1  0
 33  4  1  0
 19 15  1  0
 31 22  1  0
 30 25  1  0
  1 34  1  0
  2 35  1  0
  3 36  1  0
  6 37  1  0
  7 38  1  0
  7 39  1  0
  8 40  1  0
  8 41  1  0
 13 42  1  0
 14 43  1  0
 14 44  1  0
 15 45  1  1
 16 46  1  0
 16 47  1  0
 17 48  1  0
 17 49  1  0
 18 50  1  0
 18 51  1  0
 19 52  1  0
 23 53  1  0
 23 54  1  0
 24 55  1  0
 24 56  1  0
 26 57  1  0
 27 58  1  0
 28 59  1  0
 29 60  1  0
 31 61  1  0
 31 62  1  0
 33 63  1  0
 33 64  1  0
M  END
>  <smiles>  (35) 
c1ccc2c(c1)CCN(c1nc(NCC3CCCN3)nc(N3CCc4ccccc4C3)n1)C2

>  <score_type>  (35) 
oracle

>  <origin>  (35) 
autodockgpu

>  <m_score__min__energy>  (35) 
-9.8200000000000003

>  <m_primary>  (35) 
energy

>  <rmsd>  (35) 
11.189221786372858

>  <m_score__min__rmsd>  (35) 
11.189221786372858

>  <meeko>  (35) 
{"free_energy": -9.72, "intermolecular_energy": -11.22, "internal_energy": -1.22, "cluster_size": 41, "cluster_id": 1, "rank_in_cluster": 10}

>  <energy>  (35) 
-8.61

>  <cluster_rmsd>  (35) 
1.67

>  <cluster>  (35) 
1

$$$$

     RDKit          3D

 64 69  0  0  0  0  0  0  0  0999 V2000
  139.8810   68.5610  226.9950 C   0  0  0  0  0  0  0  0  0  0  0  0
  141.0520   69.2830  227.1140 C   0  0  0  0  0  0  0  0  0  0  0  0
  141.3390   70.3710  226.2820 C   0  0  0  0  0  0  0  0  0  0  0  0
  140.4030   70.7290  225.3030 C   0  0  0  0  0  0  0  0  0  0  0  0
  139.2270   69.9930  225.1930 C   0  0  0  0  0  0  0  0  0  0  0  0
  138.9580   68.9280  226.0160 C   0  0  0  0  0  0  0  0  0  0  0  0
  138.3060   70.4430  224.1050 C   0  0  0  0  0  0  0  0  0  0  0  0
  139.1670   70.6050  222.8420 C   0  0  0  0  0  0  0  0  0  0  0  0
  140.0940   71.7040  223.1390 N   0  0  0  0  0  0  0  0  0  0  0  0
  140.3730   72.5740  222.0550 C   0  0  0  0  0  0  0  0  0  0  0  0
  140.6720   72.1620  220.8160 N   0  0  0  0  0  0  0  0  0  0  0  0
  140.9230   73.0520  219.8050 C   0  0  0  0  0  0  0  0  0  0  0  0
  141.2130   72.6490  218.5010 N   0  0  0  0  0  0  0  0  0  0  0  0
  142.3710   73.0560  217.7310 C   0  0  0  0  0  0  0  0  0  0  0  0
  142.4230   74.5750  217.6420 C   0  0  2  0  0  0  0  0  0  0  0  0
  143.3380   74.9940  216.4890 C   0  0  0  0  0  0  0  0  0  0  0  0
  143.6770   76.4130  216.8890 C   0  0  0  0  0  0  0  0  0  0  0  0
  143.3250   76.5250  218.3530 C   0  0  0  0  0  0  0  0  0  0  0  0
  143.1790   75.1360  218.7550 N   0  0  0  0  0  0  0  0  0  0  0  0
  140.8550   74.3640  220.1160 N   0  0  0  0  0  0  0  0  0  0  0  0
  140.5560   74.8150  221.3450 C   0  0  0  0  0  0  0  0  0  0  0  0
  140.4900   76.2050  221.6080 N   0  0  0  0  0  0  0  0  0  0  0  0
  139.7900   77.0650  220.6360 C   0  0  0  0  0  0  0  0  0  0  0  0
  140.9460   77.8930  220.0350 C   0  0  0  0  0  0  0  0  0  0  0  0
  141.3780   78.7880  221.1730 C   0  0  0  0  0  0  0  0  0  0  0  0
  141.7110   80.0910  220.8930 C   0  0  0  0  0  0  0  0  0  0  0  0
  142.0920   80.8940  221.9460 C   0  0  0  0  0  0  0  0  0  0  0  0
  142.1460   80.4230  223.2610 C   0  0  0  0  0  0  0  0  0  0  0  0
  141.7980   79.0900  223.5130 C   0  0  0  0  0  0  0  0  0  0  0  0
  141.4170   78.2710  222.4740 C   0  0  0  0  0  0  0  0  0  0  0  0
  141.0540   76.8550  222.7650 C   0  0  0  0  0  0  0  0  0  0  0  0
  140.3200   73.8910  222.2970 N   0  0  0  0  0  0  0  0  0  0  0  0
  140.7010   71.8930  224.4350 C   0  0  0  0  0  0  0  0  0  0  0  0
  139.6793   67.7098  227.6619 H   0  0  0  0  0  0  0  0  0  0  0  0
  141.7809   68.9944  227.8857 H   0  0  0  0  0  0  0  0  0  0  0  0
  142.2783   70.9324  226.3942 H   0  0  0  0  0  0  0  0  0  0  0  0
  138.0187   68.3665  225.9039 H   0  0  0  0  0  0  0  0  0  0  0  0
  137.5216   69.6906  223.9360 H   0  0  0  0  0  0  0  0  0  0  0  0
  137.8087   71.3875  224.3707 H   0  0  0  0  0  0  0  0  0  0  0  0
  139.7226   69.6788  222.6338 H   0  0  0  0  0  0  0  0  0  0  0  0
  138.5536   70.8166  221.9537 H   0  0  0  0  0  0  0  0  0  0  0  0
  140.5140   71.9860  218.0410 H   0  0  0  0  0  0  0  0  0  0  0  0
  143.2839   72.6875  218.2218 H   0  0  0  0  0  0  0  0  0  0  0  0
  142.2995   72.6349  216.7173 H   0  0  0  0  0  0  0  0  0  0  0  0
  141.3752   74.9033  217.5756 H   0  0  0  0  0  0  0  0  0  0  0  0
  144.2376   74.3631  216.4377 H   0  0  0  0  0  0  0  0  0  0  0  0
  142.8822   74.9009  215.4922 H   0  0  0  0  0  0  0  0  0  0  0  0
  144.7489   76.6077  216.7371 H   0  0  0  0  0  0  0  0  0  0  0  0
  143.1246   77.1465  216.2833 H   0  0  0  0  0  0  0  0  0  0  0  0
  144.1297   77.0186  218.9176 H   0  0  0  0  0  0  0  0  0  0  0  0
  142.4255   77.1299  218.5401 H   0  0  0  0  0  0  0  0  0  0  0  0
  142.6800   75.0020  219.6500 H   0  0  0  0  0  0  0  0  0  0  0  0
  139.2865   76.4650  219.8637 H   0  0  0  0  0  0  0  0  0  0  0  0
  138.9955   77.6795  221.0844 H   0  0  0  0  0  0  0  0  0  0  0  0
  141.7712   77.2396  219.7154 H   0  0  0  0  0  0  0  0  0  0  0  0
  140.6444   78.4578  219.1406 H   0  0  0  0  0  0  0  0  0  0  0  0
  141.6748   80.4796  219.8646 H   0  0  0  0  0  0  0  0  0  0  0  0
  142.3628   81.9410  221.7450 H   0  0  0  0  0  0  0  0  0  0  0  0
  142.4558   81.0864  224.0819 H   0  0  0  0  0  0  0  0  0  0  0  0
  141.8291   78.6977  224.5402 H   0  0  0  0  0  0  0  0  0  0  0  0
  141.9582   76.3108  223.0753 H   0  0  0  0  0  0  0  0  0  0  0  0
  140.2995   76.8499  223.5655 H   0  0  0  0  0  0  0  0  0  0  0  0
  141.7902   71.9915  224.3173 H   0  0  0  0  0  0  0  0  0  0  0  0
  140.2944   72.8046  224.8973 H   0  0  0  0  0  0  0  0  0  0  0  0
  1  2  2  0
  2  3  1  0
  3  4  2  0
  4  5  1  0
  5  6  2  0
  5  7  1  0
  7  8  1  0
  8  9  1  0
  9 10  1  0
 10 11  2  0
 11 12  1  0
 12 13  1  0
 13 14  1  0
 14 15  1  0
 15 16  1  0
 16 17  1  0
 17 18  1  0
 18 19  1  0
 12 20  2  0
 20 21  1  0
 21 22  1  0
 22 23  1  0
 23 24  1  0
 24 25  1  0
 25 26  2  0
 26 27  1  0
 27 28  2  0
 28 29  1  0
 29 30  2  0
 30 31  1  0
 21 32  2  0
  9 33  1  0
  6  1  1  0
 32 10  1  0
 33  4  1  0
 19 15  1  0
 31 22  1  0
 30 25  1  0
  1 34  1  0
  2 35  1  0
  3 36  1  0
  6 37  1  0
  7 38  1  0
  7 39  1  0
  8 40  1  0
  8 41  1  0
 13 42  1  0
 14 43  1  0
 14 44  1  0
 15 45  1  6
 16 46  1  0
 16 47  1  0
 17 48  1  0
 17 49  1  0
 18 50  1  0
 18 51  1  0
 19 52  1  0
 23 53  1  0
 23 54  1  0
 24 55  1  0
 24 56  1  0
 26 57  1  0
 27 58  1  0
 28 59  1  0
 29 60  1  0
 31 61  1  0
 31 62  1  0
 33 63  1  0
 33 64  1  0
M  END
>  <smiles>  (36) 
c1ccc2c(c1)CCN(c1nc(NCC3CCCN3)nc(N3CCc4ccccc4C3)n1)C2

>  <score_type>  (36) 
oracle

>  <origin>  (36) 
autodockgpu

>  <m_score__min__energy>  (36) 
-9.8200000000000003

>  <m_primary>  (36) 
energy

>  <rmsd>  (36) 
10.744357991785602

>  <m_score__min__rmsd>  (36) 
10.744357991785602

>  <meeko>  (36) 
{"free_energy": -8.18, "intermolecular_energy": -9.67, "internal_energy": -2.02, "cluster_size": 2, "cluster_id": 3, "rank_in_cluster": 2}

>  <energy>  (36) 
-8.44

>  <cluster_rmsd>  (36) 
1.26

>  <cluster>  (36) 
1

$$$$

     RDKit          3D

 64 69  0  0  0  0  0  0  0  0999 V2000
  139.3010   67.9770  226.4410 C   0  0  0  0  0  0  0  0  0  0  0  0
  140.4370   68.6170  226.8930 C   0  0  0  0  0  0  0  0  0  0  0  0
  140.9190   69.7850  226.2900 C   0  0  0  0  0  0  0  0  0  0  0  0
  140.2190   70.3110  225.1970 C   0  0  0  0  0  0  0  0  0  0  0  0
  139.0750   69.6560  224.7500 C   0  0  0  0  0  0  0  0  0  0  0  0
  138.6130   68.5120  225.3510 C   0  0  0  0  0  0  0  0  0  0  0  0
  138.4150   70.2860  223.5670 C   0  0  0  0  0  0  0  0  0  0  0  0
  139.5260   70.5610  222.5410 C   0  0  0  0  0  0  0  0  0  0  0  0
  140.3960   71.5650  223.1660 N   0  0  0  0  0  0  0  0  0  0  0  0
  140.9170   72.5490  222.2890 C   0  0  0  0  0  0  0  0  0  0  0  0
  141.9080   72.3290  221.4140 N   0  0  0  0  0  0  0  0  0  0  0  0
  142.3640   73.3190  220.5840 C   0  0  0  0  0  0  0  0  0  0  0  0
  143.3770   73.1090  219.6470 N   0  0  0  0  0  0  0  0  0  0  0  0
  144.5270   72.2470  219.8270 C   0  0  0  0  0  0  0  0  0  0  0  0
  144.0680   70.8060  220.0010 C   0  0  2  0  0  0  0  0  0  0  0  0
  145.0050   69.8700  219.2340 C   0  0  0  0  0  0  0  0  0  0  0  0
  144.1280   68.6470  219.0780 C   0  0  0  0  0  0  0  0  0  0  0  0
  142.7170   69.1130  219.3440 C   0  0  0  0  0  0  0  0  0  0  0  0
  142.8360   70.5590  219.2610 N   0  0  0  0  0  0  0  0  0  0  0  0
  141.7690   74.5260  220.6880 N   0  0  0  0  0  0  0  0  0  0  0  0
  140.7720   74.7840  221.5510 C   0  0  0  0  0  0  0  0  0  0  0  0
  140.1810   76.0690  221.6080 N   0  0  0  0  0  0  0  0  0  0  0  0
  141.0190   77.2370  221.2770 C   0  0  0  0  0  0  0  0  0  0  0  0
  141.1470   77.9470  222.6410 C   0  0  0  0  0  0  0  0  0  0  0  0
  139.7560   78.4740  222.9060 C   0  0  0  0  0  0  0  0  0  0  0  0
  139.6210   79.7220  223.4640 C   0  0  0  0  0  0  0  0  0  0  0  0
  138.3440   80.1880  223.6880 C   0  0  0  0  0  0  0  0  0  0  0  0
  137.2090   79.4370  223.3660 C   0  0  0  0  0  0  0  0  0  0  0  0
  137.3810   78.1690  222.7970 C   0  0  0  0  0  0  0  0  0  0  0  0
  138.6490   77.6850  222.5670 C   0  0  0  0  0  0  0  0  0  0  0  0
  138.8080   76.3310  221.9630 C   0  0  0  0  0  0  0  0  0  0  0  0
  140.3680   73.7700  222.3420 N   0  0  0  0  0  0  0  0  0  0  0  0
  140.7210   71.5580  224.5720 C   0  0  0  0  0  0  0  0  0  0  0  0
  138.9435   67.0599  226.9320 H   0  0  0  0  0  0  0  0  0  0  0  0
  140.9799   68.1970  227.7526 H   0  0  0  0  0  0  0  0  0  0  0  0
  141.8272   70.2785  226.6663 H   0  0  0  0  0  0  0  0  0  0  0  0
  137.7044   68.0189  224.9752 H   0  0  0  0  0  0  0  0  0  0  0  0
  137.6656   69.6024  223.1414 H   0  0  0  0  0  0  0  0  0  0  0  0
  137.8960   71.2140  223.8490 H   0  0  0  0  0  0  0  0  0  0  0  0
  140.0906   69.6409  222.3296 H   0  0  0  0  0  0  0  0  0  0  0  0
  139.1184   70.9138  221.5822 H   0  0  0  0  0  0  0  0  0  0  0  0
  143.2860   73.6350  218.7220 H   0  0  0  0  0  0  0  0  0  0  0  0
  145.1790   72.3186  218.9440 H   0  0  0  0  0  0  0  0  0  0  0  0
  145.0813   72.5627  220.7231 H   0  0  0  0  0  0  0  0  0  0  0  0
  144.0014   70.6458  221.0872 H   0  0  0  0  0  0  0  0  0  0  0  0
  145.2872   70.2918  218.2580 H   0  0  0  0  0  0  0  0  0  0  0  0
  145.9649   69.6784  219.7360 H   0  0  0  0  0  0  0  0  0  0  0  0
  144.2119   68.2436  218.0581 H   0  0  0  0  0  0  0  0  0  0  0  0
  144.4258   67.8455  219.7701 H   0  0  0  0  0  0  0  0  0  0  0  0
  142.0222   68.7280  218.5830 H   0  0  0  0  0  0  0  0  0  0  0  0
  142.3163   68.7630  220.3068 H   0  0  0  0  0  0  0  0  0  0  0  0
  142.0430   71.0760  219.6750 H   0  0  0  0  0  0  0  0  0  0  0  0
  142.0029   76.9262  220.8958 H   0  0  0  0  0  0  0  0  0  0  0  0
  140.5945   77.8740  220.4870 H   0  0  0  0  0  0  0  0  0  0  0  0
  141.4531   77.2381  223.4244 H   0  0  0  0  0  0  0  0  0  0  0  0
  141.9086   78.7407  222.6372 H   0  0  0  0  0  0  0  0  0  0  0  0
  140.5017   80.3281  223.7229 H   0  0  0  0  0  0  0  0  0  0  0  0
  138.2127   81.1844  224.1352 H   0  0  0  0  0  0  0  0  0  0  0  0
  136.2011   79.8345  223.5559 H   0  0  0  0  0  0  0  0  0  0  0  0
  136.5034   77.5602  222.5340 H   0  0  0  0  0  0  0  0  0  0  0  0
  138.4758   75.5744  222.6891 H   0  0  0  0  0  0  0  0  0  0  0  0
  138.2003   76.2879  221.0471 H   0  0  0  0  0  0  0  0  0  0  0  0
  141.8127   71.6142  224.6948 H   0  0  0  0  0  0  0  0  0  0  0  0
  140.2483   72.4240  225.0585 H   0  0  0  0  0  0  0  0  0  0  0  0
  1  2  2  0
  2  3  1  0
  3  4  2  0
  4  5  1  0
  5  6  2  0
  5  7  1  0
  7  8  1  0
  8  9  1  0
  9 10  1  0
 10 11  2  0
 11 12  1  0
 12 13  1  0
 13 14  1  0
 14 15  1  0
 15 16  1  0
 16 17  1  0
 17 18  1  0
 18 19  1  0
 12 20  2  0
 20 21  1  0
 21 22  1  0
 22 23  1  0
 23 24  1  0
 24 25  1  0
 25 26  2  0
 26 27  1  0
 27 28  2  0
 28 29  1  0
 29 30  2  0
 30 31  1  0
 21 32  2  0
  9 33  1  0
  6  1  1  0
 32 10  1  0
 33  4  1  0
 19 15  1  0
 31 22  1  0
 30 25  1  0
  1 34  1  0
  2 35  1  0
  3 36  1  0
  6 37  1  0
  7 38  1  0
  7 39  1  0
  8 40  1  0
  8 41  1  0
 13 42  1  0
 14 43  1  0
 14 44  1  0
 15 45  1  1
 16 46  1  0
 16 47  1  0
 17 48  1  0
 17 49  1  0
 18 50  1  0
 18 51  1  0
 19 52  1  0
 23 53  1  0
 23 54  1  0
 24 55  1  0
 24 56  1  0
 26 57  1  0
 27 58  1  0
 28 59  1  0
 29 60  1  0
 31 61  1  0
 31 62  1  0
 33 63  1  0
 33 64  1  0
M  END
>  <smiles>  (37) 
c1ccc2c(c1)CCN(c1nc(NCC3CCCN3)nc(N3CCc4ccccc4C3)n1)C2

>  <score_type>  (37) 
oracle

>  <origin>  (37) 
autodockgpu

>  <m_score__min__energy>  (37) 
-9.8200000000000003

>  <m_primary>  (37) 
energy

>  <rmsd>  (37) 
10.903258031552417

>  <m_score__min__rmsd>  (37) 
10.903258031552417

>  <meeko>  (37) 
{"free_energy": -8.23, "intermolecular_energy": -9.72, "internal_energy": -1.82, "cluster_size": 41, "cluster_id": 1, "rank_in_cluster": 40}

>  <energy>  (37) 
-8.35

>  <cluster_rmsd>  (37) 
1.34

>  <cluster>  (37) 
1

$$$$

     RDKit          3D

 64 69  0  0  0  0  0  0  0  0999 V2000
  139.6440   68.6290  227.0710 C   0  0  0  0  0  0  0  0  0  0  0  0
  140.8020   69.3530  227.2750 C   0  0  0  0  0  0  0  0  0  0  0  0
  141.1710   70.4110  226.4370 C   0  0  0  0  0  0  0  0  0  0  0  0
  140.3340   70.7370  225.3630 C   0  0  0  0  0  0  0  0  0  0  0  0
  139.1690   70.0000  225.1670 C   0  0  0  0  0  0  0  0  0  0  0  0
  138.8180   68.9650  225.9970 C   0  0  0  0  0  0  0  0  0  0  0  0
  138.3580   70.4140  223.9830 C   0  0  0  0  0  0  0  0  0  0  0  0
  139.3340   70.5310  222.8020 C   0  0  0  0  0  0  0  0  0  0  0  0
  140.2350   71.6370  223.1470 N   0  0  0  0  0  0  0  0  0  0  0  0
  140.6190   72.4690  222.0660 C   0  0  0  0  0  0  0  0  0  0  0  0
  141.1020   72.0150  220.9010 N   0  0  0  0  0  0  0  0  0  0  0  0
  141.4480   72.8690  219.8870 C   0  0  0  0  0  0  0  0  0  0  0  0
  141.9290   72.4210  218.6560 N   0  0  0  0  0  0  0  0  0  0  0  0
  143.2900   72.5670  218.1800 C   0  0  0  0  0  0  0  0  0  0  0  0
  144.1350   73.2600  219.2400 C   0  0  2  0  0  0  0  0  0  0  0  0
  145.6150   73.1730  218.8590 C   0  0  0  0  0  0  0  0  0  0  0  0
  146.2740   73.4000  220.2020 C   0  0  0  0  0  0  0  0  0  0  0  0
  145.2000   73.1610  221.2350 C   0  0  0  0  0  0  0  0  0  0  0  0
  144.1660   72.4800  220.4720 N   0  0  0  0  0  0  0  0  0  0  0  0
  141.2800   74.1890  220.1160 N   0  0  0  0  0  0  0  0  0  0  0  0
  140.7970   74.6810  221.2680 C   0  0  0  0  0  0  0  0  0  0  0  0
  140.6340   76.0760  221.4450 N   0  0  0  0  0  0  0  0  0  0  0  0
  140.4310   76.9120  220.2470 C   0  0  0  0  0  0  0  0  0  0  0  0
  141.7390   77.7280  220.1890 C   0  0  0  0  0  0  0  0  0  0  0  0
  141.6430   78.6510  221.3810 C   0  0  0  0  0  0  0  0  0  0  0  0
  142.0740   79.9480  221.2440 C   0  0  0  0  0  0  0  0  0  0  0  0
  141.9680   80.7760  222.3400 C   0  0  0  0  0  0  0  0  0  0  0  0
  141.4430   80.3370  223.5590 C   0  0  0  0  0  0  0  0  0  0  0  0
  141.0110   79.0090  223.6650 C   0  0  0  0  0  0  0  0  0  0  0  0
  141.1100   78.1640  222.5820 C   0  0  0  0  0  0  0  0  0  0  0  0
  140.6470   76.7540  222.7180 C   0  0  0  0  0  0  0  0  0  0  0  0
  140.4750   73.7910  222.2280 N   0  0  0  0  0  0  0  0  0  0  0  0
  140.7180   71.8700  224.4880 C   0  0  0  0  0  0  0  0  0  0  0  0
  139.3767   67.8009  227.7439 H   0  0  0  0  0  0  0  0  0  0  0  0
  141.4537   69.0902  228.1213 H   0  0  0  0  0  0  0  0  0  0  0  0
  142.0983   70.9743  226.6180 H   0  0  0  0  0  0  0  0  0  0  0  0
  137.8899   68.4027  225.8168 H   0  0  0  0  0  0  0  0  0  0  0  0
  137.5890   69.6579  223.7665 H   0  0  0  0  0  0  0  0  0  0  0  0
  137.8434   71.3683  224.1686 H   0  0  0  0  0  0  0  0  0  0  0  0
  139.9016   69.5969  222.6782 H   0  0  0  0  0  0  0  0  0  0  0  0
  138.8075   70.7138  221.8536 H   0  0  0  0  0  0  0  0  0  0  0  0
  141.2260   71.9320  218.0190 H   0  0  0  0  0  0  0  0  0  0  0  0
  143.7117   71.5732  217.9689 H   0  0  0  0  0  0  0  0  0  0  0  0
  143.2908   73.1724  217.2616 H   0  0  0  0  0  0  0  0  0  0  0  0
  143.7161   74.2725  219.3372 H   0  0  0  0  0  0  0  0  0  0  0  0
  145.8684   72.1852  218.4467 H   0  0  0  0  0  0  0  0  0  0  0  0
  145.9239   73.8824  218.0772 H   0  0  0  0  0  0  0  0  0  0  0  0
  147.1057   72.6943  220.3443 H   0  0  0  0  0  0  0  0  0  0  0  0
  146.6917   74.4146  220.2807 H   0  0  0  0  0  0  0  0  0  0  0  0
  145.5713   72.5267  222.0534 H   0  0  0  0  0  0  0  0  0  0  0  0
  144.8479   74.0838  221.7192 H   0  0  0  0  0  0  0  0  0  0  0  0
  143.2380   72.4680  220.9280 H   0  0  0  0  0  0  0  0  0  0  0  0
  140.3073   76.2933  219.3459 H   0  0  0  0  0  0  0  0  0  0  0  0
  139.5254   77.5347  220.2931 H   0  0  0  0  0  0  0  0  0  0  0  0
  142.6157   77.0690  220.2736 H   0  0  0  0  0  0  0  0  0  0  0  0
  141.8591   78.2710  219.2399 H   0  0  0  0  0  0  0  0  0  0  0  0
  142.4891   80.3127  220.2928 H   0  0  0  0  0  0  0  0  0  0  0  0
  142.3082   81.8184  222.2529 H   0  0  0  0  0  0  0  0  0  0  0  0
  141.3706   81.0208  224.4176 H   0  0  0  0  0  0  0  0  0  0  0  0
  140.5926   78.6408  224.6133 H   0  0  0  0  0  0  0  0  0  0  0  0
  141.3244   76.2198  223.4004 H   0  0  0  0  0  0  0  0  0  0  0  0
  139.6206   76.7648  223.1134 H   0  0  0  0  0  0  0  0  0  0  0  0
  141.8139   71.9630  224.4706 H   0  0  0  0  0  0  0  0  0  0  0  0
  140.2739   72.7976  224.8783 H   0  0  0  0  0  0  0  0  0  0  0  0
  1  2  2  0
  2  3  1  0
  3  4  2  0
  4  5  1  0
  5  6  2  0
  5  7  1  0
  7  8  1  0
  8  9  1  0
  9 10  1  0
 10 11  2  0
 11 12  1  0
 12 13  1  0
 13 14  1  0
 14 15  1  0
 15 16  1  0
 16 17  1  0
 17 18  1  0
 18 19  1  0
 12 20  2  0
 20 21  1  0
 21 22  1  0
 22 23  1  0
 23 24  1  0
 24 25  1  0
 25 26  2  0
 26 27  1  0
 27 28  2  0
 28 29  1  0
 29 30  2  0
 30 31  1  0
 21 32  2  0
  9 33  1  0
  6  1  1  0
 32 10  1  0
 33  4  1  0
 19 15  1  0
 31 22  1  0
 30 25  1  0
  1 34  1  0
  2 35  1  0
  3 36  1  0
  6 37  1  0
  7 38  1  0
  7 39  1  0
  8 40  1  0
  8 41  1  0
 13 42  1  0
 14 43  1  0
 14 44  1  0
 15 45  1  1
 16 46  1  0
 16 47  1  0
 17 48  1  0
 17 49  1  0
 18 50  1  0
 18 51  1  0
 19 52  1  0
 23 53  1  0
 23 54  1  0
 24 55  1  0
 24 56  1  0
 26 57  1  0
 27 58  1  0
 28 59  1  0
 29 60  1  0
 31 61  1  0
 31 62  1  0
 33 63  1  0
 33 64  1  0
M  END
>  <smiles>  (38) 
c1ccc2c(c1)CCN(c1nc(NCC3CCCN3)nc(N3CCc4ccccc4C3)n1)C2

>  <score_type>  (38) 
oracle

>  <origin>  (38) 
autodockgpu

>  <m_score__min__energy>  (38) 
-9.8200000000000003

>  <m_primary>  (38) 
energy

>  <rmsd>  (38) 
10.751486166090325

>  <m_score__min__rmsd>  (38) 
10.751486166090325

>  <meeko>  (38) 
{"free_energy": -9.16, "intermolecular_energy": -10.65, "internal_energy": -1.88, "cluster_size": 41, "cluster_id": 1, "rank_in_cluster": 20}

>  <energy>  (38) 
-8.34

>  <cluster_rmsd>  (38) 
1.36

>  <cluster>  (38) 
1

$$$$

     RDKit          3D

 64 69  0  0  0  0  0  0  0  0999 V2000
  139.6530   68.8030  227.6100 C   0  0  0  0  0  0  0  0  0  0  0  0
  140.7120   69.6560  227.8500 C   0  0  0  0  0  0  0  0  0  0  0  0
  141.0780   70.6570  226.9430 C   0  0  0  0  0  0  0  0  0  0  0  0
  140.3410   70.7880  225.7590 C   0  0  0  0  0  0  0  0  0  0  0  0
  139.2750   69.9230  225.5280 C   0  0  0  0  0  0  0  0  0  0  0  0
  138.9260   68.9460  226.4260 C   0  0  0  0  0  0  0  0  0  0  0  0
  138.5680   70.1340  224.2290 C   0  0  0  0  0  0  0  0  0  0  0  0
  139.6560   70.2290  223.1480 C   0  0  0  0  0  0  0  0  0  0  0  0
  140.4110   71.4490  223.4600 N   0  0  0  0  0  0  0  0  0  0  0  0
  140.8390   72.2030  222.3380 C   0  0  0  0  0  0  0  0  0  0  0  0
  141.4740   71.6820  221.2780 N   0  0  0  0  0  0  0  0  0  0  0  0
  141.8550   72.4610  220.2170 C   0  0  0  0  0  0  0  0  0  0  0  0
  142.4940   71.9400  219.0920 N   0  0  0  0  0  0  0  0  0  0  0  0
  143.2340   72.7100  218.1120 C   0  0  0  0  0  0  0  0  0  0  0  0
  144.4770   73.3070  218.7580 C   0  0  2  0  0  0  0  0  0  0  0  0
  145.4200   72.1850  219.1980 C   0  0  0  0  0  0  0  0  0  0  0  0
  146.2570   72.9000  220.2360 C   0  0  0  0  0  0  0  0  0  0  0  0
  145.4860   74.1440  220.6030 C   0  0  0  0  0  0  0  0  0  0  0  0
  144.1630   73.8720  220.0650 N   0  0  0  0  0  0  0  0  0  0  0  0
  141.5610   73.7770  220.2890 N   0  0  0  0  0  0  0  0  0  0  0  0
  140.9260   74.3340  221.3330 C   0  0  0  0  0  0  0  0  0  0  0  0
  140.6370   75.7200  221.3460 N   0  0  0  0  0  0  0  0  0  0  0  0
  140.8050   76.4790  220.0930 C   0  0  0  0  0  0  0  0  0  0  0  0
  142.0100   77.3870  220.4170 C   0  0  0  0  0  0  0  0  0  0  0  0
  141.4670   78.3570  221.4400 C   0  0  0  0  0  0  0  0  0  0  0  0
  141.8480   79.6740  221.3630 C   0  0  0  0  0  0  0  0  0  0  0  0
  141.3340   80.5440  222.3000 C   0  0  0  0  0  0  0  0  0  0  0  0
  140.4530   80.1260  223.3020 C   0  0  0  0  0  0  0  0  0  0  0  0
  140.0830   78.7760  223.3510 C   0  0  0  0  0  0  0  0  0  0  0  0
  140.5880   77.8900  222.4260 C   0  0  0  0  0  0  0  0  0  0  0  0
  140.1830   76.4580  222.4990 C   0  0  0  0  0  0  0  0  0  0  0  0
  140.5770   73.5160  222.3460 N   0  0  0  0  0  0  0  0  0  0  0  0
  140.7190   71.8610  224.8080 C   0  0  0  0  0  0  0  0  0  0  0  0
  139.3863   68.0238  228.3392 H   0  0  0  0  0  0  0  0  0  0  0  0
  141.2853   69.5454  228.7823 H   0  0  0  0  0  0  0  0  0  0  0  0
  141.9252   71.3258  227.1551 H   0  0  0  0  0  0  0  0  0  0  0  0
  138.0776   68.2785  226.2144 H   0  0  0  0  0  0  0  0  0  0  0  0
  137.8977   69.2873  224.0197 H   0  0  0  0  0  0  0  0  0  0  0  0
  137.9537   71.0461  224.2551 H   0  0  0  0  0  0  0  0  0  0  0  0
  140.3144   69.3487  223.1864 H   0  0  0  0  0  0  0  0  0  0  0  0
  139.2254   70.2622  222.1363 H   0  0  0  0  0  0  0  0  0  0  0  0
  142.4240   70.8850  218.9500 H   0  0  0  0  0  0  0  0  0  0  0  0
  143.5333   72.0534  217.2818 H   0  0  0  0  0  0  0  0  0  0  0  0
  142.5968   73.5217  217.7309 H   0  0  0  0  0  0  0  0  0  0  0  0
  144.8787   74.0204  218.0234 H   0  0  0  0  0  0  0  0  0  0  0  0
  144.8668   71.3414  219.6366 H   0  0  0  0  0  0  0  0  0  0  0  0
  146.0009   71.7345  218.3797 H   0  0  0  0  0  0  0  0  0  0  0  0
  146.3970   72.2616  221.1207 H   0  0  0  0  0  0  0  0  0  0  0  0
  147.2577   73.1441  219.8499 H   0  0  0  0  0  0  0  0  0  0  0  0
  145.4499   74.2806  221.6939 H   0  0  0  0  0  0  0  0  0  0  0  0
  145.9354   75.0675  220.2091 H   0  0  0  0  0  0  0  0  0  0  0  0
  143.5600   74.7070  219.9740 H   0  0  0  0  0  0  0  0  0  0  0  0
  141.0263   75.8097  219.2486 H   0  0  0  0  0  0  0  0  0  0  0  0
  139.9046   77.0336  219.7901 H   0  0  0  0  0  0  0  0  0  0  0  0
  142.8410   76.8004  220.8359 H   0  0  0  0  0  0  0  0  0  0  0  0
  142.4142   77.8906  219.5265 H   0  0  0  0  0  0  0  0  0  0  0  0
  142.5390   80.0222  220.5811 H   0  0  0  0  0  0  0  0  0  0  0  0
  141.6268   81.6035  222.2582 H   0  0  0  0  0  0  0  0  0  0  0  0
  140.0584   80.8429  224.0370 H   0  0  0  0  0  0  0  0  0  0  0  0
  139.3890   78.4237  224.1284 H   0  0  0  0  0  0  0  0  0  0  0  0
  140.6179   76.0094  223.4043 H   0  0  0  0  0  0  0  0  0  0  0  0
  139.0844   76.4115  222.5274 H   0  0  0  0  0  0  0  0  0  0  0  0
  141.7976   72.0601  224.8917 H   0  0  0  0  0  0  0  0  0  0  0  0
  140.1543   72.7742  225.0470 H   0  0  0  0  0  0  0  0  0  0  0  0
  1  2  2  0
  2  3  1  0
  3  4  2  0
  4  5  1  0
  5  6  2  0
  5  7  1  0
  7  8  1  0
  8  9  1  0
  9 10  1  0
 10 11  2  0
 11 12  1  0
 12 13  1  0
 13 14  1  0
 14 15  1  0
 15 16  1  0
 16 17  1  0
 17 18  1  0
 18 19  1  0
 12 20  2  0
 20 21  1  0
 21 22  1  0
 22 23  1  0
 23 24  1  0
 24 25  1  0
 25 26  2  0
 26 27  1  0
 27 28  2  0
 28 29  1  0
 29 30  2  0
 30 31  1  0
 21 32  2  0
  9 33  1  0
  6  1  1  0
 32 10  1  0
 33  4  1  0
 19 15  1  0
 31 22  1  0
 30 25  1  0
  1 34  1  0
  2 35  1  0
  3 36  1  0
  6 37  1  0
  7 38  1  0
  7 39  1  0
  8 40  1  0
  8 41  1  0
 13 42  1  0
 14 43  1  0
 14 44  1  0
 15 45  1  6
 16 46  1  0
 16 47  1  0
 17 48  1  0
 17 49  1  0
 18 50  1  0
 18 51  1  0
 19 52  1  0
 23 53  1  0
 23 54  1  0
 24 55  1  0
 24 56  1  0
 26 57  1  0
 27 58  1  0
 28 59  1  0
 29 60  1  0
 31 61  1  0
 31 62  1  0
 33 63  1  0
 33 64  1  0
M  END
>  <smiles>  (39) 
c1ccc2c(c1)CCN(c1nc(NCC3CCCN3)nc(N3CCc4ccccc4C3)n1)C2

>  <score_type>  (39) 
oracle

>  <origin>  (39) 
autodockgpu

>  <m_score__min__energy>  (39) 
-9.8200000000000003

>  <m_primary>  (39) 
energy

>  <rmsd>  (39) 
10.927583893249261

>  <m_score__min__rmsd>  (39) 
10.927583893249261

>  <meeko>  (39) 
{"free_energy": -8.88, "intermolecular_energy": -10.38, "internal_energy": -1.64, "cluster_size": 41, "cluster_id": 1, "rank_in_cluster": 32}

>  <energy>  (39) 
-8.25

>  <cluster_rmsd>  (39) 
1.59

>  <cluster>  (39) 
1

$$$$

     RDKit          3D

 64 69  0  0  0  0  0  0  0  0999 V2000
  139.5570   68.1690  226.7660 C   0  0  0  0  0  0  0  0  0  0  0  0
  140.6410   68.9300  227.1580 C   0  0  0  0  0  0  0  0  0  0  0  0
  141.0290   70.0800  226.4610 C   0  0  0  0  0  0  0  0  0  0  0  0
  140.2890   70.4610  225.3350 C   0  0  0  0  0  0  0  0  0  0  0  0
  139.1990   69.6860  224.9500 C   0  0  0  0  0  0  0  0  0  0  0  0
  138.8280   68.5610  225.6420 C   0  0  0  0  0  0  0  0  0  0  0  0
  138.4900   70.1670  223.7250 C   0  0  0  0  0  0  0  0  0  0  0  0
  139.5750   70.4450  222.6720 C   0  0  0  0  0  0  0  0  0  0  0  0
  140.3650   71.5600  223.2100 N   0  0  0  0  0  0  0  0  0  0  0  0
  140.8070   72.5090  222.2540 C   0  0  0  0  0  0  0  0  0  0  0  0
  141.6740   72.2380  221.2680 N   0  0  0  0  0  0  0  0  0  0  0  0
  142.0560   73.1950  220.3670 C   0  0  0  0  0  0  0  0  0  0  0  0
  142.9370   72.9330  219.3170 N   0  0  0  0  0  0  0  0  0  0  0  0
  144.3630   72.7080  219.4490 C   0  0  0  0  0  0  0  0  0  0  0  0
  144.6250   71.2460  219.7820 C   0  0  2  0  0  0  0  0  0  0  0  0
  145.5690   70.6400  218.7420 C   0  0  0  0  0  0  0  0  0  0  0  0
  145.2790   69.1650  218.9110 C   0  0  0  0  0  0  0  0  0  0  0  0
  143.9670   69.0840  219.6530 C   0  0  0  0  0  0  0  0  0  0  0  0
  143.4420   70.4330  219.5240 N   0  0  0  0  0  0  0  0  0  0  0  0
  141.5200   74.4260  220.5180 N   0  0  0  0  0  0  0  0  0  0  0  0
  140.6480   74.7350  221.4910 C   0  0  0  0  0  0  0  0  0  0  0  0
  140.1130   76.0410  221.5920 N   0  0  0  0  0  0  0  0  0  0  0  0
  141.0050   77.1830  221.3190 C   0  0  0  0  0  0  0  0  0  0  0  0
  141.1450   77.8330  222.7120 C   0  0  0  0  0  0  0  0  0  0  0  0
  139.7750   78.4100  222.9810 C   0  0  0  0  0  0  0  0  0  0  0  0
  139.6880   79.6390  223.5870 C   0  0  0  0  0  0  0  0  0  0  0  0
  138.4290   80.1520  223.8140 C   0  0  0  0  0  0  0  0  0  0  0  0
  137.2670   79.4650  223.4490 C   0  0  0  0  0  0  0  0  0  0  0  0
  137.3910   78.2150  222.8310 C   0  0  0  0  0  0  0  0  0  0  0  0
  138.6400   77.6840  222.5970 C   0  0  0  0  0  0  0  0  0  0  0  0
  138.7480   76.3500  221.9420 C   0  0  0  0  0  0  0  0  0  0  0  0
  140.3110   73.7500  222.3480 N   0  0  0  0  0  0  0  0  0  0  0  0
  140.6910   71.6900  224.6100 C   0  0  0  0  0  0  0  0  0  0  0  0
  139.2728   67.2686  227.3304 H   0  0  0  0  0  0  0  0  0  0  0  0
  141.2162   68.6232  228.0440 H   0  0  0  0  0  0  0  0  0  0  0  0
  141.8960   70.6714  226.7904 H   0  0  0  0  0  0  0  0  0  0  0  0
  137.9602   67.9707  225.3127 H   0  0  0  0  0  0  0  0  0  0  0  0
  137.7957   69.3956  223.3605 H   0  0  0  0  0  0  0  0  0  0  0  0
  137.9006   71.0714  223.9364 H   0  0  0  0  0  0  0  0  0  0  0  0
  140.2092   69.5576  222.5295 H   0  0  0  0  0  0  0  0  0  0  0  0
  139.1401   70.6879  221.6912 H   0  0  0  0  0  0  0  0  0  0  0  0
  142.5140   72.8980  218.3380 H   0  0  0  0  0  0  0  0  0  0  0  0
  144.8621   72.9621  218.5023 H   0  0  0  0  0  0  0  0  0  0  0  0
  144.7576   73.3412  220.2573 H   0  0  0  0  0  0  0  0  0  0  0  0
  144.9795   71.2394  220.8233 H   0  0  0  0  0  0  0  0  0  0  0  0
  145.3259   70.9854  217.7263 H   0  0  0  0  0  0  0  0  0  0  0  0
  146.6262   70.9120  218.8773 H   0  0  0  0  0  0  0  0  0  0  0  0
  145.1940   68.6767  217.9290 H   0  0  0  0  0  0  0  0  0  0  0  0
  146.0851   68.6550  219.4588 H   0  0  0  0  0  0  0  0  0  0  0  0
  143.2929   68.3500  219.1874 H   0  0  0  0  0  0  0  0  0  0  0  0
  144.0762   68.7566  220.6974 H   0  0  0  0  0  0  0  0  0  0  0  0
  142.6820   70.6600  220.1880 H   0  0  0  0  0  0  0  0  0  0  0  0
  141.9798   76.8446  220.9378 H   0  0  0  0  0  0  0  0  0  0  0  0
  140.6192   77.8687  220.5503 H   0  0  0  0  0  0  0  0  0  0  0  0
  141.4091   77.0812  223.4703 H   0  0  0  0  0  0  0  0  0  0  0  0
  141.9404   78.5919  222.7488 H   0  0  0  0  0  0  0  0  0  0  0  0
  140.5909   80.1944  223.8809 H   0  0  0  0  0  0  0  0  0  0  0  0
  138.3351   81.1350  224.2986 H   0  0  0  0  0  0  0  0  0  0  0  0
  136.2749   79.8983  223.6437 H   0  0  0  0  0  0  0  0  0  0  0  0
  136.4912   77.6571  222.5324 H   0  0  0  0  0  0  0  0  0  0  0  0
  138.3737   75.5810  222.6337 H   0  0  0  0  0  0  0  0  0  0  0  0
  138.1513   76.3702  221.0181 H   0  0  0  0  0  0  0  0  0  0  0  0
  141.7750   71.8410  224.7201 H   0  0  0  0  0  0  0  0  0  0  0  0
  140.1523   72.5522  225.0300 H   0  0  0  0  0  0  0  0  0  0  0  0
  1  2  2  0
  2  3  1  0
  3  4  2  0
  4  5  1  0
  5  6  2  0
  5  7  1  0
  7  8  1  0
  8  9  1  0
  9 10  1  0
 10 11  2  0
 11 12  1  0
 12 13  1  0
 13 14  1  0
 14 15  1  0
 15 16  1  0
 16 17  1  0
 17 18  1  0
 18 19  1  0
 12 20  2  0
 20 21  1  0
 21 22  1  0
 22 23  1  0
 23 24  1  0
 24 25  1  0
 25 26  2  0
 26 27  1  0
 27 28  2  0
 28 29  1  0
 29 30  2  0
 30 31  1  0
 21 32  2  0
  9 33  1  0
  6  1  1  0
 32 10  1  0
 33  4  1  0
 19 15  1  0
 31 22  1  0
 30 25  1  0
  1 34  1  0
  2 35  1  0
  3 36  1  0
  6 37  1  0
  7 38  1  0
  7 39  1  0
  8 40  1  0
  8 41  1  0
 13 42  1  0
 14 43  1  0
 14 44  1  0
 15 45  1  1
 16 46  1  0
 16 47  1  0
 17 48  1  0
 17 49  1  0
 18 50  1  0
 18 51  1  0
 19 52  1  0
 23 53  1  0
 23 54  1  0
 24 55  1  0
 24 56  1  0
 26 57  1  0
 27 58  1  0
 28 59  1  0
 29 60  1  0
 31 61  1  0
 31 62  1  0
 33 63  1  0
 33 64  1  0
M  END
>  <smiles>  (40) 
c1ccc2c(c1)CCN(c1nc(NCC3CCCN3)nc(N3CCc4ccccc4C3)n1)C2

>  <score_type>  (40) 
oracle

>  <origin>  (40) 
autodockgpu

>  <m_score__min__energy>  (40) 
-9.8200000000000003

>  <m_primary>  (40) 
energy

>  <rmsd>  (40) 
10.887956949037362

>  <m_score__min__rmsd>  (40) 
10.887956949037362

>  <meeko>  (40) 
{"free_energy": -8.44, "intermolecular_energy": -9.93, "internal_energy": -1.82, "cluster_size": 41, "cluster_id": 1, "rank_in_cluster": 36}

>  <energy>  (40) 
-8.23

>  <cluster_rmsd>  (40) 
1.34

>  <cluster>  (40) 
1

$$$$

     RDKit          3D

 64 69  0  0  0  0  0  0  0  0999 V2000
  139.3180   68.4900  226.7430 C   0  0  0  0  0  0  0  0  0  0  0  0
  140.4000   69.2450  227.1500 C   0  0  0  0  0  0  0  0  0  0  0  0
  140.8640   70.3360  226.4060 C   0  0  0  0  0  0  0  0  0  0  0  0
  140.2030   70.6620  225.2150 C   0  0  0  0  0  0  0  0  0  0  0  0
  139.1140   69.8930  224.8150 C   0  0  0  0  0  0  0  0  0  0  0  0
  138.6680   68.8260  225.5550 C   0  0  0  0  0  0  0  0  0  0  0  0
  138.4930   70.3120  223.5220 C   0  0  0  0  0  0  0  0  0  0  0  0
  139.6460   70.4900  222.5210 C   0  0  0  0  0  0  0  0  0  0  0  0
  140.4370   71.6150  223.0320 N   0  0  0  0  0  0  0  0  0  0  0  0
  140.9640   72.4870  222.0460 C   0  0  0  0  0  0  0  0  0  0  0  0
  141.6850   72.0820  220.9910 N   0  0  0  0  0  0  0  0  0  0  0  0
  142.1590   72.9720  220.0640 C   0  0  0  0  0  0  0  0  0  0  0  0
  142.8910   72.5750  218.9440 N   0  0  0  0  0  0  0  0  0  0  0  0
  144.3330   72.4450  218.8820 C   0  0  0  0  0  0  0  0  0  0  0  0
  144.7490   71.0770  219.4050 C   0  0  2  0  0  0  0  0  0  0  0  0
  145.5690   70.3440  218.3400 C   0  0  0  0  0  0  0  0  0  0  0  0
  145.4180   68.9090  218.7940 C   0  0  0  0  0  0  0  0  0  0  0  0
  144.2410   68.8960  219.7400 C   0  0  0  0  0  0  0  0  0  0  0  0
  143.6040   70.1770  219.4760 N   0  0  0  0  0  0  0  0  0  0  0  0
  141.8670   74.2760  220.2620 N   0  0  0  0  0  0  0  0  0  0  0  0
  141.1460   74.7180  221.3050 C   0  0  0  0  0  0  0  0  0  0  0  0
  140.8640   76.0970  221.4540 N   0  0  0  0  0  0  0  0  0  0  0  0
  140.6390   76.8980  220.2360 C   0  0  0  0  0  0  0  0  0  0  0  0
  141.8780   77.8180  220.2130 C   0  0  0  0  0  0  0  0  0  0  0  0
  141.6620   78.7450  221.3860 C   0  0  0  0  0  0  0  0  0  0  0  0
  141.9910   80.0710  221.2440 C   0  0  0  0  0  0  0  0  0  0  0  0
  141.7770   80.9020  222.3230 C   0  0  0  0  0  0  0  0  0  0  0  0
  141.2430   80.4360  223.5280 C   0  0  0  0  0  0  0  0  0  0  0  0
  140.9160   79.0790  223.6390 C   0  0  0  0  0  0  0  0  0  0  0  0
  141.1250   78.2320  222.5740 C   0  0  0  0  0  0  0  0  0  0  0  0
  140.7730   76.7900  222.7150 C   0  0  0  0  0  0  0  0  0  0  0  0
  140.7070   73.7940  222.1840 N   0  0  0  0  0  0  0  0  0  0  0  0
  140.6850   71.8280  224.4380 C   0  0  0  0  0  0  0  0  0  0  0  0
  138.9738   67.6368  227.3460 H   0  0  0  0  0  0  0  0  0  0  0  0
  140.9126   68.9812  228.0868 H   0  0  0  0  0  0  0  0  0  0  0  0
  141.7281   70.9240  226.7489 H   0  0  0  0  0  0  0  0  0  0  0  0
  137.8028   68.2391  225.2131 H   0  0  0  0  0  0  0  0  0  0  0  0
  137.7971   69.5379  223.1663 H   0  0  0  0  0  0  0  0  0  0  0  0
  137.9208   71.2441  223.6393 H   0  0  0  0  0  0  0  0  0  0  0  0
  140.2594   69.5781  222.4747 H   0  0  0  0  0  0  0  0  0  0  0  0
  139.2770   70.6794  221.5022 H   0  0  0  0  0  0  0  0  0  0  0  0
  142.3300   72.3520  218.0630 H   0  0  0  0  0  0  0  0  0  0  0  0
  144.6652   72.5540  217.8391 H   0  0  0  0  0  0  0  0  0  0  0  0
  144.7958   73.2274  219.5014 H   0  0  0  0  0  0  0  0  0  0  0  0
  145.2547   71.2680  220.3630 H   0  0  0  0  0  0  0  0  0  0  0  0
  145.1510   70.4952  217.3338 H   0  0  0  0  0  0  0  0  0  0  0  0
  146.6114   70.6853  218.2568 H   0  0  0  0  0  0  0  0  0  0  0  0
  145.2236   68.2535  217.9323 H   0  0  0  0  0  0  0  0  0  0  0  0
  146.3326   68.5414  219.2822 H   0  0  0  0  0  0  0  0  0  0  0  0
  143.5609   68.0611  219.5155 H   0  0  0  0  0  0  0  0  0  0  0  0
  144.5289   68.7606  220.7930 H   0  0  0  0  0  0  0  0  0  0  0  0
  142.9380   70.4790  220.2070 H   0  0  0  0  0  0  0  0  0  0  0  0
  140.6003   76.2596  219.3410 H   0  0  0  0  0  0  0  0  0  0  0  0
  139.6846   77.4449  220.2389 H   0  0  0  0  0  0  0  0  0  0  0  0
  142.8017   77.2343  220.3400 H   0  0  0  0  0  0  0  0  0  0  0  0
  141.9894   78.3569  219.2605 H   0  0  0  0  0  0  0  0  0  0  0  0
  142.4103   80.4562  220.3028 H   0  0  0  0  0  0  0  0  0  0  0  0
  142.0351   81.9675  222.2327 H   0  0  0  0  0  0  0  0  0  0  0  0
  141.0828   81.1221  224.3727 H   0  0  0  0  0  0  0  0  0  0  0  0
  140.4924   78.6900  224.5766 H   0  0  0  0  0  0  0  0  0  0  0  0
  141.4648   76.3217  223.4307 H   0  0  0  0  0  0  0  0  0  0  0  0
  139.7346   76.7220  223.0714 H   0  0  0  0  0  0  0  0  0  0  0  0
  141.7650   71.9556  224.6031 H   0  0  0  0  0  0  0  0  0  0  0  0
  140.1503   72.7307  224.7684 H   0  0  0  0  0  0  0  0  0  0  0  0
  1  2  2  0
  2  3  1  0
  3  4  2  0
  4  5  1  0
  5  6  2  0
  5  7  1  0
  7  8  1  0
  8  9  1  0
  9 10  1  0
 10 11  2  0
 11 12  1  0
 12 13  1  0
 13 14  1  0
 14 15  1  0
 15 16  1  0
 16 17  1  0
 17 18  1  0
 18 19  1  0
 12 20  2  0
 20 21  1  0
 21 22  1  0
 22 23  1  0
 23 24  1  0
 24 25  1  0
 25 26  2  0
 26 27  1  0
 27 28  2  0
 28 29  1  0
 29 30  2  0
 30 31  1  0
 21 32  2  0
  9 33  1  0
  6  1  1  0
 32 10  1  0
 33  4  1  0
 19 15  1  0
 31 22  1  0
 30 25  1  0
  1 34  1  0
  2 35  1  0
  3 36  1  0
  6 37  1  0
  7 38  1  0
  7 39  1  0
  8 40  1  0
  8 41  1  0
 13 42  1  0
 14 43  1  0
 14 44  1  0
 15 45  1  1
 16 46  1  0
 16 47  1  0
 17 48  1  0
 17 49  1  0
 18 50  1  0
 18 51  1  0
 19 52  1  0
 23 53  1  0
 23 54  1  0
 24 55  1  0
 24 56  1  0
 26 57  1  0
 27 58  1  0
 28 59  1  0
 29 60  1  0
 31 61  1  0
 31 62  1  0
 33 63  1  0
 33 64  1  0
M  END
>  <smiles>  (41) 
c1ccc2c(c1)CCN(c1nc(NCC3CCCN3)nc(N3CCc4ccccc4C3)n1)C2

>  <score_type>  (41) 
oracle

>  <origin>  (41) 
autodockgpu

>  <m_score__min__energy>  (41) 
-9.8200000000000003

>  <m_primary>  (41) 
energy

>  <rmsd>  (41) 
10.677609143447022

>  <m_score__min__rmsd>  (41) 
10.677609143447022

>  <meeko>  (41) 
{"free_energy": -8.61, "intermolecular_energy": -10.11, "internal_energy": -1.79, "cluster_size": 41, "cluster_id": 1, "rank_in_cluster": 35}

>  <energy>  (41) 
-8.23

>  <cluster_rmsd>  (41) 
1.41

>  <cluster>  (41) 
1

$$$$

     RDKit          3D

 64 69  0  0  0  0  0  0  0  0999 V2000
  139.9800   68.6880  228.0230 C   0  0  0  0  0  0  0  0  0  0  0  0
  140.9270   69.6710  228.2250 C   0  0  0  0  0  0  0  0  0  0  0  0
  141.1460   70.6920  227.2920 C   0  0  0  0  0  0  0  0  0  0  0  0
  140.3750   70.7050  226.1230 C   0  0  0  0  0  0  0  0  0  0  0  0
  139.4240   69.7080  225.9310 C   0  0  0  0  0  0  0  0  0  0  0  0
  139.2190   68.7130  226.8540 C   0  0  0  0  0  0  0  0  0  0  0  0
  138.6700   69.8010  224.6440 C   0  0  0  0  0  0  0  0  0  0  0  0
  139.7170   70.0110  223.5380 C   0  0  0  0  0  0  0  0  0  0  0  0
  140.3170   71.3230  223.8110 N   0  0  0  0  0  0  0  0  0  0  0  0
  140.6240   72.1020  222.6670 C   0  0  0  0  0  0  0  0  0  0  0  0
  141.3200   71.6510  221.6140 N   0  0  0  0  0  0  0  0  0  0  0  0
  141.5780   72.4500  220.5310 C   0  0  0  0  0  0  0  0  0  0  0  0
  142.2780   71.9980  219.4120 N   0  0  0  0  0  0  0  0  0  0  0  0
  143.6730   71.6080  219.3910 C   0  0  0  0  0  0  0  0  0  0  0  0
  144.4510   72.4260  220.4130 C   0  0  2  0  0  0  0  0  0  0  0  0
  144.3270   73.9160  220.0850 C   0  0  0  0  0  0  0  0  0  0  0  0
  145.5280   74.4750  220.8150 C   0  0  0  0  0  0  0  0  0  0  0  0
  146.4260   73.2950  221.0970 C   0  0  0  0  0  0  0  0  0  0  0  0
  145.8880   72.2660  220.2230 N   0  0  0  0  0  0  0  0  0  0  0  0
  141.0980   73.7110  220.5740 N   0  0  0  0  0  0  0  0  0  0  0  0
  140.3950   74.1970  221.6100 C   0  0  0  0  0  0  0  0  0  0  0  0
  139.9100   75.5270  221.5930 N   0  0  0  0  0  0  0  0  0  0  0  0
  140.8230   76.5960  221.1490 C   0  0  0  0  0  0  0  0  0  0  0  0
  141.0620   77.3880  222.4520 C   0  0  0  0  0  0  0  0  0  0  0  0
  139.7290   78.0440  222.7260 C   0  0  0  0  0  0  0  0  0  0  0  0
  139.7160   79.3350  223.1950 C   0  0  0  0  0  0  0  0  0  0  0  0
  138.4890   79.9180  223.4290 C   0  0  0  0  0  0  0  0  0  0  0  0
  137.2870   79.2420  223.2020 C   0  0  0  0  0  0  0  0  0  0  0  0
  137.3350   77.9270  222.7220 C   0  0  0  0  0  0  0  0  0  0  0  0
  138.5500   77.3260  222.4840 C   0  0  0  0  0  0  0  0  0  0  0  0
  138.5770   75.9250  221.9760 C   0  0  0  0  0  0  0  0  0  0  0  0
  140.1750   73.3640  222.6470 N   0  0  0  0  0  0  0  0  0  0  0  0
  140.5960   71.7970  225.1460 C   0  0  0  0  0  0  0  0  0  0  0  0
  139.8274   67.8970  228.7720 H   0  0  0  0  0  0  0  0  0  0  0  0
  141.5278   69.6520  229.1463 H   0  0  0  0  0  0  0  0  0  0  0  0
  141.9062   71.4661  227.4732 H   0  0  0  0  0  0  0  0  0  0  0  0
  138.4585   67.9392  226.6729 H   0  0  0  0  0  0  0  0  0  0  0  0
  138.1089   68.8721  224.4645 H   0  0  0  0  0  0  0  0  0  0  0  0
  137.9448   70.6278  224.6670 H   0  0  0  0  0  0  0  0  0  0  0  0
  140.4825   69.2221  223.5783 H   0  0  0  0  0  0  0  0  0  0  0  0
  139.2662   69.9687  222.5355 H   0  0  0  0  0  0  0  0  0  0  0  0
  141.7290   71.9400  218.4980 H   0  0  0  0  0  0  0  0  0  0  0  0
  143.7575   70.5393  219.6375 H   0  0  0  0  0  0  0  0  0  0  0  0
  144.0867   71.7901  218.3882 H   0  0  0  0  0  0  0  0  0  0  0  0
  144.0704   72.1101  221.3955 H   0  0  0  0  0  0  0  0  0  0  0  0
  144.3922   74.0977  219.0021 H   0  0  0  0  0  0  0  0  0  0  0  0
  143.3678   74.3663  220.3802 H   0  0  0  0  0  0  0  0  0  0  0  0
  146.0497   75.2113  220.1859 H   0  0  0  0  0  0  0  0  0  0  0  0
  145.2341   74.9898  221.7416 H   0  0  0  0  0  0  0  0  0  0  0  0
  147.4718   73.5233  220.8436 H   0  0  0  0  0  0  0  0  0  0  0  0
  146.4410   73.0022  222.1572 H   0  0  0  0  0  0  0  0  0  0  0  0
  146.1900   71.3050  220.4600 H   0  0  0  0  0  0  0  0  0  0  0  0
  141.7631   76.1798  220.7579 H   0  0  0  0  0  0  0  0  0  0  0  0
  140.4182   77.2083  220.3297 H   0  0  0  0  0  0  0  0  0  0  0  0
  141.3430   76.7136  223.2743 H   0  0  0  0  0  0  0  0  0  0  0  0
  141.8829   78.1147  222.3630 H   0  0  0  0  0  0  0  0  0  0  0  0
  140.6515   79.8841  223.3774 H   0  0  0  0  0  0  0  0  0  0  0  0
  138.4547   80.9504  223.8072 H   0  0  0  0  0  0  0  0  0  0  0  0
  136.3221   79.7331  223.3965 H   0  0  0  0  0  0  0  0  0  0  0  0
  136.4021   77.3749  222.5354 H   0  0  0  0  0  0  0  0  0  0  0  0
  138.2161   75.2510  222.7669 H   0  0  0  0  0  0  0  0  0  0  0  0
  137.9310   75.8675  221.0875 H   0  0  0  0  0  0  0  0  0  0  0  0
  141.6422   72.1321  225.2033 H   0  0  0  0  0  0  0  0  0  0  0  0
  139.9246   72.6360  225.3811 H   0  0  0  0  0  0  0  0  0  0  0  0
  1  2  2  0
  2  3  1  0
  3  4  2  0
  4  5  1  0
  5  6  2  0
  5  7  1  0
  7  8  1  0
  8  9  1  0
  9 10  1  0
 10 11  2  0
 11 12  1  0
 12 13  1  0
 13 14  1  0
 14 15  1  0
 15 16  1  0
 16 17  1  0
 17 18  1  0
 18 19  1  0
 12 20  2  0
 20 21  1  0
 21 22  1  0
 22 23  1  0
 23 24  1  0
 24 25  1  0
 25 26  2  0
 26 27  1  0
 27 28  2  0
 28 29  1  0
 29 30  2  0
 30 31  1  0
 21 32  2  0
  9 33  1  0
  6  1  1  0
 32 10  1  0
 33  4  1  0
 19 15  1  0
 31 22  1  0
 30 25  1  0
  1 34  1  0
  2 35  1  0
  3 36  1  0
  6 37  1  0
  7 38  1  0
  7 39  1  0
  8 40  1  0
  8 41  1  0
 13 42  1  0
 14 43  1  0
 14 44  1  0
 15 45  1  1
 16 46  1  0
 16 47  1  0
 17 48  1  0
 17 49  1  0
 18 50  1  0
 18 51  1  0
 19 52  1  0
 23 53  1  0
 23 54  1  0
 24 55  1  0
 24 56  1  0
 26 57  1  0
 27 58  1  0
 28 59  1  0
 29 60  1  0
 31 61  1  0
 31 62  1  0
 33 63  1  0
 33 64  1  0
M  END
>  <smiles>  (42) 
c1ccc2c(c1)CCN(c1nc(NCC3CCCN3)nc(N3CCc4ccccc4C3)n1)C2

>  <score_type>  (42) 
oracle

>  <origin>  (42) 
autodockgpu

>  <m_score__min__energy>  (42) 
-9.8200000000000003

>  <m_primary>  (42) 
energy

>  <rmsd>  (42) 
11.210062761664568

>  <m_score__min__rmsd>  (42) 
11.210062761664568

>  <meeko>  (42) 
{"free_energy": -9.78, "intermolecular_energy": -11.28, "internal_energy": -1.17, "cluster_size": 41, "cluster_id": 1, "rank_in_cluster": 4}

>  <energy>  (42) 
-8.88

>  <cluster_rmsd>  (42) 
0.0

>  <cluster>  (42) 
2

$$$$

     RDKit          3D

 64 69  0  0  0  0  0  0  0  0999 V2000
  139.9500   68.7350  228.0320 C   0  0  0  0  0  0  0  0  0  0  0  0
  140.8810   69.7340  228.2330 C   0  0  0  0  0  0  0  0  0  0  0  0
  141.0930   70.7500  227.2940 C   0  0  0  0  0  0  0  0  0  0  0  0
  140.3310   70.7430  226.1190 C   0  0  0  0  0  0  0  0  0  0  0  0
  139.3950   69.7310  225.9270 C   0  0  0  0  0  0  0  0  0  0  0  0
  139.1970   68.7410  226.8560 C   0  0  0  0  0  0  0  0  0  0  0  0
  138.6500   69.8030  224.6340 C   0  0  0  0  0  0  0  0  0  0  0  0
  139.7030   70.0200  223.5340 C   0  0  0  0  0  0  0  0  0  0  0  0
  140.2820   71.3420  223.8020 N   0  0  0  0  0  0  0  0  0  0  0  0
  140.5870   72.1160  222.6540 C   0  0  0  0  0  0  0  0  0  0  0  0
  141.2650   71.6560  221.5930 N   0  0  0  0  0  0  0  0  0  0  0  0
  141.5210   72.4510  220.5070 C   0  0  0  0  0  0  0  0  0  0  0  0
  142.2020   71.9900  219.3800 N   0  0  0  0  0  0  0  0  0  0  0  0
  143.6150   71.6730  219.3200 C   0  0  0  0  0  0  0  0  0  0  0  0
  144.3660   72.4710  220.3770 C   0  0  2  0  0  0  0  0  0  0  0  0
  144.2910   73.9640  220.0470 C   0  0  0  0  0  0  0  0  0  0  0  0
  145.4720   74.4940  220.8300 C   0  0  0  0  0  0  0  0  0  0  0  0
  146.3290   73.2930  221.1490 C   0  0  0  0  0  0  0  0  0  0  0  0
  145.8060   72.2770  220.2500 N   0  0  0  0  0  0  0  0  0  0  0  0
  141.0590   73.7190  220.5550 N   0  0  0  0  0  0  0  0  0  0  0  0
  140.3740   74.2140  221.5990 C   0  0  0  0  0  0  0  0  0  0  0  0
  139.9070   75.5500  221.5870 N   0  0  0  0  0  0  0  0  0  0  0  0
  140.8390   76.6110  221.1610 C   0  0  0  0  0  0  0  0  0  0  0  0
  141.0740   77.3900  222.4720 C   0  0  0  0  0  0  0  0  0  0  0  0
  139.7470   78.0610  222.7360 C   0  0  0  0  0  0  0  0  0  0  0  0
  139.7460   79.3490  223.2160 C   0  0  0  0  0  0  0  0  0  0  0  0
  138.5250   79.9470  223.4400 C   0  0  0  0  0  0  0  0  0  0  0  0
  137.3160   79.2880  223.1960 C   0  0  0  0  0  0  0  0  0  0  0  0
  137.3520   77.9770  222.7060 C   0  0  0  0  0  0  0  0  0  0  0  0
  138.5620   77.3610  222.4770 C   0  0  0  0  0  0  0  0  0  0  0  0
  138.5760   75.9630  221.9580 C   0  0  0  0  0  0  0  0  0  0  0  0
  140.1540   73.3840  222.6380 N   0  0  0  0  0  0  0  0  0  0  0  0
  140.5440   71.8310  225.1350 C   0  0  0  0  0  0  0  0  0  0  0  0
  139.8036   67.9472  228.7856 H   0  0  0  0  0  0  0  0  0  0  0  0
  141.4743   69.7316  229.1593 H   0  0  0  0  0  0  0  0  0  0  0  0
  141.8410   71.5360  227.4748 H   0  0  0  0  0  0  0  0  0  0  0  0
  138.4485   67.9555  226.6753 H   0  0  0  0  0  0  0  0  0  0  0  0
  138.1040   68.8646  224.4574 H   0  0  0  0  0  0  0  0  0  0  0  0
  137.9126   70.6192  224.6450 H   0  0  0  0  0  0  0  0  0  0  0  0
  140.4793   69.2424  223.5860 H   0  0  0  0  0  0  0  0  0  0  0  0
  139.2607   69.9640  222.5284 H   0  0  0  0  0  0  0  0  0  0  0  0
  141.6230   71.8640  218.4930 H   0  0  0  0  0  0  0  0  0  0  0  0
  143.7566   70.5979  219.5046 H   0  0  0  0  0  0  0  0  0  0  0  0
  144.0041   71.9315  218.3241 H   0  0  0  0  0  0  0  0  0  0  0  0
  143.9355   72.1633  221.3413 H   0  0  0  0  0  0  0  0  0  0  0  0
  144.4076   74.1454  218.9683 H   0  0  0  0  0  0  0  0  0  0  0  0
  143.3306   74.4362  220.3010 H   0  0  0  0  0  0  0  0  0  0  0  0
  146.0379   75.2183  220.2256 H   0  0  0  0  0  0  0  0  0  0  0  0
  145.1500   75.0147  221.7439 H   0  0  0  0  0  0  0  0  0  0  0  0
  147.3900   73.4970  220.9422 H   0  0  0  0  0  0  0  0  0  0  0  0
  146.2904   72.9991  222.2083 H   0  0  0  0  0  0  0  0  0  0  0  0
  146.0750   71.3100  220.4980 H   0  0  0  0  0  0  0  0  0  0  0  0
  141.7779   76.1856  220.7769 H   0  0  0  0  0  0  0  0  0  0  0  0
  140.4510   77.2347  220.3422 H   0  0  0  0  0  0  0  0  0  0  0  0
  141.3372   76.7060  223.2923 H   0  0  0  0  0  0  0  0  0  0  0  0
  141.9053   78.1065  222.3976 H   0  0  0  0  0  0  0  0  0  0  0  0
  140.6867   79.8835  223.4143 H   0  0  0  0  0  0  0  0  0  0  0  0
  138.5004   80.9776  223.8237 H   0  0  0  0  0  0  0  0  0  0  0  0
  136.3556   79.7898  223.3853 H   0  0  0  0  0  0  0  0  0  0  0  0
  136.4139   77.4392  222.5040 H   0  0  0  0  0  0  0  0  0  0  0  0
  138.1971   75.2879  222.7394 H   0  0  0  0  0  0  0  0  0  0  0  0
  137.9395   75.9213  221.0619 H   0  0  0  0  0  0  0  0  0  0  0  0
  141.5848   72.1815  225.1975 H   0  0  0  0  0  0  0  0  0  0  0  0
  139.8593   72.6624  225.3584 H   0  0  0  0  0  0  0  0  0  0  0  0
  1  2  2  0
  2  3  1  0
  3  4  2  0
  4  5  1  0
  5  6  2  0
  5  7  1  0
  7  8  1  0
  8  9  1  0
  9 10  1  0
 10 11  2  0
 11 12  1  0
 12 13  1  0
 13 14  1  0
 14 15  1  0
 15 16  1  0
 16 17  1  0
 17 18  1  0
 18 19  1  0
 12 20  2  0
 20 21  1  0
 21 22  1  0
 22 23  1  0
 23 24  1  0
 24 25  1  0
 25 26  2  0
 26 27  1  0
 27 28  2  0
 28 29  1  0
 29 30  2  0
 30 31  1  0
 21 32  2  0
  9 33  1  0
  6  1  1  0
 32 10  1  0
 33  4  1  0
 19 15  1  0
 31 22  1  0
 30 25  1  0
  1 34  1  0
  2 35  1  0
  3 36  1  0
  6 37  1  0
  7 38  1  0
  7 39  1  0
  8 40  1  0
  8 41  1  0
 13 42  1  0
 14 43  1  0
 14 44  1  0
 15 45  1  1
 16 46  1  0
 16 47  1  0
 17 48  1  0
 17 49  1  0
 18 50  1  0
 18 51  1  0
 19 52  1  0
 23 53  1  0
 23 54  1  0
 24 55  1  0
 24 56  1  0
 26 57  1  0
 27 58  1  0
 28 59  1  0
 29 60  1  0
 31 61  1  0
 31 62  1  0
 33 63  1  0
 33 64  1  0
M  END
>  <smiles>  (43) 
c1ccc2c(c1)CCN(c1nc(NCC3CCCN3)nc(N3CCc4ccccc4C3)n1)C2

>  <score_type>  (43) 
oracle

>  <origin>  (43) 
autodockgpu

>  <m_score__min__energy>  (43) 
-9.8200000000000003

>  <m_primary>  (43) 
energy

>  <rmsd>  (43) 
11.182098737079615

>  <m_score__min__rmsd>  (43) 
11.182098737079615

>  <meeko>  (43) 
{"free_energy": -9.82, "intermolecular_energy": -11.31, "internal_energy": -1.2, "cluster_size": 41, "cluster_id": 1, "rank_in_cluster": 1}

>  <energy>  (43) 
-8.75

>  <cluster_rmsd>  (43) 
0.87

>  <cluster>  (43) 
2

$$$$

     RDKit          3D

 64 69  0  0  0  0  0  0  0  0999 V2000
  138.9230   68.4030  226.0280 C   0  0  0  0  0  0  0  0  0  0  0  0
  140.1010   68.9380  226.5090 C   0  0  0  0  0  0  0  0  0  0  0  0
  140.6930   70.0670  225.9300 C   0  0  0  0  0  0  0  0  0  0  0  0
  140.0630   70.6620  224.8300 C   0  0  0  0  0  0  0  0  0  0  0  0
  138.8760   70.1130  224.3540 C   0  0  0  0  0  0  0  0  0  0  0  0
  138.3050   69.0070  224.9310 C   0  0  0  0  0  0  0  0  0  0  0  0
  138.2960   70.8110  223.1670 C   0  0  0  0  0  0  0  0  0  0  0  0
  139.4460   71.0000  222.1650 C   0  0  0  0  0  0  0  0  0  0  0  0
  140.3870   71.9180  222.8190 N   0  0  0  0  0  0  0  0  0  0  0  0
  141.0080   72.8630  221.9640 C   0  0  0  0  0  0  0  0  0  0  0  0
  141.8380   72.5410  220.9620 N   0  0  0  0  0  0  0  0  0  0  0  0
  142.4020   73.4990  220.1620 C   0  0  0  0  0  0  0  0  0  0  0  0
  143.2490   73.1900  219.0970 N   0  0  0  0  0  0  0  0  0  0  0  0
  144.1090   74.1280  218.4040 C   0  0  0  0  0  0  0  0  0  0  0  0
  143.2620   75.1850  217.7090 C   0  0  2  0  0  0  0  0  0  0  0  0
  143.9050   75.5640  216.3720 C   0  0  0  0  0  0  0  0  0  0  0  0
  143.2750   76.9160  216.1200 C   0  0  0  0  0  0  0  0  0  0  0  0
  142.7200   77.3670  217.4500 C   0  0  0  0  0  0  0  0  0  0  0  0
  143.3700   76.4690  218.3900 N   0  0  0  0  0  0  0  0  0  0  0  0
  142.0820   74.7840  220.4300 N   0  0  0  0  0  0  0  0  0  0  0  0
  141.2530   75.1450  221.4230 C   0  0  0  0  0  0  0  0  0  0  0  0
  140.9490   76.5090  221.6490 N   0  0  0  0  0  0  0  0  0  0  0  0
  140.4670   77.3130  220.5100 C   0  0  0  0  0  0  0  0  0  0  0  0
  141.6410   78.2860  220.2740 C   0  0  0  0  0  0  0  0  0  0  0  0
  141.6120   79.1890  221.4840 C   0  0  0  0  0  0  0  0  0  0  0  0
  141.8550   80.5300  221.3090 C   0  0  0  0  0  0  0  0  0  0  0  0
  141.8130   81.3380  222.4250 C   0  0  0  0  0  0  0  0  0  0  0  0
  141.5340   80.8360  223.7000 C   0  0  0  0  0  0  0  0  0  0  0  0
  141.2900   79.4640  223.8430 C   0  0  0  0  0  0  0  0  0  0  0  0
  141.3290   78.6390  222.7420 C   0  0  0  0  0  0  0  0  0  0  0  0
  141.0680   77.1830  222.9190 C   0  0  0  0  0  0  0  0  0  0  0  0
  140.7310   74.1560  222.1760 N   0  0  0  0  0  0  0  0  0  0  0  0
  140.6820   71.8680  224.2310 C   0  0  0  0  0  0  0  0  0  0  0  0
  138.4782   67.5152  226.5012 H   0  0  0  0  0  0  0  0  0  0  0  0
  140.5892   68.4633  227.3729 H   0  0  0  0  0  0  0  0  0  0  0  0
  141.6319   70.4774  226.3302 H   0  0  0  0  0  0  0  0  0  0  0  0
  137.3652   68.5981  224.5316 H   0  0  0  0  0  0  0  0  0  0  0  0
  137.4987   70.1997  222.7191 H   0  0  0  0  0  0  0  0  0  0  0  0
  137.8540   71.7774  223.4513 H   0  0  0  0  0  0  0  0  0  0  0  0
  139.9331   70.0369  221.9522 H   0  0  0  0  0  0  0  0  0  0  0  0
  139.0891   71.3971  221.2033 H   0  0  0  0  0  0  0  0  0  0  0  0
  143.2550   72.1730  218.7740 H   0  0  0  0  0  0  0  0  0  0  0  0
  144.7783   74.6145  219.1288 H   0  0  0  0  0  0  0  0  0  0  0  0
  144.7058   73.5887  217.6537 H   0  0  0  0  0  0  0  0  0  0  0  0
  142.2464   74.7652  217.6600 H   0  0  0  0  0  0  0  0  0  0  0  0
  144.9992   75.6380  216.4568 H   0  0  0  0  0  0  0  0  0  0  0  0
  143.7425   74.8316  215.5675 H   0  0  0  0  0  0  0  0  0  0  0  0
  144.0306   77.6291  215.7588 H   0  0  0  0  0  0  0  0  0  0  0  0
  142.4893   76.8592  215.3523 H   0  0  0  0  0  0  0  0  0  0  0  0
  142.9845   78.4148  217.6552 H   0  0  0  0  0  0  0  0  0  0  0  0
  141.6218   77.3294  217.4994 H   0  0  0  0  0  0  0  0  0  0  0  0
  142.9240   76.4340  219.3230 H   0  0  0  0  0  0  0  0  0  0  0  0
  140.2873   76.6837  219.6259 H   0  0  0  0  0  0  0  0  0  0  0  0
  139.5085   77.8176  220.7014 H   0  0  0  0  0  0  0  0  0  0  0  0
  142.5949   77.7415  220.2146 H   0  0  0  0  0  0  0  0  0  0  0  0
  141.5495   78.8403  219.3283 H   0  0  0  0  0  0  0  0  0  0  0  0
  142.0752   80.9440  220.3139 H   0  0  0  0  0  0  0  0  0  0  0  0
  142.0056   82.4147  222.3086 H   0  0  0  0  0  0  0  0  0  0  0  0
  141.5067   81.5048  224.5729 H   0  0  0  0  0  0  0  0  0  0  0  0
  141.0671   79.0458  224.8357 H   0  0  0  0  0  0  0  0  0  0  0  0
  141.8998   76.7368  223.4839 H   0  0  0  0  0  0  0  0  0  0  0  0
  140.1186   77.0661  223.4621 H   0  0  0  0  0  0  0  0  0  0  0  0
  141.7718   71.8293  224.3754 H   0  0  0  0  0  0  0  0  0  0  0  0
  140.2755   72.7659  224.7193 H   0  0  0  0  0  0  0  0  0  0  0  0
  1  2  2  0
  2  3  1  0
  3  4  2  0
  4  5  1  0
  5  6  2  0
  5  7  1  0
  7  8  1  0
  8  9  1  0
  9 10  1  0
 10 11  2  0
 11 12  1  0
 12 13  1  0
 13 14  1  0
 14 15  1  0
 15 16  1  0
 16 17  1  0
 17 18  1  0
 18 19  1  0
 12 20  2  0
 20 21  1  0
 21 22  1  0
 22 23  1  0
 23 24  1  0
 24 25  1  0
 25 26  2  0
 26 27  1  0
 27 28  2  0
 28 29  1  0
 29 30  2  0
 30 31  1  0
 21 32  2  0
  9 33  1  0
  6  1  1  0
 32 10  1  0
 33  4  1  0
 19 15  1  0
 31 22  1  0
 30 25  1  0
  1 34  1  0
  2 35  1  0
  3 36  1  0
  6 37  1  0
  7 38  1  0
  7 39  1  0
  8 40  1  0
  8 41  1  0
 13 42  1  0
 14 43  1  0
 14 44  1  0
 15 45  1  6
 16 46  1  0
 16 47  1  0
 17 48  1  0
 17 49  1  0
 18 50  1  0
 18 51  1  0
 19 52  1  0
 23 53  1  0
 23 54  1  0
 24 55  1  0
 24 56  1  0
 26 57  1  0
 27 58  1  0
 28 59  1  0
 29 60  1  0
 31 61  1  0
 31 62  1  0
 33 63  1  0
 33 64  1  0
M  END
>  <smiles>  (44) 
c1ccc2c(c1)CCN(c1nc(NCC3CCCN3)nc(N3CCc4ccccc4C3)n1)C2

>  <score_type>  (44) 
oracle

>  <origin>  (44) 
autodockgpu

>  <m_score__min__energy>  (44) 
-9.8200000000000003

>  <m_primary>  (44) 
energy

>  <rmsd>  (44) 
10.439551186618866

>  <m_score__min__rmsd>  (44) 
10.439551186618866

>  <meeko>  (44) 
{"free_energy": -8.25, "intermolecular_energy": -9.75, "internal_energy": -1.91, "cluster_size": 2, "cluster_id": 3, "rank_in_cluster": 1}

>  <energy>  (44) 
-8.69

>  <cluster_rmsd>  (44) 
0.74

>  <cluster>  (44) 
2

$$$$

     RDKit          3D

 64 69  0  0  0  0  0  0  0  0999 V2000
  139.6370   68.7690  227.5730 C   0  0  0  0  0  0  0  0  0  0  0  0
  140.7000   69.6210  227.7970 C   0  0  0  0  0  0  0  0  0  0  0  0
  141.0380   70.6370  226.8950 C   0  0  0  0  0  0  0  0  0  0  0  0
  140.2670   70.7830  225.7350 C   0  0  0  0  0  0  0  0  0  0  0  0
  139.1980   69.9180  225.5200 C   0  0  0  0  0  0  0  0  0  0  0  0
  138.8770   68.9270  226.4130 C   0  0  0  0  0  0  0  0  0  0  0  0
  138.4540   70.1460  224.2450 C   0  0  0  0  0  0  0  0  0  0  0  0
  139.5120   70.2610  223.1350 C   0  0  0  0  0  0  0  0  0  0  0  0
  140.2720   71.4790  223.4440 N   0  0  0  0  0  0  0  0  0  0  0  0
  140.6660   72.2510  222.3230 C   0  0  0  0  0  0  0  0  0  0  0  0
  141.3000   71.7540  221.2510 N   0  0  0  0  0  0  0  0  0  0  0  0
  141.6470   72.5490  220.1920 C   0  0  0  0  0  0  0  0  0  0  0  0
  142.2850   72.0530  219.0540 N   0  0  0  0  0  0  0  0  0  0  0  0
  143.7070   71.8080  218.9240 C   0  0  0  0  0  0  0  0  0  0  0  0
  144.4460   72.4310  220.1000 C   0  0  2  0  0  0  0  0  0  0  0  0
  144.4470   73.9550  219.9610 C   0  0  0  0  0  0  0  0  0  0  0  0
  145.6150   74.3270  220.8470 C   0  0  0  0  0  0  0  0  0  0  0  0
  146.4070   73.0560  221.0420 C   0  0  0  0  0  0  0  0  0  0  0  0
  145.8800   72.1870  220.0020 N   0  0  0  0  0  0  0  0  0  0  0  0
  141.3220   73.8580  220.2770 N   0  0  0  0  0  0  0  0  0  0  0  0
  140.6860   74.3910  221.3320 C   0  0  0  0  0  0  0  0  0  0  0  0
  140.3630   75.7690  221.3590 N   0  0  0  0  0  0  0  0  0  0  0  0
  140.7360   76.5950  220.1960 C   0  0  0  0  0  0  0  0  0  0  0  0
  141.8370   77.5060  220.7780 C   0  0  0  0  0  0  0  0  0  0  0  0
  141.0910   78.4120  221.7300 C   0  0  0  0  0  0  0  0  0  0  0  0
  141.4450   79.7370  221.7880 C   0  0  0  0  0  0  0  0  0  0  0  0
  140.7450   80.5480  222.6560 C   0  0  0  0  0  0  0  0  0  0  0  0
  139.7080   80.0630  223.4580 C   0  0  0  0  0  0  0  0  0  0  0  0
  139.3720   78.7060  223.3730 C   0  0  0  0  0  0  0  0  0  0  0  0
  140.0600   77.8790  222.5150 C   0  0  0  0  0  0  0  0  0  0  0  0
  139.6870   76.4380  222.4440 C   0  0  0  0  0  0  0  0  0  0  0  0
  140.3710   73.5580  222.3440 N   0  0  0  0  0  0  0  0  0  0  0  0
  140.6160   71.8710  224.7900 C   0  0  0  0  0  0  0  0  0  0  0  0
  139.3928   67.9780  228.2974 H   0  0  0  0  0  0  0  0  0  0  0  0
  141.2991   69.4979  228.7113 H   0  0  0  0  0  0  0  0  0  0  0  0
  141.8893   71.3050  227.0928 H   0  0  0  0  0  0  0  0  0  0  0  0
  138.0247   68.2602  226.2157 H   0  0  0  0  0  0  0  0  0  0  0  0
  137.7807   69.3002  224.0417 H   0  0  0  0  0  0  0  0  0  0  0  0
  137.8376   71.0553  224.3019 H   0  0  0  0  0  0  0  0  0  0  0  0
  140.1739   69.3824  223.1419 H   0  0  0  0  0  0  0  0  0  0  0  0
  139.0532   70.3079  222.1364 H   0  0  0  0  0  0  0  0  0  0  0  0
  141.6620   71.8400  218.2140 H   0  0  0  0  0  0  0  0  0  0  0  0
  143.8911   70.7236  218.9098 H   0  0  0  0  0  0  0  0  0  0  0  0
  144.0693   72.2572  217.9876 H   0  0  0  0  0  0  0  0  0  0  0  0
  143.9630   72.0251  221.0011 H   0  0  0  0  0  0  0  0  0  0  0  0
  144.6158   74.2652  218.9192 H   0  0  0  0  0  0  0  0  0  0  0  0
  143.4972   74.4355  220.2387 H   0  0  0  0  0  0  0  0  0  0  0  0
  146.2356   75.0938  220.3603 H   0  0  0  0  0  0  0  0  0  0  0  0
  145.2772   74.7440  221.8072 H   0  0  0  0  0  0  0  0  0  0  0  0
  147.4834   73.2342  220.9020 H   0  0  0  0  0  0  0  0  0  0  0  0
  146.3115   72.6335  222.0531 H   0  0  0  0  0  0  0  0  0  0  0  0
  146.0980   71.1850  220.1340 H   0  0  0  0  0  0  0  0  0  0  0  0
  141.1252   75.9745  219.3753 H   0  0  0  0  0  0  0  0  0  0  0  0
  139.8912   77.1488  219.7605 H   0  0  0  0  0  0  0  0  0  0  0  0
  142.5935   76.9132  221.3132 H   0  0  0  0  0  0  0  0  0  0  0  0
  142.3826   78.0623  220.0016 H   0  0  0  0  0  0  0  0  0  0  0  0
  142.2579   80.1374  221.1644 H   0  0  0  0  0  0  0  0  0  0  0  0
  141.0118   81.6133  222.7195 H   0  0  0  0  0  0  0  0  0  0  0  0
  139.1669   80.7334  224.1419 H   0  0  0  0  0  0  0  0  0  0  0  0
  138.5579   78.3012  223.9923 H   0  0  0  0  0  0  0  0  0  0  0  0
  139.9620   75.9506  223.3910 H   0  0  0  0  0  0  0  0  0  0  0  0
  138.6031   76.3706  222.2688 H   0  0  0  0  0  0  0  0  0  0  0  0
  141.6960   72.0718  224.8471 H   0  0  0  0  0  0  0  0  0  0  0  0
  140.0555   72.7786  225.0583 H   0  0  0  0  0  0  0  0  0  0  0  0
  1  2  2  0
  2  3  1  0
  3  4  2  0
  4  5  1  0
  5  6  2  0
  5  7  1  0
  7  8  1  0
  8  9  1  0
  9 10  1  0
 10 11  2  0
 11 12  1  0
 12 13  1  0
 13 14  1  0
 14 15  1  0
 15 16  1  0
 16 17  1  0
 17 18  1  0
 18 19  1  0
 12 20  2  0
 20 21  1  0
 21 22  1  0
 22 23  1  0
 23 24  1  0
 24 25  1  0
 25 26  2  0
 26 27  1  0
 27 28  2  0
 28 29  1  0
 29 30  2  0
 30 31  1  0
 21 32  2  0
  9 33  1  0
  6  1  1  0
 32 10  1  0
 33  4  1  0
 19 15  1  0
 31 22  1  0
 30 25  1  0
  1 34  1  0
  2 35  1  0
  3 36  1  0
  6 37  1  0
  7 38  1  0
  7 39  1  0
  8 40  1  0
  8 41  1  0
 13 42  1  0
 14 43  1  0
 14 44  1  0
 15 45  1  1
 16 46  1  0
 16 47  1  0
 17 48  1  0
 17 49  1  0
 18 50  1  0
 18 51  1  0
 19 52  1  0
 23 53  1  0
 23 54  1  0
 24 55  1  0
 24 56  1  0
 26 57  1  0
 27 58  1  0
 28 59  1  0
 29 60  1  0
 31 61  1  0
 31 62  1  0
 33 63  1  0
 33 64  1  0
M  END
>  <smiles>  (45) 
c1ccc2c(c1)CCN(c1nc(NCC3CCCN3)nc(N3CCc4ccccc4C3)n1)C2

>  <score_type>  (45) 
oracle

>  <origin>  (45) 
autodockgpu

>  <m_score__min__energy>  (45) 
-9.8200000000000003

>  <m_primary>  (45) 
energy

>  <rmsd>  (45) 
10.926793236917382

>  <m_score__min__rmsd>  (45) 
10.926793236917382

>  <meeko>  (45) 
{"free_energy": -9.76, "intermolecular_energy": -11.26, "internal_energy": -1.24, "cluster_size": 41, "cluster_id": 1, "rank_in_cluster": 6}

>  <energy>  (45) 
-8.54

>  <cluster_rmsd>  (45) 
0.95

>  <cluster>  (45) 
2

$$$$

     RDKit          3D

 64 69  0  0  0  0  0  0  0  0999 V2000
  139.9320   68.7380  228.0350 C   0  0  0  0  0  0  0  0  0  0  0  0
  140.8540   69.7420  228.2530 C   0  0  0  0  0  0  0  0  0  0  0  0
  141.0720   70.7640  227.3210 C   0  0  0  0  0  0  0  0  0  0  0  0
  140.3280   70.7560  226.1350 C   0  0  0  0  0  0  0  0  0  0  0  0
  139.4020   69.7390  225.9260 C   0  0  0  0  0  0  0  0  0  0  0  0
  139.1970   68.7440  226.8480 C   0  0  0  0  0  0  0  0  0  0  0  0
  138.6750   69.8120  224.6220 C   0  0  0  0  0  0  0  0  0  0  0  0
  139.7420   70.0390  223.5390 C   0  0  0  0  0  0  0  0  0  0  0  0
  140.3080   71.3630  223.8200 N   0  0  0  0  0  0  0  0  0  0  0  0
  140.6250   72.1440  222.6800 C   0  0  0  0  0  0  0  0  0  0  0  0
  141.3430   71.7010  221.6390 N   0  0  0  0  0  0  0  0  0  0  0  0
  141.6090   72.5000  220.5590 C   0  0  0  0  0  0  0  0  0  0  0  0
  142.3330   72.0560  219.4520 N   0  0  0  0  0  0  0  0  0  0  0  0
  143.7080   71.6010  219.4710 C   0  0  0  0  0  0  0  0  0  0  0  0
  144.5120   72.4340  220.4610 C   0  0  2  0  0  0  0  0  0  0  0  0
  144.3420   73.9210  220.1410 C   0  0  0  0  0  0  0  0  0  0  0  0
  145.5610   74.5050  220.8200 C   0  0  0  0  0  0  0  0  0  0  0  0
  146.4950   73.3440  221.0630 C   0  0  0  0  0  0  0  0  0  0  0  0
  145.9420   72.3040  220.2100 N   0  0  0  0  0  0  0  0  0  0  0  0
  141.1130   73.7560  220.5920 N   0  0  0  0  0  0  0  0  0  0  0  0
  140.3880   74.2350  221.6150 C   0  0  0  0  0  0  0  0  0  0  0  0
  139.8870   75.5590  221.5880 N   0  0  0  0  0  0  0  0  0  0  0  0
  140.7850   76.6340  221.1270 C   0  0  0  0  0  0  0  0  0  0  0  0
  141.0220   77.4420  222.4200 C   0  0  0  0  0  0  0  0  0  0  0  0
  139.6830   78.0850  222.6960 C   0  0  0  0  0  0  0  0  0  0  0  0
  139.6580   79.3800  223.1520 C   0  0  0  0  0  0  0  0  0  0  0  0
  138.4260   79.9520  223.3870 C   0  0  0  0  0  0  0  0  0  0  0  0
  137.2300   79.2590  223.1760 C   0  0  0  0  0  0  0  0  0  0  0  0
  137.2910   77.9400  222.7080 C   0  0  0  0  0  0  0  0  0  0  0  0
  138.5120   77.3500  222.4690 C   0  0  0  0  0  0  0  0  0  0  0  0
  138.5520   75.9450  221.9750 C   0  0  0  0  0  0  0  0  0  0  0  0
  140.1610   73.4010  222.6490 N   0  0  0  0  0  0  0  0  0  0  0  0
  140.5480   71.8490  225.1580 C   0  0  0  0  0  0  0  0  0  0  0  0
  139.7790   67.9468  228.7837 H   0  0  0  0  0  0  0  0  0  0  0  0
  141.4350   69.7391  229.1871 H   0  0  0  0  0  0  0  0  0  0  0  0
  141.8110   71.5551  227.5162 H   0  0  0  0  0  0  0  0  0  0  0  0
  138.4566   67.9542  226.6529 H   0  0  0  0  0  0  0  0  0  0  0  0
  138.1368   68.8713  224.4339 H   0  0  0  0  0  0  0  0  0  0  0  0
  137.9329   70.6240  224.6254 H   0  0  0  0  0  0  0  0  0  0  0  0
  140.5224   69.2662  223.5999 H   0  0  0  0  0  0  0  0  0  0  0  0
  139.3152   69.9834  222.5267 H   0  0  0  0  0  0  0  0  0  0  0  0
  141.8190   72.0560  218.5160 H   0  0  0  0  0  0  0  0  0  0  0  0
  143.7389   70.5438  219.7731 H   0  0  0  0  0  0  0  0  0  0  0  0
  144.1417   71.7114  218.4661 H   0  0  0  0  0  0  0  0  0  0  0  0
  144.1810   72.1094  221.4585 H   0  0  0  0  0  0  0  0  0  0  0  0
  144.3569   74.1049  219.0566 H   0  0  0  0  0  0  0  0  0  0  0  0
  143.3868   74.3504  220.4776 H   0  0  0  0  0  0  0  0  0  0  0  0
  146.0401   75.2519  220.1700 H   0  0  0  0  0  0  0  0  0  0  0  0
  145.2958   75.0134  221.7587 H   0  0  0  0  0  0  0  0  0  0  0  0
  147.5243   73.5943  220.7666 H   0  0  0  0  0  0  0  0  0  0  0  0
  146.5607   73.0511  222.1213 H   0  0  0  0  0  0  0  0  0  0  0  0
  146.2740   71.3500  220.4320 H   0  0  0  0  0  0  0  0  0  0  0  0
  141.7276   76.2247  220.7347 H   0  0  0  0  0  0  0  0  0  0  0  0
  140.3685   77.2328  220.3036 H   0  0  0  0  0  0  0  0  0  0  0  0
  141.3162   76.7795  223.2473 H   0  0  0  0  0  0  0  0  0  0  0  0
  141.8334   78.1777  222.3183 H   0  0  0  0  0  0  0  0  0  0  0  0
  140.5884   79.9412  223.3237 H   0  0  0  0  0  0  0  0  0  0  0  0
  138.3823   80.9885  223.7528 H   0  0  0  0  0  0  0  0  0  0  0  0
  136.2606   79.7399  223.3735 H   0  0  0  0  0  0  0  0  0  0  0  0
  136.3635   77.3756  222.5314 H   0  0  0  0  0  0  0  0  0  0  0  0
  138.2037   75.2748  222.7747 H   0  0  0  0  0  0  0  0  0  0  0  0
  137.9012   75.8710  221.0913 H   0  0  0  0  0  0  0  0  0  0  0  0
  141.5855   72.2059  225.2365 H   0  0  0  0  0  0  0  0  0  0  0  0
  139.8550   72.6754  225.3746 H   0  0  0  0  0  0  0  0  0  0  0  0
  1  2  2  0
  2  3  1  0
  3  4  2  0
  4  5  1  0
  5  6  2  0
  5  7  1  0
  7  8  1  0
  8  9  1  0
  9 10  1  0
 10 11  2  0
 11 12  1  0
 12 13  1  0
 13 14  1  0
 14 15  1  0
 15 16  1  0
 16 17  1  0
 17 18  1  0
 18 19  1  0
 12 20  2  0
 20 21  1  0
 21 22  1  0
 22 23  1  0
 23 24  1  0
 24 25  1  0
 25 26  2  0
 26 27  1  0
 27 28  2  0
 28 29  1  0
 29 30  2  0
 30 31  1  0
 21 32  2  0
  9 33  1  0
  6  1  1  0
 32 10  1  0
 33  4  1  0
 19 15  1  0
 31 22  1  0
 30 25  1  0
  1 34  1  0
  2 35  1  0
  3 36  1  0
  6 37  1  0
  7 38  1  0
  7 39  1  0
  8 40  1  0
  8 41  1  0
 13 42  1  0
 14 43  1  0
 14 44  1  0
 15 45  1  1
 16 46  1  0
 16 47  1  0
 17 48  1  0
 17 49  1  0
 18 50  1  0
 18 51  1  0
 19 52  1  0
 23 53  1  0
 23 54  1  0
 24 55  1  0
 24 56  1  0
 26 57  1  0
 27 58  1  0
 28 59  1  0
 29 60  1  0
 31 61  1  0
 31 62  1  0
 33 63  1  0
 33 64  1  0
M  END
>  <smiles>  (46) 
c1ccc2c(c1)CCN(c1nc(NCC3CCCN3)nc(N3CCc4ccccc4C3)n1)C2

>  <score_type>  (46) 
oracle

>  <origin>  (46) 
autodockgpu

>  <m_score__min__energy>  (46) 
-9.8200000000000003

>  <m_primary>  (46) 
energy

>  <rmsd>  (46) 
11.176447401394825

>  <m_score__min__rmsd>  (46) 
11.176447401394825

>  <meeko>  (46) 
{"free_energy": -9.76, "intermolecular_energy": -11.25, "internal_energy": -1.14, "cluster_size": 41, "cluster_id": 1, "rank_in_cluster": 7}

>  <energy>  (46) 
-8.25

>  <cluster_rmsd>  (46) 
0.0

>  <cluster>  (46) 
3

$$$$

     RDKit          3D

 64 69  0  0  0  0  0  0  0  0999 V2000
  139.2690   67.9910  226.3960 C   0  0  0  0  0  0  0  0  0  0  0  0
  140.4260   68.6100  226.8270 C   0  0  0  0  0  0  0  0  0  0  0  0
  140.9070   69.7810  226.2290 C   0  0  0  0  0  0  0  0  0  0  0  0
  140.1850   70.3320  225.1630 C   0  0  0  0  0  0  0  0  0  0  0  0
  139.0210   69.6980  224.7370 C   0  0  0  0  0  0  0  0  0  0  0  0
  138.5600   68.5520  225.3320 C   0  0  0  0  0  0  0  0  0  0  0  0
  138.3380   70.3550  223.5810 C   0  0  0  0  0  0  0  0  0  0  0  0
  139.4260   70.6310  222.5300 C   0  0  0  0  0  0  0  0  0  0  0  0
  140.3250   71.6140  223.1460 N   0  0  0  0  0  0  0  0  0  0  0  0
  140.8360   72.6040  222.2700 C   0  0  0  0  0  0  0  0  0  0  0  0
  141.8070   72.3870  221.3720 N   0  0  0  0  0  0  0  0  0  0  0  0
  142.2540   73.3830  220.5450 C   0  0  0  0  0  0  0  0  0  0  0  0
  143.2450   73.1770  219.5850 N   0  0  0  0  0  0  0  0  0  0  0  0
  144.0500   74.2130  218.9680 C   0  0  0  0  0  0  0  0  0  0  0  0
  143.1590   75.3710  218.5430 C   0  0  2  0  0  0  0  0  0  0  0  0
  143.6900   75.9810  217.2430 C   0  0  0  0  0  0  0  0  0  0  0  0
  143.0550   77.3540  217.2870 C   0  0  0  0  0  0  0  0  0  0  0  0
  142.6190   77.5630  218.7170 C   0  0  0  0  0  0  0  0  0  0  0  0
  143.3370   76.5170  219.4270 N   0  0  0  0  0  0  0  0  0  0  0  0
  141.6700   74.5940  220.6760 N   0  0  0  0  0  0  0  0  0  0  0  0
  140.6940   74.8490  221.5610 C   0  0  0  0  0  0  0  0  0  0  0  0
  140.1140   76.1370  221.6460 N   0  0  0  0  0  0  0  0  0  0  0  0
  140.9710   77.3060  221.3710 C   0  0  0  0  0  0  0  0  0  0  0  0
  141.0740   77.9720  222.7590 C   0  0  0  0  0  0  0  0  0  0  0  0
  139.6830   78.5050  223.0090 C   0  0  0  0  0  0  0  0  0  0  0  0
  139.5480   79.7360  223.6030 C   0  0  0  0  0  0  0  0  0  0  0  0
  138.2710   80.2090  223.8130 C   0  0  0  0  0  0  0  0  0  0  0  0
  137.1360   79.4800  223.4420 C   0  0  0  0  0  0  0  0  0  0  0  0
  137.3090   78.2290  222.8370 C   0  0  0  0  0  0  0  0  0  0  0  0
  138.5770   77.7380  222.6210 C   0  0  0  0  0  0  0  0  0  0  0  0
  138.7360   76.4030  221.9780 C   0  0  0  0  0  0  0  0  0  0  0  0
  140.2980   73.8280  222.3490 N   0  0  0  0  0  0  0  0  0  0  0  0
  140.6870   71.5810  224.5430 C   0  0  0  0  0  0  0  0  0  0  0  0
  138.9121   67.0714  226.8828 H   0  0  0  0  0  0  0  0  0  0  0  0
  140.9863   68.1699  227.6651 H   0  0  0  0  0  0  0  0  0  0  0  0
  141.8311   70.2574  226.5883 H   0  0  0  0  0  0  0  0  0  0  0  0
  137.6354   68.0765  224.9726 H   0  0  0  0  0  0  0  0  0  0  0  0
  137.5685   69.6879  223.1652 H   0  0  0  0  0  0  0  0  0  0  0  0
  137.8389   71.2852  223.8903 H   0  0  0  0  0  0  0  0  0  0  0  0
  139.9726   69.7069  222.2906 H   0  0  0  0  0  0  0  0  0  0  0  0
  138.9982   71.0032  221.5874 H   0  0  0  0  0  0  0  0  0  0  0  0
  143.4170   72.1660  219.2860 H   0  0  0  0  0  0  0  0  0  0  0  0
  144.7980   74.5731  219.6897 H   0  0  0  0  0  0  0  0  0  0  0  0
  144.5579   73.8009  218.0836 H   0  0  0  0  0  0  0  0  0  0  0  0
  142.1387   74.9614  218.5078 H   0  0  0  0  0  0  0  0  0  0  0  0
  144.7882   76.0437  217.2454 H   0  0  0  0  0  0  0  0  0  0  0  0
  143.4520   75.4003  216.3396 H   0  0  0  0  0  0  0  0  0  0  0  0
  143.7850   78.1227  216.9934 H   0  0  0  0  0  0  0  0  0  0  0  0
  142.2063   77.4287  216.5912 H   0  0  0  0  0  0  0  0  0  0  0  0
  142.9108   78.5600  219.0788 H   0  0  0  0  0  0  0  0  0  0  0  0
  141.5285   77.5126  218.8523 H   0  0  0  0  0  0  0  0  0  0  0  0
  142.9710   76.3170  220.3730 H   0  0  0  0  0  0  0  0  0  0  0  0
  141.9605   76.9968  221.0031 H   0  0  0  0  0  0  0  0  0  0  0  0
  140.5713   77.9715  220.5917 H   0  0  0  0  0  0  0  0  0  0  0  0
  141.3551   77.2359  223.5266 H   0  0  0  0  0  0  0  0  0  0  0  0
  141.8430   78.7576  222.7971 H   0  0  0  0  0  0  0  0  0  0  0  0
  140.4288   80.3239  223.9007 H   0  0  0  0  0  0  0  0  0  0  0  0
  138.1396   81.1924  224.2881 H   0  0  0  0  0  0  0  0  0  0  0  0
  136.1278   79.8815  223.6219 H   0  0  0  0  0  0  0  0  0  0  0  0
  136.4317   77.6385  222.5343 H   0  0  0  0  0  0  0  0  0  0  0  0
  138.3793   75.6274  222.6717 H   0  0  0  0  0  0  0  0  0  0  0  0
  138.1493   76.3960  221.0476 H   0  0  0  0  0  0  0  0  0  0  0  0
  141.7822   71.6208  224.6373 H   0  0  0  0  0  0  0  0  0  0  0  0
  140.2389   72.4456  225.0545 H   0  0  0  0  0  0  0  0  0  0  0  0
  1  2  2  0
  2  3  1  0
  3  4  2  0
  4  5  1  0
  5  6  2  0
  5  7  1  0
  7  8  1  0
  8  9  1  0
  9 10  1  0
 10 11  2  0
 11 12  1  0
 12 13  1  0
 13 14  1  0
 14 15  1  0
 15 16  1  0
 16 17  1  0
 17 18  1  0
 18 19  1  0
 12 20  2  0
 20 21  1  0
 21 22  1  0
 22 23  1  0
 23 24  1  0
 24 25  1  0
 25 26  2  0
 26 27  1  0
 27 28  2  0
 28 29  1  0
 29 30  2  0
 30 31  1  0
 21 32  2  0
  9 33  1  0
  6  1  1  0
 32 10  1  0
 33  4  1  0
 19 15  1  0
 31 22  1  0
 30 25  1  0
  1 34  1  0
  2 35  1  0
  3 36  1  0
  6 37  1  0
  7 38  1  0
  7 39  1  0
  8 40  1  0
  8 41  1  0
 13 42  1  0
 14 43  1  0
 14 44  1  0
 15 45  1  6
 16 46  1  0
 16 47  1  0
 17 48  1  0
 17 49  1  0
 18 50  1  0
 18 51  1  0
 19 52  1  0
 23 53  1  0
 23 54  1  0
 24 55  1  0
 24 56  1  0
 26 57  1  0
 27 58  1  0
 28 59  1  0
 29 60  1  0
 31 61  1  0
 31 62  1  0
 33 63  1  0
 33 64  1  0
M  END
>  <smiles>  (47) 
c1ccc2c(c1)CCN(c1nc(NCC3CCCN3)nc(N3CCc4ccccc4C3)n1)C2

>  <score_type>  (47) 
oracle

>  <origin>  (47) 
autodockgpu

>  <m_score__min__energy>  (47) 
-9.8200000000000003

>  <m_primary>  (47) 
energy

>  <rmsd>  (47) 
10.874914754394945

>  <m_score__min__rmsd>  (47) 
10.874914754394945

>  <meeko>  (47) 
{"free_energy": -8.75, "intermolecular_energy": -10.24, "internal_energy": -1.65, "cluster_size": 41, "cluster_id": 1, "rank_in_cluster": 34}

>  <energy>  (47) 
-8.18

>  <cluster_rmsd>  (47) 
1.12

>  <cluster>  (47) 
3

$$$$

     RDKit          3D

 64 69  0  0  0  0  0  0  0  0999 V2000
  140.0060   67.7900  226.7510 C   0  0  0  0  0  0  0  0  0  0  0  0
  140.9310   68.7420  227.1290 C   0  0  0  0  0  0  0  0  0  0  0  0
  141.0720   69.9530  226.4400 C   0  0  0  0  0  0  0  0  0  0  0  0
  140.2450   70.1930  225.3360 C   0  0  0  0  0  0  0  0  0  0  0  0
  139.3170   69.2250  224.9640 C   0  0  0  0  0  0  0  0  0  0  0  0
  139.1880   68.0430  225.6490 C   0  0  0  0  0  0  0  0  0  0  0  0
  138.4990   69.5710  223.7620 C   0  0  0  0  0  0  0  0  0  0  0  0
  139.4830   70.0640  222.6900 C   0  0  0  0  0  0  0  0  0  0  0  0
  140.0550   71.3050  223.2250 N   0  0  0  0  0  0  0  0  0  0  0  0
  140.2810   72.3310  222.2720 C   0  0  0  0  0  0  0  0  0  0  0  0
  140.6670   72.1120  221.0070 N   0  0  0  0  0  0  0  0  0  0  0  0
  140.8600   73.1450  220.1290 C   0  0  0  0  0  0  0  0  0  0  0  0
  141.2370   72.9440  218.8000 N   0  0  0  0  0  0  0  0  0  0  0  0
  142.5970   72.7880  218.3240 C   0  0  0  0  0  0  0  0  0  0  0  0
  143.5700   73.3410  219.3560 C   0  0  2  0  0  0  0  0  0  0  0  0
  144.9970   73.2790  218.8050 C   0  0  0  0  0  0  0  0  0  0  0  0
  145.8040   73.3380  220.0840 C   0  0  0  0  0  0  0  0  0  0  0  0
  144.8420   72.9950  221.1960 C   0  0  0  0  0  0  0  0  0  0  0  0
  143.7140   72.4220  220.4790 N   0  0  0  0  0  0  0  0  0  0  0  0
  140.6460   74.3940  220.5970 N   0  0  0  0  0  0  0  0  0  0  0  0
  140.2580   74.6520  221.8560 C   0  0  0  0  0  0  0  0  0  0  0  0
  140.0390   75.9830  222.2860 N   0  0  0  0  0  0  0  0  0  0  0  0
  138.6560   76.4940  222.2920 C   0  0  0  0  0  0  0  0  0  0  0  0
  138.6900   77.5510  221.1680 C   0  0  0  0  0  0  0  0  0  0  0  0
  139.5590   78.6500  221.7310 C   0  0  0  0  0  0  0  0  0  0  0  0
  139.2020   79.9550  221.4970 C   0  0  0  0  0  0  0  0  0  0  0  0
  140.0040   80.9430  222.0280 C   0  0  0  0  0  0  0  0  0  0  0  0
  141.1440   80.6520  222.7830 C   0  0  0  0  0  0  0  0  0  0  0  0
  141.4790   79.3100  223.0050 C   0  0  0  0  0  0  0  0  0  0  0  0
  140.6930   78.3090  222.4810 C   0  0  0  0  0  0  0  0  0  0  0  0
  141.0710   76.8890  222.7270 C   0  0  0  0  0  0  0  0  0  0  0  0
  140.0840   73.5940  222.6730 N   0  0  0  0  0  0  0  0  0  0  0  0
  140.3840   71.4830  224.6190 C   0  0  0  0  0  0  0  0  0  0  0  0
  139.9150   66.8467  227.3095 H   0  0  0  0  0  0  0  0  0  0  0  0
  141.5766   68.5436  227.9972 H   0  0  0  0  0  0  0  0  0  0  0  0
  141.8154   70.6985  226.7588 H   0  0  0  0  0  0  0  0  0  0  0  0
  138.4434   67.2984  225.3310 H   0  0  0  0  0  0  0  0  0  0  0  0
  137.9587   68.6831  223.4019 H   0  0  0  0  0  0  0  0  0  0  0  0
  137.7509   70.3418  223.9991 H   0  0  0  0  0  0  0  0  0  0  0  0
  140.2733   69.3178  222.5211 H   0  0  0  0  0  0  0  0  0  0  0  0
  138.9851   70.2275  221.7228 H   0  0  0  0  0  0  0  0  0  0  0  0
  140.4480   72.9040  218.0830 H   0  0  0  0  0  0  0  0  0  0  0  0
  142.8064   71.7207  218.1595 H   0  0  0  0  0  0  0  0  0  0  0  0
  142.7171   73.3386  217.3793 H   0  0  0  0  0  0  0  0  0  0  0  0
  143.1913   74.3408  219.6148 H   0  0  0  0  0  0  0  0  0  0  0  0
  145.1777   72.3429  218.2563 H   0  0  0  0  0  0  0  0  0  0  0  0
  145.2378   74.0707  218.0803 H   0  0  0  0  0  0  0  0  0  0  0  0
  146.6268   72.6087  220.0513 H   0  0  0  0  0  0  0  0  0  0  0  0
  146.2551   74.3303  220.2317 H   0  0  0  0  0  0  0  0  0  0  0  0
  145.2828   72.2646  221.8904 H   0  0  0  0  0  0  0  0  0  0  0  0
  144.5691   73.8597  221.8187 H   0  0  0  0  0  0  0  0  0  0  0  0
  142.8420   72.3700  221.0320 H   0  0  0  0  0  0  0  0  0  0  0  0
  137.9352   75.6947  222.0653 H   0  0  0  0  0  0  0  0  0  0  0  0
  138.3399   76.8969  223.2656 H   0  0  0  0  0  0  0  0  0  0  0  0
  139.1316   77.1335  220.2511 H   0  0  0  0  0  0  0  0  0  0  0  0
  137.6870   77.9045  220.8869 H   0  0  0  0  0  0  0  0  0  0  0  0
  138.3077   80.2036  220.9067 H   0  0  0  0  0  0  0  0  0  0  0  0
  139.7378   81.9956  221.8516 H   0  0  0  0  0  0  0  0  0  0  0  0
  141.7657   81.4608  223.1946 H   0  0  0  0  0  0  0  0  0  0  0  0
  142.3701   79.0563  223.5980 H   0  0  0  0  0  0  0  0  0  0  0  0
  141.9994   76.6665  222.1805 H   0  0  0  0  0  0  0  0  0  0  0  0
  141.2111   76.7518  223.8094 H   0  0  0  0  0  0  0  0  0  0  0  0
  141.4208   71.8399  224.7069 H   0  0  0  0  0  0  0  0  0  0  0  0
  139.6994   72.2209  225.0626 H   0  0  0  0  0  0  0  0  0  0  0  0
  1  2  2  0
  2  3  1  0
  3  4  2  0
  4  5  1  0
  5  6  2  0
  5  7  1  0
  7  8  1  0
  8  9  1  0
  9 10  1  0
 10 11  2  0
 11 12  1  0
 12 13  1  0
 13 14  1  0
 14 15  1  0
 15 16  1  0
 16 17  1  0
 17 18  1  0
 18 19  1  0
 12 20  2  0
 20 21  1  0
 21 22  1  0
 22 23  1  0
 23 24  1  0
 24 25  1  0
 25 26  2  0
 26 27  1  0
 27 28  2  0
 28 29  1  0
 29 30  2  0
 30 31  1  0
 21 32  2  0
  9 33  1  0
  6  1  1  0
 32 10  1  0
 33  4  1  0
 19 15  1  0
 31 22  1  0
 30 25  1  0
  1 34  1  0
  2 35  1  0
  3 36  1  0
  6 37  1  0
  7 38  1  0
  7 39  1  0
  8 40  1  0
  8 41  1  0
 13 42  1  0
 14 43  1  0
 14 44  1  0
 15 45  1  1
 16 46  1  0
 16 47  1  0
 17 48  1  0
 17 49  1  0
 18 50  1  0
 18 51  1  0
 19 52  1  0
 23 53  1  0
 23 54  1  0
 24 55  1  0
 24 56  1  0
 26 57  1  0
 27 58  1  0
 28 59  1  0
 29 60  1  0
 31 61  1  0
 31 62  1  0
 33 63  1  0
 33 64  1  0
M  END
>  <smiles>  (48) 
c1ccc2c(c1)CCN(c1nc(NCC3CCCN3)nc(N3CCc4ccccc4C3)n1)C2

>  <score_type>  (48) 
oracle

>  <origin>  (48) 
autodockgpu

>  <m_score__min__energy>  (48) 
-9.8200000000000003

>  <m_primary>  (48) 
energy

>  <rmsd>  (48) 
11.113664444156656

>  <m_score__min__rmsd>  (48) 
11.113664444156656

>  <meeko>  (48) 
{"free_energy": -8.35, "intermolecular_energy": -9.84, "internal_energy": -1.86, "cluster_size": 41, "cluster_id": 1, "rank_in_cluster": 37}

>  <energy>  (48) 
-8.22

>  <cluster_rmsd>  (48) 
0.0

>  <cluster>  (48) 
4

$$$$

     RDKit          3D

 64 69  0  0  0  0  0  0  0  0999 V2000
  139.6260   68.5410  226.8920 C   0  0  0  0  0  0  0  0  0  0  0  0
  140.7560   69.2910  227.1480 C   0  0  0  0  0  0  0  0  0  0  0  0
  141.1180   70.3830  226.3510 C   0  0  0  0  0  0  0  0  0  0  0  0
  140.3010   70.7150  225.2630 C   0  0  0  0  0  0  0  0  0  0  0  0
  139.1640   69.9520  225.0140 C   0  0  0  0  0  0  0  0  0  0  0  0
  138.8200   68.8840  225.8050 C   0  0  0  0  0  0  0  0  0  0  0  0
  138.3730   70.3770  223.8200 C   0  0  0  0  0  0  0  0  0  0  0  0
  139.3770   70.5550  222.6710 C   0  0  0  0  0  0  0  0  0  0  0  0
  140.2360   71.6760  223.0720 N   0  0  0  0  0  0  0  0  0  0  0  0
  140.6250   72.5490  222.0250 C   0  0  0  0  0  0  0  0  0  0  0  0
  141.0840   72.1400  220.8340 N   0  0  0  0  0  0  0  0  0  0  0  0
  141.4360   73.0330  219.8560 C   0  0  0  0  0  0  0  0  0  0  0  0
  141.8930   72.6330  218.6000 N   0  0  0  0  0  0  0  0  0  0  0  0
  143.2830   72.5150  218.2070 C   0  0  0  0  0  0  0  0  0  0  0  0
  144.1620   73.2760  219.1900 C   0  0  2  0  0  0  0  0  0  0  0  0
  145.6360   73.0370  218.8560 C   0  0  0  0  0  0  0  0  0  0  0  0
  146.2920   73.3860  220.1730 C   0  0  0  0  0  0  0  0  0  0  0  0
  145.1900   73.3560  221.2050 C   0  0  0  0  0  0  0  0  0  0  0  0
  144.1200   72.6590  220.5100 N   0  0  0  0  0  0  0  0  0  0  0  0
  141.2990   74.3440  220.1480 N   0  0  0  0  0  0  0  0  0  0  0  0
  140.8410   74.7920  221.3280 C   0  0  0  0  0  0  0  0  0  0  0  0
  140.7100   76.1800  221.5720 N   0  0  0  0  0  0  0  0  0  0  0  0
  140.1670   77.0290  220.4950 C   0  0  0  0  0  0  0  0  0  0  0  0
  141.3940   77.8740  220.0920 C   0  0  0  0  0  0  0  0  0  0  0  0
  141.6170   78.7770  221.2820 C   0  0  0  0  0  0  0  0  0  0  0  0
  141.9710   80.0850  221.0570 C   0  0  0  0  0  0  0  0  0  0  0  0
  142.1610   80.8940  222.1560 C   0  0  0  0  0  0  0  0  0  0  0  0
  142.0030   80.4250  223.4640 C   0  0  0  0  0  0  0  0  0  0  0  0
  141.6400   79.0870  223.6580 C   0  0  0  0  0  0  0  0  0  0  0  0
  141.4480   78.2610  222.5740 C   0  0  0  0  0  0  0  0  0  0  0  0
  141.0650   76.8390  222.8050 C   0  0  0  0  0  0  0  0  0  0  0  0
  140.5120   73.8650  222.2500 N   0  0  0  0  0  0  0  0  0  0  0  0
  140.6760   71.8830  224.4310 C   0  0  0  0  0  0  0  0  0  0  0  0
  139.3648   67.6869  227.5340 H   0  0  0  0  0  0  0  0  0  0  0  0
  141.3915   69.0222  228.0047 H   0  0  0  0  0  0  0  0  0  0  0  0
  142.0232   70.9669  226.5739 H   0  0  0  0  0  0  0  0  0  0  0  0
  137.9137   68.3014  225.5834 H   0  0  0  0  0  0  0  0  0  0  0  0
  137.6323   69.6061  223.5611 H   0  0  0  0  0  0  0  0  0  0  0  0
  137.8258   71.3105  224.0177 H   0  0  0  0  0  0  0  0  0  0  0  0
  139.9746   69.6412  222.5374 H   0  0  0  0  0  0  0  0  0  0  0  0
  138.8717   70.7498  221.7136 H   0  0  0  0  0  0  0  0  0  0  0  0
  141.1460   72.3970  217.8750 H   0  0  0  0  0  0  0  0  0  0  0  0
  143.5729   71.4539  218.2033 H   0  0  0  0  0  0  0  0  0  0  0  0
  143.4134   72.9377  217.1999 H   0  0  0  0  0  0  0  0  0  0  0  0
  143.8167   74.3196  219.1498 H   0  0  0  0  0  0  0  0  0  0  0  0
  145.8221   71.9893  218.5774 H   0  0  0  0  0  0  0  0  0  0  0  0
  146.0058   73.6175  217.9979 H   0  0  0  0  0  0  0  0  0  0  0  0
  147.0687   72.6477  220.4211 H   0  0  0  0  0  0  0  0  0  0  0  0
  146.7806   74.3707  220.1324 H   0  0  0  0  0  0  0  0  0  0  0  0
  145.5035   72.8054  222.1042 H   0  0  0  0  0  0  0  0  0  0  0  0
  144.8999   74.3549  221.5629 H   0  0  0  0  0  0  0  0  0  0  0  0
  143.1880   72.7700  220.9440 H   0  0  0  0  0  0  0  0  0  0  0  0
  139.8075   76.4212  219.6516 H   0  0  0  0  0  0  0  0  0  0  0  0
  139.2997   77.6311  220.8037 H   0  0  0  0  0  0  0  0  0  0  0  0
  142.2706   77.2331  219.9169 H   0  0  0  0  0  0  0  0  0  0  0  0
  141.2369   78.4330  219.1577 H   0  0  0  0  0  0  0  0  0  0  0  0
  142.0983   80.4729  220.0356 H   0  0  0  0  0  0  0  0  0  0  0  0
  142.4467   81.9446  221.9992 H   0  0  0  0  0  0  0  0  0  0  0  0
  142.1608   81.0939  224.3229 H   0  0  0  0  0  0  0  0  0  0  0  0
  141.5081   78.6955  224.6775 H   0  0  0  0  0  0  0  0  0  0  0  0
  141.9144   76.3097  223.2614 H   0  0  0  0  0  0  0  0  0  0  0  0
  140.1892   76.8212  223.4703 H   0  0  0  0  0  0  0  0  0  0  0  0
  141.7689   72.0066  224.4463 H   0  0  0  0  0  0  0  0  0  0  0  0
  140.1955   72.7863  224.8350 H   0  0  0  0  0  0  0  0  0  0  0  0
  1  2  2  0
  2  3  1  0
  3  4  2  0
  4  5  1  0
  5  6  2  0
  5  7  1  0
  7  8  1  0
  8  9  1  0
  9 10  1  0
 10 11  2  0
 11 12  1  0
 12 13  1  0
 13 14  1  0
 14 15  1  0
 15 16  1  0
 16 17  1  0
 17 18  1  0
 18 19  1  0
 12 20  2  0
 20 21  1  0
 21 22  1  0
 22 23  1  0
 23 24  1  0
 24 25  1  0
 25 26  2  0
 26 27  1  0
 27 28  2  0
 28 29  1  0
 29 30  2  0
 30 31  1  0
 21 32  2  0
  9 33  1  0
  6  1  1  0
 32 10  1  0
 33  4  1  0
 19 15  1  0
 31 22  1  0
 30 25  1  0
  1 34  1  0
  2 35  1  0
  3 36  1  0
  6 37  1  0
  7 38  1  0
  7 39  1  0
  8 40  1  0
  8 41  1  0
 13 42  1  0
 14 43  1  0
 14 44  1  0
 15 45  1  1
 16 46  1  0
 16 47  1  0
 17 48  1  0
 17 49  1  0
 18 50  1  0
 18 51  1  0
 19 52  1  0
 23 53  1  0
 23 54  1  0
 24 55  1  0
 24 56  1  0
 26 57  1  0
 27 58  1  0
 28 59  1  0
 29 60  1  0
 31 61  1  0
 31 62  1  0
 33 63  1  0
 33 64  1  0
M  END
>  <smiles>  (49) 
c1ccc2c(c1)CCN(c1nc(NCC3CCCN3)nc(N3CCc4ccccc4C3)n1)C2

>  <score_type>  (49) 
oracle

>  <origin>  (49) 
autodockgpu

>  <m_score__min__energy>  (49) 
-9.8200000000000003

>  <m_primary>  (49) 
energy

>  <rmsd>  (49) 
10.701209778834926

>  <m_score__min__rmsd>  (49) 
10.701209778834926

>  <meeko>  (49) 
{"free_energy": -9.13, "intermolecular_energy": -10.63, "internal_energy": -1.91, "cluster_size": 41, "cluster_id": 1, "rank_in_cluster": 21}

>  <energy>  (49) 
-7.81

>  <cluster_rmsd>  (49) 
0.0

>  <cluster>  (49) 
5

$$$$

     RDKit          3D

 64 69  0  0  0  0  0  0  0  0999 V2000
  139.6220   68.3260  226.3910 C   0  0  0  0  0  0  0  0  0  0  0  0
  140.8020   68.9910  226.6600 C   0  0  0  0  0  0  0  0  0  0  0  0
  141.1670   70.1570  225.9760 C   0  0  0  0  0  0  0  0  0  0  0  0
  140.3030   70.6530  224.9920 C   0  0  0  0  0  0  0  0  0  0  0  0
  139.1170   69.9730  224.7300 C   0  0  0  0  0  0  0  0  0  0  0  0
  138.7700   68.8320  225.4090 C   0  0  0  0  0  0  0  0  0  0  0  0
  138.2770   70.5740  223.6500 C   0  0  0  0  0  0  0  0  0  0  0  0
  139.2170   70.8490  222.4660 C   0  0  0  0  0  0  0  0  0  0  0  0
  140.1530   71.8760  222.9400 N   0  0  0  0  0  0  0  0  0  0  0  0
  140.5200   72.8540  221.9820 C   0  0  0  0  0  0  0  0  0  0  0  0
  141.0020   72.5710  220.7630 N   0  0  0  0  0  0  0  0  0  0  0  0
  141.3310   73.5600  219.8750 C   0  0  0  0  0  0  0  0  0  0  0  0
  141.8100   73.2920  218.5920 N   0  0  0  0  0  0  0  0  0  0  0  0
  143.1340   72.7970  218.2740 C   0  0  0  0  0  0  0  0  0  0  0  0
  144.1580   73.4310  219.2040 C   0  0  2  0  0  0  0  0  0  0  0  0
  145.5510   72.8750  218.8970 C   0  0  0  0  0  0  0  0  0  0  0  0
  146.2760   73.1760  220.1890 C   0  0  0  0  0  0  0  0  0  0  0  0
  145.2000   73.4450  221.2140 C   0  0  0  0  0  0  0  0  0  0  0  0
  144.0040   72.9320  220.5660 N   0  0  0  0  0  0  0  0  0  0  0  0
  141.1470   74.8340  220.2840 N   0  0  0  0  0  0  0  0  0  0  0  0
  140.6660   75.1570  221.4950 C   0  0  0  0  0  0  0  0  0  0  0  0
  140.4870   76.5120  221.8630 N   0  0  0  0  0  0  0  0  0  0  0  0
  139.6340   77.3590  221.0080 C   0  0  0  0  0  0  0  0  0  0  0  0
  140.6560   78.3380  220.3910 C   0  0  0  0  0  0  0  0  0  0  0  0
  141.0860   79.1950  221.5580 C   0  0  0  0  0  0  0  0  0  0  0  0
  141.2690   80.5400  221.3520 C   0  0  0  0  0  0  0  0  0  0  0  0
  141.6520   81.3070  222.4310 C   0  0  0  0  0  0  0  0  0  0  0  0
  141.8510   80.7580  223.7020 C   0  0  0  0  0  0  0  0  0  0  0  0
  141.6540   79.3820  223.8780 C   0  0  0  0  0  0  0  0  0  0  0  0
  141.2740   78.5990  222.8120 C   0  0  0  0  0  0  0  0  0  0  0  0
  141.0740   77.1380  223.0220 C   0  0  0  0  0  0  0  0  0  0  0  0
  140.3610   74.1390  222.3250 N   0  0  0  0  0  0  0  0  0  0  0  0
  140.6840   71.8970  224.2830 C   0  0  0  0  0  0  0  0  0  0  0  0
  139.3579   67.4116  226.9424 H   0  0  0  0  0  0  0  0  0  0  0  0
  141.4747   68.5932  227.4341 H   0  0  0  0  0  0  0  0  0  0  0  0
  142.1114   70.6718  226.2065 H   0  0  0  0  0  0  0  0  0  0  0  0
  137.8244   68.3188  225.1800 H   0  0  0  0  0  0  0  0  0  0  0  0
  137.4844   69.8724  223.3506 H   0  0  0  0  0  0  0  0  0  0  0  0
  137.7902   71.4986  223.9936 H   0  0  0  0  0  0  0  0  0  0  0  0
  139.7596   69.9343  222.1851 H   0  0  0  0  0  0  0  0  0  0  0  0
  138.6647   71.1800  221.5742 H   0  0  0  0  0  0  0  0  0  0  0  0
  141.1350   73.4720  217.7850 H   0  0  0  0  0  0  0  0  0  0  0  0
  143.1550   71.7042  218.3982 H   0  0  0  0  0  0  0  0  0  0  0  0
  143.3786   73.0563  217.2334 H   0  0  0  0  0  0  0  0  0  0  0  0
  144.0308   74.5172  219.0859 H   0  0  0  0  0  0  0  0  0  0  0  0
  145.5185   71.7942  218.6949 H   0  0  0  0  0  0  0  0  0  0  0  0
  146.0232   73.3066  218.0021 H   0  0  0  0  0  0  0  0  0  0  0  0
  146.8882   72.3145  220.4939 H   0  0  0  0  0  0  0  0  0  0  0  0
  146.9547   74.0349  220.0808 H   0  0  0  0  0  0  0  0  0  0  0  0
  145.4035   72.9085  222.1525 H   0  0  0  0  0  0  0  0  0  0  0  0
  145.1221   74.5053  221.4964 H   0  0  0  0  0  0  0  0  0  0  0  0
  143.1180   73.2610  220.9850 H   0  0  0  0  0  0  0  0  0  0  0  0
  139.1331   76.7636  220.2304 H   0  0  0  0  0  0  0  0  0  0  0  0
  138.8201   77.8582  221.5543 H   0  0  0  0  0  0  0  0  0  0  0  0
  141.5133   77.7940  219.9678 H   0  0  0  0  0  0  0  0  0  0  0  0
  140.2337   78.9275  219.5639 H   0  0  0  0  0  0  0  0  0  0  0  0
  141.1152   80.9898  220.3600 H   0  0  0  0  0  0  0  0  0  0  0  0
  141.8063   82.3867  222.2880 H   0  0  0  0  0  0  0  0  0  0  0  0
  142.1560   81.3937  224.5463 H   0  0  0  0  0  0  0  0  0  0  0  0
  141.8031   78.9275  224.8685 H   0  0  0  0  0  0  0  0  0  0  0  0
  142.0482   76.6697  223.2260 H   0  0  0  0  0  0  0  0  0  0  0  0
  140.3883   77.0025  223.8714 H   0  0  0  0  0  0  0  0  0  0  0  0
  141.7806   71.9724  224.2411 H   0  0  0  0  0  0  0  0  0  0  0  0
  140.2737   72.7633  224.8227 H   0  0  0  0  0  0  0  0  0  0  0  0
  1  2  2  0
  2  3  1  0
  3  4  2  0
  4  5  1  0
  5  6  2  0
  5  7  1  0
  7  8  1  0
  8  9  1  0
  9 10  1  0
 10 11  2  0
 11 12  1  0
 12 13  1  0
 13 14  1  0
 14 15  1  0
 15 16  1  0
 16 17  1  0
 17 18  1  0
 18 19  1  0
 12 20  2  0
 20 21  1  0
 21 22  1  0
 22 23  1  0
 23 24  1  0
 24 25  1  0
 25 26  2  0
 26 27  1  0
 27 28  2  0
 28 29  1  0
 29 30  2  0
 30 31  1  0
 21 32  2  0
  9 33  1  0
  6  1  1  0
 32 10  1  0
 33  4  1  0
 19 15  1  0
 31 22  1  0
 30 25  1  0
  1 34  1  0
  2 35  1  0
  3 36  1  0
  6 37  1  0
  7 38  1  0
  7 39  1  0
  8 40  1  0
  8 41  1  0
 13 42  1  0
 14 43  1  0
 14 44  1  0
 15 45  1  1
 16 46  1  0
 16 47  1  0
 17 48  1  0
 17 49  1  0
 18 50  1  0
 18 51  1  0
 19 52  1  0
 23 53  1  0
 23 54  1  0
 24 55  1  0
 24 56  1  0
 26 57  1  0
 27 58  1  0
 28 59  1  0
 29 60  1  0
 31 61  1  0
 31 62  1  0
 33 63  1  0
 33 64  1  0
M  END
>  <smiles>  (50) 
c1ccc2c(c1)CCN(c1nc(NCC3CCCN3)nc(N3CCc4ccccc4C3)n1)C2

>  <score_type>  (50) 
oracle

>  <origin>  (50) 
autodockgpu

>  <m_score__min__energy>  (50) 
-9.8200000000000003

>  <m_primary>  (50) 
energy

>  <rmsd>  (50) 
10.588579189768902

>  <m_score__min__rmsd>  (50) 
10.588579189768902

>  <meeko>  (50) 
{"free_energy": -8.94, "intermolecular_energy": -10.43, "internal_energy": -1.83, "cluster_size": 41, "cluster_id": 1, "rank_in_cluster": 30}

>  <energy>  (50) 
-7.77

>  <cluster_rmsd>  (50) 
0.08

>  <cluster>  (50) 
5

$$$$

     RDKit          3D

 64 69  0  0  0  0  0  0  0  0999 V2000
  142.2010   80.8760  222.6470 C   0  0  0  0  0  0  0  0  0  0  0  0
  141.7070   80.2840  223.7950 C   0  0  0  0  0  0  0  0  0  0  0  0
  141.2070   78.9890  223.7910 C   0  0  0  0  0  0  0  0  0  0  0  0
  141.1960   78.2640  222.6180 C   0  0  0  0  0  0  0  0  0  0  0  0
  141.6910   78.8620  221.4810 C   0  0  0  0  0  0  0  0  0  0  0  0
  142.1940   80.1530  221.4630 C   0  0  0  0  0  0  0  0  0  0  0  0
  141.7030   78.1260  220.1900 C   0  0  0  0  0  0  0  0  0  0  0  0
  140.6900   77.0060  220.1730 C   0  0  0  0  0  0  0  0  0  0  0  0
  140.7260   76.2200  221.3900 N   0  0  0  0  0  0  0  0  0  0  0  0
  140.8310   74.8010  221.3410 C   0  0  0  0  0  0  0  0  0  0  0  0
  141.4290   74.1940  220.3020 N   0  0  0  0  0  0  0  0  0  0  0  0
  141.5520   72.8540  220.2120 C   0  0  0  0  0  0  0  0  0  0  0  0
  142.1890   72.2290  219.1030 N   0  0  0  0  0  0  0  0  0  0  0  0
  142.8240   70.9460  219.3070 C   0  0  0  0  0  0  0  0  0  0  0  0
  144.2350   71.2370  219.8290 C   0  0  1  0  0  0  0  0  0  0  0  0
  144.9160   72.0770  218.7990 C   0  0  0  0  0  0  0  0  0  0  0  0
  145.2380   73.3890  219.4360 C   0  0  0  0  0  0  0  0  0  0  0  0
  144.7240   73.2880  220.8350 C   0  0  0  0  0  0  0  0  0  0  0  0
  144.1420   71.9990  221.0350 N   0  0  0  0  0  0  0  0  0  0  0  0
  141.0420   72.1340  221.2250 N   0  0  0  0  0  0  0  0  0  0  0  0
  140.4270   72.6820  222.3020 C   0  0  0  0  0  0  0  0  0  0  0  0
  139.9000   71.8840  223.3540 N   0  0  0  0  0  0  0  0  0  0  0  0
  138.7080   71.1050  223.2370 C   0  0  0  0  0  0  0  0  0  0  0  0
  139.0770   69.6400  223.4270 C   0  0  0  0  0  0  0  0  0  0  0  0
  139.7190   69.5390  224.7670 C   0  0  0  0  0  0  0  0  0  0  0  0
  139.5840   68.3460  225.4840 C   0  0  0  0  0  0  0  0  0  0  0  0
  140.1740   68.2300  226.7360 C   0  0  0  0  0  0  0  0  0  0  0  0
  140.8880   69.2910  227.2620 C   0  0  0  0  0  0  0  0  0  0  0  0
  141.0260   70.4600  226.5700 C   0  0  0  0  0  0  0  0  0  0  0  0
  140.4370   70.5730  225.3240 C   0  0  0  0  0  0  0  0  0  0  0  0
  140.6180   71.8660  224.6150 C   0  0  0  0  0  0  0  0  0  0  0  0
  140.3360   74.0390  222.3300 N   0  0  0  0  0  0  0  0  0  0  0  0
  140.6540   76.8930  222.6690 C   0  0  0  0  0  0  0  0  0  0  0  0
  142.5931   81.9034  222.6722 H   0  0  0  0  0  0  0  0  0  0  0  0
  141.7103   80.8541  224.7357 H   0  0  0  0  0  0  0  0  0  0  0  0
  140.8212   78.5430  224.7196 H   0  0  0  0  0  0  0  0  0  0  0  0
  142.5787   80.5943  220.5317 H   0  0  0  0  0  0  0  0  0  0  0  0
  141.4697   78.8294  219.3771 H   0  0  0  0  0  0  0  0  0  0  0  0
  142.7020   77.6852  220.0572 H   0  0  0  0  0  0  0  0  0  0  0  0
  139.6849   77.4384  220.0596 H   0  0  0  0  0  0  0  0  0  0  0  0
  140.9351   76.3402  219.3324 H   0  0  0  0  0  0  0  0  0  0  0  0
  142.1890   72.7050  218.1610 H   0  0  0  0  0  0  0  0  0  0  0  0
  142.2602   70.3559  220.0445 H   0  0  0  0  0  0  0  0  0  0  0  0
  142.8572   70.3656  218.3732 H   0  0  0  0  0  0  0  0  0  0  0  0
  144.7819   70.3023  220.0218 H   0  0  0  0  0  0  0  0  0  0  0  0
  145.8407   71.5847  218.4634 H   0  0  0  0  0  0  0  0  0  0  0  0
  144.2672   72.2192  217.9222 H   0  0  0  0  0  0  0  0  0  0  0  0
  146.3246   73.5600  219.4367 H   0  0  0  0  0  0  0  0  0  0  0  0
  144.7825   74.2301  218.8927 H   0  0  0  0  0  0  0  0  0  0  0  0
  145.5546   73.4293  221.5422 H   0  0  0  0  0  0  0  0  0  0  0  0
  143.9635   74.0646  221.0039 H   0  0  0  0  0  0  0  0  0  0  0  0
  143.1990   71.9990  221.4470 H   0  0  0  0  0  0  0  0  0  0  0  0
  137.9862   71.4104  224.0089 H   0  0  0  0  0  0  0  0  0  0  0  0
  138.2503   71.2566  222.2483 H   0  0  0  0  0  0  0  0  0  0  0  0
  138.1745   69.0123  223.3892 H   0  0  0  0  0  0  0  0  0  0  0  0
  139.7544   69.2929  222.6329 H   0  0  0  0  0  0  0  0  0  0  0  0
  139.0148   67.5058  225.0596 H   0  0  0  0  0  0  0  0  0  0  0  0
  140.0735   67.2959  227.3081 H   0  0  0  0  0  0  0  0  0  0  0  0
  141.3524   69.1916  228.2542 H   0  0  0  0  0  0  0  0  0  0  0  0
  141.5964   71.2982  226.9967 H   0  0  0  0  0  0  0  0  0  0  0  0
  140.2416   72.6795  225.2527 H   0  0  0  0  0  0  0  0  0  0  0  0
  141.6896   71.9983  224.4049 H   0  0  0  0  0  0  0  0  0  0  0  0
  139.6009   76.9416  222.9831 H   0  0  0  0  0  0  0  0  0  0  0  0
  141.2633   76.3194  223.3829 H   0  0  0  0  0  0  0  0  0  0  0  0
  1  2  2  0
  2  3  1  0
  3  4  2  0
  4  5  1  0
  5  6  2  0
  5  7  1  0
  7  8  1  0
  8  9  1  0
  9 10  1  0
 10 11  2  0
 11 12  1  0
 12 13  1  0
 13 14  1  0
 14 15  1  0
 15 16  1  0
 16 17  1  0
 17 18  1  0
 18 19  1  0
 12 20  2  0
 20 21  1  0
 21 22  1  0
 22 23  1  0
 23 24  1  0
 24 25  1  0
 25 26  2  0
 26 27  1  0
 27 28  2  0
 28 29  1  0
 29 30  2  0
 30 31  1  0
 21 32  2  0
  9 33  1  0
  6  1  1  0
 32 10  1  0
 33  4  1  0
 19 15  1  0
 31 22  1  0
 30 25  1  0
  1 34  1  0
  2 35  1  0
  3 36  1  0
  6 37  1  0
  7 38  1  0
  7 39  1  0
  8 40  1  0
  8 41  1  0
 13 42  1  0
 14 43  1  0
 14 44  1  0
 15 45  1  1
 16 46  1  0
 16 47  1  0
 17 48  1  0
 17 49  1  0
 18 50  1  0
 18 51  1  0
 19 52  1  0
 23 53  1  0
 23 54  1  0
 24 55  1  0
 24 56  1  0
 26 57  1  0
 27 58  1  0
 28 59  1  0
 29 60  1  0
 31 61  1  0
 31 62  1  0
 33 63  1  0
 33 64  1  0
M  END
>  <smiles>  (51) 
c1ccc2c(c1)CCN(c1nc(NCC3CCCN3)nc(N3CCc4ccccc4C3)n1)C2

>  <score_type>  (51) 
oracle

>  <origin>  (51) 
autodockgpu

>  <m_score__min__energy>  (51) 
-10.77

>  <m_primary>  (51) 
energy

>  <rmsd>  (51) 
4.8832997967414595

>  <m_score__min__rmsd>  (51) 
4.8832997967414595

>  <meeko>  (51) 
{"free_energy": -9.4, "intermolecular_energy": -10.89, "internal_energy": -1.92, "cluster_size": 47, "cluster_id": 1, "rank_in_cluster": 35}

>  <energy>  (51) 
-10.77

>  <cluster_rmsd>  (51) 
0.0

>  <cluster>  (51) 
1

$$$$

     RDKit          3D

 64 69  0  0  0  0  0  0  0  0999 V2000
  141.4570   80.4580  221.8710 C   0  0  0  0  0  0  0  0  0  0  0  0
  140.7650   79.9850  222.9700 C   0  0  0  0  0  0  0  0  0  0  0  0
  140.4330   78.6440  223.1010 C   0  0  0  0  0  0  0  0  0  0  0  0
  140.7960   77.7500  222.1150 C   0  0  0  0  0  0  0  0  0  0  0  0
  141.4850   78.2310  221.0250 C   0  0  0  0  0  0  0  0  0  0  0  0
  141.8270   79.5650  220.8740 C   0  0  0  0  0  0  0  0  0  0  0  0
  141.9000   77.3120  219.9340 C   0  0  0  0  0  0  0  0  0  0  0  0
  141.0580   76.0590  219.9050 C   0  0  0  0  0  0  0  0  0  0  0  0
  140.8810   75.4900  221.2250 N   0  0  0  0  0  0  0  0  0  0  0  0
  141.1550   74.1150  221.4720 C   0  0  0  0  0  0  0  0  0  0  0  0
  142.1000   73.4690  220.7690 N   0  0  0  0  0  0  0  0  0  0  0  0
  142.3960   72.1680  220.9670 C   0  0  0  0  0  0  0  0  0  0  0  0
  143.4010   71.5010  220.2120 N   0  0  0  0  0  0  0  0  0  0  0  0
  143.6880   71.9770  218.8770 C   0  0  0  0  0  0  0  0  0  0  0  0
  145.0210   72.7290  218.9600 C   0  0  1  0  0  0  0  0  0  0  0  0
  144.7270   74.0730  219.5440 C   0  0  0  0  0  0  0  0  0  0  0  0
  145.4680   74.1690  220.8370 C   0  0  0  0  0  0  0  0  0  0  0  0
  146.1780   72.8630  220.9860 C   0  0  0  0  0  0  0  0  0  0  0  0
  145.8950   72.0380  219.8540 N   0  0  0  0  0  0  0  0  0  0  0  0
  141.6920   71.5300  221.9160 N   0  0  0  0  0  0  0  0  0  0  0  0
  140.7260   72.1210  222.6610 C   0  0  0  0  0  0  0  0  0  0  0  0
  140.0030   71.4100  223.6580 N   0  0  0  0  0  0  0  0  0  0  0  0
  138.8530   70.6080  223.3810 C   0  0  0  0  0  0  0  0  0  0  0  0
  139.1720   69.1690  223.7660 C   0  0  0  0  0  0  0  0  0  0  0  0
  139.5430   69.1920  225.2080 C   0  0  0  0  0  0  0  0  0  0  0  0
  139.2680   68.0630  225.9860 C   0  0  0  0  0  0  0  0  0  0  0  0
  139.6060   68.0630  227.3340 C   0  0  0  0  0  0  0  0  0  0  0  0
  140.2090   69.1740  227.8930 C   0  0  0  0  0  0  0  0  0  0  0  0
  140.4830   70.2810  227.1420 C   0  0  0  0  0  0  0  0  0  0  0  0
  140.1450   70.2800  225.8010 C   0  0  0  0  0  0  0  0  0  0  0  0
  140.4640   71.5090  225.0300 C   0  0  0  0  0  0  0  0  0  0  0  0
  140.4780   73.4340  222.4110 N   0  0  0  0  0  0  0  0  0  0  0  0
  140.4180   76.3370  222.3030 C   0  0  0  0  0  0  0  0  0  0  0  0
  141.7107   81.5251  221.7874 H   0  0  0  0  0  0  0  0  0  0  0  0
  140.4698   80.6898  223.7613 H   0  0  0  0  0  0  0  0  0  0  0  0
  139.8827   78.2953  223.9873 H   0  0  0  0  0  0  0  0  0  0  0  0
  142.3781   79.9084  219.9861 H   0  0  0  0  0  0  0  0  0  0  0  0
  141.7961   77.8331  218.9708 H   0  0  0  0  0  0  0  0  0  0  0  0
  142.9445   77.0177  220.1139 H   0  0  0  0  0  0  0  0  0  0  0  0
  140.0697   76.3055  219.4897 H   0  0  0  0  0  0  0  0  0  0  0  0
  141.5786   75.3158  219.2832 H   0  0  0  0  0  0  0  0  0  0  0  0
  143.9160   70.6800  220.6320 H   0  0  0  0  0  0  0  0  0  0  0  0
  143.7727   71.1291  218.1813 H   0  0  0  0  0  0  0  0  0  0  0  0
  142.8848   72.6311  218.5068 H   0  0  0  0  0  0  0  0  0  0  0  0
  145.4896   72.8064  217.9678 H   0  0  0  0  0  0  0  0  0  0  0  0
  145.0645   74.8634  218.8575 H   0  0  0  0  0  0  0  0  0  0  0  0
  143.6462   74.1988  219.7051 H   0  0  0  0  0  0  0  0  0  0  0  0
  146.1902   74.9982  220.8060 H   0  0  0  0  0  0  0  0  0  0  0  0
  144.7918   74.3655  221.6821 H   0  0  0  0  0  0  0  0  0  0  0  0
  147.2619   73.0395  221.0499 H   0  0  0  0  0  0  0  0  0  0  0  0
  145.8350   72.3604  221.9024 H   0  0  0  0  0  0  0  0  0  0  0  0
  145.5860   71.0810  220.0720 H   0  0  0  0  0  0  0  0  0  0  0  0
  137.9965   70.9696  223.9689 H   0  0  0  0  0  0  0  0  0  0  0  0
  138.5967   70.6676  222.3129 H   0  0  0  0  0  0  0  0  0  0  0  0
  138.2909   68.5292  223.6100 H   0  0  0  0  0  0  0  0  0  0  0  0
  139.9884   68.7632  223.1506 H   0  0  0  0  0  0  0  0  0  0  0  0
  138.7881   67.1821  225.5347 H   0  0  0  0  0  0  0  0  0  0  0  0
  139.3940   67.1802  227.9551 H   0  0  0  0  0  0  0  0  0  0  0  0
  140.4726   69.1663  228.9609 H   0  0  0  0  0  0  0  0  0  0  0  0
  140.9648   71.1594  227.5963 H   0  0  0  0  0  0  0  0  0  0  0  0
  139.9750   72.3694  225.5103 H   0  0  0  0  0  0  0  0  0  0  0  0
  141.5566   71.6359  225.0189 H   0  0  0  0  0  0  0  0  0  0  0  0
  139.3214   76.2698  222.3580 H   0  0  0  0  0  0  0  0  0  0  0  0
  140.8925   75.9853  223.2310 H   0  0  0  0  0  0  0  0  0  0  0  0
  1  2  2  0
  2  3  1  0
  3  4  2  0
  4  5  1  0
  5  6  2  0
  5  7  1  0
  7  8  1  0
  8  9  1  0
  9 10  1  0
 10 11  2  0
 11 12  1  0
 12 13  1  0
 13 14  1  0
 14 15  1  0
 15 16  1  0
 16 17  1  0
 17 18  1  0
 18 19  1  0
 12 20  2  0
 20 21  1  0
 21 22  1  0
 22 23  1  0
 23 24  1  0
 24 25  1  0
 25 26  2  0
 26 27  1  0
 27 28  2  0
 28 29  1  0
 29 30  2  0
 30 31  1  0
 21 32  2  0
  9 33  1  0
  6  1  1  0
 32 10  1  0
 33  4  1  0
 19 15  1  0
 31 22  1  0
 30 25  1  0
  1 34  1  0
  2 35  1  0
  3 36  1  0
  6 37  1  0
  7 38  1  0
  7 39  1  0
  8 40  1  0
  8 41  1  0
 13 42  1  0
 14 43  1  0
 14 44  1  0
 15 45  1  6
 16 46  1  0
 16 47  1  0
 17 48  1  0
 17 49  1  0
 18 50  1  0
 18 51  1  0
 19 52  1  0
 23 53  1  0
 23 54  1  0
 24 55  1  0
 24 56  1  0
 26 57  1  0
 27 58  1  0
 28 59  1  0
 29 60  1  0
 31 61  1  0
 31 62  1  0
 33 63  1  0
 33 64  1  0
M  END
>  <smiles>  (52) 
c1ccc2c(c1)CCN(c1nc(NCC3CCCN3)nc(N3CCc4ccccc4C3)n1)C2

>  <score_type>  (52) 
oracle

>  <origin>  (52) 
autodockgpu

>  <m_score__min__energy>  (52) 
-10.77

>  <m_primary>  (52) 
energy

>  <rmsd>  (52) 
4.426337745700208

>  <m_score__min__rmsd>  (52) 
4.426337745700208

>  <meeko>  (52) 
{"free_energy": -10.12, "intermolecular_energy": -11.61, "internal_energy": -1.64, "cluster_size": 47, "cluster_id": 1, "rank_in_cluster": 14}

>  <energy>  (52) 
-10.76

>  <cluster_rmsd>  (52) 
0.23

>  <cluster>  (52) 
1

$$$$

     RDKit          3D

 64 69  0  0  0  0  0  0  0  0999 V2000
  141.4840   80.4810  221.9560 C   0  0  0  0  0  0  0  0  0  0  0  0
  140.7830   79.9970  223.0440 C   0  0  0  0  0  0  0  0  0  0  0  0
  140.4400   78.6560  223.1530 C   0  0  0  0  0  0  0  0  0  0  0  0
  140.8030   77.7750  222.1560 C   0  0  0  0  0  0  0  0  0  0  0  0
  141.5020   78.2670  221.0770 C   0  0  0  0  0  0  0  0  0  0  0  0
  141.8540   79.6000  220.9480 C   0  0  0  0  0  0  0  0  0  0  0  0
  141.9180   77.3610  219.9750 C   0  0  0  0  0  0  0  0  0  0  0  0
  141.0670   76.1140  219.9220 C   0  0  0  0  0  0  0  0  0  0  0  0
  140.8780   75.5270  221.2330 N   0  0  0  0  0  0  0  0  0  0  0  0
  141.1420   74.1470  221.4610 C   0  0  0  0  0  0  0  0  0  0  0  0
  142.0640   73.4960  220.7320 N   0  0  0  0  0  0  0  0  0  0  0  0
  142.3480   72.1900  220.9120 C   0  0  0  0  0  0  0  0  0  0  0  0
  143.3290   71.5190  220.1290 N   0  0  0  0  0  0  0  0  0  0  0  0
  143.6470   72.0500  218.8220 C   0  0  0  0  0  0  0  0  0  0  0  0
  144.9870   72.7800  218.9620 C   0  0  1  0  0  0  0  0  0  0  0  0
  144.6880   74.1360  219.5140 C   0  0  0  0  0  0  0  0  0  0  0  0
  145.3660   74.2360  220.8420 C   0  0  0  0  0  0  0  0  0  0  0  0
  146.0440   72.9200  221.0420 C   0  0  0  0  0  0  0  0  0  0  0  0
  145.8030   72.0850  219.9080 N   0  0  0  0  0  0  0  0  0  0  0  0
  141.6570   71.5520  221.8700 N   0  0  0  0  0  0  0  0  0  0  0  0
  140.7140   72.1470  222.6410 C   0  0  0  0  0  0  0  0  0  0  0  0
  140.0050   71.4350  223.6470 N   0  0  0  0  0  0  0  0  0  0  0  0
  138.8530   70.6300  223.3840 C   0  0  0  0  0  0  0  0  0  0  0  0
  139.1790   69.1920  223.7650 C   0  0  0  0  0  0  0  0  0  0  0  0
  139.5670   69.2160  225.2020 C   0  0  0  0  0  0  0  0  0  0  0  0
  139.3040   68.0870  225.9840 C   0  0  0  0  0  0  0  0  0  0  0  0
  139.6570   68.0880  227.3270 C   0  0  0  0  0  0  0  0  0  0  0  0
  140.2650   69.2000  227.8790 C   0  0  0  0  0  0  0  0  0  0  0  0
  140.5280   70.3080  227.1240 C   0  0  0  0  0  0  0  0  0  0  0  0
  140.1740   70.3050  225.7880 C   0  0  0  0  0  0  0  0  0  0  0  0
  140.4820   71.5350  225.0130 C   0  0  0  0  0  0  0  0  0  0  0  0
  140.4760   73.4650  222.4080 N   0  0  0  0  0  0  0  0  0  0  0  0
  140.4140   76.3610  222.3210 C   0  0  0  0  0  0  0  0  0  0  0  0
  141.7449   81.5475  221.8892 H   0  0  0  0  0  0  0  0  0  0  0  0
  140.4892   80.6920  223.8444 H   0  0  0  0  0  0  0  0  0  0  0  0
  139.8814   78.2980  224.0304 H   0  0  0  0  0  0  0  0  0  0  0  0
  142.4130   79.9526  220.0687 H   0  0  0  0  0  0  0  0  0  0  0  0
  141.8242   77.8969  219.0190 H   0  0  0  0  0  0  0  0  0  0  0  0
  142.9592   77.0567  220.1574 H   0  0  0  0  0  0  0  0  0  0  0  0
  140.0830   76.3736  219.5044 H   0  0  0  0  0  0  0  0  0  0  0  0
  141.5859   75.3763  219.2922 H   0  0  0  0  0  0  0  0  0  0  0  0
  143.8030   70.6550  220.5080 H   0  0  0  0  0  0  0  0  0  0  0  0
  143.7343   71.2327  218.0909 H   0  0  0  0  0  0  0  0  0  0  0  0
  142.8590   72.7305  218.4671 H   0  0  0  0  0  0  0  0  0  0  0  0
  145.5060   72.8367  217.9938 H   0  0  0  0  0  0  0  0  0  0  0  0
  145.0731   74.9116  218.8357 H   0  0  0  0  0  0  0  0  0  0  0  0
  143.6029   74.2824  219.6193 H   0  0  0  0  0  0  0  0  0  0  0  0
  146.1036   75.0520  220.8369 H   0  0  0  0  0  0  0  0  0  0  0  0
  144.6524   74.4552  221.6499 H   0  0  0  0  0  0  0  0  0  0  0  0
  147.1264   73.0786  221.1576 H   0  0  0  0  0  0  0  0  0  0  0  0
  145.6467   72.4356  221.9462 H   0  0  0  0  0  0  0  0  0  0  0  0
  145.4660   71.1370  220.1210 H   0  0  0  0  0  0  0  0  0  0  0  0
  138.0030   70.9900  223.9822 H   0  0  0  0  0  0  0  0  0  0  0  0
  138.5840   70.6888  222.3190 H   0  0  0  0  0  0  0  0  0  0  0  0
  138.2973   68.5506  223.6196 H   0  0  0  0  0  0  0  0  0  0  0  0
  139.9886   68.7874  223.1399 H   0  0  0  0  0  0  0  0  0  0  0  0
  138.8211   67.2047  225.5386 H   0  0  0  0  0  0  0  0  0  0  0  0
  139.4531   67.2052  227.9507 H   0  0  0  0  0  0  0  0  0  0  0  0
  140.5416   69.1927  228.9436 H   0  0  0  0  0  0  0  0  0  0  0  0
  141.0133   71.1876  227.5719 H   0  0  0  0  0  0  0  0  0  0  0  0
  139.9973   72.3946  225.4990 H   0  0  0  0  0  0  0  0  0  0  0  0
  141.5742   71.6638  224.9890 H   0  0  0  0  0  0  0  0  0  0  0  0
  139.3167   76.3004  222.3685 H   0  0  0  0  0  0  0  0  0  0  0  0
  140.8803   75.9923  223.2465 H   0  0  0  0  0  0  0  0  0  0  0  0
  1  2  2  0
  2  3  1  0
  3  4  2  0
  4  5  1  0
  5  6  2  0
  5  7  1  0
  7  8  1  0
  8  9  1  0
  9 10  1  0
 10 11  2  0
 11 12  1  0
 12 13  1  0
 13 14  1  0
 14 15  1  0
 15 16  1  0
 16 17  1  0
 17 18  1  0
 18 19  1  0
 12 20  2  0
 20 21  1  0
 21 22  1  0
 22 23  1  0
 23 24  1  0
 24 25  1  0
 25 26  2  0
 26 27  1  0
 27 28  2  0
 28 29  1  0
 29 30  2  0
 30 31  1  0
 21 32  2  0
  9 33  1  0
  6  1  1  0
 32 10  1  0
 33  4  1  0
 19 15  1  0
 31 22  1  0
 30 25  1  0
  1 34  1  0
  2 35  1  0
  3 36  1  0
  6 37  1  0
  7 38  1  0
  7 39  1  0
  8 40  1  0
  8 41  1  0
 13 42  1  0
 14 43  1  0
 14 44  1  0
 15 45  1  6
 16 46  1  0
 16 47  1  0
 17 48  1  0
 17 49  1  0
 18 50  1  0
 18 51  1  0
 19 52  1  0
 23 53  1  0
 23 54  1  0
 24 55  1  0
 24 56  1  0
 26 57  1  0
 27 58  1  0
 28 59  1  0
 29 60  1  0
 31 61  1  0
 31 62  1  0
 33 63  1  0
 33 64  1  0
M  END
>  <smiles>  (53) 
c1ccc2c(c1)CCN(c1nc(NCC3CCCN3)nc(N3CCc4ccccc4C3)n1)C2

>  <score_type>  (53) 
oracle

>  <origin>  (53) 
autodockgpu

>  <m_score__min__energy>  (53) 
-10.77

>  <m_primary>  (53) 
energy

>  <rmsd>  (53) 
4.465263468810812

>  <m_score__min__rmsd>  (53) 
4.465263468810812

>  <meeko>  (53) 
{"free_energy": -10.05, "intermolecular_energy": -11.54, "internal_energy": -1.66, "cluster_size": 47, "cluster_id": 1, "rank_in_cluster": 18}

>  <energy>  (53) 
-10.71

>  <cluster_rmsd>  (53) 
0.39

>  <cluster>  (53) 
1

$$$$

     RDKit          3D

 64 69  0  0  0  0  0  0  0  0999 V2000
  141.2740   80.4740  222.0710 C   0  0  0  0  0  0  0  0  0  0  0  0
  140.4640   79.9570  223.0640 C   0  0  0  0  0  0  0  0  0  0  0  0
  140.1510   78.6050  223.1200 C   0  0  0  0  0  0  0  0  0  0  0  0
  140.6550   77.7470  222.1660 C   0  0  0  0  0  0  0  0  0  0  0  0
  141.4620   78.2720  221.1810 C   0  0  0  0  0  0  0  0  0  0  0  0
  141.7870   79.6170  221.1070 C   0  0  0  0  0  0  0  0  0  0  0  0
  142.0320   77.3920  220.1280 C   0  0  0  0  0  0  0  0  0  0  0  0
  141.2310   76.1220  219.9640 C   0  0  0  0  0  0  0  0  0  0  0  0
  140.9060   75.5140  221.2380 N   0  0  0  0  0  0  0  0  0  0  0  0
  141.1820   74.1390  221.4840 C   0  0  0  0  0  0  0  0  0  0  0  0
  142.1330   73.4960  220.7860 N   0  0  0  0  0  0  0  0  0  0  0  0
  142.4290   72.1950  220.9830 C   0  0  0  0  0  0  0  0  0  0  0  0
  143.4410   71.5320  220.2330 N   0  0  0  0  0  0  0  0  0  0  0  0
  143.7260   72.0040  218.8960 C   0  0  0  0  0  0  0  0  0  0  0  0
  145.0360   72.7940  218.9830 C   0  0  1  0  0  0  0  0  0  0  0  0
  144.6990   74.1350  219.5470 C   0  0  0  0  0  0  0  0  0  0  0  0
  145.4240   74.2680  220.8460 C   0  0  0  0  0  0  0  0  0  0  0  0
  146.1690   72.9840  221.0180 C   0  0  0  0  0  0  0  0  0  0  0  0
  145.9210   72.1380  219.8940 N   0  0  0  0  0  0  0  0  0  0  0  0
  141.7210   71.5540  221.9260 N   0  0  0  0  0  0  0  0  0  0  0  0
  140.7490   72.1420  222.6660 C   0  0  0  0  0  0  0  0  0  0  0  0
  140.0210   71.4270  223.6570 N   0  0  0  0  0  0  0  0  0  0  0  0
  138.8780   70.6180  223.3700 C   0  0  0  0  0  0  0  0  0  0  0  0
  139.2010   69.1820  223.7580 C   0  0  0  0  0  0  0  0  0  0  0  0
  139.5590   69.2070  225.2030 C   0  0  0  0  0  0  0  0  0  0  0  0
  139.2830   68.0770  225.9790 C   0  0  0  0  0  0  0  0  0  0  0  0
  139.6090   68.0790  227.3290 C   0  0  0  0  0  0  0  0  0  0  0  0
  140.2020   69.1920  227.8940 C   0  0  0  0  0  0  0  0  0  0  0  0
  140.4760   70.3010  227.1450 C   0  0  0  0  0  0  0  0  0  0  0  0
  140.1500   70.2980  225.8010 C   0  0  0  0  0  0  0  0  0  0  0  0
  140.4700   71.5290  225.0330 C   0  0  0  0  0  0  0  0  0  0  0  0
  140.4990   73.4550  222.4170 N   0  0  0  0  0  0  0  0  0  0  0  0
  140.2920   76.3210  222.2710 C   0  0  0  0  0  0  0  0  0  0  0  0
  141.5087   81.5483  222.0448 H   0  0  0  0  0  0  0  0  0  0  0  0
  140.0567   80.6336  223.8297 H   0  0  0  0  0  0  0  0  0  0  0  0
  139.5038   78.2206  223.9221 H   0  0  0  0  0  0  0  0  0  0  0  0
  142.4358   79.9964  220.3038 H   0  0  0  0  0  0  0  0  0  0  0  0
  142.0355   77.9366  219.1723 H   0  0  0  0  0  0  0  0  0  0  0  0
  143.0532   77.1156  220.4294 H   0  0  0  0  0  0  0  0  0  0  0  0
  140.2959   76.3583  219.4350 H   0  0  0  0  0  0  0  0  0  0  0  0
  141.8426   75.4072  219.3939 H   0  0  0  0  0  0  0  0  0  0  0  0
  143.9610   70.7170  220.6570 H   0  0  0  0  0  0  0  0  0  0  0  0
  143.8407   71.1527  218.2089 H   0  0  0  0  0  0  0  0  0  0  0  0
  142.9078   72.6317  218.5131 H   0  0  0  0  0  0  0  0  0  0  0  0
  145.5121   72.8729  217.9945 H   0  0  0  0  0  0  0  0  0  0  0  0
  145.0211   74.9261  218.8539 H   0  0  0  0  0  0  0  0  0  0  0  0
  143.6135   74.2320  219.6962 H   0  0  0  0  0  0  0  0  0  0  0  0
  146.1228   75.1168  220.8115 H   0  0  0  0  0  0  0  0  0  0  0  0
  144.7343   74.4559  221.6820 H   0  0  0  0  0  0  0  0  0  0  0  0
  147.2468   73.1918  221.0904 H   0  0  0  0  0  0  0  0  0  0  0  0
  145.8309   72.4830  221.9370 H   0  0  0  0  0  0  0  0  0  0  0  0
  145.6360   71.1760  220.1200 H   0  0  0  0  0  0  0  0  0  0  0  0
  138.0142   70.9750  223.9500 H   0  0  0  0  0  0  0  0  0  0  0  0
  138.6313   70.6756  222.2996 H   0  0  0  0  0  0  0  0  0  0  0  0
  138.3248   68.5375  223.5943 H   0  0  0  0  0  0  0  0  0  0  0  0
  140.0251   68.7806  223.1500 H   0  0  0  0  0  0  0  0  0  0  0  0
  138.8115   67.1936  225.5238 H   0  0  0  0  0  0  0  0  0  0  0  0
  139.3953   67.1952  227.9481 H   0  0  0  0  0  0  0  0  0  0  0  0
  140.4574   69.1848  228.9639 H   0  0  0  0  0  0  0  0  0  0  0  0
  140.9484   71.1823  227.6035 H   0  0  0  0  0  0  0  0  0  0  0  0
  139.9727   72.3870  225.5089 H   0  0  0  0  0  0  0  0  0  0  0  0
  141.5620   71.6618  225.0316 H   0  0  0  0  0  0  0  0  0  0  0  0
  139.1991   76.2284  222.1877 H   0  0  0  0  0  0  0  0  0  0  0  0
  140.6568   75.9544  223.2418 H   0  0  0  0  0  0  0  0  0  0  0  0
  1  2  2  0
  2  3  1  0
  3  4  2  0
  4  5  1  0
  5  6  2  0
  5  7  1  0
  7  8  1  0
  8  9  1  0
  9 10  1  0
 10 11  2  0
 11 12  1  0
 12 13  1  0
 13 14  1  0
 14 15  1  0
 15 16  1  0
 16 17  1  0
 17 18  1  0
 18 19  1  0
 12 20  2  0
 20 21  1  0
 21 22  1  0
 22 23  1  0
 23 24  1  0
 24 25  1  0
 25 26  2  0
 26 27  1  0
 27 28  2  0
 28 29  1  0
 29 30  2  0
 30 31  1  0
 21 32  2  0
  9 33  1  0
  6  1  1  0
 32 10  1  0
 33  4  1  0
 19 15  1  0
 31 22  1  0
 30 25  1  0
  1 34  1  0
  2 35  1  0
  3 36  1  0
  6 37  1  0
  7 38  1  0
  7 39  1  0
  8 40  1  0
  8 41  1  0
 13 42  1  0
 14 43  1  0
 14 44  1  0
 15 45  1  6
 16 46  1  0
 16 47  1  0
 17 48  1  0
 17 49  1  0
 18 50  1  0
 18 51  1  0
 19 52  1  0
 23 53  1  0
 23 54  1  0
 24 55  1  0
 24 56  1  0
 26 57  1  0
 27 58  1  0
 28 59  1  0
 29 60  1  0
 31 61  1  0
 31 62  1  0
 33 63  1  0
 33 64  1  0
M  END
>  <smiles>  (54) 
c1ccc2c(c1)CCN(c1nc(NCC3CCCN3)nc(N3CCc4ccccc4C3)n1)C2

>  <score_type>  (54) 
oracle

>  <origin>  (54) 
autodockgpu

>  <m_score__min__energy>  (54) 
-10.77

>  <m_primary>  (54) 
energy

>  <rmsd>  (54) 
4.518259551316389

>  <m_score__min__rmsd>  (54) 
4.518259551316389

>  <meeko>  (54) 
{"free_energy": -10.15, "intermolecular_energy": -11.64, "internal_energy": -1.62, "cluster_size": 47, "cluster_id": 1, "rank_in_cluster": 12}

>  <energy>  (54) 
-10.47

>  <cluster_rmsd>  (54) 
0.25

>  <cluster>  (54) 
1

$$$$

     RDKit          3D

 64 69  0  0  0  0  0  0  0  0999 V2000
  142.2970   80.8510  222.6260 C   0  0  0  0  0  0  0  0  0  0  0  0
  141.9100   80.2440  223.8060 C   0  0  0  0  0  0  0  0  0  0  0  0
  141.3920   78.9550  223.8280 C   0  0  0  0  0  0  0  0  0  0  0  0
  141.2560   78.2530  222.6490 C   0  0  0  0  0  0  0  0  0  0  0  0
  141.6450   78.8670  221.4790 C   0  0  0  0  0  0  0  0  0  0  0  0
  142.1640   80.1510  221.4340 C   0  0  0  0  0  0  0  0  0  0  0  0
  141.5190   78.1560  220.1800 C   0  0  0  0  0  0  0  0  0  0  0  0
  140.4940   77.0490  220.2430 C   0  0  0  0  0  0  0  0  0  0  0  0
  140.6380   76.2390  221.4360 N   0  0  0  0  0  0  0  0  0  0  0  0
  140.7160   74.8200  221.3520 C   0  0  0  0  0  0  0  0  0  0  0  0
  141.2750   74.2280  220.2830 N   0  0  0  0  0  0  0  0  0  0  0  0
  141.3720   72.8890  220.1590 C   0  0  0  0  0  0  0  0  0  0  0  0
  141.9680   72.2800  219.0180 N   0  0  0  0  0  0  0  0  0  0  0  0
  143.3940   72.4300  218.8250 C   0  0  0  0  0  0  0  0  0  0  0  0
  144.0170   72.5120  220.2220 C   0  0  1  0  0  0  0  0  0  0  0  0
  145.4400   72.0760  220.0900 C   0  0  0  0  0  0  0  0  0  0  0  0
  146.2990   73.2360  220.4750 C   0  0  0  0  0  0  0  0  0  0  0  0
  145.3490   74.3370  220.8170 C   0  0  0  0  0  0  0  0  0  0  0  0
  144.0070   73.8720  220.6620 N   0  0  0  0  0  0  0  0  0  0  0  0
  140.8770   72.1540  221.1680 N   0  0  0  0  0  0  0  0  0  0  0  0
  140.3010   72.6870  222.2730 C   0  0  0  0  0  0  0  0  0  0  0  0
  139.7880   71.8740  223.3210 N   0  0  0  0  0  0  0  0  0  0  0  0
  138.6320   71.0450  223.1860 C   0  0  0  0  0  0  0  0  0  0  0  0
  139.0570   69.5970  223.3920 C   0  0  0  0  0  0  0  0  0  0  0  0
  139.6780   69.5300  224.7440 C   0  0  0  0  0  0  0  0  0  0  0  0
  139.5790   68.3360  225.4660 C   0  0  0  0  0  0  0  0  0  0  0  0
  140.1510   68.2520  226.7290 C   0  0  0  0  0  0  0  0  0  0  0  0
  140.8110   69.3430  227.2610 C   0  0  0  0  0  0  0  0  0  0  0  0
  140.9130   70.5140  226.5650 C   0  0  0  0  0  0  0  0  0  0  0  0
  140.3430   70.5960  225.3080 C   0  0  0  0  0  0  0  0  0  0  0  0
  140.4830   71.8920  224.5940 C   0  0  0  0  0  0  0  0  0  0  0  0
  140.2340   74.0440  222.3360 N   0  0  0  0  0  0  0  0  0  0  0  0
  140.7010   76.8890  222.7270 C   0  0  0  0  0  0  0  0  0  0  0  0
  142.7041   81.8729  222.6311 H   0  0  0  0  0  0  0  0  0  0  0  0
  142.0148   80.7956  224.7519 H   0  0  0  0  0  0  0  0  0  0  0  0
  141.0917   78.4965  224.7817 H   0  0  0  0  0  0  0  0  0  0  0  0
  142.4633   80.6047  220.4777 H   0  0  0  0  0  0  0  0  0  0  0  0
  141.2163   78.8778  219.4071 H   0  0  0  0  0  0  0  0  0  0  0  0
  142.4938   77.7058  219.9410 H   0  0  0  0  0  0  0  0  0  0  0  0
  139.4888   77.4958  220.2370 H   0  0  0  0  0  0  0  0  0  0  0  0
  140.6465   76.3966  219.3706 H   0  0  0  0  0  0  0  0  0  0  0  0
  141.3700   71.7360  218.3400 H   0  0  0  0  0  0  0  0  0  0  0  0
  143.7967   71.5636  218.2798 H   0  0  0  0  0  0  0  0  0  0  0  0
  143.6225   73.3296  218.2346 H   0  0  0  0  0  0  0  0  0  0  0  0
  143.4613   71.8868  220.9364 H   0  0  0  0  0  0  0  0  0  0  0  0
  145.6361   71.2245  220.7582 H   0  0  0  0  0  0  0  0  0  0  0  0
  145.6552   71.7579  219.0592 H   0  0  0  0  0  0  0  0  0  0  0  0
  146.9222   72.9814  221.3449 H   0  0  0  0  0  0  0  0  0  0  0  0
  146.9844   73.5242  219.6644 H   0  0  0  0  0  0  0  0  0  0  0  0
  145.5106   74.6505  221.8589 H   0  0  0  0  0  0  0  0  0  0  0  0
  145.5211   75.1919  220.1465 H   0  0  0  0  0  0  0  0  0  0  0  0
  143.3910   74.4780  220.1040 H   0  0  0  0  0  0  0  0  0  0  0  0
  137.8833   71.3243  223.9420 H   0  0  0  0  0  0  0  0  0  0  0  0
  138.1883   71.1720  222.1875 H   0  0  0  0  0  0  0  0  0  0  0  0
  138.1817   68.9327  223.3419 H   0  0  0  0  0  0  0  0  0  0  0  0
  139.7624   69.2734  222.6124 H   0  0  0  0  0  0  0  0  0  0  0  0
  139.0525   67.4707  225.0371 H   0  0  0  0  0  0  0  0  0  0  0  0
  140.0786   67.3177  227.3051 H   0  0  0  0  0  0  0  0  0  0  0  0
  141.2618   69.2674  228.2615 H   0  0  0  0  0  0  0  0  0  0  0  0
  141.4399   71.3774  226.9974 H   0  0  0  0  0  0  0  0  0  0  0  0
  140.0621   72.6926  225.2200 H   0  0  0  0  0  0  0  0  0  0  0  0
  141.5518   72.0671  224.4018 H   0  0  0  0  0  0  0  0  0  0  0  0
  139.6842   76.9457  223.1428 H   0  0  0  0  0  0  0  0  0  0  0  0
  141.3688   76.2939  223.3673 H   0  0  0  0  0  0  0  0  0  0  0  0
  1  2  2  0
  2  3  1  0
  3  4  2  0
  4  5  1  0
  5  6  2  0
  5  7  1  0
  7  8  1  0
  8  9  1  0
  9 10  1  0
 10 11  2  0
 11 12  1  0
 12 13  1  0
 13 14  1  0
 14 15  1  0
 15 16  1  0
 16 17  1  0
 17 18  1  0
 18 19  1  0
 12 20  2  0
 20 21  1  0
 21 22  1  0
 22 23  1  0
 23 24  1  0
 24 25  1  0
 25 26  2  0
 26 27  1  0
 27 28  2  0
 28 29  1  0
 29 30  2  0
 30 31  1  0
 21 32  2  0
  9 33  1  0
  6  1  1  0
 32 10  1  0
 33  4  1  0
 19 15  1  0
 31 22  1  0
 30 25  1  0
  1 34  1  0
  2 35  1  0
  3 36  1  0
  6 37  1  0
  7 38  1  0
  7 39  1  0
  8 40  1  0
  8 41  1  0
 13 42  1  0
 14 43  1  0
 14 44  1  0
 15 45  1  1
 16 46  1  0
 16 47  1  0
 17 48  1  0
 17 49  1  0
 18 50  1  0
 18 51  1  0
 19 52  1  0
 23 53  1  0
 23 54  1  0
 24 55  1  0
 24 56  1  0
 26 57  1  0
 27 58  1  0
 28 59  1  0
 29 60  1  0
 31 61  1  0
 31 62  1  0
 33 63  1  0
 33 64  1  0
M  END
>  <smiles>  (55) 
c1ccc2c(c1)CCN(c1nc(NCC3CCCN3)nc(N3CCc4ccccc4C3)n1)C2

>  <score_type>  (55) 
oracle

>  <origin>  (55) 
autodockgpu

>  <m_score__min__energy>  (55) 
-10.77

>  <m_primary>  (55) 
energy

>  <rmsd>  (55) 
4.893735936611439

>  <m_score__min__rmsd>  (55) 
4.893735936611439

>  <meeko>  (55) 
{"free_energy": -9.74, "intermolecular_energy": -11.23, "internal_energy": -1.85, "cluster_size": 47, "cluster_id": 1, "rank_in_cluster": 27}

>  <energy>  (55) 
-10.27

>  <cluster_rmsd>  (55) 
0.82

>  <cluster>  (55) 
1

$$$$

     RDKit          3D

 64 69  0  0  0  0  0  0  0  0999 V2000
  142.1100   80.7670  222.7120 C   0  0  0  0  0  0  0  0  0  0  0  0
  141.5170   80.1870  223.8180 C   0  0  0  0  0  0  0  0  0  0  0  0
  141.0130   78.8940  223.7820 C   0  0  0  0  0  0  0  0  0  0  0  0
  141.0990   78.1590  222.6180 C   0  0  0  0  0  0  0  0  0  0  0  0
  141.6920   78.7450  221.5220 C   0  0  0  0  0  0  0  0  0  0  0  0
  142.2010   80.0330  221.5370 C   0  0  0  0  0  0  0  0  0  0  0  0
  141.8110   77.9980  220.2440 C   0  0  0  0  0  0  0  0  0  0  0  0
  140.7980   76.8820  220.1490 C   0  0  0  0  0  0  0  0  0  0  0  0
  140.7270   76.1060  221.3710 N   0  0  0  0  0  0  0  0  0  0  0  0
  140.8290   74.6860  221.3430 C   0  0  0  0  0  0  0  0  0  0  0  0
  141.4230   74.0630  220.3120 N   0  0  0  0  0  0  0  0  0  0  0  0
  141.5430   72.7210  220.2410 C   0  0  0  0  0  0  0  0  0  0  0  0
  142.1760   72.0790  219.1400 N   0  0  0  0  0  0  0  0  0  0  0  0
  142.9050   70.8540  219.3840 C   0  0  0  0  0  0  0  0  0  0  0  0
  144.2890   71.2650  219.8980 C   0  0  1  0  0  0  0  0  0  0  0  0
  144.8970   72.1450  218.8550 C   0  0  0  0  0  0  0  0  0  0  0  0
  145.1130   73.4870  219.4740 C   0  0  0  0  0  0  0  0  0  0  0  0
  144.6110   73.3640  220.8760 C   0  0  0  0  0  0  0  0  0  0  0  0
  144.1360   72.0340  221.0940 N   0  0  0  0  0  0  0  0  0  0  0  0
  141.0340   72.0180  221.2660 N   0  0  0  0  0  0  0  0  0  0  0  0
  140.4230   72.5830  222.3350 C   0  0  0  0  0  0  0  0  0  0  0  0
  139.8960   71.8020  223.4010 N   0  0  0  0  0  0  0  0  0  0  0  0
  138.7110   71.0100  223.2930 C   0  0  0  0  0  0  0  0  0  0  0  0
  139.0900   69.5530  223.5140 C   0  0  0  0  0  0  0  0  0  0  0  0
  139.7250   69.4830  224.8590 C   0  0  0  0  0  0  0  0  0  0  0  0
  139.5960   68.3030  225.5980 C   0  0  0  0  0  0  0  0  0  0  0  0
  140.1810   68.2170  226.8560 C   0  0  0  0  0  0  0  0  0  0  0  0
  140.8840   69.2930  227.3640 C   0  0  0  0  0  0  0  0  0  0  0  0
  141.0170   70.4500  226.6500 C   0  0  0  0  0  0  0  0  0  0  0  0
  140.4330   70.5340  225.3990 C   0  0  0  0  0  0  0  0  0  0  0  0
  140.6080   71.8140  224.6650 C   0  0  0  0  0  0  0  0  0  0  0  0
  140.3340   73.9400  222.3450 N   0  0  0  0  0  0  0  0  0  0  0  0
  140.5480   76.7900  222.6330 C   0  0  0  0  0  0  0  0  0  0  0  0
  142.5032   81.7931  222.7621 H   0  0  0  0  0  0  0  0  0  0  0  0
  141.4426   80.7651  224.7508 H   0  0  0  0  0  0  0  0  0  0  0  0
  140.5471   78.4575  224.6778 H   0  0  0  0  0  0  0  0  0  0  0  0
  142.6666   80.4645  220.6387 H   0  0  0  0  0  0  0  0  0  0  0  0
  141.6518   78.6952  219.4082 H   0  0  0  0  0  0  0  0  0  0  0  0
  142.8155   77.5518  220.2016 H   0  0  0  0  0  0  0  0  0  0  0  0
  139.8082   77.3174  219.9471 H   0  0  0  0  0  0  0  0  0  0  0  0
  141.1104   76.2086  219.3372 H   0  0  0  0  0  0  0  0  0  0  0  0
  142.1060   72.5010  218.1750 H   0  0  0  0  0  0  0  0  0  0  0  0
  142.3846   70.2462  220.1388 H   0  0  0  0  0  0  0  0  0  0  0  0
  142.9845   70.2498  218.4682 H   0  0  0  0  0  0  0  0  0  0  0  0
  144.9104   70.3804  220.1012 H   0  0  0  0  0  0  0  0  0  0  0  0
  145.8578   71.7253  218.5223 H   0  0  0  0  0  0  0  0  0  0  0  0
  144.2362   72.2229  217.9790 H   0  0  0  0  0  0  0  0  0  0  0  0
  146.1823   73.7450  219.4696 H   0  0  0  0  0  0  0  0  0  0  0  0
  144.5900   74.2811  218.9209 H   0  0  0  0  0  0  0  0  0  0  0  0
  145.4284   73.5819  221.5792 H   0  0  0  0  0  0  0  0  0  0  0  0
  143.7905   74.0787  221.0370 H   0  0  0  0  0  0  0  0  0  0  0  0
  143.1970   71.9630  221.5090 H   0  0  0  0  0  0  0  0  0  0  0  0
  137.9823   71.3247  224.0546 H   0  0  0  0  0  0  0  0  0  0  0  0
  138.2584   71.1378  222.2986 H   0  0  0  0  0  0  0  0  0  0  0  0
  138.1926   68.9177  223.4835 H   0  0  0  0  0  0  0  0  0  0  0  0
  139.7748   69.1959  222.7307 H   0  0  0  0  0  0  0  0  0  0  0  0
  139.0362   67.4498  225.1873 H   0  0  0  0  0  0  0  0  0  0  0  0
  140.0845   67.2939  227.4463 H   0  0  0  0  0  0  0  0  0  0  0  0
  141.3442   69.2165  228.3601 H   0  0  0  0  0  0  0  0  0  0  0  0
  141.5791   71.3006  227.0630 H   0  0  0  0  0  0  0  0  0  0  0  0
  140.2229   72.6373  225.2847 H   0  0  0  0  0  0  0  0  0  0  0  0
  141.6796   71.9496  224.4570 H   0  0  0  0  0  0  0  0  0  0  0  0
  139.4720   76.8454  222.8545 H   0  0  0  0  0  0  0  0  0  0  0  0
  141.0908   76.2201  223.4015 H   0  0  0  0  0  0  0  0  0  0  0  0
  1  2  2  0
  2  3  1  0
  3  4  2  0
  4  5  1  0
  5  6  2  0
  5  7  1  0
  7  8  1  0
  8  9  1  0
  9 10  1  0
 10 11  2  0
 11 12  1  0
 12 13  1  0
 13 14  1  0
 14 15  1  0
 15 16  1  0
 16 17  1  0
 17 18  1  0
 18 19  1  0
 12 20  2  0
 20 21  1  0
 21 22  1  0
 22 23  1  0
 23 24  1  0
 24 25  1  0
 25 26  2  0
 26 27  1  0
 27 28  2  0
 28 29  1  0
 29 30  2  0
 30 31  1  0
 21 32  2  0
  9 33  1  0
  6  1  1  0
 32 10  1  0
 33  4  1  0
 19 15  1  0
 31 22  1  0
 30 25  1  0
  1 34  1  0
  2 35  1  0
  3 36  1  0
  6 37  1  0
  7 38  1  0
  7 39  1  0
  8 40  1  0
  8 41  1  0
 13 42  1  0
 14 43  1  0
 14 44  1  0
 15 45  1  1
 16 46  1  0
 16 47  1  0
 17 48  1  0
 17 49  1  0
 18 50  1  0
 18 51  1  0
 19 52  1  0
 23 53  1  0
 23 54  1  0
 24 55  1  0
 24 56  1  0
 26 57  1  0
 27 58  1  0
 28 59  1  0
 29 60  1  0
 31 61  1  0
 31 62  1  0
 33 63  1  0
 33 64  1  0
M  END
>  <smiles>  (56) 
c1ccc2c(c1)CCN(c1nc(NCC3CCCN3)nc(N3CCc4ccccc4C3)n1)C2

>  <score_type>  (56) 
oracle

>  <origin>  (56) 
autodockgpu

>  <m_score__min__energy>  (56) 
-10.77

>  <m_primary>  (56) 
energy

>  <rmsd>  (56) 
4.878955327054528

>  <m_score__min__rmsd>  (56) 
4.878955327054528

>  <meeko>  (56) 
{"free_energy": -9.34, "intermolecular_energy": -10.83, "internal_energy": -1.91, "cluster_size": 47, "cluster_id": 1, "rank_in_cluster": 40}

>  <energy>  (56) 
-10.23

>  <cluster_rmsd>  (56) 
0.68

>  <cluster>  (56) 
1

$$$$

     RDKit          3D

 64 69  0  0  0  0  0  0  0  0999 V2000
  142.3330   80.8180  222.6380 C   0  0  0  0  0  0  0  0  0  0  0  0
  141.9480   80.2090  223.8170 C   0  0  0  0  0  0  0  0  0  0  0  0
  141.4150   78.9270  223.8360 C   0  0  0  0  0  0  0  0  0  0  0  0
  141.2610   78.2330  222.6540 C   0  0  0  0  0  0  0  0  0  0  0  0
  141.6480   78.8490  221.4850 C   0  0  0  0  0  0  0  0  0  0  0  0
  142.1820   80.1270  221.4440 C   0  0  0  0  0  0  0  0  0  0  0  0
  141.5040   78.1470  220.1830 C   0  0  0  0  0  0  0  0  0  0  0  0
  140.4650   77.0530  220.2480 C   0  0  0  0  0  0  0  0  0  0  0  0
  140.6080   76.2340  221.4350 N   0  0  0  0  0  0  0  0  0  0  0  0
  140.6690   74.8150  221.3420 C   0  0  0  0  0  0  0  0  0  0  0  0
  141.1790   74.2220  220.2500 N   0  0  0  0  0  0  0  0  0  0  0  0
  141.2580   72.8820  220.1160 C   0  0  0  0  0  0  0  0  0  0  0  0
  141.8030   72.2720  218.9520 N   0  0  0  0  0  0  0  0  0  0  0  0
  143.2380   72.2940  218.7710 C   0  0  0  0  0  0  0  0  0  0  0  0
  143.8460   72.5710  220.1500 C   0  0  1  0  0  0  0  0  0  0  0  0
  145.2640   72.1020  220.1020 C   0  0  0  0  0  0  0  0  0  0  0  0
  146.1360   73.2930  220.3250 C   0  0  0  0  0  0  0  0  0  0  0  0
  145.1990   74.4460  220.4890 C   0  0  0  0  0  0  0  0  0  0  0  0
  143.8520   73.9810  220.3850 N   0  0  0  0  0  0  0  0  0  0  0  0
  140.7940   72.1480  221.1410 N   0  0  0  0  0  0  0  0  0  0  0  0
  140.2670   72.6820  222.2700 C   0  0  0  0  0  0  0  0  0  0  0  0
  139.7870   71.8690  223.3340 N   0  0  0  0  0  0  0  0  0  0  0  0
  138.5860   71.0980  223.2610 C   0  0  0  0  0  0  0  0  0  0  0  0
  138.9550   69.6280  223.4090 C   0  0  0  0  0  0  0  0  0  0  0  0
  139.6600   69.5010  224.7150 C   0  0  0  0  0  0  0  0  0  0  0  0
  139.5530   68.2970  225.4170 C   0  0  0  0  0  0  0  0  0  0  0  0
  140.2030   68.1570  226.6370 C   0  0  0  0  0  0  0  0  0  0  0  0
  140.9480   69.2040  227.1450 C   0  0  0  0  0  0  0  0  0  0  0  0
  141.0600   70.3850  226.4670 C   0  0  0  0  0  0  0  0  0  0  0  0
  140.4110   70.5220  225.2530 C   0  0  0  0  0  0  0  0  0  0  0  0
  140.5650   71.8260  224.5570 C   0  0  0  0  0  0  0  0  0  0  0  0
  140.2180   74.0390  222.3410 N   0  0  0  0  0  0  0  0  0  0  0  0
  140.6900   76.8750  222.7290 C   0  0  0  0  0  0  0  0  0  0  0  0
  142.7527   81.8348  222.6457 H   0  0  0  0  0  0  0  0  0  0  0  0
  142.0668   80.7539  224.7651 H   0  0  0  0  0  0  0  0  0  0  0  0
  141.1168   78.4668  224.7896 H   0  0  0  0  0  0  0  0  0  0  0  0
  142.4791   80.5829  220.4880 H   0  0  0  0  0  0  0  0  0  0  0  0
  141.2052   78.8768  219.4161 H   0  0  0  0  0  0  0  0  0  0  0  0
  142.4712   77.6858  219.9342 H   0  0  0  0  0  0  0  0  0  0  0  0
  139.4658   77.5129  220.2529 H   0  0  0  0  0  0  0  0  0  0  0  0
  140.6018   76.4039  219.3706 H   0  0  0  0  0  0  0  0  0  0  0  0
  141.1610   71.8190  218.2460 H   0  0  0  0  0  0  0  0  0  0  0  0
  143.5879   71.3234  218.3894 H   0  0  0  0  0  0  0  0  0  0  0  0
  143.5355   73.0633  218.0432 H   0  0  0  0  0  0  0  0  0  0  0  0
  143.2730   72.0645  220.9406 H   0  0  0  0  0  0  0  0  0  0  0  0
  145.4397   71.3546  220.8898 H   0  0  0  0  0  0  0  0  0  0  0  0
  145.4858   71.6346  219.1313 H   0  0  0  0  0  0  0  0  0  0  0  0
  146.7448   73.1599  221.2314 H   0  0  0  0  0  0  0  0  0  0  0  0
  146.8354   73.4498  219.4906 H   0  0  0  0  0  0  0  0  0  0  0  0
  145.3531   74.9067  221.4759 H   0  0  0  0  0  0  0  0  0  0  0  0
  145.3923   75.1913  219.7034 H   0  0  0  0  0  0  0  0  0  0  0  0
  143.2520   74.5070  219.7360 H   0  0  0  0  0  0  0  0  0  0  0  0
  137.9035   71.3941  224.0713 H   0  0  0  0  0  0  0  0  0  0  0  0
  138.0828   71.2685  222.2978 H   0  0  0  0  0  0  0  0  0  0  0  0
  138.0480   69.0057  223.4042 H   0  0  0  0  0  0  0  0  0  0  0  0
  139.5916   69.2909  222.5777 H   0  0  0  0  0  0  0  0  0  0  0  0
  138.9589   67.4670  225.0069 H   0  0  0  0  0  0  0  0  0  0  0  0
  140.1246   67.2139  227.1977 H   0  0  0  0  0  0  0  0  0  0  0  0
  141.4595   69.0847  228.1115 H   0  0  0  0  0  0  0  0  0  0  0  0
  141.6559   71.2125  226.8794 H   0  0  0  0  0  0  0  0  0  0  0  0
  140.2252   72.6307  225.2256 H   0  0  0  0  0  0  0  0  0  0  0  0
  141.6259   71.9560  224.2968 H   0  0  0  0  0  0  0  0  0  0  0  0
  139.6776   76.9414  223.1541 H   0  0  0  0  0  0  0  0  0  0  0  0
  141.3558   76.2679  223.3600 H   0  0  0  0  0  0  0  0  0  0  0  0
  1  2  2  0
  2  3  1  0
  3  4  2  0
  4  5  1  0
  5  6  2  0
  5  7  1  0
  7  8  1  0
  8  9  1  0
  9 10  1  0
 10 11  2  0
 11 12  1  0
 12 13  1  0
 13 14  1  0
 14 15  1  0
 15 16  1  0
 16 17  1  0
 17 18  1  0
 18 19  1  0
 12 20  2  0
 20 21  1  0
 21 22  1  0
 22 23  1  0
 23 24  1  0
 24 25  1  0
 25 26  2  0
 26 27  1  0
 27 28  2  0
 28 29  1  0
 29 30  2  0
 30 31  1  0
 21 32  2  0
  9 33  1  0
  6  1  1  0
 32 10  1  0
 33  4  1  0
 19 15  1  0
 31 22  1  0
 30 25  1  0
  1 34  1  0
  2 35  1  0
  3 36  1  0
  6 37  1  0
  7 38  1  0
  7 39  1  0
  8 40  1  0
  8 41  1  0
 13 42  1  0
 14 43  1  0
 14 44  1  0
 15 45  1  1
 16 46  1  0
 16 47  1  0
 17 48  1  0
 17 49  1  0
 18 50  1  0
 18 51  1  0
 19 52  1  0
 23 53  1  0
 23 54  1  0
 24 55  1  0
 24 56  1  0
 26 57  1  0
 27 58  1  0
 28 59  1  0
 29 60  1  0
 31 61  1  0
 31 62  1  0
 33 63  1  0
 33 64  1  0
M  END
>  <smiles>  (57) 
c1ccc2c(c1)CCN(c1nc(NCC3CCCN3)nc(N3CCc4ccccc4C3)n1)C2

>  <score_type>  (57) 
oracle

>  <origin>  (57) 
autodockgpu

>  <m_score__min__energy>  (57) 
-10.77

>  <m_primary>  (57) 
energy

>  <rmsd>  (57) 
4.90054540976491

>  <m_score__min__rmsd>  (57) 
4.90054540976491

>  <meeko>  (57) 
{"free_energy": -9.68, "intermolecular_energy": -11.17, "internal_energy": -1.82, "cluster_size": 47, "cluster_id": 1, "rank_in_cluster": 29}

>  <energy>  (57) 
-10.21

>  <cluster_rmsd>  (57) 
0.69

>  <cluster>  (57) 
1

$$$$

     RDKit          3D

 64 69  0  0  0  0  0  0  0  0999 V2000
  141.8460   80.4700  222.3420 C   0  0  0  0  0  0  0  0  0  0  0  0
  141.1130   79.9560  223.3950 C   0  0  0  0  0  0  0  0  0  0  0  0
  140.6580   78.6450  223.3950 C   0  0  0  0  0  0  0  0  0  0  0  0
  140.9370   77.8240  222.3230 C   0  0  0  0  0  0  0  0  0  0  0  0
  141.6690   78.3450  221.2800 C   0  0  0  0  0  0  0  0  0  0  0  0
  142.1330   79.6500  221.2590 C   0  0  0  0  0  0  0  0  0  0  0  0
  141.9980   77.5050  220.0990 C   0  0  0  0  0  0  0  0  0  0  0  0
  141.0430   76.3440  219.9540 C   0  0  0  0  0  0  0  0  0  0  0  0
  140.8140   75.6650  221.2130 N   0  0  0  0  0  0  0  0  0  0  0  0
  140.9600   74.2530  221.3200 C   0  0  0  0  0  0  0  0  0  0  0  0
  141.6390   73.5620  220.3890 N   0  0  0  0  0  0  0  0  0  0  0  0
  141.8040   72.2250  220.4480 C   0  0  0  0  0  0  0  0  0  0  0  0
  142.5270   71.5110  219.4510 N   0  0  0  0  0  0  0  0  0  0  0  0
  143.7530   70.8460  219.8340 C   0  0  0  0  0  0  0  0  0  0  0  0
  144.8910   71.8310  219.5460 C   0  0  1  0  0  0  0  0  0  0  0  0
  144.3130   72.9340  218.7200 C   0  0  0  0  0  0  0  0  0  0  0  0
  144.4470   74.1970  219.5070 C   0  0  0  0  0  0  0  0  0  0  0  0
  145.0970   73.7970  220.7910 C   0  0  0  0  0  0  0  0  0  0  0  0
  145.3510   72.3910  220.7770 N   0  0  0  0  0  0  0  0  0  0  0  0
  141.2500   71.5970  221.4970 N   0  0  0  0  0  0  0  0  0  0  0  0
  140.5530   72.2320  222.4710 C   0  0  0  0  0  0  0  0  0  0  0  0
  139.9820   71.5300  223.5680 N   0  0  0  0  0  0  0  0  0  0  0  0
  138.7710   70.7750  223.4810 C   0  0  0  0  0  0  0  0  0  0  0  0
  139.0950   69.3190  223.7900 C   0  0  0  0  0  0  0  0  0  0  0  0
  139.7050   69.3030  225.1480 C   0  0  0  0  0  0  0  0  0  0  0  0
  139.5220   68.1720  225.9490 C   0  0  0  0  0  0  0  0  0  0  0  0
  140.0820   68.1360  227.2200 C   0  0  0  0  0  0  0  0  0  0  0  0
  140.8130   69.2140  227.6820 C   0  0  0  0  0  0  0  0  0  0  0  0
  140.9980   70.3240  226.9070 C   0  0  0  0  0  0  0  0  0  0  0  0
  140.4400   70.3580  225.6430 C   0  0  0  0  0  0  0  0  0  0  0  0
  140.6710   71.5890  224.8430 C   0  0  0  0  0  0  0  0  0  0  0  0
  140.4240   73.5810  222.3520 N   0  0  0  0  0  0  0  0  0  0  0  0
  140.4300   76.4390  222.3730 C   0  0  0  0  0  0  0  0  0  0  0  0
  142.1965   81.5125  222.3617 H   0  0  0  0  0  0  0  0  0  0  0  0
  140.8845   80.6026  224.2550 H   0  0  0  0  0  0  0  0  0  0  0  0
  140.0770   78.2623  224.2470 H   0  0  0  0  0  0  0  0  0  0  0  0
  142.7147   80.0275  220.4051 H   0  0  0  0  0  0  0  0  0  0  0  0
  141.9430   78.1267  219.1932 H   0  0  0  0  0  0  0  0  0  0  0  0
  143.0109   77.0996  220.2388 H   0  0  0  0  0  0  0  0  0  0  0  0
  140.0818   76.7209  219.5745 H   0  0  0  0  0  0  0  0  0  0  0  0
  141.4923   75.6215  219.2568 H   0  0  0  0  0  0  0  0  0  0  0  0
  142.1630   71.4780  218.4600 H   0  0  0  0  0  0  0  0  0  0  0  0
  143.7302   70.5942  220.9046 H   0  0  0  0  0  0  0  0  0  0  0  0
  143.8879   69.9081  219.2753 H   0  0  0  0  0  0  0  0  0  0  0  0
  145.7242   71.3281  219.0332 H   0  0  0  0  0  0  0  0  0  0  0  0
  144.8631   73.0216  217.7714 H   0  0  0  0  0  0  0  0  0  0  0  0
  143.2575   72.7321  218.4853 H   0  0  0  0  0  0  0  0  0  0  0  0
  145.0743   74.9219  218.9675 H   0  0  0  0  0  0  0  0  0  0  0  0
  143.4730   74.6800  219.6746 H   0  0  0  0  0  0  0  0  0  0  0  0
  146.0465   74.3402  220.9064 H   0  0  0  0  0  0  0  0  0  0  0  0
  144.4309   74.0415  221.6316 H   0  0  0  0  0  0  0  0  0  0  0  0
  145.0280   71.8760  221.6070 H   0  0  0  0  0  0  0  0  0  0  0  0
  138.0409   71.1568  224.2098 H   0  0  0  0  0  0  0  0  0  0  0  0
  138.3400   70.8628  222.4728 H   0  0  0  0  0  0  0  0  0  0  0  0
  138.1763   68.7141  223.7785 H   0  0  0  0  0  0  0  0  0  0  0  0
  139.7795   68.8951  223.0404 H   0  0  0  0  0  0  0  0  0  0  0  0
  138.9391   67.3170  225.5758 H   0  0  0  0  0  0  0  0  0  0  0  0
  139.9437   67.2505  227.8578 H   0  0  0  0  0  0  0  0  0  0  0  0
  141.2529   69.1779  228.6896 H   0  0  0  0  0  0  0  0  0  0  0  0
  141.5818   71.1771  227.2831 H   0  0  0  0  0  0  0  0  0  0  0  0
  140.3028   72.4575  225.4087 H   0  0  0  0  0  0  0  0  0  0  0  0
  141.7501   71.6777  224.6490 H   0  0  0  0  0  0  0  0  0  0  0  0
  139.3318   76.4675  222.4300 H   0  0  0  0  0  0  0  0  0  0  0  0
  140.8692   75.9547  223.2576 H   0  0  0  0  0  0  0  0  0  0  0  0
  1  2  2  0
  2  3  1  0
  3  4  2  0
  4  5  1  0
  5  6  2  0
  5  7  1  0
  7  8  1  0
  8  9  1  0
  9 10  1  0
 10 11  2  0
 11 12  1  0
 12 13  1  0
 13 14  1  0
 14 15  1  0
 15 16  1  0
 16 17  1  0
 17 18  1  0
 18 19  1  0
 12 20  2  0
 20 21  1  0
 21 22  1  0
 22 23  1  0
 23 24  1  0
 24 25  1  0
 25 26  2  0
 26 27  1  0
 27 28  2  0
 28 29  1  0
 29 30  2  0
 30 31  1  0
 21 32  2  0
  9 33  1  0
  6  1  1  0
 32 10  1  0
 33  4  1  0
 19 15  1  0
 31 22  1  0
 30 25  1  0
  1 34  1  0
  2 35  1  0
  3 36  1  0
  6 37  1  0
  7 38  1  0
  7 39  1  0
  8 40  1  0
  8 41  1  0
 13 42  1  0
 14 43  1  0
 14 44  1  0
 15 45  1  6
 16 46  1  0
 16 47  1  0
 17 48  1  0
 17 49  1  0
 18 50  1  0
 18 51  1  0
 19 52  1  0
 23 53  1  0
 23 54  1  0
 24 55  1  0
 24 56  1  0
 26 57  1  0
 27 58  1  0
 28 59  1  0
 29 60  1  0
 31 61  1  0
 31 62  1  0
 33 63  1  0
 33 64  1  0
M  END
>  <smiles>  (58) 
c1ccc2c(c1)CCN(c1nc(NCC3CCCN3)nc(N3CCc4ccccc4C3)n1)C2

>  <score_type>  (58) 
oracle

>  <origin>  (58) 
autodockgpu

>  <m_score__min__energy>  (58) 
-10.77

>  <m_primary>  (58) 
energy

>  <rmsd>  (58) 
4.651945556028281

>  <m_score__min__rmsd>  (58) 
4.651945556028281

>  <meeko>  (58) 
{"free_energy": -10.12, "intermolecular_energy": -11.61, "internal_energy": -1.4, "cluster_size": 47, "cluster_id": 1, "rank_in_cluster": 15}

>  <energy>  (58) 
-10.19

>  <cluster_rmsd>  (58) 
0.68

>  <cluster>  (58) 
1

$$$$

     RDKit          3D

 64 69  0  0  0  0  0  0  0  0999 V2000
  142.2040   80.8910  222.6930 C   0  0  0  0  0  0  0  0  0  0  0  0
  141.7290   80.2890  223.8440 C   0  0  0  0  0  0  0  0  0  0  0  0
  141.2310   78.9930  223.8360 C   0  0  0  0  0  0  0  0  0  0  0  0
  141.2060   78.2770  222.6580 C   0  0  0  0  0  0  0  0  0  0  0  0
  141.6820   78.8850  221.5180 C   0  0  0  0  0  0  0  0  0  0  0  0
  142.1830   80.1770  221.5030 C   0  0  0  0  0  0  0  0  0  0  0  0
  141.6770   78.1590  220.2220 C   0  0  0  0  0  0  0  0  0  0  0  0
  140.6670   77.0370  220.2110 C   0  0  0  0  0  0  0  0  0  0  0  0
  140.7220   76.2410  221.4200 N   0  0  0  0  0  0  0  0  0  0  0  0
  140.8300   74.8230  221.3590 C   0  0  0  0  0  0  0  0  0  0  0  0
  141.4310   74.2270  220.3160 N   0  0  0  0  0  0  0  0  0  0  0  0
  141.5560   72.8880  220.2140 C   0  0  0  0  0  0  0  0  0  0  0  0
  142.1970   72.2750  219.1010 N   0  0  0  0  0  0  0  0  0  0  0  0
  142.8140   70.9800  219.2890 C   0  0  0  0  0  0  0  0  0  0  0  0
  144.2280   71.2430  219.8150 C   0  0  1  0  0  0  0  0  0  0  0  0
  144.9210   72.0900  218.7980 C   0  0  0  0  0  0  0  0  0  0  0  0
  145.2600   73.3880  219.4560 C   0  0  0  0  0  0  0  0  0  0  0  0
  144.7450   73.2720  220.8540 C   0  0  0  0  0  0  0  0  0  0  0  0
  144.1450   71.9870  221.0330 N   0  0  0  0  0  0  0  0  0  0  0  0
  141.0450   72.1580  221.2190 N   0  0  0  0  0  0  0  0  0  0  0  0
  140.4270   72.6950  222.2990 C   0  0  0  0  0  0  0  0  0  0  0  0
  139.8980   71.8870  223.3430 N   0  0  0  0  0  0  0  0  0  0  0  0
  138.7130   71.0990  223.2120 C   0  0  0  0  0  0  0  0  0  0  0  0
  139.0910   69.6360  223.3960 C   0  0  0  0  0  0  0  0  0  0  0  0
  139.7240   69.5310  224.7400 C   0  0  0  0  0  0  0  0  0  0  0  0
  139.5930   68.3330  225.4480 C   0  0  0  0  0  0  0  0  0  0  0  0
  140.1750   68.2130  226.7040 C   0  0  0  0  0  0  0  0  0  0  0  0
  140.8780   69.2750  227.2410 C   0  0  0  0  0  0  0  0  0  0  0  0
  141.0120   70.4500  226.5570 C   0  0  0  0  0  0  0  0  0  0  0  0
  140.4310   70.5670  225.3080 C   0  0  0  0  0  0  0  0  0  0  0  0
  140.6080   71.8660  224.6080 C   0  0  0  0  0  0  0  0  0  0  0  0
  140.3340   74.0510  222.3400 N   0  0  0  0  0  0  0  0  0  0  0  0
  140.6670   76.9040  222.7050 C   0  0  0  0  0  0  0  0  0  0  0  0
  142.5924   81.9198  222.7203 H   0  0  0  0  0  0  0  0  0  0  0  0
  141.7462   80.8510  224.7894 H   0  0  0  0  0  0  0  0  0  0  0  0
  140.8578   78.5392  224.7659 H   0  0  0  0  0  0  0  0  0  0  0  0
  142.5551   80.6259  220.5703 H   0  0  0  0  0  0  0  0  0  0  0  0
  141.4303   78.8679  219.4179 H   0  0  0  0  0  0  0  0  0  0  0  0
  142.6751   77.7217  220.0716 H   0  0  0  0  0  0  0  0  0  0  0  0
  139.6594   77.4680  220.1159 H   0  0  0  0  0  0  0  0  0  0  0  0
  140.9020   76.3787  219.3616 H   0  0  0  0  0  0  0  0  0  0  0  0
  142.2140   72.7670  218.1670 H   0  0  0  0  0  0  0  0  0  0  0  0
  142.2412   70.3887  220.0186 H   0  0  0  0  0  0  0  0  0  0  0  0
  142.8396   70.4117  218.3476 H   0  0  0  0  0  0  0  0  0  0  0  0
  144.7621   70.2980  219.9928 H   0  0  0  0  0  0  0  0  0  0  0  0
  145.8393   71.5908  218.4553 H   0  0  0  0  0  0  0  0  0  0  0  0
  144.2749   72.2544  217.9231 H   0  0  0  0  0  0  0  0  0  0  0  0
  146.3487   73.5450  219.4589 H   0  0  0  0  0  0  0  0  0  0  0  0
  144.8149   74.2431  218.9262 H   0  0  0  0  0  0  0  0  0  0  0  0
  145.5776   73.3904  221.5630 H   0  0  0  0  0  0  0  0  0  0  0  0
  143.9956   74.0564  221.0362 H   0  0  0  0  0  0  0  0  0  0  0  0
  143.2030   71.9930  221.4460 H   0  0  0  0  0  0  0  0  0  0  0  0
  137.9829   71.3942  223.9800 H   0  0  0  0  0  0  0  0  0  0  0  0
  138.2624   71.2529  222.2204 H   0  0  0  0  0  0  0  0  0  0  0  0
  138.1933   69.0022  223.3477 H   0  0  0  0  0  0  0  0  0  0  0  0
  139.7768   69.2988  222.6048 H   0  0  0  0  0  0  0  0  0  0  0  0
  139.0333   67.4914  225.0140 H   0  0  0  0  0  0  0  0  0  0  0  0
  140.0765   67.2748  227.2698 H   0  0  0  0  0  0  0  0  0  0  0  0
  141.3371   69.1724  228.2353 H   0  0  0  0  0  0  0  0  0  0  0  0
  141.5732   71.2896  226.9931 H   0  0  0  0  0  0  0  0  0  0  0  0
  140.2223   72.6730  225.2483 H   0  0  0  0  0  0  0  0  0  0  0  0
  141.6800   72.0068  224.4055 H   0  0  0  0  0  0  0  0  0  0  0  0
  139.6184   76.9481  223.0342 H   0  0  0  0  0  0  0  0  0  0  0  0
  141.2878   76.3259  223.4053 H   0  0  0  0  0  0  0  0  0  0  0  0
  1  2  2  0
  2  3  1  0
  3  4  2  0
  4  5  1  0
  5  6  2  0
  5  7  1  0
  7  8  1  0
  8  9  1  0
  9 10  1  0
 10 11  2  0
 11 12  1  0
 12 13  1  0
 13 14  1  0
 14 15  1  0
 15 16  1  0
 16 17  1  0
 17 18  1  0
 18 19  1  0
 12 20  2  0
 20 21  1  0
 21 22  1  0
 22 23  1  0
 23 24  1  0
 24 25  1  0
 25 26  2  0
 26 27  1  0
 27 28  2  0
 28 29  1  0
 29 30  2  0
 30 31  1  0
 21 32  2  0
  9 33  1  0
  6  1  1  0
 32 10  1  0
 33  4  1  0
 19 15  1  0
 31 22  1  0
 30 25  1  0
  1 34  1  0
  2 35  1  0
  3 36  1  0
  6 37  1  0
  7 38  1  0
  7 39  1  0
  8 40  1  0
  8 41  1  0
 13 42  1  0
 14 43  1  0
 14 44  1  0
 15 45  1  1
 16 46  1  0
 16 47  1  0
 17 48  1  0
 17 49  1  0
 18 50  1  0
 18 51  1  0
 19 52  1  0
 23 53  1  0
 23 54  1  0
 24 55  1  0
 24 56  1  0
 26 57  1  0
 27 58  1  0
 28 59  1  0
 29 60  1  0
 31 61  1  0
 31 62  1  0
 33 63  1  0
 33 64  1  0
M  END
>  <smiles>  (59) 
c1ccc2c(c1)CCN(c1nc(NCC3CCCN3)nc(N3CCc4ccccc4C3)n1)C2

>  <score_type>  (59) 
oracle

>  <origin>  (59) 
autodockgpu

>  <m_score__min__energy>  (59) 
-10.77

>  <m_primary>  (59) 
energy

>  <rmsd>  (59) 
4.910391806902239

>  <m_score__min__rmsd>  (59) 
4.910391806902239

>  <meeko>  (59) 
{"free_energy": -9.41, "intermolecular_energy": -10.9, "internal_energy": -1.92, "cluster_size": 47, "cluster_id": 1, "rank_in_cluster": 34}

>  <energy>  (59) 
-10.18

>  <cluster_rmsd>  (59) 
0.68

>  <cluster>  (59) 
1

$$$$

     RDKit          3D

 64 69  0  0  0  0  0  0  0  0999 V2000
  140.4590   67.4550  227.2010 C   0  0  0  0  0  0  0  0  0  0  0  0
  139.5890   67.1100  226.1840 C   0  0  0  0  0  0  0  0  0  0  0  0
  139.3000   67.9830  225.1440 C   0  0  0  0  0  0  0  0  0  0  0  0
  139.8900   69.2300  225.1140 C   0  0  0  0  0  0  0  0  0  0  0  0
  140.7550   69.5630  226.1320 C   0  0  0  0  0  0  0  0  0  0  0  0
  141.0570   68.7070  227.1780 C   0  0  0  0  0  0  0  0  0  0  0  0
  141.4170   70.8930  226.1490 C   0  0  0  0  0  0  0  0  0  0  0  0
  140.6560   71.9100  225.3320 C   0  0  0  0  0  0  0  0  0  0  0  0
  140.2520   71.3830  224.0440 N   0  0  0  0  0  0  0  0  0  0  0  0
  140.5360   72.0890  222.8420 C   0  0  0  0  0  0  0  0  0  0  0  0
  141.1280   71.4690  221.8070 N   0  0  0  0  0  0  0  0  0  0  0  0
  141.4170   72.0970  220.6490 C   0  0  0  0  0  0  0  0  0  0  0  0
  142.0440   71.4220  219.5640 N   0  0  0  0  0  0  0  0  0  0  0  0
  143.2540   71.9870  219.0090 C   0  0  0  0  0  0  0  0  0  0  0  0
  144.2650   72.0670  220.1570 C   0  0  1  0  0  0  0  0  0  0  0  0
  145.6250   72.0860  219.5400 C   0  0  0  0  0  0  0  0  0  0  0  0
  146.2620   73.3870  219.9050 C   0  0  0  0  0  0  0  0  0  0  0  0
  145.2460   74.1090  220.7290 C   0  0  0  0  0  0  0  0  0  0  0  0
  144.0790   73.2960  220.8620 N   0  0  0  0  0  0  0  0  0  0  0  0
  141.0840   73.3950  220.5690 N   0  0  0  0  0  0  0  0  0  0  0  0
  140.4850   74.0800  221.5740 C   0  0  0  0  0  0  0  0  0  0  0  0
  140.1470   75.4560  221.4490 N   0  0  0  0  0  0  0  0  0  0  0  0
  138.8040   75.9430  221.4460 C   0  0  0  0  0  0  0  0  0  0  0  0
  138.6280   76.8630  222.6470 C   0  0  0  0  0  0  0  0  0  0  0  0
  139.6470   77.9400  222.5050 C   0  0  0  0  0  0  0  0  0  0  0  0
  139.3570   79.2070  223.0190 C   0  0  0  0  0  0  0  0  0  0  0  0
  140.2940   80.2250  222.8970 C   0  0  0  0  0  0  0  0  0  0  0  0
  141.5010   79.9800  222.2700 C   0  0  0  0  0  0  0  0  0  0  0  0
  141.7950   78.7460  221.7640 C   0  0  0  0  0  0  0  0  0  0  0  0
  140.8610   77.7330  221.8870 C   0  0  0  0  0  0  0  0  0  0  0  0
  141.2310   76.4110  221.3190 C   0  0  0  0  0  0  0  0  0  0  0  0
  140.2210   73.3890  222.7150 N   0  0  0  0  0  0  0  0  0  0  0  0
  139.5480   70.1190  223.9880 C   0  0  0  0  0  0  0  0  0  0  0  0
  140.6740   66.7482  228.0160 H   0  0  0  0  0  0  0  0  0  0  0  0
  139.1134   66.1183  226.1990 H   0  0  0  0  0  0  0  0  0  0  0  0
  138.6038   67.6820  224.3474 H   0  0  0  0  0  0  0  0  0  0  0  0
  141.7545   69.0124  227.9719 H   0  0  0  0  0  0  0  0  0  0  0  0
  141.4791   71.2463  227.1889 H   0  0  0  0  0  0  0  0  0  0  0  0
  142.4187   70.7815  225.7083 H   0  0  0  0  0  0  0  0  0  0  0  0
  139.7570   72.2118  225.8895 H   0  0  0  0  0  0  0  0  0  0  0  0
  141.3216   72.7673  225.1533 H   0  0  0  0  0  0  0  0  0  0  0  0
  141.6230   70.5300  219.1860 H   0  0  0  0  0  0  0  0  0  0  0  0
  143.6410   71.3419  218.2065 H   0  0  0  0  0  0  0  0  0  0  0  0
  143.0659   72.9803  218.5755 H   0  0  0  0  0  0  0  0  0  0  0  0
  144.1407   71.2200  220.8478 H   0  0  0  0  0  0  0  0  0  0  0  0
  146.2261   71.2508  219.9287 H   0  0  0  0  0  0  0  0  0  0  0  0
  145.5577   71.9791  218.4473 H   0  0  0  0  0  0  0  0  0  0  0  0
  147.1792   73.2163  220.4877 H   0  0  0  0  0  0  0  0  0  0  0  0
  146.5519   73.9645  219.0148 H   0  0  0  0  0  0  0  0  0  0  0  0
  145.6629   74.3185  221.7251 H   0  0  0  0  0  0  0  0  0  0  0  0
  144.9800   75.0564  220.2374 H   0  0  0  0  0  0  0  0  0  0  0  0
  143.1880   73.7630  220.6430 H   0  0  0  0  0  0  0  0  0  0  0  0
  138.6127   76.5017  220.5179 H   0  0  0  0  0  0  0  0  0  0  0  0
  138.0956   75.1035  221.5038 H   0  0  0  0  0  0  0  0  0  0  0  0
  137.6163   77.2947  222.6505 H   0  0  0  0  0  0  0  0  0  0  0  0
  138.7568   76.3144  223.5917 H   0  0  0  0  0  0  0  0  0  0  0  0
  138.3942   79.3964  223.5162 H   0  0  0  0  0  0  0  0  0  0  0  0
  140.0756   81.2253  223.2991 H   0  0  0  0  0  0  0  0  0  0  0  0
  142.2370   80.7922  222.1770 H   0  0  0  0  0  0  0  0  0  0  0  0
  142.7586   78.5607  221.2669 H   0  0  0  0  0  0  0  0  0  0  0  0
  141.4729   76.5347  220.2531 H   0  0  0  0  0  0  0  0  0  0  0  0
  142.0990   76.0266  221.8747 H   0  0  0  0  0  0  0  0  0  0  0  0
  138.4662   70.3168  224.0110 H   0  0  0  0  0  0  0  0  0  0  0  0
  139.8474   69.6113  223.0593 H   0  0  0  0  0  0  0  0  0  0  0  0
  1  2  2  0
  2  3  1  0
  3  4  2  0
  4  5  1  0
  5  6  2  0
  5  7  1  0
  7  8  1  0
  8  9  1  0
  9 10  1  0
 10 11  2  0
 11 12  1  0
 12 13  1  0
 13 14  1  0
 14 15  1  0
 15 16  1  0
 16 17  1  0
 17 18  1  0
 18 19  1  0
 12 20  2  0
 20 21  1  0
 21 22  1  0
 22 23  1  0
 23 24  1  0
 24 25  1  0
 25 26  2  0
 26 27  1  0
 27 28  2  0
 28 29  1  0
 29 30  2  0
 30 31  1  0
 21 32  2  0
  9 33  1  0
  6  1  1  0
 32 10  1  0
 33  4  1  0
 19 15  1  0
 31 22  1  0
 30 25  1  0
  1 34  1  0
  2 35  1  0
  3 36  1  0
  6 37  1  0
  7 38  1  0
  7 39  1  0
  8 40  1  0
  8 41  1  0
 13 42  1  0
 14 43  1  0
 14 44  1  0
 15 45  1  1
 16 46  1  0
 16 47  1  0
 17 48  1  0
 17 49  1  0
 18 50  1  0
 18 51  1  0
 19 52  1  0
 23 53  1  0
 23 54  1  0
 24 55  1  0
 24 56  1  0
 26 57  1  0
 27 58  1  0
 28 59  1  0
 29 60  1  0
 31 61  1  0
 31 62  1  0
 33 63  1  0
 33 64  1  0
M  END
>  <smiles>  (60) 
c1ccc2c(c1)CCN(c1nc(NCC3CCCN3)nc(N3CCc4ccccc4C3)n1)C2

>  <score_type>  (60) 
oracle

>  <origin>  (60) 
autodockgpu

>  <m_score__min__energy>  (60) 
-10.77

>  <m_primary>  (60) 
energy

>  <rmsd>  (60) 
11.961133372668357

>  <m_score__min__rmsd>  (60) 
11.961133372668357

>  <meeko>  (60) 
{"free_energy": -8.96, "intermolecular_energy": -10.45, "internal_energy": -1.87, "cluster_size": 47, "cluster_id": 1, "rank_in_cluster": 47}

>  <energy>  (60) 
-10.17

>  <cluster_rmsd>  (60) 
0.67

>  <cluster>  (60) 
1

$$$$

     RDKit          3D

 64 69  0  0  0  0  0  0  0  0999 V2000
  142.0000   80.6080  222.4320 C   0  0  0  0  0  0  0  0  0  0  0  0
  141.3320   80.0790  223.5210 C   0  0  0  0  0  0  0  0  0  0  0  0
  140.8420   78.7800  223.5150 C   0  0  0  0  0  0  0  0  0  0  0  0
  141.0190   77.9870  222.4010 C   0  0  0  0  0  0  0  0  0  0  0  0
  141.6860   78.5230  221.3220 C   0  0  0  0  0  0  0  0  0  0  0  0
  142.1830   79.8160  221.3070 C   0  0  0  0  0  0  0  0  0  0  0  0
  141.9040   77.7130  220.0960 C   0  0  0  0  0  0  0  0  0  0  0  0
  140.9090   76.5820  219.9860 C   0  0  0  0  0  0  0  0  0  0  0  0
  140.7530   75.8690  221.2380 N   0  0  0  0  0  0  0  0  0  0  0  0
  140.8670   74.4510  221.2910 C   0  0  0  0  0  0  0  0  0  0  0  0
  141.4790   73.7760  220.3040 N   0  0  0  0  0  0  0  0  0  0  0  0
  141.6120   72.4340  220.3110 C   0  0  0  0  0  0  0  0  0  0  0  0
  142.2640   71.7370  219.2550 N   0  0  0  0  0  0  0  0  0  0  0  0
  143.2390   70.7250  219.5980 C   0  0  0  0  0  0  0  0  0  0  0  0
  144.5130   71.4700  220.0100 C   0  0  1  0  0  0  0  0  0  0  0  0
  144.8910   72.3530  218.8650 C   0  0  0  0  0  0  0  0  0  0  0  0
  144.8260   73.7640  219.3500 C   0  0  0  0  0  0  0  0  0  0  0  0
  144.3980   73.6740  220.7790 C   0  0  0  0  0  0  0  0  0  0  0  0
  144.2280   72.3010  221.1370 N   0  0  0  0  0  0  0  0  0  0  0  0
  141.0960   71.7850  221.3660 N   0  0  0  0  0  0  0  0  0  0  0  0
  140.4660   72.4030  222.3950 C   0  0  0  0  0  0  0  0  0  0  0  0
  139.9330   71.6790  223.4970 N   0  0  0  0  0  0  0  0  0  0  0  0
  138.6910   70.9730  223.4540 C   0  0  0  0  0  0  0  0  0  0  0  0
  138.9740   69.4950  223.6860 C   0  0  0  0  0  0  0  0  0  0  0  0
  139.6620   69.4010  225.0030 C   0  0  0  0  0  0  0  0  0  0  0  0
  139.4810   68.2450  225.7690 C   0  0  0  0  0  0  0  0  0  0  0  0
  140.1130   68.1370  227.0020 C   0  0  0  0  0  0  0  0  0  0  0  0
  140.9130   69.1670  227.4600 C   0  0  0  0  0  0  0  0  0  0  0  0
  141.0960   70.3000  226.7190 C   0  0  0  0  0  0  0  0  0  0  0  0
  140.4660   70.4060  225.4930 C   0  0  0  0  0  0  0  0  0  0  0  0
  140.6990   71.6590  224.7290 C   0  0  0  0  0  0  0  0  0  0  0  0
  140.3670   73.7580  222.3270 N   0  0  0  0  0  0  0  0  0  0  0  0
  140.4780   76.6160  222.4470 C   0  0  0  0  0  0  0  0  0  0  0  0
  142.3802   81.6399  222.4569 H   0  0  0  0  0  0  0  0  0  0  0  0
  141.1851   80.7032  224.4147 H   0  0  0  0  0  0  0  0  0  0  0  0
  140.3145   78.3849  224.3957 H   0  0  0  0  0  0  0  0  0  0  0  0
  142.7104   80.2060  220.4240 H   0  0  0  0  0  0  0  0  0  0  0  0
  141.8009   78.3647  219.2158 H   0  0  0  0  0  0  0  0  0  0  0  0
  142.9124   77.2769  220.1495 H   0  0  0  0  0  0  0  0  0  0  0  0
  139.9337   76.9953  219.6894 H   0  0  0  0  0  0  0  0  0  0  0  0
  141.2861   75.8710  219.2362 H   0  0  0  0  0  0  0  0  0  0  0  0
  142.0300   71.9650  218.2510 H   0  0  0  0  0  0  0  0  0  0  0  0
  142.8713   70.1106  220.4330 H   0  0  0  0  0  0  0  0  0  0  0  0
  143.4289   70.0517  218.7491 H   0  0  0  0  0  0  0  0  0  0  0  0
  145.3157   70.7621  220.2641 H   0  0  0  0  0  0  0  0  0  0  0  0
  145.9116   72.1173  218.5292 H   0  0  0  0  0  0  0  0  0  0  0  0
  144.2084   72.2020  218.0157 H   0  0  0  0  0  0  0  0  0  0  0  0
  145.8133   74.2430  219.2736 H   0  0  0  0  0  0  0  0  0  0  0  0
  144.1294   74.3701  218.7521 H   0  0  0  0  0  0  0  0  0  0  0  0
  145.1662   74.1286  221.4217 H   0  0  0  0  0  0  0  0  0  0  0  0
  143.4464   74.2095  220.9124 H   0  0  0  0  0  0  0  0  0  0  0  0
  143.3380   72.0720  221.5990 H   0  0  0  0  0  0  0  0  0  0  0  0
  138.0205   71.3513  224.2397 H   0  0  0  0  0  0  0  0  0  0  0  0
  138.2060   71.1177  222.4773 H   0  0  0  0  0  0  0  0  0  0  0  0
  138.0328   68.9260  223.7069 H   0  0  0  0  0  0  0  0  0  0  0  0
  139.5953   69.0765  222.8805 H   0  0  0  0  0  0  0  0  0  0  0  0
  138.8439   67.4283  225.3987 H   0  0  0  0  0  0  0  0  0  0  0  0
  139.9767   67.2325  227.6130 H   0  0  0  0  0  0  0  0  0  0  0  0
  141.4102   69.0729  228.4367 H   0  0  0  0  0  0  0  0  0  0  0  0
  141.7342   71.1147  227.0918 H   0  0  0  0  0  0  0  0  0  0  0  0
  140.4010   72.5170  225.3495 H   0  0  0  0  0  0  0  0  0  0  0  0
  141.7673   71.7143  224.4729 H   0  0  0  0  0  0  0  0  0  0  0  0
  139.3883   76.6716  222.5868 H   0  0  0  0  0  0  0  0  0  0  0  0
  140.9674   76.0922  223.2813 H   0  0  0  0  0  0  0  0  0  0  0  0
  1  2  2  0
  2  3  1  0
  3  4  2  0
  4  5  1  0
  5  6  2  0
  5  7  1  0
  7  8  1  0
  8  9  1  0
  9 10  1  0
 10 11  2  0
 11 12  1  0
 12 13  1  0
 13 14  1  0
 14 15  1  0
 15 16  1  0
 16 17  1  0
 17 18  1  0
 18 19  1  0
 12 20  2  0
 20 21  1  0
 21 22  1  0
 22 23  1  0
 23 24  1  0
 24 25  1  0
 25 26  2  0
 26 27  1  0
 27 28  2  0
 28 29  1  0
 29 30  2  0
 30 31  1  0
 21 32  2  0
  9 33  1  0
  6  1  1  0
 32 10  1  0
 33  4  1  0
 19 15  1  0
 31 22  1  0
 30 25  1  0
  1 34  1  0
  2 35  1  0
  3 36  1  0
  6 37  1  0
  7 38  1  0
  7 39  1  0
  8 40  1  0
  8 41  1  0
 13 42  1  0
 14 43  1  0
 14 44  1  0
 15 45  1  1
 16 46  1  0
 16 47  1  0
 17 48  1  0
 17 49  1  0
 18 50  1  0
 18 51  1  0
 19 52  1  0
 23 53  1  0
 23 54  1  0
 24 55  1  0
 24 56  1  0
 26 57  1  0
 27 58  1  0
 28 59  1  0
 29 60  1  0
 31 61  1  0
 31 62  1  0
 33 63  1  0
 33 64  1  0
M  END
>  <smiles>  (61) 
c1ccc2c(c1)CCN(c1nc(NCC3CCCN3)nc(N3CCc4ccccc4C3)n1)C2

>  <score_type>  (61) 
oracle

>  <origin>  (61) 
autodockgpu

>  <m_score__min__energy>  (61) 
-10.77

>  <m_primary>  (61) 
energy

>  <rmsd>  (61) 
4.713820158983043

>  <m_score__min__rmsd>  (61) 
4.713820158983043

>  <meeko>  (61) 
{"free_energy": -9.28, "intermolecular_energy": -10.77, "internal_energy": -1.8, "cluster_size": 47, "cluster_id": 1, "rank_in_cluster": 41}

>  <energy>  (61) 
-10.16

>  <cluster_rmsd>  (61) 
0.81

>  <cluster>  (61) 
1

$$$$

     RDKit          3D

 64 69  0  0  0  0  0  0  0  0999 V2000
  140.3760   80.4100  222.7450 C   0  0  0  0  0  0  0  0  0  0  0  0
  139.3360   79.7570  223.3800 C   0  0  0  0  0  0  0  0  0  0  0  0
  139.0910   78.4060  223.1780 C   0  0  0  0  0  0  0  0  0  0  0  0
  139.8990   77.6850  222.3240 C   0  0  0  0  0  0  0  0  0  0  0  0
  140.9330   78.3440  221.6970 C   0  0  0  0  0  0  0  0  0  0  0  0
  141.1940   79.6910  221.8840 C   0  0  0  0  0  0  0  0  0  0  0  0
  141.8340   77.6150  220.7670 C   0  0  0  0  0  0  0  0  0  0  0  0
  141.1850   76.3660  220.2200 C   0  0  0  0  0  0  0  0  0  0  0  0
  140.5300   75.5940  221.2560 N   0  0  0  0  0  0  0  0  0  0  0  0
  140.7920   74.2030  221.4080 C   0  0  0  0  0  0  0  0  0  0  0  0
  141.5500   73.5470  220.5140 N   0  0  0  0  0  0  0  0  0  0  0  0
  141.8260   72.2310  220.6160 C   0  0  0  0  0  0  0  0  0  0  0  0
  142.6320   71.5550  219.6570 N   0  0  0  0  0  0  0  0  0  0  0  0
  143.9410   71.0930  220.0630 C   0  0  0  0  0  0  0  0  0  0  0  0
  144.9470   72.1280  219.5490 C   0  0  1  0  0  0  0  0  0  0  0  0
  144.1550   73.2480  218.9570 C   0  0  0  0  0  0  0  0  0  0  0  0
  144.4570   74.4770  219.7500 C   0  0  0  0  0  0  0  0  0  0  0  0
  145.4210   74.0410  220.8060 C   0  0  0  0  0  0  0  0  0  0  0  0
  145.6930   72.6470  220.6530 N   0  0  0  0  0  0  0  0  0  0  0  0
  141.3000   71.5870  221.6700 N   0  0  0  0  0  0  0  0  0  0  0  0
  140.5270   72.1870  222.6080 C   0  0  0  0  0  0  0  0  0  0  0  0
  139.9890   71.4690  223.7120 N   0  0  0  0  0  0  0  0  0  0  0  0
  138.8120   70.6620  223.6330 C   0  0  0  0  0  0  0  0  0  0  0  0
  139.1990   69.2240  223.9510 C   0  0  0  0  0  0  0  0  0  0  0  0
  139.8120   69.2440  225.3080 C   0  0  0  0  0  0  0  0  0  0  0  0
  139.6790   68.1110  226.1170 C   0  0  0  0  0  0  0  0  0  0  0  0
  140.2430   68.1080  227.3870 C   0  0  0  0  0  0  0  0  0  0  0  0
  140.9290   69.2200  227.8390 C   0  0  0  0  0  0  0  0  0  0  0  0
  141.0640   70.3320  227.0570 C   0  0  0  0  0  0  0  0  0  0  0  0
  140.5020   70.3320  225.7930 C   0  0  0  0  0  0  0  0  0  0  0  0
  140.6790   71.5660  224.9840 C   0  0  0  0  0  0  0  0  0  0  0  0
  140.2880   73.5160  222.4470 N   0  0  0  0  0  0  0  0  0  0  0  0
  139.5960   76.2520  222.1450 C   0  0  0  0  0  0  0  0  0  0  0  0
  140.5525   81.4817  222.9191 H   0  0  0  0  0  0  0  0  0  0  0  0
  138.6857   80.3230  224.0632 H   0  0  0  0  0  0  0  0  0  0  0  0
  138.2560   77.9124  223.6968 H   0  0  0  0  0  0  0  0  0  0  0  0
  142.0300   80.1800  221.3625 H   0  0  0  0  0  0  0  0  0  0  0  0
  142.0922   78.2784  219.9284 H   0  0  0  0  0  0  0  0  0  0  0  0
  142.7328   77.3160  221.3263 H   0  0  0  0  0  0  0  0  0  0  0  0
  140.4372   76.6555  219.4670 H   0  0  0  0  0  0  0  0  0  0  0  0
  141.9742   75.7397  219.7785 H   0  0  0  0  0  0  0  0  0  0  0  0
  142.2680   71.4020  218.6780 H   0  0  0  0  0  0  0  0  0  0  0  0
  143.9956   71.0220  221.1593 H   0  0  0  0  0  0  0  0  0  0  0  0
  144.1544   70.0942  219.6546 H   0  0  0  0  0  0  0  0  0  0  0  0
  145.6324   71.6775  218.8159 H   0  0  0  0  0  0  0  0  0  0  0  0
  144.4437   73.3982  217.9063 H   0  0  0  0  0  0  0  0  0  0  0  0
  143.0791   73.0211  218.9873 H   0  0  0  0  0  0  0  0  0  0  0  0
  144.9109   75.2469  219.1087 H   0  0  0  0  0  0  0  0  0  0  0  0
  143.5473   74.9180  220.1834 H   0  0  0  0  0  0  0  0  0  0  0  0
  146.3567   74.6107  220.7066 H   0  0  0  0  0  0  0  0  0  0  0  0
  144.9856   74.2238  221.7995 H   0  0  0  0  0  0  0  0  0  0  0  0
  145.6030   72.0830  221.5090 H   0  0  0  0  0  0  0  0  0  0  0  0
  138.0676   71.0170  224.3609 H   0  0  0  0  0  0  0  0  0  0  0  0
  138.3756   70.7241  222.6252 H   0  0  0  0  0  0  0  0  0  0  0  0
  138.3073   68.5800  223.9458 H   0  0  0  0  0  0  0  0  0  0  0  0
  139.8995   68.8247  223.2028 H   0  0  0  0  0  0  0  0  0  0  0  0
  139.1324   67.2294  225.7510 H   0  0  0  0  0  0  0  0  0  0  0  0
  140.1438   67.2223  228.0317 H   0  0  0  0  0  0  0  0  0  0  0  0
  141.3735   69.2092  228.8451 H   0  0  0  0  0  0  0  0  0  0  0  0
  141.6103   71.2125  227.4262 H   0  0  0  0  0  0  0  0  0  0  0  0
  140.2766   72.4224  225.5449 H   0  0  0  0  0  0  0  0  0  0  0  0
  141.7528   71.6987  224.7858 H   0  0  0  0  0  0  0  0  0  0  0  0
  138.5832   76.1553  221.7267 H   0  0  0  0  0  0  0  0  0  0  0  0
  139.6751   75.7684  223.1298 H   0  0  0  0  0  0  0  0  0  0  0  0
  1  2  2  0
  2  3  1  0
  3  4  2  0
  4  5  1  0
  5  6  2  0
  5  7  1  0
  7  8  1  0
  8  9  1  0
  9 10  1  0
 10 11  2  0
 11 12  1  0
 12 13  1  0
 13 14  1  0
 14 15  1  0
 15 16  1  0
 16 17  1  0
 17 18  1  0
 18 19  1  0
 12 20  2  0
 20 21  1  0
 21 22  1  0
 22 23  1  0
 23 24  1  0
 24 25  1  0
 25 26  2  0
 26 27  1  0
 27 28  2  0
 28 29  1  0
 29 30  2  0
 30 31  1  0
 21 32  2  0
  9 33  1  0
  6  1  1  0
 32 10  1  0
 33  4  1  0
 19 15  1  0
 31 22  1  0
 30 25  1  0
  1 34  1  0
  2 35  1  0
  3 36  1  0
  6 37  1  0
  7 38  1  0
  7 39  1  0
  8 40  1  0
  8 41  1  0
 13 42  1  0
 14 43  1  0
 14 44  1  0
 15 45  1  6
 16 46  1  0
 16 47  1  0
 17 48  1  0
 17 49  1  0
 18 50  1  0
 18 51  1  0
 19 52  1  0
 23 53  1  0
 23 54  1  0
 24 55  1  0
 24 56  1  0
 26 57  1  0
 27 58  1  0
 28 59  1  0
 29 60  1  0
 31 61  1  0
 31 62  1  0
 33 63  1  0
 33 64  1  0
M  END
>  <smiles>  (62) 
c1ccc2c(c1)CCN(c1nc(NCC3CCCN3)nc(N3CCc4ccccc4C3)n1)C2

>  <score_type>  (62) 
oracle

>  <origin>  (62) 
autodockgpu

>  <m_score__min__energy>  (62) 
-10.77

>  <m_primary>  (62) 
energy

>  <rmsd>  (62) 
4.85187811569417

>  <m_score__min__rmsd>  (62) 
4.85187811569417

>  <meeko>  (62) 
{"free_energy": -10.03, "intermolecular_energy": -11.52, "internal_energy": -1.27, "cluster_size": 47, "cluster_id": 1, "rank_in_cluster": 22}

>  <energy>  (62) 
-10.15

>  <cluster_rmsd>  (62) 
0.7

>  <cluster>  (62) 
1

$$$$

     RDKit          3D

 64 69  0  0  0  0  0  0  0  0999 V2000
  141.4540   80.4520  222.0440 C   0  0  0  0  0  0  0  0  0  0  0  0
  140.7220   79.9660  223.1110 C   0  0  0  0  0  0  0  0  0  0  0  0
  140.3620   78.6280  223.1990 C   0  0  0  0  0  0  0  0  0  0  0  0
  140.7370   77.7520  222.2030 C   0  0  0  0  0  0  0  0  0  0  0  0
  141.4660   78.2460  221.1440 C   0  0  0  0  0  0  0  0  0  0  0  0
  141.8370   79.5770  221.0370 C   0  0  0  0  0  0  0  0  0  0  0  0
  141.8960   77.3460  220.0430 C   0  0  0  0  0  0  0  0  0  0  0  0
  141.0330   76.1100  219.9590 C   0  0  0  0  0  0  0  0  0  0  0  0
  140.8080   75.5120  221.2590 N   0  0  0  0  0  0  0  0  0  0  0  0
  141.0500   74.1270  221.4800 C   0  0  0  0  0  0  0  0  0  0  0  0
  141.9170   73.4520  220.7070 N   0  0  0  0  0  0  0  0  0  0  0  0
  142.1800   72.1400  220.8780 C   0  0  0  0  0  0  0  0  0  0  0  0
  143.1030   71.4430  220.0480 N   0  0  0  0  0  0  0  0  0  0  0  0
  143.4300   72.0080  218.7570 C   0  0  0  0  0  0  0  0  0  0  0  0
  144.7680   72.7340  218.9260 C   0  0  1  0  0  0  0  0  0  0  0  0
  144.4540   74.1450  219.3040 C   0  0  0  0  0  0  0  0  0  0  0  0
  145.0270   74.3800  220.6630 C   0  0  0  0  0  0  0  0  0  0  0  0
  145.6620   73.0860  221.0560 C   0  0  0  0  0  0  0  0  0  0  0  0
  145.4950   72.1360  220.0020 N   0  0  0  0  0  0  0  0  0  0  0  0
  141.5250   71.5220  221.8730 N   0  0  0  0  0  0  0  0  0  0  0  0
  140.6380   72.1410  222.6900 C   0  0  0  0  0  0  0  0  0  0  0  0
  139.9650   71.4500  223.7340 N   0  0  0  0  0  0  0  0  0  0  0  0
  138.7920   70.6590  223.5320 C   0  0  0  0  0  0  0  0  0  0  0  0
  139.1160   69.2210  223.9140 C   0  0  0  0  0  0  0  0  0  0  0  0
  139.5690   69.2540  225.3320 C   0  0  0  0  0  0  0  0  0  0  0  0
  139.3260   68.1370  226.1370 C   0  0  0  0  0  0  0  0  0  0  0  0
  139.7400   68.1470  227.4630 C   0  0  0  0  0  0  0  0  0  0  0  0
  140.3870   69.2560  227.9750 C   0  0  0  0  0  0  0  0  0  0  0  0
  140.6300   70.3520  227.1970 C   0  0  0  0  0  0  0  0  0  0  0  0
  140.2160   70.3400  225.8770 C   0  0  0  0  0  0  0  0  0  0  0  0
  140.5050   71.5580  225.0760 C   0  0  0  0  0  0  0  0  0  0  0  0
  140.4190   73.4650  222.4640 N   0  0  0  0  0  0  0  0  0  0  0  0
  140.3290   76.3410  222.3450 C   0  0  0  0  0  0  0  0  0  0  0  0
  141.7288   81.5159  221.9937 H   0  0  0  0  0  0  0  0  0  0  0  0
  140.4169   80.6569  223.9107 H   0  0  0  0  0  0  0  0  0  0  0  0
  139.7798   78.2684  224.0602 H   0  0  0  0  0  0  0  0  0  0  0  0
  142.4209   79.9314  220.1748 H   0  0  0  0  0  0  0  0  0  0  0  0
  141.8295   77.8920  219.0904 H   0  0  0  0  0  0  0  0  0  0  0  0
  142.9294   77.0281  220.2455 H   0  0  0  0  0  0  0  0  0  0  0  0
  140.0616   76.3849  219.5223 H   0  0  0  0  0  0  0  0  0  0  0  0
  141.5579   75.3727  219.3338 H   0  0  0  0  0  0  0  0  0  0  0  0
  143.5290   70.5370  220.3820 H   0  0  0  0  0  0  0  0  0  0  0  0
  143.5229   71.2101  218.0056 H   0  0  0  0  0  0  0  0  0  0  0  0
  142.6442   72.6971  218.4139 H   0  0  0  0  0  0  0  0  0  0  0  0
  145.3619   72.6802  218.0017 H   0  0  0  0  0  0  0  0  0  0  0  0
  144.9068   74.8382  218.5798 H   0  0  0  0  0  0  0  0  0  0  0  0
  143.3671   74.3146  219.3055 H   0  0  0  0  0  0  0  0  0  0  0  0
  145.7782   75.1829  220.6302 H   0  0  0  0  0  0  0  0  0  0  0  0
  144.2563   74.6924  221.3831 H   0  0  0  0  0  0  0  0  0  0  0  0
  146.7348   73.2447  221.2404 H   0  0  0  0  0  0  0  0  0  0  0  0
  145.1856   72.7062  221.9719 H   0  0  0  0  0  0  0  0  0  0  0  0
  145.1230   71.2200  220.2870 H   0  0  0  0  0  0  0  0  0  0  0  0
  137.9747   71.0370  224.1638 H   0  0  0  0  0  0  0  0  0  0  0  0
  138.4757   70.7104  222.4797 H   0  0  0  0  0  0  0  0  0  0  0  0
  138.2202   68.5903  223.8155 H   0  0  0  0  0  0  0  0  0  0  0  0
  139.8914   68.7993  223.2576 H   0  0  0  0  0  0  0  0  0  0  0  0
  138.8111   67.2572  225.7236 H   0  0  0  0  0  0  0  0  0  0  0  0
  139.5532   67.2734  228.1048 H   0  0  0  0  0  0  0  0  0  0  0  0
  140.7114   69.2559  229.0261 H   0  0  0  0  0  0  0  0  0  0  0  0
  141.1463   71.2297  227.6131 H   0  0  0  0  0  0  0  0  0  0  0  0
  140.0542   72.4291  225.5740 H   0  0  0  0  0  0  0  0  0  0  0  0
  141.5965   71.6722  225.0016 H   0  0  0  0  0  0  0  0  0  0  0  0
  139.2303   76.2923  222.3675 H   0  0  0  0  0  0  0  0  0  0  0  0
  140.7707   75.9581  223.2768 H   0  0  0  0  0  0  0  0  0  0  0  0
  1  2  2  0
  2  3  1  0
  3  4  2  0
  4  5  1  0
  5  6  2  0
  5  7  1  0
  7  8  1  0
  8  9  1  0
  9 10  1  0
 10 11  2  0
 11 12  1  0
 12 13  1  0
 13 14  1  0
 14 15  1  0
 15 16  1  0
 16 17  1  0
 17 18  1  0
 18 19  1  0
 12 20  2  0
 20 21  1  0
 21 22  1  0
 22 23  1  0
 23 24  1  0
 24 25  1  0
 25 26  2  0
 26 27  1  0
 27 28  2  0
 28 29  1  0
 29 30  2  0
 30 31  1  0
 21 32  2  0
  9 33  1  0
  6  1  1  0
 32 10  1  0
 33  4  1  0
 19 15  1  0
 31 22  1  0
 30 25  1  0
  1 34  1  0
  2 35  1  0
  3 36  1  0
  6 37  1  0
  7 38  1  0
  7 39  1  0
  8 40  1  0
  8 41  1  0
 13 42  1  0
 14 43  1  0
 14 44  1  0
 15 45  1  6
 16 46  1  0
 16 47  1  0
 17 48  1  0
 17 49  1  0
 18 50  1  0
 18 51  1  0
 19 52  1  0
 23 53  1  0
 23 54  1  0
 24 55  1  0
 24 56  1  0
 26 57  1  0
 27 58  1  0
 28 59  1  0
 29 60  1  0
 31 61  1  0
 31 62  1  0
 33 63  1  0
 33 64  1  0
M  END
>  <smiles>  (63) 
c1ccc2c(c1)CCN(c1nc(NCC3CCCN3)nc(N3CCc4ccccc4C3)n1)C2

>  <score_type>  (63) 
oracle

>  <origin>  (63) 
autodockgpu

>  <m_score__min__energy>  (63) 
-10.77

>  <m_primary>  (63) 
energy

>  <rmsd>  (63) 
4.497383649249026

>  <m_score__min__rmsd>  (63) 
4.497383649249026

>  <meeko>  (63) 
{"free_energy": -9.9, "intermolecular_energy": -11.39, "internal_energy": -1.7, "cluster_size": 47, "cluster_id": 1, "rank_in_cluster": 23}

>  <energy>  (63) 
-10.14

>  <cluster_rmsd>  (63) 
0.64

>  <cluster>  (63) 
1

$$$$

     RDKit          3D

 64 69  0  0  0  0  0  0  0  0999 V2000
  141.5230   80.4640  221.7810 C   0  0  0  0  0  0  0  0  0  0  0  0
  140.8920   80.0150  222.9260 C   0  0  0  0  0  0  0  0  0  0  0  0
  140.5600   78.6780  223.0990 C   0  0  0  0  0  0  0  0  0  0  0  0
  140.8630   77.7650  222.1110 C   0  0  0  0  0  0  0  0  0  0  0  0
  141.4930   78.2220  220.9750 C   0  0  0  0  0  0  0  0  0  0  0  0
  141.8320   79.5510  220.7820 C   0  0  0  0  0  0  0  0  0  0  0  0
  141.8420   77.2820  219.8790 C   0  0  0  0  0  0  0  0  0  0  0  0
  140.9930   76.0330  219.9190 C   0  0  0  0  0  0  0  0  0  0  0  0
  140.8880   75.4880  221.2580 N   0  0  0  0  0  0  0  0  0  0  0  0
  141.1690   74.1160  221.5140 C   0  0  0  0  0  0  0  0  0  0  0  0
  142.1460   73.4820  220.8440 N   0  0  0  0  0  0  0  0  0  0  0  0
  142.4490   72.1840  221.0520 C   0  0  0  0  0  0  0  0  0  0  0  0
  143.4890   71.5300  220.3340 N   0  0  0  0  0  0  0  0  0  0  0  0
  143.7330   71.9260  218.9640 C   0  0  0  0  0  0  0  0  0  0  0  0
  145.0070   72.7760  218.9770 C   0  0  1  0  0  0  0  0  0  0  0  0
  144.6490   74.0870  219.5980 C   0  0  0  0  0  0  0  0  0  0  0  0
  145.4600   74.2270  220.8450 C   0  0  0  0  0  0  0  0  0  0  0  0
  146.2740   72.9770  220.9310 C   0  0  0  0  0  0  0  0  0  0  0  0
  145.9850   72.1440  219.8070 N   0  0  0  0  0  0  0  0  0  0  0  0
  141.7190   71.5370  221.9750 N   0  0  0  0  0  0  0  0  0  0  0  0
  140.7200   72.1160  222.6850 C   0  0  0  0  0  0  0  0  0  0  0  0
  139.9690   71.3960  223.6550 N   0  0  0  0  0  0  0  0  0  0  0  0
  138.8360   70.5860  223.3360 C   0  0  0  0  0  0  0  0  0  0  0  0
  139.1530   69.1490  223.7260 C   0  0  0  0  0  0  0  0  0  0  0  0
  139.4750   69.1690  225.1800 C   0  0  0  0  0  0  0  0  0  0  0  0
  139.1830   68.0350  225.9440 C   0  0  0  0  0  0  0  0  0  0  0  0
  139.4750   68.0320  227.3030 C   0  0  0  0  0  0  0  0  0  0  0  0
  140.0500   69.1460  227.8860 C   0  0  0  0  0  0  0  0  0  0  0  0
  140.3410   70.2580  227.1480 C   0  0  0  0  0  0  0  0  0  0  0  0
  140.0480   70.2590  225.7970 C   0  0  0  0  0  0  0  0  0  0  0  0
  140.3840   71.4930  225.0410 C   0  0  0  0  0  0  0  0  0  0  0  0
  140.4650   73.4270  222.4270 N   0  0  0  0  0  0  0  0  0  0  0  0
  140.4900   76.3570  222.3450 C   0  0  0  0  0  0  0  0  0  0  0  0
  141.7763   81.5280  221.6633 H   0  0  0  0  0  0  0  0  0  0  0  0
  140.6466   80.7353  223.7203 H   0  0  0  0  0  0  0  0  0  0  0  0
  140.0574   78.3484  224.0203 H   0  0  0  0  0  0  0  0  0  0  0  0
  142.3343   79.8754  219.8587 H   0  0  0  0  0  0  0  0  0  0  0  0
  141.6871   77.7870  218.9141 H   0  0  0  0  0  0  0  0  0  0  0  0
  142.8935   76.9847  220.0056 H   0  0  0  0  0  0  0  0  0  0  0  0
  139.9841   76.2781  219.5556 H   0  0  0  0  0  0  0  0  0  0  0  0
  141.4736   75.2760  219.2818 H   0  0  0  0  0  0  0  0  0  0  0  0
  144.0580   70.7750  220.8040 H   0  0  0  0  0  0  0  0  0  0  0  0
  143.8755   71.0375  218.3313 H   0  0  0  0  0  0  0  0  0  0  0  0
  142.8821   72.4911  218.5559 H   0  0  0  0  0  0  0  0  0  0  0  0
  145.4063   72.8992  217.9594 H   0  0  0  0  0  0  0  0  0  0  0  0
  144.8819   74.9079  218.9039 H   0  0  0  0  0  0  0  0  0  0  0  0
  143.5739   74.1275  219.8273 H   0  0  0  0  0  0  0  0  0  0  0  0
  146.1144   75.1089  220.7816 H   0  0  0  0  0  0  0  0  0  0  0  0
  144.8251   74.3638  221.7328 H   0  0  0  0  0  0  0  0  0  0  0  0
  147.3434   73.2348  220.9314 H   0  0  0  0  0  0  0  0  0  0  0  0
  146.0266   72.4406  221.8590 H   0  0  0  0  0  0  0  0  0  0  0  0
  145.7620   71.1650  220.0290 H   0  0  0  0  0  0  0  0  0  0  0  0
  137.9570   70.9384  223.8957 H   0  0  0  0  0  0  0  0  0  0  0  0
  138.6159   70.6477  222.2600 H   0  0  0  0  0  0  0  0  0  0  0  0
  138.2828   68.5030  223.5380 H   0  0  0  0  0  0  0  0  0  0  0  0
  139.9930   68.7521  223.1370 H   0  0  0  0  0  0  0  0  0  0  0  0
  138.7258   67.1522  225.4733 H   0  0  0  0  0  0  0  0  0  0  0  0
  139.2491   67.1452  227.9133 H   0  0  0  0  0  0  0  0  0  0  0  0
  140.2770   69.1367  228.9623 H   0  0  0  0  0  0  0  0  0  0  0  0
  140.8009   71.1382  227.6209 H   0  0  0  0  0  0  0  0  0  0  0  0
  139.8739   72.3484  225.5079 H   0  0  0  0  0  0  0  0  0  0  0  0
  141.4755   71.6270  225.0661 H   0  0  0  0  0  0  0  0  0  0  0  0
  139.3980   76.2967  222.4626 H   0  0  0  0  0  0  0  0  0  0  0  0
  141.0147   76.0193  223.2509 H   0  0  0  0  0  0  0  0  0  0  0  0
  1  2  2  0
  2  3  1  0
  3  4  2  0
  4  5  1  0
  5  6  2  0
  5  7  1  0
  7  8  1  0
  8  9  1  0
  9 10  1  0
 10 11  2  0
 11 12  1  0
 12 13  1  0
 13 14  1  0
 14 15  1  0
 15 16  1  0
 16 17  1  0
 17 18  1  0
 18 19  1  0
 12 20  2  0
 20 21  1  0
 21 22  1  0
 22 23  1  0
 23 24  1  0
 24 25  1  0
 25 26  2  0
 26 27  1  0
 27 28  2  0
 28 29  1  0
 29 30  2  0
 30 31  1  0
 21 32  2  0
  9 33  1  0
  6  1  1  0
 32 10  1  0
 33  4  1  0
 19 15  1  0
 31 22  1  0
 30 25  1  0
  1 34  1  0
  2 35  1  0
  3 36  1  0
  6 37  1  0
  7 38  1  0
  7 39  1  0
  8 40  1  0
  8 41  1  0
 13 42  1  0
 14 43  1  0
 14 44  1  0
 15 45  1  6
 16 46  1  0
 16 47  1  0
 17 48  1  0
 17 49  1  0
 18 50  1  0
 18 51  1  0
 19 52  1  0
 23 53  1  0
 23 54  1  0
 24 55  1  0
 24 56  1  0
 26 57  1  0
 27 58  1  0
 28 59  1  0
 29 60  1  0
 31 61  1  0
 31 62  1  0
 33 63  1  0
 33 64  1  0
M  END
>  <smiles>  (64) 
c1ccc2c(c1)CCN(c1nc(NCC3CCCN3)nc(N3CCc4ccccc4C3)n1)C2

>  <score_type>  (64) 
oracle

>  <origin>  (64) 
autodockgpu

>  <m_score__min__energy>  (64) 
-10.77

>  <m_primary>  (64) 
energy

>  <rmsd>  (64) 
4.386080928180461

>  <m_score__min__rmsd>  (64) 
4.386080928180461

>  <meeko>  (64) 
{"free_energy": -10.23, "intermolecular_energy": -11.72, "internal_energy": -1.54, "cluster_size": 47, "cluster_id": 1, "rank_in_cluster": 6}

>  <energy>  (64) 
-10.12

>  <cluster_rmsd>  (64) 
0.7

>  <cluster>  (64) 
1

$$$$

     RDKit          3D

 64 69  0  0  0  0  0  0  0  0999 V2000
  141.8520   80.5620  222.1780 C   0  0  0  0  0  0  0  0  0  0  0  0
  141.2640   80.0510  223.3200 C   0  0  0  0  0  0  0  0  0  0  0  0
  140.8430   78.7300  223.3950 C   0  0  0  0  0  0  0  0  0  0  0  0
  141.0100   77.8970  222.3090 C   0  0  0  0  0  0  0  0  0  0  0  0
  141.5970   78.4160  221.1760 C   0  0  0  0  0  0  0  0  0  0  0  0
  142.0240   79.7300  221.0810 C   0  0  0  0  0  0  0  0  0  0  0  0
  141.8000   77.5620  219.9770 C   0  0  0  0  0  0  0  0  0  0  0  0
  140.8620   76.3790  219.9660 C   0  0  0  0  0  0  0  0  0  0  0  0
  140.8030   75.7170  221.2530 N   0  0  0  0  0  0  0  0  0  0  0  0
  140.9940   74.3100  221.3630 C   0  0  0  0  0  0  0  0  0  0  0  0
  141.7640   73.6540  220.4790 N   0  0  0  0  0  0  0  0  0  0  0  0
  141.9750   72.3230  220.5420 C   0  0  0  0  0  0  0  0  0  0  0  0
  142.7950   71.6450  219.5970 N   0  0  0  0  0  0  0  0  0  0  0  0
  144.0940   71.1750  220.0260 C   0  0  0  0  0  0  0  0  0  0  0  0
  145.1120   72.2200  219.5570 C   0  0  1  0  0  0  0  0  0  0  0  0
  144.3400   73.4430  219.1830 C   0  0  0  0  0  0  0  0  0  0  0  0
  144.7770   74.5430  220.0940 C   0  0  0  0  0  0  0  0  0  0  0  0
  145.7990   73.9290  220.9960 C   0  0  0  0  0  0  0  0  0  0  0  0
  145.9760   72.5550  220.6460 N   0  0  0  0  0  0  0  0  0  0  0  0
  141.3700   71.6660  221.5450 N   0  0  0  0  0  0  0  0  0  0  0  0
  140.5800   72.2660  222.4690 C   0  0  0  0  0  0  0  0  0  0  0  0
  139.9570   71.5340  223.5170 N   0  0  0  0  0  0  0  0  0  0  0  0
  138.7920   70.7270  223.3340 C   0  0  0  0  0  0  0  0  0  0  0  0
  139.1540   69.2860  223.6640 C   0  0  0  0  0  0  0  0  0  0  0  0
  139.6570   69.2880  225.0660 C   0  0  0  0  0  0  0  0  0  0  0  0
  139.4620   68.1460  225.8470 C   0  0  0  0  0  0  0  0  0  0  0  0
  139.9230   68.1270  227.1580 C   0  0  0  0  0  0  0  0  0  0  0  0
  140.5690   69.2330  227.6770 C   0  0  0  0  0  0  0  0  0  0  0  0
  140.7650   70.3550  226.9220 C   0  0  0  0  0  0  0  0  0  0  0  0
  140.3050   70.3710  225.6180 C   0  0  0  0  0  0  0  0  0  0  0  0
  140.5430   71.6150  224.8410 C   0  0  0  0  0  0  0  0  0  0  0  0
  140.4090   73.6100  222.3480 N   0  0  0  0  0  0  0  0  0  0  0  0
  140.5450   76.5030  222.4400 C   0  0  0  0  0  0  0  0  0  0  0  0
  142.1784   81.6117  222.1396 H   0  0  0  0  0  0  0  0  0  0  0  0
  141.1261   80.7077  224.1916 H   0  0  0  0  0  0  0  0  0  0  0  0
  140.3783   78.3497  224.3167 H   0  0  0  0  0  0  0  0  0  0  0  0
  142.4887   80.1054  220.1573 H   0  0  0  0  0  0  0  0  0  0  0  0
  141.6218   78.1661  219.0752 H   0  0  0  0  0  0  0  0  0  0  0  0
  142.8314   77.1804  219.9997 H   0  0  0  0  0  0  0  0  0  0  0  0
  139.8534   76.7288  219.7007 H   0  0  0  0  0  0  0  0  0  0  0  0
  141.2402   75.6543  219.2299 H   0  0  0  0  0  0  0  0  0  0  0  0
  142.4490   71.4980  218.6110 H   0  0  0  0  0  0  0  0  0  0  0  0
  144.1217   71.0826  221.1218 H   0  0  0  0  0  0  0  0  0  0  0  0
  144.3178   70.1843  219.6036 H   0  0  0  0  0  0  0  0  0  0  0  0
  145.7067   71.8375  218.7144 H   0  0  0  0  0  0  0  0  0  0  0  0
  144.5494   73.7148  218.1379 H   0  0  0  0  0  0  0  0  0  0  0  0
  143.2589   73.2647  219.2801 H   0  0  0  0  0  0  0  0  0  0  0  0
  145.2194   75.3681  219.5165 H   0  0  0  0  0  0  0  0  0  0  0  0
  143.9333   74.9654  220.6594 H   0  0  0  0  0  0  0  0  0  0  0  0
  146.7546   74.4622  220.8846 H   0  0  0  0  0  0  0  0  0  0  0  0
  145.4593   74.0017  222.0397 H   0  0  0  0  0  0  0  0  0  0  0  0
  145.9240   71.8900  221.4290 H   0  0  0  0  0  0  0  0  0  0  0  0
  137.9910   71.0724  224.0041 H   0  0  0  0  0  0  0  0  0  0  0  0
  138.4382   70.8011  222.2951 H   0  0  0  0  0  0  0  0  0  0  0  0
  138.2662   68.6420  223.5795 H   0  0  0  0  0  0  0  0  0  0  0  0
  139.9128   68.8968  222.9692 H   0  0  0  0  0  0  0  0  0  0  0  0
  138.9476   67.2688  225.4275 H   0  0  0  0  0  0  0  0  0  0  0  0
  139.7739   67.2331  227.7815 H   0  0  0  0  0  0  0  0  0  0  0  0
  140.9315   69.2098  228.7153 H   0  0  0  0  0  0  0  0  0  0  0  0
  141.2799   71.2305  227.3443 H   0  0  0  0  0  0  0  0  0  0  0  0
  140.0954   72.4637  225.3789 H   0  0  0  0  0  0  0  0  0  0  0  0
  141.6290   71.7509  224.7305 H   0  0  0  0  0  0  0  0  0  0  0  0
  139.4615   76.5093  222.6299 H   0  0  0  0  0  0  0  0  0  0  0  0
  141.0996   76.0433  223.2713 H   0  0  0  0  0  0  0  0  0  0  0  0
  1  2  2  0
  2  3  1  0
  3  4  2  0
  4  5  1  0
  5  6  2  0
  5  7  1  0
  7  8  1  0
  8  9  1  0
  9 10  1  0
 10 11  2  0
 11 12  1  0
 12 13  1  0
 13 14  1  0
 14 15  1  0
 15 16  1  0
 16 17  1  0
 17 18  1  0
 18 19  1  0
 12 20  2  0
 20 21  1  0
 21 22  1  0
 22 23  1  0
 23 24  1  0
 24 25  1  0
 25 26  2  0
 26 27  1  0
 27 28  2  0
 28 29  1  0
 29 30  2  0
 30 31  1  0
 21 32  2  0
  9 33  1  0
  6  1  1  0
 32 10  1  0
 33  4  1  0
 19 15  1  0
 31 22  1  0
 30 25  1  0
  1 34  1  0
  2 35  1  0
  3 36  1  0
  6 37  1  0
  7 38  1  0
  7 39  1  0
  8 40  1  0
  8 41  1  0
 13 42  1  0
 14 43  1  0
 14 44  1  0
 15 45  1  6
 16 46  1  0
 16 47  1  0
 17 48  1  0
 17 49  1  0
 18 50  1  0
 18 51  1  0
 19 52  1  0
 23 53  1  0
 23 54  1  0
 24 55  1  0
 24 56  1  0
 26 57  1  0
 27 58  1  0
 28 59  1  0
 29 60  1  0
 31 61  1  0
 31 62  1  0
 33 63  1  0
 33 64  1  0
M  END
>  <smiles>  (65) 
c1ccc2c(c1)CCN(c1nc(NCC3CCCN3)nc(N3CCc4ccccc4C3)n1)C2

>  <score_type>  (65) 
oracle

>  <origin>  (65) 
autodockgpu

>  <m_score__min__energy>  (65) 
-10.77

>  <m_primary>  (65) 
energy

>  <rmsd>  (65) 
4.588134740071883

>  <m_score__min__rmsd>  (65) 
4.588134740071883

>  <meeko>  (65) 
{"free_energy": -10.47, "intermolecular_energy": -11.97, "internal_energy": -1.15, "cluster_size": 47, "cluster_id": 1, "rank_in_cluster": 4}

>  <energy>  (65) 
-10.12

>  <cluster_rmsd>  (65) 
0.46

>  <cluster>  (65) 
1

$$$$

     RDKit          3D

 64 69  0  0  0  0  0  0  0  0999 V2000
  141.7900   80.5080  222.1880 C   0  0  0  0  0  0  0  0  0  0  0  0
  141.0940   80.0050  223.2720 C   0  0  0  0  0  0  0  0  0  0  0  0
  140.6670   78.6850  223.3160 C   0  0  0  0  0  0  0  0  0  0  0  0
  140.9370   77.8440  222.2570 C   0  0  0  0  0  0  0  0  0  0  0  0
  141.6300   78.3540  221.1830 C   0  0  0  0  0  0  0  0  0  0  0  0
  142.0660   79.6680  221.1190 C   0  0  0  0  0  0  0  0  0  0  0  0
  141.9470   77.4910  220.0150 C   0  0  0  0  0  0  0  0  0  0  0  0
  141.0140   76.3080  219.9220 C   0  0  0  0  0  0  0  0  0  0  0  0
  140.8310   75.6560  221.2030 N   0  0  0  0  0  0  0  0  0  0  0  0
  141.0100   74.2500  221.3410 C   0  0  0  0  0  0  0  0  0  0  0  0
  141.7640   73.5670  220.4640 N   0  0  0  0  0  0  0  0  0  0  0  0
  141.9620   72.2360  220.5540 C   0  0  0  0  0  0  0  0  0  0  0  0
  142.7650   71.5300  219.6140 N   0  0  0  0  0  0  0  0  0  0  0  0
  144.0470   71.0210  220.0500 C   0  0  0  0  0  0  0  0  0  0  0  0
  145.0670   72.1360  219.7940 C   0  0  1  0  0  0  0  0  0  0  0  0
  145.1160   72.3510  218.3170 C   0  0  0  0  0  0  0  0  0  0  0  0
  144.6660   73.7510  218.0550 C   0  0  0  0  0  0  0  0  0  0  0  0
  144.3520   74.3250  219.3990 C   0  0  0  0  0  0  0  0  0  0  0  0
  144.6070   73.3430  220.4050 N   0  0  0  0  0  0  0  0  0  0  0  0
  141.3620   71.6070  221.5770 N   0  0  0  0  0  0  0  0  0  0  0  0
  140.5890   72.2340  222.4960 C   0  0  0  0  0  0  0  0  0  0  0  0
  139.9710   71.5310  223.5670 N   0  0  0  0  0  0  0  0  0  0  0  0
  138.8060   70.7180  223.4120 C   0  0  0  0  0  0  0  0  0  0  0  0
  139.1710   69.2870  223.7810 C   0  0  0  0  0  0  0  0  0  0  0  0
  139.6790   69.3300  225.1800 C   0  0  0  0  0  0  0  0  0  0  0  0
  139.4890   68.2100  225.9940 C   0  0  0  0  0  0  0  0  0  0  0  0
  139.9550   68.2290  227.3030 C   0  0  0  0  0  0  0  0  0  0  0  0
  140.6010   69.3500  227.7880 C   0  0  0  0  0  0  0  0  0  0  0  0
  140.7930   70.4500  227.0010 C   0  0  0  0  0  0  0  0  0  0  0  0
  140.3270   70.4290  225.6990 C   0  0  0  0  0  0  0  0  0  0  0  0
  140.5610   71.6510  224.8860 C   0  0  0  0  0  0  0  0  0  0  0  0
  140.4290   73.5770  222.3480 N   0  0  0  0  0  0  0  0  0  0  0  0
  140.4600   76.4510  222.3540 C   0  0  0  0  0  0  0  0  0  0  0  0
  142.1195   81.5574  222.1736 H   0  0  0  0  0  0  0  0  0  0  0  0
  140.8730   80.6681  224.1214 H   0  0  0  0  0  0  0  0  0  0  0  0
  140.1158   78.3115  224.1916 H   0  0  0  0  0  0  0  0  0  0  0  0
  142.6177   80.0361  220.2415 H   0  0  0  0  0  0  0  0  0  0  0  0
  141.8568   78.0886  219.0959 H   0  0  0  0  0  0  0  0  0  0  0  0
  142.9712   77.1095  220.1399 H   0  0  0  0  0  0  0  0  0  0  0  0
  140.0359   76.6555  219.5579 H   0  0  0  0  0  0  0  0  0  0  0  0
  141.4607   75.5779  219.2311 H   0  0  0  0  0  0  0  0  0  0  0  0
  142.4180   71.3890  218.6270 H   0  0  0  0  0  0  0  0  0  0  0  0
  144.0138   70.7749  221.1216 H   0  0  0  0  0  0  0  0  0  0  0  0
  144.3162   70.1029  219.5073 H   0  0  0  0  0  0  0  0  0  0  0  0
  146.0526   71.8663  220.2012 H   0  0  0  0  0  0  0  0  0  0  0  0
  146.1437   72.2115  217.9505 H   0  0  0  0  0  0  0  0  0  0  0  0
  144.4671   71.6305  217.7976 H   0  0  0  0  0  0  0  0  0  0  0  0
  145.4660   74.3276  217.5676 H   0  0  0  0  0  0  0  0  0  0  0  0
  143.7954   73.7820  217.3833 H   0  0  0  0  0  0  0  0  0  0  0  0
  144.9843   75.2071  219.5783 H   0  0  0  0  0  0  0  0  0  0  0  0
  143.2932   74.6211  219.4342 H   0  0  0  0  0  0  0  0  0  0  0  0
  143.8450   73.1950  221.0810 H   0  0  0  0  0  0  0  0  0  0  0  0
  138.0075   71.0814  224.0756 H   0  0  0  0  0  0  0  0  0  0  0  0
  138.4476   70.7624  222.3730 H   0  0  0  0  0  0  0  0  0  0  0  0
  138.2837   68.6398  223.7182 H   0  0  0  0  0  0  0  0  0  0  0  0
  139.9274   68.8788  223.0945 H   0  0  0  0  0  0  0  0  0  0  0  0
  138.9746   67.3204  225.6016 H   0  0  0  0  0  0  0  0  0  0  0  0
  139.8098   67.3529  227.9521 H   0  0  0  0  0  0  0  0  0  0  0  0
  140.9669   69.3568  228.8253 H   0  0  0  0  0  0  0  0  0  0  0  0
  141.3094   71.3373  227.3961 H   0  0  0  0  0  0  0  0  0  0  0  0
  140.1138   72.5142  225.4007 H   0  0  0  0  0  0  0  0  0  0  0  0
  141.6464   71.7854  224.7684 H   0  0  0  0  0  0  0  0  0  0  0  0
  139.3633   76.4589  222.4384 H   0  0  0  0  0  0  0  0  0  0  0  0
  140.9309   75.9977  223.2387 H   0  0  0  0  0  0  0  0  0  0  0  0
  1  2  2  0
  2  3  1  0
  3  4  2  0
  4  5  1  0
  5  6  2  0
  5  7  1  0
  7  8  1  0
  8  9  1  0
  9 10  1  0
 10 11  2  0
 11 12  1  0
 12 13  1  0
 13 14  1  0
 14 15  1  0
 15 16  1  0
 16 17  1  0
 17 18  1  0
 18 19  1  0
 12 20  2  0
 20 21  1  0
 21 22  1  0
 22 23  1  0
 23 24  1  0
 24 25  1  0
 25 26  2  0
 26 27  1  0
 27 28  2  0
 28 29  1  0
 29 30  2  0
 30 31  1  0
 21 32  2  0
  9 33  1  0
  6  1  1  0
 32 10  1  0
 33  4  1  0
 19 15  1  0
 31 22  1  0
 30 25  1  0
  1 34  1  0
  2 35  1  0
  3 36  1  0
  6 37  1  0
  7 38  1  0
  7 39  1  0
  8 40  1  0
  8 41  1  0
 13 42  1  0
 14 43  1  0
 14 44  1  0
 15 45  1  1
 16 46  1  0
 16 47  1  0
 17 48  1  0
 17 49  1  0
 18 50  1  0
 18 51  1  0
 19 52  1  0
 23 53  1  0
 23 54  1  0
 24 55  1  0
 24 56  1  0
 26 57  1  0
 27 58  1  0
 28 59  1  0
 29 60  1  0
 31 61  1  0
 31 62  1  0
 33 63  1  0
 33 64  1  0
M  END
>  <smiles>  (66) 
c1ccc2c(c1)CCN(c1nc(NCC3CCCN3)nc(N3CCc4ccccc4C3)n1)C2

>  <score_type>  (66) 
oracle

>  <origin>  (66) 
autodockgpu

>  <m_score__min__energy>  (66) 
-10.77

>  <m_primary>  (66) 
energy

>  <rmsd>  (66) 
4.583468295517352

>  <m_score__min__rmsd>  (66) 
4.583468295517352

>  <meeko>  (66) 
{"free_energy": -9.17, "intermolecular_energy": -10.66, "internal_energy": -1.85, "cluster_size": 47, "cluster_id": 1, "rank_in_cluster": 44}

>  <energy>  (66) 
-10.1

>  <cluster_rmsd>  (66) 
0.69

>  <cluster>  (66) 
1

$$$$

     RDKit          3D

 64 69  0  0  0  0  0  0  0  0999 V2000
  141.9820   80.4920  222.3660 C   0  0  0  0  0  0  0  0  0  0  0  0
  141.3040   79.9780  223.4550 C   0  0  0  0  0  0  0  0  0  0  0  0
  140.8340   78.6710  223.4720 C   0  0  0  0  0  0  0  0  0  0  0  0
  141.0440   77.8560  222.3800 C   0  0  0  0  0  0  0  0  0  0  0  0
  141.7210   78.3770  221.3010 C   0  0  0  0  0  0  0  0  0  0  0  0
  142.1980   79.6770  221.2630 C   0  0  0  0  0  0  0  0  0  0  0  0
  141.9740   77.5420  220.0980 C   0  0  0  0  0  0  0  0  0  0  0  0
  141.0000   76.3930  219.9980 C   0  0  0  0  0  0  0  0  0  0  0  0
  140.8340   75.7070  221.2630 N   0  0  0  0  0  0  0  0  0  0  0  0
  140.9700   74.2920  221.3530 C   0  0  0  0  0  0  0  0  0  0  0  0
  141.6440   73.6090  220.4120 N   0  0  0  0  0  0  0  0  0  0  0  0
  141.7990   72.2700  220.4540 C   0  0  0  0  0  0  0  0  0  0  0  0
  142.5170   71.5640  219.4480 N   0  0  0  0  0  0  0  0  0  0  0  0
  143.7200   70.8570  219.8290 C   0  0  0  0  0  0  0  0  0  0  0  0
  144.8860   71.8250  219.5970 C   0  0  1  0  0  0  0  0  0  0  0  0
  144.3690   72.9300  218.7350 C   0  0  0  0  0  0  0  0  0  0  0  0
  144.4770   74.1960  219.5200 C   0  0  0  0  0  0  0  0  0  0  0  0
  145.0500   73.7970  220.8410 C   0  0  0  0  0  0  0  0  0  0  0  0
  145.2850   72.3870  220.8490 N   0  0  0  0  0  0  0  0  0  0  0  0
  141.2410   71.6330  221.4960 N   0  0  0  0  0  0  0  0  0  0  0  0
  140.5490   72.2600  222.4780 C   0  0  0  0  0  0  0  0  0  0  0  0
  139.9730   71.5480  223.5660 N   0  0  0  0  0  0  0  0  0  0  0  0
  138.7800   70.7680  223.4590 C   0  0  0  0  0  0  0  0  0  0  0  0
  139.1280   69.3200  223.7760 C   0  0  0  0  0  0  0  0  0  0  0  0
  139.7130   69.3180  225.1450 C   0  0  0  0  0  0  0  0  0  0  0  0
  139.5390   68.1840  225.9440 C   0  0  0  0  0  0  0  0  0  0  0  0
  140.0770   68.1610  227.2240 C   0  0  0  0  0  0  0  0  0  0  0  0
  140.7780   69.2550  227.6970 C   0  0  0  0  0  0  0  0  0  0  0  0
  140.9550   70.3670  226.9240 C   0  0  0  0  0  0  0  0  0  0  0  0
  140.4180   70.3880  225.6500 C   0  0  0  0  0  0  0  0  0  0  0  0
  140.6390   71.6220  224.8520 C   0  0  0  0  0  0  0  0  0  0  0  0
  140.4290   73.6110  222.3760 N   0  0  0  0  0  0  0  0  0  0  0  0
  140.5250   76.4760  222.4490 C   0  0  0  0  0  0  0  0  0  0  0  0
  142.3448   81.5304  222.3730 H   0  0  0  0  0  0  0  0  0  0  0  0
  141.1321   80.6206  224.3311 H   0  0  0  0  0  0  0  0  0  0  0  0
  140.2969   78.2881  224.3523 H   0  0  0  0  0  0  0  0  0  0  0  0
  142.7349   80.0544  220.3803 H   0  0  0  0  0  0  0  0  0  0  0  0
  141.8759   78.1710  219.2010 H   0  0  0  0  0  0  0  0  0  0  0  0
  142.9884   77.1242  220.1790 H   0  0  0  0  0  0  0  0  0  0  0  0
  140.0234   76.7831  219.6753 H   0  0  0  0  0  0  0  0  0  0  0  0
  141.4015   75.6711  219.2716 H   0  0  0  0  0  0  0  0  0  0  0  0
  142.1660   71.5660  218.4520 H   0  0  0  0  0  0  0  0  0  0  0  0
  143.6713   70.5680  220.8892 H   0  0  0  0  0  0  0  0  0  0  0  0
  143.8439   69.9366  219.2395 H   0  0  0  0  0  0  0  0  0  0  0  0
  145.7389   71.3080  219.1329 H   0  0  0  0  0  0  0  0  0  0  0  0
  144.9709   73.0041  217.8173 H   0  0  0  0  0  0  0  0  0  0  0  0
  143.3250   72.7405  218.4449 H   0  0  0  0  0  0  0  0  0  0  0  0
  145.1429   74.9085  219.0112 H   0  0  0  0  0  0  0  0  0  0  0  0
  143.5018   74.6928  219.6307 H   0  0  0  0  0  0  0  0  0  0  0  0
  145.9990   74.3284  221.0052 H   0  0  0  0  0  0  0  0  0  0  0  0
  144.3426   74.0566  221.6424 H   0  0  0  0  0  0  0  0  0  0  0  0
  144.9100   71.8820  221.6630 H   0  0  0  0  0  0  0  0  0  0  0  0
  138.0294   71.1357  224.1741 H   0  0  0  0  0  0  0  0  0  0  0  0
  138.3654   70.8454  222.4431 H   0  0  0  0  0  0  0  0  0  0  0  0
  138.2223   68.6963  223.7484 H   0  0  0  0  0  0  0  0  0  0  0  0
  139.8348   68.9095  223.0399 H   0  0  0  0  0  0  0  0  0  0  0  0
  138.9804   67.3169  225.5618 H   0  0  0  0  0  0  0  0  0  0  0  0
  139.9457   67.2737  227.8608 H   0  0  0  0  0  0  0  0  0  0  0  0
  141.2000   69.2293  228.7125 H   0  0  0  0  0  0  0  0  0  0  0  0
  141.5156   71.2317  227.3087 H   0  0  0  0  0  0  0  0  0  0  0  0
  140.2448   72.4842  225.4099 H   0  0  0  0  0  0  0  0  0  0  0  0
  141.7194   71.7311  224.6761 H   0  0  0  0  0  0  0  0  0  0  0  0
  139.4322   76.5158  222.5686 H   0  0  0  0  0  0  0  0  0  0  0  0
  141.0081   75.9800  223.3038 H   0  0  0  0  0  0  0  0  0  0  0  0
  1  2  2  0
  2  3  1  0
  3  4  2  0
  4  5  1  0
  5  6  2  0
  5  7  1  0
  7  8  1  0
  8  9  1  0
  9 10  1  0
 10 11  2  0
 11 12  1  0
 12 13  1  0
 13 14  1  0
 14 15  1  0
 15 16  1  0
 16 17  1  0
 17 18  1  0
 18 19  1  0
 12 20  2  0
 20 21  1  0
 21 22  1  0
 22 23  1  0
 23 24  1  0
 24 25  1  0
 25 26  2  0
 26 27  1  0
 27 28  2  0
 28 29  1  0
 29 30  2  0
 30 31  1  0
 21 32  2  0
  9 33  1  0
  6  1  1  0
 32 10  1  0
 33  4  1  0
 19 15  1  0
 31 22  1  0
 30 25  1  0
  1 34  1  0
  2 35  1  0
  3 36  1  0
  6 37  1  0
  7 38  1  0
  7 39  1  0
  8 40  1  0
  8 41  1  0
 13 42  1  0
 14 43  1  0
 14 44  1  0
 15 45  1  6
 16 46  1  0
 16 47  1  0
 17 48  1  0
 17 49  1  0
 18 50  1  0
 18 51  1  0
 19 52  1  0
 23 53  1  0
 23 54  1  0
 24 55  1  0
 24 56  1  0
 26 57  1  0
 27 58  1  0
 28 59  1  0
 29 60  1  0
 31 61  1  0
 31 62  1  0
 33 63  1  0
 33 64  1  0
M  END
>  <smiles>  (67) 
c1ccc2c(c1)CCN(c1nc(NCC3CCCN3)nc(N3CCc4ccccc4C3)n1)C2

>  <score_type>  (67) 
oracle

>  <origin>  (67) 
autodockgpu

>  <m_score__min__energy>  (67) 
-10.77

>  <m_primary>  (67) 
energy

>  <rmsd>  (67) 
4.677473738713417

>  <m_score__min__rmsd>  (67) 
4.677473738713417

>  <meeko>  (67) 
{"free_energy": -10.05, "intermolecular_energy": -11.54, "internal_energy": -1.43, "cluster_size": 47, "cluster_id": 1, "rank_in_cluster": 19}

>  <energy>  (67) 
-10.1

>  <cluster_rmsd>  (67) 
0.69

>  <cluster>  (67) 
1

$$$$

     RDKit          3D

 64 69  0  0  0  0  0  0  0  0999 V2000
  142.2560   80.8850  222.6800 C   0  0  0  0  0  0  0  0  0  0  0  0
  141.7980   80.2810  223.8360 C   0  0  0  0  0  0  0  0  0  0  0  0
  141.2940   78.9870  223.8330 C   0  0  0  0  0  0  0  0  0  0  0  0
  141.2420   78.2760  222.6530 C   0  0  0  0  0  0  0  0  0  0  0  0
  141.7010   78.8860  221.5070 C   0  0  0  0  0  0  0  0  0  0  0  0
  142.2080   80.1760  221.4870 C   0  0  0  0  0  0  0  0  0  0  0  0
  141.6680   78.1660  220.2080 C   0  0  0  0  0  0  0  0  0  0  0  0
  140.6520   77.0490  220.2110 C   0  0  0  0  0  0  0  0  0  0  0  0
  140.7250   76.2480  221.4160 N   0  0  0  0  0  0  0  0  0  0  0  0
  140.8240   74.8300  221.3470 C   0  0  0  0  0  0  0  0  0  0  0  0
  141.4210   74.2350  220.3010 N   0  0  0  0  0  0  0  0  0  0  0  0
  141.5380   72.8960  220.1920 C   0  0  0  0  0  0  0  0  0  0  0  0
  142.1760   72.2850  219.0750 N   0  0  0  0  0  0  0  0  0  0  0  0
  142.7840   70.9860  219.2560 C   0  0  0  0  0  0  0  0  0  0  0  0
  144.1990   71.2370  219.7860 C   0  0  1  0  0  0  0  0  0  0  0  0
  144.8910   72.1050  218.7860 C   0  0  0  0  0  0  0  0  0  0  0  0
  145.2320   73.3890  219.4690 C   0  0  0  0  0  0  0  0  0  0  0  0
  144.7180   73.2450  220.8640 C   0  0  0  0  0  0  0  0  0  0  0  0
  144.1180   71.9570  221.0180 N   0  0  0  0  0  0  0  0  0  0  0  0
  141.0230   72.1640  221.1920 N   0  0  0  0  0  0  0  0  0  0  0  0
  140.4080   72.6990  222.2760 C   0  0  0  0  0  0  0  0  0  0  0  0
  139.8740   71.8890  223.3150 N   0  0  0  0  0  0  0  0  0  0  0  0
  138.7020   71.0850  223.1700 C   0  0  0  0  0  0  0  0  0  0  0  0
  139.0960   69.6270  223.3670 C   0  0  0  0  0  0  0  0  0  0  0  0
  139.7100   69.5370  224.7200 C   0  0  0  0  0  0  0  0  0  0  0  0
  139.5840   68.3400  225.4320 C   0  0  0  0  0  0  0  0  0  0  0  0
  140.1490   68.2340  226.6970 C   0  0  0  0  0  0  0  0  0  0  0  0
  140.8290   69.3080  227.2400 C   0  0  0  0  0  0  0  0  0  0  0  0
  140.9590   70.4810  226.5530 C   0  0  0  0  0  0  0  0  0  0  0  0
  140.3950   70.5850  225.2940 C   0  0  0  0  0  0  0  0  0  0  0  0
  140.5650   71.8830  224.5910 C   0  0  0  0  0  0  0  0  0  0  0  0
  140.3230   74.0560  222.3240 N   0  0  0  0  0  0  0  0  0  0  0  0
  140.6980   76.9060  222.7050 C   0  0  0  0  0  0  0  0  0  0  0  0
  142.6521   81.9109  222.7048 H   0  0  0  0  0  0  0  0  0  0  0  0
  141.8337   80.8398  224.7828 H   0  0  0  0  0  0  0  0  0  0  0  0
  140.9377   78.5311  224.7685 H   0  0  0  0  0  0  0  0  0  0  0  0
  142.5636   80.6271  220.5489 H   0  0  0  0  0  0  0  0  0  0  0  0
  141.4099   78.8798  219.4118 H   0  0  0  0  0  0  0  0  0  0  0  0
  142.6608   77.7244  220.0368 H   0  0  0  0  0  0  0  0  0  0  0  0
  139.6451   77.4854  220.1359 H   0  0  0  0  0  0  0  0  0  0  0  0
  140.8680   76.3929  219.3549 H   0  0  0  0  0  0  0  0  0  0  0  0
  142.1940   72.7820  218.1440 H   0  0  0  0  0  0  0  0  0  0  0  0
  142.2063   70.3939  219.9811 H   0  0  0  0  0  0  0  0  0  0  0  0
  142.8076   70.4232  218.3112 H   0  0  0  0  0  0  0  0  0  0  0  0
  144.7322   70.2879  219.9440 H   0  0  0  0  0  0  0  0  0  0  0  0
  145.8085   71.6124  218.4316 H   0  0  0  0  0  0  0  0  0  0  0  0
  144.2430   72.2880  217.9161 H   0  0  0  0  0  0  0  0  0  0  0  0
  146.3209   73.5448  219.4742 H   0  0  0  0  0  0  0  0  0  0  0  0
  144.7879   74.2553  218.9568 H   0  0  0  0  0  0  0  0  0  0  0  0
  145.5511   73.3492  221.5747 H   0  0  0  0  0  0  0  0  0  0  0  0
  143.9687   74.0256  221.0620 H   0  0  0  0  0  0  0  0  0  0  0  0
  143.1760   71.9560  221.4320 H   0  0  0  0  0  0  0  0  0  0  0  0
  137.9565   71.3743  223.9253 H   0  0  0  0  0  0  0  0  0  0  0  0
  138.2649   71.2282  222.1708 H   0  0  0  0  0  0  0  0  0  0  0  0
  138.2072   68.9815  223.3088 H   0  0  0  0  0  0  0  0  0  0  0  0
  139.7975   69.2946  222.5877 H   0  0  0  0  0  0  0  0  0  0  0  0
  139.0418   67.4890  224.9940 H   0  0  0  0  0  0  0  0  0  0  0  0
  140.0553   67.2969  227.2654 H   0  0  0  0  0  0  0  0  0  0  0  0
  141.2728   69.2163  228.2423 H   0  0  0  0  0  0  0  0  0  0  0  0
  141.5033   71.3294  226.9935 H   0  0  0  0  0  0  0  0  0  0  0  0
  140.1587   72.6874  225.2217 H   0  0  0  0  0  0  0  0  0  0  0  0
  141.6380   72.0374  224.4042 H   0  0  0  0  0  0  0  0  0  0  0  0
  139.6562   76.9535  223.0547 H   0  0  0  0  0  0  0  0  0  0  0  0
  141.3295   76.3222  223.3908 H   0  0  0  0  0  0  0  0  0  0  0  0
  1  2  2  0
  2  3  1  0
  3  4  2  0
  4  5  1  0
  5  6  2  0
  5  7  1  0
  7  8  1  0
  8  9  1  0
  9 10  1  0
 10 11  2  0
 11 12  1  0
 12 13  1  0
 13 14  1  0
 14 15  1  0
 15 16  1  0
 16 17  1  0
 17 18  1  0
 18 19  1  0
 12 20  2  0
 20 21  1  0
 21 22  1  0
 22 23  1  0
 23 24  1  0
 24 25  1  0
 25 26  2  0
 26 27  1  0
 27 28  2  0
 28 29  1  0
 29 30  2  0
 30 31  1  0
 21 32  2  0
  9 33  1  0
  6  1  1  0
 32 10  1  0
 33  4  1  0
 19 15  1  0
 31 22  1  0
 30 25  1  0
  1 34  1  0
  2 35  1  0
  3 36  1  0
  6 37  1  0
  7 38  1  0
  7 39  1  0
  8 40  1  0
  8 41  1  0
 13 42  1  0
 14 43  1  0
 14 44  1  0
 15 45  1  1
 16 46  1  0
 16 47  1  0
 17 48  1  0
 17 49  1  0
 18 50  1  0
 18 51  1  0
 19 52  1  0
 23 53  1  0
 23 54  1  0
 24 55  1  0
 24 56  1  0
 26 57  1  0
 27 58  1  0
 28 59  1  0
 29 60  1  0
 31 61  1  0
 31 62  1  0
 33 63  1  0
 33 64  1  0
M  END
>  <smiles>  (68) 
c1ccc2c(c1)CCN(c1nc(NCC3CCCN3)nc(N3CCc4ccccc4C3)n1)C2

>  <score_type>  (68) 
oracle

>  <origin>  (68) 
autodockgpu

>  <m_score__min__energy>  (68) 
-10.77

>  <m_primary>  (68) 
energy

>  <rmsd>  (68) 
4.912445761212269

>  <m_score__min__rmsd>  (68) 
4.912445761212269

>  <meeko>  (68) 
{"free_energy": -9.4, "intermolecular_energy": -10.89, "internal_energy": -1.93, "cluster_size": 47, "cluster_id": 1, "rank_in_cluster": 36}

>  <energy>  (68) 
-10.05

>  <cluster_rmsd>  (68) 
0.68

>  <cluster>  (68) 
1

$$$$

     RDKit          3D

 64 69  0  0  0  0  0  0  0  0999 V2000
  141.4430   80.4580  221.9200 C   0  0  0  0  0  0  0  0  0  0  0  0
  140.7400   79.9750  223.0080 C   0  0  0  0  0  0  0  0  0  0  0  0
  140.4020   78.6330  223.1210 C   0  0  0  0  0  0  0  0  0  0  0  0
  140.7700   77.7500  222.1280 C   0  0  0  0  0  0  0  0  0  0  0  0
  141.4700   78.2400  221.0490 C   0  0  0  0  0  0  0  0  0  0  0  0
  141.8180   79.5750  220.9160 C   0  0  0  0  0  0  0  0  0  0  0  0
  141.8910   77.3320  219.9510 C   0  0  0  0  0  0  0  0  0  0  0  0
  141.0450   76.0830  219.9010 C   0  0  0  0  0  0  0  0  0  0  0  0
  140.8550   75.4990  221.2130 N   0  0  0  0  0  0  0  0  0  0  0  0
  141.1220   74.1200  221.4470 C   0  0  0  0  0  0  0  0  0  0  0  0
  142.0460   73.4700  220.7200 N   0  0  0  0  0  0  0  0  0  0  0  0
  142.3340   72.1650  220.9050 C   0  0  0  0  0  0  0  0  0  0  0  0
  143.3170   71.4940  220.1250 N   0  0  0  0  0  0  0  0  0  0  0  0
  143.6240   72.0130  218.8110 C   0  0  0  0  0  0  0  0  0  0  0  0
  144.9390   72.7890  218.9450 C   0  0  1  0  0  0  0  0  0  0  0  0
  144.5950   74.1370  219.4890 C   0  0  0  0  0  0  0  0  0  0  0  0
  145.2700   74.2690  220.8140 C   0  0  0  0  0  0  0  0  0  0  0  0
  145.9930   72.9780  221.0220 C   0  0  0  0  0  0  0  0  0  0  0  0
  145.7790   72.1280  219.8940 N   0  0  0  0  0  0  0  0  0  0  0  0
  141.6450   71.5290  221.8660 N   0  0  0  0  0  0  0  0  0  0  0  0
  140.7010   72.1240  222.6350 C   0  0  0  0  0  0  0  0  0  0  0  0
  139.9940   71.4140  223.6430 N   0  0  0  0  0  0  0  0  0  0  0  0
  138.8420   70.6070  223.3840 C   0  0  0  0  0  0  0  0  0  0  0  0
  139.1710   69.1710  223.7680 C   0  0  0  0  0  0  0  0  0  0  0  0
  139.5610   69.1990  225.2050 C   0  0  0  0  0  0  0  0  0  0  0  0
  139.2990   68.0720  225.9900 C   0  0  0  0  0  0  0  0  0  0  0  0
  139.6550   68.0770  227.3330 C   0  0  0  0  0  0  0  0  0  0  0  0
  140.2620   69.1910  227.8810 C   0  0  0  0  0  0  0  0  0  0  0  0
  140.5230   70.2970  227.1230 C   0  0  0  0  0  0  0  0  0  0  0  0
  140.1670   70.2900  225.7870 C   0  0  0  0  0  0  0  0  0  0  0  0
  140.4730   71.5180  225.0080 C   0  0  0  0  0  0  0  0  0  0  0  0
  140.4590   73.4410  222.3970 N   0  0  0  0  0  0  0  0  0  0  0  0
  140.3860   76.3350  222.2970 C   0  0  0  0  0  0  0  0  0  0  0  0
  141.7012   81.5250  221.8507 H   0  0  0  0  0  0  0  0  0  0  0  0
  140.4407   80.6718  223.8048 H   0  0  0  0  0  0  0  0  0  0  0  0
  139.8432   78.2760  223.9987 H   0  0  0  0  0  0  0  0  0  0  0  0
  142.3776   79.9265  220.0366 H   0  0  0  0  0  0  0  0  0  0  0  0
  141.7970   77.8643  218.9930 H   0  0  0  0  0  0  0  0  0  0  0  0
  142.9330   77.0320  220.1360 H   0  0  0  0  0  0  0  0  0  0  0  0
  140.0610   76.3380  219.4807 H   0  0  0  0  0  0  0  0  0  0  0  0
  141.5681   75.3451  219.2750 H   0  0  0  0  0  0  0  0  0  0  0  0
  143.8010   70.6390  220.5120 H   0  0  0  0  0  0  0  0  0  0  0  0
  143.7417   71.1869  218.0943 H   0  0  0  0  0  0  0  0  0  0  0  0
  142.8159   72.6611  218.4409 H   0  0  0  0  0  0  0  0  0  0  0  0
  145.4547   72.8573  217.9758 H   0  0  0  0  0  0  0  0  0  0  0  0
  144.9525   74.9209  218.8051 H   0  0  0  0  0  0  0  0  0  0  0  0
  143.5057   74.2466  219.5953 H   0  0  0  0  0  0  0  0  0  0  0  0
  145.9793   75.1097  220.8024 H   0  0  0  0  0  0  0  0  0  0  0  0
  144.5502   74.4692  221.6214 H   0  0  0  0  0  0  0  0  0  0  0  0
  147.0695   73.1741  221.1349 H   0  0  0  0  0  0  0  0  0  0  0  0
  145.6139   72.4864  221.9301 H   0  0  0  0  0  0  0  0  0  0  0  0
  145.4750   71.1700  220.1130 H   0  0  0  0  0  0  0  0  0  0  0  0
  137.9926   70.9673  223.9830 H   0  0  0  0  0  0  0  0  0  0  0  0
  138.5704   70.6629  222.3195 H   0  0  0  0  0  0  0  0  0  0  0  0
  138.2902   68.5277  223.6253 H   0  0  0  0  0  0  0  0  0  0  0  0
  139.9806   68.7665  223.1428 H   0  0  0  0  0  0  0  0  0  0  0  0
  138.8150   67.1886  225.5479 H   0  0  0  0  0  0  0  0  0  0  0  0
  139.4539   67.1953  227.9593 H   0  0  0  0  0  0  0  0  0  0  0  0
  140.5396   69.1870  228.9454 H   0  0  0  0  0  0  0  0  0  0  0  0
  141.0082   71.1783  227.5680 H   0  0  0  0  0  0  0  0  0  0  0  0
  139.9886   72.3787  225.4923 H   0  0  0  0  0  0  0  0  0  0  0  0
  141.5651   71.6473  224.9819 H   0  0  0  0  0  0  0  0  0  0  0  0
  139.2888   76.2705  222.3426 H   0  0  0  0  0  0  0  0  0  0  0  0
  140.8521   75.9713  223.2246 H   0  0  0  0  0  0  0  0  0  0  0  0
  1  2  2  0
  2  3  1  0
  3  4  2  0
  4  5  1  0
  5  6  2  0
  5  7  1  0
  7  8  1  0
  8  9  1  0
  9 10  1  0
 10 11  2  0
 11 12  1  0
 12 13  1  0
 13 14  1  0
 14 15  1  0
 15 16  1  0
 16 17  1  0
 17 18  1  0
 18 19  1  0
 12 20  2  0
 20 21  1  0
 21 22  1  0
 22 23  1  0
 23 24  1  0
 24 25  1  0
 25 26  2  0
 26 27  1  0
 27 28  2  0
 28 29  1  0
 29 30  2  0
 30 31  1  0
 21 32  2  0
  9 33  1  0
  6  1  1  0
 32 10  1  0
 33  4  1  0
 19 15  1  0
 31 22  1  0
 30 25  1  0
  1 34  1  0
  2 35  1  0
  3 36  1  0
  6 37  1  0
  7 38  1  0
  7 39  1  0
  8 40  1  0
  8 41  1  0
 13 42  1  0
 14 43  1  0
 14 44  1  0
 15 45  1  6
 16 46  1  0
 16 47  1  0
 17 48  1  0
 17 49  1  0
 18 50  1  0
 18 51  1  0
 19 52  1  0
 23 53  1  0
 23 54  1  0
 24 55  1  0
 24 56  1  0
 26 57  1  0
 27 58  1  0
 28 59  1  0
 29 60  1  0
 31 61  1  0
 31 62  1  0
 33 63  1  0
 33 64  1  0
M  END
>  <smiles>  (69) 
c1ccc2c(c1)CCN(c1nc(NCC3CCCN3)nc(N3CCc4ccccc4C3)n1)C2

>  <score_type>  (69) 
oracle

>  <origin>  (69) 
autodockgpu

>  <m_score__min__energy>  (69) 
-10.77

>  <m_primary>  (69) 
energy

>  <rmsd>  (69) 
4.447171719827454

>  <m_score__min__rmsd>  (69) 
4.447171719827454

>  <meeko>  (69) 
{"free_energy": -10.1, "intermolecular_energy": -11.59, "internal_energy": -1.64, "cluster_size": 47, "cluster_id": 1, "rank_in_cluster": 17}

>  <energy>  (69) 
-10.05

>  <cluster_rmsd>  (69) 
0.47

>  <cluster>  (69) 
1

$$$$

     RDKit          3D

 64 69  0  0  0  0  0  0  0  0999 V2000
  141.9240   80.3940  221.9220 C   0  0  0  0  0  0  0  0  0  0  0  0
  141.5850   79.9370  223.1820 C   0  0  0  0  0  0  0  0  0  0  0  0
  141.1600   78.6330  223.3950 C   0  0  0  0  0  0  0  0  0  0  0  0
  141.0700   77.7610  222.3310 C   0  0  0  0  0  0  0  0  0  0  0  0
  141.4100   78.2250  221.0800 C   0  0  0  0  0  0  0  0  0  0  0  0
  141.8370   79.5220  220.8450 C   0  0  0  0  0  0  0  0  0  0  0  0
  141.3300   77.3280  219.8990 C   0  0  0  0  0  0  0  0  0  0  0  0
  140.3860   76.1730  220.1330 C   0  0  0  0  0  0  0  0  0  0  0  0
  140.5910   75.5550  221.4280 N   0  0  0  0  0  0  0  0  0  0  0  0
  140.7690   74.1480  221.5470 C   0  0  0  0  0  0  0  0  0  0  0  0
  141.4610   73.4650  220.6190 N   0  0  0  0  0  0  0  0  0  0  0  0
  141.6560   72.1320  220.6890 C   0  0  0  0  0  0  0  0  0  0  0  0
  142.3930   71.4260  219.6970 N   0  0  0  0  0  0  0  0  0  0  0  0
  143.8340   71.3840  219.8100 C   0  0  0  0  0  0  0  0  0  0  0  0
  144.3370   72.7990  219.5080 C   0  0  1  0  0  0  0  0  0  0  0  0
  144.4310   73.5160  220.8150 C   0  0  0  0  0  0  0  0  0  0  0  0
  145.8660   73.8760  221.0240 C   0  0  0  0  0  0  0  0  0  0  0  0
  146.5860   73.3470  219.8270 C   0  0  0  0  0  0  0  0  0  0  0  0
  145.6490   72.7210  218.9480 N   0  0  0  0  0  0  0  0  0  0  0  0
  141.1190   71.5010  221.7460 N   0  0  0  0  0  0  0  0  0  0  0  0
  140.4110   72.1280  222.7160 C   0  0  0  0  0  0  0  0  0  0  0  0
  139.8580   71.4230  223.8210 N   0  0  0  0  0  0  0  0  0  0  0  0
  138.7130   70.5740  223.7250 C   0  0  0  0  0  0  0  0  0  0  0  0
  139.1360   69.1600  224.0970 C   0  0  0  0  0  0  0  0  0  0  0  0
  139.6990   69.2380  225.4740 C   0  0  0  0  0  0  0  0  0  0  0  0
  139.5760   68.1240  226.3100 C   0  0  0  0  0  0  0  0  0  0  0  0
  140.0950   68.1760  227.5980 C   0  0  0  0  0  0  0  0  0  0  0  0
  140.7260   69.3230  228.0410 C   0  0  0  0  0  0  0  0  0  0  0  0
  140.8520   70.4160  227.2320 C   0  0  0  0  0  0  0  0  0  0  0  0
  140.3350   70.3630  225.9510 C   0  0  0  0  0  0  0  0  0  0  0  0
  140.4990   71.5790  225.1130 C   0  0  0  0  0  0  0  0  0  0  0  0
  140.2510   73.4730  222.5860 N   0  0  0  0  0  0  0  0  0  0  0  0
  140.6130   76.3860  222.6120 C   0  0  0  0  0  0  0  0  0  0  0  0
  142.2573   81.4319  221.7751 H   0  0  0  0  0  0  0  0  0  0  0  0
  141.6539   80.6246  224.0378 H   0  0  0  0  0  0  0  0  0  0  0  0
  140.8961   78.2967  224.4085 H   0  0  0  0  0  0  0  0  0  0  0  0
  142.1007   79.8529  219.8296 H   0  0  0  0  0  0  0  0  0  0  0  0
  140.9746   77.9085  219.0348 H   0  0  0  0  0  0  0  0  0  0  0  0
  142.3333   76.9166  219.7144 H   0  0  0  0  0  0  0  0  0  0  0  0
  139.3517   76.5432  220.0764 H   0  0  0  0  0  0  0  0  0  0  0  0
  140.5812   75.4142  219.3609 H   0  0  0  0  0  0  0  0  0  0  0  0
  141.8840   70.9510  218.9030 H   0  0  0  0  0  0  0  0  0  0  0  0
  144.1266   71.0861  220.8277 H   0  0  0  0  0  0  0  0  0  0  0  0
  144.2659   70.6516  219.1121 H   0  0  0  0  0  0  0  0  0  0  0  0
  143.6635   73.3130  218.8064 H   0  0  0  0  0  0  0  0  0  0  0  0
  143.8146   74.4267  220.7896 H   0  0  0  0  0  0  0  0  0  0  0  0
  144.0666   72.8794  221.6347 H   0  0  0  0  0  0  0  0  0  0  0  0
  145.9829   74.9676  221.0922 H   0  0  0  0  0  0  0  0  0  0  0  0
  146.2618   73.4534  221.9593 H   0  0  0  0  0  0  0  0  0  0  0  0
  147.0843   74.1756  219.3025 H   0  0  0  0  0  0  0  0  0  0  0  0
  147.3387   72.6111  220.1463 H   0  0  0  0  0  0  0  0  0  0  0  0
  145.9040   71.7760  218.6310 H   0  0  0  0  0  0  0  0  0  0  0  0
  137.9319   70.9229  224.4164 H   0  0  0  0  0  0  0  0  0  0  0  0
  138.3109   70.5931  222.7013 H   0  0  0  0  0  0  0  0  0  0  0  0
  138.2670   68.4858  224.0789 H   0  0  0  0  0  0  0  0  0  0  0  0
  139.8760   68.7649  223.3854 H   0  0  0  0  0  0  0  0  0  0  0  0
  139.0727   67.2141  225.9512 H   0  0  0  0  0  0  0  0  0  0  0  0
  140.0037   67.3054  228.2641 H   0  0  0  0  0  0  0  0  0  0  0  0
  141.1335   69.3561  229.0622 H   0  0  0  0  0  0  0  0  0  0  0  0
  141.3567   71.3239  227.5938 H   0  0  0  0  0  0  0  0  0  0  0  0
  140.0485   72.4363  225.6346 H   0  0  0  0  0  0  0  0  0  0  0  0
  141.5741   71.7428  224.9480 H   0  0  0  0  0  0  0  0  0  0  0  0
  139.5965   76.4309  223.0300 H   0  0  0  0  0  0  0  0  0  0  0  0
  141.3235   75.9369  223.3215 H   0  0  0  0  0  0  0  0  0  0  0  0
  1  2  2  0
  2  3  1  0
  3  4  2  0
  4  5  1  0
  5  6  2  0
  5  7  1  0
  7  8  1  0
  8  9  1  0
  9 10  1  0
 10 11  2  0
 11 12  1  0
 12 13  1  0
 13 14  1  0
 14 15  1  0
 15 16  1  0
 16 17  1  0
 17 18  1  0
 18 19  1  0
 12 20  2  0
 20 21  1  0
 21 22  1  0
 22 23  1  0
 23 24  1  0
 24 25  1  0
 25 26  2  0
 26 27  1  0
 27 28  2  0
 28 29  1  0
 29 30  2  0
 30 31  1  0
 21 32  2  0
  9 33  1  0
  6  1  1  0
 32 10  1  0
 33  4  1  0
 19 15  1  0
 31 22  1  0
 30 25  1  0
  1 34  1  0
  2 35  1  0
  3 36  1  0
  6 37  1  0
  7 38  1  0
  7 39  1  0
  8 40  1  0
  8 41  1  0
 13 42  1  0
 14 43  1  0
 14 44  1  0
 15 45  1  6
 16 46  1  0
 16 47  1  0
 17 48  1  0
 17 49  1  0
 18 50  1  0
 18 51  1  0
 19 52  1  0
 23 53  1  0
 23 54  1  0
 24 55  1  0
 24 56  1  0
 26 57  1  0
 27 58  1  0
 28 59  1  0
 29 60  1  0
 31 61  1  0
 31 62  1  0
 33 63  1  0
 33 64  1  0
M  END
>  <smiles>  (70) 
c1ccc2c(c1)CCN(c1nc(NCC3CCCN3)nc(N3CCc4ccccc4C3)n1)C2

>  <score_type>  (70) 
oracle

>  <origin>  (70) 
autodockgpu

>  <m_score__min__energy>  (70) 
-10.77

>  <m_primary>  (70) 
energy

>  <rmsd>  (70) 
4.46715792848729

>  <m_score__min__rmsd>  (70) 
4.46715792848729

>  <meeko>  (70) 
{"free_energy": -10.04, "intermolecular_energy": -11.53, "internal_energy": -1.14, "cluster_size": 47, "cluster_id": 1, "rank_in_cluster": 20}

>  <energy>  (70) 
-10.04

>  <cluster_rmsd>  (70) 
0.69

>  <cluster>  (70) 
1

$$$$

     RDKit          3D

 64 69  0  0  0  0  0  0  0  0999 V2000
  142.3360   80.7860  222.6300 C   0  0  0  0  0  0  0  0  0  0  0  0
  141.9190   80.1910  223.8060 C   0  0  0  0  0  0  0  0  0  0  0  0
  141.3830   78.9100  223.8250 C   0  0  0  0  0  0  0  0  0  0  0  0
  141.2580   78.2040  222.6470 C   0  0  0  0  0  0  0  0  0  0  0  0
  141.6760   78.8060  221.4820 C   0  0  0  0  0  0  0  0  0  0  0  0
  142.2130   80.0820  221.4400 C   0  0  0  0  0  0  0  0  0  0  0  0
  141.5630   78.0900  220.1840 C   0  0  0  0  0  0  0  0  0  0  0  0
  140.5210   76.9990  220.2350 C   0  0  0  0  0  0  0  0  0  0  0  0
  140.6320   76.1930  221.4330 N   0  0  0  0  0  0  0  0  0  0  0  0
  140.6920   74.7720  221.3580 C   0  0  0  0  0  0  0  0  0  0  0  0
  141.2440   74.1670  220.2930 N   0  0  0  0  0  0  0  0  0  0  0  0
  141.3240   72.8250  220.1770 C   0  0  0  0  0  0  0  0  0  0  0  0
  141.9140   72.2020  219.0410 N   0  0  0  0  0  0  0  0  0  0  0  0
  143.2980   72.4910  218.7400 C   0  0  0  0  0  0  0  0  0  0  0  0
  144.0620   72.3890  220.0650 C   0  0  1  0  0  0  0  0  0  0  0  0
  145.4840   72.0790  219.7250 C   0  0  0  0  0  0  0  0  0  0  0  0
  146.3180   73.2180  220.2120 C   0  0  0  0  0  0  0  0  0  0  0  0
  145.3550   74.1820  220.8240 C   0  0  0  0  0  0  0  0  0  0  0  0
  144.0300   73.6570  220.7240 N   0  0  0  0  0  0  0  0  0  0  0  0
  140.8170   72.1040  221.1890 N   0  0  0  0  0  0  0  0  0  0  0  0
  140.2460   72.6500  222.2910 C   0  0  0  0  0  0  0  0  0  0  0  0
  139.7210   71.8500  223.3420 N   0  0  0  0  0  0  0  0  0  0  0  0
  138.5540   71.0350  223.2100 C   0  0  0  0  0  0  0  0  0  0  0  0
  138.9600   69.5830  223.4260 C   0  0  0  0  0  0  0  0  0  0  0  0
  139.5770   69.5160  224.7800 C   0  0  0  0  0  0  0  0  0  0  0  0
  139.4620   68.3280  225.5080 C   0  0  0  0  0  0  0  0  0  0  0  0
  140.0300   68.2440  226.7730 C   0  0  0  0  0  0  0  0  0  0  0  0
  140.7030   69.3300  227.3000 C   0  0  0  0  0  0  0  0  0  0  0  0
  140.8220   70.4950  226.5970 C   0  0  0  0  0  0  0  0  0  0  0  0
  140.2550   70.5770  225.3380 C   0  0  0  0  0  0  0  0  0  0  0  0
  140.4130   71.8670  224.6170 C   0  0  0  0  0  0  0  0  0  0  0  0
  140.1980   74.0080  222.3450 N   0  0  0  0  0  0  0  0  0  0  0  0
  140.6820   76.8480  222.7230 C   0  0  0  0  0  0  0  0  0  0  0  0
  142.7587   81.8015  222.6371 H   0  0  0  0  0  0  0  0  0  0  0  0
  142.0142   80.7463  224.7508 H   0  0  0  0  0  0  0  0  0  0  0  0
  141.0596   78.4605  224.7754 H   0  0  0  0  0  0  0  0  0  0  0  0
  142.5343   80.5268  220.4866 H   0  0  0  0  0  0  0  0  0  0  0  0
  141.2848   78.8119  219.4021 H   0  0  0  0  0  0  0  0  0  0  0  0
  142.5352   77.6246  219.9643 H   0  0  0  0  0  0  0  0  0  0  0  0
  139.5229   77.4608  220.2098 H   0  0  0  0  0  0  0  0  0  0  0  0
  140.6789   76.3401  219.3685 H   0  0  0  0  0  0  0  0  0  0  0  0
  141.3400   71.5480  218.4440 H   0  0  0  0  0  0  0  0  0  0  0  0
  143.6905   71.7600  218.0178 H   0  0  0  0  0  0  0  0  0  0  0  0
  143.4077   73.4903  218.2934 H   0  0  0  0  0  0  0  0  0  0  0  0
  143.6184   71.6203  220.7148 H   0  0  0  0  0  0  0  0  0  0  0  0
  145.7944   71.1471  220.2201 H   0  0  0  0  0  0  0  0  0  0  0  0
  145.6038   71.9461  218.6397 H   0  0  0  0  0  0  0  0  0  0  0  0
  147.0436   72.8705  220.9621 H   0  0  0  0  0  0  0  0  0  0  0  0
  146.8962   73.6790  219.3976 H   0  0  0  0  0  0  0  0  0  0  0  0
  145.6107   74.3338  221.8831 H   0  0  0  0  0  0  0  0  0  0  0  0
  145.4103   75.1437  220.2930 H   0  0  0  0  0  0  0  0  0  0  0  0
  143.3270   74.3010  220.3370 H   0  0  0  0  0  0  0  0  0  0  0  0
  137.8077   71.3288  223.9628 H   0  0  0  0  0  0  0  0  0  0  0  0
  138.1136   71.1614  222.2100 H   0  0  0  0  0  0  0  0  0  0  0  0
  138.0764   68.9297  223.3778 H   0  0  0  0  0  0  0  0  0  0  0  0
  139.6631   69.2458  222.6502 H   0  0  0  0  0  0  0  0  0  0  0  0
  138.9261   67.4667  225.0826 H   0  0  0  0  0  0  0  0  0  0  0  0
  139.9442   67.3142  227.3545 H   0  0  0  0  0  0  0  0  0  0  0  0
  141.1502   69.2549  228.3022 H   0  0  0  0  0  0  0  0  0  0  0  0
  141.3599   71.3538  227.0250 H   0  0  0  0  0  0  0  0  0  0  0  0
  140.0003   72.6763  225.2372 H   0  0  0  0  0  0  0  0  0  0  0  0
  141.4844   72.0279  224.4268 H   0  0  0  0  0  0  0  0  0  0  0  0
  139.6592   76.9212  223.1212 H   0  0  0  0  0  0  0  0  0  0  0  0
  141.3294   76.2465  223.3780 H   0  0  0  0  0  0  0  0  0  0  0  0
  1  2  2  0
  2  3  1  0
  3  4  2  0
  4  5  1  0
  5  6  2  0
  5  7  1  0
  7  8  1  0
  8  9  1  0
  9 10  1  0
 10 11  2  0
 11 12  1  0
 12 13  1  0
 13 14  1  0
 14 15  1  0
 15 16  1  0
 16 17  1  0
 17 18  1  0
 18 19  1  0
 12 20  2  0
 20 21  1  0
 21 22  1  0
 22 23  1  0
 23 24  1  0
 24 25  1  0
 25 26  2  0
 26 27  1  0
 27 28  2  0
 28 29  1  0
 29 30  2  0
 30 31  1  0
 21 32  2  0
  9 33  1  0
  6  1  1  0
 32 10  1  0
 33  4  1  0
 19 15  1  0
 31 22  1  0
 30 25  1  0
  1 34  1  0
  2 35  1  0
  3 36  1  0
  6 37  1  0
  7 38  1  0
  7 39  1  0
  8 40  1  0
  8 41  1  0
 13 42  1  0
 14 43  1  0
 14 44  1  0
 15 45  1  1
 16 46  1  0
 16 47  1  0
 17 48  1  0
 17 49  1  0
 18 50  1  0
 18 51  1  0
 19 52  1  0
 23 53  1  0
 23 54  1  0
 24 55  1  0
 24 56  1  0
 26 57  1  0
 27 58  1  0
 28 59  1  0
 29 60  1  0
 31 61  1  0
 31 62  1  0
 33 63  1  0
 33 64  1  0
M  END
>  <smiles>  (71) 
c1ccc2c(c1)CCN(c1nc(NCC3CCCN3)nc(N3CCc4ccccc4C3)n1)C2

>  <score_type>  (71) 
oracle

>  <origin>  (71) 
autodockgpu

>  <m_score__min__energy>  (71) 
-10.77

>  <m_primary>  (71) 
energy

>  <rmsd>  (71) 
4.888129459348686

>  <m_score__min__rmsd>  (71) 
4.888129459348686

>  <meeko>  (71) 
{"free_energy": -9.8, "intermolecular_energy": -11.29, "internal_energy": -1.86, "cluster_size": 47, "cluster_id": 1, "rank_in_cluster": 26}

>  <energy>  (71) 
-10.03

>  <cluster_rmsd>  (71) 
0.73

>  <cluster>  (71) 
1

$$$$

     RDKit          3D

 64 69  0  0  0  0  0  0  0  0999 V2000
  145.5040   67.3230  218.3500 C   0  0  0  0  0  0  0  0  0  0  0  0
  146.3140   68.3360  218.8280 C   0  0  0  0  0  0  0  0  0  0  0  0
  145.7850   69.5190  219.3250 C   0  0  0  0  0  0  0  0  0  0  0  0
  144.4180   69.7020  219.3470 C   0  0  0  0  0  0  0  0  0  0  0  0
  143.6200   68.6870  218.8680 C   0  0  0  0  0  0  0  0  0  0  0  0
  144.1270   67.4980  218.3680 C   0  0  0  0  0  0  0  0  0  0  0  0
  142.1410   68.8310  218.8680 C   0  0  0  0  0  0  0  0  0  0  0  0
  141.7190   70.2800  218.9050 C   0  0  0  0  0  0  0  0  0  0  0  0
  142.4630   71.0410  219.8880 N   0  0  0  0  0  0  0  0  0  0  0  0
  141.7920   71.8450  220.8530 C   0  0  0  0  0  0  0  0  0  0  0  0
  141.7130   73.1770  220.6980 N   0  0  0  0  0  0  0  0  0  0  0  0
  141.0890   73.9790  221.5840 C   0  0  0  0  0  0  0  0  0  0  0  0
  141.0160   75.3890  221.4020 N   0  0  0  0  0  0  0  0  0  0  0  0
  140.1480   76.1510  222.2720 C   0  0  0  0  0  0  0  0  0  0  0  0
  140.2080   77.6020  221.7840 C   0  0  1  0  0  0  0  0  0  0  0  0
  139.7600   78.4620  222.9210 C   0  0  0  0  0  0  0  0  0  0  0  0
  140.9080   79.3440  223.2920 C   0  0  0  0  0  0  0  0  0  0  0  0
  142.0140   78.9690  222.3600 C   0  0  0  0  0  0  0  0  0  0  0  0
  141.5630   77.9390  221.4780 N   0  0  0  0  0  0  0  0  0  0  0  0
  140.5360   73.3800  222.6510 N   0  0  0  0  0  0  0  0  0  0  0  0
  140.5790   72.0430  222.8690 C   0  0  0  0  0  0  0  0  0  0  0  0
  139.9800   71.4460  224.0130 N   0  0  0  0  0  0  0  0  0  0  0  0
  138.7680   70.6910  223.9690 C   0  0  0  0  0  0  0  0  0  0  0  0
  139.0760   69.2690  224.4160 C   0  0  0  0  0  0  0  0  0  0  0  0
  139.6570   69.3740  225.7830 C   0  0  0  0  0  0  0  0  0  0  0  0
  139.4500   68.3220  226.6800 C   0  0  0  0  0  0  0  0  0  0  0  0
  139.9830   68.4000  227.9600 C   0  0  0  0  0  0  0  0  0  0  0  0
  140.7100   69.5130  228.3370 C   0  0  0  0  0  0  0  0  0  0  0  0
  140.9190   70.5470  227.4690 C   0  0  0  0  0  0  0  0  0  0  0  0
  140.3870   70.4670  226.1950 C   0  0  0  0  0  0  0  0  0  0  0  0
  140.6430   71.6180  225.2910 C   0  0  0  0  0  0  0  0  0  0  0  0
  141.2240   71.2910  221.9370 N   0  0  0  0  0  0  0  0  0  0  0  0
  143.9090   70.9770  219.8840 C   0  0  0  0  0  0  0  0  0  0  0  0
  145.9437   66.3926  217.9614 H   0  0  0  0  0  0  0  0  0  0  0  0
  147.4056   68.2011  218.8141 H   0  0  0  0  0  0  0  0  0  0  0  0
  146.4536   70.3079  219.7000 H   0  0  0  0  0  0  0  0  0  0  0  0
  143.4544   66.7118  217.9944 H   0  0  0  0  0  0  0  0  0  0  0  0
  141.7379   68.3659  217.9563 H   0  0  0  0  0  0  0  0  0  0  0  0
  141.7494   68.3376  219.7698 H   0  0  0  0  0  0  0  0  0  0  0  0
  141.8868   70.7234  217.9124 H   0  0  0  0  0  0  0  0  0  0  0  0
  140.6556   70.3153  219.1843 H   0  0  0  0  0  0  0  0  0  0  0  0
  141.5890   75.8510  220.6450 H   0  0  0  0  0  0  0  0  0  0  0  0
  139.1177   75.7710  222.2085 H   0  0  0  0  0  0  0  0  0  0  0  0
  140.4670   76.0708  223.3217 H   0  0  0  0  0  0  0  0  0  0  0  0
  139.5801   77.7421  220.8918 H   0  0  0  0  0  0  0  0  0  0  0  0
  138.8994   79.0741  222.6133 H   0  0  0  0  0  0  0  0  0  0  0  0
  139.4513   77.8446  223.7775 H   0  0  0  0  0  0  0  0  0  0  0  0
  140.6377   80.4024  223.1624 H   0  0  0  0  0  0  0  0  0  0  0  0
  141.1991   79.2153  224.3450 H   0  0  0  0  0  0  0  0  0  0  0  0
  142.3136   79.8497  221.7729 H   0  0  0  0  0  0  0  0  0  0  0  0
  142.8753   78.6053  222.9395 H   0  0  0  0  0  0  0  0  0  0  0  0
  142.1810   77.1200  221.4020 H   0  0  0  0  0  0  0  0  0  0  0  0
  138.0247   71.1406  224.6438 H   0  0  0  0  0  0  0  0  0  0  0  0
  138.3596   70.6878  222.9476 H   0  0  0  0  0  0  0  0  0  0  0  0
  138.1540   68.6696  224.4396 H   0  0  0  0  0  0  0  0  0  0  0  0
  139.7737   68.7757  223.7232 H   0  0  0  0  0  0  0  0  0  0  0  0
  138.8694   67.4392  226.3743 H   0  0  0  0  0  0  0  0  0  0  0  0
  139.8267   67.5769  228.6728 H   0  0  0  0  0  0  0  0  0  0  0  0
  141.1275   69.5673  229.3532 H   0  0  0  0  0  0  0  0  0  0  0  0
  141.5005   71.4281  227.7781 H   0  0  0  0  0  0  0  0  0  0  0  0
  140.2695   72.5366  225.7670 H   0  0  0  0  0  0  0  0  0  0  0  0
  141.7265   71.6830  225.1124 H   0  0  0  0  0  0  0  0  0  0  0  0
  144.2965   71.7998  219.2652 H   0  0  0  0  0  0  0  0  0  0  0  0
  144.2492   71.0591  220.9268 H   0  0  0  0  0  0  0  0  0  0  0  0
  1  2  2  0
  2  3  1  0
  3  4  2  0
  4  5  1  0
  5  6  2  0
  5  7  1  0
  7  8  1  0
  8  9  1  0
  9 10  1  0
 10 11  2  0
 11 12  1  0
 12 13  1  0
 13 14  1  0
 14 15  1  0
 15 16  1  0
 16 17  1  0
 17 18  1  0
 18 19  1  0
 12 20  2  0
 20 21  1  0
 21 22  1  0
 22 23  1  0
 23 24  1  0
 24 25  1  0
 25 26  2  0
 26 27  1  0
 27 28  2  0
 28 29  1  0
 29 30  2  0
 30 31  1  0
 21 32  2  0
  9 33  1  0
  6  1  1  0
 32 10  1  0
 33  4  1  0
 19 15  1  0
 31 22  1  0
 30 25  1  0
  1 34  1  0
  2 35  1  0
  3 36  1  0
  6 37  1  0
  7 38  1  0
  7 39  1  0
  8 40  1  0
  8 41  1  0
 13 42  1  0
 14 43  1  0
 14 44  1  0
 15 45  1  6
 16 46  1  0
 16 47  1  0
 17 48  1  0
 17 49  1  0
 18 50  1  0
 18 51  1  0
 19 52  1  0
 23 53  1  0
 23 54  1  0
 24 55  1  0
 24 56  1  0
 26 57  1  0
 27 58  1  0
 28 59  1  0
 29 60  1  0
 31 61  1  0
 31 62  1  0
 33 63  1  0
 33 64  1  0
M  END
>  <smiles>  (72) 
c1ccc2c(c1)CCN(c1nc(NCC3CCCN3)nc(N3CCc4ccccc4C3)n1)C2

>  <score_type>  (72) 
oracle

>  <origin>  (72) 
autodockgpu

>  <m_score__min__energy>  (72) 
-10.77

>  <m_primary>  (72) 
energy

>  <rmsd>  (72) 
10.610392016944921

>  <m_score__min__rmsd>  (72) 
10.610392016944921

>  <meeko>  (72) 
{"free_energy": -9.29, "intermolecular_energy": -10.78, "internal_energy": -1.5, "cluster_size": 3, "cluster_id": 2, "rank_in_cluster": 2}

>  <energy>  (72) 
-10.03

>  <cluster_rmsd>  (72) 
0.72

>  <cluster>  (72) 
1

$$$$

     RDKit          3D

 64 69  0  0  0  0  0  0  0  0999 V2000
  141.9400   80.6020  222.4790 C   0  0  0  0  0  0  0  0  0  0  0  0
  141.1970   80.0830  223.5240 C   0  0  0  0  0  0  0  0  0  0  0  0
  140.6910   78.7910  223.4870 C   0  0  0  0  0  0  0  0  0  0  0  0
  140.9270   77.9950  222.3870 C   0  0  0  0  0  0  0  0  0  0  0  0
  141.6680   78.5200  221.3520 C   0  0  0  0  0  0  0  0  0  0  0  0
  142.1830   79.8060  221.3680 C   0  0  0  0  0  0  0  0  0  0  0  0
  141.9530   77.7060  220.1420 C   0  0  0  0  0  0  0  0  0  0  0  0
  140.9520   76.5880  219.9710 C   0  0  0  0  0  0  0  0  0  0  0  0
  140.7080   75.8790  221.2100 N   0  0  0  0  0  0  0  0  0  0  0  0
  140.7990   74.4590  221.2710 C   0  0  0  0  0  0  0  0  0  0  0  0
  141.3630   73.7660  220.2680 N   0  0  0  0  0  0  0  0  0  0  0  0
  141.4720   72.4220  220.2810 C   0  0  0  0  0  0  0  0  0  0  0  0
  142.0730   71.7050  219.2080 N   0  0  0  0  0  0  0  0  0  0  0  0
  142.9130   70.5710  219.5230 C   0  0  0  0  0  0  0  0  0  0  0  0
  144.2660   71.1410  219.9630 C   0  0  1  0  0  0  0  0  0  0  0  0
  144.7400   72.0360  218.8650 C   0  0  0  0  0  0  0  0  0  0  0  0
  144.8390   73.4160  219.4260 C   0  0  0  0  0  0  0  0  0  0  0  0
  144.4070   73.2980  220.8520 C   0  0  0  0  0  0  0  0  0  0  0  0
  144.0810   71.9360  221.1360 N   0  0  0  0  0  0  0  0  0  0  0  0
  140.9840   71.7900  221.3610 N   0  0  0  0  0  0  0  0  0  0  0  0
  140.4040   72.4270  222.4070 C   0  0  0  0  0  0  0  0  0  0  0  0
  139.9000   71.7210  223.5330 N   0  0  0  0  0  0  0  0  0  0  0  0
  138.7430   70.8830  223.4890 C   0  0  0  0  0  0  0  0  0  0  0  0
  139.1710   69.4630  223.8330 C   0  0  0  0  0  0  0  0  0  0  0  0
  139.8010   69.5280  225.1810 C   0  0  0  0  0  0  0  0  0  0  0  0
  139.7090   68.4110  226.0170 C   0  0  0  0  0  0  0  0  0  0  0  0
  140.2910   68.4510  227.2780 C   0  0  0  0  0  0  0  0  0  0  0  0
  140.9530   69.5900  227.6950 C   0  0  0  0  0  0  0  0  0  0  0  0
  141.0500   70.6870  226.8870 C   0  0  0  0  0  0  0  0  0  0  0  0
  140.4700   70.6450  225.6320 C   0  0  0  0  0  0  0  0  0  0  0  0
  140.6040   71.8640  224.7930 C   0  0  0  0  0  0  0  0  0  0  0  0
  140.3260   73.7830  222.3310 N   0  0  0  0  0  0  0  0  0  0  0  0
  140.3670   76.6300  222.3990 C   0  0  0  0  0  0  0  0  0  0  0  0
  142.3319   81.6287  222.5276 H   0  0  0  0  0  0  0  0  0  0  0  0
  141.0023   80.7100  224.4066 H   0  0  0  0  0  0  0  0  0  0  0  0
  140.1037   78.4038  224.3327 H   0  0  0  0  0  0  0  0  0  0  0  0
  142.7708   80.1875  220.5201 H   0  0  0  0  0  0  0  0  0  0  0  0
  141.9138   78.3578  219.2568 H   0  0  0  0  0  0  0  0  0  0  0  0
  142.9507   77.2575  220.2582 H   0  0  0  0  0  0  0  0  0  0  0  0
  140.0028   77.0137  219.6134 H   0  0  0  0  0  0  0  0  0  0  0  0
  141.3665   75.8709  219.2471 H   0  0  0  0  0  0  0  0  0  0  0  0
  141.8980   72.0070  218.2110 H   0  0  0  0  0  0  0  0  0  0  0  0
  142.4661   69.9815  220.3371 H   0  0  0  0  0  0  0  0  0  0  0  0
  143.0251   69.9054  218.6544 H   0  0  0  0  0  0  0  0  0  0  0  0
  144.9827   70.3328  220.1706 H   0  0  0  0  0  0  0  0  0  0  0  0
  145.7259   71.7035  218.5080 H   0  0  0  0  0  0  0  0  0  0  0  0
  144.0423   72.0112  218.0149 H   0  0  0  0  0  0  0  0  0  0  0  0
  145.8747   73.7819  219.3669 H   0  0  0  0  0  0  0  0  0  0  0  0
  144.2152   74.1297  218.8678 H   0  0  0  0  0  0  0  0  0  0  0  0
  145.2241   73.6254  221.5117 H   0  0  0  0  0  0  0  0  0  0  0  0
  143.5241   73.9314  221.0230 H   0  0  0  0  0  0  0  0  0  0  0  0
  143.1710   71.7870  221.5930 H   0  0  0  0  0  0  0  0  0  0  0  0
  138.0000   71.2353  224.2196 H   0  0  0  0  0  0  0  0  0  0  0  0
  138.2911   70.9114  222.4865 H   0  0  0  0  0  0  0  0  0  0  0  0
  138.2961   68.7966  223.8538 H   0  0  0  0  0  0  0  0  0  0  0  0
  139.8720   69.0656  223.0842 H   0  0  0  0  0  0  0  0  0  0  0  0
  139.1800   67.5077  225.6790 H   0  0  0  0  0  0  0  0  0  0  0  0
  140.2249   67.5775  227.9433 H   0  0  0  0  0  0  0  0  0  0  0  0
  141.4099   69.6137  228.6953 H   0  0  0  0  0  0  0  0  0  0  0  0
  141.5802   71.5883  227.2284 H   0  0  0  0  0  0  0  0  0  0  0  0
  140.1871   72.7223  225.3402 H   0  0  0  0  0  0  0  0  0  0  0  0
  141.6713   72.0190  224.5768 H   0  0  0  0  0  0  0  0  0  0  0  0
  139.2715   76.6991  222.4701 H   0  0  0  0  0  0  0  0  0  0  0  0
  140.7966   76.1008  223.2624 H   0  0  0  0  0  0  0  0  0  0  0  0
  1  2  2  0
  2  3  1  0
  3  4  2  0
  4  5  1  0
  5  6  2  0
  5  7  1  0
  7  8  1  0
  8  9  1  0
  9 10  1  0
 10 11  2  0
 11 12  1  0
 12 13  1  0
 13 14  1  0
 14 15  1  0
 15 16  1  0
 16 17  1  0
 17 18  1  0
 18 19  1  0
 12 20  2  0
 20 21  1  0
 21 22  1  0
 22 23  1  0
 23 24  1  0
 24 25  1  0
 25 26  2  0
 26 27  1  0
 27 28  2  0
 28 29  1  0
 29 30  2  0
 30 31  1  0
 21 32  2  0
  9 33  1  0
  6  1  1  0
 32 10  1  0
 33  4  1  0
 19 15  1  0
 31 22  1  0
 30 25  1  0
  1 34  1  0
  2 35  1  0
  3 36  1  0
  6 37  1  0
  7 38  1  0
  7 39  1  0
  8 40  1  0
  8 41  1  0
 13 42  1  0
 14 43  1  0
 14 44  1  0
 15 45  1  1
 16 46  1  0
 16 47  1  0
 17 48  1  0
 17 49  1  0
 18 50  1  0
 18 51  1  0
 19 52  1  0
 23 53  1  0
 23 54  1  0
 24 55  1  0
 24 56  1  0
 26 57  1  0
 27 58  1  0
 28 59  1  0
 29 60  1  0
 31 61  1  0
 31 62  1  0
 33 63  1  0
 33 64  1  0
M  END
>  <smiles>  (73) 
c1ccc2c(c1)CCN(c1nc(NCC3CCCN3)nc(N3CCc4ccccc4C3)n1)C2

>  <score_type>  (73) 
oracle

>  <origin>  (73) 
autodockgpu

>  <m_score__min__energy>  (73) 
-10.77

>  <m_primary>  (73) 
energy

>  <rmsd>  (73) 
4.721356223002663

>  <m_score__min__rmsd>  (73) 
4.721356223002663

>  <meeko>  (73) 
{"free_energy": -9.23, "intermolecular_energy": -10.72, "internal_energy": -1.91, "cluster_size": 47, "cluster_id": 1, "rank_in_cluster": 42}

>  <energy>  (73) 
-9.9

>  <cluster_rmsd>  (73) 
0.69

>  <cluster>  (73) 
1

$$$$

     RDKit          3D

 64 69  0  0  0  0  0  0  0  0999 V2000
  141.2550   80.4200  222.0560 C   0  0  0  0  0  0  0  0  0  0  0  0
  140.4120   79.9030  223.0230 C   0  0  0  0  0  0  0  0  0  0  0  0
  140.0870   78.5540  223.0610 C   0  0  0  0  0  0  0  0  0  0  0  0
  140.6100   77.6980  222.1150 C   0  0  0  0  0  0  0  0  0  0  0  0
  141.4480   78.2220  221.1570 C   0  0  0  0  0  0  0  0  0  0  0  0
  141.7860   79.5640  221.1010 C   0  0  0  0  0  0  0  0  0  0  0  0
  142.0390   77.3440  220.1150 C   0  0  0  0  0  0  0  0  0  0  0  0
  141.2320   76.0820  219.9200 C   0  0  0  0  0  0  0  0  0  0  0  0
  140.8670   75.4680  221.1800 N   0  0  0  0  0  0  0  0  0  0  0  0
  141.1240   74.0900  221.4250 C   0  0  0  0  0  0  0  0  0  0  0  0
  142.0500   73.4290  220.7100 N   0  0  0  0  0  0  0  0  0  0  0  0
  142.3280   72.1240  220.9050 C   0  0  0  0  0  0  0  0  0  0  0  0
  143.3140   71.4420  220.1370 N   0  0  0  0  0  0  0  0  0  0  0  0
  143.5480   71.8750  218.7770 C   0  0  0  0  0  0  0  0  0  0  0  0
  144.8370   72.7020  218.7990 C   0  0  1  0  0  0  0  0  0  0  0  0
  144.4620   74.0830  219.2280 C   0  0  0  0  0  0  0  0  0  0  0  0
  145.1690   74.3580  220.5150 C   0  0  0  0  0  0  0  0  0  0  0  0
  145.9430   73.1150  220.8160 C   0  0  0  0  0  0  0  0  0  0  0  0
  145.7270   72.1590  219.7770 N   0  0  0  0  0  0  0  0  0  0  0  0
  141.6270   71.4970  221.8630 N   0  0  0  0  0  0  0  0  0  0  0  0
  140.6800   72.1030  222.6200 C   0  0  0  0  0  0  0  0  0  0  0  0
  139.9590   71.4030  223.6260 N   0  0  0  0  0  0  0  0  0  0  0  0
  138.8090   70.5970  223.3610 C   0  0  0  0  0  0  0  0  0  0  0  0
  139.1300   69.1630  223.7610 C   0  0  0  0  0  0  0  0  0  0  0  0
  139.5030   69.2020  225.2020 C   0  0  0  0  0  0  0  0  0  0  0  0
  139.2300   68.0830  225.9940 C   0  0  0  0  0  0  0  0  0  0  0  0
  139.5700   68.0980  227.3410 C   0  0  0  0  0  0  0  0  0  0  0  0
  140.1740   69.2160  227.8860 C   0  0  0  0  0  0  0  0  0  0  0  0
  140.4460   70.3150  227.1220 C   0  0  0  0  0  0  0  0  0  0  0  0
  140.1060   70.2970  225.7810 C   0  0  0  0  0  0  0  0  0  0  0  0
  140.4230   71.5180  224.9960 C   0  0  0  0  0  0  0  0  0  0  0  0
  140.4480   73.4200  222.3720 N   0  0  0  0  0  0  0  0  0  0  0  0
  140.2320   76.2740  222.2010 C   0  0  0  0  0  0  0  0  0  0  0  0
  141.5007   81.4921  222.0440 H   0  0  0  0  0  0  0  0  0  0  0  0
  139.9883   80.5780  223.7812 H   0  0  0  0  0  0  0  0  0  0  0  0
  139.4151   78.1695  223.8425 H   0  0  0  0  0  0  0  0  0  0  0  0
  142.4595   79.9426  220.3180 H   0  0  0  0  0  0  0  0  0  0  0  0
  142.0739   77.8947  219.1634 H   0  0  0  0  0  0  0  0  0  0  0  0
  143.0488   77.0565  220.4431 H   0  0  0  0  0  0  0  0  0  0  0  0
  140.3139   76.3301  219.3673 H   0  0  0  0  0  0  0  0  0  0  0  0
  141.8530   75.3659  219.3618 H   0  0  0  0  0  0  0  0  0  0  0  0
  143.8530   70.6410  220.5660 H   0  0  0  0  0  0  0  0  0  0  0  0
  143.6668   71.0038  218.1160 H   0  0  0  0  0  0  0  0  0  0  0  0
  142.7023   72.4670  218.3972 H   0  0  0  0  0  0  0  0  0  0  0  0
  145.3219   72.6973  217.8117 H   0  0  0  0  0  0  0  0  0  0  0  0
  144.7733   74.8114  218.4648 H   0  0  0  0  0  0  0  0  0  0  0  0
  143.3729   74.1675  219.3572 H   0  0  0  0  0  0  0  0  0  0  0  0
  145.8475   75.2169  220.4055 H   0  0  0  0  0  0  0  0  0  0  0  0
  144.4656   74.6077  221.3230 H   0  0  0  0  0  0  0  0  0  0  0  0
  147.0147   73.3555  220.8766 H   0  0  0  0  0  0  0  0  0  0  0  0
  145.6074   72.6964  221.7763 H   0  0  0  0  0  0  0  0  0  0  0  0
  145.4630   71.2160  220.0920 H   0  0  0  0  0  0  0  0  0  0  0  0
  137.9538   70.9644  223.9471 H   0  0  0  0  0  0  0  0  0  0  0  0
  138.5499   70.6444  222.2930 H   0  0  0  0  0  0  0  0  0  0  0  0
  138.2494   68.5206  223.6132 H   0  0  0  0  0  0  0  0  0  0  0  0
  139.9460   68.7514  223.1489 H   0  0  0  0  0  0  0  0  0  0  0  0
  138.7494   67.1968  225.5539 H   0  0  0  0  0  0  0  0  0  0  0  0
  139.3592   67.2224  227.9725 H   0  0  0  0  0  0  0  0  0  0  0  0
  140.4400   69.2204  228.9533 H   0  0  0  0  0  0  0  0  0  0  0  0
  140.9272   71.1993  227.5653 H   0  0  0  0  0  0  0  0  0  0  0  0
  139.9345   72.3834  225.4677 H   0  0  0  0  0  0  0  0  0  0  0  0
  141.5155   71.6458  224.9815 H   0  0  0  0  0  0  0  0  0  0  0  0
  139.1410   76.1914  222.0874 H   0  0  0  0  0  0  0  0  0  0  0  0
  140.5671   75.8983  223.1790 H   0  0  0  0  0  0  0  0  0  0  0  0
  1  2  2  0
  2  3  1  0
  3  4  2  0
  4  5  1  0
  5  6  2  0
  5  7  1  0
  7  8  1  0
  8  9  1  0
  9 10  1  0
 10 11  2  0
 11 12  1  0
 12 13  1  0
 13 14  1  0
 14 15  1  0
 15 16  1  0
 16 17  1  0
 17 18  1  0
 18 19  1  0
 12 20  2  0
 20 21  1  0
 21 22  1  0
 22 23  1  0
 23 24  1  0
 24 25  1  0
 25 26  2  0
 26 27  1  0
 27 28  2  0
 28 29  1  0
 29 30  2  0
 30 31  1  0
 21 32  2  0
  9 33  1  0
  6  1  1  0
 32 10  1  0
 33  4  1  0
 19 15  1  0
 31 22  1  0
 30 25  1  0
  1 34  1  0
  2 35  1  0
  3 36  1  0
  6 37  1  0
  7 38  1  0
  7 39  1  0
  8 40  1  0
  8 41  1  0
 13 42  1  0
 14 43  1  0
 14 44  1  0
 15 45  1  6
 16 46  1  0
 16 47  1  0
 17 48  1  0
 17 49  1  0
 18 50  1  0
 18 51  1  0
 19 52  1  0
 23 53  1  0
 23 54  1  0
 24 55  1  0
 24 56  1  0
 26 57  1  0
 27 58  1  0
 28 59  1  0
 29 60  1  0
 31 61  1  0
 31 62  1  0
 33 63  1  0
 33 64  1  0
M  END
>  <smiles>  (74) 
c1ccc2c(c1)CCN(c1nc(NCC3CCCN3)nc(N3CCc4ccccc4C3)n1)C2

>  <score_type>  (74) 
oracle

>  <origin>  (74) 
autodockgpu

>  <m_score__min__energy>  (74) 
-10.77

>  <m_primary>  (74) 
energy

>  <rmsd>  (74) 
4.511224203700083

>  <m_score__min__rmsd>  (74) 
4.511224203700083

>  <meeko>  (74) 
{"free_energy": -10.03, "intermolecular_energy": -11.52, "internal_energy": -1.64, "cluster_size": 47, "cluster_id": 1, "rank_in_cluster": 21}

>  <energy>  (74) 
-9.87

>  <cluster_rmsd>  (74) 
0.91

>  <cluster>  (74) 
1

$$$$

     RDKit          3D

 64 69  0  0  0  0  0  0  0  0999 V2000
  141.1800   80.3390  221.8640 C   0  0  0  0  0  0  0  0  0  0  0  0
  140.4540   79.8910  222.9520 C   0  0  0  0  0  0  0  0  0  0  0  0
  140.1400   78.5480  223.1160 C   0  0  0  0  0  0  0  0  0  0  0  0
  140.5560   77.6290  222.1760 C   0  0  0  0  0  0  0  0  0  0  0  0
  141.2780   78.0850  221.0970 C   0  0  0  0  0  0  0  0  0  0  0  0
  141.6030   79.4190  220.9140 C   0  0  0  0  0  0  0  0  0  0  0  0
  141.7510   77.1370  220.0550 C   0  0  0  0  0  0  0  0  0  0  0  0
  140.9310   75.8690  220.0370 C   0  0  0  0  0  0  0  0  0  0  0  0
  140.7130   75.3410  221.3680 N   0  0  0  0  0  0  0  0  0  0  0  0
  141.0010   73.9810  221.6730 C   0  0  0  0  0  0  0  0  0  0  0  0
  141.9180   73.3000  220.9640 N   0  0  0  0  0  0  0  0  0  0  0  0
  142.2240   72.0110  221.2160 C   0  0  0  0  0  0  0  0  0  0  0  0
  143.1990   71.3070  220.4540 N   0  0  0  0  0  0  0  0  0  0  0  0
  143.1050   71.3470  219.0120 C   0  0  0  0  0  0  0  0  0  0  0  0
  144.2250   72.2750  218.5280 C   0  0  1  0  0  0  0  0  0  0  0  0
  143.6590   73.6570  218.4890 C   0  0  0  0  0  0  0  0  0  0  0  0
  144.4350   74.4850  219.4600 C   0  0  0  0  0  0  0  0  0  0  0  0
  145.4420   73.5560  220.0580 C   0  0  0  0  0  0  0  0  0  0  0  0
  145.2920   72.2580  219.4790 N   0  0  0  0  0  0  0  0  0  0  0  0
  141.5610   71.4220  222.2240 N   0  0  0  0  0  0  0  0  0  0  0  0
  140.6260   72.0490  222.9780 C   0  0  0  0  0  0  0  0  0  0  0  0
  139.9460   71.3890  224.0380 N   0  0  0  0  0  0  0  0  0  0  0  0
  138.7830   70.5800  223.8510 C   0  0  0  0  0  0  0  0  0  0  0  0
  139.1150   69.1600  224.2880 C   0  0  0  0  0  0  0  0  0  0  0  0
  139.5500   69.2490  225.7100 C   0  0  0  0  0  0  0  0  0  0  0  0
  139.3080   68.1590  226.5510 C   0  0  0  0  0  0  0  0  0  0  0  0
  139.7050   68.2210  227.8810 C   0  0  0  0  0  0  0  0  0  0  0  0
  140.3360   69.3530  228.3600 C   0  0  0  0  0  0  0  0  0  0  0  0
  140.5780   70.4230  227.5460 C   0  0  0  0  0  0  0  0  0  0  0  0
  140.1810   70.3600  226.2230 C   0  0  0  0  0  0  0  0  0  0  0  0
  140.4690   71.5500  225.3820 C   0  0  0  0  0  0  0  0  0  0  0  0
  140.3640   73.3480  222.6720 N   0  0  0  0  0  0  0  0  0  0  0  0
  140.1940   76.2160  222.3980 C   0  0  0  0  0  0  0  0  0  0  0  0
  141.4186   81.4070  221.7528 H   0  0  0  0  0  0  0  0  0  0  0  0
  140.1165   80.6165  223.7068 H   0  0  0  0  0  0  0  0  0  0  0  0
  139.5619   78.2189  223.9921 H   0  0  0  0  0  0  0  0  0  0  0  0
  142.1826   79.7419  220.0366 H   0  0  0  0  0  0  0  0  0  0  0  0
  141.6766   77.6232  219.0711 H   0  0  0  0  0  0  0  0  0  0  0  0
  142.7924   76.8676  220.2850 H   0  0  0  0  0  0  0  0  0  0  0  0
  139.9553   76.0843  219.5768 H   0  0  0  0  0  0  0  0  0  0  0  0
  141.4870   75.1148  219.4608 H   0  0  0  0  0  0  0  0  0  0  0  0
  143.9650   70.7730  220.9460 H   0  0  0  0  0  0  0  0  0  0  0  0
  143.2402   70.3384  218.5943 H   0  0  0  0  0  0  0  0  0  0  0  0
  142.1190   71.7111  218.6877 H   0  0  0  0  0  0  0  0  0  0  0  0
  144.5993   71.9577  217.5435 H   0  0  0  0  0  0  0  0  0  0  0  0
  143.7568   74.0749  217.4762 H   0  0  0  0  0  0  0  0  0  0  0  0
  142.5913   73.6470  218.7534 H   0  0  0  0  0  0  0  0  0  0  0  0
  144.9373   75.3155  218.9424 H   0  0  0  0  0  0  0  0  0  0  0  0
  143.7854   74.9326  220.2266 H   0  0  0  0  0  0  0  0  0  0  0  0
  146.4553   73.9334  219.8557 H   0  0  0  0  0  0  0  0  0  0  0  0
  145.2853   73.4941  221.1450 H   0  0  0  0  0  0  0  0  0  0  0  0
  145.2310   71.4800  220.1490 H   0  0  0  0  0  0  0  0  0  0  0  0
  137.9548   70.9726  224.4592 H   0  0  0  0  0  0  0  0  0  0  0  0
  138.4792   70.5906  222.7938 H   0  0  0  0  0  0  0  0  0  0  0  0
  138.2263   68.5176  224.2014 H   0  0  0  0  0  0  0  0  0  0  0  0
  139.9021   68.7220  223.6566 H   0  0  0  0  0  0  0  0  0  0  0  0
  138.8074   67.2596  226.1630 H   0  0  0  0  0  0  0  0  0  0  0  0
  139.5172   67.3698  228.5519 H   0  0  0  0  0  0  0  0  0  0  0  0
  140.6485   69.3933  229.4139 H   0  0  0  0  0  0  0  0  0  0  0  0
  141.0805   71.3201  227.9367 H   0  0  0  0  0  0  0  0  0  0  0  0
  140.0049   72.4345  225.8428 H   0  0  0  0  0  0  0  0  0  0  0  0
  141.5604   71.6708  225.3161 H   0  0  0  0  0  0  0  0  0  0  0  0
  139.0974   76.1312  222.4129 H   0  0  0  0  0  0  0  0  0  0  0  0
  140.6375   75.9044  223.3552 H   0  0  0  0  0  0  0  0  0  0  0  0
  1  2  2  0
  2  3  1  0
  3  4  2  0
  4  5  1  0
  5  6  2  0
  5  7  1  0
  7  8  1  0
  8  9  1  0
  9 10  1  0
 10 11  2  0
 11 12  1  0
 12 13  1  0
 13 14  1  0
 14 15  1  0
 15 16  1  0
 16 17  1  0
 17 18  1  0
 18 19  1  0
 12 20  2  0
 20 21  1  0
 21 22  1  0
 22 23  1  0
 23 24  1  0
 24 25  1  0
 25 26  2  0
 26 27  1  0
 27 28  2  0
 28 29  1  0
 29 30  2  0
 30 31  1  0
 21 32  2  0
  9 33  1  0
  6  1  1  0
 32 10  1  0
 33  4  1  0
 19 15  1  0
 31 22  1  0
 30 25  1  0
  1 34  1  0
  2 35  1  0
  3 36  1  0
  6 37  1  0
  7 38  1  0
  7 39  1  0
  8 40  1  0
  8 41  1  0
 13 42  1  0
 14 43  1  0
 14 44  1  0
 15 45  1  6
 16 46  1  0
 16 47  1  0
 17 48  1  0
 17 49  1  0
 18 50  1  0
 18 51  1  0
 19 52  1  0
 23 53  1  0
 23 54  1  0
 24 55  1  0
 24 56  1  0
 26 57  1  0
 27 58  1  0
 28 59  1  0
 29 60  1  0
 31 61  1  0
 31 62  1  0
 33 63  1  0
 33 64  1  0
M  END
>  <smiles>  (75) 
c1ccc2c(c1)CCN(c1nc(NCC3CCCN3)nc(N3CCc4ccccc4C3)n1)C2

>  <score_type>  (75) 
oracle

>  <origin>  (75) 
autodockgpu

>  <m_score__min__energy>  (75) 
-10.77

>  <m_primary>  (75) 
energy

>  <rmsd>  (75) 
4.4027124752035505

>  <m_score__min__rmsd>  (75) 
4.4027124752035505

>  <meeko>  (75) 
{"free_energy": -8.97, "intermolecular_energy": -10.47, "internal_energy": -1.75, "cluster_size": 47, "cluster_id": 1, "rank_in_cluster": 46}

>  <energy>  (75) 
-9.86

>  <cluster_rmsd>  (75) 
0.71

>  <cluster>  (75) 
1

$$$$

     RDKit          3D

 64 69  0  0  0  0  0  0  0  0999 V2000
  142.1280   80.7500  222.4930 C   0  0  0  0  0  0  0  0  0  0  0  0
  141.6070   80.1880  223.6440 C   0  0  0  0  0  0  0  0  0  0  0  0
  141.1510   78.8770  223.6740 C   0  0  0  0  0  0  0  0  0  0  0  0
  141.2140   78.1050  222.5320 C   0  0  0  0  0  0  0  0  0  0  0  0
  141.7340   78.6740  221.3920 C   0  0  0  0  0  0  0  0  0  0  0  0
  142.1950   79.9790  221.3400 C   0  0  0  0  0  0  0  0  0  0  0  0
  141.8240   77.8870  220.1340 C   0  0  0  0  0  0  0  0  0  0  0  0
  140.8520   76.7320  220.1240 C   0  0  0  0  0  0  0  0  0  0  0  0
  140.8640   75.9970  221.3720 N   0  0  0  0  0  0  0  0  0  0  0  0
  141.0180   74.5820  221.3870 C   0  0  0  0  0  0  0  0  0  0  0  0
  141.7410   73.9630  220.4390 N   0  0  0  0  0  0  0  0  0  0  0  0
  141.9150   72.6260  220.4120 C   0  0  0  0  0  0  0  0  0  0  0  0
  142.6850   71.9880  219.3980 N   0  0  0  0  0  0  0  0  0  0  0  0
  143.9660   71.4220  219.7610 C   0  0  0  0  0  0  0  0  0  0  0  0
  145.0290   72.4330  219.3190 C   0  0  1  0  0  0  0  0  0  0  0  0
  144.4270   73.7920  219.4670 C   0  0  0  0  0  0  0  0  0  0  0  0
  145.2400   74.5330  220.4770 C   0  0  0  0  0  0  0  0  0  0  0  0
  146.3050   73.5770  220.9080 C   0  0  0  0  0  0  0  0  0  0  0  0
  146.1530   72.3460  220.1980 N   0  0  0  0  0  0  0  0  0  0  0  0
  141.3250   71.9230  221.3910 N   0  0  0  0  0  0  0  0  0  0  0  0
  140.5830   72.4840  222.3780 C   0  0  0  0  0  0  0  0  0  0  0  0
  139.9740   71.7030  223.3990 N   0  0  0  0  0  0  0  0  0  0  0  0
  138.8070   70.9050  223.1940 C   0  0  0  0  0  0  0  0  0  0  0  0
  139.1740   69.4500  223.4520 C   0  0  0  0  0  0  0  0  0  0  0  0
  139.6950   69.3880  224.8460 C   0  0  0  0  0  0  0  0  0  0  0  0
  139.5110   68.2110  225.5760 C   0  0  0  0  0  0  0  0  0  0  0  0
  139.9890   68.1320  226.8790 C   0  0  0  0  0  0  0  0  0  0  0  0
  140.6400   69.2140  227.4400 C   0  0  0  0  0  0  0  0  0  0  0  0
  140.8260   70.3690  226.7350 C   0  0  0  0  0  0  0  0  0  0  0  0
  140.3490   70.4450  225.4390 C   0  0  0  0  0  0  0  0  0  0  0  0
  140.5770   71.7240  224.7180 C   0  0  0  0  0  0  0  0  0  0  0  0
  140.4470   73.8360  222.3470 N   0  0  0  0  0  0  0  0  0  0  0  0
  140.7160   76.7190  222.6180 C   0  0  0  0  0  0  0  0  0  0  0  0
  142.4836   81.7909  222.4908 H   0  0  0  0  0  0  0  0  0  0  0  0
  141.5524   80.7953  224.5595 H   0  0  0  0  0  0  0  0  0  0  0  0
  140.7414   78.4556  224.6039 H   0  0  0  0  0  0  0  0  0  0  0  0
  142.6045   80.3948  220.4076 H   0  0  0  0  0  0  0  0  0  0  0  0
  141.6001   78.5480  219.2838 H   0  0  0  0  0  0  0  0  0  0  0  0
  142.8422   77.4774  220.0593 H   0  0  0  0  0  0  0  0  0  0  0  0
  139.8383   77.1234  219.9529 H   0  0  0  0  0  0  0  0  0  0  0  0
  141.1549   76.0422  219.3225 H   0  0  0  0  0  0  0  0  0  0  0  0
  142.3150   71.9380  218.4110 H   0  0  0  0  0  0  0  0  0  0  0  0
  144.0183   71.2666  220.8487 H   0  0  0  0  0  0  0  0  0  0  0  0
  144.1206   70.4456  219.2786 H   0  0  0  0  0  0  0  0  0  0  0  0
  145.3494   72.2379  218.2849 H   0  0  0  0  0  0  0  0  0  0  0  0
  144.4517   74.3212  218.5030 H   0  0  0  0  0  0  0  0  0  0  0  0
  143.3782   73.7191  219.7905 H   0  0  0  0  0  0  0  0  0  0  0  0
  145.6882   75.4309  220.0265 H   0  0  0  0  0  0  0  0  0  0  0  0
  144.6277   74.8729  221.3253 H   0  0  0  0  0  0  0  0  0  0  0  0
  147.2939   74.0066  220.6903 H   0  0  0  0  0  0  0  0  0  0  0  0
  146.2169   73.3914  221.9886 H   0  0  0  0  0  0  0  0  0  0  0  0
  146.1530   71.4980  220.7800 H   0  0  0  0  0  0  0  0  0  0  0  0
  138.0148   71.2182  223.8899 H   0  0  0  0  0  0  0  0  0  0  0  0
  138.4393   71.0272  222.1645 H   0  0  0  0  0  0  0  0  0  0  0  0
  138.2855   68.8097  223.3492 H   0  0  0  0  0  0  0  0  0  0  0  0
  139.9237   69.0940  222.7301 H   0  0  0  0  0  0  0  0  0  0  0  0
  138.9919   67.3534  225.1232 H   0  0  0  0  0  0  0  0  0  0  0  0
  139.8492   67.2099  227.4623 H   0  0  0  0  0  0  0  0  0  0  0  0
  141.0148   69.1440  228.4718 H   0  0  0  0  0  0  0  0  0  0  0  0
  141.3465   71.2244  227.1904 H   0  0  0  0  0  0  0  0  0  0  0  0
  140.1358   72.5465  225.3001 H   0  0  0  0  0  0  0  0  0  0  0  0
  141.6614   71.8666  224.6006 H   0  0  0  0  0  0  0  0  0  0  0  0
  139.6496   76.7436  222.8866 H   0  0  0  0  0  0  0  0  0  0  0  0
  141.3136   76.1964  223.3794 H   0  0  0  0  0  0  0  0  0  0  0  0
  1  2  2  0
  2  3  1  0
  3  4  2  0
  4  5  1  0
  5  6  2  0
  5  7  1  0
  7  8  1  0
  8  9  1  0
  9 10  1  0
 10 11  2  0
 11 12  1  0
 12 13  1  0
 13 14  1  0
 14 15  1  0
 15 16  1  0
 16 17  1  0
 17 18  1  0
 18 19  1  0
 12 20  2  0
 20 21  1  0
 21 22  1  0
 22 23  1  0
 23 24  1  0
 24 25  1  0
 25 26  2  0
 26 27  1  0
 27 28  2  0
 28 29  1  0
 29 30  2  0
 30 31  1  0
 21 32  2  0
  9 33  1  0
  6  1  1  0
 32 10  1  0
 33  4  1  0
 19 15  1  0
 31 22  1  0
 30 25  1  0
  1 34  1  0
  2 35  1  0
  3 36  1  0
  6 37  1  0
  7 38  1  0
  7 39  1  0
  8 40  1  0
  8 41  1  0
 13 42  1  0
 14 43  1  0
 14 44  1  0
 15 45  1  6
 16 46  1  0
 16 47  1  0
 17 48  1  0
 17 49  1  0
 18 50  1  0
 18 51  1  0
 19 52  1  0
 23 53  1  0
 23 54  1  0
 24 55  1  0
 24 56  1  0
 26 57  1  0
 27 58  1  0
 28 59  1  0
 29 60  1  0
 31 61  1  0
 31 62  1  0
 33 63  1  0
 33 64  1  0
M  END
>  <smiles>  (76) 
c1ccc2c(c1)CCN(c1nc(NCC3CCCN3)nc(N3CCc4ccccc4C3)n1)C2

>  <score_type>  (76) 
oracle

>  <origin>  (76) 
autodockgpu

>  <m_score__min__energy>  (76) 
-10.77

>  <m_primary>  (76) 
energy

>  <rmsd>  (76) 
4.78623459073841

>  <m_score__min__rmsd>  (76) 
4.78623459073841

>  <meeko>  (76) 
{"free_energy": -10.76, "intermolecular_energy": -12.25, "internal_energy": -1.03, "cluster_size": 47, "cluster_id": 1, "rank_in_cluster": 2}

>  <energy>  (76) 
-9.8

>  <cluster_rmsd>  (76) 
0.94

>  <cluster>  (76) 
1

$$$$

     RDKit          3D

 64 69  0  0  0  0  0  0  0  0999 V2000
  138.1940   80.1550  223.4600 C   0  0  0  0  0  0  0  0  0  0  0  0
  137.1290   79.3020  223.2340 C   0  0  0  0  0  0  0  0  0  0  0  0
  137.3140   78.0220  222.7310 C   0  0  0  0  0  0  0  0  0  0  0  0
  138.5880   77.5780  222.4430 C   0  0  0  0  0  0  0  0  0  0  0  0
  139.6410   78.4340  222.6710 C   0  0  0  0  0  0  0  0  0  0  0  0
  139.4790   79.7160  223.1740 C   0  0  0  0  0  0  0  0  0  0  0  0
  141.0340   78.0070  222.3790 C   0  0  0  0  0  0  0  0  0  0  0  0
  141.0760   76.8800  221.3760 C   0  0  0  0  0  0  0  0  0  0  0  0
  140.1100   75.8430  221.6790 N   0  0  0  0  0  0  0  0  0  0  0  0
  140.5020   74.4760  221.7530 C   0  0  0  0  0  0  0  0  0  0  0  0
  141.4240   73.9830  220.9090 N   0  0  0  0  0  0  0  0  0  0  0  0
  141.8270   72.6960  220.9410 C   0  0  0  0  0  0  0  0  0  0  0  0
  142.8060   72.1920  220.0390 N   0  0  0  0  0  0  0  0  0  0  0  0
  144.1740   72.0890  220.4950 C   0  0  0  0  0  0  0  0  0  0  0  0
  144.8970   73.3430  219.9920 C   0  0  1  0  0  0  0  0  0  0  0  0
  144.8110   73.3260  218.5010 C   0  0  0  0  0  0  0  0  0  0  0  0
  144.0390   74.5350  218.0840 C   0  0  0  0  0  0  0  0  0  0  0  0
  143.6790   75.2330  219.3550 C   0  0  0  0  0  0  0  0  0  0  0  0
  144.2080   74.5030  220.4640 N   0  0  0  0  0  0  0  0  0  0  0  0
  141.2570   71.9100  221.8690 N   0  0  0  0  0  0  0  0  0  0  0  0
  140.3220   72.3440  222.7490 C   0  0  0  0  0  0  0  0  0  0  0  0
  139.7430   71.4790  223.7180 N   0  0  0  0  0  0  0  0  0  0  0  0
  138.6510   70.5990  223.4420 C   0  0  0  0  0  0  0  0  0  0  0  0
  139.1240   69.1690  223.6620 C   0  0  0  0  0  0  0  0  0  0  0  0
  139.6000   69.0960  225.0720 C   0  0  0  0  0  0  0  0  0  0  0  0
  139.4850   67.8800  225.7530 C   0  0  0  0  0  0  0  0  0  0  0  0
  139.9230   67.7900  227.0680 C   0  0  0  0  0  0  0  0  0  0  0  0
  140.4660   68.8980  227.6920 C   0  0  0  0  0  0  0  0  0  0  0  0
  140.5820   70.0900  227.0350 C   0  0  0  0  0  0  0  0  0  0  0  0
  140.1460   70.1780  225.7260 C   0  0  0  0  0  0  0  0  0  0  0  0
  140.2960   71.4970  225.0590 C   0  0  0  0  0  0  0  0  0  0  0  0
  139.9600   73.6520  222.6640 N   0  0  0  0  0  0  0  0  0  0  0  0
  138.7300   76.2100  221.9100 C   0  0  0  0  0  0  0  0  0  0  0  0
  138.0251   81.1656  223.8602 H   0  0  0  0  0  0  0  0  0  0  0  0
  136.1090   79.6471  223.4588 H   0  0  0  0  0  0  0  0  0  0  0  0
  136.4486   77.3642  222.5627 H   0  0  0  0  0  0  0  0  0  0  0  0
  140.3480   80.3692  223.3422 H   0  0  0  0  0  0  0  0  0  0  0  0
  141.5919   78.8645  221.9747 H   0  0  0  0  0  0  0  0  0  0  0  0
  141.4852   77.6481  223.3158 H   0  0  0  0  0  0  0  0  0  0  0  0
  140.8586   77.2861  220.3771 H   0  0  0  0  0  0  0  0  0  0  0  0
  142.0789   76.4298  221.4148 H   0  0  0  0  0  0  0  0  0  0  0  0
  142.5230   71.9040  219.0630 H   0  0  0  0  0  0  0  0  0  0  0  0
  144.2060   72.0471  221.5937 H   0  0  0  0  0  0  0  0  0  0  0  0
  144.6522   71.1747  220.1136 H   0  0  0  0  0  0  0  0  0  0  0  0
  145.9396   73.3617  220.3423 H   0  0  0  0  0  0  0  0  0  0  0  0
  145.8208   73.3562  218.0658 H   0  0  0  0  0  0  0  0  0  0  0  0
  144.3148   72.4087  218.1511 H   0  0  0  0  0  0  0  0  0  0  0  0
  144.6573   75.1864  217.4489 H   0  0  0  0  0  0  0  0  0  0  0  0
  143.1479   74.2691  217.4965 H   0  0  0  0  0  0  0  0  0  0  0  0
  144.1021   76.2483  219.3486 H   0  0  0  0  0  0  0  0  0  0  0  0
  142.5842   75.2934  219.4436 H   0  0  0  0  0  0  0  0  0  0  0  0
  143.5400   74.3030  221.2200 H   0  0  0  0  0  0  0  0  0  0  0  0
  137.8130   70.8221  224.1187 H   0  0  0  0  0  0  0  0  0  0  0  0
  138.3103   70.7307  222.4044 H   0  0  0  0  0  0  0  0  0  0  0  0
  138.2937   68.4650  223.5038 H   0  0  0  0  0  0  0  0  0  0  0  0
  139.9240   68.9004  222.9564 H   0  0  0  0  0  0  0  0  0  0  0  0
  139.0513   67.0023  225.2515 H   0  0  0  0  0  0  0  0  0  0  0  0
  139.8380   66.8380  227.6126 H   0  0  0  0  0  0  0  0  0  0  0  0
  140.8100   68.8183  228.7338 H   0  0  0  0  0  0  0  0  0  0  0  0
  141.0155   70.9661  227.5395 H   0  0  0  0  0  0  0  0  0  0  0  0
  139.7706   72.2597  225.6524 H   0  0  0  0  0  0  0  0  0  0  0  0
  141.3690   71.7282  224.9874 H   0  0  0  0  0  0  0  0  0  0  0  0
  138.1840   76.1447  220.9573 H   0  0  0  0  0  0  0  0  0  0  0  0
  138.3221   75.5164  222.6600 H   0  0  0  0  0  0  0  0  0  0  0  0
  1  2  2  0
  2  3  1  0
  3  4  2  0
  4  5  1  0
  5  6  2  0
  5  7  1  0
  7  8  1  0
  8  9  1  0
  9 10  1  0
 10 11  2  0
 11 12  1  0
 12 13  1  0
 13 14  1  0
 14 15  1  0
 15 16  1  0
 16 17  1  0
 17 18  1  0
 18 19  1  0
 12 20  2  0
 20 21  1  0
 21 22  1  0
 22 23  1  0
 23 24  1  0
 24 25  1  0
 25 26  2  0
 26 27  1  0
 27 28  2  0
 28 29  1  0
 29 30  2  0
 30 31  1  0
 21 32  2  0
  9 33  1  0
  6  1  1  0
 32 10  1  0
 33  4  1  0
 19 15  1  0
 31 22  1  0
 30 25  1  0
  1 34  1  0
  2 35  1  0
  3 36  1  0
  6 37  1  0
  7 38  1  0
  7 39  1  0
  8 40  1  0
  8 41  1  0
 13 42  1  0
 14 43  1  0
 14 44  1  0
 15 45  1  6
 16 46  1  0
 16 47  1  0
 17 48  1  0
 17 49  1  0
 18 50  1  0
 18 51  1  0
 19 52  1  0
 23 53  1  0
 23 54  1  0
 24 55  1  0
 24 56  1  0
 26 57  1  0
 27 58  1  0
 28 59  1  0
 29 60  1  0
 31 61  1  0
 31 62  1  0
 33 63  1  0
 33 64  1  0
M  END
>  <smiles>  (77) 
c1ccc2c(c1)CCN(c1nc(NCC3CCCN3)nc(N3CCc4ccccc4C3)n1)C2

>  <score_type>  (77) 
oracle

>  <origin>  (77) 
autodockgpu

>  <m_score__min__energy>  (77) 
-10.77

>  <m_primary>  (77) 
energy

>  <rmsd>  (77) 
5.573281885882694

>  <m_score__min__rmsd>  (77) 
5.573281885882694

>  <meeko>  (77) 
{"free_energy": -9.02, "intermolecular_energy": -10.51, "internal_energy": -1.9, "cluster_size": 47, "cluster_id": 1, "rank_in_cluster": 45}

>  <energy>  (77) 
-9.74

>  <cluster_rmsd>  (77) 
0.95

>  <cluster>  (77) 
1

$$$$

     RDKit          3D

 64 69  0  0  0  0  0  0  0  0999 V2000
  141.4370   80.4240  221.9990 C   0  0  0  0  0  0  0  0  0  0  0  0
  140.7310   79.9430  223.0850 C   0  0  0  0  0  0  0  0  0  0  0  0
  140.3760   78.6050  223.1910 C   0  0  0  0  0  0  0  0  0  0  0  0
  140.7330   77.7230  222.1920 C   0  0  0  0  0  0  0  0  0  0  0  0
  141.4370   78.2110  221.1150 C   0  0  0  0  0  0  0  0  0  0  0  0
  141.8010   79.5430  220.9900 C   0  0  0  0  0  0  0  0  0  0  0  0
  141.8460   77.3050  220.0110 C   0  0  0  0  0  0  0  0  0  0  0  0
  140.9850   76.0660  219.9540 C   0  0  0  0  0  0  0  0  0  0  0  0
  140.7900   75.4770  221.2640 N   0  0  0  0  0  0  0  0  0  0  0  0
  141.0410   74.0940  221.4890 C   0  0  0  0  0  0  0  0  0  0  0  0
  141.8880   73.4150  220.6970 N   0  0  0  0  0  0  0  0  0  0  0  0
  142.1580   72.1050  220.8720 C   0  0  0  0  0  0  0  0  0  0  0  0
  143.0590   71.4030  220.0230 N   0  0  0  0  0  0  0  0  0  0  0  0
  143.3880   71.9820  218.7390 C   0  0  0  0  0  0  0  0  0  0  0  0
  144.7390   72.6850  218.9120 C   0  0  1  0  0  0  0  0  0  0  0  0
  144.4490   74.1190  219.2120 C   0  0  0  0  0  0  0  0  0  0  0  0
  144.9890   74.4080  220.5740 C   0  0  0  0  0  0  0  0  0  0  0  0
  145.5800   73.1200  221.0480 C   0  0  0  0  0  0  0  0  0  0  0  0
  145.4190   72.1240  220.0370 N   0  0  0  0  0  0  0  0  0  0  0  0
  141.5320   71.4930  221.8900 N   0  0  0  0  0  0  0  0  0  0  0  0
  140.6670   72.1180  222.7250 C   0  0  0  0  0  0  0  0  0  0  0  0
  140.0240   71.4330  223.7940 N   0  0  0  0  0  0  0  0  0  0  0  0
  138.8470   70.6400  223.6310 C   0  0  0  0  0  0  0  0  0  0  0  0
  139.1840   69.2050  224.0140 C   0  0  0  0  0  0  0  0  0  0  0  0
  139.6760   69.2500  225.4190 C   0  0  0  0  0  0  0  0  0  0  0  0
  139.4570   68.1390  226.2390 C   0  0  0  0  0  0  0  0  0  0  0  0
  139.9080   68.1590  227.5530 C   0  0  0  0  0  0  0  0  0  0  0  0
  140.5680   69.2730  228.0380 C   0  0  0  0  0  0  0  0  0  0  0  0
  140.7880   70.3630  227.2450 C   0  0  0  0  0  0  0  0  0  0  0  0
  140.3370   70.3410  225.9380 C   0  0  0  0  0  0  0  0  0  0  0  0
  140.6020   71.5520  225.1190 C   0  0  0  0  0  0  0  0  0  0  0  0
  140.4390   73.4390  222.4950 N   0  0  0  0  0  0  0  0  0  0  0  0
  140.3320   76.3120  222.3530 C   0  0  0  0  0  0  0  0  0  0  0  0
  141.7064   81.4886  221.9350 H   0  0  0  0  0  0  0  0  0  0  0  0
  140.4426   80.6386  223.8868 H   0  0  0  0  0  0  0  0  0  0  0  0
  139.8131   78.2500  224.0668 H   0  0  0  0  0  0  0  0  0  0  0  0
  142.3645   79.8931  220.1126 H   0  0  0  0  0  0  0  0  0  0  0  0
  141.7573   77.8444  219.0564 H   0  0  0  0  0  0  0  0  0  0  0  0
  142.8845   76.9915  220.1931 H   0  0  0  0  0  0  0  0  0  0  0  0
  140.0036   76.3350  219.5363 H   0  0  0  0  0  0  0  0  0  0  0  0
  141.4980   75.3256  219.3226 H   0  0  0  0  0  0  0  0  0  0  0  0
  143.4690   70.4820  220.3370 H   0  0  0  0  0  0  0  0  0  0  0  0
  143.4646   71.1941  217.9752 H   0  0  0  0  0  0  0  0  0  0  0  0
  142.6113   72.6882  218.4103 H   0  0  0  0  0  0  0  0  0  0  0  0
  145.3576   72.5726  218.0094 H   0  0  0  0  0  0  0  0  0  0  0  0
  144.9385   74.7652  218.4685 H   0  0  0  0  0  0  0  0  0  0  0  0
  143.3669   74.3128  219.1739 H   0  0  0  0  0  0  0  0  0  0  0  0
  145.7608   75.1902  220.5240 H   0  0  0  0  0  0  0  0  0  0  0  0
  144.2067   74.7743  221.2550 H   0  0  0  0  0  0  0  0  0  0  0  0
  146.6508   73.2621  221.2561 H   0  0  0  0  0  0  0  0  0  0  0  0
  145.0686   72.7971  221.9668 H   0  0  0  0  0  0  0  0  0  0  0  0
  145.0170   71.2320  220.3550 H   0  0  0  0  0  0  0  0  0  0  0  0
  138.0475   71.0216  224.2831 H   0  0  0  0  0  0  0  0  0  0  0  0
  138.5005   70.6838  222.5879 H   0  0  0  0  0  0  0  0  0  0  0  0
  138.2870   68.5720  223.9450 H   0  0  0  0  0  0  0  0  0  0  0  0
  139.9414   68.7793  223.3394 H   0  0  0  0  0  0  0  0  0  0  0  0
  138.9316   67.2557  225.8468 H   0  0  0  0  0  0  0  0  0  0  0  0
  139.7403   67.2901  228.2063 H   0  0  0  0  0  0  0  0  0  0  0  0
  140.9216   69.2815  229.0796 H   0  0  0  0  0  0  0  0  0  0  0  0
  141.3153   71.2440  227.6396 H   0  0  0  0  0  0  0  0  0  0  0  0
  140.1651   72.4270  225.6225 H   0  0  0  0  0  0  0  0  0  0  0  0
  141.6909   71.6657  225.0122 H   0  0  0  0  0  0  0  0  0  0  0  0
  139.2342   76.2606  222.3991 H   0  0  0  0  0  0  0  0  0  0  0  0
  140.7942   75.9372  223.2781 H   0  0  0  0  0  0  0  0  0  0  0  0
  1  2  2  0
  2  3  1  0
  3  4  2  0
  4  5  1  0
  5  6  2  0
  5  7  1  0
  7  8  1  0
  8  9  1  0
  9 10  1  0
 10 11  2  0
 11 12  1  0
 12 13  1  0
 13 14  1  0
 14 15  1  0
 15 16  1  0
 16 17  1  0
 17 18  1  0
 18 19  1  0
 12 20  2  0
 20 21  1  0
 21 22  1  0
 22 23  1  0
 23 24  1  0
 24 25  1  0
 25 26  2  0
 26 27  1  0
 27 28  2  0
 28 29  1  0
 29 30  2  0
 30 31  1  0
 21 32  2  0
  9 33  1  0
  6  1  1  0
 32 10  1  0
 33  4  1  0
 19 15  1  0
 31 22  1  0
 30 25  1  0
  1 34  1  0
  2 35  1  0
  3 36  1  0
  6 37  1  0
  7 38  1  0
  7 39  1  0
  8 40  1  0
  8 41  1  0
 13 42  1  0
 14 43  1  0
 14 44  1  0
 15 45  1  6
 16 46  1  0
 16 47  1  0
 17 48  1  0
 17 49  1  0
 18 50  1  0
 18 51  1  0
 19 52  1  0
 23 53  1  0
 23 54  1  0
 24 55  1  0
 24 56  1  0
 26 57  1  0
 27 58  1  0
 28 59  1  0
 29 60  1  0
 31 61  1  0
 31 62  1  0
 33 63  1  0
 33 64  1  0
M  END
>  <smiles>  (78) 
c1ccc2c(c1)CCN(c1nc(NCC3CCCN3)nc(N3CCc4ccccc4C3)n1)C2

>  <score_type>  (78) 
oracle

>  <origin>  (78) 
autodockgpu

>  <m_score__min__energy>  (78) 
-10.77

>  <m_primary>  (78) 
energy

>  <rmsd>  (78) 
4.474828299262086

>  <m_score__min__rmsd>  (78) 
4.474828299262086

>  <meeko>  (78) 
{"free_energy": -9.86, "intermolecular_energy": -11.35, "internal_energy": -1.71, "cluster_size": 47, "cluster_id": 1, "rank_in_cluster": 25}

>  <energy>  (78) 
-9.68

>  <cluster_rmsd>  (78) 
0.94

>  <cluster>  (78) 
1

$$$$

     RDKit          3D

 64 69  0  0  0  0  0  0  0  0999 V2000
  141.6460   80.4000  222.7750 C   0  0  0  0  0  0  0  0  0  0  0  0
  140.6760   79.9000  223.6240 C   0  0  0  0  0  0  0  0  0  0  0  0
  140.1660   78.6180  223.4740 C   0  0  0  0  0  0  0  0  0  0  0  0
  140.6310   77.8110  222.4570 C   0  0  0  0  0  0  0  0  0  0  0  0
  141.5980   78.3180  221.6170 C   0  0  0  0  0  0  0  0  0  0  0  0
  142.1200   79.5940  221.7490 C   0  0  0  0  0  0  0  0  0  0  0  0
  142.1340   77.4920  220.5050 C   0  0  0  0  0  0  0  0  0  0  0  0
  141.1770   76.3930  220.1100 C   0  0  0  0  0  0  0  0  0  0  0  0
  140.6450   75.6940  221.2620 N   0  0  0  0  0  0  0  0  0  0  0  0
  140.6930   74.2740  221.3440 C   0  0  0  0  0  0  0  0  0  0  0  0
  141.1980   73.5470  220.3330 N   0  0  0  0  0  0  0  0  0  0  0  0
  141.2640   72.2000  220.3640 C   0  0  0  0  0  0  0  0  0  0  0  0
  141.8040   71.4480  219.2830 N   0  0  0  0  0  0  0  0  0  0  0  0
  143.0720   71.8620  218.7230 C   0  0  0  0  0  0  0  0  0  0  0  0
  144.1320   71.5860  219.7930 C   0  0  1  0  0  0  0  0  0  0  0  0
  145.4630   71.8390  219.1630 C   0  0  0  0  0  0  0  0  0  0  0  0
  146.1030   72.9640  219.9090 C   0  0  0  0  0  0  0  0  0  0  0  0
  145.1180   73.3530  220.9630 C   0  0  0  0  0  0  0  0  0  0  0  0
  143.9660   72.5130  220.8680 N   0  0  0  0  0  0  0  0  0  0  0  0
  140.7950   71.6010  221.4700 N   0  0  0  0  0  0  0  0  0  0  0  0
  140.2720   72.2730  222.5250 C   0  0  0  0  0  0  0  0  0  0  0  0
  139.7850   71.6010  223.6800 N   0  0  0  0  0  0  0  0  0  0  0  0
  138.7020   70.6690  223.6550 C   0  0  0  0  0  0  0  0  0  0  0  0
  139.2300   69.3140  224.1070 C   0  0  0  0  0  0  0  0  0  0  0  0
  139.8020   69.5170  225.4660 C   0  0  0  0  0  0  0  0  0  0  0  0
  139.7690   68.4520  226.3710 C   0  0  0  0  0  0  0  0  0  0  0  0
  140.2990   68.6210  227.6440 C   0  0  0  0  0  0  0  0  0  0  0  0
  140.8510   69.8350  228.0060 C   0  0  0  0  0  0  0  0  0  0  0  0
  140.8890   70.8820  227.1290 C   0  0  0  0  0  0  0  0  0  0  0  0
  140.3620   70.7120  225.8630 C   0  0  0  0  0  0  0  0  0  0  0  0
  140.4280   71.8820  224.9490 C   0  0  0  0  0  0  0  0  0  0  0  0
  140.2340   73.6290  222.4300 N   0  0  0  0  0  0  0  0  0  0  0  0
  140.0560   76.4580  222.3420 C   0  0  0  0  0  0  0  0  0  0  0  0
  142.0357   81.4197  222.9103 H   0  0  0  0  0  0  0  0  0  0  0  0
  140.2988   80.5347  224.4394 H   0  0  0  0  0  0  0  0  0  0  0  0
  139.3937   78.2469  224.1638 H   0  0  0  0  0  0  0  0  0  0  0  0
  142.8924   79.9603  221.0568 H   0  0  0  0  0  0  0  0  0  0  0  0
  142.3112   78.1398  219.6338 H   0  0  0  0  0  0  0  0  0  0  0  0
  143.0690   77.0241  220.8470 H   0  0  0  0  0  0  0  0  0  0  0  0
  140.3421   76.8351  219.5466 H   0  0  0  0  0  0  0  0  0  0  0  0
  141.7304   75.6655  219.4980 H   0  0  0  0  0  0  0  0  0  0  0  0
  141.2790   70.6110  218.9110 H   0  0  0  0  0  0  0  0  0  0  0  0
  143.2918   71.2847  217.8128 H   0  0  0  0  0  0  0  0  0  0  0  0
  143.0553   72.9263  218.4455 H   0  0  0  0  0  0  0  0  0  0  0  0
  144.0471   70.5571  220.1726 H   0  0  0  0  0  0  0  0  0  0  0  0
  146.0893   70.9374  219.2322 H   0  0  0  0  0  0  0  0  0  0  0  0
  145.3473   72.0941  218.0992 H   0  0  0  0  0  0  0  0  0  0  0  0
  147.0469   72.6340  220.3674 H   0  0  0  0  0  0  0  0  0  0  0  0
  146.3472   73.8074  219.2464 H   0  0  0  0  0  0  0  0  0  0  0  0
  145.5770   73.2357  221.9557 H   0  0  0  0  0  0  0  0  0  0  0  0
  144.8209   74.4023  220.8195 H   0  0  0  0  0  0  0  0  0  0  0  0
  143.0620   73.0040  220.8500 H   0  0  0  0  0  0  0  0  0  0  0  0
  137.9061   71.0046  224.3361 H   0  0  0  0  0  0  0  0  0  0  0  0
  138.2872   70.5955  222.6388 H   0  0  0  0  0  0  0  0  0  0  0  0
  138.4114   68.5802  224.1447 H   0  0  0  0  0  0  0  0  0  0  0  0
  139.9880   68.9288  223.4091 H   0  0  0  0  0  0  0  0  0  0  0  0
  139.3271   67.4883  226.0776 H   0  0  0  0  0  0  0  0  0  0  0  0
  140.2793   67.7890  228.3633 H   0  0  0  0  0  0  0  0  0  0  0  0
  141.2666   69.9605  229.0167 H   0  0  0  0  0  0  0  0  0  0  0  0
  141.3318   71.8442  227.4258 H   0  0  0  0  0  0  0  0  0  0  0  0
  139.9232   72.7360  225.4243 H   0  0  0  0  0  0  0  0  0  0  0  0
  141.4866   72.1109  224.7567 H   0  0  0  0  0  0  0  0  0  0  0  0
  138.9748   76.5486  222.1610 H   0  0  0  0  0  0  0  0  0  0  0  0
  140.2661   75.9251  223.2811 H   0  0  0  0  0  0  0  0  0  0  0  0
  1  2  2  0
  2  3  1  0
  3  4  2  0
  4  5  1  0
  5  6  2  0
  5  7  1  0
  7  8  1  0
  8  9  1  0
  9 10  1  0
 10 11  2  0
 11 12  1  0
 12 13  1  0
 13 14  1  0
 14 15  1  0
 15 16  1  0
 16 17  1  0
 17 18  1  0
 18 19  1  0
 12 20  2  0
 20 21  1  0
 21 22  1  0
 22 23  1  0
 23 24  1  0
 24 25  1  0
 25 26  2  0
 26 27  1  0
 27 28  2  0
 28 29  1  0
 29 30  2  0
 30 31  1  0
 21 32  2  0
  9 33  1  0
  6  1  1  0
 32 10  1  0
 33  4  1  0
 19 15  1  0
 31 22  1  0
 30 25  1  0
  1 34  1  0
  2 35  1  0
  3 36  1  0
  6 37  1  0
  7 38  1  0
  7 39  1  0
  8 40  1  0
  8 41  1  0
 13 42  1  0
 14 43  1  0
 14 44  1  0
 15 45  1  1
 16 46  1  0
 16 47  1  0
 17 48  1  0
 17 49  1  0
 18 50  1  0
 18 51  1  0
 19 52  1  0
 23 53  1  0
 23 54  1  0
 24 55  1  0
 24 56  1  0
 26 57  1  0
 27 58  1  0
 28 59  1  0
 29 60  1  0
 31 61  1  0
 31 62  1  0
 33 63  1  0
 33 64  1  0
M  END
>  <smiles>  (79) 
c1ccc2c(c1)CCN(c1nc(NCC3CCCN3)nc(N3CCc4ccccc4C3)n1)C2

>  <score_type>  (79) 
oracle

>  <origin>  (79) 
autodockgpu

>  <m_score__min__energy>  (79) 
-10.77

>  <m_primary>  (79) 
energy

>  <rmsd>  (79) 
4.808845783051798

>  <m_score__min__rmsd>  (79) 
4.808845783051798

>  <meeko>  (79) 
{"free_energy": -9.35, "intermolecular_energy": -10.84, "internal_energy": -1.77, "cluster_size": 47, "cluster_id": 1, "rank_in_cluster": 39}

>  <energy>  (79) 
-9.68

>  <cluster_rmsd>  (79) 
0.96

>  <cluster>  (79) 
1

$$$$

     RDKit          3D

 64 69  0  0  0  0  0  0  0  0999 V2000
  142.2060   80.8510  222.6650 C   0  0  0  0  0  0  0  0  0  0  0  0
  141.7220   80.2580  223.8160 C   0  0  0  0  0  0  0  0  0  0  0  0
  141.2520   78.9520  223.8210 C   0  0  0  0  0  0  0  0  0  0  0  0
  141.2630   78.2170  222.6540 C   0  0  0  0  0  0  0  0  0  0  0  0
  141.7480   78.8160  221.5130 C   0  0  0  0  0  0  0  0  0  0  0  0
  142.2220   80.1180  221.4860 C   0  0  0  0  0  0  0  0  0  0  0  0
  141.7820   78.0700  220.2290 C   0  0  0  0  0  0  0  0  0  0  0  0
  140.7960   76.9270  220.2180 C   0  0  0  0  0  0  0  0  0  0  0  0
  140.8460   76.1520  221.4410 N   0  0  0  0  0  0  0  0  0  0  0  0
  140.9840   74.7350  221.4050 C   0  0  0  0  0  0  0  0  0  0  0  0
  141.6880   74.1410  220.4270 N   0  0  0  0  0  0  0  0  0  0  0  0
  141.8470   72.8040  220.3510 C   0  0  0  0  0  0  0  0  0  0  0  0
  142.5980   72.1930  219.3080 N   0  0  0  0  0  0  0  0  0  0  0  0
  143.8410   71.5370  219.6480 C   0  0  0  0  0  0  0  0  0  0  0  0
  144.9650   72.4980  219.2440 C   0  0  1  0  0  0  0  0  0  0  0  0
  144.4620   73.8830  219.4890 C   0  0  0  0  0  0  0  0  0  0  0  0
  145.3440   74.5010  220.5230 C   0  0  0  0  0  0  0  0  0  0  0  0
  146.3470   73.4490  220.8700 C   0  0  0  0  0  0  0  0  0  0  0  0
  146.0960   72.2790  220.0900 N   0  0  0  0  0  0  0  0  0  0  0  0
  141.2590   72.0740  221.3130 N   0  0  0  0  0  0  0  0  0  0  0  0
  140.5350   72.6080  222.3260 C   0  0  0  0  0  0  0  0  0  0  0  0
  139.9280   71.8000  223.3270 N   0  0  0  0  0  0  0  0  0  0  0  0
  138.8100   70.9440  223.0820 C   0  0  0  0  0  0  0  0  0  0  0  0
  139.2390   69.5090  223.3570 C   0  0  0  0  0  0  0  0  0  0  0  0
  139.7110   69.4750  224.7690 C   0  0  0  0  0  0  0  0  0  0  0  0
  139.5590   68.2910  225.4960 C   0  0  0  0  0  0  0  0  0  0  0  0
  139.9920   68.2370  226.8150 C   0  0  0  0  0  0  0  0  0  0  0  0
  140.5680   69.3500  227.3970 C   0  0  0  0  0  0  0  0  0  0  0  0
  140.7220   70.5130  226.6960 C   0  0  0  0  0  0  0  0  0  0  0  0
  140.2900   70.5640  225.3830 C   0  0  0  0  0  0  0  0  0  0  0  0
  140.4810   71.8520  224.6670 C   0  0  0  0  0  0  0  0  0  0  0  0
  140.4140   73.9630  222.3440 N   0  0  0  0  0  0  0  0  0  0  0  0
  140.7530   76.8340  222.7140 C   0  0  0  0  0  0  0  0  0  0  0  0
  142.5729   81.8879  222.6829 H   0  0  0  0  0  0  0  0  0  0  0  0
  141.7090   80.8359  224.7519 H   0  0  0  0  0  0  0  0  0  0  0  0
  140.8724   78.5051  224.7517 H   0  0  0  0  0  0  0  0  0  0  0  0
  142.6017   80.5600  220.5530 H   0  0  0  0  0  0  0  0  0  0  0  0
  141.5353   78.7608  219.4093 H   0  0  0  0  0  0  0  0  0  0  0  0
  142.7916   77.6516  220.1035 H   0  0  0  0  0  0  0  0  0  0  0  0
  139.7815   77.3349  220.0979 H   0  0  0  0  0  0  0  0  0  0  0  0
  141.0597   76.2604  219.3837 H   0  0  0  0  0  0  0  0  0  0  0  0
  142.2410   72.2270  218.3140 H   0  0  0  0  0  0  0  0  0  0  0  0
  143.8820   71.3373  220.7289 H   0  0  0  0  0  0  0  0  0  0  0  0
  143.9367   70.5721  219.1285 H   0  0  0  0  0  0  0  0  0  0  0  0
  145.2522   72.3464  218.1931 H   0  0  0  0  0  0  0  0  0  0  0  0
  144.5051   74.4688  218.5590 H   0  0  0  0  0  0  0  0  0  0  0  0
  143.4169   73.8621  219.8316 H   0  0  0  0  0  0  0  0  0  0  0  0
  145.8456   75.3922  220.1180 H   0  0  0  0  0  0  0  0  0  0  0  0
  144.7732   74.8284  221.4045 H   0  0  0  0  0  0  0  0  0  0  0  0
  147.3594   73.8224  220.6564 H   0  0  0  0  0  0  0  0  0  0  0  0
  146.2663   73.2025  221.9390 H   0  0  0  0  0  0  0  0  0  0  0  0
  146.0470   71.3980  220.6190 H   0  0  0  0  0  0  0  0  0  0  0  0
  137.9785   71.2180  223.7479 H   0  0  0  0  0  0  0  0  0  0  0  0
  138.4746   71.0467  222.0394 H   0  0  0  0  0  0  0  0  0  0  0  0
  138.3877   68.8252  223.2238 H   0  0  0  0  0  0  0  0  0  0  0  0
  140.0311   69.1896  222.6638 H   0  0  0  0  0  0  0  0  0  0  0  0
  139.0998   67.4082  225.0272 H   0  0  0  0  0  0  0  0  0  0  0  0
  139.8765   67.3096  227.3951 H   0  0  0  0  0  0  0  0  0  0  0  0
  140.9082   69.2991  228.4418 H   0  0  0  0  0  0  0  0  0  0  0  0
  141.1818   71.3938  227.1680 H   0  0  0  0  0  0  0  0  0  0  0  0
  139.9792   72.6525  225.2304 H   0  0  0  0  0  0  0  0  0  0  0  0
  141.5606   72.0475  224.5885 H   0  0  0  0  0  0  0  0  0  0  0  0
  139.6978   76.8605  223.0235 H   0  0  0  0  0  0  0  0  0  0  0  0
  141.3728   76.2808  223.4350 H   0  0  0  0  0  0  0  0  0  0  0  0
  1  2  2  0
  2  3  1  0
  3  4  2  0
  4  5  1  0
  5  6  2  0
  5  7  1  0
  7  8  1  0
  8  9  1  0
  9 10  1  0
 10 11  2  0
 11 12  1  0
 12 13  1  0
 13 14  1  0
 14 15  1  0
 15 16  1  0
 16 17  1  0
 17 18  1  0
 18 19  1  0
 12 20  2  0
 20 21  1  0
 21 22  1  0
 22 23  1  0
 23 24  1  0
 24 25  1  0
 25 26  2  0
 26 27  1  0
 27 28  2  0
 28 29  1  0
 29 30  2  0
 30 31  1  0
 21 32  2  0
  9 33  1  0
  6  1  1  0
 32 10  1  0
 33  4  1  0
 19 15  1  0
 31 22  1  0
 30 25  1  0
  1 34  1  0
  2 35  1  0
  3 36  1  0
  6 37  1  0
  7 38  1  0
  7 39  1  0
  8 40  1  0
  8 41  1  0
 13 42  1  0
 14 43  1  0
 14 44  1  0
 15 45  1  6
 16 46  1  0
 16 47  1  0
 17 48  1  0
 17 49  1  0
 18 50  1  0
 18 51  1  0
 19 52  1  0
 23 53  1  0
 23 54  1  0
 24 55  1  0
 24 56  1  0
 26 57  1  0
 27 58  1  0
 28 59  1  0
 29 60  1  0
 31 61  1  0
 31 62  1  0
 33 63  1  0
 33 64  1  0
M  END
>  <smiles>  (80) 
c1ccc2c(c1)CCN(c1nc(NCC3CCCN3)nc(N3CCc4ccccc4C3)n1)C2

>  <score_type>  (80) 
oracle

>  <origin>  (80) 
autodockgpu

>  <m_score__min__energy>  (80) 
-10.77

>  <m_primary>  (80) 
energy

>  <rmsd>  (80) 
4.894141375481126

>  <m_score__min__rmsd>  (80) 
4.894141375481126

>  <meeko>  (80) 
{"free_energy": -10.71, "intermolecular_energy": -12.2, "internal_energy": -1.06, "cluster_size": 47, "cluster_id": 1, "rank_in_cluster": 3}

>  <energy>  (80) 
-9.66

>  <cluster_rmsd>  (80) 
0.97

>  <cluster>  (80) 
1

$$$$

     RDKit          3D

 64 69  0  0  0  0  0  0  0  0999 V2000
  141.9270   80.4720  222.3050 C   0  0  0  0  0  0  0  0  0  0  0  0
  141.2240   79.9690  223.3840 C   0  0  0  0  0  0  0  0  0  0  0  0
  140.7490   78.6650  223.4010 C   0  0  0  0  0  0  0  0  0  0  0  0
  140.9790   77.8400  222.3200 C   0  0  0  0  0  0  0  0  0  0  0  0
  141.6800   78.3500  221.2510 C   0  0  0  0  0  0  0  0  0  0  0  0
  142.1630   79.6480  221.2130 C   0  0  0  0  0  0  0  0  0  0  0  0
  141.9550   77.5040  220.0600 C   0  0  0  0  0  0  0  0  0  0  0  0
  140.9780   76.3580  219.9490 C   0  0  0  0  0  0  0  0  0  0  0  0
  140.7830   75.6820  221.2160 N   0  0  0  0  0  0  0  0  0  0  0  0
  140.9120   74.2680  221.3190 C   0  0  0  0  0  0  0  0  0  0  0  0
  141.5810   73.5720  220.3850 N   0  0  0  0  0  0  0  0  0  0  0  0
  141.7290   72.2330  220.4400 C   0  0  0  0  0  0  0  0  0  0  0  0
  142.4420   71.5130  219.4400 N   0  0  0  0  0  0  0  0  0  0  0  0
  143.8840   71.4500  219.5340 C   0  0  0  0  0  0  0  0  0  0  0  0
  144.3890   72.8940  219.4490 C   0  0  1  0  0  0  0  0  0  0  0  0
  144.5230   73.3920  220.8520 C   0  0  0  0  0  0  0  0  0  0  0  0
  145.9650   73.7090  221.0770 C   0  0  0  0  0  0  0  0  0  0  0  0
  146.6500   73.3770  219.7910 C   0  0  0  0  0  0  0  0  0  0  0  0
  145.6860   72.9030  218.8490 N   0  0  0  0  0  0  0  0  0  0  0  0
  141.1690   71.6090  221.4880 N   0  0  0  0  0  0  0  0  0  0  0  0
  140.4820   72.2500  222.4650 C   0  0  0  0  0  0  0  0  0  0  0  0
  139.9030   71.5520  223.5610 N   0  0  0  0  0  0  0  0  0  0  0  0
  138.6840   70.8120  223.4730 C   0  0  0  0  0  0  0  0  0  0  0  0
  138.9900   69.3510  223.7780 C   0  0  0  0  0  0  0  0  0  0  0  0
  139.6010   69.3240  225.1350 C   0  0  0  0  0  0  0  0  0  0  0  0
  139.4050   68.1930  225.9330 C   0  0  0  0  0  0  0  0  0  0  0  0
  139.9670   68.1460  227.2030 C   0  0  0  0  0  0  0  0  0  0  0  0
  140.7120   69.2140  227.6670 C   0  0  0  0  0  0  0  0  0  0  0  0
  140.9100   70.3240  226.8950 C   0  0  0  0  0  0  0  0  0  0  0  0
  140.3500   70.3680  225.6320 C   0  0  0  0  0  0  0  0  0  0  0  0
  140.5950   71.5980  224.8350 C   0  0  0  0  0  0  0  0  0  0  0  0
  140.3690   73.6000  222.3500 N   0  0  0  0  0  0  0  0  0  0  0  0
  140.4530   76.4630  222.3890 C   0  0  0  0  0  0  0  0  0  0  0  0
  142.2937   81.5091  222.3117 H   0  0  0  0  0  0  0  0  0  0  0  0
  141.0363   80.6190  224.2513 H   0  0  0  0  0  0  0  0  0  0  0  0
  140.1917   78.2913  224.2726 H   0  0  0  0  0  0  0  0  0  0  0  0
  142.7199   80.0166  220.3389 H   0  0  0  0  0  0  0  0  0  0  0  0
  141.8785   78.1260  219.1560 H   0  0  0  0  0  0  0  0  0  0  0  0
  142.9657   77.0829  220.1655 H   0  0  0  0  0  0  0  0  0  0  0  0
  140.0099   76.7497  219.6035 H   0  0  0  0  0  0  0  0  0  0  0  0
  141.3913   75.6289  219.2366 H   0  0  0  0  0  0  0  0  0  0  0  0
  141.9150   71.0420  218.6550 H   0  0  0  0  0  0  0  0  0  0  0  0
  144.1830   70.9986  220.4915 H   0  0  0  0  0  0  0  0  0  0  0  0
  144.3085   70.8321  218.7290 H   0  0  0  0  0  0  0  0  0  0  0  0
  143.7009   73.5155  218.8572 H   0  0  0  0  0  0  0  0  0  0  0  0
  143.9131   74.2970  220.9897 H   0  0  0  0  0  0  0  0  0  0  0  0
  144.1755   72.6332  221.5686 H   0  0  0  0  0  0  0  0  0  0  0  0
  146.0918   74.7751  221.3165 H   0  0  0  0  0  0  0  0  0  0  0  0
  146.3819   73.1401  221.9211 H   0  0  0  0  0  0  0  0  0  0  0  0
  147.1401   74.2777  219.3930 H   0  0  0  0  0  0  0  0  0  0  0  0
  147.4057   72.5974  219.9676 H   0  0  0  0  0  0  0  0  0  0  0  0
  145.9260   72.0200  218.3780 H   0  0  0  0  0  0  0  0  0  0  0  0
  137.9590   71.2008  224.2033 H   0  0  0  0  0  0  0  0  0  0  0  0
  138.2539   70.9074  222.4651 H   0  0  0  0  0  0  0  0  0  0  0  0
  138.0638   68.7578  223.7660 H   0  0  0  0  0  0  0  0  0  0  0  0
  139.6683   68.9204  223.0266 H   0  0  0  0  0  0  0  0  0  0  0  0
  138.8104   67.3467  225.5584 H   0  0  0  0  0  0  0  0  0  0  0  0
  139.8192   67.2602  227.8382 H   0  0  0  0  0  0  0  0  0  0  0  0
  141.1526   69.1696  228.6739 H   0  0  0  0  0  0  0  0  0  0  0  0
  141.5052   71.1686  227.2724 H   0  0  0  0  0  0  0  0  0  0  0  0
  140.2390   72.4695  225.4040 H   0  0  0  0  0  0  0  0  0  0  0  0
  141.6748   71.6731  224.6390 H   0  0  0  0  0  0  0  0  0  0  0  0
  139.3582   76.5084  222.4855 H   0  0  0  0  0  0  0  0  0  0  0  0
  140.9167   75.9722  223.2574 H   0  0  0  0  0  0  0  0  0  0  0  0
  1  2  2  0
  2  3  1  0
  3  4  2  0
  4  5  1  0
  5  6  2  0
  5  7  1  0
  7  8  1  0
  8  9  1  0
  9 10  1  0
 10 11  2  0
 11 12  1  0
 12 13  1  0
 13 14  1  0
 14 15  1  0
 15 16  1  0
 16 17  1  0
 17 18  1  0
 18 19  1  0
 12 20  2  0
 20 21  1  0
 21 22  1  0
 22 23  1  0
 23 24  1  0
 24 25  1  0
 25 26  2  0
 26 27  1  0
 27 28  2  0
 28 29  1  0
 29 30  2  0
 30 31  1  0
 21 32  2  0
  9 33  1  0
  6  1  1  0
 32 10  1  0
 33  4  1  0
 19 15  1  0
 31 22  1  0
 30 25  1  0
  1 34  1  0
  2 35  1  0
  3 36  1  0
  6 37  1  0
  7 38  1  0
  7 39  1  0
  8 40  1  0
  8 41  1  0
 13 42  1  0
 14 43  1  0
 14 44  1  0
 15 45  1  6
 16 46  1  0
 16 47  1  0
 17 48  1  0
 17 49  1  0
 18 50  1  0
 18 51  1  0
 19 52  1  0
 23 53  1  0
 23 54  1  0
 24 55  1  0
 24 56  1  0
 26 57  1  0
 27 58  1  0
 28 59  1  0
 29 60  1  0
 31 61  1  0
 31 62  1  0
 33 63  1  0
 33 64  1  0
M  END
>  <smiles>  (81) 
c1ccc2c(c1)CCN(c1nc(NCC3CCCN3)nc(N3CCc4ccccc4C3)n1)C2

>  <score_type>  (81) 
oracle

>  <origin>  (81) 
autodockgpu

>  <m_score__min__energy>  (81) 
-10.77

>  <m_primary>  (81) 
energy

>  <rmsd>  (81) 
4.639737102341293

>  <m_score__min__rmsd>  (81) 
4.639737102341293

>  <meeko>  (81) 
{"free_energy": -10.14, "intermolecular_energy": -11.63, "internal_energy": -1.13, "cluster_size": 47, "cluster_id": 1, "rank_in_cluster": 13}

>  <energy>  (81) 
-9.62

>  <cluster_rmsd>  (81) 
0.85

>  <cluster>  (81) 
1

$$$$

     RDKit          3D

 64 69  0  0  0  0  0  0  0  0999 V2000
  142.3810   80.8380  222.6400 C   0  0  0  0  0  0  0  0  0  0  0  0
  141.9910   80.2290  223.8180 C   0  0  0  0  0  0  0  0  0  0  0  0
  141.4540   78.9490  223.8330 C   0  0  0  0  0  0  0  0  0  0  0  0
  141.3000   78.2580  222.6500 C   0  0  0  0  0  0  0  0  0  0  0  0
  141.6910   78.8730  221.4820 C   0  0  0  0  0  0  0  0  0  0  0  0
  142.2300   80.1490  221.4440 C   0  0  0  0  0  0  0  0  0  0  0  0
  141.5470   78.1740  220.1790 C   0  0  0  0  0  0  0  0  0  0  0  0
  140.5040   77.0840  220.2400 C   0  0  0  0  0  0  0  0  0  0  0  0
  140.6420   76.2630  221.4260 N   0  0  0  0  0  0  0  0  0  0  0  0
  140.6980   74.8430  221.3310 C   0  0  0  0  0  0  0  0  0  0  0  0
  141.2080   74.2500  220.2390 N   0  0  0  0  0  0  0  0  0  0  0  0
  141.2820   72.9100  220.1030 C   0  0  0  0  0  0  0  0  0  0  0  0
  141.8270   72.3000  218.9380 N   0  0  0  0  0  0  0  0  0  0  0  0
  143.2630   72.2990  218.7700 C   0  0  0  0  0  0  0  0  0  0  0  0
  143.8660   72.4370  220.1720 C   0  0  1  0  0  0  0  0  0  0  0  0
  145.2690   71.9270  220.0950 C   0  0  0  0  0  0  0  0  0  0  0  0
  146.1760   73.0670  220.4260 C   0  0  0  0  0  0  0  0  0  0  0  0
  145.2750   74.2300  220.6830 C   0  0  0  0  0  0  0  0  0  0  0  0
  143.9150   73.8200  220.5290 N   0  0  0  0  0  0  0  0  0  0  0  0
  140.8140   72.1760  221.1260 N   0  0  0  0  0  0  0  0  0  0  0  0
  140.2870   72.7100  222.2550 C   0  0  0  0  0  0  0  0  0  0  0  0
  139.8020   71.8970  223.3170 N   0  0  0  0  0  0  0  0  0  0  0  0
  138.6170   71.1030  223.2280 C   0  0  0  0  0  0  0  0  0  0  0  0
  139.0100   69.6420  223.3960 C   0  0  0  0  0  0  0  0  0  0  0  0
  139.6930   69.5390  224.7150 C   0  0  0  0  0  0  0  0  0  0  0  0
  139.5950   68.3390  225.4260 C   0  0  0  0  0  0  0  0  0  0  0  0
  140.2250   68.2210  226.6590 C   0  0  0  0  0  0  0  0  0  0  0  0
  140.9400   69.2870  227.1720 C   0  0  0  0  0  0  0  0  0  0  0  0
  141.0420   70.4630  226.4860 C   0  0  0  0  0  0  0  0  0  0  0  0
  140.4150   70.5780  225.2590 C   0  0  0  0  0  0  0  0  0  0  0  0
  140.5580   71.8790  224.5550 C   0  0  0  0  0  0  0  0  0  0  0  0
  140.2420   74.0670  222.3280 N   0  0  0  0  0  0  0  0  0  0  0  0
  140.7230   76.9010  222.7220 C   0  0  0  0  0  0  0  0  0  0  0  0
  142.8046   81.8531  222.6499 H   0  0  0  0  0  0  0  0  0  0  0  0
  142.1091   80.7722  224.7672 H   0  0  0  0  0  0  0  0  0  0  0  0
  141.1525   78.4878  224.7851 H   0  0  0  0  0  0  0  0  0  0  0  0
  142.5310   80.6051  220.4893 H   0  0  0  0  0  0  0  0  0  0  0  0
  141.2525   78.9062  219.4127 H   0  0  0  0  0  0  0  0  0  0  0  0
  142.5129   77.7096  219.9314 H   0  0  0  0  0  0  0  0  0  0  0  0
  139.5064   77.5475  220.2436 H   0  0  0  0  0  0  0  0  0  0  0  0
  140.6398   76.4358  219.3617 H   0  0  0  0  0  0  0  0  0  0  0  0
  141.1840   71.8640  218.2240 H   0  0  0  0  0  0  0  0  0  0  0  0
  143.5906   71.3567  218.3067 H   0  0  0  0  0  0  0  0  0  0  0  0
  143.5871   73.1213  218.1152 H   0  0  0  0  0  0  0  0  0  0  0  0
  143.2683   71.8836  220.9113 H   0  0  0  0  0  0  0  0  0  0  0  0
  145.4125   71.1100  220.8174 H   0  0  0  0  0  0  0  0  0  0  0  0
  145.4862   71.5362  219.0900 H   0  0  0  0  0  0  0  0  0  0  0  0
  146.7721   72.8369  221.3214 H   0  0  0  0  0  0  0  0  0  0  0  0
  146.8873   73.2729  219.6126 H   0  0  0  0  0  0  0  0  0  0  0  0
  145.4336   74.5978  221.7075 H   0  0  0  0  0  0  0  0  0  0  0  0
  145.4996   75.0341  219.9667 H   0  0  0  0  0  0  0  0  0  0  0  0
  143.3380   74.4190  219.9240 H   0  0  0  0  0  0  0  0  0  0  0  0
  137.9137   71.3932  224.0225 H   0  0  0  0  0  0  0  0  0  0  0  0
  138.1294   71.2558  222.2539 H   0  0  0  0  0  0  0  0  0  0  0  0
  138.1147   69.0031  223.3803 H   0  0  0  0  0  0  0  0  0  0  0  0
  139.6679   69.3097  222.5794 H   0  0  0  0  0  0  0  0  0  0  0  0
  139.0236   67.4949  225.0125 H   0  0  0  0  0  0  0  0  0  0  0  0
  140.1548   67.2809  227.2258 H   0  0  0  0  0  0  0  0  0  0  0  0
  141.4350   69.1861  228.1491 H   0  0  0  0  0  0  0  0  0  0  0  0
  141.6137   71.3053  226.9026 H   0  0  0  0  0  0  0  0  0  0  0  0
  140.1909   72.6827  225.2102 H   0  0  0  0  0  0  0  0  0  0  0  0
  141.6209   72.0269  224.3136 H   0  0  0  0  0  0  0  0  0  0  0  0
  139.7098   76.9706  223.1447 H   0  0  0  0  0  0  0  0  0  0  0  0
  141.3843   76.2901  223.3541 H   0  0  0  0  0  0  0  0  0  0  0  0
  1  2  2  0
  2  3  1  0
  3  4  2  0
  4  5  1  0
  5  6  2  0
  5  7  1  0
  7  8  1  0
  8  9  1  0
  9 10  1  0
 10 11  2  0
 11 12  1  0
 12 13  1  0
 13 14  1  0
 14 15  1  0
 15 16  1  0
 16 17  1  0
 17 18  1  0
 18 19  1  0
 12 20  2  0
 20 21  1  0
 21 22  1  0
 22 23  1  0
 23 24  1  0
 24 25  1  0
 25 26  2  0
 26 27  1  0
 27 28  2  0
 28 29  1  0
 29 30  2  0
 30 31  1  0
 21 32  2  0
  9 33  1  0
  6  1  1  0
 32 10  1  0
 33  4  1  0
 19 15  1  0
 31 22  1  0
 30 25  1  0
  1 34  1  0
  2 35  1  0
  3 36  1  0
  6 37  1  0
  7 38  1  0
  7 39  1  0
  8 40  1  0
  8 41  1  0
 13 42  1  0
 14 43  1  0
 14 44  1  0
 15 45  1  1
 16 46  1  0
 16 47  1  0
 17 48  1  0
 17 49  1  0
 18 50  1  0
 18 51  1  0
 19 52  1  0
 23 53  1  0
 23 54  1  0
 24 55  1  0
 24 56  1  0
 26 57  1  0
 27 58  1  0
 28 59  1  0
 29 60  1  0
 31 61  1  0
 31 62  1  0
 33 63  1  0
 33 64  1  0
M  END
>  <smiles>  (82) 
c1ccc2c(c1)CCN(c1nc(NCC3CCCN3)nc(N3CCc4ccccc4C3)n1)C2

>  <score_type>  (82) 
oracle

>  <origin>  (82) 
autodockgpu

>  <m_score__min__energy>  (82) 
-10.77

>  <m_primary>  (82) 
energy

>  <rmsd>  (82) 
4.911754756525992

>  <m_score__min__rmsd>  (82) 
4.911754756525992

>  <meeko>  (82) 
{"free_energy": -9.66, "intermolecular_energy": -11.15, "internal_energy": -1.83, "cluster_size": 47, "cluster_id": 1, "rank_in_cluster": 30}

>  <energy>  (82) 
-9.6

>  <cluster_rmsd>  (82) 
0.98

>  <cluster>  (82) 
1

$$$$

     RDKit          3D

 64 69  0  0  0  0  0  0  0  0999 V2000
  142.2680   80.9080  222.6310 C   0  0  0  0  0  0  0  0  0  0  0  0
  141.8590   80.3010  223.8030 C   0  0  0  0  0  0  0  0  0  0  0  0
  141.3660   79.0030  223.8190 C   0  0  0  0  0  0  0  0  0  0  0  0
  141.2780   78.2910  222.6410 C   0  0  0  0  0  0  0  0  0  0  0  0
  141.6890   78.9040  221.4790 C   0  0  0  0  0  0  0  0  0  0  0  0
  142.1840   80.1980  221.4410 C   0  0  0  0  0  0  0  0  0  0  0  0
  141.6150   78.1830  220.1820 C   0  0  0  0  0  0  0  0  0  0  0  0
  140.6090   77.0570  220.2230 C   0  0  0  0  0  0  0  0  0  0  0  0
  140.7340   76.2580  221.4250 N   0  0  0  0  0  0  0  0  0  0  0  0
  140.8420   74.8400  221.3530 C   0  0  0  0  0  0  0  0  0  0  0  0
  141.4750   74.2540  220.3220 N   0  0  0  0  0  0  0  0  0  0  0  0
  141.6020   72.9160  220.2110 C   0  0  0  0  0  0  0  0  0  0  0  0
  142.2760   72.3130  219.1110 N   0  0  0  0  0  0  0  0  0  0  0  0
  142.7760   70.9650  219.2660 C   0  0  0  0  0  0  0  0  0  0  0  0
  144.1920   71.0880  219.8400 C   0  0  1  0  0  0  0  0  0  0  0  0
  145.0090   71.8260  218.8290 C   0  0  0  0  0  0  0  0  0  0  0  0
  145.4640   73.0980  219.4670 C   0  0  0  0  0  0  0  0  0  0  0  0
  144.8900   73.0780  220.8460 C   0  0  0  0  0  0  0  0  0  0  0  0
  144.1470   71.8720  221.0340 N   0  0  0  0  0  0  0  0  0  0  0  0
  141.0600   72.1770  221.1920 N   0  0  0  0  0  0  0  0  0  0  0  0
  140.4100   72.7030  222.2580 C   0  0  0  0  0  0  0  0  0  0  0  0
  139.8500   71.8850  223.2780 N   0  0  0  0  0  0  0  0  0  0  0  0
  138.6850   71.0770  223.0940 C   0  0  0  0  0  0  0  0  0  0  0  0
  139.0800   69.6200  223.2940 C   0  0  0  0  0  0  0  0  0  0  0  0
  139.6540   69.5250  224.6650 C   0  0  0  0  0  0  0  0  0  0  0  0
  139.5130   68.3240  225.3660 C   0  0  0  0  0  0  0  0  0  0  0  0
  140.0410   68.2140  226.6470 C   0  0  0  0  0  0  0  0  0  0  0  0
  140.7000   69.2870  227.2150 C   0  0  0  0  0  0  0  0  0  0  0  0
  140.8450   70.4650  226.5380 C   0  0  0  0  0  0  0  0  0  0  0  0
  140.3180   70.5730  225.2640 C   0  0  0  0  0  0  0  0  0  0  0  0
  140.5030   71.8750  224.5730 C   0  0  0  0  0  0  0  0  0  0  0  0
  140.3160   74.0590  222.3100 N   0  0  0  0  0  0  0  0  0  0  0  0
  140.7470   76.9160  222.7130 C   0  0  0  0  0  0  0  0  0  0  0  0
  142.6542   81.9379  222.6408 H   0  0  0  0  0  0  0  0  0  0  0  0
  141.9257   80.8605  224.7477 H   0  0  0  0  0  0  0  0  0  0  0  0
  141.0471   78.5447  224.7668 H   0  0  0  0  0  0  0  0  0  0  0  0
  142.5026   80.6515  220.4908 H   0  0  0  0  0  0  0  0  0  0  0  0
  141.3218   78.8940  219.3956 H   0  0  0  0  0  0  0  0  0  0  0  0
  142.6047   77.7500  219.9744 H   0  0  0  0  0  0  0  0  0  0  0  0
  139.5962   77.4846  220.1851 H   0  0  0  0  0  0  0  0  0  0  0  0
  140.7983   76.4021  219.3597 H   0  0  0  0  0  0  0  0  0  0  0  0
  142.4000   72.8520  218.2110 H   0  0  0  0  0  0  0  0  0  0  0  0
  142.1340   70.3989  219.9569 H   0  0  0  0  0  0  0  0  0  0  0  0
  142.7821   70.4305  218.3046 H   0  0  0  0  0  0  0  0  0  0  0  0
  144.6132   70.0964  220.0619 H   0  0  0  0  0  0  0  0  0  0  0  0
  145.8789   71.2209  218.5340 H   0  0  0  0  0  0  0  0  0  0  0  0
  144.4158   72.0340  217.9263 H   0  0  0  0  0  0  0  0  0  0  0  0
  146.5626   73.1364  219.5080 H   0  0  0  0  0  0  0  0  0  0  0  0
  145.1343   73.9808  218.8996 H   0  0  0  0  0  0  0  0  0  0  0  0
  145.7049   73.1256  221.5833 H   0  0  0  0  0  0  0  0  0  0  0  0
  144.2246   73.9437  220.9793 H   0  0  0  0  0  0  0  0  0  0  0  0
  143.1970   71.9920  221.4100 H   0  0  0  0  0  0  0  0  0  0  0  0
  137.9166   71.3587  223.8289 H   0  0  0  0  0  0  0  0  0  0  0  0
  138.2760   71.2245  222.0836 H   0  0  0  0  0  0  0  0  0  0  0  0
  138.1966   68.9706  223.2055 H   0  0  0  0  0  0  0  0  0  0  0  0
  139.8061   69.2955  222.5341 H   0  0  0  0  0  0  0  0  0  0  0  0
  138.9884   67.4727  224.9076 H   0  0  0  0  0  0  0  0  0  0  0  0
  139.9342   67.2737  227.2078 H   0  0  0  0  0  0  0  0  0  0  0  0
  141.1150   69.1915  228.2292 H   0  0  0  0  0  0  0  0  0  0  0  0
  141.3722   71.3134  226.9987 H   0  0  0  0  0  0  0  0  0  0  0  0
  140.0751   72.6745  225.1957 H   0  0  0  0  0  0  0  0  0  0  0  0
  141.5803   72.0345  224.4184 H   0  0  0  0  0  0  0  0  0  0  0  0
  139.7178   76.9553  223.0992 H   0  0  0  0  0  0  0  0  0  0  0  0
  141.4068   76.3377  223.3766 H   0  0  0  0  0  0  0  0  0  0  0  0
  1  2  2  0
  2  3  1  0
  3  4  2  0
  4  5  1  0
  5  6  2  0
  5  7  1  0
  7  8  1  0
  8  9  1  0
  9 10  1  0
 10 11  2  0
 11 12  1  0
 12 13  1  0
 13 14  1  0
 14 15  1  0
 15 16  1  0
 16 17  1  0
 17 18  1  0
 18 19  1  0
 12 20  2  0
 20 21  1  0
 21 22  1  0
 22 23  1  0
 23 24  1  0
 24 25  1  0
 25 26  2  0
 26 27  1  0
 27 28  2  0
 28 29  1  0
 29 30  2  0
 30 31  1  0
 21 32  2  0
  9 33  1  0
  6  1  1  0
 32 10  1  0
 33  4  1  0
 19 15  1  0
 31 22  1  0
 30 25  1  0
  1 34  1  0
  2 35  1  0
  3 36  1  0
  6 37  1  0
  7 38  1  0
  7 39  1  0
  8 40  1  0
  8 41  1  0
 13 42  1  0
 14 43  1  0
 14 44  1  0
 15 45  1  1
 16 46  1  0
 16 47  1  0
 17 48  1  0
 17 49  1  0
 18 50  1  0
 18 51  1  0
 19 52  1  0
 23 53  1  0
 23 54  1  0
 24 55  1  0
 24 56  1  0
 26 57  1  0
 27 58  1  0
 28 59  1  0
 29 60  1  0
 31 61  1  0
 31 62  1  0
 33 63  1  0
 33 64  1  0
M  END
>  <smiles>  (83) 
c1ccc2c(c1)CCN(c1nc(NCC3CCCN3)nc(N3CCc4ccccc4C3)n1)C2

>  <score_type>  (83) 
oracle

>  <origin>  (83) 
autodockgpu

>  <m_score__min__energy>  (83) 
-10.77

>  <m_primary>  (83) 
energy

>  <rmsd>  (83) 
4.899470793700105

>  <m_score__min__rmsd>  (83) 
4.899470793700105

>  <meeko>  (83) 
{"free_energy": -9.36, "intermolecular_energy": -10.85, "internal_energy": -1.89, "cluster_size": 47, "cluster_id": 1, "rank_in_cluster": 38}

>  <energy>  (83) 
-9.55

>  <cluster_rmsd>  (83) 
0.7

>  <cluster>  (83) 
1

$$$$

     RDKit          3D

 64 69  0  0  0  0  0  0  0  0999 V2000
  142.1910   80.7200  222.5740 C   0  0  0  0  0  0  0  0  0  0  0  0
  141.6600   80.1540  223.7180 C   0  0  0  0  0  0  0  0  0  0  0  0
  141.1590   78.8590  223.7260 C   0  0  0  0  0  0  0  0  0  0  0  0
  141.1870   78.1080  222.5700 C   0  0  0  0  0  0  0  0  0  0  0  0
  141.7190   78.6800  221.4370 C   0  0  0  0  0  0  0  0  0  0  0  0
  142.2230   79.9700  221.4060 C   0  0  0  0  0  0  0  0  0  0  0  0
  141.7730   77.9160  220.1640 C   0  0  0  0  0  0  0  0  0  0  0  0
  140.7610   76.7950  220.1390 C   0  0  0  0  0  0  0  0  0  0  0  0
  140.7570   76.0360  221.3730 N   0  0  0  0  0  0  0  0  0  0  0  0
  140.8620   74.6160  221.3600 C   0  0  0  0  0  0  0  0  0  0  0  0
  141.5050   73.9870  220.3620 N   0  0  0  0  0  0  0  0  0  0  0  0
  141.6310   72.6460  220.3060 C   0  0  0  0  0  0  0  0  0  0  0  0
  142.3170   71.9980  219.2410 N   0  0  0  0  0  0  0  0  0  0  0  0
  143.7390   71.7720  219.3740 C   0  0  0  0  0  0  0  0  0  0  0  0
  144.3990   73.1550  219.4040 C   0  0  1  0  0  0  0  0  0  0  0  0
  144.4630   73.5750  220.8370 C   0  0  0  0  0  0  0  0  0  0  0  0
  145.9060   73.7230  221.1940 C   0  0  0  0  0  0  0  0  0  0  0  0
  146.6600   73.3740  219.9520 C   0  0  0  0  0  0  0  0  0  0  0  0
  145.7360   73.0480  218.9120 N   0  0  0  0  0  0  0  0  0  0  0  0
  141.0760   71.9480  221.3100 N   0  0  0  0  0  0  0  0  0  0  0  0
  140.4140   72.5190  222.3460 C   0  0  0  0  0  0  0  0  0  0  0  0
  139.8400   71.7440  223.3910 N   0  0  0  0  0  0  0  0  0  0  0  0
  138.7040   70.8940  223.2150 C   0  0  0  0  0  0  0  0  0  0  0  0
  139.1300   69.4630  223.5120 C   0  0  0  0  0  0  0  0  0  0  0  0
  139.6570   69.4620  224.9040 C   0  0  0  0  0  0  0  0  0  0  0  0
  139.5220   68.2990  225.6690 C   0  0  0  0  0  0  0  0  0  0  0  0
  140.0070   68.2760  226.9700 C   0  0  0  0  0  0  0  0  0  0  0  0
  140.6170   69.3980  227.4980 C   0  0  0  0  0  0  0  0  0  0  0  0
  140.7540   70.5400  226.7600 C   0  0  0  0  0  0  0  0  0  0  0  0
  140.2710   70.5600  225.4650 C   0  0  0  0  0  0  0  0  0  0  0  0
  140.4450   71.8260  224.7070 C   0  0  0  0  0  0  0  0  0  0  0  0
  140.3230   73.8760  222.3420 N   0  0  0  0  0  0  0  0  0  0  0  0
  140.6430   76.7380  222.6340 C   0  0  0  0  0  0  0  0  0  0  0  0
  142.5819   81.7481  222.5888 H   0  0  0  0  0  0  0  0  0  0  0  0
  141.6337   80.7446  224.6456 H   0  0  0  0  0  0  0  0  0  0  0  0
  140.7415   78.4340  224.6507 H   0  0  0  0  0  0  0  0  0  0  0  0
  142.6386   80.3901  220.4782 H   0  0  0  0  0  0  0  0  0  0  0  0
  141.5661   78.6011  219.3286 H   0  0  0  0  0  0  0  0  0  0  0  0
  142.7759   77.4732  220.0733 H   0  0  0  0  0  0  0  0  0  0  0  0
  139.7602   77.2242  219.9835 H   0  0  0  0  0  0  0  0  0  0  0  0
  141.0337   76.1110  219.3218 H   0  0  0  0  0  0  0  0  0  0  0  0
  141.7850   71.6960  218.3800 H   0  0  0  0  0  0  0  0  0  0  0  0
  143.9518   71.2291  220.3067 H   0  0  0  0  0  0  0  0  0  0  0  0
  144.1247   71.1654  218.5414 H   0  0  0  0  0  0  0  0  0  0  0  0
  143.8341   73.8726  218.7909 H   0  0  0  0  0  0  0  0  0  0  0  0
  143.9419   74.5344  220.9715 H   0  0  0  0  0  0  0  0  0  0  0  0
  143.9772   72.8289  221.4830 H   0  0  0  0  0  0  0  0  0  0  0  0
  146.1231   74.7576  221.4980 H   0  0  0  0  0  0  0  0  0  0  0  0
  146.1869   73.0763  222.0383 H   0  0  0  0  0  0  0  0  0  0  0  0
  147.2738   74.2325  219.6418 H   0  0  0  0  0  0  0  0  0  0  0  0
  147.3121   72.5102  220.1484 H   0  0  0  0  0  0  0  0  0  0  0  0
  145.9210   72.1640  218.4180 H   0  0  0  0  0  0  0  0  0  0  0  0
  137.9030   71.1951  223.9062 H   0  0  0  0  0  0  0  0  0  0  0  0
  138.3271   70.9721  222.1845 H   0  0  0  0  0  0  0  0  0  0  0  0
  138.2678   68.7848  223.4311 H   0  0  0  0  0  0  0  0  0  0  0  0
  139.8910   69.1169  222.7971 H   0  0  0  0  0  0  0  0  0  0  0  0
  139.0353   67.4091  225.2433 H   0  0  0  0  0  0  0  0  0  0  0  0
  139.9058   67.3659  227.5795 H   0  0  0  0  0  0  0  0  0  0  0  0
  140.9986   69.3714  228.5294 H   0  0  0  0  0  0  0  0  0  0  0  0
  141.2404   71.4283  227.1893 H   0  0  0  0  0  0  0  0  0  0  0  0
  139.9725   72.6462  225.2674 H   0  0  0  0  0  0  0  0  0  0  0  0
  141.5225   72.0082  224.5813 H   0  0  0  0  0  0  0  0  0  0  0  0
  139.5801   76.7933  222.9120 H   0  0  0  0  0  0  0  0  0  0  0  0
  141.2282   76.1809  223.3804 H   0  0  0  0  0  0  0  0  0  0  0  0
  1  2  2  0
  2  3  1  0
  3  4  2  0
  4  5  1  0
  5  6  2  0
  5  7  1  0
  7  8  1  0
  8  9  1  0
  9 10  1  0
 10 11  2  0
 11 12  1  0
 12 13  1  0
 13 14  1  0
 14 15  1  0
 15 16  1  0
 16 17  1  0
 17 18  1  0
 18 19  1  0
 12 20  2  0
 20 21  1  0
 21 22  1  0
 22 23  1  0
 23 24  1  0
 24 25  1  0
 25 26  2  0
 26 27  1  0
 27 28  2  0
 28 29  1  0
 29 30  2  0
 30 31  1  0
 21 32  2  0
  9 33  1  0
  6  1  1  0
 32 10  1  0
 33  4  1  0
 19 15  1  0
 31 22  1  0
 30 25  1  0
  1 34  1  0
  2 35  1  0
  3 36  1  0
  6 37  1  0
  7 38  1  0
  7 39  1  0
  8 40  1  0
  8 41  1  0
 13 42  1  0
 14 43  1  0
 14 44  1  0
 15 45  1  6
 16 46  1  0
 16 47  1  0
 17 48  1  0
 17 49  1  0
 18 50  1  0
 18 51  1  0
 19 52  1  0
 23 53  1  0
 23 54  1  0
 24 55  1  0
 24 56  1  0
 26 57  1  0
 27 58  1  0
 28 59  1  0
 29 60  1  0
 31 61  1  0
 31 62  1  0
 33 63  1  0
 33 64  1  0
M  END
>  <smiles>  (84) 
c1ccc2c(c1)CCN(c1nc(NCC3CCCN3)nc(N3CCc4ccccc4C3)n1)C2

>  <score_type>  (84) 
oracle

>  <origin>  (84) 
autodockgpu

>  <m_score__min__energy>  (84) 
-10.77

>  <m_primary>  (84) 
energy

>  <rmsd>  (84) 
4.8235730822367815

>  <m_score__min__rmsd>  (84) 
4.8235730822367815

>  <meeko>  (84) 
{"free_energy": -10.17, "intermolecular_energy": -11.66, "internal_energy": -1.12, "cluster_size": 47, "cluster_id": 1, "rank_in_cluster": 10}

>  <energy>  (84) 
-9.41

>  <cluster_rmsd>  (84) 
0.89

>  <cluster>  (84) 
1

$$$$

     RDKit          3D

 64 69  0  0  0  0  0  0  0  0999 V2000
  145.4190   67.3410  218.2120 C   0  0  0  0  0  0  0  0  0  0  0  0
  146.2500   68.3100  218.7440 C   0  0  0  0  0  0  0  0  0  0  0  0
  145.7470   69.4880  219.2800 C   0  0  0  0  0  0  0  0  0  0  0  0
  144.3860   69.7090  219.2880 C   0  0  0  0  0  0  0  0  0  0  0  0
  143.5670   68.7390  218.7560 C   0  0  0  0  0  0  0  0  0  0  0  0
  144.0480   67.5560  218.2160 C   0  0  0  0  0  0  0  0  0  0  0  0
  142.0940   68.9260  218.7370 C   0  0  0  0  0  0  0  0  0  0  0  0
  141.7120   70.3850  218.8260 C   0  0  0  0  0  0  0  0  0  0  0  0
  142.4610   71.0820  219.8520 N   0  0  0  0  0  0  0  0  0  0  0  0
  141.7970   71.8660  220.8370 C   0  0  0  0  0  0  0  0  0  0  0  0
  141.7410   73.2040  220.7240 N   0  0  0  0  0  0  0  0  0  0  0  0
  141.1230   73.9880  221.6310 C   0  0  0  0  0  0  0  0  0  0  0  0
  141.0740   75.4040  221.4930 N   0  0  0  0  0  0  0  0  0  0  0  0
  139.8490   76.0870  221.8450 C   0  0  0  0  0  0  0  0  0  0  0  0
  140.0970   77.5790  221.6000 C   0  0  1  0  0  0  0  0  0  0  0  0
  139.2000   78.3290  222.5300 C   0  0  0  0  0  0  0  0  0  0  0  0
  140.0710   79.1180  223.4510 C   0  0  0  0  0  0  0  0  0  0  0  0
  141.4720   78.8020  223.0400 C   0  0  0  0  0  0  0  0  0  0  0  0
  141.4500   77.8930  221.9380 N   0  0  0  0  0  0  0  0  0  0  0  0
  140.5550   73.3650  222.6760 N   0  0  0  0  0  0  0  0  0  0  0  0
  140.5740   72.0210  222.8510 C   0  0  0  0  0  0  0  0  0  0  0  0
  139.9590   71.3980  223.9720 N   0  0  0  0  0  0  0  0  0  0  0  0
  138.7890   70.5830  223.8820 C   0  0  0  0  0  0  0  0  0  0  0  0
  139.1490   69.1790  224.3490 C   0  0  0  0  0  0  0  0  0  0  0  0
  139.6660   69.3180  225.7380 C   0  0  0  0  0  0  0  0  0  0  0  0
  139.4750   68.2590  226.6310 C   0  0  0  0  0  0  0  0  0  0  0  0
  139.9490   68.3680  227.9320 C   0  0  0  0  0  0  0  0  0  0  0  0
  140.6030   69.5170  228.3330 C   0  0  0  0  0  0  0  0  0  0  0  0
  140.7960   70.5570  227.4690 C   0  0  0  0  0  0  0  0  0  0  0  0
  140.3230   70.4470  226.1750 C   0  0  0  0  0  0  0  0  0  0  0  0
  140.5580   71.6070  225.2760 C   0  0  0  0  0  0  0  0  0  0  0  0
  141.2130   71.2880  221.9000 N   0  0  0  0  0  0  0  0  0  0  0  0
  143.9040   70.9770  219.8680 C   0  0  0  0  0  0  0  0  0  0  0  0
  145.8381   66.4146  217.7924 H   0  0  0  0  0  0  0  0  0  0  0  0
  147.3373   68.1433  218.7425 H   0  0  0  0  0  0  0  0  0  0  0  0
  146.4314   70.2417  219.6965 H   0  0  0  0  0  0  0  0  0  0  0  0
  143.3592   66.8057  217.8006 H   0  0  0  0  0  0  0  0  0  0  0  0
  141.6944   68.5099  217.8004 H   0  0  0  0  0  0  0  0  0  0  0  0
  141.6725   68.4085  219.6114 H   0  0  0  0  0  0  0  0  0  0  0  0
  141.9098   70.8635  217.8555 H   0  0  0  0  0  0  0  0  0  0  0  0
  140.6451   70.4409  219.0880 H   0  0  0  0  0  0  0  0  0  0  0  0
  141.9210   75.9270  221.1410 H   0  0  0  0  0  0  0  0  0  0  0  0
  139.0208   75.7309  221.2147 H   0  0  0  0  0  0  0  0  0  0  0  0
  139.5742   75.8962  222.8929 H   0  0  0  0  0  0  0  0  0  0  0  0
  139.9068   77.8392  220.5483 H   0  0  0  0  0  0  0  0  0  0  0  0
  138.5469   79.0052  221.9588 H   0  0  0  0  0  0  0  0  0  0  0  0
  138.5619   77.6357  223.0976 H   0  0  0  0  0  0  0  0  0  0  0  0
  139.8713   80.1942  223.3418 H   0  0  0  0  0  0  0  0  0  0  0  0
  139.8870   78.8644  224.5054 H   0  0  0  0  0  0  0  0  0  0  0  0
  141.9846   79.7283  222.7414 H   0  0  0  0  0  0  0  0  0  0  0  0
  142.0077   78.3431  223.8840 H   0  0  0  0  0  0  0  0  0  0  0  0
  142.0500   77.0630  222.0380 H   0  0  0  0  0  0  0  0  0  0  0  0
  137.9969   70.9969  224.5233 H   0  0  0  0  0  0  0  0  0  0  0  0
  138.4240   70.5561  222.8447 H   0  0  0  0  0  0  0  0  0  0  0  0
  138.2580   68.5340  224.3374 H   0  0  0  0  0  0  0  0  0  0  0  0
  139.8987   68.7189  223.6885 H   0  0  0  0  0  0  0  0  0  0  0  0
  138.9535   67.3468  226.3057 H   0  0  0  0  0  0  0  0  0  0  0  0
  139.8039   67.5406  228.6422 H   0  0  0  0  0  0  0  0  0  0  0  0
  140.9745   69.5955  229.3654 H   0  0  0  0  0  0  0  0  0  0  0  0
  141.3192   71.4671  227.7975 H   0  0  0  0  0  0  0  0  0  0  0  0
  140.1187   72.5069  225.7312 H   0  0  0  0  0  0  0  0  0  0  0  0
  141.6433   71.7261  225.1424 H   0  0  0  0  0  0  0  0  0  0  0  0
  144.3246   71.8121  219.2886 H   0  0  0  0  0  0  0  0  0  0  0  0
  144.2292   71.0083  220.9184 H   0  0  0  0  0  0  0  0  0  0  0  0
  1  2  2  0
  2  3  1  0
  3  4  2  0
  4  5  1  0
  5  6  2  0
  5  7  1  0
  7  8  1  0
  8  9  1  0
  9 10  1  0
 10 11  2  0
 11 12  1  0
 12 13  1  0
 13 14  1  0
 14 15  1  0
 15 16  1  0
 16 17  1  0
 17 18  1  0
 18 19  1  0
 12 20  2  0
 20 21  1  0
 21 22  1  0
 22 23  1  0
 23 24  1  0
 24 25  1  0
 25 26  2  0
 26 27  1  0
 27 28  2  0
 28 29  1  0
 29 30  2  0
 30 31  1  0
 21 32  2  0
  9 33  1  0
  6  1  1  0
 32 10  1  0
 33  4  1  0
 19 15  1  0
 31 22  1  0
 30 25  1  0
  1 34  1  0
  2 35  1  0
  3 36  1  0
  6 37  1  0
  7 38  1  0
  7 39  1  0
  8 40  1  0
  8 41  1  0
 13 42  1  0
 14 43  1  0
 14 44  1  0
 15 45  1  6
 16 46  1  0
 16 47  1  0
 17 48  1  0
 17 49  1  0
 18 50  1  0
 18 51  1  0
 19 52  1  0
 23 53  1  0
 23 54  1  0
 24 55  1  0
 24 56  1  0
 26 57  1  0
 27 58  1  0
 28 59  1  0
 29 60  1  0
 31 61  1  0
 31 62  1  0
 33 63  1  0
 33 64  1  0
M  END
>  <smiles>  (85) 
c1ccc2c(c1)CCN(c1nc(NCC3CCCN3)nc(N3CCc4ccccc4C3)n1)C2

>  <score_type>  (85) 
oracle

>  <origin>  (85) 
autodockgpu

>  <m_score__min__energy>  (85) 
-10.77

>  <m_primary>  (85) 
energy

>  <rmsd>  (85) 
10.57848632810326

>  <m_score__min__rmsd>  (85) 
10.57848632810326

>  <meeko>  (85) 
{"free_energy": -9.41, "intermolecular_energy": -10.9, "internal_energy": -1.54, "cluster_size": 3, "cluster_id": 2, "rank_in_cluster": 1}

>  <energy>  (85) 
-9.4

>  <cluster_rmsd>  (85) 
0.88

>  <cluster>  (85) 
1

$$$$

     RDKit          3D

 64 69  0  0  0  0  0  0  0  0999 V2000
  141.8520   80.6300  222.2670 C   0  0  0  0  0  0  0  0  0  0  0  0
  141.2750   80.1020  223.4070 C   0  0  0  0  0  0  0  0  0  0  0  0
  140.8520   78.7810  223.4670 C   0  0  0  0  0  0  0  0  0  0  0  0
  141.0070   77.9640  222.3670 C   0  0  0  0  0  0  0  0  0  0  0  0
  141.5840   78.4980  221.2360 C   0  0  0  0  0  0  0  0  0  0  0  0
  142.0120   79.8140  221.1560 C   0  0  0  0  0  0  0  0  0  0  0  0
  141.7750   77.6630  220.0230 C   0  0  0  0  0  0  0  0  0  0  0  0
  140.8350   76.4810  220.0030 C   0  0  0  0  0  0  0  0  0  0  0  0
  140.7880   75.8000  221.2810 N   0  0  0  0  0  0  0  0  0  0  0  0
  140.9780   74.3920  221.3680 C   0  0  0  0  0  0  0  0  0  0  0  0
  141.7370   73.7470  220.4660 N   0  0  0  0  0  0  0  0  0  0  0  0
  141.9460   72.4150  220.5070 C   0  0  0  0  0  0  0  0  0  0  0  0
  142.7540   71.7500  219.5420 N   0  0  0  0  0  0  0  0  0  0  0  0
  144.0750   71.3140  219.9340 C   0  0  0  0  0  0  0  0  0  0  0  0
  145.0560   72.3670  219.4080 C   0  0  1  0  0  0  0  0  0  0  0  0
  144.3870   73.6950  219.5510 C   0  0  0  0  0  0  0  0  0  0  0  0
  145.2100   74.5100  220.4950 C   0  0  0  0  0  0  0  0  0  0  0  0
  146.3470   73.6270  220.8940 C   0  0  0  0  0  0  0  0  0  0  0  0
  146.2270   72.3680  220.2270 N   0  0  0  0  0  0  0  0  0  0  0  0
  141.3520   71.7440  221.5070 N   0  0  0  0  0  0  0  0  0  0  0  0
  140.5750   72.3320  222.4490 C   0  0  0  0  0  0  0  0  0  0  0  0
  139.9640   71.5860  223.4940 N   0  0  0  0  0  0  0  0  0  0  0  0
  138.7910   70.7880  223.3160 C   0  0  0  0  0  0  0  0  0  0  0  0
  139.1510   69.3390  223.6160 C   0  0  0  0  0  0  0  0  0  0  0  0
  139.6750   69.3160  225.0100 C   0  0  0  0  0  0  0  0  0  0  0  0
  139.4860   68.1620  225.7760 C   0  0  0  0  0  0  0  0  0  0  0  0
  139.9660   68.1190  227.0790 C   0  0  0  0  0  0  0  0  0  0  0  0
  140.6250   69.2140  227.6070 C   0  0  0  0  0  0  0  0  0  0  0  0
  140.8150   70.3460  226.8670 C   0  0  0  0  0  0  0  0  0  0  0  0
  140.3360   70.3870  225.5710 C   0  0  0  0  0  0  0  0  0  0  0  0
  140.5700   71.6420  224.8110 C   0  0  0  0  0  0  0  0  0  0  0  0
  140.4040   73.6780  222.3500 N   0  0  0  0  0  0  0  0  0  0  0  0
  140.5420   76.5690  222.4820 C   0  0  0  0  0  0  0  0  0  0  0  0
  142.1790   81.6799  222.2410 H   0  0  0  0  0  0  0  0  0  0  0  0
  141.1476   80.7456  224.2899 H   0  0  0  0  0  0  0  0  0  0  0  0
  140.3955   78.3881  224.3874 H   0  0  0  0  0  0  0  0  0  0  0  0
  142.4678   80.2025  220.2334 H   0  0  0  0  0  0  0  0  0  0  0  0
  141.5891   78.2810  219.1322 H   0  0  0  0  0  0  0  0  0  0  0  0
  142.8062   77.2802  220.0299 H   0  0  0  0  0  0  0  0  0  0  0  0
  139.8243   76.8358  219.7529 H   0  0  0  0  0  0  0  0  0  0  0  0
  141.2047   75.7670  219.2523 H   0  0  0  0  0  0  0  0  0  0  0  0
  142.3820   71.5870  218.5670 H   0  0  0  0  0  0  0  0  0  0  0  0
  144.1428   71.2456  221.0298 H   0  0  0  0  0  0  0  0  0  0  0  0
  144.3028   70.3189  219.5242 H   0  0  0  0  0  0  0  0  0  0  0  0
  145.3330   72.1582  218.3641 H   0  0  0  0  0  0  0  0  0  0  0  0
  144.3309   74.1951  218.5729 H   0  0  0  0  0  0  0  0  0  0  0  0
  143.3624   73.5749  219.9328 H   0  0  0  0  0  0  0  0  0  0  0  0
  145.5834   75.4164  219.9961 H   0  0  0  0  0  0  0  0  0  0  0  0
  144.6252   74.8424  221.3654 H   0  0  0  0  0  0  0  0  0  0  0  0
  147.2978   74.1028  220.6117 H   0  0  0  0  0  0  0  0  0  0  0  0
  146.3258   73.4697  221.9825 H   0  0  0  0  0  0  0  0  0  0  0  0
  146.3060   71.5390  220.8310 H   0  0  0  0  0  0  0  0  0  0  0  0
  138.0027   71.1260  224.0047 H   0  0  0  0  0  0  0  0  0  0  0  0
  138.4207   70.8817  222.2844 H   0  0  0  0  0  0  0  0  0  0  0  0
  138.2589   68.7006  223.5343 H   0  0  0  0  0  0  0  0  0  0  0  0
  139.8969   68.9576  222.9032 H   0  0  0  0  0  0  0  0  0  0  0  0
  138.9610   67.2942  225.3501 H   0  0  0  0  0  0  0  0  0  0  0  0
  139.8221   67.2154  227.6896 H   0  0  0  0  0  0  0  0  0  0  0  0
  141.0022   69.1726  228.6395 H   0  0  0  0  0  0  0  0  0  0  0  0
  141.3411   71.2117  227.2957 H   0  0  0  0  0  0  0  0  0  0  0  0
  140.1353   72.4844  225.3691 H   0  0  0  0  0  0  0  0  0  0  0  0
  141.6550   71.7734  224.6867 H   0  0  0  0  0  0  0  0  0  0  0  0
  139.4604   76.5735  222.6822 H   0  0  0  0  0  0  0  0  0  0  0  0
  141.1041   76.0967  223.3012 H   0  0  0  0  0  0  0  0  0  0  0  0
  1  2  2  0
  2  3  1  0
  3  4  2  0
  4  5  1  0
  5  6  2  0
  5  7  1  0
  7  8  1  0
  8  9  1  0
  9 10  1  0
 10 11  2  0
 11 12  1  0
 12 13  1  0
 13 14  1  0
 14 15  1  0
 15 16  1  0
 16 17  1  0
 17 18  1  0
 18 19  1  0
 12 20  2  0
 20 21  1  0
 21 22  1  0
 22 23  1  0
 23 24  1  0
 24 25  1  0
 25 26  2  0
 26 27  1  0
 27 28  2  0
 28 29  1  0
 29 30  2  0
 30 31  1  0
 21 32  2  0
  9 33  1  0
  6  1  1  0
 32 10  1  0
 33  4  1  0
 19 15  1  0
 31 22  1  0
 30 25  1  0
  1 34  1  0
  2 35  1  0
  3 36  1  0
  6 37  1  0
  7 38  1  0
  7 39  1  0
  8 40  1  0
  8 41  1  0
 13 42  1  0
 14 43  1  0
 14 44  1  0
 15 45  1  6
 16 46  1  0
 16 47  1  0
 17 48  1  0
 17 49  1  0
 18 50  1  0
 18 51  1  0
 19 52  1  0
 23 53  1  0
 23 54  1  0
 24 55  1  0
 24 56  1  0
 26 57  1  0
 27 58  1  0
 28 59  1  0
 29 60  1  0
 31 61  1  0
 31 62  1  0
 33 63  1  0
 33 64  1  0
M  END
>  <smiles>  (86) 
c1ccc2c(c1)CCN(c1nc(NCC3CCCN3)nc(N3CCc4ccccc4C3)n1)C2

>  <score_type>  (86) 
oracle

>  <origin>  (86) 
autodockgpu

>  <m_score__min__energy>  (86) 
-10.77

>  <m_primary>  (86) 
energy

>  <rmsd>  (86) 
4.633468047680862

>  <m_score__min__rmsd>  (86) 
4.633468047680862

>  <meeko>  (86) 
{"free_energy": -10.77, "intermolecular_energy": -12.26, "internal_energy": -0.98, "cluster_size": 47, "cluster_id": 1, "rank_in_cluster": 1}

>  <energy>  (86) 
-9.4

>  <cluster_rmsd>  (86) 
0.9

>  <cluster>  (86) 
1

$$$$

     RDKit          3D

 64 69  0  0  0  0  0  0  0  0999 V2000
  142.0660   80.9190  222.6640 C   0  0  0  0  0  0  0  0  0  0  0  0
  141.5650   80.3260  223.8080 C   0  0  0  0  0  0  0  0  0  0  0  0
  141.1300   79.0070  223.8160 C   0  0  0  0  0  0  0  0  0  0  0  0
  141.1950   78.2600  222.6590 C   0  0  0  0  0  0  0  0  0  0  0  0
  141.6960   78.8590  221.5250 C   0  0  0  0  0  0  0  0  0  0  0  0
  142.1350   80.1730  221.4950 C   0  0  0  0  0  0  0  0  0  0  0  0
  141.7870   78.1000  220.2510 C   0  0  0  0  0  0  0  0  0  0  0  0
  140.8330   76.9300  220.2260 C   0  0  0  0  0  0  0  0  0  0  0  0
  140.8670   76.1710  221.4590 N   0  0  0  0  0  0  0  0  0  0  0  0
  141.0440   74.7580  221.4440 C   0  0  0  0  0  0  0  0  0  0  0  0
  141.8500   74.1790  220.5390 N   0  0  0  0  0  0  0  0  0  0  0  0
  142.0490   72.8460  220.4860 C   0  0  0  0  0  0  0  0  0  0  0  0
  142.9080   72.2510  219.5190 N   0  0  0  0  0  0  0  0  0  0  0  0
  143.3280   73.0490  218.3880 C   0  0  0  0  0  0  0  0  0  0  0  0
  144.7670   73.4900  218.6750 C   0  0  1  0  0  0  0  0  0  0  0  0
  144.7460   74.2210  219.9780 C   0  0  0  0  0  0  0  0  0  0  0  0
  145.6010   73.4550  220.9330 C   0  0  0  0  0  0  0  0  0  0  0  0
  146.1000   72.2760  220.1630 C   0  0  0  0  0  0  0  0  0  0  0  0
  145.5900   72.3320  218.8290 N   0  0  0  0  0  0  0  0  0  0  0  0
  141.3940   72.1040  221.3940 N   0  0  0  0  0  0  0  0  0  0  0  0
  140.5670   72.6240  222.3330 C   0  0  0  0  0  0  0  0  0  0  0  0
  139.8910   71.8030  223.2780 N   0  0  0  0  0  0  0  0  0  0  0  0
  138.7270   71.0340  222.9690 C   0  0  0  0  0  0  0  0  0  0  0  0
  139.0610   69.5620  223.1740 C   0  0  0  0  0  0  0  0  0  0  0  0
  139.5020   69.4240  224.5890 C   0  0  0  0  0  0  0  0  0  0  0  0
  139.2620   68.2140  225.2480 C   0  0  0  0  0  0  0  0  0  0  0  0
  139.6650   68.0640  226.5690 C   0  0  0  0  0  0  0  0  0  0  0  0
  140.2980   69.1060  227.2200 C   0  0  0  0  0  0  0  0  0  0  0  0
  140.5370   70.2920  226.5850 C   0  0  0  0  0  0  0  0  0  0  0  0
  140.1350   70.4400  225.2710 C   0  0  0  0  0  0  0  0  0  0  0  0
  140.4190   71.7490  224.6280 C   0  0  0  0  0  0  0  0  0  0  0  0
  140.4100   73.9750  222.3320 N   0  0  0  0  0  0  0  0  0  0  0  0
  140.7200   76.8640  222.7210 C   0  0  0  0  0  0  0  0  0  0  0  0
  142.4046   81.9655  222.6797 H   0  0  0  0  0  0  0  0  0  0  0  0
  141.5095   80.9141  224.7359 H   0  0  0  0  0  0  0  0  0  0  0  0
  140.7356   78.5606  224.7408 H   0  0  0  0  0  0  0  0  0  0  0  0
  142.5286   80.6144  220.5675 H   0  0  0  0  0  0  0  0  0  0  0  0
  141.5450   78.7746  219.4166 H   0  0  0  0  0  0  0  0  0  0  0  0
  142.8108   77.7084  220.1587 H   0  0  0  0  0  0  0  0  0  0  0  0
  139.8119   77.3086  220.0709 H   0  0  0  0  0  0  0  0  0  0  0  0
  141.1399   76.2609  219.4086 H   0  0  0  0  0  0  0  0  0  0  0  0
  143.2220   71.2510  219.6400 H   0  0  0  0  0  0  0  0  0  0  0  0
  143.2911   72.4501  217.4661 H   0  0  0  0  0  0  0  0  0  0  0  0
  142.6672   73.9171  218.2472 H   0  0  0  0  0  0  0  0  0  0  0  0
  145.1555   74.1170  217.8590 H   0  0  0  0  0  0  0  0  0  0  0  0
  145.1469   75.2368  219.8458 H   0  0  0  0  0  0  0  0  0  0  0  0
  143.7177   74.3062  220.3593 H   0  0  0  0  0  0  0  0  0  0  0  0
  146.4428   74.0739  221.2772 H   0  0  0  0  0  0  0  0  0  0  0  0
  145.0405   73.1502  221.8291 H   0  0  0  0  0  0  0  0  0  0  0  0
  147.1996   72.2930  220.1369 H   0  0  0  0  0  0  0  0  0  0  0  0
  145.7608   71.3489  220.6483 H   0  0  0  0  0  0  0  0  0  0  0  0
  145.1490   71.4670  218.4890 H   0  0  0  0  0  0  0  0  0  0  0  0
  137.9011   71.3247  223.6348 H   0  0  0  0  0  0  0  0  0  0  0  0
  138.4189   71.2124  221.9282 H   0  0  0  0  0  0  0  0  0  0  0  0
  138.1718   68.9410  222.9904 H   0  0  0  0  0  0  0  0  0  0  0  0
  139.8455   69.2305  222.4778 H   0  0  0  0  0  0  0  0  0  0  0  0
  138.7583   67.3879  224.7247 H   0  0  0  0  0  0  0  0  0  0  0  0
  139.4804   67.1166  227.0965 H   0  0  0  0  0  0  0  0  0  0  0  0
  140.6144   68.9785  228.2658 H   0  0  0  0  0  0  0  0  0  0  0  0
  141.0413   71.1159  227.1112 H   0  0  0  0  0  0  0  0  0  0  0  0
  139.9563   72.5486  225.2252 H   0  0  0  0  0  0  0  0  0  0  0  0
  141.5101   71.8797  224.5777 H   0  0  0  0  0  0  0  0  0  0  0  0
  139.6561   76.8657  223.0005 H   0  0  0  0  0  0  0  0  0  0  0  0
  141.3335   76.3354  223.4655 H   0  0  0  0  0  0  0  0  0  0  0  0
  1  2  2  0
  2  3  1  0
  3  4  2  0
  4  5  1  0
  5  6  2  0
  5  7  1  0
  7  8  1  0
  8  9  1  0
  9 10  1  0
 10 11  2  0
 11 12  1  0
 12 13  1  0
 13 14  1  0
 14 15  1  0
 15 16  1  0
 16 17  1  0
 17 18  1  0
 18 19  1  0
 12 20  2  0
 20 21  1  0
 21 22  1  0
 22 23  1  0
 23 24  1  0
 24 25  1  0
 25 26  2  0
 26 27  1  0
 27 28  2  0
 28 29  1  0
 29 30  2  0
 30 31  1  0
 21 32  2  0
  9 33  1  0
  6  1  1  0
 32 10  1  0
 33  4  1  0
 19 15  1  0
 31 22  1  0
 30 25  1  0
  1 34  1  0
  2 35  1  0
  3 36  1  0
  6 37  1  0
  7 38  1  0
  7 39  1  0
  8 40  1  0
  8 41  1  0
 13 42  1  0
 14 43  1  0
 14 44  1  0
 15 45  1  6
 16 46  1  0
 16 47  1  0
 17 48  1  0
 17 49  1  0
 18 50  1  0
 18 51  1  0
 19 52  1  0
 23 53  1  0
 23 54  1  0
 24 55  1  0
 24 56  1  0
 26 57  1  0
 27 58  1  0
 28 59  1  0
 29 60  1  0
 31 61  1  0
 31 62  1  0
 33 63  1  0
 33 64  1  0
M  END
>  <smiles>  (87) 
c1ccc2c(c1)CCN(c1nc(NCC3CCCN3)nc(N3CCc4ccccc4C3)n1)C2

>  <score_type>  (87) 
oracle

>  <origin>  (87) 
autodockgpu

>  <m_score__min__energy>  (87) 
-10.77

>  <m_primary>  (87) 
energy

>  <rmsd>  (87) 
4.883811349728368

>  <m_score__min__rmsd>  (87) 
4.883811349728368

>  <meeko>  (87) 
{"free_energy": -10.27, "intermolecular_energy": -11.76, "internal_energy": -1.33, "cluster_size": 47, "cluster_id": 1, "rank_in_cluster": 5}

>  <energy>  (87) 
-9.39

>  <cluster_rmsd>  (87) 
0.91

>  <cluster>  (87) 
1

$$$$

     RDKit          3D

 64 69  0  0  0  0  0  0  0  0999 V2000
  141.4420   80.4710  221.8430 C   0  0  0  0  0  0  0  0  0  0  0  0
  140.7900   80.0070  222.9710 C   0  0  0  0  0  0  0  0  0  0  0  0
  140.4660   78.6660  223.1260 C   0  0  0  0  0  0  0  0  0  0  0  0
  140.7970   77.7640  222.1370 C   0  0  0  0  0  0  0  0  0  0  0  0
  141.4470   78.2350  221.0190 C   0  0  0  0  0  0  0  0  0  0  0  0
  141.7800   79.5690  220.8440 C   0  0  0  0  0  0  0  0  0  0  0  0
  141.8270   77.3070  219.9230 C   0  0  0  0  0  0  0  0  0  0  0  0
  140.9880   76.0520  219.9350 C   0  0  0  0  0  0  0  0  0  0  0  0
  140.8580   75.4950  221.2660 N   0  0  0  0  0  0  0  0  0  0  0  0
  141.1450   74.1230  221.5170 C   0  0  0  0  0  0  0  0  0  0  0  0
  142.1060   73.4880  220.8270 N   0  0  0  0  0  0  0  0  0  0  0  0
  142.4130   72.1900  221.0290 C   0  0  0  0  0  0  0  0  0  0  0  0
  143.4360   71.5340  220.2870 N   0  0  0  0  0  0  0  0  0  0  0  0
  143.6920   71.9730  218.9330 C   0  0  0  0  0  0  0  0  0  0  0  0
  144.9970   72.7770  218.9760 C   0  0  1  0  0  0  0  0  0  0  0  0
  144.6590   74.1260  219.5210 C   0  0  0  0  0  0  0  0  0  0  0  0
  145.4120   74.2910  220.8010 C   0  0  0  0  0  0  0  0  0  0  0  0
  146.1720   73.0170  220.9810 C   0  0  0  0  0  0  0  0  0  0  0  0
  145.9070   72.1470  219.8790 N   0  0  0  0  0  0  0  0  0  0  0  0
  141.7040   71.5440  221.9690 N   0  0  0  0  0  0  0  0  0  0  0  0
  140.7220   72.1250  222.7010 C   0  0  0  0  0  0  0  0  0  0  0  0
  139.9940   71.4050  223.6890 N   0  0  0  0  0  0  0  0  0  0  0  0
  138.8540   70.5940  223.3970 C   0  0  0  0  0  0  0  0  0  0  0  0
  139.1820   69.1570  223.7830 C   0  0  0  0  0  0  0  0  0  0  0  0
  139.5360   69.1810  225.2290 C   0  0  0  0  0  0  0  0  0  0  0  0
  139.2620   68.0480  226.0020 C   0  0  0  0  0  0  0  0  0  0  0  0
  139.5840   68.0490  227.3530 C   0  0  0  0  0  0  0  0  0  0  0  0
  140.1710   69.1640  227.9220 C   0  0  0  0  0  0  0  0  0  0  0  0
  140.4440   70.2750  227.1750 C   0  0  0  0  0  0  0  0  0  0  0  0
  140.1220   70.2730  225.8310 C   0  0  0  0  0  0  0  0  0  0  0  0
  140.4390   71.5060  225.0650 C   0  0  0  0  0  0  0  0  0  0  0  0
  140.4620   73.4350  222.4470 N   0  0  0  0  0  0  0  0  0  0  0  0
  140.4300   76.3510  222.3520 C   0  0  0  0  0  0  0  0  0  0  0  0
  141.6887   81.5380  221.7394 H   0  0  0  0  0  0  0  0  0  0  0  0
  140.5213   80.7186  223.7656 H   0  0  0  0  0  0  0  0  0  0  0  0
  139.9474   78.3245  224.0340 H   0  0  0  0  0  0  0  0  0  0  0  0
  142.2999   79.9048  219.9347 H   0  0  0  0  0  0  0  0  0  0  0  0
  141.6886   77.8187  218.9591 H   0  0  0  0  0  0  0  0  0  0  0  0
  142.8780   77.0171  220.0693 H   0  0  0  0  0  0  0  0  0  0  0  0
  139.9853   76.2922  219.5517 H   0  0  0  0  0  0  0  0  0  0  0  0
  141.4889   75.3041  219.3027 H   0  0  0  0  0  0  0  0  0  0  0  0
  143.9840   70.7480  220.7300 H   0  0  0  0  0  0  0  0  0  0  0  0
  143.8021   71.1050  218.2664 H   0  0  0  0  0  0  0  0  0  0  0  0
  142.8612   72.5829  218.5485 H   0  0  0  0  0  0  0  0  0  0  0  0
  145.4512   72.8412  217.9762 H   0  0  0  0  0  0  0  0  0  0  0  0
  144.9576   74.9064  218.8056 H   0  0  0  0  0  0  0  0  0  0  0  0
  143.5762   74.2160  219.6924 H   0  0  0  0  0  0  0  0  0  0  0  0
  146.1023   75.1448  220.7342 H   0  0  0  0  0  0  0  0  0  0  0  0
  144.7396   74.4896  221.6486 H   0  0  0  0  0  0  0  0  0  0  0  0
  147.2492   73.2353  221.0255 H   0  0  0  0  0  0  0  0  0  0  0  0
  145.8585   72.5310  221.9167 H   0  0  0  0  0  0  0  0  0  0  0  0
  145.6360   71.1860  220.1310 H   0  0  0  0  0  0  0  0  0  0  0  0
  137.9877   70.9468  223.9758 H   0  0  0  0  0  0  0  0  0  0  0  0
  138.6087   70.6538  222.3264 H   0  0  0  0  0  0  0  0  0  0  0  0
  138.3088   68.5093  223.6157 H   0  0  0  0  0  0  0  0  0  0  0  0
  140.0091   68.7598  223.1763 H   0  0  0  0  0  0  0  0  0  0  0  0
  138.7954   67.1635  225.5437 H   0  0  0  0  0  0  0  0  0  0  0  0
  139.3721   67.1633  227.9699 H   0  0  0  0  0  0  0  0  0  0  0  0
  140.4222   69.1565  228.9929 H   0  0  0  0  0  0  0  0  0  0  0  0
  140.9126   71.1570  227.6360 H   0  0  0  0  0  0  0  0  0  0  0  0
  139.9376   72.3615  225.5411 H   0  0  0  0  0  0  0  0  0  0  0  0
  141.5305   71.6422  225.0659 H   0  0  0  0  0  0  0  0  0  0  0  0
  139.3362   76.2811  222.4460 H   0  0  0  0  0  0  0  0  0  0  0  0
  140.9375   76.0096  223.2662 H   0  0  0  0  0  0  0  0  0  0  0  0
  1  2  2  0
  2  3  1  0
  3  4  2  0
  4  5  1  0
  5  6  2  0
  5  7  1  0
  7  8  1  0
  8  9  1  0
  9 10  1  0
 10 11  2  0
 11 12  1  0
 12 13  1  0
 13 14  1  0
 14 15  1  0
 15 16  1  0
 16 17  1  0
 17 18  1  0
 18 19  1  0
 12 20  2  0
 20 21  1  0
 21 22  1  0
 22 23  1  0
 23 24  1  0
 24 25  1  0
 25 26  2  0
 26 27  1  0
 27 28  2  0
 28 29  1  0
 29 30  2  0
 30 31  1  0
 21 32  2  0
  9 33  1  0
  6  1  1  0
 32 10  1  0
 33  4  1  0
 19 15  1  0
 31 22  1  0
 30 25  1  0
  1 34  1  0
  2 35  1  0
  3 36  1  0
  6 37  1  0
  7 38  1  0
  7 39  1  0
  8 40  1  0
  8 41  1  0
 13 42  1  0
 14 43  1  0
 14 44  1  0
 15 45  1  6
 16 46  1  0
 16 47  1  0
 17 48  1  0
 17 49  1  0
 18 50  1  0
 18 51  1  0
 19 52  1  0
 23 53  1  0
 23 54  1  0
 24 55  1  0
 24 56  1  0
 26 57  1  0
 27 58  1  0
 28 59  1  0
 29 60  1  0
 31 61  1  0
 31 62  1  0
 33 63  1  0
 33 64  1  0
M  END
>  <smiles>  (88) 
c1ccc2c(c1)CCN(c1nc(NCC3CCCN3)nc(N3CCc4ccccc4C3)n1)C2

>  <score_type>  (88) 
oracle

>  <origin>  (88) 
autodockgpu

>  <m_score__min__energy>  (88) 
-10.77

>  <m_primary>  (88) 
energy

>  <rmsd>  (88) 
4.409584710718118

>  <m_score__min__rmsd>  (88) 
4.409584710718118

>  <meeko>  (88) 
{"free_energy": -10.18, "intermolecular_energy": -11.68, "internal_energy": -1.64, "cluster_size": 47, "cluster_id": 1, "rank_in_cluster": 9}

>  <energy>  (88) 
-9.36

>  <cluster_rmsd>  (88) 
0.91

>  <cluster>  (88) 
1

$$$$

     RDKit          3D

 64 69  0  0  0  0  0  0  0  0999 V2000
  141.3840   80.4260  221.8690 C   0  0  0  0  0  0  0  0  0  0  0  0
  140.6840   79.9530  222.9630 C   0  0  0  0  0  0  0  0  0  0  0  0
  140.3620   78.6090  223.0980 C   0  0  0  0  0  0  0  0  0  0  0  0
  140.7440   77.7130  222.1220 C   0  0  0  0  0  0  0  0  0  0  0  0
  141.4410   78.1930  221.0360 C   0  0  0  0  0  0  0  0  0  0  0  0
  141.7740   79.5300  220.8820 C   0  0  0  0  0  0  0  0  0  0  0  0
  141.8770   77.2720  219.9560 C   0  0  0  0  0  0  0  0  0  0  0  0
  141.0460   76.0110  219.9240 C   0  0  0  0  0  0  0  0  0  0  0  0
  140.8580   75.4480  221.2460 N   0  0  0  0  0  0  0  0  0  0  0  0
  141.1420   74.0770  221.5050 C   0  0  0  0  0  0  0  0  0  0  0  0
  142.1100   73.4390  220.8260 N   0  0  0  0  0  0  0  0  0  0  0  0
  142.4150   72.1420  221.0360 C   0  0  0  0  0  0  0  0  0  0  0  0
  143.4450   71.4840  220.3070 N   0  0  0  0  0  0  0  0  0  0  0  0
  143.6080   71.8030  218.9060 C   0  0  0  0  0  0  0  0  0  0  0  0
  144.8580   72.6840  218.8030 C   0  0  1  0  0  0  0  0  0  0  0  0
  144.4650   74.0520  219.2550 C   0  0  0  0  0  0  0  0  0  0  0  0
  145.2760   74.3710  220.4690 C   0  0  0  0  0  0  0  0  0  0  0  0
  146.1250   73.1650  220.7070 C   0  0  0  0  0  0  0  0  0  0  0  0
  145.8560   72.1890  219.6980 N   0  0  0  0  0  0  0  0  0  0  0  0
  141.6960   71.5000  221.9700 N   0  0  0  0  0  0  0  0  0  0  0  0
  140.7060   72.0830  222.6900 C   0  0  0  0  0  0  0  0  0  0  0  0
  139.9680   71.3670  223.6730 N   0  0  0  0  0  0  0  0  0  0  0  0
  138.8230   70.5660  223.3740 C   0  0  0  0  0  0  0  0  0  0  0  0
  139.1360   69.1260  223.7570 C   0  0  0  0  0  0  0  0  0  0  0  0
  139.4840   69.1430  225.2050 C   0  0  0  0  0  0  0  0  0  0  0  0
  139.1970   68.0110  225.9740 C   0  0  0  0  0  0  0  0  0  0  0  0
  139.5140   68.0050  227.3270 C   0  0  0  0  0  0  0  0  0  0  0  0
  140.1070   69.1130  227.9010 C   0  0  0  0  0  0  0  0  0  0  0  0
  140.3930   70.2240  227.1580 C   0  0  0  0  0  0  0  0  0  0  0  0
  140.0770   70.2280  225.8120 C   0  0  0  0  0  0  0  0  0  0  0  0
  140.4070   71.4610  225.0520 C   0  0  0  0  0  0  0  0  0  0  0  0
  140.4500   73.3930  222.4300 N   0  0  0  0  0  0  0  0  0  0  0  0
  140.3760   76.2980  222.3140 C   0  0  0  0  0  0  0  0  0  0  0  0
  141.6283   81.4950  221.7815 H   0  0  0  0  0  0  0  0  0  0  0  0
  140.3740   80.6596  223.7470 H   0  0  0  0  0  0  0  0  0  0  0  0
  139.8045   78.2606  223.9799 H   0  0  0  0  0  0  0  0  0  0  0  0
  142.3337   79.8729  219.9993 H   0  0  0  0  0  0  0  0  0  0  0  0
  141.7803   77.7867  218.9886 H   0  0  0  0  0  0  0  0  0  0  0  0
  142.9218   76.9879  220.1503 H   0  0  0  0  0  0  0  0  0  0  0  0
  140.0607   76.2464  219.4954 H   0  0  0  0  0  0  0  0  0  0  0  0
  141.5803   75.2688  219.3127 H   0  0  0  0  0  0  0  0  0  0  0  0
  144.0660   70.7810  220.7920 H   0  0  0  0  0  0  0  0  0  0  0  0
  143.7428   70.8821  218.3197 H   0  0  0  0  0  0  0  0  0  0  0  0
  142.7222   72.3214  218.5103 H   0  0  0  0  0  0  0  0  0  0  0  0
  145.2503   72.6893  217.7753 H   0  0  0  0  0  0  0  0  0  0  0  0
  144.6724   74.7845  218.4610 H   0  0  0  0  0  0  0  0  0  0  0  0
  143.3899   74.0916  219.4844 H   0  0  0  0  0  0  0  0  0  0  0  0
  145.9052   75.2554  220.2901 H   0  0  0  0  0  0  0  0  0  0  0  0
  144.6404   74.6015  221.3366 H   0  0  0  0  0  0  0  0  0  0  0  0
  147.1867   73.4500  220.6682 H   0  0  0  0  0  0  0  0  0  0  0  0
  145.8956   72.7434  221.6968 H   0  0  0  0  0  0  0  0  0  0  0  0
  145.6620   71.2390  220.0440 H   0  0  0  0  0  0  0  0  0  0  0  0
  137.9571   70.9246  223.9499 H   0  0  0  0  0  0  0  0  0  0  0  0
  138.5838   70.6305  222.3023 H   0  0  0  0  0  0  0  0  0  0  0  0
  138.2577   68.4867  223.5842 H   0  0  0  0  0  0  0  0  0  0  0  0
  139.9620   68.7228  223.1527 H   0  0  0  0  0  0  0  0  0  0  0  0
  138.7240   67.1321  225.5116 H   0  0  0  0  0  0  0  0  0  0  0  0
  139.2930   67.1190  227.9403 H   0  0  0  0  0  0  0  0  0  0  0  0
  140.3529   69.1009  228.9731 H   0  0  0  0  0  0  0  0  0  0  0  0
  140.8670   71.1008  227.6234 H   0  0  0  0  0  0  0  0  0  0  0  0
  139.9094   72.3187  225.5282 H   0  0  0  0  0  0  0  0  0  0  0  0
  141.4994   71.5897  225.0592 H   0  0  0  0  0  0  0  0  0  0  0  0
  139.2795   76.2218  222.3574 H   0  0  0  0  0  0  0  0  0  0  0  0
  140.8436   75.9559  223.2491 H   0  0  0  0  0  0  0  0  0  0  0  0
  1  2  2  0
  2  3  1  0
  3  4  2  0
  4  5  1  0
  5  6  2  0
  5  7  1  0
  7  8  1  0
  8  9  1  0
  9 10  1  0
 10 11  2  0
 11 12  1  0
 12 13  1  0
 13 14  1  0
 14 15  1  0
 15 16  1  0
 16 17  1  0
 17 18  1  0
 18 19  1  0
 12 20  2  0
 20 21  1  0
 21 22  1  0
 22 23  1  0
 23 24  1  0
 24 25  1  0
 25 26  2  0
 26 27  1  0
 27 28  2  0
 28 29  1  0
 29 30  2  0
 30 31  1  0
 21 32  2  0
  9 33  1  0
  6  1  1  0
 32 10  1  0
 33  4  1  0
 19 15  1  0
 31 22  1  0
 30 25  1  0
  1 34  1  0
  2 35  1  0
  3 36  1  0
  6 37  1  0
  7 38  1  0
  7 39  1  0
  8 40  1  0
  8 41  1  0
 13 42  1  0
 14 43  1  0
 14 44  1  0
 15 45  1  6
 16 46  1  0
 16 47  1  0
 17 48  1  0
 17 49  1  0
 18 50  1  0
 18 51  1  0
 19 52  1  0
 23 53  1  0
 23 54  1  0
 24 55  1  0
 24 56  1  0
 26 57  1  0
 27 58  1  0
 28 59  1  0
 29 60  1  0
 31 61  1  0
 31 62  1  0
 33 63  1  0
 33 64  1  0
M  END
>  <smiles>  (89) 
c1ccc2c(c1)CCN(c1nc(NCC3CCCN3)nc(N3CCc4ccccc4C3)n1)C2

>  <score_type>  (89) 
oracle

>  <origin>  (89) 
autodockgpu

>  <m_score__min__energy>  (89) 
-10.77

>  <m_primary>  (89) 
energy

>  <rmsd>  (89) 
4.421077633598885

>  <m_score__min__rmsd>  (89) 
4.421077633598885

>  <meeko>  (89) 
{"free_energy": -10.1, "intermolecular_energy": -11.59, "internal_energy": -1.62, "cluster_size": 47, "cluster_id": 1, "rank_in_cluster": 16}

>  <energy>  (89) 
-9.35

>  <cluster_rmsd>  (89) 
0.93

>  <cluster>  (89) 
1

$$$$

     RDKit          3D

 64 69  0  0  0  0  0  0  0  0999 V2000
  140.6040   80.8250  222.9280 C   0  0  0  0  0  0  0  0  0  0  0  0
  139.6540   80.1500  223.6710 C   0  0  0  0  0  0  0  0  0  0  0  0
  139.3940   78.8010  223.4680 C   0  0  0  0  0  0  0  0  0  0  0  0
  140.0960   78.1060  222.5050 C   0  0  0  0  0  0  0  0  0  0  0  0
  141.0400   78.7880  221.7720 C   0  0  0  0  0  0  0  0  0  0  0  0
  141.3150   80.1340  221.9570 C   0  0  0  0  0  0  0  0  0  0  0  0
  141.8240   78.0890  220.7210 C   0  0  0  0  0  0  0  0  0  0  0  0
  141.1200   76.8470  220.2290 C   0  0  0  0  0  0  0  0  0  0  0  0
  140.6020   76.0460  221.3190 N   0  0  0  0  0  0  0  0  0  0  0  0
  140.8880   74.6540  221.4050 C   0  0  0  0  0  0  0  0  0  0  0  0
  141.7460   74.0780  220.5460 N   0  0  0  0  0  0  0  0  0  0  0  0
  142.0480   72.7640  220.5880 C   0  0  0  0  0  0  0  0  0  0  0  0
  142.9600   72.1720  219.6690 N   0  0  0  0  0  0  0  0  0  0  0  0
  143.3700   72.9410  218.5140 C   0  0  0  0  0  0  0  0  0  0  0  0
  144.7970   73.4210  218.7950 C   0  0  1  0  0  0  0  0  0  0  0  0
  144.7460   74.2330  220.0480 C   0  0  0  0  0  0  0  0  0  0  0  0
  145.5970   73.5430  221.0620 C   0  0  0  0  0  0  0  0  0  0  0  0
  146.1240   72.3250  220.3760 C   0  0  0  0  0  0  0  0  0  0  0  0
  145.6350   72.2880  219.0330 N   0  0  0  0  0  0  0  0  0  0  0  0
  141.4450   72.0390  221.5430 N   0  0  0  0  0  0  0  0  0  0  0  0
  140.5710   72.5560  222.4410 C   0  0  0  0  0  0  0  0  0  0  0  0
  139.9530   71.7540  223.4390 N   0  0  0  0  0  0  0  0  0  0  0  0
  138.6960   71.0990  223.2620 C   0  0  0  0  0  0  0  0  0  0  0  0
  138.9220   69.5970  223.3720 C   0  0  0  0  0  0  0  0  0  0  0  0
  139.5270   69.3600  224.7110 C   0  0  0  0  0  0  0  0  0  0  0  0
  139.2680   68.1460  225.3560 C   0  0  0  0  0  0  0  0  0  0  0  0
  139.8230   67.9050  226.6060 C   0  0  0  0  0  0  0  0  0  0  0  0
  140.6240   68.8610  227.2020 C   0  0  0  0  0  0  0  0  0  0  0  0
  140.8830   70.0500  226.5800 C   0  0  0  0  0  0  0  0  0  0  0  0
  140.3300   70.2880  225.3360 C   0  0  0  0  0  0  0  0  0  0  0  0
  140.6440   71.5960  224.7050 C   0  0  0  0  0  0  0  0  0  0  0  0
  140.3090   73.8880  222.3430 N   0  0  0  0  0  0  0  0  0  0  0  0
  139.7810   76.6760  222.3310 C   0  0  0  0  0  0  0  0  0  0  0  0
  140.7937   81.8942  223.1037 H   0  0  0  0  0  0  0  0  0  0  0  0
  139.0899   80.6948  224.4423 H   0  0  0  0  0  0  0  0  0  0  0  0
  138.6313   78.2886  224.0727 H   0  0  0  0  0  0  0  0  0  0  0  0
  142.0781   80.6419  221.3490 H   0  0  0  0  0  0  0  0  0  0  0  0
  141.9724   78.7737  219.8730 H   0  0  0  0  0  0  0  0  0  0  0  0
  142.7870   77.7858  221.1576 H   0  0  0  0  0  0  0  0  0  0  0  0
  140.2835   77.1468  219.5806 H   0  0  0  0  0  0  0  0  0  0  0  0
  141.8527   76.2377  219.6795 H   0  0  0  0  0  0  0  0  0  0  0  0
  143.3190   71.1940  219.8410 H   0  0  0  0  0  0  0  0  0  0  0  0
  143.3516   72.3113  217.6122 H   0  0  0  0  0  0  0  0  0  0  0  0
  142.6920   73.7896  218.3402 H   0  0  0  0  0  0  0  0  0  0  0  0
  145.1887   74.0017  217.9468 H   0  0  0  0  0  0  0  0  0  0  0  0
  145.1343   75.2443  219.8568 H   0  0  0  0  0  0  0  0  0  0  0  0
  143.7109   74.3264  220.4084 H   0  0  0  0  0  0  0  0  0  0  0  0
  146.4246   74.1952  221.3776 H   0  0  0  0  0  0  0  0  0  0  0  0
  145.0277   73.2878  221.9680 H   0  0  0  0  0  0  0  0  0  0  0  0
  147.2235   72.3563  220.3656 H   0  0  0  0  0  0  0  0  0  0  0  0
  145.7890   71.4260  220.9142 H   0  0  0  0  0  0  0  0  0  0  0  0
  145.2120   71.3970  218.7420 H   0  0  0  0  0  0  0  0  0  0  0  0
  137.9921   71.4276  224.0408 H   0  0  0  0  0  0  0  0  0  0  0  0
  138.2731   71.3484  222.2776 H   0  0  0  0  0  0  0  0  0  0  0  0
  137.9652   69.0611  223.2866 H   0  0  0  0  0  0  0  0  0  0  0  0
  139.5781   69.2325  222.5678 H   0  0  0  0  0  0  0  0  0  0  0  0
  138.6301   67.3886  224.8771 H   0  0  0  0  0  0  0  0  0  0  0  0
  139.6253   66.9537  227.1216 H   0  0  0  0  0  0  0  0  0  0  0  0
  141.0597   68.6617  228.1922 H   0  0  0  0  0  0  0  0  0  0  0  0
  141.5213   70.8054  227.0617 H   0  0  0  0  0  0  0  0  0  0  0  0
  140.3351   72.4041  225.3843 H   0  0  0  0  0  0  0  0  0  0  0  0
  141.7267   71.6371  224.5152 H   0  0  0  0  0  0  0  0  0  0  0  0
  138.7250   76.5806  222.0380 H   0  0  0  0  0  0  0  0  0  0  0  0
  139.9831   76.1708  223.2870 H   0  0  0  0  0  0  0  0  0  0  0  0
  1  2  2  0
  2  3  1  0
  3  4  2  0
  4  5  1  0
  5  6  2  0
  5  7  1  0
  7  8  1  0
  8  9  1  0
  9 10  1  0
 10 11  2  0
 11 12  1  0
 12 13  1  0
 13 14  1  0
 14 15  1  0
 15 16  1  0
 16 17  1  0
 17 18  1  0
 18 19  1  0
 12 20  2  0
 20 21  1  0
 21 22  1  0
 22 23  1  0
 23 24  1  0
 24 25  1  0
 25 26  2  0
 26 27  1  0
 27 28  2  0
 28 29  1  0
 29 30  2  0
 30 31  1  0
 21 32  2  0
  9 33  1  0
  6  1  1  0
 32 10  1  0
 33  4  1  0
 19 15  1  0
 31 22  1  0
 30 25  1  0
  1 34  1  0
  2 35  1  0
  3 36  1  0
  6 37  1  0
  7 38  1  0
  7 39  1  0
  8 40  1  0
  8 41  1  0
 13 42  1  0
 14 43  1  0
 14 44  1  0
 15 45  1  6
 16 46  1  0
 16 47  1  0
 17 48  1  0
 17 49  1  0
 18 50  1  0
 18 51  1  0
 19 52  1  0
 23 53  1  0
 23 54  1  0
 24 55  1  0
 24 56  1  0
 26 57  1  0
 27 58  1  0
 28 59  1  0
 29 60  1  0
 31 61  1  0
 31 62  1  0
 33 63  1  0
 33 64  1  0
M  END
>  <smiles>  (90) 
c1ccc2c(c1)CCN(c1nc(NCC3CCCN3)nc(N3CCc4ccccc4C3)n1)C2

>  <score_type>  (90) 
oracle

>  <origin>  (90) 
autodockgpu

>  <m_score__min__energy>  (90) 
-10.77

>  <m_primary>  (90) 
energy

>  <rmsd>  (90) 
4.943180953459167

>  <m_score__min__rmsd>  (90) 
4.943180953459167

>  <meeko>  (90) 
{"free_energy": -9.87, "intermolecular_energy": -11.36, "internal_energy": -1.38, "cluster_size": 47, "cluster_id": 1, "rank_in_cluster": 24}

>  <energy>  (90) 
-9.34

>  <cluster_rmsd>  (90) 
0.84

>  <cluster>  (90) 
1

$$$$

     RDKit          3D

 64 69  0  0  0  0  0  0  0  0999 V2000
  141.4650   80.4470  221.8720 C   0  0  0  0  0  0  0  0  0  0  0  0
  140.8120   79.9800  222.9970 C   0  0  0  0  0  0  0  0  0  0  0  0
  140.4860   78.6390  223.1480 C   0  0  0  0  0  0  0  0  0  0  0  0
  140.8180   77.7390  222.1570 C   0  0  0  0  0  0  0  0  0  0  0  0
  141.4690   78.2140  221.0410 C   0  0  0  0  0  0  0  0  0  0  0  0
  141.8030   79.5480  220.8700 C   0  0  0  0  0  0  0  0  0  0  0  0
  141.8490   77.2880  219.9420 C   0  0  0  0  0  0  0  0  0  0  0  0
  141.0080   76.0340  219.9500 C   0  0  0  0  0  0  0  0  0  0  0  0
  140.8770   75.4730  221.2800 N   0  0  0  0  0  0  0  0  0  0  0  0
  141.1630   74.1000  221.5270 C   0  0  0  0  0  0  0  0  0  0  0  0
  142.1280   73.4680  220.8390 N   0  0  0  0  0  0  0  0  0  0  0  0
  142.4350   72.1690  221.0380 C   0  0  0  0  0  0  0  0  0  0  0  0
  143.4620   71.5170  220.3000 N   0  0  0  0  0  0  0  0  0  0  0  0
  143.7190   71.9530  218.9450 C   0  0  0  0  0  0  0  0  0  0  0  0
  145.0260   72.7520  218.9850 C   0  0  1  0  0  0  0  0  0  0  0  0
  144.7010   74.0900  219.5630 C   0  0  0  0  0  0  0  0  0  0  0  0
  145.4740   74.2260  220.8350 C   0  0  0  0  0  0  0  0  0  0  0  0
  146.2320   72.9460  220.9770 C   0  0  0  0  0  0  0  0  0  0  0  0
  145.9480   72.1000  219.8610 N   0  0  0  0  0  0  0  0  0  0  0  0
  141.7200   71.5200  221.9710 N   0  0  0  0  0  0  0  0  0  0  0  0
  140.7330   72.0970  222.7000 C   0  0  0  0  0  0  0  0  0  0  0  0
  140.0000   71.3730  223.6800 N   0  0  0  0  0  0  0  0  0  0  0  0
  138.8660   70.5570  223.3770 C   0  0  0  0  0  0  0  0  0  0  0  0
  139.1960   69.1220  223.7640 C   0  0  0  0  0  0  0  0  0  0  0  0
  139.5370   69.1450  225.2130 C   0  0  0  0  0  0  0  0  0  0  0  0
  139.2610   68.0110  225.9830 C   0  0  0  0  0  0  0  0  0  0  0  0
  139.5710   68.0110  227.3370 C   0  0  0  0  0  0  0  0  0  0  0  0
  140.1480   69.1280  227.9120 C   0  0  0  0  0  0  0  0  0  0  0  0
  140.4220   70.2410  227.1690 C   0  0  0  0  0  0  0  0  0  0  0  0
  140.1120   70.2390  225.8220 C   0  0  0  0  0  0  0  0  0  0  0  0
  140.4310   71.4750  225.0610 C   0  0  0  0  0  0  0  0  0  0  0  0
  140.4750   73.4080  222.4500 N   0  0  0  0  0  0  0  0  0  0  0  0
  140.4490   76.3270  222.3670 C   0  0  0  0  0  0  0  0  0  0  0  0
  141.7129   81.5141  221.7723 H   0  0  0  0  0  0  0  0  0  0  0  0
  140.5435   80.6894  223.7936 H   0  0  0  0  0  0  0  0  0  0  0  0
  139.9652   78.2958  224.0540 H   0  0  0  0  0  0  0  0  0  0  0  0
  142.3235   79.8863  219.9619 H   0  0  0  0  0  0  0  0  0  0  0  0
  141.7121   77.8025  218.9794 H   0  0  0  0  0  0  0  0  0  0  0  0
  142.8995   76.9963  220.0882 H   0  0  0  0  0  0  0  0  0  0  0  0
  140.0057   76.2768  219.5673 H   0  0  0  0  0  0  0  0  0  0  0  0
  141.5078   75.2873  219.3155 H   0  0  0  0  0  0  0  0  0  0  0  0
  144.0140   70.7360  220.7460 H   0  0  0  0  0  0  0  0  0  0  0  0
  143.8255   71.0834  218.2798 H   0  0  0  0  0  0  0  0  0  0  0  0
  142.8902   72.5655  218.5605 H   0  0  0  0  0  0  0  0  0  0  0  0
  145.4650   72.8362  217.9799 H   0  0  0  0  0  0  0  0  0  0  0  0
  144.9915   74.8842  218.8596 H   0  0  0  0  0  0  0  0  0  0  0  0
  143.6212   74.1797  219.7527 H   0  0  0  0  0  0  0  0  0  0  0  0
  146.1663   75.0788  220.7754 H   0  0  0  0  0  0  0  0  0  0  0  0
  144.8152   74.4093  221.6966 H   0  0  0  0  0  0  0  0  0  0  0  0
  147.3105   73.1599  221.0103 H   0  0  0  0  0  0  0  0  0  0  0  0
  145.9303   72.4415  221.9067 H   0  0  0  0  0  0  0  0  0  0  0  0
  145.6770   71.1350  220.0960 H   0  0  0  0  0  0  0  0  0  0  0  0
  137.9931   70.9055  223.9484 H   0  0  0  0  0  0  0  0  0  0  0  0
  138.6304   70.6168  222.3042 H   0  0  0  0  0  0  0  0  0  0  0  0
  138.3269   68.4711  223.5880 H   0  0  0  0  0  0  0  0  0  0  0  0
  140.0303   68.7291  223.1643 H   0  0  0  0  0  0  0  0  0  0  0  0
  138.8017   67.1253  225.5199 H   0  0  0  0  0  0  0  0  0  0  0  0
  139.3577   67.1235  227.9509 H   0  0  0  0  0  0  0  0  0  0  0  0
  140.3903   69.1204  228.9850 H   0  0  0  0  0  0  0  0  0  0  0  0
  140.8820   71.1248  227.6352 H   0  0  0  0  0  0  0  0  0  0  0  0
  139.9207   72.3275  225.5330 H   0  0  0  0  0  0  0  0  0  0  0  0
  141.5217   71.6170  225.0734 H   0  0  0  0  0  0  0  0  0  0  0  0
  139.3550   76.2586  222.4592 H   0  0  0  0  0  0  0  0  0  0  0  0
  140.9552   75.9825  223.2809 H   0  0  0  0  0  0  0  0  0  0  0  0
  1  2  2  0
  2  3  1  0
  3  4  2  0
  4  5  1  0
  5  6  2  0
  5  7  1  0
  7  8  1  0
  8  9  1  0
  9 10  1  0
 10 11  2  0
 11 12  1  0
 12 13  1  0
 13 14  1  0
 14 15  1  0
 15 16  1  0
 16 17  1  0
 17 18  1  0
 18 19  1  0
 12 20  2  0
 20 21  1  0
 21 22  1  0
 22 23  1  0
 23 24  1  0
 24 25  1  0
 25 26  2  0
 26 27  1  0
 27 28  2  0
 28 29  1  0
 29 30  2  0
 30 31  1  0
 21 32  2  0
  9 33  1  0
  6  1  1  0
 32 10  1  0
 33  4  1  0
 19 15  1  0
 31 22  1  0
 30 25  1  0
  1 34  1  0
  2 35  1  0
  3 36  1  0
  6 37  1  0
  7 38  1  0
  7 39  1  0
  8 40  1  0
  8 41  1  0
 13 42  1  0
 14 43  1  0
 14 44  1  0
 15 45  1  6
 16 46  1  0
 16 47  1  0
 17 48  1  0
 17 49  1  0
 18 50  1  0
 18 51  1  0
 19 52  1  0
 23 53  1  0
 23 54  1  0
 24 55  1  0
 24 56  1  0
 26 57  1  0
 27 58  1  0
 28 59  1  0
 29 60  1  0
 31 61  1  0
 31 62  1  0
 33 63  1  0
 33 64  1  0
M  END
>  <smiles>  (91) 
c1ccc2c(c1)CCN(c1nc(NCC3CCCN3)nc(N3CCc4ccccc4C3)n1)C2

>  <score_type>  (91) 
oracle

>  <origin>  (91) 
autodockgpu

>  <m_score__min__energy>  (91) 
-10.77

>  <m_primary>  (91) 
energy

>  <rmsd>  (91) 
4.423144332575567

>  <m_score__min__rmsd>  (91) 
4.423144332575567

>  <meeko>  (91) 
{"free_energy": -10.21, "intermolecular_energy": -11.7, "internal_energy": -1.62, "cluster_size": 47, "cluster_id": 1, "rank_in_cluster": 7}

>  <energy>  (91) 
-9.28

>  <cluster_rmsd>  (91) 
0.75

>  <cluster>  (91) 
1

$$$$

     RDKit          3D

 64 69  0  0  0  0  0  0  0  0999 V2000
  141.5120   80.4480  221.7650 C   0  0  0  0  0  0  0  0  0  0  0  0
  140.8810   79.9970  222.9090 C   0  0  0  0  0  0  0  0  0  0  0  0
  140.5560   78.6580  223.0840 C   0  0  0  0  0  0  0  0  0  0  0  0
  140.8670   77.7450  222.0980 C   0  0  0  0  0  0  0  0  0  0  0  0
  141.4960   78.2040  220.9630 C   0  0  0  0  0  0  0  0  0  0  0  0
  141.8290   79.5350  220.7680 C   0  0  0  0  0  0  0  0  0  0  0  0
  141.8530   77.2640  219.8690 C   0  0  0  0  0  0  0  0  0  0  0  0
  141.0120   76.0110  219.9100 C   0  0  0  0  0  0  0  0  0  0  0  0
  140.9060   75.4680  221.2480 N   0  0  0  0  0  0  0  0  0  0  0  0
  141.1940   74.0980  221.5070 C   0  0  0  0  0  0  0  0  0  0  0  0
  142.1600   73.4610  220.8240 N   0  0  0  0  0  0  0  0  0  0  0  0
  142.4690   72.1650  221.0340 C   0  0  0  0  0  0  0  0  0  0  0  0
  143.4960   71.5080  220.2990 N   0  0  0  0  0  0  0  0  0  0  0  0
  143.7480   71.9320  218.9400 C   0  0  0  0  0  0  0  0  0  0  0  0
  145.0440   72.7500  218.9720 C   0  0  1  0  0  0  0  0  0  0  0  0
  144.6950   74.0960  219.5180 C   0  0  0  0  0  0  0  0  0  0  0  0
  145.4550   74.2710  220.7930 C   0  0  0  0  0  0  0  0  0  0  0  0
  146.2300   73.0060  220.9690 C   0  0  0  0  0  0  0  0  0  0  0  0
  145.9670   72.1310  219.8700 N   0  0  0  0  0  0  0  0  0  0  0  0
  141.7570   71.5230  221.9740 N   0  0  0  0  0  0  0  0  0  0  0  0
  140.7710   72.1040  222.6990 C   0  0  0  0  0  0  0  0  0  0  0  0
  140.0410   71.3890  223.6870 N   0  0  0  0  0  0  0  0  0  0  0  0
  138.9180   70.5550  223.3930 C   0  0  0  0  0  0  0  0  0  0  0  0
  139.2620   69.1300  223.8040 C   0  0  0  0  0  0  0  0  0  0  0  0
  139.5960   69.1800  225.2550 C   0  0  0  0  0  0  0  0  0  0  0  0
  139.3290   68.0560  226.0410 C   0  0  0  0  0  0  0  0  0  0  0  0
  139.6320   68.0810  227.3970 C   0  0  0  0  0  0  0  0  0  0  0  0
  140.1940   69.2130  227.9560 C   0  0  0  0  0  0  0  0  0  0  0  0
  140.4590   70.3180  227.1970 C   0  0  0  0  0  0  0  0  0  0  0  0
  140.1560   70.2900  225.8480 C   0  0  0  0  0  0  0  0  0  0  0  0
  140.4650   71.5170  225.0690 C   0  0  0  0  0  0  0  0  0  0  0  0
  140.5100   73.4130  222.4380 N   0  0  0  0  0  0  0  0  0  0  0  0
  140.5010   76.3360  222.3330 C   0  0  0  0  0  0  0  0  0  0  0  0
  141.7591   81.5133  221.6462 H   0  0  0  0  0  0  0  0  0  0  0  0
  140.6296   80.7173  223.7015 H   0  0  0  0  0  0  0  0  0  0  0  0
  140.0529   78.3272  224.0046 H   0  0  0  0  0  0  0  0  0  0  0  0
  142.3323   79.8604  219.8456 H   0  0  0  0  0  0  0  0  0  0  0  0
  141.6969   77.7662  218.9029 H   0  0  0  0  0  0  0  0  0  0  0  0
  142.9061   76.9734  219.9978 H   0  0  0  0  0  0  0  0  0  0  0  0
  140.0027   76.2494  219.5433 H   0  0  0  0  0  0  0  0  0  0  0  0
  141.4996   75.2556  219.2762 H   0  0  0  0  0  0  0  0  0  0  0  0
  144.0500   70.7310  220.7510 H   0  0  0  0  0  0  0  0  0  0  0  0
  143.8674   71.0565  218.2848 H   0  0  0  0  0  0  0  0  0  0  0  0
  142.9110   72.5284  218.5479 H   0  0  0  0  0  0  0  0  0  0  0  0
  145.4904   72.8179  217.9690 H   0  0  0  0  0  0  0  0  0  0  0  0
  144.9801   74.8788  218.7997 H   0  0  0  0  0  0  0  0  0  0  0  0
  143.6125   74.1742  219.6969 H   0  0  0  0  0  0  0  0  0  0  0  0
  146.1353   75.1323  220.7205 H   0  0  0  0  0  0  0  0  0  0  0  0
  144.7863   74.4633  221.6450 H   0  0  0  0  0  0  0  0  0  0  0  0
  147.3050   73.2363  221.0055 H   0  0  0  0  0  0  0  0  0  0  0  0
  145.9282   72.5179  221.9075 H   0  0  0  0  0  0  0  0  0  0  0  0
  145.7090   71.1680  220.1250 H   0  0  0  0  0  0  0  0  0  0  0  0
  138.0389   70.9026  223.9554 H   0  0  0  0  0  0  0  0  0  0  0  0
  138.6867   70.5947  222.3183 H   0  0  0  0  0  0  0  0  0  0  0  0
  138.4010   68.4667  223.6344 H   0  0  0  0  0  0  0  0  0  0  0  0
  140.1033   68.7369  223.2144 H   0  0  0  0  0  0  0  0  0  0  0  0
  138.8822   67.1579  225.5897 H   0  0  0  0  0  0  0  0  0  0  0  0
  139.4249   67.2014  228.0242 H   0  0  0  0  0  0  0  0  0  0  0  0
  140.4320   69.2247  229.0299 H   0  0  0  0  0  0  0  0  0  0  0  0
  140.9058   71.2146  227.6514 H   0  0  0  0  0  0  0  0  0  0  0  0
  139.9435   72.3712  225.5254 H   0  0  0  0  0  0  0  0  0  0  0  0
  141.5541   71.6706  225.0836 H   0  0  0  0  0  0  0  0  0  0  0  0
  139.4091   76.2700  222.4483 H   0  0  0  0  0  0  0  0  0  0  0  0
  141.0253   76.0022  223.2405 H   0  0  0  0  0  0  0  0  0  0  0  0
  1  2  2  0
  2  3  1  0
  3  4  2  0
  4  5  1  0
  5  6  2  0
  5  7  1  0
  7  8  1  0
  8  9  1  0
  9 10  1  0
 10 11  2  0
 11 12  1  0
 12 13  1  0
 13 14  1  0
 14 15  1  0
 15 16  1  0
 16 17  1  0
 17 18  1  0
 18 19  1  0
 12 20  2  0
 20 21  1  0
 21 22  1  0
 22 23  1  0
 23 24  1  0
 24 25  1  0
 25 26  2  0
 26 27  1  0
 27 28  2  0
 28 29  1  0
 29 30  2  0
 30 31  1  0
 21 32  2  0
  9 33  1  0
  6  1  1  0
 32 10  1  0
 33  4  1  0
 19 15  1  0
 31 22  1  0
 30 25  1  0
  1 34  1  0
  2 35  1  0
  3 36  1  0
  6 37  1  0
  7 38  1  0
  7 39  1  0
  8 40  1  0
  8 41  1  0
 13 42  1  0
 14 43  1  0
 14 44  1  0
 15 45  1  6
 16 46  1  0
 16 47  1  0
 17 48  1  0
 17 49  1  0
 18 50  1  0
 18 51  1  0
 19 52  1  0
 23 53  1  0
 23 54  1  0
 24 55  1  0
 24 56  1  0
 26 57  1  0
 27 58  1  0
 28 59  1  0
 29 60  1  0
 31 61  1  0
 31 62  1  0
 33 63  1  0
 33 64  1  0
M  END
>  <smiles>  (92) 
c1ccc2c(c1)CCN(c1nc(NCC3CCCN3)nc(N3CCc4ccccc4C3)n1)C2

>  <score_type>  (92) 
oracle

>  <origin>  (92) 
autodockgpu

>  <m_score__min__energy>  (92) 
-10.77

>  <m_primary>  (92) 
energy

>  <rmsd>  (92) 
4.380156398218887

>  <m_score__min__rmsd>  (92) 
4.380156398218887

>  <meeko>  (92) 
{"free_energy": -10.19, "intermolecular_energy": -11.68, "internal_energy": -1.62, "cluster_size": 47, "cluster_id": 1, "rank_in_cluster": 8}

>  <energy>  (92) 
-9.23

>  <cluster_rmsd>  (92) 
0.82

>  <cluster>  (92) 
1

$$$$

     RDKit          3D

 64 69  0  0  0  0  0  0  0  0999 V2000
  142.3510   80.7800  222.6450 C   0  0  0  0  0  0  0  0  0  0  0  0
  141.9610   80.1720  223.8230 C   0  0  0  0  0  0  0  0  0  0  0  0
  141.4300   78.8890  223.8410 C   0  0  0  0  0  0  0  0  0  0  0  0
  141.2820   78.1940  222.6590 C   0  0  0  0  0  0  0  0  0  0  0  0
  141.6740   78.8080  221.4910 C   0  0  0  0  0  0  0  0  0  0  0  0
  142.2070   80.0870  221.4510 C   0  0  0  0  0  0  0  0  0  0  0  0
  141.5370   78.1050  220.1890 C   0  0  0  0  0  0  0  0  0  0  0  0
  140.5000   77.0100  220.2500 C   0  0  0  0  0  0  0  0  0  0  0  0
  140.6380   76.1920  221.4390 N   0  0  0  0  0  0  0  0  0  0  0  0
  140.7010   74.7730  221.3480 C   0  0  0  0  0  0  0  0  0  0  0  0
  141.2330   74.1800  220.2660 N   0  0  0  0  0  0  0  0  0  0  0  0
  141.3150   72.8400  220.1350 C   0  0  0  0  0  0  0  0  0  0  0  0
  141.8830   72.2300  218.9820 N   0  0  0  0  0  0  0  0  0  0  0  0
  143.3130   72.3220  218.7890 C   0  0  0  0  0  0  0  0  0  0  0  0
  143.9240   72.5780  220.1700 C   0  0  1  0  0  0  0  0  0  0  0  0
  145.3470   72.1270  220.1080 C   0  0  0  0  0  0  0  0  0  0  0  0
  146.2060   73.3250  220.3520 C   0  0  0  0  0  0  0  0  0  0  0  0
  145.2560   74.4620  220.5430 C   0  0  0  0  0  0  0  0  0  0  0  0
  143.9140   73.9830  220.4350 N   0  0  0  0  0  0  0  0  0  0  0  0
  140.8320   72.1060  221.1510 N   0  0  0  0  0  0  0  0  0  0  0  0
  140.2820   72.6400  222.2690 C   0  0  0  0  0  0  0  0  0  0  0  0
  139.7820   71.8280  223.3240 N   0  0  0  0  0  0  0  0  0  0  0  0
  138.6290   70.9930  223.2010 C   0  0  0  0  0  0  0  0  0  0  0  0
  139.0620   69.5480  223.4090 C   0  0  0  0  0  0  0  0  0  0  0  0
  139.6940   69.4880  224.7560 C   0  0  0  0  0  0  0  0  0  0  0  0
  139.6070   68.2960  225.4820 C   0  0  0  0  0  0  0  0  0  0  0  0
  140.1890   68.2190  226.7410 C   0  0  0  0  0  0  0  0  0  0  0  0
  140.8480   69.3150  227.2640 C   0  0  0  0  0  0  0  0  0  0  0  0
  140.9390   70.4840  226.5630 C   0  0  0  0  0  0  0  0  0  0  0  0
  140.3590   70.5590  225.3110 C   0  0  0  0  0  0  0  0  0  0  0  0
  140.4870   71.8530  224.5910 C   0  0  0  0  0  0  0  0  0  0  0  0
  140.2310   73.9970  222.3380 N   0  0  0  0  0  0  0  0  0  0  0  0
  140.7130   76.8350  222.7330 C   0  0  0  0  0  0  0  0  0  0  0  0
  142.7691   81.7974  222.6534 H   0  0  0  0  0  0  0  0  0  0  0  0
  142.0741   80.7184  224.7710 H   0  0  0  0  0  0  0  0  0  0  0  0
  141.1288   78.4291  224.7938 H   0  0  0  0  0  0  0  0  0  0  0  0
  142.5086   80.5418  220.4959 H   0  0  0  0  0  0  0  0  0  0  0  0
  141.2406   78.8338  219.4202 H   0  0  0  0  0  0  0  0  0  0  0  0
  142.5060   77.6452  219.9449 H   0  0  0  0  0  0  0  0  0  0  0  0
  139.5001   77.4684  220.2492 H   0  0  0  0  0  0  0  0  0  0  0  0
  140.6426   76.3601  219.3740 H   0  0  0  0  0  0  0  0  0  0  0  0
  141.2610   71.7260  218.2930 H   0  0  0  0  0  0  0  0  0  0  0  0
  143.7010   71.3816  218.3704 H   0  0  0  0  0  0  0  0  0  0  0  0
  143.5679   73.1288  218.0861 H   0  0  0  0  0  0  0  0  0  0  0  0
  143.3601   72.0481  220.9518 H   0  0  0  0  0  0  0  0  0  0  0  0
  145.5344   71.3663  220.8802 H   0  0  0  0  0  0  0  0  0  0  0  0
  145.5710   71.6814  219.1276 H   0  0  0  0  0  0  0  0  0  0  0  0
  146.8202   73.1811  221.2532 H   0  0  0  0  0  0  0  0  0  0  0  0
  146.9000   73.5074  219.5183 H   0  0  0  0  0  0  0  0  0  0  0  0
  145.4087   74.9044  221.5385 H   0  0  0  0  0  0  0  0  0  0  0  0
  145.4368   75.2251  219.7717 H   0  0  0  0  0  0  0  0  0  0  0  0
  143.3050   74.5150  219.7990 H   0  0  0  0  0  0  0  0  0  0  0  0
  137.8849   71.2717  223.9617 H   0  0  0  0  0  0  0  0  0  0  0  0
  138.1773   71.1141  222.2054 H   0  0  0  0  0  0  0  0  0  0  0  0
  138.1892   68.8797  223.3682 H   0  0  0  0  0  0  0  0  0  0  0  0
  139.7628   69.2250  222.6251 H   0  0  0  0  0  0  0  0  0  0  0  0
  139.0820   67.4265  225.0596 H   0  0  0  0  0  0  0  0  0  0  0  0
  140.1253   67.2865  227.3209 H   0  0  0  0  0  0  0  0  0  0  0  0
  141.3069   69.2451  228.2612 H   0  0  0  0  0  0  0  0  0  0  0  0
  141.4653   71.3513  226.9882 H   0  0  0  0  0  0  0  0  0  0  0  0
  140.0676   72.6538  225.2177 H   0  0  0  0  0  0  0  0  0  0  0  0
  141.5535   72.0317  224.3892 H   0  0  0  0  0  0  0  0  0  0  0  0
  139.6986   76.9002  223.1533 H   0  0  0  0  0  0  0  0  0  0  0  0
  141.3770   76.2299  223.3677 H   0  0  0  0  0  0  0  0  0  0  0  0
  1  2  2  0
  2  3  1  0
  3  4  2  0
  4  5  1  0
  5  6  2  0
  5  7  1  0
  7  8  1  0
  8  9  1  0
  9 10  1  0
 10 11  2  0
 11 12  1  0
 12 13  1  0
 13 14  1  0
 14 15  1  0
 15 16  1  0
 16 17  1  0
 17 18  1  0
 18 19  1  0
 12 20  2  0
 20 21  1  0
 21 22  1  0
 22 23  1  0
 23 24  1  0
 24 25  1  0
 25 26  2  0
 26 27  1  0
 27 28  2  0
 28 29  1  0
 29 30  2  0
 30 31  1  0
 21 32  2  0
  9 33  1  0
  6  1  1  0
 32 10  1  0
 33  4  1  0
 19 15  1  0
 31 22  1  0
 30 25  1  0
  1 34  1  0
  2 35  1  0
  3 36  1  0
  6 37  1  0
  7 38  1  0
  7 39  1  0
  8 40  1  0
  8 41  1  0
 13 42  1  0
 14 43  1  0
 14 44  1  0
 15 45  1  1
 16 46  1  0
 16 47  1  0
 17 48  1  0
 17 49  1  0
 18 50  1  0
 18 51  1  0
 19 52  1  0
 23 53  1  0
 23 54  1  0
 24 55  1  0
 24 56  1  0
 26 57  1  0
 27 58  1  0
 28 59  1  0
 29 60  1  0
 31 61  1  0
 31 62  1  0
 33 63  1  0
 33 64  1  0
M  END
>  <smiles>  (93) 
c1ccc2c(c1)CCN(c1nc(NCC3CCCN3)nc(N3CCc4ccccc4C3)n1)C2

>  <score_type>  (93) 
oracle

>  <origin>  (93) 
autodockgpu

>  <m_score__min__energy>  (93) 
-10.77

>  <m_primary>  (93) 
energy

>  <rmsd>  (93) 
4.901856423362318

>  <m_score__min__rmsd>  (93) 
4.901856423362318

>  <meeko>  (93) 
{"free_energy": -9.68, "intermolecular_energy": -11.18, "internal_energy": -1.83, "cluster_size": 47, "cluster_id": 1, "rank_in_cluster": 28}

>  <energy>  (93) 
-9.19

>  <cluster_rmsd>  (93) 
1.06

>  <cluster>  (93) 
1

$$$$

     RDKit          3D

 64 69  0  0  0  0  0  0  0  0999 V2000
  142.4030   80.8140  222.6400 C   0  0  0  0  0  0  0  0  0  0  0  0
  142.0350   80.1950  223.8200 C   0  0  0  0  0  0  0  0  0  0  0  0
  141.4900   78.9180  223.8350 C   0  0  0  0  0  0  0  0  0  0  0  0
  141.3050   78.2400  222.6490 C   0  0  0  0  0  0  0  0  0  0  0  0
  141.6750   78.8650  221.4790 C   0  0  0  0  0  0  0  0  0  0  0  0
  142.2210   80.1380  221.4420 C   0  0  0  0  0  0  0  0  0  0  0  0
  141.4980   78.1800  220.1720 C   0  0  0  0  0  0  0  0  0  0  0  0
  140.4500   77.0960  220.2450 C   0  0  0  0  0  0  0  0  0  0  0  0
  140.6080   76.2620  221.4200 N   0  0  0  0  0  0  0  0  0  0  0  0
  140.6530   74.8430  221.3090 C   0  0  0  0  0  0  0  0  0  0  0  0
  141.1340   74.2580  220.1990 N   0  0  0  0  0  0  0  0  0  0  0  0
  141.1960   72.9190  220.0490 C   0  0  0  0  0  0  0  0  0  0  0  0
  141.7090   72.3180  218.8660 N   0  0  0  0  0  0  0  0  0  0  0  0
  143.1430   72.1990  218.7210 C   0  0  0  0  0  0  0  0  0  0  0  0
  143.7440   72.4530  220.1070 C   0  0  1  0  0  0  0  0  0  0  0  0
  145.1440   71.9320  220.0780 C   0  0  0  0  0  0  0  0  0  0  0  0
  146.0570   73.0910  220.3120 C   0  0  0  0  0  0  0  0  0  0  0  0
  145.1610   74.2770  220.4650 C   0  0  0  0  0  0  0  0  0  0  0  0
  143.7990   73.8620  220.3440 N   0  0  0  0  0  0  0  0  0  0  0  0
  140.7480   72.1780  221.0750 N   0  0  0  0  0  0  0  0  0  0  0  0
  140.2510   72.7030  222.2220 C   0  0  0  0  0  0  0  0  0  0  0  0
  139.7870   71.8830  223.2860 N   0  0  0  0  0  0  0  0  0  0  0  0
  138.5880   71.1060  223.2230 C   0  0  0  0  0  0  0  0  0  0  0  0
  138.9660   69.6370  223.3590 C   0  0  0  0  0  0  0  0  0  0  0  0
  139.6860   69.5070  224.6560 C   0  0  0  0  0  0  0  0  0  0  0  0
  139.5920   68.2990  225.3540 C   0  0  0  0  0  0  0  0  0  0  0  0
  140.2560   68.1560  226.5660 C   0  0  0  0  0  0  0  0  0  0  0  0
  141.0010   69.2040  227.0710 C   0  0  0  0  0  0  0  0  0  0  0  0
  141.1000   70.3880  226.3980 C   0  0  0  0  0  0  0  0  0  0  0  0
  140.4380   70.5290  225.1920 C   0  0  0  0  0  0  0  0  0  0  0  0
  140.5780   71.8370  224.5010 C   0  0  0  0  0  0  0  0  0  0  0  0
  140.2160   74.0600  222.3090 N   0  0  0  0  0  0  0  0  0  0  0  0
  140.7220   76.8870  222.7200 C   0  0  0  0  0  0  0  0  0  0  0  0
  142.8332   81.8263  222.6506 H   0  0  0  0  0  0  0  0  0  0  0  0
  142.1776   80.7279  224.7717 H   0  0  0  0  0  0  0  0  0  0  0  0
  141.2071   78.4493  224.7891 H   0  0  0  0  0  0  0  0  0  0  0  0
  142.5035   80.6018  220.4854 H   0  0  0  0  0  0  0  0  0  0  0  0
  141.1913   78.9218  219.4198 H   0  0  0  0  0  0  0  0  0  0  0  0
  142.4553   77.7124  219.8985 H   0  0  0  0  0  0  0  0  0  0  0  0
  139.4557   77.5656  220.2746 H   0  0  0  0  0  0  0  0  0  0  0  0
  140.5632   76.4556  219.3578 H   0  0  0  0  0  0  0  0  0  0  0  0
  141.0460   71.9720  218.1210 H   0  0  0  0  0  0  0  0  0  0  0  0
  143.4070   71.1899  218.3717 H   0  0  0  0  0  0  0  0  0  0  0  0
  143.5287   72.9176  217.9829 H   0  0  0  0  0  0  0  0  0  0  0  0
  143.1424   71.9672  220.8894 H   0  0  0  0  0  0  0  0  0  0  0  0
  145.2815   71.1795  220.8684 H   0  0  0  0  0  0  0  0  0  0  0  0
  145.3612   71.4557  219.1105 H   0  0  0  0  0  0  0  0  0  0  0  0
  146.6496   72.9359  221.2257 H   0  0  0  0  0  0  0  0  0  0  0  0
  146.7719   73.2220  219.4863 H   0  0  0  0  0  0  0  0  0  0  0  0
  145.3196   74.7315  221.4541 H   0  0  0  0  0  0  0  0  0  0  0  0
  145.3911   75.0146  219.6821 H   0  0  0  0  0  0  0  0  0  0  0  0
  143.2270   74.4100  219.6870 H   0  0  0  0  0  0  0  0  0  0  0  0
  137.9137   71.3945  224.0428 H   0  0  0  0  0  0  0  0  0  0  0  0
  138.0726   71.2790  222.2668 H   0  0  0  0  0  0  0  0  0  0  0  0
  138.0621   69.0101  223.3610 H   0  0  0  0  0  0  0  0  0  0  0  0
  139.5948   69.3074  222.5188 H   0  0  0  0  0  0  0  0  0  0  0  0
  138.9969   67.4684  224.9467 H   0  0  0  0  0  0  0  0  0  0  0  0
  140.1886   67.2096  227.1227 H   0  0  0  0  0  0  0  0  0  0  0  0
  141.5233   69.0827  228.0315 H   0  0  0  0  0  0  0  0  0  0  0  0
  141.6965   71.2161  226.8084 H   0  0  0  0  0  0  0  0  0  0  0  0
  140.2413   72.6365  225.1773 H   0  0  0  0  0  0  0  0  0  0  0  0
  141.6354   71.9731  224.2301 H   0  0  0  0  0  0  0  0  0  0  0  0
  139.7190   76.9584  223.1659 H   0  0  0  0  0  0  0  0  0  0  0  0
  141.3939   76.2660  223.3308 H   0  0  0  0  0  0  0  0  0  0  0  0
  1  2  2  0
  2  3  1  0
  3  4  2  0
  4  5  1  0
  5  6  2  0
  5  7  1  0
  7  8  1  0
  8  9  1  0
  9 10  1  0
 10 11  2  0
 11 12  1  0
 12 13  1  0
 13 14  1  0
 14 15  1  0
 15 16  1  0
 16 17  1  0
 17 18  1  0
 18 19  1  0
 12 20  2  0
 20 21  1  0
 21 22  1  0
 22 23  1  0
 23 24  1  0
 24 25  1  0
 25 26  2  0
 26 27  1  0
 27 28  2  0
 28 29  1  0
 29 30  2  0
 30 31  1  0
 21 32  2  0
  9 33  1  0
  6  1  1  0
 32 10  1  0
 33  4  1  0
 19 15  1  0
 31 22  1  0
 30 25  1  0
  1 34  1  0
  2 35  1  0
  3 36  1  0
  6 37  1  0
  7 38  1  0
  7 39  1  0
  8 40  1  0
  8 41  1  0
 13 42  1  0
 14 43  1  0
 14 44  1  0
 15 45  1  1
 16 46  1  0
 16 47  1  0
 17 48  1  0
 17 49  1  0
 18 50  1  0
 18 51  1  0
 19 52  1  0
 23 53  1  0
 23 54  1  0
 24 55  1  0
 24 56  1  0
 26 57  1  0
 27 58  1  0
 28 59  1  0
 29 60  1  0
 31 61  1  0
 31 62  1  0
 33 63  1  0
 33 64  1  0
M  END
>  <smiles>  (94) 
c1ccc2c(c1)CCN(c1nc(NCC3CCCN3)nc(N3CCc4ccccc4C3)n1)C2

>  <score_type>  (94) 
oracle

>  <origin>  (94) 
autodockgpu

>  <m_score__min__energy>  (94) 
-10.77

>  <m_primary>  (94) 
energy

>  <rmsd>  (94) 
4.915674911759649

>  <m_score__min__rmsd>  (94) 
4.915674911759649

>  <meeko>  (94) 
{"free_energy": -9.6, "intermolecular_energy": -11.09, "internal_energy": -1.78, "cluster_size": 47, "cluster_id": 1, "rank_in_cluster": 32}

>  <energy>  (94) 
-9.17

>  <cluster_rmsd>  (94) 
0.71

>  <cluster>  (94) 
1

$$$$

     RDKit          3D

 64 69  0  0  0  0  0  0  0  0999 V2000
  142.2010   80.9410  222.6880 C   0  0  0  0  0  0  0  0  0  0  0  0
  141.7460   80.3350  223.8450 C   0  0  0  0  0  0  0  0  0  0  0  0
  141.2600   79.0340  223.8450 C   0  0  0  0  0  0  0  0  0  0  0  0
  141.2230   78.3190  222.6660 C   0  0  0  0  0  0  0  0  0  0  0  0
  141.6780   78.9310  221.5200 C   0  0  0  0  0  0  0  0  0  0  0  0
  142.1680   80.2270  221.4980 C   0  0  0  0  0  0  0  0  0  0  0  0
  141.6600   78.2060  220.2230 C   0  0  0  0  0  0  0  0  0  0  0  0
  140.6600   77.0750  220.2270 C   0  0  0  0  0  0  0  0  0  0  0  0
  140.7390   76.2790  221.4350 N   0  0  0  0  0  0  0  0  0  0  0  0
  140.8570   74.8620  221.3710 C   0  0  0  0  0  0  0  0  0  0  0  0
  141.4760   74.2730  220.3350 N   0  0  0  0  0  0  0  0  0  0  0  0
  141.6130   72.9350  220.2310 C   0  0  0  0  0  0  0  0  0  0  0  0
  142.2730   72.3290  219.1250 N   0  0  0  0  0  0  0  0  0  0  0  0
  142.8490   71.0150  219.3030 C   0  0  0  0  0  0  0  0  0  0  0  0
  144.2650   71.2300  219.8480 C   0  0  1  0  0  0  0  0  0  0  0  0
  145.0020   72.0450  218.8360 C   0  0  0  0  0  0  0  0  0  0  0  0
  145.3790   73.3340  219.4890 C   0  0  0  0  0  0  0  0  0  0  0  0
  144.8400   73.2460  220.8800 C   0  0  0  0  0  0  0  0  0  0  0  0
  144.1920   71.9860  221.0590 N   0  0  0  0  0  0  0  0  0  0  0  0
  141.0930   72.1990  221.2270 N   0  0  0  0  0  0  0  0  0  0  0  0
  140.4560   72.7290  222.3000 C   0  0  0  0  0  0  0  0  0  0  0  0
  139.9200   71.9140  223.3350 N   0  0  0  0  0  0  0  0  0  0  0  0
  138.7220   71.1470  223.1980 C   0  0  0  0  0  0  0  0  0  0  0  0
  139.0770   69.6760  223.3600 C   0  0  0  0  0  0  0  0  0  0  0  0
  139.7140   69.5420  224.6990 C   0  0  0  0  0  0  0  0  0  0  0  0
  139.5670   68.3360  225.3910 C   0  0  0  0  0  0  0  0  0  0  0  0
  140.1530   68.1890  226.6420 C   0  0  0  0  0  0  0  0  0  0  0  0
  140.8740   69.2330  227.1910 C   0  0  0  0  0  0  0  0  0  0  0  0
  141.0240   70.4150  226.5240 C   0  0  0  0  0  0  0  0  0  0  0  0
  140.4400   70.5590  225.2790 C   0  0  0  0  0  0  0  0  0  0  0  0
  140.6340   71.8640  224.5970 C   0  0  0  0  0  0  0  0  0  0  0  0
  140.3530   74.0840  222.3430 N   0  0  0  0  0  0  0  0  0  0  0  0
  140.6970   76.9420  222.7210 C   0  0  0  0  0  0  0  0  0  0  0  0
  142.5829   81.9723  222.7104 H   0  0  0  0  0  0  0  0  0  0  0  0
  141.7697   80.8981  224.7897 H   0  0  0  0  0  0  0  0  0  0  0  0
  140.9063   78.5760  224.7805 H   0  0  0  0  0  0  0  0  0  0  0  0
  142.5224   80.6792  220.5599 H   0  0  0  0  0  0  0  0  0  0  0  0
  141.3946   78.9132  219.4234 H   0  0  0  0  0  0  0  0  0  0  0  0
  142.6596   77.7781  220.0565 H   0  0  0  0  0  0  0  0  0  0  0  0
  139.6474   77.4971  220.1465 H   0  0  0  0  0  0  0  0  0  0  0  0
  140.8890   76.4187  219.3745 H   0  0  0  0  0  0  0  0  0  0  0  0
  142.3310   72.8410  218.2030 H   0  0  0  0  0  0  0  0  0  0  0  0
  142.2510   70.4318  220.0187 H   0  0  0  0  0  0  0  0  0  0  0  0
  142.8684   70.4577  218.3548 H   0  0  0  0  0  0  0  0  0  0  0  0
  144.7615   70.2673  220.0396 H   0  0  0  0  0  0  0  0  0  0  0  0
  145.9062   71.5106  218.5092 H   0  0  0  0  0  0  0  0  0  0  0  0
  144.3735   72.2270  217.9517 H   0  0  0  0  0  0  0  0  0  0  0  0
  146.4726   73.4512  219.5066 H   0  0  0  0  0  0  0  0  0  0  0  0
  144.9738   74.2013  218.9471 H   0  0  0  0  0  0  0  0  0  0  0  0
  145.6661   73.3394  221.6003 H   0  0  0  0  0  0  0  0  0  0  0  0
  144.1166   74.0579  221.0457 H   0  0  0  0  0  0  0  0  0  0  0  0
  143.2450   72.0290  221.4590 H   0  0  0  0  0  0  0  0  0  0  0  0
  137.9998   71.4431  223.9730 H   0  0  0  0  0  0  0  0  0  0  0  0
  138.2701   71.3219  222.2105 H   0  0  0  0  0  0  0  0  0  0  0  0
  138.1689   69.0575  223.3072 H   0  0  0  0  0  0  0  0  0  0  0  0
  139.7538   69.3389  222.5610 H   0  0  0  0  0  0  0  0  0  0  0  0
  138.9916   67.5097  224.9482 H   0  0  0  0  0  0  0  0  0  0  0  0
  140.0436   67.2441  227.1944 H   0  0  0  0  0  0  0  0  0  0  0  0
  141.3347   69.1094  228.1822 H   0  0  0  0  0  0  0  0  0  0  0  0
  141.6001   71.2392  226.9699 H   0  0  0  0  0  0  0  0  0  0  0  0
  140.2629   72.6676  225.2501 H   0  0  0  0  0  0  0  0  0  0  0  0
  141.7073   71.9911  224.3924 H   0  0  0  0  0  0  0  0  0  0  0  0
  139.6529   76.9771  223.0655 H   0  0  0  0  0  0  0  0  0  0  0  0
  141.3329   76.3695  223.4122 H   0  0  0  0  0  0  0  0  0  0  0  0
  1  2  2  0
  2  3  1  0
  3  4  2  0
  4  5  1  0
  5  6  2  0
  5  7  1  0
  7  8  1  0
  8  9  1  0
  9 10  1  0
 10 11  2  0
 11 12  1  0
 12 13  1  0
 13 14  1  0
 14 15  1  0
 15 16  1  0
 16 17  1  0
 17 18  1  0
 18 19  1  0
 12 20  2  0
 20 21  1  0
 21 22  1  0
 22 23  1  0
 23 24  1  0
 24 25  1  0
 25 26  2  0
 26 27  1  0
 27 28  2  0
 28 29  1  0
 29 30  2  0
 30 31  1  0
 21 32  2  0
  9 33  1  0
  6  1  1  0
 32 10  1  0
 33  4  1  0
 19 15  1  0
 31 22  1  0
 30 25  1  0
  1 34  1  0
  2 35  1  0
  3 36  1  0
  6 37  1  0
  7 38  1  0
  7 39  1  0
  8 40  1  0
  8 41  1  0
 13 42  1  0
 14 43  1  0
 14 44  1  0
 15 45  1  1
 16 46  1  0
 16 47  1  0
 17 48  1  0
 17 49  1  0
 18 50  1  0
 18 51  1  0
 19 52  1  0
 23 53  1  0
 23 54  1  0
 24 55  1  0
 24 56  1  0
 26 57  1  0
 27 58  1  0
 28 59  1  0
 29 60  1  0
 31 61  1  0
 31 62  1  0
 33 63  1  0
 33 64  1  0
M  END
>  <smiles>  (95) 
c1ccc2c(c1)CCN(c1nc(NCC3CCCN3)nc(N3CCc4ccccc4C3)n1)C2

>  <score_type>  (95) 
oracle

>  <origin>  (95) 
autodockgpu

>  <m_score__min__energy>  (95) 
-10.77

>  <m_primary>  (95) 
energy

>  <rmsd>  (95) 
4.917434020924289

>  <m_score__min__rmsd>  (95) 
4.917434020924289

>  <meeko>  (95) 
{"free_energy": -9.39, "intermolecular_energy": -10.88, "internal_energy": -1.91, "cluster_size": 47, "cluster_id": 1, "rank_in_cluster": 37}

>  <energy>  (95) 
-9.02

>  <cluster_rmsd>  (95) 
1.61

>  <cluster>  (95) 
1

$$$$

     RDKit          3D

 64 69  0  0  0  0  0  0  0  0999 V2000
  141.5370   80.4460  222.2390 C   0  0  0  0  0  0  0  0  0  0  0  0
  140.7720   79.9570  223.2820 C   0  0  0  0  0  0  0  0  0  0  0  0
  140.3330   78.6400  223.3100 C   0  0  0  0  0  0  0  0  0  0  0  0
  140.6620   77.7880  222.2760 C   0  0  0  0  0  0  0  0  0  0  0  0
  141.4250   78.2840  221.2430 C   0  0  0  0  0  0  0  0  0  0  0  0
  141.8730   79.5940  221.1950 C   0  0  0  0  0  0  0  0  0  0  0  0
  141.8070   77.4100  220.1050 C   0  0  0  0  0  0  0  0  0  0  0  0
  140.8740   76.2310  219.9640 C   0  0  0  0  0  0  0  0  0  0  0  0
  140.6060   75.5920  221.2360 N   0  0  0  0  0  0  0  0  0  0  0  0
  140.7660   74.1860  221.3960 C   0  0  0  0  0  0  0  0  0  0  0  0
  141.4460   73.4670  220.4880 N   0  0  0  0  0  0  0  0  0  0  0  0
  141.6230   72.1340  220.5970 C   0  0  0  0  0  0  0  0  0  0  0  0
  142.3480   71.3890  219.6240 N   0  0  0  0  0  0  0  0  0  0  0  0
  143.6130   71.9130  219.1580 C   0  0  0  0  0  0  0  0  0  0  0  0
  144.4260   72.2630  220.4090 C   0  0  1  0  0  0  0  0  0  0  0  0
  145.8650   72.2570  220.0080 C   0  0  0  0  0  0  0  0  0  0  0  0
  146.3910   73.6400  220.2130 C   0  0  0  0  0  0  0  0  0  0  0  0
  145.2330   74.4330  220.7250 C   0  0  0  0  0  0  0  0  0  0  0  0
  144.0880   73.5850  220.8340 N   0  0  0  0  0  0  0  0  0  0  0  0
  141.0810   71.5420  221.6730 N   0  0  0  0  0  0  0  0  0  0  0  0
  140.3840   72.2070  222.6260 C   0  0  0  0  0  0  0  0  0  0  0  0
  139.8260   71.5430  223.7530 N   0  0  0  0  0  0  0  0  0  0  0  0
  138.6260   70.7680  223.7000 C   0  0  0  0  0  0  0  0  0  0  0  0
  138.9710   69.3310  224.0660 C   0  0  0  0  0  0  0  0  0  0  0  0
  139.5840   69.3780  225.4220 C   0  0  0  0  0  0  0  0  0  0  0  0
  139.4180   68.2780  226.2690 C   0  0  0  0  0  0  0  0  0  0  0  0
  139.9820   68.3010  227.5390 C   0  0  0  0  0  0  0  0  0  0  0  0
  140.7000   69.4070  227.9540 C   0  0  0  0  0  0  0  0  0  0  0  0
  140.8680   70.4880  227.1340 C   0  0  0  0  0  0  0  0  0  0  0  0
  140.3050   70.4620  225.8720 C   0  0  0  0  0  0  0  0  0  0  0  0
  140.5180   71.6620  225.0220 C   0  0  0  0  0  0  0  0  0  0  0  0
  140.2420   73.5490  222.4560 N   0  0  0  0  0  0  0  0  0  0  0  0
  140.1710   76.3990  222.3550 C   0  0  0  0  0  0  0  0  0  0  0  0
  141.8740   81.4931  222.2363 H   0  0  0  0  0  0  0  0  0  0  0  0
  140.5043   80.6287  224.1109 H   0  0  0  0  0  0  0  0  0  0  0  0
  139.7258   78.2777  224.1526 H   0  0  0  0  0  0  0  0  0  0  0  0
  142.4804   79.9508  220.3502 H   0  0  0  0  0  0  0  0  0  0  0  0
  141.7772   78.0003  219.1773 H   0  0  0  0  0  0  0  0  0  0  0  0
  142.8190   77.0236  220.2960 H   0  0  0  0  0  0  0  0  0  0  0  0
  139.9231   76.5806  219.5356 H   0  0  0  0  0  0  0  0  0  0  0  0
  141.3593   75.4919  219.3096 H   0  0  0  0  0  0  0  0  0  0  0  0
  141.9560   70.4780  219.2610 H   0  0  0  0  0  0  0  0  0  0  0  0
  144.1415   71.1552  218.5610 H   0  0  0  0  0  0  0  0  0  0  0  0
  143.4667   72.7960  218.5186 H   0  0  0  0  0  0  0  0  0  0  0  0
  144.2236   71.5489  221.2208 H   0  0  0  0  0  0  0  0  0  0  0  0
  146.4261   71.5450  220.6311 H   0  0  0  0  0  0  0  0  0  0  0  0
  145.9743   71.9515  218.9569 H   0  0  0  0  0  0  0  0  0  0  0  0
  147.2094   73.6355  220.9480 H   0  0  0  0  0  0  0  0  0  0  0  0
  146.7987   74.0646  219.2837 H   0  0  0  0  0  0  0  0  0  0  0  0
  145.4796   74.8456  221.7144 H   0  0  0  0  0  0  0  0  0  0  0  0
  145.0153   75.2566  220.0291 H   0  0  0  0  0  0  0  0  0  0  0  0
  143.2280   73.9470  220.4010 H   0  0  0  0  0  0  0  0  0  0  0  0
  137.8923   71.1684  224.4150 H   0  0  0  0  0  0  0  0  0  0  0  0
  138.1916   70.8090  222.6902 H   0  0  0  0  0  0  0  0  0  0  0  0
  138.0609   68.7133  224.0811 H   0  0  0  0  0  0  0  0  0  0  0  0
  139.6598   68.8871  223.3322 H   0  0  0  0  0  0  0  0  0  0  0  0
  138.8454   67.4011  225.9327 H   0  0  0  0  0  0  0  0  0  0  0  0
  139.8573   67.4406  228.2129 H   0  0  0  0  0  0  0  0  0  0  0  0
  141.1435   69.4175  228.9606 H   0  0  0  0  0  0  0  0  0  0  0  0
  141.4414   71.3634  227.4728 H   0  0  0  0  0  0  0  0  0  0  0  0
  140.1407   72.5482  225.5534 H   0  0  0  0  0  0  0  0  0  0  0  0
  141.5953   71.7560  224.8206 H   0  0  0  0  0  0  0  0  0  0  0  0
  139.0712   76.4143  222.3722 H   0  0  0  0  0  0  0  0  0  0  0  0
  140.5842   75.9505  223.2705 H   0  0  0  0  0  0  0  0  0  0  0  0
  1  2  2  0
  2  3  1  0
  3  4  2  0
  4  5  1  0
  5  6  2  0
  5  7  1  0
  7  8  1  0
  8  9  1  0
  9 10  1  0
 10 11  2  0
 11 12  1  0
 12 13  1  0
 13 14  1  0
 14 15  1  0
 15 16  1  0
 16 17  1  0
 17 18  1  0
 18 19  1  0
 12 20  2  0
 20 21  1  0
 21 22  1  0
 22 23  1  0
 23 24  1  0
 24 25  1  0
 25 26  2  0
 26 27  1  0
 27 28  2  0
 28 29  1  0
 29 30  2  0
 30 31  1  0
 21 32  2  0
  9 33  1  0
  6  1  1  0
 32 10  1  0
 33  4  1  0
 19 15  1  0
 31 22  1  0
 30 25  1  0
  1 34  1  0
  2 35  1  0
  3 36  1  0
  6 37  1  0
  7 38  1  0
  7 39  1  0
  8 40  1  0
  8 41  1  0
 13 42  1  0
 14 43  1  0
 14 44  1  0
 15 45  1  1
 16 46  1  0
 16 47  1  0
 17 48  1  0
 17 49  1  0
 18 50  1  0
 18 51  1  0
 19 52  1  0
 23 53  1  0
 23 54  1  0
 24 55  1  0
 24 56  1  0
 26 57  1  0
 27 58  1  0
 28 59  1  0
 29 60  1  0
 31 61  1  0
 31 62  1  0
 33 63  1  0
 33 64  1  0
M  END
>  <smiles>  (96) 
c1ccc2c(c1)CCN(c1nc(NCC3CCCN3)nc(N3CCc4ccccc4C3)n1)C2

>  <score_type>  (96) 
oracle

>  <origin>  (96) 
autodockgpu

>  <m_score__min__energy>  (96) 
-10.77

>  <m_primary>  (96) 
energy

>  <rmsd>  (96) 
4.574287532976092

>  <m_score__min__rmsd>  (96) 
4.574287532976092

>  <meeko>  (96) 
{"free_energy": -9.62, "intermolecular_energy": -11.11, "internal_energy": -1.85, "cluster_size": 47, "cluster_id": 1, "rank_in_cluster": 31}

>  <energy>  (96) 
-8.97

>  <cluster_rmsd>  (96) 
0.91

>  <cluster>  (96) 
1

$$$$

     RDKit          3D

 64 69  0  0  0  0  0  0  0  0999 V2000
  145.6410   67.3870  218.6560 C   0  0  0  0  0  0  0  0  0  0  0  0
  146.3100   68.5600  218.9530 C   0  0  0  0  0  0  0  0  0  0  0  0
  145.6310   69.7120  219.3250 C   0  0  0  0  0  0  0  0  0  0  0  0
  144.2540   69.6990  219.4040 C   0  0  0  0  0  0  0  0  0  0  0  0
  143.5970   68.5260  219.1070 C   0  0  0  0  0  0  0  0  0  0  0  0
  144.2550   67.3650  218.7340 C   0  0  0  0  0  0  0  0  0  0  0  0
  142.1150   68.4570  219.1760 C   0  0  0  0  0  0  0  0  0  0  0  0
  141.4830   69.8220  219.0520 C   0  0  0  0  0  0  0  0  0  0  0  0
  142.1440   70.8070  219.8850 N   0  0  0  0  0  0  0  0  0  0  0  0
  141.4000   71.6300  220.7770 C   0  0  0  0  0  0  0  0  0  0  0  0
  141.1380   72.9110  220.4690 N   0  0  0  0  0  0  0  0  0  0  0  0
  140.4370   73.7280  221.2810 C   0  0  0  0  0  0  0  0  0  0  0  0
  140.1700   75.0830  220.9360 N   0  0  0  0  0  0  0  0  0  0  0  0
  140.8540   76.1270  221.6680 C   0  0  0  0  0  0  0  0  0  0  0  0
  139.7690   76.9450  222.3760 C   0  0  1  0  0  0  0  0  0  0  0  0
  139.0470   77.7170  221.3210 C   0  0  0  0  0  0  0  0  0  0  0  0
  137.6260   77.2570  221.3250 C   0  0  0  0  0  0  0  0  0  0  0  0
  137.5510   76.2090  222.3870 C   0  0  0  0  0  0  0  0  0  0  0  0
  138.8360   76.0540  222.9920 N   0  0  0  0  0  0  0  0  0  0  0  0
  140.0030   73.1990  222.4360 N   0  0  0  0  0  0  0  0  0  0  0  0
  140.2310   71.9160  222.8080 C   0  0  0  0  0  0  0  0  0  0  0  0
  139.7520   71.3930  224.0410 N   0  0  0  0  0  0  0  0  0  0  0  0
  138.5200   70.6810  224.1730 C   0  0  0  0  0  0  0  0  0  0  0  0
  138.8350   69.2690  224.6500 C   0  0  0  0  0  0  0  0  0  0  0  0
  139.5740   69.4150  225.9350 C   0  0  0  0  0  0  0  0  0  0  0  0
  139.4420   68.4110  226.8990 C   0  0  0  0  0  0  0  0  0  0  0  0
  140.1220   68.5270  228.1050 C   0  0  0  0  0  0  0  0  0  0  0  0
  140.9230   69.6290  228.3410 C   0  0  0  0  0  0  0  0  0  0  0  0
  141.0600   70.6150  227.4060 C   0  0  0  0  0  0  0  0  0  0  0  0
  140.3810   70.4980  226.2070 C   0  0  0  0  0  0  0  0  0  0  0  0
  140.5650   71.5980  225.2250 C   0  0  0  0  0  0  0  0  0  0  0  0
  140.9440   71.1450  221.9440 N   0  0  0  0  0  0  0  0  0  0  0  0
  143.5820   70.9500  219.8030 C   0  0  0  0  0  0  0  0  0  0  0  0
  146.1983   66.4852  218.3625 H   0  0  0  0  0  0  0  0  0  0  0  0
  147.4082   68.5808  218.8930 H   0  0  0  0  0  0  0  0  0  0  0  0
  146.1887   70.6316  219.5559 H   0  0  0  0  0  0  0  0  0  0  0  0
  143.6926   66.4477  218.5051 H   0  0  0  0  0  0  0  0  0  0  0  0
  141.7499   67.8200  218.3569 H   0  0  0  0  0  0  0  0  0  0  0  0
  141.8378   68.0400  220.1554 H   0  0  0  0  0  0  0  0  0  0  0  0
  141.5435   70.1468  218.0028 H   0  0  0  0  0  0  0  0  0  0  0  0
  140.4379   69.7428  219.3858 H   0  0  0  0  0  0  0  0  0  0  0  0
  139.4860   75.3040  220.1630 H   0  0  0  0  0  0  0  0  0  0  0  0
  141.5401   75.6864  222.4063 H   0  0  0  0  0  0  0  0  0  0  0  0
  141.4521   76.7584  220.9945 H   0  0  0  0  0  0  0  0  0  0  0  0
  140.2104   77.6054  223.1369 H   0  0  0  0  0  0  0  0  0  0  0  0
  139.0945   78.7932  221.5437 H   0  0  0  0  0  0  0  0  0  0  0  0
  139.5063   77.5511  220.3353 H   0  0  0  0  0  0  0  0  0  0  0  0
  136.9515   78.0932  221.5612 H   0  0  0  0  0  0  0  0  0  0  0  0
  137.3196   76.8670  220.3432 H   0  0  0  0  0  0  0  0  0  0  0  0
  136.8198   76.5122  223.1508 H   0  0  0  0  0  0  0  0  0  0  0  0
  137.2378   75.2541  221.9396 H   0  0  0  0  0  0  0  0  0  0  0  0
  139.1780   75.0860  223.0600 H   0  0  0  0  0  0  0  0  0  0  0  0
  137.8745   71.1865  224.9064 H   0  0  0  0  0  0  0  0  0  0  0  0
  137.9952   70.6474  223.2069 H   0  0  0  0  0  0  0  0  0  0  0  0
  137.9044   68.7043  224.8082 H   0  0  0  0  0  0  0  0  0  0  0  0
  139.4319   68.7205  223.9065 H   0  0  0  0  0  0  0  0  0  0  0  0
  138.8046   67.5359  226.7041 H   0  0  0  0  0  0  0  0  0  0  0  0
  140.0233   67.7435  228.8707 H   0  0  0  0  0  0  0  0  0  0  0  0
  141.4589   69.7130  229.2979 H   0  0  0  0  0  0  0  0  0  0  0  0
  141.6998   71.4877  227.6034 H   0  0  0  0  0  0  0  0  0  0  0  0
  140.2777   72.5497  225.6959 H   0  0  0  0  0  0  0  0  0  0  0  0
  141.6217   71.6163  224.9201 H   0  0  0  0  0  0  0  0  0  0  0  0
  143.8171   71.7282  219.0619 H   0  0  0  0  0  0  0  0  0  0  0  0
  143.9479   71.2202  220.8046 H   0  0  0  0  0  0  0  0  0  0  0  0
  1  2  2  0
  2  3  1  0
  3  4  2  0
  4  5  1  0
  5  6  2  0
  5  7  1  0
  7  8  1  0
  8  9  1  0
  9 10  1  0
 10 11  2  0
 11 12  1  0
 12 13  1  0
 13 14  1  0
 14 15  1  0
 15 16  1  0
 16 17  1  0
 17 18  1  0
 18 19  1  0
 12 20  2  0
 20 21  1  0
 21 22  1  0
 22 23  1  0
 23 24  1  0
 24 25  1  0
 25 26  2  0
 26 27  1  0
 27 28  2  0
 28 29  1  0
 29 30  2  0
 30 31  1  0
 21 32  2  0
  9 33  1  0
  6  1  1  0
 32 10  1  0
 33  4  1  0
 19 15  1  0
 31 22  1  0
 30 25  1  0
  1 34  1  0
  2 35  1  0
  3 36  1  0
  6 37  1  0
  7 38  1  0
  7 39  1  0
  8 40  1  0
  8 41  1  0
 13 42  1  0
 14 43  1  0
 14 44  1  0
 15 45  1  1
 16 46  1  0
 16 47  1  0
 17 48  1  0
 17 49  1  0
 18 50  1  0
 18 51  1  0
 19 52  1  0
 23 53  1  0
 23 54  1  0
 24 55  1  0
 24 56  1  0
 26 57  1  0
 27 58  1  0
 28 59  1  0
 29 60  1  0
 31 61  1  0
 31 62  1  0
 33 63  1  0
 33 64  1  0
M  END
>  <smiles>  (97) 
c1ccc2c(c1)CCN(c1nc(NCC3CCCN3)nc(N3CCc4ccccc4C3)n1)C2

>  <score_type>  (97) 
oracle

>  <origin>  (97) 
autodockgpu

>  <m_score__min__energy>  (97) 
-10.77

>  <m_primary>  (97) 
energy

>  <rmsd>  (97) 
10.620603233788987

>  <m_score__min__rmsd>  (97) 
10.620603233788987

>  <meeko>  (97) 
{"free_energy": -8.67, "intermolecular_energy": -10.16, "internal_energy": -1.84, "cluster_size": 3, "cluster_id": 2, "rank_in_cluster": 3}

>  <energy>  (97) 
-8.96

>  <cluster_rmsd>  (97) 
1.21

>  <cluster>  (97) 
1

$$$$

     RDKit          3D

 64 69  0  0  0  0  0  0  0  0999 V2000
  140.2750   80.8670  223.3790 C   0  0  0  0  0  0  0  0  0  0  0  0
  139.1910   80.1640  223.8700 C   0  0  0  0  0  0  0  0  0  0  0  0
  138.9460   78.8490  223.4990 C   0  0  0  0  0  0  0  0  0  0  0  0
  139.7990   78.2170  222.6180 C   0  0  0  0  0  0  0  0  0  0  0  0
  140.8760   78.9260  222.1360 C   0  0  0  0  0  0  0  0  0  0  0  0
  141.1390   80.2380  222.4930 C   0  0  0  0  0  0  0  0  0  0  0  0
  141.8270   78.2930  221.1850 C   0  0  0  0  0  0  0  0  0  0  0  0
  141.2010   77.1260  220.4590 C   0  0  0  0  0  0  0  0  0  0  0  0
  140.4740   76.2520  221.3570 N   0  0  0  0  0  0  0  0  0  0  0  0
  140.7120   74.8480  221.3630 C   0  0  0  0  0  0  0  0  0  0  0  0
  141.4380   74.2730  220.3890 N   0  0  0  0  0  0  0  0  0  0  0  0
  141.6900   72.9480  220.3530 C   0  0  0  0  0  0  0  0  0  0  0  0
  142.4610   72.3570  219.3130 N   0  0  0  0  0  0  0  0  0  0  0  0
  143.6810   71.6670  219.6690 C   0  0  0  0  0  0  0  0  0  0  0  0
  144.8350   72.6140  219.3220 C   0  0  1  0  0  0  0  0  0  0  0  0
  144.4230   73.9810  219.7630 C   0  0  0  0  0  0  0  0  0  0  0  0
  145.3890   74.4210  220.8130 C   0  0  0  0  0  0  0  0  0  0  0  0
  146.3480   73.2860  220.9720 C   0  0  0  0  0  0  0  0  0  0  0  0
  145.9930   72.2360  220.0700 N   0  0  0  0  0  0  0  0  0  0  0  0
  141.1750   72.2110  221.3500 N   0  0  0  0  0  0  0  0  0  0  0  0
  140.4350   72.7270  222.3620 C   0  0  0  0  0  0  0  0  0  0  0  0
  139.9070   71.9110  223.4010 N   0  0  0  0  0  0  0  0  0  0  0  0
  138.7180   71.1300  223.2670 C   0  0  0  0  0  0  0  0  0  0  0  0
  139.0900   69.6640  223.4360 C   0  0  0  0  0  0  0  0  0  0  0  0
  139.7280   69.5430  224.7760 C   0  0  0  0  0  0  0  0  0  0  0  0
  139.5950   68.3390  225.4740 C   0  0  0  0  0  0  0  0  0  0  0  0
  140.1820   68.2050  226.7250 C   0  0  0  0  0  0  0  0  0  0  0  0
  140.8920   69.2590  227.2700 C   0  0  0  0  0  0  0  0  0  0  0  0
  141.0290   70.4400  226.5970 C   0  0  0  0  0  0  0  0  0  0  0  0
  140.4430   70.5710  225.3510 C   0  0  0  0  0  0  0  0  0  0  0  0
  140.6220   71.8750  224.6620 C   0  0  0  0  0  0  0  0  0  0  0  0
  140.2180   74.0690  222.3390 N   0  0  0  0  0  0  0  0  0  0  0  0
  139.4940   76.8200  222.2570 C   0  0  0  0  0  0  0  0  0  0  0  0
  140.4504   81.9088  223.6855 H   0  0  0  0  0  0  0  0  0  0  0  0
  138.5048   80.6593  224.5728 H   0  0  0  0  0  0  0  0  0  0  0  0
  138.0756   78.3133  223.9057 H   0  0  0  0  0  0  0  0  0  0  0  0
  142.0115   80.7689  222.0844 H   0  0  0  0  0  0  0  0  0  0  0  0
  142.1440   79.0435  220.4459 H   0  0  0  0  0  0  0  0  0  0  0  0
  142.6860   77.9169  221.7600 H   0  0  0  0  0  0  0  0  0  0  0  0
  140.5052   77.5126  219.6997 H   0  0  0  0  0  0  0  0  0  0  0  0
  142.0101   76.5406  219.9978 H   0  0  0  0  0  0  0  0  0  0  0  0
  142.1370   72.4310  218.3110 H   0  0  0  0  0  0  0  0  0  0  0  0
  143.6878   71.4382  220.7449 H   0  0  0  0  0  0  0  0  0  0  0  0
  143.7717   70.7146  219.1262 H   0  0  0  0  0  0  0  0  0  0  0  0
  145.0602   72.5805  218.2458 H   0  0  0  0  0  0  0  0  0  0  0  0
  144.4518   74.6757  218.9106 H   0  0  0  0  0  0  0  0  0  0  0  0
  143.3970   73.9686  220.1595 H   0  0  0  0  0  0  0  0  0  0  0  0
  145.9187   75.3300  220.4918 H   0  0  0  0  0  0  0  0  0  0  0  0
  144.8823   74.6634  221.7588 H   0  0  0  0  0  0  0  0  0  0  0  0
  147.3677   73.6329  220.7486 H   0  0  0  0  0  0  0  0  0  0  0  0
  146.3075   72.9123  222.0058 H   0  0  0  0  0  0  0  0  0  0  0  0
  145.9220   71.2990  220.4890 H   0  0  0  0  0  0  0  0  0  0  0  0
  137.9920   71.4214  224.0403 H   0  0  0  0  0  0  0  0  0  0  0  0
  138.2645   71.2952  222.2786 H   0  0  0  0  0  0  0  0  0  0  0  0
  138.1891   69.0348  223.3855 H   0  0  0  0  0  0  0  0  0  0  0  0
  139.7712   69.3314  222.6389 H   0  0  0  0  0  0  0  0  0  0  0  0
  139.0293   67.5038  225.0352 H   0  0  0  0  0  0  0  0  0  0  0  0
  140.0824   67.2616  227.2819 H   0  0  0  0  0  0  0  0  0  0  0  0
  141.3541   69.1447  228.2617 H   0  0  0  0  0  0  0  0  0  0  0  0
  141.5959   71.2728  227.0387 H   0  0  0  0  0  0  0  0  0  0  0  0
  140.2425   72.6777  225.3114 H   0  0  0  0  0  0  0  0  0  0  0  0
  141.6937   72.0127  224.4558 H   0  0  0  0  0  0  0  0  0  0  0  0
  138.5083   76.7891  221.7697 H   0  0  0  0  0  0  0  0  0  0  0  0
  139.5074   76.2258  223.1826 H   0  0  0  0  0  0  0  0  0  0  0  0
  1  2  2  0
  2  3  1  0
  3  4  2  0
  4  5  1  0
  5  6  2  0
  5  7  1  0
  7  8  1  0
  8  9  1  0
  9 10  1  0
 10 11  2  0
 11 12  1  0
 12 13  1  0
 13 14  1  0
 14 15  1  0
 15 16  1  0
 16 17  1  0
 17 18  1  0
 18 19  1  0
 12 20  2  0
 20 21  1  0
 21 22  1  0
 22 23  1  0
 23 24  1  0
 24 25  1  0
 25 26  2  0
 26 27  1  0
 27 28  2  0
 28 29  1  0
 29 30  2  0
 30 31  1  0
 21 32  2  0
  9 33  1  0
  6  1  1  0
 32 10  1  0
 33  4  1  0
 19 15  1  0
 31 22  1  0
 30 25  1  0
  1 34  1  0
  2 35  1  0
  3 36  1  0
  6 37  1  0
  7 38  1  0
  7 39  1  0
  8 40  1  0
  8 41  1  0
 13 42  1  0
 14 43  1  0
 14 44  1  0
 15 45  1  6
 16 46  1  0
 16 47  1  0
 17 48  1  0
 17 49  1  0
 18 50  1  0
 18 51  1  0
 19 52  1  0
 23 53  1  0
 23 54  1  0
 24 55  1  0
 24 56  1  0
 26 57  1  0
 27 58  1  0
 28 59  1  0
 29 60  1  0
 31 61  1  0
 31 62  1  0
 33 63  1  0
 33 64  1  0
M  END
>  <smiles>  (98) 
c1ccc2c(c1)CCN(c1nc(NCC3CCCN3)nc(N3CCc4ccccc4C3)n1)C2

>  <score_type>  (98) 
oracle

>  <origin>  (98) 
autodockgpu

>  <m_score__min__energy>  (98) 
-10.77

>  <m_primary>  (98) 
energy

>  <rmsd>  (98) 
5.180072099286821

>  <m_score__min__rmsd>  (98) 
5.180072099286821

>  <meeko>  (98) 
{"free_energy": -10.16, "intermolecular_energy": -11.65, "internal_energy": -1.06, "cluster_size": 47, "cluster_id": 1, "rank_in_cluster": 11}

>  <energy>  (98) 
-9.41

>  <cluster_rmsd>  (98) 
0.0

>  <cluster>  (98) 
2

$$$$

     RDKit          3D

 64 69  0  0  0  0  0  0  0  0999 V2000
  142.0100   80.8820  222.6330 C   0  0  0  0  0  0  0  0  0  0  0  0
  141.5220   80.2930  223.7850 C   0  0  0  0  0  0  0  0  0  0  0  0
  141.0830   78.9760  223.8010 C   0  0  0  0  0  0  0  0  0  0  0  0
  141.1280   78.2260  222.6450 C   0  0  0  0  0  0  0  0  0  0  0  0
  141.6160   78.8220  221.5030 C   0  0  0  0  0  0  0  0  0  0  0  0
  142.0590   80.1340  221.4650 C   0  0  0  0  0  0  0  0  0  0  0  0
  141.6860   78.0600  220.2300 C   0  0  0  0  0  0  0  0  0  0  0  0
  140.7270   76.8940  220.2200 C   0  0  0  0  0  0  0  0  0  0  0  0
  140.7760   76.1360  221.4540 N   0  0  0  0  0  0  0  0  0  0  0  0
  140.9480   74.7230  221.4400 C   0  0  0  0  0  0  0  0  0  0  0  0
  141.7370   74.1390  220.5220 N   0  0  0  0  0  0  0  0  0  0  0  0
  141.9300   72.8050  220.4690 C   0  0  0  0  0  0  0  0  0  0  0  0
  142.7710   72.2050  219.4900 N   0  0  0  0  0  0  0  0  0  0  0  0
  144.1800   72.0700  219.7830 C   0  0  0  0  0  0  0  0  0  0  0  0
  144.8700   73.3020  219.1880 C   0  0  1  0  0  0  0  0  0  0  0  0
  144.4790   73.3650  217.7470 C   0  0  0  0  0  0  0  0  0  0  0  0
  143.7240   74.6380  217.5450 C   0  0  0  0  0  0  0  0  0  0  0  0
  143.6820   75.2920  218.8880 C   0  0  0  0  0  0  0  0  0  0  0  0
  144.3740   74.4760  219.8350 N   0  0  0  0  0  0  0  0  0  0  0  0
  141.2870   72.0680  221.3890 N   0  0  0  0  0  0  0  0  0  0  0  0
  140.4770   72.5920  222.3410 C   0  0  0  0  0  0  0  0  0  0  0  0
  139.8140   71.7760  223.2980 N   0  0  0  0  0  0  0  0  0  0  0  0
  138.6600   70.9870  223.0020 C   0  0  0  0  0  0  0  0  0  0  0  0
  139.0130   69.5230  223.2270 C   0  0  0  0  0  0  0  0  0  0  0  0
  139.4580   69.4110  224.6440 C   0  0  0  0  0  0  0  0  0  0  0  0
  139.2350   68.2080  225.3200 C   0  0  0  0  0  0  0  0  0  0  0  0
  139.6420   68.0820  226.6430 C   0  0  0  0  0  0  0  0  0  0  0  0
  140.2620   69.1420  227.2770 C   0  0  0  0  0  0  0  0  0  0  0  0
  140.4850   70.3210  226.6260 C   0  0  0  0  0  0  0  0  0  0  0  0
  140.0780   70.4450  225.3100 C   0  0  0  0  0  0  0  0  0  0  0  0
  140.3440   71.7490  224.6480 C   0  0  0  0  0  0  0  0  0  0  0  0
  140.3250   73.9440  222.3390 N   0  0  0  0  0  0  0  0  0  0  0  0
  140.6490   76.8330  222.7160 C   0  0  0  0  0  0  0  0  0  0  0  0
  142.3539   81.9268  222.6422 H   0  0  0  0  0  0  0  0  0  0  0  0
  141.4806   80.8830  224.7124 H   0  0  0  0  0  0  0  0  0  0  0  0
  140.7007   78.5326  224.7323 H   0  0  0  0  0  0  0  0  0  0  0  0
  142.4406   80.5726  220.5312 H   0  0  0  0  0  0  0  0  0  0  0  0
  141.4355   78.7340  219.3975 H   0  0  0  0  0  0  0  0  0  0  0  0
  142.7067   77.6636  220.1249 H   0  0  0  0  0  0  0  0  0  0  0  0
  139.7053   77.2765  220.0793 H   0  0  0  0  0  0  0  0  0  0  0  0
  141.0191   76.2228  219.3989 H   0  0  0  0  0  0  0  0  0  0  0  0
  142.3590   71.8720  218.5770 H   0  0  0  0  0  0  0  0  0  0  0  0
  144.3398   72.0336  220.8707 H   0  0  0  0  0  0  0  0  0  0  0  0
  144.5872   71.1418  219.3557 H   0  0  0  0  0  0  0  0  0  0  0  0
  145.9609   73.2407  219.3150 H   0  0  0  0  0  0  0  0  0  0  0  0
  145.3777   73.3560  217.1127 H   0  0  0  0  0  0  0  0  0  0  0  0
  143.8593   72.4981  217.4741 H   0  0  0  0  0  0  0  0  0  0  0  0
  144.2425   75.2820  216.8194 H   0  0  0  0  0  0  0  0  0  0  0  0
  142.7148   74.4563  217.1468 H   0  0  0  0  0  0  0  0  0  0  0  0
  144.1654   76.2785  218.8311 H   0  0  0  0  0  0  0  0  0  0  0  0
  142.6357   75.4151  219.2042 H   0  0  0  0  0  0  0  0  0  0  0  0
  143.8630   74.2790  220.7050 H   0  0  0  0  0  0  0  0  0  0  0  0
  137.8313   71.2762  223.6650 H   0  0  0  0  0  0  0  0  0  0  0  0
  138.3485   71.1464  221.9591 H   0  0  0  0  0  0  0  0  0  0  0  0
  138.1316   68.8881  223.0537 H   0  0  0  0  0  0  0  0  0  0  0  0
  139.8005   69.1915  222.5342 H   0  0  0  0  0  0  0  0  0  0  0  0
  138.7415   67.3680  224.8092 H   0  0  0  0  0  0  0  0  0  0  0  0
  139.4709   67.1400  227.1846 H   0  0  0  0  0  0  0  0  0  0  0  0
  140.5812   69.0338  228.3241 H   0  0  0  0  0  0  0  0  0  0  0  0
  140.9801   71.1584  227.1395 H   0  0  0  0  0  0  0  0  0  0  0  0
  139.8711   72.5508  225.2341 H   0  0  0  0  0  0  0  0  0  0  0  0
  141.4331   71.8941  224.5949 H   0  0  0  0  0  0  0  0  0  0  0  0
  139.5890   76.8395  223.0098 H   0  0  0  0  0  0  0  0  0  0  0  0
  141.2710   76.3039  223.4530 H   0  0  0  0  0  0  0  0  0  0  0  0
  1  2  2  0
  2  3  1  0
  3  4  2  0
  4  5  1  0
  5  6  2  0
  5  7  1  0
  7  8  1  0
  8  9  1  0
  9 10  1  0
 10 11  2  0
 11 12  1  0
 12 13  1  0
 13 14  1  0
 14 15  1  0
 15 16  1  0
 16 17  1  0
 17 18  1  0
 18 19  1  0
 12 20  2  0
 20 21  1  0
 21 22  1  0
 22 23  1  0
 23 24  1  0
 24 25  1  0
 25 26  2  0
 26 27  1  0
 27 28  2  0
 28 29  1  0
 29 30  2  0
 30 31  1  0
 21 32  2  0
  9 33  1  0
  6  1  1  0
 32 10  1  0
 33  4  1  0
 19 15  1  0
 31 22  1  0
 30 25  1  0
  1 34  1  0
  2 35  1  0
  3 36  1  0
  6 37  1  0
  7 38  1  0
  7 39  1  0
  8 40  1  0
  8 41  1  0
 13 42  1  0
 14 43  1  0
 14 44  1  0
 15 45  1  6
 16 46  1  0
 16 47  1  0
 17 48  1  0
 17 49  1  0
 18 50  1  0
 18 51  1  0
 19 52  1  0
 23 53  1  0
 23 54  1  0
 24 55  1  0
 24 56  1  0
 26 57  1  0
 27 58  1  0
 28 59  1  0
 29 60  1  0
 31 61  1  0
 31 62  1  0
 33 63  1  0
 33 64  1  0
M  END
>  <smiles>  (99) 
c1ccc2c(c1)CCN(c1nc(NCC3CCCN3)nc(N3CCc4ccccc4C3)n1)C2

>  <score_type>  (99) 
oracle

>  <origin>  (99) 
autodockgpu

>  <m_score__min__energy>  (99) 
-10.77

>  <m_primary>  (99) 
energy

>  <rmsd>  (99) 
4.854694992213672

>  <m_score__min__rmsd>  (99) 
4.854694992213672

>  <meeko>  (99) 
{"free_energy": -9.19, "intermolecular_energy": -10.69, "internal_energy": -1.86, "cluster_size": 47, "cluster_id": 1, "rank_in_cluster": 43}

>  <energy>  (99) 
-9.29

>  <cluster_rmsd>  (99) 
0.32

>  <cluster>  (99) 
2

$$$$

     RDKit          3D

 64 69  0  0  0  0  0  0  0  0999 V2000
  141.9240   80.4740  222.3900 C   0  0  0  0  0  0  0  0  0  0  0  0
  141.2040   79.9540  223.4490 C   0  0  0  0  0  0  0  0  0  0  0  0
  140.7470   78.6430  223.4470 C   0  0  0  0  0  0  0  0  0  0  0  0
  141.0120   77.8290  222.3660 C   0  0  0  0  0  0  0  0  0  0  0  0
  141.7310   78.3550  221.3170 C   0  0  0  0  0  0  0  0  0  0  0  0
  142.1960   79.6600  221.2990 C   0  0  0  0  0  0  0  0  0  0  0  0
  142.0440   77.5220  220.1280 C   0  0  0  0  0  0  0  0  0  0  0  0
  141.0860   76.3630  219.9860 C   0  0  0  0  0  0  0  0  0  0  0  0
  140.8710   75.6770  221.2440 N   0  0  0  0  0  0  0  0  0  0  0  0
  141.0170   74.2640  221.3410 C   0  0  0  0  0  0  0  0  0  0  0  0
  141.7140   73.5830  220.4160 N   0  0  0  0  0  0  0  0  0  0  0  0
  141.8790   72.2450  220.4660 C   0  0  0  0  0  0  0  0  0  0  0  0
  142.6220   71.5410  219.4760 N   0  0  0  0  0  0  0  0  0  0  0  0
  143.1690   72.2890  218.3650 C   0  0  0  0  0  0  0  0  0  0  0  0
  144.5770   72.7240  218.7840 C   0  0  1  0  0  0  0  0  0  0  0  0
  144.4660   74.1230  219.2970 C   0  0  0  0  0  0  0  0  0  0  0  0
  144.8740   74.1050  220.7340 C   0  0  0  0  0  0  0  0  0  0  0  0
  145.2080   72.6800  221.0340 C   0  0  0  0  0  0  0  0  0  0  0  0
  145.0260   71.8920  219.8560 N   0  0  0  0  0  0  0  0  0  0  0  0
  141.3060   71.6070  221.4990 N   0  0  0  0  0  0  0  0  0  0  0  0
  140.5900   72.2320  222.4650 C   0  0  0  0  0  0  0  0  0  0  0  0
  139.9990   71.5190  223.5440 N   0  0  0  0  0  0  0  0  0  0  0  0
  138.8080   70.7390  223.4200 C   0  0  0  0  0  0  0  0  0  0  0  0
  139.1530   69.2910  223.7410 C   0  0  0  0  0  0  0  0  0  0  0  0
  139.7180   69.2890  225.1180 C   0  0  0  0  0  0  0  0  0  0  0  0
  139.5330   68.1540  225.9150 C   0  0  0  0  0  0  0  0  0  0  0  0
  140.0530   68.1320  227.2030 C   0  0  0  0  0  0  0  0  0  0  0  0
  140.7460   69.2250  227.6860 C   0  0  0  0  0  0  0  0  0  0  0  0
  140.9330   70.3380  226.9160 C   0  0  0  0  0  0  0  0  0  0  0  0
  140.4150   70.3590  225.6350 C   0  0  0  0  0  0  0  0  0  0  0  0
  140.6460   71.5930  224.8400 C   0  0  0  0  0  0  0  0  0  0  0  0
  140.4620   73.5820  222.3560 N   0  0  0  0  0  0  0  0  0  0  0  0
  140.5030   76.4450  222.4140 C   0  0  0  0  0  0  0  0  0  0  0  0
  142.2758   81.5160  222.4114 H   0  0  0  0  0  0  0  0  0  0  0  0
  140.9874   80.5955  224.3159 H   0  0  0  0  0  0  0  0  0  0  0  0
  140.1762   78.2555  224.3038 H   0  0  0  0  0  0  0  0  0  0  0  0
  142.7674   80.0421  220.4402 H   0  0  0  0  0  0  0  0  0  0  0  0
  141.9795   78.1495  219.2269 H   0  0  0  0  0  0  0  0  0  0  0  0
  143.0576   77.1137  220.2543 H   0  0  0  0  0  0  0  0  0  0  0  0
  140.1210   76.7432  219.6197 H   0  0  0  0  0  0  0  0  0  0  0  0
  141.5258   75.6443  219.2788 H   0  0  0  0  0  0  0  0  0  0  0  0
  142.7620   70.4990  219.5660 H   0  0  0  0  0  0  0  0  0  0  0  0
  143.2186   71.6547  217.4677 H   0  0  0  0  0  0  0  0  0  0  0  0
  142.5399   73.1582  218.1228 H   0  0  0  0  0  0  0  0  0  0  0  0
  145.2772   72.6516  217.9387 H   0  0  0  0  0  0  0  0  0  0  0  0
  145.1312   74.7870  218.7255 H   0  0  0  0  0  0  0  0  0  0  0  0
  143.4366   74.4957  219.1899 H   0  0  0  0  0  0  0  0  0  0  0  0
  145.7524   74.7478  220.8927 H   0  0  0  0  0  0  0  0  0  0  0  0
  144.0772   74.4852  221.3902 H   0  0  0  0  0  0  0  0  0  0  0  0
  146.2549   72.6101  221.3642 H   0  0  0  0  0  0  0  0  0  0  0  0
  144.5475   72.3076  221.8309 H   0  0  0  0  0  0  0  0  0  0  0  0
  144.4620   71.0400  219.9770 H   0  0  0  0  0  0  0  0  0  0  0  0
  138.0474   71.1058  224.1249 H   0  0  0  0  0  0  0  0  0  0  0  0
  138.4069   70.8170  222.3987 H   0  0  0  0  0  0  0  0  0  0  0  0
  138.2485   68.6663  223.7000 H   0  0  0  0  0  0  0  0  0  0  0  0
  139.8707   68.8817  223.0148 H   0  0  0  0  0  0  0  0  0  0  0  0
  138.9805   67.2864  225.5250 H   0  0  0  0  0  0  0  0  0  0  0  0
  139.9130   67.2447  227.8379 H   0  0  0  0  0  0  0  0  0  0  0  0
  141.1539   69.1988  228.7072 H   0  0  0  0  0  0  0  0  0  0  0  0
  141.4868   71.2032  227.3093 H   0  0  0  0  0  0  0  0  0  0  0  0
  140.2428   72.4547  225.3922 H   0  0  0  0  0  0  0  0  0  0  0  0
  141.7287   71.7027  224.6796 H   0  0  0  0  0  0  0  0  0  0  0  0
  139.4057   76.4752  222.4851 H   0  0  0  0  0  0  0  0  0  0  0  0
  140.9523   75.9544  223.2900 H   0  0  0  0  0  0  0  0  0  0  0  0
  1  2  2  0
  2  3  1  0
  3  4  2  0
  4  5  1  0
  5  6  2  0
  5  7  1  0
  7  8  1  0
  8  9  1  0
  9 10  1  0
 10 11  2  0
 11 12  1  0
 12 13  1  0
 13 14  1  0
 14 15  1  0
 15 16  1  0
 16 17  1  0
 17 18  1  0
 18 19  1  0
 12 20  2  0
 20 21  1  0
 21 22  1  0
 22 23  1  0
 23 24  1  0
 24 25  1  0
 25 26  2  0
 26 27  1  0
 27 28  2  0
 28 29  1  0
 29 30  2  0
 30 31  1  0
 21 32  2  0
  9 33  1  0
  6  1  1  0
 32 10  1  0
 33  4  1  0
 19 15  1  0
 31 22  1  0
 30 25  1  0
  1 34  1  0
  2 35  1  0
  3 36  1  0
  6 37  1  0
  7 38  1  0
  7 39  1  0
  8 40  1  0
  8 41  1  0
 13 42  1  0
 14 43  1  0
 14 44  1  0
 15 45  1  6
 16 46  1  0
 16 47  1  0
 17 48  1  0
 17 49  1  0
 18 50  1  0
 18 51  1  0
 19 52  1  0
 23 53  1  0
 23 54  1  0
 24 55  1  0
 24 56  1  0
 26 57  1  0
 27 58  1  0
 28 59  1  0
 29 60  1  0
 31 61  1  0
 31 62  1  0
 33 63  1  0
 33 64  1  0
M  END
>  <smiles>  (100) 
c1ccc2c(c1)CCN(c1nc(NCC3CCCN3)nc(N3CCc4ccccc4C3)n1)C2

>  <score_type>  (100) 
oracle

>  <origin>  (100) 
autodockgpu

>  <m_score__min__energy>  (100) 
-10.77

>  <m_primary>  (100) 
energy

>  <rmsd>  (100) 
4.683965271178482

>  <m_score__min__rmsd>  (100) 
4.683965271178482

>  <meeko>  (100) 
{"free_energy": -9.55, "intermolecular_energy": -11.05, "internal_energy": -1.69, "cluster_size": 47, "cluster_id": 1, "rank_in_cluster": 33}

>  <energy>  (100) 
-8.67

>  <cluster_rmsd>  (100) 
1.19

>  <cluster>  (100) 
2

$$$$
