
     RDKit          3D

 55 58  0  0  0  0  0  0  0  0999 V2000
  141.3500   72.4040  221.6320 O   0  0  0  0  0  0  0  0  0  0  0  0
  140.4170   72.5520  222.4610 C   0  0  0  0  0  0  0  0  0  0  0  0
  139.5230   73.6490  222.3510 N   0  0  0  0  0  0  0  0  0  0  0  0
  139.6620   74.6370  221.2710 C   0  0  0  0  0  0  0  0  0  0  0  0
  139.9110   75.9720  221.8090 C   0  0  0  0  0  0  0  0  0  0  0  0
  141.0690   76.1430  222.3440 O   0  0  0  0  0  0  0  0  0  0  0  0
  139.0780   77.1040  221.8350 N   0  0  0  0  0  0  0  0  0  0  0  0
  137.5900   76.8240  221.8240 C   0  0  0  0  0  0  0  0  0  0  0  0
  136.9460   78.0810  222.3330 C   0  0  1  0  0  0  0  0  0  0  0  0
  135.9470   77.8170  223.2680 O   0  0  0  0  0  0  0  0  0  0  0  0
  138.0920   78.8570  222.9370 C   0  0  0  0  0  0  0  0  0  0  0  0
  139.1710   78.4980  221.8660 C   0  0  1  0  0  0  0  0  0  0  0  0
  140.4190   79.2130  222.1840 C   0  0  0  0  0  0  0  0  0  0  0  0
  140.7480   80.4200  221.3610 C   0  0  0  0  0  0  0  0  0  0  0  0
  141.7010   81.2510  222.2360 C   0  0  0  0  0  0  0  0  0  0  0  0
  142.7200   80.3030  222.8070 C   0  0  0  0  0  0  0  0  0  0  0  0
  142.1910   79.3400  223.8200 C   0  0  0  0  0  0  0  0  0  0  0  0
  140.6510   79.3650  223.6450 C   0  0  0  0  0  0  0  0  0  0  0  0
  140.2440   71.5810  223.5610 C   0  0  0  0  0  0  0  0  0  0  0  0
  139.5970   70.3910  223.3080 C   0  0  0  0  0  0  0  0  0  0  0  0
  139.4380   69.4880  224.3380 C   0  0  0  0  0  0  0  0  0  0  0  0
  139.9100   69.7520  225.6040 C   0  0  0  0  0  0  0  0  0  0  0  0
  139.7500   68.8490  226.6340 C   0  0  0  0  0  0  0  0  0  0  0  0
  140.2340   69.1390  227.8970 C   0  0  0  0  0  0  0  0  0  0  0  0
  140.0600   68.2330  228.8830 F   0  0  0  0  0  0  0  0  0  0  0  0
  140.8710   70.3450  228.0850 C   0  0  0  0  0  0  0  0  0  0  0  0
  141.0370   71.2640  227.0520 C   0  0  0  0  0  0  0  0  0  0  0  0
  140.5500   70.9740  225.7760 C   0  0  0  0  0  0  0  0  0  0  0  0
  140.7170   71.8630  224.7980 N   0  0  0  0  0  0  0  0  0  0  0  0
  138.7710   73.7130  223.0710 H   0  0  0  0  0  0  0  0  0  0  0  0
  140.5038   74.3472  220.6250 H   0  0  0  0  0  0  0  0  0  0  0  0
  138.7244   74.6610  220.6963 H   0  0  0  0  0  0  0  0  0  0  0  0
  137.2474   76.6020  220.8026 H   0  0  0  0  0  0  0  0  0  0  0  0
  137.3325   75.9519  222.4430 H   0  0  0  0  0  0  0  0  0  0  0  0
  136.4332   78.6394  221.5360 H   0  0  0  0  0  0  0  0  0  0  0  0
  135.1710   78.3750  223.0280 H   0  0  0  0  0  0  0  0  0  0  0  0
  137.8889   79.9372  222.9806 H   0  0  0  0  0  0  0  0  0  0  0  0
  138.3443   78.6192  223.9809 H   0  0  0  0  0  0  0  0  0  0  0  0
  139.0644   78.8327  220.8236 H   0  0  0  0  0  0  0  0  0  0  0  0
  141.1937   78.5182  221.8275 H   0  0  0  0  0  0  0  0  0  0  0  0
  141.2420   80.1256  220.4233 H   0  0  0  0  0  0  0  0  0  0  0  0
  139.8476   80.9854  221.0788 H   0  0  0  0  0  0  0  0  0  0  0  0
  142.2001   82.0184  221.6261 H   0  0  0  0  0  0  0  0  0  0  0  0
  141.1491   81.7615  223.0390 H   0  0  0  0  0  0  0  0  0  0  0  0
  143.1490   79.7230  221.9767 H   0  0  0  0  0  0  0  0  0  0  0  0
  143.4583   80.9264  223.3326 H   0  0  0  0  0  0  0  0  0  0  0  0
  142.5835   78.3296  223.6326 H   0  0  0  0  0  0  0  0  0  0  0  0
  142.4916   79.6143  224.8420 H   0  0  0  0  0  0  0  0  0  0  0  0
  140.1870   78.5344  224.1972 H   0  0  0  0  0  0  0  0  0  0  0  0
  140.2091   80.2935  224.0358 H   0  0  0  0  0  0  0  0  0  0  0  0
  139.2140   70.1653  222.3019 H   0  0  0  0  0  0  0  0  0  0  0  0
  138.9227   68.5358  224.1438 H   0  0  0  0  0  0  0  0  0  0  0  0
  139.2354   67.8943  226.4505 H   0  0  0  0  0  0  0  0  0  0  0  0
  141.2615   70.5906  229.0836 H   0  0  0  0  0  0  0  0  0  0  0  0
  141.5514   72.2177  227.2412 H   0  0  0  0  0  0  0  0  0  0  0  0
  1  2  2  0
  2  3  1  0
  3  4  1  0
  4  5  1  0
  5  6  2  0
  5  7  1  0
  7  8  1  0
  8  9  1  0
  9 10  1  0
  9 11  1  0
 11 12  1  0
 12 13  1  0
 13 14  1  0
 14 15  1  0
 15 16  1  0
 16 17  1  0
 17 18  1  0
  2 19  1  0
 19 20  2  0
 20 21  1  0
 21 22  2  0
 22 23  1  0
 23 24  2  0
 24 25  1  0
 24 26  1  0
 26 27  2  0
 27 28  1  0
 28 29  2  0
 12  7  1  0
 18 13  1  0
 29 19  1  0
 28 22  1  0
  3 30  1  0
  4 31  1  0
  4 32  1  0
  8 33  1  0
  8 34  1  0
  9 35  1  6
 10 36  1  0
 11 37  1  0
 11 38  1  0
 12 39  1  6
 13 40  1  0
 14 41  1  0
 14 42  1  0
 15 43  1  0
 15 44  1  0
 16 45  1  0
 16 46  1  0
 17 47  1  0
 17 48  1  0
 18 49  1  0
 18 50  1  0
 20 51  1  0
 21 52  1  0
 23 53  1  0
 26 54  1  0
 27 55  1  0
M  END
>  <smiles>  (1) 
O=C(NCC(=O)N1C[C@@H](O)C[C@H]1C1CCCCC1)c1ccc2cc(F)ccc2n1

>  <score_type>  (1) 
oracle

>  <origin>  (1) 
autodockgpu

>  <m_score__min__energy>  (1) 
-8.9600000000000009

>  <m_primary>  (1) 
energy

>  <rmsd>  (1) 
2.9543263946586964

>  <m_score__min__rmsd>  (1) 
2.9543263946586964

>  <meeko>  (1) 
{"free_energy": -8.52, "intermolecular_energy": -10.31, "internal_energy": -1.24, "cluster_size": 25, "cluster_id": 2, "rank_in_cluster": 11}

>  <energy>  (1) 
-8.96

>  <cluster_rmsd>  (1) 
0.0

>  <cluster>  (1) 
1

$$$$

     RDKit          3D

 55 58  0  0  0  0  0  0  0  0999 V2000
  135.7660   72.9680  221.6000 O   0  0  0  0  0  0  0  0  0  0  0  0
  136.1690   73.4810  222.6740 C   0  0  0  0  0  0  0  0  0  0  0  0
  136.2330   72.7080  223.8630 N   0  0  0  0  0  0  0  0  0  0  0  0
  135.8310   71.2930  223.8710 C   0  0  0  0  0  0  0  0  0  0  0  0
  136.9910   70.4180  224.0210 C   0  0  0  0  0  0  0  0  0  0  0  0
  136.7320   69.2250  224.4300 O   0  0  0  0  0  0  0  0  0  0  0  0
  138.3520   70.6770  223.7910 N   0  0  0  0  0  0  0  0  0  0  0  0
  138.6640   71.5060  222.5620 C   0  0  0  0  0  0  0  0  0  0  0  0
  140.0470   72.0440  222.7850 C   0  0  1  0  0  0  0  0  0  0  0  0
  140.1440   73.3950  222.4600 O   0  0  0  0  0  0  0  0  0  0  0  0
  140.2980   71.7990  224.2550 C   0  0  0  0  0  0  0  0  0  0  0  0
  139.6020   70.4040  224.3530 C   0  0  1  0  0  0  0  0  0  0  0  0
  139.7710   69.8790  225.7190 C   0  0  0  0  0  0  0  0  0  0  0  0
  139.8260   68.3910  225.8810 C   0  0  0  0  0  0  0  0  0  0  0  0
  140.5620   68.1630  227.2110 C   0  0  0  0  0  0  0  0  0  0  0  0
  139.9660   69.1100  228.2170 C   0  0  0  0  0  0  0  0  0  0  0  0
  140.2690   70.5540  227.9830 C   0  0  0  0  0  0  0  0  0  0  0  0
  140.7700   70.6370  226.5190 C   0  0  0  0  0  0  0  0  0  0  0  0
  136.5810   74.8990  222.7070 C   0  0  0  0  0  0  0  0  0  0  0  0
  135.6310   75.8670  222.9540 C   0  0  0  0  0  0  0  0  0  0  0  0
  136.0210   77.1890  222.9840 C   0  0  0  0  0  0  0  0  0  0  0  0
  137.3300   77.5570  222.7740 C   0  0  0  0  0  0  0  0  0  0  0  0
  137.7200   78.8810  222.8030 C   0  0  0  0  0  0  0  0  0  0  0  0
  139.0420   79.2230  222.5900 C   0  0  0  0  0  0  0  0  0  0  0  0
  139.3900   80.5270  222.6250 F   0  0  0  0  0  0  0  0  0  0  0  0
  139.9430   78.2100  222.3490 C   0  0  0  0  0  0  0  0  0  0  0  0
  139.5610   76.8710  222.3160 C   0  0  0  0  0  0  0  0  0  0  0  0
  138.2260   76.5210  222.5320 C   0  0  0  0  0  0  0  0  0  0  0  0
  137.8750   75.2370  222.4980 N   0  0  0  0  0  0  0  0  0  0  0  0
  136.5760   73.1940  224.7190 H   0  0  0  0  0  0  0  0  0  0  0  0
  135.1400   71.1205  224.7093 H   0  0  0  0  0  0  0  0  0  0  0  0
  135.3414   71.0633  222.9131 H   0  0  0  0  0  0  0  0  0  0  0  0
  138.6357   70.8799  221.6580 H   0  0  0  0  0  0  0  0  0  0  0  0
  137.9301   72.3121  222.4151 H   0  0  0  0  0  0  0  0  0  0  0  0
  140.7936   71.5550  222.1420 H   0  0  0  0  0  0  0  0  0  0  0  0
  139.4500   73.8680  222.9740 H   0  0  0  0  0  0  0  0  0  0  0  0
  141.3706   71.7492  224.4937 H   0  0  0  0  0  0  0  0  0  0  0  0
  139.9353   72.5737  224.9466 H   0  0  0  0  0  0  0  0  0  0  0  0
  139.9981   69.5364  223.8050 H   0  0  0  0  0  0  0  0  0  0  0  0
  138.7952   70.0886  226.1814 H   0  0  0  0  0  0  0  0  0  0  0  0
  138.8111   67.9689  225.9234 H   0  0  0  0  0  0  0  0  0  0  0  0
  140.3354   67.9019  225.0376 H   0  0  0  0  0  0  0  0  0  0  0  0
  140.4249   67.1237  227.5443 H   0  0  0  0  0  0  0  0  0  0  0  0
  141.6410   68.3434  227.0962 H   0  0  0  0  0  0  0  0  0  0  0  0
  138.8735   68.9835  228.1989 H   0  0  0  0  0  0  0  0  0  0  0  0
  140.4199   68.8542  229.1858 H   0  0  0  0  0  0  0  0  0  0  0  0
  139.3630   71.1637  228.1149 H   0  0  0  0  0  0  0  0  0  0  0  0
  141.0169   70.9356  228.6937 H   0  0  0  0  0  0  0  0  0  0  0  0
  140.8156   71.6844  226.1861 H   0  0  0  0  0  0  0  0  0  0  0  0
  141.7833   70.2235  226.4081 H   0  0  0  0  0  0  0  0  0  0  0  0
  134.5803   75.5895  223.1241 H   0  0  0  0  0  0  0  0  0  0  0  0
  135.2687   77.9671  223.1802 H   0  0  0  0  0  0  0  0  0  0  0  0
  136.9753   79.6671  222.9965 H   0  0  0  0  0  0  0  0  0  0  0  0
  140.9987   78.4666  222.1770 H   0  0  0  0  0  0  0  0  0  0  0  0
  140.3100   76.0896  222.1200 H   0  0  0  0  0  0  0  0  0  0  0  0
  1  2  2  0
  2  3  1  0
  3  4  1  0
  4  5  1  0
  5  6  2  0
  5  7  1  0
  7  8  1  0
  8  9  1  0
  9 10  1  0
  9 11  1  0
 11 12  1  0
 12 13  1  0
 13 14  1  0
 14 15  1  0
 15 16  1  0
 16 17  1  0
 17 18  1  0
  2 19  1  0
 19 20  2  0
 20 21  1  0
 21 22  2  0
 22 23  1  0
 23 24  2  0
 24 25  1  0
 24 26  1  0
 26 27  2  0
 27 28  1  0
 28 29  2  0
 12  7  1  0
 18 13  1  0
 29 19  1  0
 28 22  1  0
  3 30  1  0
  4 31  1  0
  4 32  1  0
  8 33  1  0
  8 34  1  0
  9 35  1  6
 10 36  1  0
 11 37  1  0
 11 38  1  0
 12 39  1  6
 13 40  1  0
 14 41  1  0
 14 42  1  0
 15 43  1  0
 15 44  1  0
 16 45  1  0
 16 46  1  0
 17 47  1  0
 17 48  1  0
 18 49  1  0
 18 50  1  0
 20 51  1  0
 21 52  1  0
 23 53  1  0
 26 54  1  0
 27 55  1  0
M  END
>  <smiles>  (2) 
O=C(NCC(=O)N1C[C@@H](O)C[C@H]1C1CCCCC1)c1ccc2cc(F)ccc2n1

>  <score_type>  (2) 
oracle

>  <origin>  (2) 
autodockgpu

>  <m_score__min__energy>  (2) 
-8.9600000000000009

>  <m_primary>  (2) 
energy

>  <rmsd>  (2) 
7.745738824192233

>  <m_score__min__rmsd>  (2) 
7.745738824192233

>  <meeko>  (2) 
{"free_energy": -7.86, "intermolecular_energy": -9.65, "internal_energy": -2.34, "cluster_size": 4, "cluster_id": 5, "rank_in_cluster": 1}

>  <energy>  (2) 
-8.94

>  <cluster_rmsd>  (2) 
0.36

>  <cluster>  (2) 
1

$$$$

     RDKit          3D

 55 58  0  0  0  0  0  0  0  0999 V2000
  140.5840   71.7610  221.1040 O   0  0  0  0  0  0  0  0  0  0  0  0
  140.1930   72.2770  222.1810 C   0  0  0  0  0  0  0  0  0  0  0  0
  139.8820   73.6610  222.2450 N   0  0  0  0  0  0  0  0  0  0  0  0
  140.0080   74.5240  221.0610 C   0  0  0  0  0  0  0  0  0  0  0  0
  140.5720   75.8240  221.4150 C   0  0  0  0  0  0  0  0  0  0  0  0
  140.2390   76.2710  222.5750 O   0  0  0  0  0  0  0  0  0  0  0  0
  141.4240   76.6670  220.6820 N   0  0  0  0  0  0  0  0  0  0  0  0
  141.9250   76.1110  219.3650 C   0  0  0  0  0  0  0  0  0  0  0  0
  142.3790   77.3040  218.5760 C   0  0  1  0  0  0  0  0  0  0  0  0
  141.9430   77.2560  217.2530 O   0  0  0  0  0  0  0  0  0  0  0  0
  141.7870   78.4780  219.3210 C   0  0  0  0  0  0  0  0  0  0  0  0
  142.0060   77.9350  220.7690 C   0  0  1  0  0  0  0  0  0  0  0  0
  141.5670   78.9550  221.7360 C   0  0  0  0  0  0  0  0  0  0  0  0
  141.8580   78.7010  223.1820 C   0  0  0  0  0  0  0  0  0  0  0  0
  141.8440   80.0900  223.8420 C   0  0  0  0  0  0  0  0  0  0  0  0
  140.6280   80.8130  223.3290 C   0  0  0  0  0  0  0  0  0  0  0  0
  140.6810   81.1970  221.8860 C   0  0  0  0  0  0  0  0  0  0  0  0
  141.8250   80.3470  221.2770 C   0  0  0  0  0  0  0  0  0  0  0  0
  140.0550   71.4440  223.3930 C   0  0  0  0  0  0  0  0  0  0  0  0
  139.4530   70.2090  223.2910 C   0  0  0  0  0  0  0  0  0  0  0  0
  139.3260   69.4350  224.4250 C   0  0  0  0  0  0  0  0  0  0  0  0
  139.7850   69.8710  225.6480 C   0  0  0  0  0  0  0  0  0  0  0  0
  139.6570   69.0970  226.7820 C   0  0  0  0  0  0  0  0  0  0  0  0
  140.1270   69.5590  227.9980 C   0  0  0  0  0  0  0  0  0  0  0  0
  139.9860   68.7770  229.0890 F   0  0  0  0  0  0  0  0  0  0  0  0
  140.7180   70.8020  228.0340 C   0  0  0  0  0  0  0  0  0  0  0  0
  140.8520   71.5920  226.8940 C   0  0  0  0  0  0  0  0  0  0  0  0
  140.3790   71.1290  225.6650 C   0  0  0  0  0  0  0  0  0  0  0  0
  140.5130   71.8950  224.5840 N   0  0  0  0  0  0  0  0  0  0  0  0
  139.5640   74.0260  223.1680 H   0  0  0  0  0  0  0  0  0  0  0  0
  140.6662   74.0345  220.3281 H   0  0  0  0  0  0  0  0  0  0  0  0
  139.0058   74.6822  220.6359 H   0  0  0  0  0  0  0  0  0  0  0  0
  142.7634   75.4191  219.5333 H   0  0  0  0  0  0  0  0  0  0  0  0
  141.1443   75.5440  218.8367 H   0  0  0  0  0  0  0  0  0  0  0  0
  143.4749   77.3612  218.5003 H   0  0  0  0  0  0  0  0  0  0  0  0
  140.9920   77.5100  217.2520 H   0  0  0  0  0  0  0  0  0  0  0  0
  142.3384   79.4117  219.1365 H   0  0  0  0  0  0  0  0  0  0  0  0
  140.7557   78.7531  219.0552 H   0  0  0  0  0  0  0  0  0  0  0  0
  143.0205   77.7768  221.1638 H   0  0  0  0  0  0  0  0  0  0  0  0
  140.4735   78.8353  221.7344 H   0  0  0  0  0  0  0  0  0  0  0  0
  141.0850   78.0553  223.6241 H   0  0  0  0  0  0  0  0  0  0  0  0
  142.8192   78.1857  223.3252 H   0  0  0  0  0  0  0  0  0  0  0  0
  141.7881   79.9872  224.9358 H   0  0  0  0  0  0  0  0  0  0  0  0
  142.7611   80.6471  223.6000 H   0  0  0  0  0  0  0  0  0  0  0  0
  139.7556   80.1593  223.4759 H   0  0  0  0  0  0  0  0  0  0  0  0
  140.5700   81.7546  223.8947 H   0  0  0  0  0  0  0  0  0  0  0  0
  139.7257   80.9679  221.3912 H   0  0  0  0  0  0  0  0  0  0  0  0
  140.8573   82.2749  221.7552 H   0  0  0  0  0  0  0  0  0  0  0  0
  141.8023   80.4010  220.1786 H   0  0  0  0  0  0  0  0  0  0  0  0
  142.8156   80.7061  221.5929 H   0  0  0  0  0  0  0  0  0  0  0  0
  139.0801   69.8467  222.3216 H   0  0  0  0  0  0  0  0  0  0  0  0
  138.8474   68.4473  224.3512 H   0  0  0  0  0  0  0  0  0  0  0  0
  139.1792   68.1082  226.7193 H   0  0  0  0  0  0  0  0  0  0  0  0
  141.0966   71.1838  228.9936 H   0  0  0  0  0  0  0  0  0  0  0  0
  141.3304   72.5802  226.9625 H   0  0  0  0  0  0  0  0  0  0  0  0
  1  2  2  0
  2  3  1  0
  3  4  1  0
  4  5  1  0
  5  6  2  0
  5  7  1  0
  7  8  1  0
  8  9  1  0
  9 10  1  0
  9 11  1  0
 11 12  1  0
 12 13  1  0
 13 14  1  0
 14 15  1  0
 15 16  1  0
 16 17  1  0
 17 18  1  0
  2 19  1  0
 19 20  2  0
 20 21  1  0
 21 22  2  0
 22 23  1  0
 23 24  2  0
 24 25  1  0
 24 26  1  0
 26 27  2  0
 27 28  1  0
 28 29  2  0
 12  7  1  0
 18 13  1  0
 29 19  1  0
 28 22  1  0
  3 30  1  0
  4 31  1  0
  4 32  1  0
  8 33  1  0
  8 34  1  0
  9 35  1  6
 10 36  1  0
 11 37  1  0
 11 38  1  0
 12 39  1  1
 13 40  1  0
 14 41  1  0
 14 42  1  0
 15 43  1  0
 15 44  1  0
 16 45  1  0
 16 46  1  0
 17 47  1  0
 17 48  1  0
 18 49  1  0
 18 50  1  0
 20 51  1  0
 21 52  1  0
 23 53  1  0
 26 54  1  0
 27 55  1  0
M  END
>  <smiles>  (3) 
O=C(NCC(=O)N1C[C@@H](O)C[C@H]1C1CCCCC1)c1ccc2cc(F)ccc2n1

>  <score_type>  (3) 
oracle

>  <origin>  (3) 
autodockgpu

>  <m_score__min__energy>  (3) 
-8.9600000000000009

>  <m_primary>  (3) 
energy

>  <rmsd>  (3) 
1.8657435702578604

>  <m_score__min__rmsd>  (3) 
1.8657435702578604

>  <meeko>  (3) 
{"free_energy": -8.47, "intermolecular_energy": -10.26, "internal_energy": -1.64, "cluster_size": 25, "cluster_id": 2, "rank_in_cluster": 13}

>  <energy>  (3) 
-8.78

>  <cluster_rmsd>  (3) 
1.31

>  <cluster>  (3) 
1

$$$$

     RDKit          3D

 55 58  0  0  0  0  0  0  0  0999 V2000
  140.4010   73.5360  222.3190 O   0  0  0  0  0  0  0  0  0  0  0  0
  140.2670   72.2910  222.2120 C   0  0  0  0  0  0  0  0  0  0  0  0
  140.2500   71.6760  220.9330 N   0  0  0  0  0  0  0  0  0  0  0  0
  140.3860   72.4730  219.7040 C   0  0  0  0  0  0  0  0  0  0  0  0
  141.7830   72.5570  219.2850 C   0  0  0  0  0  0  0  0  0  0  0  0
  142.0290   72.1230  218.0980 O   0  0  0  0  0  0  0  0  0  0  0  0
  142.9060   73.0380  219.9790 N   0  0  0  0  0  0  0  0  0  0  0  0
  143.9430   71.9990  220.3510 C   0  0  0  0  0  0  0  0  0  0  0  0
  145.2010   72.7710  220.6210 C   0  0  1  0  0  0  0  0  0  0  0  0
  146.3170   72.1810  220.0290 O   0  0  0  0  0  0  0  0  0  0  0  0
  144.9170   74.1390  220.0460 C   0  0  0  0  0  0  0  0  0  0  0  0
  143.4200   74.2380  220.4800 C   0  0  1  0  0  0  0  0  0  0  0  0
  142.8950   75.5590  220.0950 C   0  0  0  0  0  0  0  0  0  0  0  0
  143.2690   76.0800  218.7420 C   0  0  0  0  0  0  0  0  0  0  0  0
  142.1780   77.1040  218.3930 C   0  0  0  0  0  0  0  0  0  0  0  0
  141.9680   77.9630  219.6100 C   0  0  0  0  0  0  0  0  0  0  0  0
  141.3310   77.2700  220.7710 C   0  0  0  0  0  0  0  0  0  0  0  0
  141.4700   75.7560  220.4730 C   0  0  0  0  0  0  0  0  0  0  0  0
  140.1270   71.4550  223.4220 C   0  0  0  0  0  0  0  0  0  0  0  0
  139.4460   70.2600  223.3350 C   0  0  0  0  0  0  0  0  0  0  0  0
  139.3170   69.4840  224.4660 C   0  0  0  0  0  0  0  0  0  0  0  0
  139.8520   69.8770  225.6730 C   0  0  0  0  0  0  0  0  0  0  0  0
  139.7220   69.1000  226.8050 C   0  0  0  0  0  0  0  0  0  0  0  0
  140.2690   69.5190  228.0040 C   0  0  0  0  0  0  0  0  0  0  0  0
  140.1240   68.7350  229.0940 F   0  0  0  0  0  0  0  0  0  0  0  0
  140.9370   70.7230  228.0260 C   0  0  0  0  0  0  0  0  0  0  0  0
  141.0730   71.5150  226.8880 C   0  0  0  0  0  0  0  0  0  0  0  0
  140.5230   71.0950  225.6760 C   0  0  0  0  0  0  0  0  0  0  0  0
  140.6610   71.8630  224.5970 N   0  0  0  0  0  0  0  0  0  0  0  0
  140.1360   70.6400  220.9140 H   0  0  0  0  0  0  0  0  0  0  0  0
  139.7981   72.0014  218.9028 H   0  0  0  0  0  0  0  0  0  0  0  0
  140.0190   73.4904  219.9043 H   0  0  0  0  0  0  0  0  0  0  0  0
  143.6298   71.4470  221.2495 H   0  0  0  0  0  0  0  0  0  0  0  0
  144.0825   71.2557  219.5522 H   0  0  0  0  0  0  0  0  0  0  0  0
  145.4468   72.8060  221.6926 H   0  0  0  0  0  0  0  0  0  0  0  0
  146.6120   71.4560  220.6270 H   0  0  0  0  0  0  0  0  0  0  0  0
  145.5382   74.9227  220.5042 H   0  0  0  0  0  0  0  0  0  0  0  0
  145.1224   74.2684  218.9731 H   0  0  0  0  0  0  0  0  0  0  0  0
  143.1421   74.2672  221.5439 H   0  0  0  0  0  0  0  0  0  0  0  0
  143.4732   76.2437  220.7328 H   0  0  0  0  0  0  0  0  0  0  0  0
  144.2566   76.5633  218.7735 H   0  0  0  0  0  0  0  0  0  0  0  0
  143.3348   75.2761  217.9940 H   0  0  0  0  0  0  0  0  0  0  0  0
  142.5016   77.7250  217.5447 H   0  0  0  0  0  0  0  0  0  0  0  0
  141.2444   76.5975  218.1069 H   0  0  0  0  0  0  0  0  0  0  0  0
  142.9489   78.3405  219.9344 H   0  0  0  0  0  0  0  0  0  0  0  0
  141.2715   78.7589  219.3076 H   0  0  0  0  0  0  0  0  0  0  0  0
  141.8509   77.5276  221.7055 H   0  0  0  0  0  0  0  0  0  0  0  0
  140.2795   77.5671  220.8981 H   0  0  0  0  0  0  0  0  0  0  0  0
  141.2229   75.1633  221.3662 H   0  0  0  0  0  0  0  0  0  0  0  0
  140.7857   75.4307  219.6756 H   0  0  0  0  0  0  0  0  0  0  0  0
  139.0128   69.9314  222.3788 H   0  0  0  0  0  0  0  0  0  0  0  0
  138.7746   68.5291  224.4038 H   0  0  0  0  0  0  0  0  0  0  0  0
  139.1812   68.1435  226.7539 H   0  0  0  0  0  0  0  0  0  0  0  0
  141.3772   71.0705  228.9723 H   0  0  0  0  0  0  0  0  0  0  0  0
  141.6138   72.4712  226.9447 H   0  0  0  0  0  0  0  0  0  0  0  0
  1  2  2  0
  2  3  1  0
  3  4  1  0
  4  5  1  0
  5  6  2  0
  5  7  1  0
  7  8  1  0
  8  9  1  0
  9 10  1  0
  9 11  1  0
 11 12  1  0
 12 13  1  0
 13 14  1  0
 14 15  1  0
 15 16  1  0
 16 17  1  0
 17 18  1  0
  2 19  1  0
 19 20  2  0
 20 21  1  0
 21 22  2  0
 22 23  1  0
 23 24  2  0
 24 25  1  0
 24 26  1  0
 26 27  2  0
 27 28  1  0
 28 29  2  0
 12  7  1  0
 18 13  1  0
 29 19  1  0
 28 22  1  0
  3 30  1  0
  4 31  1  0
  4 32  1  0
  8 33  1  0
  8 34  1  0
  9 35  1  1
 10 36  1  0
 11 37  1  0
 11 38  1  0
 12 39  1  1
 13 40  1  0
 14 41  1  0
 14 42  1  0
 15 43  1  0
 15 44  1  0
 16 45  1  0
 16 46  1  0
 17 47  1  0
 17 48  1  0
 18 49  1  0
 18 50  1  0
 20 51  1  0
 21 52  1  0
 23 53  1  0
 26 54  1  0
 27 55  1  0
M  END
>  <smiles>  (4) 
O=C(NCC(=O)N1C[C@@H](O)C[C@H]1C1CCCCC1)c1ccc2cc(F)ccc2n1

>  <score_type>  (4) 
oracle

>  <origin>  (4) 
autodockgpu

>  <m_score__min__energy>  (4) 
-8.9600000000000009

>  <m_primary>  (4) 
energy

>  <rmsd>  (4) 
3.550074204083469

>  <m_score__min__rmsd>  (4) 
3.550074204083469

>  <meeko>  (4) 
{"free_energy": -8.41, "intermolecular_energy": -10.2, "internal_energy": -1.63, "cluster_size": 7, "cluster_id": 3, "rank_in_cluster": 1}

>  <energy>  (4) 
-8.75

>  <cluster_rmsd>  (4) 
1.36

>  <cluster>  (4) 
1

$$$$

     RDKit          3D

 55 58  0  0  0  0  0  0  0  0999 V2000
  141.0610   71.7540  221.2750 O   0  0  0  0  0  0  0  0  0  0  0  0
  140.4840   72.2670  222.2670 C   0  0  0  0  0  0  0  0  0  0  0  0
  140.0650   73.6230  222.2360 N   0  0  0  0  0  0  0  0  0  0  0  0
  140.2930   74.4610  221.0490 C   0  0  0  0  0  0  0  0  0  0  0  0
  140.6000   75.8380  221.4300 C   0  0  0  0  0  0  0  0  0  0  0  0
  140.0370   76.2490  222.5110 O   0  0  0  0  0  0  0  0  0  0  0  0
  141.4170   76.7880  220.7940 N   0  0  0  0  0  0  0  0  0  0  0  0
  142.0820   76.3310  219.5120 C   0  0  0  0  0  0  0  0  0  0  0  0
  142.4720   77.5900  218.7950 C   0  0  1  0  0  0  0  0  0  0  0  0
  142.1550   77.5430  217.4390 O   0  0  0  0  0  0  0  0  0  0  0  0
  141.7010   78.6710  219.5160 C   0  0  0  0  0  0  0  0  0  0  0  0
  141.8540   78.1050  220.9630 C   0  0  1  0  0  0  0  0  0  0  0  0
  141.2330   79.0420  221.9140 C   0  0  0  0  0  0  0  0  0  0  0  0
  139.7370   79.1090  221.9340 C   0  0  0  0  0  0  0  0  0  0  0  0
  139.3810   79.6620  223.3230 C   0  0  0  0  0  0  0  0  0  0  0  0
  140.2920   80.8310  223.5830 C   0  0  0  0  0  0  0  0  0  0  0  0
  141.7290   80.4800  223.7890 C   0  0  0  0  0  0  0  0  0  0  0  0
  141.8800   79.0340  223.2530 C   0  0  0  0  0  0  0  0  0  0  0  0
  140.2370   71.4580  223.4780 C   0  0  0  0  0  0  0  0  0  0  0  0
  139.5490   70.2690  223.3610 C   0  0  0  0  0  0  0  0  0  0  0  0
  139.3210   69.5180  224.4940 C   0  0  0  0  0  0  0  0  0  0  0  0
  139.7630   69.9300  225.7310 C   0  0  0  0  0  0  0  0  0  0  0  0
  139.5350   69.1780  226.8640 C   0  0  0  0  0  0  0  0  0  0  0  0
  139.9910   69.6150  228.0950 C   0  0  0  0  0  0  0  0  0  0  0  0
  139.7500   68.8560  229.1840 F   0  0  0  0  0  0  0  0  0  0  0  0
  140.6710   70.8110  228.1450 C   0  0  0  0  0  0  0  0  0  0  0  0
  140.9070   71.5780  227.0070 C   0  0  0  0  0  0  0  0  0  0  0  0
  140.4490   71.1400  225.7630 C   0  0  0  0  0  0  0  0  0  0  0  0
  140.6820   71.8830  224.6830 N   0  0  0  0  0  0  0  0  0  0  0  0
  139.5920   73.9860  223.0920 H   0  0  0  0  0  0  0  0  0  0  0  0
  141.1369   74.0500  220.4754 H   0  0  0  0  0  0  0  0  0  0  0  0
  139.3768   74.4623  220.4402 H   0  0  0  0  0  0  0  0  0  0  0  0
  142.9717   75.7238  219.7351 H   0  0  0  0  0  0  0  0  0  0  0  0
  141.4122   75.7048  218.9043 H   0  0  0  0  0  0  0  0  0  0  0  0
  143.5584   77.7613  218.8147 H   0  0  0  0  0  0  0  0  0  0  0  0
  142.7870   78.1380  216.9730 H   0  0  0  0  0  0  0  0  0  0  0  0
  142.1653   79.6618  219.4033 H   0  0  0  0  0  0  0  0  0  0  0  0
  140.6722   78.8480  219.1694 H   0  0  0  0  0  0  0  0  0  0  0  0
  142.8428   78.0376  221.4403 H   0  0  0  0  0  0  0  0  0  0  0  0
  141.4664   80.0228  221.4740 H   0  0  0  0  0  0  0  0  0  0  0  0
  139.3697   79.7813  221.1446 H   0  0  0  0  0  0  0  0  0  0  0  0
  139.2774   78.1266  221.7507 H   0  0  0  0  0  0  0  0  0  0  0  0
  138.3315   79.9909  223.3401 H   0  0  0  0  0  0  0  0  0  0  0  0
  139.5073   78.8890  224.0953 H   0  0  0  0  0  0  0  0  0  0  0  0
  140.2275   81.5117  222.7213 H   0  0  0  0  0  0  0  0  0  0  0  0
  139.9488   81.2836  224.5250 H   0  0  0  0  0  0  0  0  0  0  0  0
  142.3777   81.1684  223.2274 H   0  0  0  0  0  0  0  0  0  0  0  0
  142.0215   80.5570  224.8466 H   0  0  0  0  0  0  0  0  0  0  0  0
  142.9429   78.7645  223.1657 H   0  0  0  0  0  0  0  0  0  0  0  0
  141.4190   78.2968  223.9267 H   0  0  0  0  0  0  0  0  0  0  0  0
  139.1882   69.9256  222.3802 H   0  0  0  0  0  0  0  0  0  0  0  0
  138.7734   68.5679  224.4079 H   0  0  0  0  0  0  0  0  0  0  0  0
  138.9882   68.2265  226.7888 H   0  0  0  0  0  0  0  0  0  0  0  0
  141.0401   71.1727  229.1161 H   0  0  0  0  0  0  0  0  0  0  0  0
  141.4542   72.5288  227.0882 H   0  0  0  0  0  0  0  0  0  0  0  0
  1  2  2  0
  2  3  1  0
  3  4  1  0
  4  5  1  0
  5  6  2  0
  5  7  1  0
  7  8  1  0
  8  9  1  0
  9 10  1  0
  9 11  1  0
 11 12  1  0
 12 13  1  0
 13 14  1  0
 14 15  1  0
 15 16  1  0
 16 17  1  0
 17 18  1  0
  2 19  1  0
 19 20  2  0
 20 21  1  0
 21 22  2  0
 22 23  1  0
 23 24  2  0
 24 25  1  0
 24 26  1  0
 26 27  2  0
 27 28  1  0
 28 29  2  0
 12  7  1  0
 18 13  1  0
 29 19  1  0
 28 22  1  0
  3 30  1  0
  4 31  1  0
  4 32  1  0
  8 33  1  0
  8 34  1  0
  9 35  1  6
 10 36  1  0
 11 37  1  0
 11 38  1  0
 12 39  1  1
 13 40  1  0
 14 41  1  0
 14 42  1  0
 15 43  1  0
 15 44  1  0
 16 45  1  0
 16 46  1  0
 17 47  1  0
 17 48  1  0
 18 49  1  0
 18 50  1  0
 20 51  1  0
 21 52  1  0
 23 53  1  0
 26 54  1  0
 27 55  1  0
M  END
>  <smiles>  (5) 
O=C(NCC(=O)N1C[C@@H](O)C[C@H]1C1CCCCC1)c1ccc2cc(F)ccc2n1

>  <score_type>  (5) 
oracle

>  <origin>  (5) 
autodockgpu

>  <m_score__min__energy>  (5) 
-8.9600000000000009

>  <m_primary>  (5) 
energy

>  <rmsd>  (5) 
2.051739344284549

>  <m_score__min__rmsd>  (5) 
2.051739344284549

>  <meeko>  (5) 
{"free_energy": -8.61, "intermolecular_energy": -10.4, "internal_energy": -1.66, "cluster_size": 25, "cluster_id": 2, "rank_in_cluster": 7}

>  <energy>  (5) 
-8.4

>  <cluster_rmsd>  (5) 
1.26

>  <cluster>  (5) 
1

$$$$

     RDKit          3D

 55 58  0  0  0  0  0  0  0  0999 V2000
  134.9770   72.9750  222.1690 O   0  0  0  0  0  0  0  0  0  0  0  0
  135.7430   73.4530  223.0430 C   0  0  0  0  0  0  0  0  0  0  0  0
  136.2080   72.6460  224.1140 N   0  0  0  0  0  0  0  0  0  0  0  0
  135.8070   71.2350  224.2310 C   0  0  0  0  0  0  0  0  0  0  0  0
  136.9580   70.3480  224.0800 C   0  0  0  0  0  0  0  0  0  0  0  0
  136.7060   69.0920  224.2100 O   0  0  0  0  0  0  0  0  0  0  0  0
  138.3040   70.6530  223.8160 N   0  0  0  0  0  0  0  0  0  0  0  0
  138.5590   71.4700  222.5670 C   0  0  0  0  0  0  0  0  0  0  0  0
  139.9260   72.0620  222.7510 C   0  0  1  0  0  0  0  0  0  0  0  0
  139.9660   73.4100  222.4000 O   0  0  0  0  0  0  0  0  0  0  0  0
  140.2160   71.8540  224.2190 C   0  0  0  0  0  0  0  0  0  0  0  0
  139.5740   70.4370  224.3560 C   0  0  1  0  0  0  0  0  0  0  0  0
  139.7910   69.9430  225.7270 C   0  0  0  0  0  0  0  0  0  0  0  0
  139.8980   68.4610  225.9150 C   0  0  0  0  0  0  0  0  0  0  0  0
  140.6700   68.2820  227.2320 C   0  0  0  0  0  0  0  0  0  0  0  0
  140.0670   69.2280  228.2340 C   0  0  0  0  0  0  0  0  0  0  0  0
  140.3170   70.6770  227.9670 C   0  0  0  0  0  0  0  0  0  0  0  0
  140.7810   70.7480  226.4900 C   0  0  0  0  0  0  0  0  0  0  0  0
  136.1680   74.8660  222.9600 C   0  0  0  0  0  0  0  0  0  0  0  0
  135.2300   75.8590  223.1400 C   0  0  0  0  0  0  0  0  0  0  0  0
  135.6310   77.1750  223.0620 C   0  0  0  0  0  0  0  0  0  0  0  0
  136.9410   77.5130  222.8100 C   0  0  0  0  0  0  0  0  0  0  0  0
  137.3430   78.8310  222.7320 C   0  0  0  0  0  0  0  0  0  0  0  0
  138.6660   79.1430  222.4780 C   0  0  0  0  0  0  0  0  0  0  0  0
  139.0250   80.4430  222.4080 F   0  0  0  0  0  0  0  0  0  0  0  0
  139.5550   78.1060  222.3080 C   0  0  0  0  0  0  0  0  0  0  0  0
  139.1600   76.7720  222.3850 C   0  0  0  0  0  0  0  0  0  0  0  0
  137.8250   76.4530  222.6410 C   0  0  0  0  0  0  0  0  0  0  0  0
  137.4630   75.1740  222.7120 N   0  0  0  0  0  0  0  0  0  0  0  0
  136.8410   73.1040  224.8040 H   0  0  0  0  0  0  0  0  0  0  0  0
  135.3540   71.0709  225.2199 H   0  0  0  0  0  0  0  0  0  0  0  0
  135.0843   71.0093  223.4330 H   0  0  0  0  0  0  0  0  0  0  0  0
  138.5348   70.8271  221.6748 H   0  0  0  0  0  0  0  0  0  0  0  0
  137.7930   72.2460  222.4219 H   0  0  0  0  0  0  0  0  0  0  0  0
  140.6767   71.5885  222.1013 H   0  0  0  0  0  0  0  0  0  0  0  0
  139.1400   73.8230  222.7420 H   0  0  0  0  0  0  0  0  0  0  0  0
  141.2944   71.8477  224.4358 H   0  0  0  0  0  0  0  0  0  0  0  0
  139.8395   72.6277  224.9043 H   0  0  0  0  0  0  0  0  0  0  0  0
  139.9903   69.5747  223.8146 H   0  0  0  0  0  0  0  0  0  0  0  0
  138.8191   70.1287  226.2076 H   0  0  0  0  0  0  0  0  0  0  0  0
  138.8986   68.0073  225.9879 H   0  0  0  0  0  0  0  0  0  0  0  0
  140.4045   67.9727  225.0694 H   0  0  0  0  0  0  0  0  0  0  0  0
  140.5738   67.2454  227.5872 H   0  0  0  0  0  0  0  0  0  0  0  0
  141.7397   68.4947  227.0892 H   0  0  0  0  0  0  0  0  0  0  0  0
  138.9790   69.0659  228.2440 H   0  0  0  0  0  0  0  0  0  0  0  0
  140.5515   69.0054  229.1961 H   0  0  0  0  0  0  0  0  0  0  0  0
  139.3948   71.2595  228.1093 H   0  0  0  0  0  0  0  0  0  0  0  0
  141.0680   71.0962  228.6528 H   0  0  0  0  0  0  0  0  0  0  0  0
  140.7841   71.7898  226.1371 H   0  0  0  0  0  0  0  0  0  0  0  0
  141.8045   70.3654  226.3635 H   0  0  0  0  0  0  0  0  0  0  0  0
  134.1789   75.6056  223.3425 H   0  0  0  0  0  0  0  0  0  0  0  0
  134.8875   77.9731  223.2043 H   0  0  0  0  0  0  0  0  0  0  0  0
  136.6077   79.6369  222.8725 H   0  0  0  0  0  0  0  0  0  0  0  0
  140.6109   78.3378  222.1049 H   0  0  0  0  0  0  0  0  0  0  0  0
  139.8999   75.9703  222.2441 H   0  0  0  0  0  0  0  0  0  0  0  0
  1  2  2  0
  2  3  1  0
  3  4  1  0
  4  5  1  0
  5  6  2  0
  5  7  1  0
  7  8  1  0
  8  9  1  0
  9 10  1  0
  9 11  1  0
 11 12  1  0
 12 13  1  0
 13 14  1  0
 14 15  1  0
 15 16  1  0
 16 17  1  0
 17 18  1  0
  2 19  1  0
 19 20  2  0
 20 21  1  0
 21 22  2  0
 22 23  1  0
 23 24  2  0
 24 25  1  0
 24 26  1  0
 26 27  2  0
 27 28  1  0
 28 29  2  0
 12  7  1  0
 18 13  1  0
 29 19  1  0
 28 22  1  0
  3 30  1  0
  4 31  1  0
  4 32  1  0
  8 33  1  0
  8 34  1  0
  9 35  1  6
 10 36  1  0
 11 37  1  0
 11 38  1  0
 12 39  1  6
 13 40  1  0
 14 41  1  0
 14 42  1  0
 15 43  1  0
 15 44  1  0
 16 45  1  0
 16 46  1  0
 17 47  1  0
 17 48  1  0
 18 49  1  0
 18 50  1  0
 20 51  1  0
 21 52  1  0
 23 53  1  0
 26 54  1  0
 27 55  1  0
M  END
>  <smiles>  (6) 
O=C(NCC(=O)N1C[C@@H](O)C[C@H]1C1CCCCC1)c1ccc2cc(F)ccc2n1

>  <score_type>  (6) 
oracle

>  <origin>  (6) 
autodockgpu

>  <m_score__min__energy>  (6) 
-8.9600000000000009

>  <m_primary>  (6) 
energy

>  <rmsd>  (6) 
7.809778543553962

>  <m_score__min__rmsd>  (6) 
7.809778543553962

>  <meeko>  (6) 
{"free_energy": -7.74, "intermolecular_energy": -9.53, "internal_energy": -2.41, "cluster_size": 4, "cluster_id": 5, "rank_in_cluster": 2}

>  <energy>  (6) 
-8.36

>  <cluster_rmsd>  (6) 
1.27

>  <cluster>  (6) 
1

$$$$

     RDKit          3D

 55 58  0  0  0  0  0  0  0  0999 V2000
  139.4600   71.5220  221.0590 O   0  0  0  0  0  0  0  0  0  0  0  0
  139.5540   72.0940  222.1740 C   0  0  0  0  0  0  0  0  0  0  0  0
  139.4920   73.5100  222.2650 N   0  0  0  0  0  0  0  0  0  0  0  0
  139.3180   74.3410  221.0640 C   0  0  0  0  0  0  0  0  0  0  0  0
  139.8040   75.7000  221.2910 C   0  0  0  0  0  0  0  0  0  0  0  0
  140.4180   75.8860  222.4060 O   0  0  0  0  0  0  0  0  0  0  0  0
  139.7020   76.8410  220.4770 N   0  0  0  0  0  0  0  0  0  0  0  0
  138.7110   76.7480  219.3360 C   0  0  0  0  0  0  0  0  0  0  0  0
  138.4270   78.1680  218.9390 C   0  0  1  0  0  0  0  0  0  0  0  0
  137.0660   78.3970  218.7450 O   0  0  0  0  0  0  0  0  0  0  0  0
  138.9760   78.9820  220.0880 C   0  0  0  0  0  0  0  0  0  0  0  0
  140.2510   78.1210  220.3590 C   0  0  1  0  0  0  0  0  0  0  0  0
  141.0410   78.7580  221.4270 C   0  0  0  0  0  0  0  0  0  0  0  0
  141.7870   80.0080  221.0770 C   0  0  0  0  0  0  0  0  0  0  0  0
  142.0030   80.7310  222.4160 C   0  0  0  0  0  0  0  0  0  0  0  0
  142.4790   79.7010  223.4060 C   0  0  0  0  0  0  0  0  0  0  0  0
  141.4560   78.6880  223.8050 C   0  0  0  0  0  0  0  0  0  0  0  0
  140.3370   78.7900  222.7370 C   0  0  0  0  0  0  0  0  0  0  0  0
  139.7300   71.2940  223.4040 C   0  0  0  0  0  0  0  0  0  0  0  0
  139.3770   69.9620  223.3920 C   0  0  0  0  0  0  0  0  0  0  0  0
  139.5440   69.2200  224.5420 C   0  0  0  0  0  0  0  0  0  0  0  0
  140.0520   69.7810  225.6920 C   0  0  0  0  0  0  0  0  0  0  0  0
  140.2180   69.0380  226.8430 C   0  0  0  0  0  0  0  0  0  0  0  0
  140.7310   69.6270  227.9850 C   0  0  0  0  0  0  0  0  0  0  0  0
  140.8800   68.8720  229.0940 F   0  0  0  0  0  0  0  0  0  0  0  0
  141.0640   70.9610  227.9310 C   0  0  0  0  0  0  0  0  0  0  0  0
  140.9000   71.7210  226.7750 C   0  0  0  0  0  0  0  0  0  0  0  0
  140.3830   71.1300  225.6210 C   0  0  0  0  0  0  0  0  0  0  0  0
  140.2320   71.8680  224.5220 N   0  0  0  0  0  0  0  0  0  0  0  0
  139.5760   73.9210  223.2190 H   0  0  0  0  0  0  0  0  0  0  0  0
  139.8805   73.8924  220.2319 H   0  0  0  0  0  0  0  0  0  0  0  0
  138.2456   74.3885  220.8238 H   0  0  0  0  0  0  0  0  0  0  0  0
  139.1461   76.1921  218.4924 H   0  0  0  0  0  0  0  0  0  0  0  0
  137.7955   76.2145  219.6313 H   0  0  0  0  0  0  0  0  0  0  0  0
  138.8883   78.4321  217.9760 H   0  0  0  0  0  0  0  0  0  0  0  0
  136.8810   79.3160  219.0470 H   0  0  0  0  0  0  0  0  0  0  0  0
  139.2220   80.0122  219.7911 H   0  0  0  0  0  0  0  0  0  0  0  0
  138.3008   79.1349  220.9429 H   0  0  0  0  0  0  0  0  0  0  0  0
  141.0483   78.0407  219.6054 H   0  0  0  0  0  0  0  0  0  0  0  0
  141.8819   78.0605  221.5554 H   0  0  0  0  0  0  0  0  0  0  0  0
  142.7523   79.7640  220.6094 H   0  0  0  0  0  0  0  0  0  0  0  0
  141.2358   80.6298  220.3561 H   0  0  0  0  0  0  0  0  0  0  0  0
  142.7600   81.5206  222.3002 H   0  0  0  0  0  0  0  0  0  0  0  0
  141.0706   81.2022  222.7604 H   0  0  0  0  0  0  0  0  0  0  0  0
  143.3315   79.1676  222.9601 H   0  0  0  0  0  0  0  0  0  0  0  0
  142.7390   80.2522  224.3218 H   0  0  0  0  0  0  0  0  0  0  0  0
  141.8942   77.6791  223.8080 H   0  0  0  0  0  0  0  0  0  0  0  0
  141.0716   78.8724  224.8190 H   0  0  0  0  0  0  0  0  0  0  0  0
  139.6438   77.9402  222.8228 H   0  0  0  0  0  0  0  0  0  0  0  0
  139.7366   79.7038  222.8579 H   0  0  0  0  0  0  0  0  0  0  0  0
  138.9693   69.4990  222.4813 H   0  0  0  0  0  0  0  0  0  0  0  0
  139.2651   68.1559  224.5406 H   0  0  0  0  0  0  0  0  0  0  0  0
  139.9414   67.9734  226.8526 H   0  0  0  0  0  0  0  0  0  0  0  0
  141.4734   71.4435  228.8308 H   0  0  0  0  0  0  0  0  0  0  0  0
  141.1776   72.7854  226.7717 H   0  0  0  0  0  0  0  0  0  0  0  0
  1  2  2  0
  2  3  1  0
  3  4  1  0
  4  5  1  0
  5  6  2  0
  5  7  1  0
  7  8  1  0
  8  9  1  0
  9 10  1  0
  9 11  1  0
 11 12  1  0
 12 13  1  0
 13 14  1  0
 14 15  1  0
 15 16  1  0
 16 17  1  0
 17 18  1  0
  2 19  1  0
 19 20  2  0
 20 21  1  0
 21 22  2  0
 22 23  1  0
 23 24  2  0
 24 25  1  0
 24 26  1  0
 26 27  2  0
 27 28  1  0
 28 29  2  0
 12  7  1  0
 18 13  1  0
 29 19  1  0
 28 22  1  0
  3 30  1  0
  4 31  1  0
  4 32  1  0
  8 33  1  0
  8 34  1  0
  9 35  1  6
 10 36  1  0
 11 37  1  0
 11 38  1  0
 12 39  1  6
 13 40  1  0
 14 41  1  0
 14 42  1  0
 15 43  1  0
 15 44  1  0
 16 45  1  0
 16 46  1  0
 17 47  1  0
 17 48  1  0
 18 49  1  0
 18 50  1  0
 20 51  1  0
 21 52  1  0
 23 53  1  0
 26 54  1  0
 27 55  1  0
M  END
>  <smiles>  (7) 
O=C(NCC(=O)N1C[C@@H](O)C[C@H]1C1CCCCC1)c1ccc2cc(F)ccc2n1

>  <score_type>  (7) 
oracle

>  <origin>  (7) 
autodockgpu

>  <m_score__min__energy>  (7) 
-8.9600000000000009

>  <m_primary>  (7) 
energy

>  <rmsd>  (7) 
1.6670534806858492

>  <m_score__min__rmsd>  (7) 
1.6670534806858492

>  <meeko>  (7) 
{"free_energy": -7.7, "intermolecular_energy": -9.49, "internal_energy": -1.94, "cluster_size": 25, "cluster_id": 2, "rank_in_cluster": 24}

>  <energy>  (7) 
-8.36

>  <cluster_rmsd>  (7) 
1.26

>  <cluster>  (7) 
1

$$$$

     RDKit          3D

 55 58  0  0  0  0  0  0  0  0999 V2000
  139.3390   72.8040  222.7080 O   0  0  0  0  0  0  0  0  0  0  0  0
  139.6400   71.5890  222.8240 C   0  0  0  0  0  0  0  0  0  0  0  0
  139.5980   70.7260  221.6980 N   0  0  0  0  0  0  0  0  0  0  0  0
  139.2040   71.2260  220.3720 C   0  0  0  0  0  0  0  0  0  0  0  0
  140.2420   72.0820  219.8040 C   0  0  0  0  0  0  0  0  0  0  0  0
  140.9300   71.5560  218.8520 O   0  0  0  0  0  0  0  0  0  0  0  0
  140.6080   73.3970  220.1370 N   0  0  0  0  0  0  0  0  0  0  0  0
  139.4760   74.3070  220.5630 C   0  0  0  0  0  0  0  0  0  0  0  0
  140.1290   75.4360  221.3050 C   0  0  1  0  0  0  0  0  0  0  0  0
  139.4570   75.7490  222.4850 O   0  0  0  0  0  0  0  0  0  0  0  0
  141.5280   74.9320  221.5720 C   0  0  0  0  0  0  0  0  0  0  0  0
  141.7480   74.2030  220.2090 C   0  0  1  0  0  0  0  0  0  0  0  0
  143.1180   73.6620  220.1690 C   0  0  0  0  0  0  0  0  0  0  0  0
  144.2430   74.6220  220.4040 C   0  0  0  0  0  0  0  0  0  0  0  0
  145.4170   73.7510  220.8780 C   0  0  0  0  0  0  0  0  0  0  0  0
  145.4880   72.5610  219.9590 C   0  0  0  0  0  0  0  0  0  0  0  0
  144.3590   71.5920  220.0910 C   0  0  0  0  0  0  0  0  0  0  0  0
  143.2510   72.3540  220.8630 C   0  0  0  0  0  0  0  0  0  0  0  0
  140.0400   71.0490  224.1400 C   0  0  0  0  0  0  0  0  0  0  0  0
  140.6930   71.8720  225.0310 C   0  0  0  0  0  0  0  0  0  0  0  0
  141.0650   71.3630  226.2570 C   0  0  0  0  0  0  0  0  0  0  0  0
  140.7990   70.0580  226.6040 C   0  0  0  0  0  0  0  0  0  0  0  0
  141.1710   69.5480  227.8310 C   0  0  0  0  0  0  0  0  0  0  0  0
  140.8910   68.2330  228.1540 C   0  0  0  0  0  0  0  0  0  0  0  0
  141.2700   67.7660  229.3630 F   0  0  0  0  0  0  0  0  0  0  0  0
  140.2370   67.4620  227.2200 C   0  0  0  0  0  0  0  0  0  0  0  0
  139.8560   67.9660  225.9780 C   0  0  0  0  0  0  0  0  0  0  0  0
  140.1370   69.2940  225.6490 C   0  0  0  0  0  0  0  0  0  0  0  0
  139.7680   69.7620  224.4580 N   0  0  0  0  0  0  0  0  0  0  0  0
  139.8590   69.7300  221.8630 H   0  0  0  0  0  0  0  0  0  0  0  0
  139.0362   70.3709  219.7007 H   0  0  0  0  0  0  0  0  0  0  0  0
  138.2833   71.8180  220.4809 H   0  0  0  0  0  0  0  0  0  0  0  0
  138.9355   74.6864  219.6833 H   0  0  0  0  0  0  0  0  0  0  0  0
  138.7400   73.7791  221.1873 H   0  0  0  0  0  0  0  0  0  0  0  0
  140.1196   76.3733  220.7293 H   0  0  0  0  0  0  0  0  0  0  0  0
  139.2090   74.8970  222.9130 H   0  0  0  0  0  0  0  0  0  0  0  0
  142.2451   75.7513  221.7288 H   0  0  0  0  0  0  0  0  0  0  0  0
  141.6610   74.3217  222.4775 H   0  0  0  0  0  0  0  0  0  0  0  0
  141.7796   74.7689  219.2662 H   0  0  0  0  0  0  0  0  0  0  0  0
  143.2643   73.4510  219.0994 H   0  0  0  0  0  0  0  0  0  0  0  0
  144.5029   75.1481  219.4736 H   0  0  0  0  0  0  0  0  0  0  0  0
  143.9790   75.3955  221.1402 H   0  0  0  0  0  0  0  0  0  0  0  0
  146.3552   74.3230  220.8271 H   0  0  0  0  0  0  0  0  0  0  0  0
  145.2700   73.4312  221.9202 H   0  0  0  0  0  0  0  0  0  0  0  0
  145.5010   72.9305  218.9230 H   0  0  0  0  0  0  0  0  0  0  0  0
  146.3988   72.0111  220.2386 H   0  0  0  0  0  0  0  0  0  0  0  0
  143.9960   71.2864  219.0986 H   0  0  0  0  0  0  0  0  0  0  0  0
  144.6660   70.6749  220.6150 H   0  0  0  0  0  0  0  0  0  0  0  0
  142.3023   71.7986  220.8235 H   0  0  0  0  0  0  0  0  0  0  0  0
  143.5033   72.4778  221.9265 H   0  0  0  0  0  0  0  0  0  0  0  0
  140.9138   72.9172  224.7688 H   0  0  0  0  0  0  0  0  0  0  0  0
  141.5861   72.0145  226.9740 H   0  0  0  0  0  0  0  0  0  0  0  0
  141.6927   70.1905  228.5555 H   0  0  0  0  0  0  0  0  0  0  0  0
  140.0076   66.4137  227.4619 H   0  0  0  0  0  0  0  0  0  0  0  0
  139.3345   67.3187  225.2575 H   0  0  0  0  0  0  0  0  0  0  0  0
  1  2  2  0
  2  3  1  0
  3  4  1  0
  4  5  1  0
  5  6  2  0
  5  7  1  0
  7  8  1  0
  8  9  1  0
  9 10  1  0
  9 11  1  0
 11 12  1  0
 12 13  1  0
 13 14  1  0
 14 15  1  0
 15 16  1  0
 16 17  1  0
 17 18  1  0
  2 19  1  0
 19 20  2  0
 20 21  1  0
 21 22  2  0
 22 23  1  0
 23 24  2  0
 24 25  1  0
 24 26  1  0
 26 27  2  0
 27 28  1  0
 28 29  2  0
 12  7  1  0
 18 13  1  0
 29 19  1  0
 28 22  1  0
  3 30  1  0
  4 31  1  0
  4 32  1  0
  8 33  1  0
  8 34  1  0
  9 35  1  6
 10 36  1  0
 11 37  1  0
 11 38  1  0
 12 39  1  6
 13 40  1  0
 14 41  1  0
 14 42  1  0
 15 43  1  0
 15 44  1  0
 16 45  1  0
 16 46  1  0
 17 47  1  0
 17 48  1  0
 18 49  1  0
 18 50  1  0
 20 51  1  0
 21 52  1  0
 23 53  1  0
 26 54  1  0
 27 55  1  0
M  END
>  <smiles>  (8) 
O=C(NCC(=O)N1C[C@@H](O)C[C@H]1C1CCCCC1)c1ccc2cc(F)ccc2n1

>  <score_type>  (8) 
oracle

>  <origin>  (8) 
autodockgpu

>  <m_score__min__energy>  (8) 
-8.9600000000000009

>  <m_primary>  (8) 
energy

>  <rmsd>  (8) 
3.3793340334760256

>  <m_score__min__rmsd>  (8) 
3.3793340334760256

>  <meeko>  (8) 
{"free_energy": -7.51, "intermolecular_energy": -9.29, "internal_energy": -2.48, "cluster_size": 7, "cluster_id": 3, "rank_in_cluster": 6}

>  <energy>  (8) 
-8.33

>  <cluster_rmsd>  (8) 
1.28

>  <cluster>  (8) 
1

$$$$

     RDKit          3D

 55 58  0  0  0  0  0  0  0  0999 V2000
  139.2830   71.3000  221.1150 O   0  0  0  0  0  0  0  0  0  0  0  0
  139.4350   71.8670  222.2260 C   0  0  0  0  0  0  0  0  0  0  0  0
  139.4500   73.2840  222.3160 N   0  0  0  0  0  0  0  0  0  0  0  0
  139.2880   74.1230  221.1180 C   0  0  0  0  0  0  0  0  0  0  0  0
  139.8950   75.4380  221.3120 C   0  0  0  0  0  0  0  0  0  0  0  0
  140.3710   75.6570  222.4880 O   0  0  0  0  0  0  0  0  0  0  0  0
  140.0360   76.5070  220.4120 N   0  0  0  0  0  0  0  0  0  0  0  0
  139.5150   76.2600  219.0120 C   0  0  0  0  0  0  0  0  0  0  0  0
  139.3280   77.6220  218.4100 C   0  0  1  0  0  0  0  0  0  0  0  0
  138.1140   77.7370  217.7350 O   0  0  0  0  0  0  0  0  0  0  0  0
  139.4020   78.5550  219.5970 C   0  0  0  0  0  0  0  0  0  0  0  0
  140.5350   77.8120  220.3720 C   0  0  1  0  0  0  0  0  0  0  0  0
  140.8720   78.5800  221.5830 C   0  0  0  0  0  0  0  0  0  0  0  0
  142.1870   79.2950  221.6000 C   0  0  0  0  0  0  0  0  0  0  0  0
  142.0180   80.4160  222.6380 C   0  0  0  0  0  0  0  0  0  0  0  0
  141.3600   79.8080  223.8470 C   0  0  0  0  0  0  0  0  0  0  0  0
  139.9370   79.3980  223.6540 C   0  0  0  0  0  0  0  0  0  0  0  0
  139.7240   79.3600  222.1200 C   0  0  0  0  0  0  0  0  0  0  0  0
  139.6020   71.0600  223.4520 C   0  0  0  0  0  0  0  0  0  0  0  0
  139.1840   69.7470  223.4510 C   0  0  0  0  0  0  0  0  0  0  0  0
  139.3410   68.9970  224.5970 C   0  0  0  0  0  0  0  0  0  0  0  0
  139.9030   69.5330  225.7340 C   0  0  0  0  0  0  0  0  0  0  0  0
  140.0600   68.7830  226.8820 C   0  0  0  0  0  0  0  0  0  0  0  0
  140.6280   69.3450  228.0100 C   0  0  0  0  0  0  0  0  0  0  0  0
  140.7670   68.5840  229.1160 F   0  0  0  0  0  0  0  0  0  0  0  0
  141.0250   70.6620  227.9470 C   0  0  0  0  0  0  0  0  0  0  0  0
  140.8710   71.4290  226.7940 C   0  0  0  0  0  0  0  0  0  0  0  0
  140.2980   70.8640  225.6530 C   0  0  0  0  0  0  0  0  0  0  0  0
  140.1570   71.6080  224.5580 N   0  0  0  0  0  0  0  0  0  0  0  0
  139.5810   73.6910  223.2670 H   0  0  0  0  0  0  0  0  0  0  0  0
  139.7711   73.6266  220.2635 H   0  0  0  0  0  0  0  0  0  0  0  0
  138.2129   74.2584  220.9285 H   0  0  0  0  0  0  0  0  0  0  0  0
  140.2427   75.6777  218.4278 H   0  0  0  0  0  0  0  0  0  0  0  0
  138.5778   75.6842  219.0201 H   0  0  0  0  0  0  0  0  0  0  0  0
  140.0867   77.8480  217.6463 H   0  0  0  0  0  0  0  0  0  0  0  0
  137.4050   77.4800  218.3690 H   0  0  0  0  0  0  0  0  0  0  0  0
  139.6921   79.5763  219.3091 H   0  0  0  0  0  0  0  0  0  0  0  0
  138.4633   78.7195  220.1463 H   0  0  0  0  0  0  0  0  0  0  0  0
  141.5487   77.7364  219.9516 H   0  0  0  0  0  0  0  0  0  0  0  0
  141.0720   77.7905  222.3223 H   0  0  0  0  0  0  0  0  0  0  0  0
  142.9951   78.6108  221.8982 H   0  0  0  0  0  0  0  0  0  0  0  0
  142.4562   79.6877  220.6084 H   0  0  0  0  0  0  0  0  0  0  0  0
  143.0007   80.8280  222.9110 H   0  0  0  0  0  0  0  0  0  0  0  0
  141.4068   81.2353  222.2316 H   0  0  0  0  0  0  0  0  0  0  0  0
  141.9355   78.9162  224.1360 H   0  0  0  0  0  0  0  0  0  0  0  0
  141.3512   80.5923  224.6183 H   0  0  0  0  0  0  0  0  0  0  0  0
  139.7600   78.4045  224.0918 H   0  0  0  0  0  0  0  0  0  0  0  0
  139.2408   80.0928  224.1465 H   0  0  0  0  0  0  0  0  0  0  0  0
  138.7731   78.8640  221.8753 H   0  0  0  0  0  0  0  0  0  0  0  0
  139.6767   80.3703  221.6875 H   0  0  0  0  0  0  0  0  0  0  0  0
  138.7325   69.3046  222.5507 H   0  0  0  0  0  0  0  0  0  0  0  0
  139.0102   67.9479  224.6032 H   0  0  0  0  0  0  0  0  0  0  0  0
  139.7316   67.7333  226.8994 H   0  0  0  0  0  0  0  0  0  0  0  0
  141.4787   71.1238  228.8363 H   0  0  0  0  0  0  0  0  0  0  0  0
  141.2005   72.4784  226.7827 H   0  0  0  0  0  0  0  0  0  0  0  0
  1  2  2  0
  2  3  1  0
  3  4  1  0
  4  5  1  0
  5  6  2  0
  5  7  1  0
  7  8  1  0
  8  9  1  0
  9 10  1  0
  9 11  1  0
 11 12  1  0
 12 13  1  0
 13 14  1  0
 14 15  1  0
 15 16  1  0
 16 17  1  0
 17 18  1  0
  2 19  1  0
 19 20  2  0
 20 21  1  0
 21 22  2  0
 22 23  1  0
 23 24  2  0
 24 25  1  0
 24 26  1  0
 26 27  2  0
 27 28  1  0
 28 29  2  0
 12  7  1  0
 18 13  1  0
 29 19  1  0
 28 22  1  0
  3 30  1  0
  4 31  1  0
  4 32  1  0
  8 33  1  0
  8 34  1  0
  9 35  1  6
 10 36  1  0
 11 37  1  0
 11 38  1  0
 12 39  1  6
 13 40  1  0
 14 41  1  0
 14 42  1  0
 15 43  1  0
 15 44  1  0
 16 45  1  0
 16 46  1  0
 17 47  1  0
 17 48  1  0
 18 49  1  0
 18 50  1  0
 20 51  1  0
 21 52  1  0
 23 53  1  0
 26 54  1  0
 27 55  1  0
M  END
>  <smiles>  (9) 
O=C(NCC(=O)N1C[C@@H](O)C[C@H]1C1CCCCC1)c1ccc2cc(F)ccc2n1

>  <score_type>  (9) 
oracle

>  <origin>  (9) 
autodockgpu

>  <m_score__min__energy>  (9) 
-8.9600000000000009

>  <m_primary>  (9) 
energy

>  <rmsd>  (9) 
1.2859713240980373

>  <m_score__min__rmsd>  (9) 
1.2859713240980373

>  <meeko>  (9) 
{"free_energy": -7.4, "intermolecular_energy": -9.19, "internal_energy": -2.02, "cluster_size": 25, "cluster_id": 2, "rank_in_cluster": 25}

>  <energy>  (9) 
-8.13

>  <cluster_rmsd>  (9) 
1.49

>  <cluster>  (9) 
1

$$$$

     RDKit          3D

 55 58  0  0  0  0  0  0  0  0999 V2000
  140.8890   71.8070  221.1560 O   0  0  0  0  0  0  0  0  0  0  0  0
  140.3800   72.3020  222.1930 C   0  0  0  0  0  0  0  0  0  0  0  0
  139.9820   73.6640  222.2210 N   0  0  0  0  0  0  0  0  0  0  0  0
  140.1520   74.5300  221.0440 C   0  0  0  0  0  0  0  0  0  0  0  0
  140.5060   75.8910  221.4390 C   0  0  0  0  0  0  0  0  0  0  0  0
  139.9470   76.3140  222.5190 O   0  0  0  0  0  0  0  0  0  0  0  0
  141.3640   76.8160  220.8200 N   0  0  0  0  0  0  0  0  0  0  0  0
  141.9630   76.3750  219.5010 C   0  0  0  0  0  0  0  0  0  0  0  0
  142.4120   77.6380  218.8260 C   0  0  1  0  0  0  0  0  0  0  0  0
  142.0560   77.6690  217.4790 O   0  0  0  0  0  0  0  0  0  0  0  0
  141.7310   78.7320  219.6140 C   0  0  0  0  0  0  0  0  0  0  0  0
  141.8880   78.0940  221.0300 C   0  0  1  0  0  0  0  0  0  0  0  0
  141.3530   79.0250  222.0380 C   0  0  0  0  0  0  0  0  0  0  0  0
  142.2940   79.5030  223.1010 C   0  0  0  0  0  0  0  0  0  0  0  0
  141.6890   80.8230  223.6040 C   0  0  0  0  0  0  0  0  0  0  0  0
  140.2170   80.5890  223.8100 C   0  0  0  0  0  0  0  0  0  0  0  0
  139.4270   80.3870  222.5570 C   0  0  0  0  0  0  0  0  0  0  0  0
  140.4740   80.0750  221.4580 C   0  0  0  0  0  0  0  0  0  0  0  0
  140.1930   71.4650  223.3960 C   0  0  0  0  0  0  0  0  0  0  0  0
  139.5410   70.2570  223.2770 C   0  0  0  0  0  0  0  0  0  0  0  0
  139.3680   69.4800  224.4030 C   0  0  0  0  0  0  0  0  0  0  0  0
  139.8310   69.8870  225.6340 C   0  0  0  0  0  0  0  0  0  0  0  0
  139.6590   69.1090  226.7610 C   0  0  0  0  0  0  0  0  0  0  0  0
  140.1340   69.5410  227.9850 C   0  0  0  0  0  0  0  0  0  0  0  0
  139.9480   68.7560  229.0680 F   0  0  0  0  0  0  0  0  0  0  0  0
  140.7770   70.7570  228.0380 C   0  0  0  0  0  0  0  0  0  0  0  0
  140.9570   71.5500  226.9070 C   0  0  0  0  0  0  0  0  0  0  0  0
  140.4780   71.1170  225.6690 C   0  0  0  0  0  0  0  0  0  0  0  0
  140.6570   71.8860  224.5960 N   0  0  0  0  0  0  0  0  0  0  0  0
  139.5680   74.0120  223.1120 H   0  0  0  0  0  0  0  0  0  0  0  0
  140.9518   74.1206  220.4093 H   0  0  0  0  0  0  0  0  0  0  0  0
  139.2000   74.5624  220.4938 H   0  0  0  0  0  0  0  0  0  0  0  0
  142.8183   75.7046  219.6716 H   0  0  0  0  0  0  0  0  0  0  0  0
  141.2387   75.8185  218.8881 H   0  0  0  0  0  0  0  0  0  0  0  0
  143.5071   77.7415  218.8207 H   0  0  0  0  0  0  0  0  0  0  0  0
  142.7260   78.2230  217.0150 H   0  0  0  0  0  0  0  0  0  0  0  0
  142.2537   79.6962  219.5292 H   0  0  0  0  0  0  0  0  0  0  0  0
  140.7064   78.9880  219.3063 H   0  0  0  0  0  0  0  0  0  0  0  0
  142.8838   77.9443  221.4727 H   0  0  0  0  0  0  0  0  0  0  0  0
  140.6949   78.3790  222.6377 H   0  0  0  0  0  0  0  0  0  0  0  0
  142.3574   78.7703  223.9190 H   0  0  0  0  0  0  0  0  0  0  0  0
  143.3164   79.6368  222.7178 H   0  0  0  0  0  0  0  0  0  0  0  0
  142.1604   81.1157  224.5538 H   0  0  0  0  0  0  0  0  0  0  0  0
  141.8575   81.6313  222.8772 H   0  0  0  0  0  0  0  0  0  0  0  0
  140.0985   79.6924  224.4361 H   0  0  0  0  0  0  0  0  0  0  0  0
  139.8232   81.5037  224.2771 H   0  0  0  0  0  0  0  0  0  0  0  0
  138.7285   79.5452  222.6736 H   0  0  0  0  0  0  0  0  0  0  0  0
  138.8219   81.2710  222.3072 H   0  0  0  0  0  0  0  0  0  0  0  0
  139.9788   79.7035  220.5488 H   0  0  0  0  0  0  0  0  0  0  0  0
  141.0427   80.9708  221.1681 H   0  0  0  0  0  0  0  0  0  0  0  0
  139.1649   69.9182  222.3004 H   0  0  0  0  0  0  0  0  0  0  0  0
  138.8488   68.5141  224.3158 H   0  0  0  0  0  0  0  0  0  0  0  0
  139.1418   68.1412  226.6848 H   0  0  0  0  0  0  0  0  0  0  0  0
  141.1611   71.1141  229.0049 H   0  0  0  0  0  0  0  0  0  0  0  0
  141.4760   72.5164  226.9891 H   0  0  0  0  0  0  0  0  0  0  0  0
  1  2  2  0
  2  3  1  0
  3  4  1  0
  4  5  1  0
  5  6  2  0
  5  7  1  0
  7  8  1  0
  8  9  1  0
  9 10  1  0
  9 11  1  0
 11 12  1  0
 12 13  1  0
 13 14  1  0
 14 15  1  0
 15 16  1  0
 16 17  1  0
 17 18  1  0
  2 19  1  0
 19 20  2  0
 20 21  1  0
 21 22  2  0
 22 23  1  0
 23 24  2  0
 24 25  1  0
 24 26  1  0
 26 27  2  0
 27 28  1  0
 28 29  2  0
 12  7  1  0
 18 13  1  0
 29 19  1  0
 28 22  1  0
  3 30  1  0
  4 31  1  0
  4 32  1  0
  8 33  1  0
  8 34  1  0
  9 35  1  6
 10 36  1  0
 11 37  1  0
 11 38  1  0
 12 39  1  1
 13 40  1  0
 14 41  1  0
 14 42  1  0
 15 43  1  0
 15 44  1  0
 16 45  1  0
 16 46  1  0
 17 47  1  0
 17 48  1  0
 18 49  1  0
 18 50  1  0
 20 51  1  0
 21 52  1  0
 23 53  1  0
 26 54  1  0
 27 55  1  0
M  END
>  <smiles>  (10) 
O=C(NCC(=O)N1C[C@@H](O)C[C@H]1C1CCCCC1)c1ccc2cc(F)ccc2n1

>  <score_type>  (10) 
oracle

>  <origin>  (10) 
autodockgpu

>  <m_score__min__energy>  (10) 
-8.9600000000000009

>  <m_primary>  (10) 
energy

>  <rmsd>  (10) 
2.011831685415294

>  <m_score__min__rmsd>  (10) 
2.011831685415294

>  <meeko>  (10) 
{"free_energy": -8.51, "intermolecular_energy": -10.3, "internal_energy": -1.66, "cluster_size": 25, "cluster_id": 2, "rank_in_cluster": 12}

>  <energy>  (10) 
-7.99

>  <cluster_rmsd>  (10) 
1.36

>  <cluster>  (10) 
1

$$$$

     RDKit          3D

 55 58  0  0  0  0  0  0  0  0999 V2000
  134.9030   68.5250  224.7860 O   0  0  0  0  0  0  0  0  0  0  0  0
  135.3430   69.6950  224.6640 C   0  0  0  0  0  0  0  0  0  0  0  0
  136.5010   69.9520  223.8840 N   0  0  0  0  0  0  0  0  0  0  0  0
  137.2130   68.8620  223.1990 C   0  0  0  0  0  0  0  0  0  0  0  0
  138.6170   68.8190  223.5990 C   0  0  0  0  0  0  0  0  0  0  0  0
  139.0590   67.6570  223.9350 O   0  0  0  0  0  0  0  0  0  0  0  0
  139.5650   69.8530  223.6770 N   0  0  0  0  0  0  0  0  0  0  0  0
  139.6470   70.7610  222.4680 C   0  0  0  0  0  0  0  0  0  0  0  0
  140.3250   72.0090  222.9530 C   0  0  1  0  0  0  0  0  0  0  0  0
  139.6930   73.1630  222.4950 O   0  0  0  0  0  0  0  0  0  0  0  0
  140.2640   71.8930  224.4580 C   0  0  0  0  0  0  0  0  0  0  0  0
  140.5270   70.3570  224.5570 C   0  0  1  0  0  0  0  0  0  0  0  0
  140.5950   69.9730  225.9770 C   0  0  0  0  0  0  0  0  0  0  0  0
  141.0650   71.0110  226.9490 C   0  0  0  0  0  0  0  0  0  0  0  0
  140.4980   70.5710  228.3080 C   0  0  0  0  0  0  0  0  0  0  0  0
  140.7600   69.0950  228.4430 C   0  0  0  0  0  0  0  0  0  0  0  0
  139.9670   68.2260  227.5220 C   0  0  0  0  0  0  0  0  0  0  0  0
  139.4220   69.1770  226.4260 C   0  0  0  0  0  0  0  0  0  0  0  0
  134.6570   70.8180  225.3370 C   0  0  0  0  0  0  0  0  0  0  0  0
  133.7060   70.5430  226.2950 C   0  0  0  0  0  0  0  0  0  0  0  0
  133.0680   71.5930  226.9200 C   0  0  0  0  0  0  0  0  0  0  0  0
  133.3620   72.9010  226.6060 C   0  0  0  0  0  0  0  0  0  0  0  0
  132.7230   73.9520  227.2310 C   0  0  0  0  0  0  0  0  0  0  0  0
  133.0380   75.2570  226.8980 C   0  0  0  0  0  0  0  0  0  0  0  0
  132.3940   76.2620  227.5280 F   0  0  0  0  0  0  0  0  0  0  0  0
  133.9970   75.4650  225.9320 C   0  0  0  0  0  0  0  0  0  0  0  0
  134.6480   74.4110  225.2950 C   0  0  0  0  0  0  0  0  0  0  0  0
  134.3330   73.0930  225.6290 C   0  0  0  0  0  0  0  0  0  0  0  0
  134.9630   72.0950  225.0120 N   0  0  0  0  0  0  0  0  0  0  0  0
  136.8140   70.9450  223.8240 H   0  0  0  0  0  0  0  0  0  0  0  0
  136.7366   67.9044  223.4559 H   0  0  0  0  0  0  0  0  0  0  0  0
  137.1636   69.0393  222.1145 H   0  0  0  0  0  0  0  0  0  0  0  0
  140.2377   70.2872  221.6701 H   0  0  0  0  0  0  0  0  0  0  0  0
  138.6531   70.9724  222.0467 H   0  0  0  0  0  0  0  0  0  0  0  0
  141.3554   72.0962  222.5779 H   0  0  0  0  0  0  0  0  0  0  0  0
  138.9010   73.3040  223.0640 H   0  0  0  0  0  0  0  0  0  0  0  0
  141.0469   72.4844  224.9553 H   0  0  0  0  0  0  0  0  0  0  0  0
  139.3453   72.2615  224.9378 H   0  0  0  0  0  0  0  0  0  0  0  0
  141.4874   69.9276  224.2355 H   0  0  0  0  0  0  0  0  0  0  0  0
  141.4525   69.2844  225.9990 H   0  0  0  0  0  0  0  0  0  0  0  0
  142.1641   71.0414  226.9805 H   0  0  0  0  0  0  0  0  0  0  0  0
  140.7293   72.0205  226.6691 H   0  0  0  0  0  0  0  0  0  0  0  0
  140.9986   71.1184  229.1202 H   0  0  0  0  0  0  0  0  0  0  0  0
  139.4204   70.7834  228.3686 H   0  0  0  0  0  0  0  0  0  0  0  0
  141.8274   68.9183  228.2442 H   0  0  0  0  0  0  0  0  0  0  0  0
  140.4545   68.8207  229.4635 H   0  0  0  0  0  0  0  0  0  0  0  0
  140.6086   67.4520  227.0756 H   0  0  0  0  0  0  0  0  0  0  0  0
  139.1560   67.7032  228.0501 H   0  0  0  0  0  0  0  0  0  0  0  0
  139.0048   68.5996  225.5878 H   0  0  0  0  0  0  0  0  0  0  0  0
  138.6127   69.8182  226.8054 H   0  0  0  0  0  0  0  0  0  0  0  0
  133.4600   69.5033  226.5567 H   0  0  0  0  0  0  0  0  0  0  0  0
  132.3076   71.3814  227.6861 H   0  0  0  0  0  0  0  0  0  0  0  0
  131.9598   73.7513  227.9974 H   0  0  0  0  0  0  0  0  0  0  0  0
  134.2575   76.4970  225.6543 H   0  0  0  0  0  0  0  0  0  0  0  0
  135.4100   74.6174  224.5290 H   0  0  0  0  0  0  0  0  0  0  0  0
  1  2  2  0
  2  3  1  0
  3  4  1  0
  4  5  1  0
  5  6  2  0
  5  7  1  0
  7  8  1  0
  8  9  1  0
  9 10  1  0
  9 11  1  0
 11 12  1  0
 12 13  1  0
 13 14  1  0
 14 15  1  0
 15 16  1  0
 16 17  1  0
 17 18  1  0
  2 19  1  0
 19 20  2  0
 20 21  1  0
 21 22  2  0
 22 23  1  0
 23 24  2  0
 24 25  1  0
 24 26  1  0
 26 27  2  0
 27 28  1  0
 28 29  2  0
 12  7  1  0
 18 13  1  0
 29 19  1  0
 28 22  1  0
  3 30  1  0
  4 31  1  0
  4 32  1  0
  8 33  1  0
  8 34  1  0
  9 35  1  6
 10 36  1  0
 11 37  1  0
 11 38  1  0
 12 39  1  6
 13 40  1  0
 14 41  1  0
 14 42  1  0
 15 43  1  0
 15 44  1  0
 16 45  1  0
 16 46  1  0
 17 47  1  0
 17 48  1  0
 18 49  1  0
 18 50  1  0
 20 51  1  0
 21 52  1  0
 23 53  1  0
 26 54  1  0
 27 55  1  0
M  END
>  <smiles>  (11) 
O=C(NCC(=O)N1C[C@@H](O)C[C@H]1C1CCCCC1)c1ccc2cc(F)ccc2n1

>  <score_type>  (11) 
oracle

>  <origin>  (11) 
autodockgpu

>  <m_score__min__energy>  (11) 
-8.9600000000000009

>  <m_primary>  (11) 
energy

>  <rmsd>  (11) 
7.241138406514172

>  <m_score__min__rmsd>  (11) 
7.241138406514172

>  <meeko>  (11) 
{"free_energy": -8.75, "intermolecular_energy": -10.54, "internal_energy": -1.66, "cluster_size": 12, "cluster_id": 1, "rank_in_cluster": 4}

>  <energy>  (11) 
-7.95

>  <cluster_rmsd>  (11) 
1.51

>  <cluster>  (11) 
1

$$$$

     RDKit          3D

 55 58  0  0  0  0  0  0  0  0999 V2000
  139.4250   71.0150  221.1240 O   0  0  0  0  0  0  0  0  0  0  0  0
  139.5180   71.5750  222.2450 C   0  0  0  0  0  0  0  0  0  0  0  0
  139.5040   72.9910  222.3470 N   0  0  0  0  0  0  0  0  0  0  0  0
  139.3810   73.8370  221.1490 C   0  0  0  0  0  0  0  0  0  0  0  0
  140.2240   75.0260  221.2570 C   0  0  0  0  0  0  0  0  0  0  0  0
  140.1980   75.6170  222.4000 O   0  0  0  0  0  0  0  0  0  0  0  0
  141.0600   75.6280  220.3020 N   0  0  0  0  0  0  0  0  0  0  0  0
  140.6810   77.0360  219.8920 C   0  0  0  0  0  0  0  0  0  0  0  0
  141.9220   77.6200  219.2830 C   0  0  1  0  0  0  0  0  0  0  0  0
  142.1670   78.9170  219.7300 O   0  0  0  0  0  0  0  0  0  0  0  0
  143.0150   76.6650  219.7000 C   0  0  0  0  0  0  0  0  0  0  0  0
  142.2010   75.3410  219.5480 C   0  0  1  0  0  0  0  0  0  0  0  0
  143.0850   74.1980  219.8340 C   0  0  0  0  0  0  0  0  0  0  0  0
  144.5290   74.4960  220.0970 C   0  0  0  0  0  0  0  0  0  0  0  0
  145.0430   73.2910  220.9030 C   0  0  0  0  0  0  0  0  0  0  0  0
  144.5380   72.0500  220.2180 C   0  0  0  0  0  0  0  0  0  0  0  0
  143.0630   71.8310  220.3120 C   0  0  0  0  0  0  0  0  0  0  0  0
  142.4720   73.1970  220.7460 C   0  0  0  0  0  0  0  0  0  0  0  0
  139.6430   70.7610  223.4710 C   0  0  0  0  0  0  0  0  0  0  0  0
  139.1850   69.4610  223.4610 C   0  0  0  0  0  0  0  0  0  0  0  0
  139.3050   68.7050  224.6070 C   0  0  0  0  0  0  0  0  0  0  0  0
  139.8680   69.2200  225.7530 C   0  0  0  0  0  0  0  0  0  0  0  0
  139.9870   68.4630  226.9000 C   0  0  0  0  0  0  0  0  0  0  0  0
  140.5580   69.0050  228.0370 C   0  0  0  0  0  0  0  0  0  0  0  0
  140.6590   68.2380  229.1430 F   0  0  0  0  0  0  0  0  0  0  0  0
  140.9960   70.3100  227.9830 C   0  0  0  0  0  0  0  0  0  0  0  0
  140.8800   71.0830  226.8300 C   0  0  0  0  0  0  0  0  0  0  0  0
  140.3050   70.5380  225.6800 C   0  0  0  0  0  0  0  0  0  0  0  0
  140.2010   71.2890  224.5850 N   0  0  0  0  0  0  0  0  0  0  0  0
  139.5850   73.3920  223.3050 H   0  0  0  0  0  0  0  0  0  0  0  0
  139.6887   73.2572  220.2663 H   0  0  0  0  0  0  0  0  0  0  0  0
  138.3333   74.1584  221.0538 H   0  0  0  0  0  0  0  0  0  0  0  0
  139.8636   77.0160  219.1561 H   0  0  0  0  0  0  0  0  0  0  0  0
  140.3257   77.6300  220.7470 H   0  0  0  0  0  0  0  0  0  0  0  0
  141.8429   77.7190  218.1903 H   0  0  0  0  0  0  0  0  0  0  0  0
  142.8210   78.8510  220.4640 H   0  0  0  0  0  0  0  0  0  0  0  0
  143.8830   76.7023  219.0253 H   0  0  0  0  0  0  0  0  0  0  0  0
  143.4701   76.8462  220.6849 H   0  0  0  0  0  0  0  0  0  0  0  0
  141.8395   75.0122  218.5625 H   0  0  0  0  0  0  0  0  0  0  0  0
  143.1646   73.7020  218.8554 H   0  0  0  0  0  0  0  0  0  0  0  0
  145.0823   74.5931  219.1513 H   0  0  0  0  0  0  0  0  0  0  0  0
  144.6636   75.4437  220.6390 H   0  0  0  0  0  0  0  0  0  0  0  0
  146.1429   73.2908  220.9206 H   0  0  0  0  0  0  0  0  0  0  0  0
  144.6867   73.3358  221.9427 H   0  0  0  0  0  0  0  0  0  0  0  0
  144.8058   72.1154  219.1531 H   0  0  0  0  0  0  0  0  0  0  0  0
  145.0078   71.2009  220.7360 H   0  0  0  0  0  0  0  0  0  0  0  0
  142.6558   71.5278  219.3362 H   0  0  0  0  0  0  0  0  0  0  0  0
  142.8123   71.0313  221.0245 H   0  0  0  0  0  0  0  0  0  0  0  0
  141.3775   73.1954  220.6364 H   0  0  0  0  0  0  0  0  0  0  0  0
  142.6861   73.4193  221.8018 H   0  0  0  0  0  0  0  0  0  0  0  0
  138.7316   69.0344  222.5541 H   0  0  0  0  0  0  0  0  0  0  0  0
  138.9427   67.6664  224.6061 H   0  0  0  0  0  0  0  0  0  0  0  0
  139.6262   67.4239  226.9103 H   0  0  0  0  0  0  0  0  0  0  0  0
  141.4520   70.7560  228.8792 H   0  0  0  0  0  0  0  0  0  0  0  0
  141.2411   72.1220  226.8254 H   0  0  0  0  0  0  0  0  0  0  0  0
  1  2  2  0
  2  3  1  0
  3  4  1  0
  4  5  1  0
  5  6  2  0
  5  7  1  0
  7  8  1  0
  8  9  1  0
  9 10  1  0
  9 11  1  0
 11 12  1  0
 12 13  1  0
 13 14  1  0
 14 15  1  0
 15 16  1  0
 16 17  1  0
 17 18  1  0
  2 19  1  0
 19 20  2  0
 20 21  1  0
 21 22  2  0
 22 23  1  0
 23 24  2  0
 24 25  1  0
 24 26  1  0
 26 27  2  0
 27 28  1  0
 28 29  2  0
 12  7  1  0
 18 13  1  0
 29 19  1  0
 28 22  1  0
  3 30  1  0
  4 31  1  0
  4 32  1  0
  8 33  1  0
  8 34  1  0
  9 35  1  6
 10 36  1  0
 11 37  1  0
 11 38  1  0
 12 39  1  6
 13 40  1  0
 14 41  1  0
 14 42  1  0
 15 43  1  0
 15 44  1  0
 16 45  1  0
 16 46  1  0
 17 47  1  0
 17 48  1  0
 18 49  1  0
 18 50  1  0
 20 51  1  0
 21 52  1  0
 23 53  1  0
 26 54  1  0
 27 55  1  0
M  END
>  <smiles>  (12) 
O=C(NCC(=O)N1C[C@@H](O)C[C@H]1C1CCCCC1)c1ccc2cc(F)ccc2n1

>  <score_type>  (12) 
oracle

>  <origin>  (12) 
autodockgpu

>  <m_score__min__energy>  (12) 
-8.9600000000000009

>  <m_primary>  (12) 
energy

>  <rmsd>  (12) 
1.8198856200355165

>  <m_score__min__rmsd>  (12) 
1.8198856200355165

>  <meeko>  (12) 
{"free_energy": -8.18, "intermolecular_energy": -9.97, "internal_energy": -1.88, "cluster_size": 25, "cluster_id": 2, "rank_in_cluster": 20}

>  <energy>  (12) 
-7.87

>  <cluster_rmsd>  (12) 
1.53

>  <cluster>  (12) 
1

$$$$

     RDKit          3D

 55 58  0  0  0  0  0  0  0  0999 V2000
  139.5830   72.8270  222.7210 O   0  0  0  0  0  0  0  0  0  0  0  0
  139.7540   71.5900  222.8600 C   0  0  0  0  0  0  0  0  0  0  0  0
  139.5710   70.7090  221.7610 N   0  0  0  0  0  0  0  0  0  0  0  0
  139.1800   71.2180  220.4370 C   0  0  0  0  0  0  0  0  0  0  0  0
  140.2340   72.0480  219.8610 C   0  0  0  0  0  0  0  0  0  0  0  0
  140.9460   71.4810  218.9500 O   0  0  0  0  0  0  0  0  0  0  0  0
  140.5970   73.3740  220.1490 N   0  0  0  0  0  0  0  0  0  0  0  0
  139.4650   74.2880  220.5720 C   0  0  0  0  0  0  0  0  0  0  0  0
  140.1240   75.4420  221.2670 C   0  0  1  0  0  0  0  0  0  0  0  0
  139.4730   75.7840  222.4510 O   0  0  0  0  0  0  0  0  0  0  0  0
  141.5330   74.9580  221.5200 C   0  0  0  0  0  0  0  0  0  0  0  0
  141.7310   74.1910  220.1730 C   0  0  1  0  0  0  0  0  0  0  0  0
  143.1040   73.6600  220.1210 C   0  0  0  0  0  0  0  0  0  0  0  0
  144.2240   74.6290  220.3440 C   0  0  0  0  0  0  0  0  0  0  0  0
  145.4090   73.7670  220.8070 C   0  0  0  0  0  0  0  0  0  0  0  0
  145.4800   72.5770  219.8890 C   0  0  0  0  0  0  0  0  0  0  0  0
  144.3590   71.5990  220.0340 C   0  0  0  0  0  0  0  0  0  0  0  0
  143.2540   72.3540  220.8150 C   0  0  0  0  0  0  0  0  0  0  0  0
  140.1460   71.0400  224.1740 C   0  0  0  0  0  0  0  0  0  0  0  0
  140.7240   71.8770  225.1040 C   0  0  0  0  0  0  0  0  0  0  0  0
  141.0900   71.3590  226.3280 C   0  0  0  0  0  0  0  0  0  0  0  0
  140.8890   70.0320  226.6360 C   0  0  0  0  0  0  0  0  0  0  0  0
  141.2550   69.5150  227.8610 C   0  0  0  0  0  0  0  0  0  0  0  0
  141.0420   68.1780  228.1450 C   0  0  0  0  0  0  0  0  0  0  0  0
  141.4110   67.7030  229.3530 F   0  0  0  0  0  0  0  0  0  0  0  0
  140.4600   67.3940  227.1740 C   0  0  0  0  0  0  0  0  0  0  0  0
  140.0870   67.9070  225.9330 C   0  0  0  0  0  0  0  0  0  0  0  0
  140.3010   69.2560  225.6440 C   0  0  0  0  0  0  0  0  0  0  0  0
  139.9390   69.7320  224.4530 N   0  0  0  0  0  0  0  0  0  0  0  0
  139.7290   69.6950  221.9440 H   0  0  0  0  0  0  0  0  0  0  0  0
  138.9867   70.3668  219.7676 H   0  0  0  0  0  0  0  0  0  0  0  0
  138.2749   71.8325  220.5521 H   0  0  0  0  0  0  0  0  0  0  0  0
  138.9037   74.6377  219.6930 H   0  0  0  0  0  0  0  0  0  0  0  0
  138.7458   73.7731  221.2259 H   0  0  0  0  0  0  0  0  0  0  0  0
  140.0958   76.3617  220.6642 H   0  0  0  0  0  0  0  0  0  0  0  0
  139.2200   74.9430  222.8960 H   0  0  0  0  0  0  0  0  0  0  0  0
  142.2457   75.7875  221.6381 H   0  0  0  0  0  0  0  0  0  0  0  0
  141.6904   74.3758  222.4399 H   0  0  0  0  0  0  0  0  0  0  0  0
  141.7379   74.7292  219.2137 H   0  0  0  0  0  0  0  0  0  0  0  0
  143.2411   73.4480  219.0504 H   0  0  0  0  0  0  0  0  0  0  0  0
  144.4707   75.1562  219.4106 H   0  0  0  0  0  0  0  0  0  0  0  0
  143.9615   75.4014  221.0819 H   0  0  0  0  0  0  0  0  0  0  0  0
  146.3424   74.3459  220.7463 H   0  0  0  0  0  0  0  0  0  0  0  0
  145.2744   73.4471  221.8508 H   0  0  0  0  0  0  0  0  0  0  0  0
  145.4795   72.9453  218.8525 H   0  0  0  0  0  0  0  0  0  0  0  0
  146.3979   72.0346  220.1596 H   0  0  0  0  0  0  0  0  0  0  0  0
  143.9885   71.2887  219.0458 H   0  0  0  0  0  0  0  0  0  0  0  0
  144.6780   70.6850  220.5564 H   0  0  0  0  0  0  0  0  0  0  0  0
  142.3091   71.7916  220.7857 H   0  0  0  0  0  0  0  0  0  0  0  0
  143.5164   72.4815  221.8756 H   0  0  0  0  0  0  0  0  0  0  0  0
  140.8903   72.9397  224.8736 H   0  0  0  0  0  0  0  0  0  0  0  0
  141.5529   72.0204  227.0752 H   0  0  0  0  0  0  0  0  0  0  0  0
  141.7181   70.1683  228.6152 H   0  0  0  0  0  0  0  0  0  0  0  0
  140.2839   66.3288  227.3846 H   0  0  0  0  0  0  0  0  0  0  0  0
  139.6245   67.2497  225.1820 H   0  0  0  0  0  0  0  0  0  0  0  0
  1  2  2  0
  2  3  1  0
  3  4  1  0
  4  5  1  0
  5  6  2  0
  5  7  1  0
  7  8  1  0
  8  9  1  0
  9 10  1  0
  9 11  1  0
 11 12  1  0
 12 13  1  0
 13 14  1  0
 14 15  1  0
 15 16  1  0
 16 17  1  0
 17 18  1  0
  2 19  1  0
 19 20  2  0
 20 21  1  0
 21 22  2  0
 22 23  1  0
 23 24  2  0
 24 25  1  0
 24 26  1  0
 26 27  2  0
 27 28  1  0
 28 29  2  0
 12  7  1  0
 18 13  1  0
 29 19  1  0
 28 22  1  0
  3 30  1  0
  4 31  1  0
  4 32  1  0
  8 33  1  0
  8 34  1  0
  9 35  1  6
 10 36  1  0
 11 37  1  0
 11 38  1  0
 12 39  1  6
 13 40  1  0
 14 41  1  0
 14 42  1  0
 15 43  1  0
 15 44  1  0
 16 45  1  0
 16 46  1  0
 17 47  1  0
 17 48  1  0
 18 49  1  0
 18 50  1  0
 20 51  1  0
 21 52  1  0
 23 53  1  0
 26 54  1  0
 27 55  1  0
M  END
>  <smiles>  (13) 
O=C(NCC(=O)N1C[C@@H](O)C[C@H]1C1CCCCC1)c1ccc2cc(F)ccc2n1

>  <score_type>  (13) 
oracle

>  <origin>  (13) 
autodockgpu

>  <m_score__min__energy>  (13) 
-8.9600000000000009

>  <m_primary>  (13) 
energy

>  <rmsd>  (13) 
3.3863840684073923

>  <m_score__min__rmsd>  (13) 
3.3863840684073923

>  <meeko>  (13) 
{"free_energy": -7.63, "intermolecular_energy": -9.42, "internal_energy": -2.47, "cluster_size": 7, "cluster_id": 3, "rank_in_cluster": 5}

>  <energy>  (13) 
-8.75

>  <cluster_rmsd>  (13) 
0.0

>  <cluster>  (13) 
2

$$$$

     RDKit          3D

 55 58  0  0  0  0  0  0  0  0999 V2000
  140.9330   71.8020  221.1600 O   0  0  0  0  0  0  0  0  0  0  0  0
  140.4140   72.2990  222.1910 C   0  0  0  0  0  0  0  0  0  0  0  0
  140.0120   73.6610  222.2100 N   0  0  0  0  0  0  0  0  0  0  0  0
  140.1910   74.5220  221.0310 C   0  0  0  0  0  0  0  0  0  0  0  0
  140.6500   75.8540  221.4180 C   0  0  0  0  0  0  0  0  0  0  0  0
  140.2430   76.2640  222.5680 O   0  0  0  0  0  0  0  0  0  0  0  0
  141.4670   76.7630  220.7250 N   0  0  0  0  0  0  0  0  0  0  0  0
  142.0470   76.2610  219.4190 C   0  0  0  0  0  0  0  0  0  0  0  0
  142.4460   77.4930  218.6610 C   0  0  1  0  0  0  0  0  0  0  0  0
  142.0590   77.4380  217.3240 O   0  0  0  0  0  0  0  0  0  0  0  0
  141.7550   78.6140  219.4010 C   0  0  0  0  0  0  0  0  0  0  0  0
  141.9620   78.0640  220.8480 C   0  0  1  0  0  0  0  0  0  0  0  0
  141.4260   79.0390  221.8140 C   0  0  0  0  0  0  0  0  0  0  0  0
  139.9380   79.0990  221.9750 C   0  0  0  0  0  0  0  0  0  0  0  0
  139.7130   79.7100  223.3670 C   0  0  0  0  0  0  0  0  0  0  0  0
  140.6330   80.8950  223.4870 C   0  0  0  0  0  0  0  0  0  0  0  0
  142.0870   80.5600  223.5690 C   0  0  0  0  0  0  0  0  0  0  0  0
  142.1990   79.0930  223.0830 C   0  0  0  0  0  0  0  0  0  0  0  0
  140.2180   71.4680  223.3960 C   0  0  0  0  0  0  0  0  0  0  0  0
  139.5490   70.2690  223.2810 C   0  0  0  0  0  0  0  0  0  0  0  0
  139.3680   69.4960  224.4080 C   0  0  0  0  0  0  0  0  0  0  0  0
  139.8410   69.8970  225.6370 C   0  0  0  0  0  0  0  0  0  0  0  0
  139.6600   69.1240  226.7660 C   0  0  0  0  0  0  0  0  0  0  0  0
  140.1450   69.5510  227.9880 C   0  0  0  0  0  0  0  0  0  0  0  0
  139.9500   68.7710  229.0730 F   0  0  0  0  0  0  0  0  0  0  0  0
  140.8050   70.7580  228.0380 C   0  0  0  0  0  0  0  0  0  0  0  0
  140.9930   71.5470  226.9050 C   0  0  0  0  0  0  0  0  0  0  0  0
  140.5050   71.1190  225.6690 C   0  0  0  0  0  0  0  0  0  0  0  0
  140.6920   71.8830  224.5940 N   0  0  0  0  0  0  0  0  0  0  0  0
  139.5890   74.0110  223.0960 H   0  0  0  0  0  0  0  0  0  0  0  0
  140.9356   74.0655  220.3623 H   0  0  0  0  0  0  0  0  0  0  0  0
  139.2220   74.6209  220.5199 H   0  0  0  0  0  0  0  0  0  0  0  0
  142.9238   75.6238  219.6069 H   0  0  0  0  0  0  0  0  0  0  0  0
  141.3238   75.6513  218.8575 H   0  0  0  0  0  0  0  0  0  0  0  0
  143.5377   77.6221  218.6226 H   0  0  0  0  0  0  0  0  0  0  0  0
  142.7060   77.9750  216.8120 H   0  0  0  0  0  0  0  0  0  0  0  0
  142.2499   79.5843  219.2474 H   0  0  0  0  0  0  0  0  0  0  0  0
  140.7171   78.8258  219.1046 H   0  0  0  0  0  0  0  0  0  0  0  0
  142.9714   77.9657  221.2740 H   0  0  0  0  0  0  0  0  0  0  0  0
  141.6064   80.0011  221.3121 H   0  0  0  0  0  0  0  0  0  0  0  0
  139.4902   79.7345  221.1968 H   0  0  0  0  0  0  0  0  0  0  0  0
  139.4716   78.1074  221.8787 H   0  0  0  0  0  0  0  0  0  0  0  0
  138.6668   80.0330  223.4722 H   0  0  0  0  0  0  0  0  0  0  0  0
  139.9218   78.9722  224.1557 H   0  0  0  0  0  0  0  0  0  0  0  0
  140.4798   81.5365  222.6067 H   0  0  0  0  0  0  0  0  0  0  0  0
  140.3771   81.3879  224.4365 H   0  0  0  0  0  0  0  0  0  0  0  0
  142.6728   81.2266  222.9190 H   0  0  0  0  0  0  0  0  0  0  0  0
  142.4786   80.6840  224.5894 H   0  0  0  0  0  0  0  0  0  0  0  0
  143.2510   78.8256  222.9048 H   0  0  0  0  0  0  0  0  0  0  0  0
  141.8118   78.3835  223.8291 H   0  0  0  0  0  0  0  0  0  0  0  0
  139.1656   69.9341  222.3059 H   0  0  0  0  0  0  0  0  0  0  0  0
  138.8340   68.5380  224.3234 H   0  0  0  0  0  0  0  0  0  0  0  0
  139.1276   68.1642  226.6931 H   0  0  0  0  0  0  0  0  0  0  0  0
  141.1966   71.1110  229.0034 H   0  0  0  0  0  0  0  0  0  0  0  0
  141.5255   72.5063  226.9844 H   0  0  0  0  0  0  0  0  0  0  0  0
  1  2  2  0
  2  3  1  0
  3  4  1  0
  4  5  1  0
  5  6  2  0
  5  7  1  0
  7  8  1  0
  8  9  1  0
  9 10  1  0
  9 11  1  0
 11 12  1  0
 12 13  1  0
 13 14  1  0
 14 15  1  0
 15 16  1  0
 16 17  1  0
 17 18  1  0
  2 19  1  0
 19 20  2  0
 20 21  1  0
 21 22  2  0
 22 23  1  0
 23 24  2  0
 24 25  1  0
 24 26  1  0
 26 27  2  0
 27 28  1  0
 28 29  2  0
 12  7  1  0
 18 13  1  0
 29 19  1  0
 28 22  1  0
  3 30  1  0
  4 31  1  0
  4 32  1  0
  8 33  1  0
  8 34  1  0
  9 35  1  6
 10 36  1  0
 11 37  1  0
 11 38  1  0
 12 39  1  1
 13 40  1  0
 14 41  1  0
 14 42  1  0
 15 43  1  0
 15 44  1  0
 16 45  1  0
 16 46  1  0
 17 47  1  0
 17 48  1  0
 18 49  1  0
 18 50  1  0
 20 51  1  0
 21 52  1  0
 23 53  1  0
 26 54  1  0
 27 55  1  0
M  END
>  <smiles>  (14) 
O=C(NCC(=O)N1C[C@@H](O)C[C@H]1C1CCCCC1)c1ccc2cc(F)ccc2n1

>  <score_type>  (14) 
oracle

>  <origin>  (14) 
autodockgpu

>  <m_score__min__energy>  (14) 
-8.9600000000000009

>  <m_primary>  (14) 
energy

>  <rmsd>  (14) 
1.9846477126486373

>  <m_score__min__rmsd>  (14) 
1.9846477126486373

>  <meeko>  (14) 
{"free_energy": -8.7, "intermolecular_energy": -10.49, "internal_energy": -1.64, "cluster_size": 25, "cluster_id": 2, "rank_in_cluster": 2}

>  <energy>  (14) 
-8.7

>  <cluster_rmsd>  (14) 
0.31

>  <cluster>  (14) 
2

$$$$

     RDKit          3D

 55 58  0  0  0  0  0  0  0  0999 V2000
  139.7750   71.3330  221.0800 O   0  0  0  0  0  0  0  0  0  0  0  0
  139.7320   71.8700  222.2150 C   0  0  0  0  0  0  0  0  0  0  0  0
  139.5960   73.2770  222.3420 N   0  0  0  0  0  0  0  0  0  0  0  0
  139.5020   74.1410  221.1550 C   0  0  0  0  0  0  0  0  0  0  0  0
  140.5730   75.1340  221.1410 C   0  0  0  0  0  0  0  0  0  0  0  0
  140.8300   75.6820  222.2770 O   0  0  0  0  0  0  0  0  0  0  0  0
  141.3690   75.5880  220.0760 N   0  0  0  0  0  0  0  0  0  0  0  0
  140.9750   76.9240  219.4840 C   0  0  0  0  0  0  0  0  0  0  0  0
  142.1890   77.4070  218.7470 C   0  0  1  0  0  0  0  0  0  0  0  0
  142.4520   78.7530  218.9920 O   0  0  0  0  0  0  0  0  0  0  0  0
  143.2990   76.5150  219.2530 C   0  0  0  0  0  0  0  0  0  0  0  0
  142.4790   75.1880  219.3260 C   0  0  1  0  0  0  0  0  0  0  0  0
  143.3740   74.0930  219.7370 C   0  0  0  0  0  0  0  0  0  0  0  0
  144.7180   74.4710  220.2800 C   0  0  0  0  0  0  0  0  0  0  0  0
  145.1580   73.2670  221.1280 C   0  0  0  0  0  0  0  0  0  0  0  0
  144.8810   72.0280  220.3200 C   0  0  0  0  0  0  0  0  0  0  0  0
  143.4340   71.7100  220.1250 C   0  0  0  0  0  0  0  0  0  0  0  0
  142.6750   73.0130  220.4830 C   0  0  0  0  0  0  0  0  0  0  0  0
  139.8230   71.0370  223.4320 C   0  0  0  0  0  0  0  0  0  0  0  0
  139.3880   69.7300  223.3830 C   0  0  0  0  0  0  0  0  0  0  0  0
  139.4750   68.9570  224.5200 C   0  0  0  0  0  0  0  0  0  0  0  0
  139.9850   69.4620  225.6950 C   0  0  0  0  0  0  0  0  0  0  0  0
  140.0720   68.6880  226.8340 C   0  0  0  0  0  0  0  0  0  0  0  0
  140.5890   69.2200  228.0010 C   0  0  0  0  0  0  0  0  0  0  0  0
  140.6600   68.4360  229.0970 F   0  0  0  0  0  0  0  0  0  0  0  0
  141.0070   70.5320  227.9850 C   0  0  0  0  0  0  0  0  0  0  0  0
  140.9230   71.3220  226.8410 C   0  0  0  0  0  0  0  0  0  0  0  0
  140.4020   70.7880  225.6610 C   0  0  0  0  0  0  0  0  0  0  0  0
  140.3280   71.5550  224.5750 N   0  0  0  0  0  0  0  0  0  0  0  0
  139.5660   73.6590  223.3110 H   0  0  0  0  0  0  0  0  0  0  0  0
  139.5772   73.5188  220.2510 H   0  0  0  0  0  0  0  0  0  0  0  0
  138.5371   74.6684  221.1824 H   0  0  0  0  0  0  0  0  0  0  0  0
  140.1277   76.8038  218.7928 H   0  0  0  0  0  0  0  0  0  0  0  0
  140.6565   77.6368  220.2589 H   0  0  0  0  0  0  0  0  0  0  0  0
  142.0648   77.3483  217.6556 H   0  0  0  0  0  0  0  0  0  0  0  0
  143.1580   78.7900  219.6790 H   0  0  0  0  0  0  0  0  0  0  0  0
  144.1388   76.4497  218.5455 H   0  0  0  0  0  0  0  0  0  0  0  0
  143.7941   76.8332  220.1823 H   0  0  0  0  0  0  0  0  0  0  0  0
  142.0770   74.7226  218.4140 H   0  0  0  0  0  0  0  0  0  0  0  0
  143.6709   73.6497  218.7750 H   0  0  0  0  0  0  0  0  0  0  0  0
  145.4302   74.6475  219.4605 H   0  0  0  0  0  0  0  0  0  0  0  0
  144.6792   75.3990  220.8693 H   0  0  0  0  0  0  0  0  0  0  0  0
  146.2323   73.3374  221.3535 H   0  0  0  0  0  0  0  0  0  0  0  0
  144.6113   73.2410  222.0822 H   0  0  0  0  0  0  0  0  0  0  0  0
  145.3381   72.1586  219.3280 H   0  0  0  0  0  0  0  0  0  0  0  0
  145.3055   71.1886  220.8903 H   0  0  0  0  0  0  0  0  0  0  0  0
  143.2397   71.4260  219.0802 H   0  0  0  0  0  0  0  0  0  0  0  0
  143.1129   70.8642  220.7507 H   0  0  0  0  0  0  0  0  0  0  0  0
  141.6234   72.9453  220.1674 H   0  0  0  0  0  0  0  0  0  0  0  0
  142.6710   73.2002  221.5670 H   0  0  0  0  0  0  0  0  0  0  0  0
  138.9784   69.3113  222.4519 H   0  0  0  0  0  0  0  0  0  0  0  0
  139.1294   67.9132  224.4884 H   0  0  0  0  0  0  0  0  0  0  0  0
  139.7286   67.6432  226.8136 H   0  0  0  0  0  0  0  0  0  0  0  0
  141.4205   70.9702  228.9053 H   0  0  0  0  0  0  0  0  0  0  0  0
  141.2671   72.3665  226.8673 H   0  0  0  0  0  0  0  0  0  0  0  0
  1  2  2  0
  2  3  1  0
  3  4  1  0
  4  5  1  0
  5  6  2  0
  5  7  1  0
  7  8  1  0
  8  9  1  0
  9 10  1  0
  9 11  1  0
 11 12  1  0
 12 13  1  0
 13 14  1  0
 14 15  1  0
 15 16  1  0
 16 17  1  0
 17 18  1  0
  2 19  1  0
 19 20  2  0
 20 21  1  0
 21 22  2  0
 22 23  1  0
 23 24  2  0
 24 25  1  0
 24 26  1  0
 26 27  2  0
 27 28  1  0
 28 29  2  0
 12  7  1  0
 18 13  1  0
 29 19  1  0
 28 22  1  0
  3 30  1  0
  4 31  1  0
  4 32  1  0
  8 33  1  0
  8 34  1  0
  9 35  1  6
 10 36  1  0
 11 37  1  0
 11 38  1  0
 12 39  1  6
 13 40  1  0
 14 41  1  0
 14 42  1  0
 15 43  1  0
 15 44  1  0
 16 45  1  0
 16 46  1  0
 17 47  1  0
 17 48  1  0
 18 49  1  0
 18 50  1  0
 20 51  1  0
 21 52  1  0
 23 53  1  0
 26 54  1  0
 27 55  1  0
M  END
>  <smiles>  (15) 
O=C(NCC(=O)N1C[C@@H](O)C[C@H]1C1CCCCC1)c1ccc2cc(F)ccc2n1

>  <score_type>  (15) 
oracle

>  <origin>  (15) 
autodockgpu

>  <m_score__min__energy>  (15) 
-8.9600000000000009

>  <m_primary>  (15) 
energy

>  <rmsd>  (15) 
1.8760928341823488

>  <m_score__min__rmsd>  (15) 
1.8760928341823488

>  <meeko>  (15) 
{"free_energy": -8.11, "intermolecular_energy": -9.9, "internal_energy": -1.94, "cluster_size": 25, "cluster_id": 2, "rank_in_cluster": 21}

>  <energy>  (15) 
-8.66

>  <cluster_rmsd>  (15) 
0.32

>  <cluster>  (15) 
2

$$$$

     RDKit          3D

 55 58  0  0  0  0  0  0  0  0999 V2000
  140.7630   71.7370  221.1270 O   0  0  0  0  0  0  0  0  0  0  0  0
  140.3170   72.2460  222.1850 C   0  0  0  0  0  0  0  0  0  0  0  0
  139.9650   73.6210  222.2310 N   0  0  0  0  0  0  0  0  0  0  0  0
  140.1110   74.4820  221.0470 C   0  0  0  0  0  0  0  0  0  0  0  0
  140.5590   75.8210  221.4230 C   0  0  0  0  0  0  0  0  0  0  0  0
  140.1290   76.2470  222.5590 O   0  0  0  0  0  0  0  0  0  0  0  0
  141.3880   76.7210  220.7330 N   0  0  0  0  0  0  0  0  0  0  0  0
  141.9540   76.2200  219.4210 C   0  0  0  0  0  0  0  0  0  0  0  0
  142.3700   77.4510  218.6710 C   0  0  1  0  0  0  0  0  0  0  0  0
  141.9760   77.4120  217.3350 O   0  0  0  0  0  0  0  0  0  0  0  0
  141.7000   78.5770  219.4220 C   0  0  0  0  0  0  0  0  0  0  0  0
  141.9040   78.0140  220.8640 C   0  0  1  0  0  0  0  0  0  0  0  0
  141.3880   78.9890  221.8390 C   0  0  0  0  0  0  0  0  0  0  0  0
  139.9150   79.2570  221.8290 C   0  0  0  0  0  0  0  0  0  0  0  0
  139.5990   79.8000  223.2320 C   0  0  0  0  0  0  0  0  0  0  0  0
  140.6510   80.8250  223.5600 C   0  0  0  0  0  0  0  0  0  0  0  0
  142.0220   80.2750  223.7830 C   0  0  0  0  0  0  0  0  0  0  0  0
  141.9920   78.8430  223.1900 C   0  0  0  0  0  0  0  0  0  0  0  0
  140.1550   71.4150  223.3960 C   0  0  0  0  0  0  0  0  0  0  0  0
  139.5520   70.1810  223.2850 C   0  0  0  0  0  0  0  0  0  0  0  0
  139.4030   69.4090  224.4180 C   0  0  0  0  0  0  0  0  0  0  0  0
  139.8430   69.8450  225.6470 C   0  0  0  0  0  0  0  0  0  0  0  0
  139.6940   69.0730  226.7810 C   0  0  0  0  0  0  0  0  0  0  0  0
  140.1460   69.5340  228.0030 C   0  0  0  0  0  0  0  0  0  0  0  0
  139.9840   68.7540  229.0930 F   0  0  0  0  0  0  0  0  0  0  0  0
  140.7400   70.7750  228.0480 C   0  0  0  0  0  0  0  0  0  0  0  0
  140.8950   71.5640  226.9100 C   0  0  0  0  0  0  0  0  0  0  0  0
  140.4410   71.1000  225.6730 C   0  0  0  0  0  0  0  0  0  0  0  0
  140.5960   71.8650  224.5940 N   0  0  0  0  0  0  0  0  0  0  0  0
  139.6020   73.9810  223.1390 H   0  0  0  0  0  0  0  0  0  0  0  0
  140.8494   74.0341  220.3658 H   0  0  0  0  0  0  0  0  0  0  0  0
  139.1316   74.5668  220.5534 H   0  0  0  0  0  0  0  0  0  0  0  0
  142.8209   75.5670  219.6001 H   0  0  0  0  0  0  0  0  0  0  0  0
  141.2184   75.6268  218.8579 H   0  0  0  0  0  0  0  0  0  0  0  0
  143.4635   77.5631  218.6292 H   0  0  0  0  0  0  0  0  0  0  0  0
  142.1870   76.5110  216.9970 H   0  0  0  0  0  0  0  0  0  0  0  0
  142.2095   79.5405  219.2732 H   0  0  0  0  0  0  0  0  0  0  0  0
  140.6643   78.8069  219.1315 H   0  0  0  0  0  0  0  0  0  0  0  0
  142.9134   77.8975  221.2854 H   0  0  0  0  0  0  0  0  0  0  0  0
  141.7617   79.9456  221.4449 H   0  0  0  0  0  0  0  0  0  0  0  0
  139.6630   80.0024  221.0603 H   0  0  0  0  0  0  0  0  0  0  0  0
  139.3326   78.3536  221.5951 H   0  0  0  0  0  0  0  0  0  0  0  0
  138.6029   80.2665  223.2400 H   0  0  0  0  0  0  0  0  0  0  0  0
  139.6001   78.9881  223.9742 H   0  0  0  0  0  0  0  0  0  0  0  0
  140.7020   81.5403  222.7259 H   0  0  0  0  0  0  0  0  0  0  0  0
  140.3459   81.2842  224.5119 H   0  0  0  0  0  0  0  0  0  0  0  0
  142.7725   80.8904  223.2653 H   0  0  0  0  0  0  0  0  0  0  0  0
  142.2929   80.2709  224.8491 H   0  0  0  0  0  0  0  0  0  0  0  0
  143.0112   78.4362  223.1142 H   0  0  0  0  0  0  0  0  0  0  0  0
  141.4182   78.1497  223.8225 H   0  0  0  0  0  0  0  0  0  0  0  0
  139.1957   69.8180  222.3097 H   0  0  0  0  0  0  0  0  0  0  0  0
  138.9219   68.4231  224.3377 H   0  0  0  0  0  0  0  0  0  0  0  0
  139.2132   68.0860  226.7121 H   0  0  0  0  0  0  0  0  0  0  0  0
  141.1041   71.1561  229.0135 H   0  0  0  0  0  0  0  0  0  0  0  0
  141.3743   72.5512  226.9856 H   0  0  0  0  0  0  0  0  0  0  0  0
  1  2  2  0
  2  3  1  0
  3  4  1  0
  4  5  1  0
  5  6  2  0
  5  7  1  0
  7  8  1  0
  8  9  1  0
  9 10  1  0
  9 11  1  0
 11 12  1  0
 12 13  1  0
 13 14  1  0
 14 15  1  0
 15 16  1  0
 16 17  1  0
 17 18  1  0
  2 19  1  0
 19 20  2  0
 20 21  1  0
 21 22  2  0
 22 23  1  0
 23 24  2  0
 24 25  1  0
 24 26  1  0
 26 27  2  0
 27 28  1  0
 28 29  2  0
 12  7  1  0
 18 13  1  0
 29 19  1  0
 28 22  1  0
  3 30  1  0
  4 31  1  0
  4 32  1  0
  8 33  1  0
  8 34  1  0
  9 35  1  6
 10 36  1  0
 11 37  1  0
 11 38  1  0
 12 39  1  1
 13 40  1  0
 14 41  1  0
 14 42  1  0
 15 43  1  0
 15 44  1  0
 16 45  1  0
 16 46  1  0
 17 47  1  0
 17 48  1  0
 18 49  1  0
 18 50  1  0
 20 51  1  0
 21 52  1  0
 23 53  1  0
 26 54  1  0
 27 55  1  0
M  END
>  <smiles>  (16) 
O=C(NCC(=O)N1C[C@@H](O)C[C@H]1C1CCCCC1)c1ccc2cc(F)ccc2n1

>  <score_type>  (16) 
oracle

>  <origin>  (16) 
autodockgpu

>  <m_score__min__energy>  (16) 
-8.9600000000000009

>  <m_primary>  (16) 
energy

>  <rmsd>  (16) 
1.9202278163462216

>  <m_score__min__rmsd>  (16) 
1.9202278163462216

>  <meeko>  (16) 
{"free_energy": -8.42, "intermolecular_energy": -10.21, "internal_energy": -1.72, "cluster_size": 25, "cluster_id": 2, "rank_in_cluster": 15}

>  <energy>  (16) 
-8.66

>  <cluster_rmsd>  (16) 
0.29

>  <cluster>  (16) 
2

$$$$

     RDKit          3D

 55 58  0  0  0  0  0  0  0  0999 V2000
  134.8960   68.5300  224.7320 O   0  0  0  0  0  0  0  0  0  0  0  0
  135.4420   69.6520  224.5820 C   0  0  0  0  0  0  0  0  0  0  0  0
  136.6520   69.7740  223.8500 N   0  0  0  0  0  0  0  0  0  0  0  0
  137.2980   68.5960  223.2500 C   0  0  0  0  0  0  0  0  0  0  0  0
  138.6500   68.9120  222.7950 C   0  0  0  0  0  0  0  0  0  0  0  0
  139.1270   68.1240  221.8960 O   0  0  0  0  0  0  0  0  0  0  0  0
  139.5150   69.9460  223.1900 N   0  0  0  0  0  0  0  0  0  0  0  0
  139.7960   71.0040  222.1430 C   0  0  0  0  0  0  0  0  0  0  0  0
  140.3070   72.1910  222.9050 C   0  0  1  0  0  0  0  0  0  0  0  0
  139.7280   73.3820  222.4720 O   0  0  0  0  0  0  0  0  0  0  0  0
  139.9520   71.8820  224.3400 C   0  0  0  0  0  0  0  0  0  0  0  0
  140.2580   70.3510  224.3030 C   0  0  1  0  0  0  0  0  0  0  0  0
  140.0590   69.7880  225.6490 C   0  0  0  0  0  0  0  0  0  0  0  0
  140.0620   68.2970  225.7780 C   0  0  0  0  0  0  0  0  0  0  0  0
  140.4210   68.0240  227.2470 C   0  0  0  0  0  0  0  0  0  0  0  0
  139.5860   68.9520  228.0890 C   0  0  0  0  0  0  0  0  0  0  0  0
  139.9480   70.3980  227.9830 C   0  0  0  0  0  0  0  0  0  0  0  0
  140.8160   70.5130  226.7040 C   0  0  0  0  0  0  0  0  0  0  0  0
  134.8250   70.8590  225.1710 C   0  0  0  0  0  0  0  0  0  0  0  0
  133.8540   70.7110  226.1370 C   0  0  0  0  0  0  0  0  0  0  0  0
  133.2820   71.8400  226.6830 C   0  0  0  0  0  0  0  0  0  0  0  0
  133.6590   73.1020  226.2840 C   0  0  0  0  0  0  0  0  0  0  0  0
  133.0860   74.2320  226.8300 C   0  0  0  0  0  0  0  0  0  0  0  0
  133.4840   75.4880  226.4110 C   0  0  0  0  0  0  0  0  0  0  0  0
  132.9020   76.5730  226.9660 F   0  0  0  0  0  0  0  0  0  0  0  0
  134.4590   75.5690  225.4420 C   0  0  0  0  0  0  0  0  0  0  0  0
  135.0440   74.4350  224.8840 C   0  0  0  0  0  0  0  0  0  0  0  0
  134.6450   73.1650  225.3050 C   0  0  0  0  0  0  0  0  0  0  0  0
  135.2130   72.0900  224.7620 N   0  0  0  0  0  0  0  0  0  0  0  0
  137.0530   70.7320  223.7640 H   0  0  0  0  0  0  0  0  0  0  0  0
  137.3499   67.7935  224.0005 H   0  0  0  0  0  0  0  0  0  0  0  0
  136.7032   68.2757  222.3819 H   0  0  0  0  0  0  0  0  0  0  0  0
  140.5545   70.6484  221.4301 H   0  0  0  0  0  0  0  0  0  0  0  0
  138.8979   71.2491  221.5571 H   0  0  0  0  0  0  0  0  0  0  0  0
  141.3868   72.3446  222.7617 H   0  0  0  0  0  0  0  0  0  0  0  0
  138.9510   73.5550  223.0530 H   0  0  0  0  0  0  0  0  0  0  0  0
  140.5927   72.4196  225.0546 H   0  0  0  0  0  0  0  0  0  0  0  0
  138.9405   72.1685  224.6637 H   0  0  0  0  0  0  0  0  0  0  0  0
  141.2816   69.9851  224.1348 H   0  0  0  0  0  0  0  0  0  0  0  0
  138.9965   69.9959  225.8438 H   0  0  0  0  0  0  0  0  0  0  0  0
  139.0695   67.8866  225.5402 H   0  0  0  0  0  0  0  0  0  0  0  0
  140.7734   67.8244  225.0848 H   0  0  0  0  0  0  0  0  0  0  0  0
  140.1954   66.9780  227.5020 H   0  0  0  0  0  0  0  0  0  0  0  0
  141.4932   68.1934  227.4250 H   0  0  0  0  0  0  0  0  0  0  0  0
  138.5358   68.8397  227.7817 H   0  0  0  0  0  0  0  0  0  0  0  0
  139.7677   68.6653  229.1353 H   0  0  0  0  0  0  0  0  0  0  0  0
  139.0424   71.0155  227.8902 H   0  0  0  0  0  0  0  0  0  0  0  0
  140.4858   70.7513  228.8752 H   0  0  0  0  0  0  0  0  0  0  0  0
  140.9520   71.5681  226.4243 H   0  0  0  0  0  0  0  0  0  0  0  0
  141.8209   70.0905  226.8512 H   0  0  0  0  0  0  0  0  0  0  0  0
  133.5407   69.7095  226.4668 H   0  0  0  0  0  0  0  0  0  0  0  0
  132.5065   71.7298  227.4553 H   0  0  0  0  0  0  0  0  0  0  0  0
  132.3089   74.1332  227.6023 H   0  0  0  0  0  0  0  0  0  0  0  0
  134.7863   76.5611  225.0977 H   0  0  0  0  0  0  0  0  0  0  0  0
  135.8203   74.5399  224.1117 H   0  0  0  0  0  0  0  0  0  0  0  0
  1  2  2  0
  2  3  1  0
  3  4  1  0
  4  5  1  0
  5  6  2  0
  5  7  1  0
  7  8  1  0
  8  9  1  0
  9 10  1  0
  9 11  1  0
 11 12  1  0
 12 13  1  0
 13 14  1  0
 14 15  1  0
 15 16  1  0
 16 17  1  0
 17 18  1  0
  2 19  1  0
 19 20  2  0
 20 21  1  0
 21 22  2  0
 22 23  1  0
 23 24  2  0
 24 25  1  0
 24 26  1  0
 26 27  2  0
 27 28  1  0
 28 29  2  0
 12  7  1  0
 18 13  1  0
 29 19  1  0
 28 22  1  0
  3 30  1  0
  4 31  1  0
  4 32  1  0
  8 33  1  0
  8 34  1  0
  9 35  1  1
 10 36  1  0
 11 37  1  0
 11 38  1  0
 12 39  1  6
 13 40  1  0
 14 41  1  0
 14 42  1  0
 15 43  1  0
 15 44  1  0
 16 45  1  0
 16 46  1  0
 17 47  1  0
 17 48  1  0
 18 49  1  0
 18 50  1  0
 20 51  1  0
 21 52  1  0
 23 53  1  0
 26 54  1  0
 27 55  1  0
M  END
>  <smiles>  (17) 
O=C(NCC(=O)N1C[C@@H](O)C[C@H]1C1CCCCC1)c1ccc2cc(F)ccc2n1

>  <score_type>  (17) 
oracle

>  <origin>  (17) 
autodockgpu

>  <m_score__min__energy>  (17) 
-8.9600000000000009

>  <m_primary>  (17) 
energy

>  <rmsd>  (17) 
7.129088337290043

>  <m_score__min__rmsd>  (17) 
7.129088337290043

>  <meeko>  (17) 
{"free_energy": -7.99, "intermolecular_energy": -9.78, "internal_energy": -1.9, "cluster_size": 12, "cluster_id": 1, "rank_in_cluster": 10}

>  <energy>  (17) 
-8.62

>  <cluster_rmsd>  (17) 
0.3

>  <cluster>  (17) 
2

$$$$

     RDKit          3D

 55 58  0  0  0  0  0  0  0  0999 V2000
  140.8180   71.7520  221.1450 O   0  0  0  0  0  0  0  0  0  0  0  0
  140.3380   72.2610  222.1890 C   0  0  0  0  0  0  0  0  0  0  0  0
  139.9590   73.6290  222.2150 N   0  0  0  0  0  0  0  0  0  0  0  0
  140.1150   74.4830  221.0270 C   0  0  0  0  0  0  0  0  0  0  0  0
  140.5130   75.8370  221.4030 C   0  0  0  0  0  0  0  0  0  0  0  0
  140.0490   76.2550  222.5290 O   0  0  0  0  0  0  0  0  0  0  0  0
  141.3250   76.7600  220.7230 N   0  0  0  0  0  0  0  0  0  0  0  0
  141.8050   76.3280  219.3530 C   0  0  0  0  0  0  0  0  0  0  0  0
  142.2090   77.5940  218.6550 C   0  0  1  0  0  0  0  0  0  0  0  0
  141.7410   77.6430  217.3440 O   0  0  0  0  0  0  0  0  0  0  0  0
  141.6090   78.6860  219.5090 C   0  0  0  0  0  0  0  0  0  0  0  0
  141.8780   78.0310  220.9010 C   0  0  1  0  0  0  0  0  0  0  0  0
  141.4400   78.9570  221.9590 C   0  0  0  0  0  0  0  0  0  0  0  0
  142.4700   79.4060  222.9490 C   0  0  0  0  0  0  0  0  0  0  0  0
  141.9280   80.7290  223.5150 C   0  0  0  0  0  0  0  0  0  0  0  0
  140.4740   80.5130  223.8350 C   0  0  0  0  0  0  0  0  0  0  0  0
  139.5840   80.3410  222.6470 C   0  0  0  0  0  0  0  0  0  0  0  0
  140.5340   80.0270  221.4630 C   0  0  0  0  0  0  0  0  0  0  0  0
  140.1660   71.4360  223.4020 C   0  0  0  0  0  0  0  0  0  0  0  0
  139.5300   70.2180  223.2990 C   0  0  0  0  0  0  0  0  0  0  0  0
  139.3720   69.4520  224.4350 C   0  0  0  0  0  0  0  0  0  0  0  0
  139.8330   69.8790  225.6590 C   0  0  0  0  0  0  0  0  0  0  0  0
  139.6740   69.1120  226.7960 C   0  0  0  0  0  0  0  0  0  0  0  0
  140.1470   69.5650  228.0140 C   0  0  0  0  0  0  0  0  0  0  0  0
  139.9750   68.7910  229.1060 F   0  0  0  0  0  0  0  0  0  0  0  0
  140.7730   70.7910  228.0500 C   0  0  0  0  0  0  0  0  0  0  0  0
  140.9390   71.5730  226.9090 C   0  0  0  0  0  0  0  0  0  0  0  0
  140.4630   71.1190  225.6780 C   0  0  0  0  0  0  0  0  0  0  0  0
  140.6280   71.8770  224.5960 N   0  0  0  0  0  0  0  0  0  0  0  0
  139.5680   73.9880  223.1120 H   0  0  0  0  0  0  0  0  0  0  0  0
  140.8857   74.0505  220.3721 H   0  0  0  0  0  0  0  0  0  0  0  0
  139.1487   74.5348  220.5039 H   0  0  0  0  0  0  0  0  0  0  0  0
  142.6642   75.6472  219.4432 H   0  0  0  0  0  0  0  0  0  0  0  0
  141.0250   75.7859  218.7983 H   0  0  0  0  0  0  0  0  0  0  0  0
  143.3008   77.6869  218.5579 H   0  0  0  0  0  0  0  0  0  0  0  0
  141.4440   76.7340  217.1070 H   0  0  0  0  0  0  0  0  0  0  0  0
  142.1331   79.6457  219.3900 H   0  0  0  0  0  0  0  0  0  0  0  0
  140.5649   78.9553  219.2916 H   0  0  0  0  0  0  0  0  0  0  0  0
  142.9055   77.8663  221.2575 H   0  0  0  0  0  0  0  0  0  0  0  0
  140.8211   78.3143  222.6023 H   0  0  0  0  0  0  0  0  0  0  0  0
  142.5864   78.6615  223.7504 H   0  0  0  0  0  0  0  0  0  0  0  0
  143.4608   79.5292  222.4873 H   0  0  0  0  0  0  0  0  0  0  0  0
  142.4782   81.0022  224.4275 H   0  0  0  0  0  0  0  0  0  0  0  0
  142.0508   81.5447  222.7873 H   0  0  0  0  0  0  0  0  0  0  0  0
  140.3921   79.6090  224.4563 H   0  0  0  0  0  0  0  0  0  0  0  0
  140.1328   81.4261  224.3447 H   0  0  0  0  0  0  0  0  0  0  0  0
  138.8827   79.5092  222.8088 H   0  0  0  0  0  0  0  0  0  0  0  0
  138.9768   81.2384  222.4574 H   0  0  0  0  0  0  0  0  0  0  0  0
  139.9612   79.6740  220.5928 H   0  0  0  0  0  0  0  0  0  0  0  0
  141.0914   80.9177  221.1375 H   0  0  0  0  0  0  0  0  0  0  0  0
  139.1549   69.8628  222.3278 H   0  0  0  0  0  0  0  0  0  0  0  0
  138.8662   68.4780  224.3608 H   0  0  0  0  0  0  0  0  0  0  0  0
  139.1691   68.1368  226.7328 H   0  0  0  0  0  0  0  0  0  0  0  0
  141.1546   71.1653  229.0114 H   0  0  0  0  0  0  0  0  0  0  0  0
  141.4448   72.5474  226.9782 H   0  0  0  0  0  0  0  0  0  0  0  0
  1  2  2  0
  2  3  1  0
  3  4  1  0
  4  5  1  0
  5  6  2  0
  5  7  1  0
  7  8  1  0
  8  9  1  0
  9 10  1  0
  9 11  1  0
 11 12  1  0
 12 13  1  0
 13 14  1  0
 14 15  1  0
 15 16  1  0
 16 17  1  0
 17 18  1  0
  2 19  1  0
 19 20  2  0
 20 21  1  0
 21 22  2  0
 22 23  1  0
 23 24  2  0
 24 25  1  0
 24 26  1  0
 26 27  2  0
 27 28  1  0
 28 29  2  0
 12  7  1  0
 18 13  1  0
 29 19  1  0
 28 22  1  0
  3 30  1  0
  4 31  1  0
  4 32  1  0
  8 33  1  0
  8 34  1  0
  9 35  1  6
 10 36  1  0
 11 37  1  0
 11 38  1  0
 12 39  1  1
 13 40  1  0
 14 41  1  0
 14 42  1  0
 15 43  1  0
 15 44  1  0
 16 45  1  0
 16 46  1  0
 17 47  1  0
 17 48  1  0
 18 49  1  0
 18 50  1  0
 20 51  1  0
 21 52  1  0
 23 53  1  0
 26 54  1  0
 27 55  1  0
M  END
>  <smiles>  (18) 
O=C(NCC(=O)N1C[C@@H](O)C[C@H]1C1CCCCC1)c1ccc2cc(F)ccc2n1

>  <score_type>  (18) 
oracle

>  <origin>  (18) 
autodockgpu

>  <m_score__min__energy>  (18) 
-8.9600000000000009

>  <m_primary>  (18) 
energy

>  <rmsd>  (18) 
1.9146307450901008

>  <m_score__min__rmsd>  (18) 
1.9146307450901008

>  <meeko>  (18) 
{"free_energy": -8.38, "intermolecular_energy": -10.17, "internal_energy": -1.69, "cluster_size": 25, "cluster_id": 2, "rank_in_cluster": 16}

>  <energy>  (18) 
-8.62

>  <cluster_rmsd>  (18) 
0.32

>  <cluster>  (18) 
2

$$$$

     RDKit          3D

 55 58  0  0  0  0  0  0  0  0999 V2000
  134.9990   68.5330  224.9400 O   0  0  0  0  0  0  0  0  0  0  0  0
  135.3240   69.7270  224.7160 C   0  0  0  0  0  0  0  0  0  0  0  0
  136.3770   70.0300  223.8140 N   0  0  0  0  0  0  0  0  0  0  0  0
  137.1130   68.9620  223.1190 C   0  0  0  0  0  0  0  0  0  0  0  0
  138.4920   68.8790  223.5940 C   0  0  0  0  0  0  0  0  0  0  0  0
  138.8650   67.7160  224.0010 O   0  0  0  0  0  0  0  0  0  0  0  0
  139.4780   69.8760  223.6780 N   0  0  0  0  0  0  0  0  0  0  0  0
  139.5920   70.7910  222.4780 C   0  0  0  0  0  0  0  0  0  0  0  0
  140.3180   72.0080  222.9720 C   0  0  1  0  0  0  0  0  0  0  0  0
  139.7280   73.1900  222.5270 O   0  0  0  0  0  0  0  0  0  0  0  0
  140.2560   71.8810  224.4760 C   0  0  0  0  0  0  0  0  0  0  0  0
  140.4610   70.3350  224.5600 C   0  0  1  0  0  0  0  0  0  0  0  0
  140.5190   69.9350  225.9770 C   0  0  0  0  0  0  0  0  0  0  0  0
  141.0180   70.9500  226.9570 C   0  0  0  0  0  0  0  0  0  0  0  0
  140.4390   70.5130  228.3130 C   0  0  0  0  0  0  0  0  0  0  0  0
  140.6590   69.0290  228.4330 C   0  0  0  0  0  0  0  0  0  0  0  0
  139.8410   68.1920  227.5050 C   0  0  0  0  0  0  0  0  0  0  0  0
  139.3230   69.1680  226.4180 C   0  0  0  0  0  0  0  0  0  0  0  0
  134.6100   70.8280  225.3950 C   0  0  0  0  0  0  0  0  0  0  0  0
  133.6620   70.5240  226.3470 C   0  0  0  0  0  0  0  0  0  0  0  0
  132.9980   71.5540  226.9780 C   0  0  0  0  0  0  0  0  0  0  0  0
  133.2630   72.8710  226.6760 C   0  0  0  0  0  0  0  0  0  0  0  0
  132.5990   73.9020  227.3070 C   0  0  0  0  0  0  0  0  0  0  0  0
  132.8840   75.2160  226.9840 C   0  0  0  0  0  0  0  0  0  0  0  0
  132.2160   76.2020  227.6200 F   0  0  0  0  0  0  0  0  0  0  0  0
  133.8430   75.4540  226.0240 C   0  0  0  0  0  0  0  0  0  0  0  0
  134.5190   74.4200  225.3810 C   0  0  0  0  0  0  0  0  0  0  0  0
  134.2330   73.0930  225.7040 C   0  0  0  0  0  0  0  0  0  0  0  0
  134.8880   72.1150  225.0810 N   0  0  0  0  0  0  0  0  0  0  0  0
  136.5970   71.0390  223.6730 H   0  0  0  0  0  0  0  0  0  0  0  0
  136.6109   68.0008  223.3036 H   0  0  0  0  0  0  0  0  0  0  0  0
  137.1271   69.1903  222.0431 H   0  0  0  0  0  0  0  0  0  0  0  0
  140.1624   70.3024  221.6743 H   0  0  0  0  0  0  0  0  0  0  0  0
  138.6058   71.0440  222.0615 H   0  0  0  0  0  0  0  0  0  0  0  0
  141.3498   72.0593  222.5941 H   0  0  0  0  0  0  0  0  0  0  0  0
  138.9280   73.3410  223.0810 H   0  0  0  0  0  0  0  0  0  0  0  0
  141.0618   72.4379  224.9766 H   0  0  0  0  0  0  0  0  0  0  0  0
  139.3531   72.2797  224.9617 H   0  0  0  0  0  0  0  0  0  0  0  0
  141.4034   69.8725  224.2316 H   0  0  0  0  0  0  0  0  0  0  0  0
  141.3564   69.2220  225.9940 H   0  0  0  0  0  0  0  0  0  0  0  0
  142.1176   70.9494  226.9880 H   0  0  0  0  0  0  0  0  0  0  0  0
  140.7109   71.9710  226.6865 H   0  0  0  0  0  0  0  0  0  0  0  0
  140.9554   71.0379  229.1302 H   0  0  0  0  0  0  0  0  0  0  0  0
  139.3680   70.7555  228.3769 H   0  0  0  0  0  0  0  0  0  0  0  0
  141.7207   68.8241  228.2310 H   0  0  0  0  0  0  0  0  0  0  0  0
  140.3467   68.7535  229.4511 H   0  0  0  0  0  0  0  0  0  0  0  0
  140.4598   67.4039  227.0511 H   0  0  0  0  0  0  0  0  0  0  0  0
  139.0155   67.6882  228.0290 H   0  0  0  0  0  0  0  0  0  0  0  0
  138.8902   68.6105  225.5743 H   0  0  0  0  0  0  0  0  0  0  0  0
  138.5316   69.8279  226.8029 H   0  0  0  0  0  0  0  0  0  0  0  0
  133.4386   69.4769  226.5994 H   0  0  0  0  0  0  0  0  0  0  0  0
  132.2398   71.3187  227.7395 H   0  0  0  0  0  0  0  0  0  0  0  0
  131.8394   73.6781  228.0705 H   0  0  0  0  0  0  0  0  0  0  0  0
  134.0824   76.4939  225.7568 H   0  0  0  0  0  0  0  0  0  0  0  0
  135.2782   74.6493  224.6187 H   0  0  0  0  0  0  0  0  0  0  0  0
  1  2  2  0
  2  3  1  0
  3  4  1  0
  4  5  1  0
  5  6  2  0
  5  7  1  0
  7  8  1  0
  8  9  1  0
  9 10  1  0
  9 11  1  0
 11 12  1  0
 12 13  1  0
 13 14  1  0
 14 15  1  0
 15 16  1  0
 16 17  1  0
 17 18  1  0
  2 19  1  0
 19 20  2  0
 20 21  1  0
 21 22  2  0
 22 23  1  0
 23 24  2  0
 24 25  1  0
 24 26  1  0
 26 27  2  0
 27 28  1  0
 28 29  2  0
 12  7  1  0
 18 13  1  0
 29 19  1  0
 28 22  1  0
  3 30  1  0
  4 31  1  0
  4 32  1  0
  8 33  1  0
  8 34  1  0
  9 35  1  6
 10 36  1  0
 11 37  1  0
 11 38  1  0
 12 39  1  6
 13 40  1  0
 14 41  1  0
 14 42  1  0
 15 43  1  0
 15 44  1  0
 16 45  1  0
 16 46  1  0
 17 47  1  0
 17 48  1  0
 18 49  1  0
 18 50  1  0
 20 51  1  0
 21 52  1  0
 23 53  1  0
 26 54  1  0
 27 55  1  0
M  END
>  <smiles>  (19) 
O=C(NCC(=O)N1C[C@@H](O)C[C@H]1C1CCCCC1)c1ccc2cc(F)ccc2n1

>  <score_type>  (19) 
oracle

>  <origin>  (19) 
autodockgpu

>  <m_score__min__energy>  (19) 
-8.9600000000000009

>  <m_primary>  (19) 
energy

>  <rmsd>  (19) 
7.274133630078026

>  <m_score__min__rmsd>  (19) 
7.274133630078026

>  <meeko>  (19) 
{"free_energy": -8.78, "intermolecular_energy": -10.57, "internal_energy": -1.66, "cluster_size": 12, "cluster_id": 1, "rank_in_cluster": 3}

>  <energy>  (19) 
-8.61

>  <cluster_rmsd>  (19) 
0.36

>  <cluster>  (19) 
2

$$$$

     RDKit          3D

 55 58  0  0  0  0  0  0  0  0999 V2000
  139.9360   73.5480  222.5230 O   0  0  0  0  0  0  0  0  0  0  0  0
  140.0260   72.3040  222.3680 C   0  0  0  0  0  0  0  0  0  0  0  0
  140.1160   71.7450  221.0670 N   0  0  0  0  0  0  0  0  0  0  0  0
  140.1070   72.6000  219.8700 C   0  0  0  0  0  0  0  0  0  0  0  0
  141.4540   72.7600  219.3280 C   0  0  0  0  0  0  0  0  0  0  0  0
  141.6180   72.3330  218.1240 O   0  0  0  0  0  0  0  0  0  0  0  0
  142.6060   73.3060  219.9190 N   0  0  0  0  0  0  0  0  0  0  0  0
  143.8160   72.3970  219.9640 C   0  0  0  0  0  0  0  0  0  0  0  0
  144.9910   73.3080  220.1680 C   0  0  1  0  0  0  0  0  0  0  0  0
  146.0590   72.9840  219.3330 O   0  0  0  0  0  0  0  0  0  0  0  0
  144.4400   74.6830  219.8680 C   0  0  0  0  0  0  0  0  0  0  0  0
  143.0360   74.4900  220.5260 C   0  0  1  0  0  0  0  0  0  0  0  0
  142.2880   75.7550  220.4390 C   0  0  0  0  0  0  0  0  0  0  0  0
  142.1580   76.3850  219.0870 C   0  0  0  0  0  0  0  0  0  0  0  0
  140.9160   77.2850  219.1840 C   0  0  0  0  0  0  0  0  0  0  0  0
  141.0200   78.0500  220.4770 C   0  0  0  0  0  0  0  0  0  0  0  0
  140.8580   77.2270  221.7130 C   0  0  0  0  0  0  0  0  0  0  0  0
  141.0450   75.7580  221.2570 C   0  0  0  0  0  0  0  0  0  0  0  0
  140.0380   71.4110  223.5450 C   0  0  0  0  0  0  0  0  0  0  0  0
  139.5270   70.1370  223.4240 C   0  0  0  0  0  0  0  0  0  0  0  0
  139.5400   69.3080  224.5250 C   0  0  0  0  0  0  0  0  0  0  0  0
  140.0490   69.7250  225.7330 C   0  0  0  0  0  0  0  0  0  0  0  0
  140.0620   68.8950  226.8350 C   0  0  0  0  0  0  0  0  0  0  0  0
  140.5800   69.3400  228.0370 C   0  0  0  0  0  0  0  0  0  0  0  0
  140.5770   68.5020  229.0960 F   0  0  0  0  0  0  0  0  0  0  0  0
  141.0760   70.6230  228.0940 C   0  0  0  0  0  0  0  0  0  0  0  0
  141.0680   71.4700  226.9880 C   0  0  0  0  0  0  0  0  0  0  0  0
  140.5450   71.0240  225.7720 C   0  0  0  0  0  0  0  0  0  0  0  0
  140.5440   71.8440  224.7230 N   0  0  0  0  0  0  0  0  0  0  0  0
  140.1880   70.7060  221.0080 H   0  0  0  0  0  0  0  0  0  0  0  0
  139.4641   72.1402  219.1049 H   0  0  0  0  0  0  0  0  0  0  0  0
  139.7237   73.5918  220.1519 H   0  0  0  0  0  0  0  0  0  0  0  0
  143.7317   71.6849  220.7981 H   0  0  0  0  0  0  0  0  0  0  0  0
  143.9148   71.8014  219.0445 H   0  0  0  0  0  0  0  0  0  0  0  0
  145.4059   73.2315  221.1839 H   0  0  0  0  0  0  0  0  0  0  0  0
  146.3470   73.8180  218.8940 H   0  0  0  0  0  0  0  0  0  0  0  0
  145.0222   75.4816  220.3509 H   0  0  0  0  0  0  0  0  0  0  0  0
  144.4447   74.9896  218.8116 H   0  0  0  0  0  0  0  0  0  0  0  0
  142.9377   74.3288  221.6097 H   0  0  0  0  0  0  0  0  0  0  0  0
  142.9681   76.4719  220.9222 H   0  0  0  0  0  0  0  0  0  0  0  0
  143.0509   76.9828  218.8518 H   0  0  0  0  0  0  0  0  0  0  0  0
  142.0621   75.6338  218.2892 H   0  0  0  0  0  0  0  0  0  0  0  0
  140.8892   77.9830  218.3343 H   0  0  0  0  0  0  0  0  0  0  0  0
  139.9953   76.6837  219.1592 H   0  0  0  0  0  0  0  0  0  0  0  0
  142.0105   78.5271  220.5123 H   0  0  0  0  0  0  0  0  0  0  0  0
  140.1880   78.7695  220.4759 H   0  0  0  0  0  0  0  0  0  0  0  0
  141.6198   77.4984  222.4586 H   0  0  0  0  0  0  0  0  0  0  0  0
  139.8775   77.3870  222.1852 H   0  0  0  0  0  0  0  0  0  0  0  0
  141.1556   75.0955  222.1281 H   0  0  0  0  0  0  0  0  0  0  0  0
  140.1783   75.3926  220.6867 H   0  0  0  0  0  0  0  0  0  0  0  0
  139.1159   69.7877  222.4654 H   0  0  0  0  0  0  0  0  0  0  0  0
  139.1340   68.2896  224.4357 H   0  0  0  0  0  0  0  0  0  0  0  0
  139.6584   67.8747  226.7569 H   0  0  0  0  0  0  0  0  0  0  0  0
  141.4920   70.9912  229.0434 H   0  0  0  0  0  0  0  0  0  0  0  0
  141.4732   72.4892  227.0722 H   0  0  0  0  0  0  0  0  0  0  0  0
  1  2  2  0
  2  3  1  0
  3  4  1  0
  4  5  1  0
  5  6  2  0
  5  7  1  0
  7  8  1  0
  8  9  1  0
  9 10  1  0
  9 11  1  0
 11 12  1  0
 12 13  1  0
 13 14  1  0
 14 15  1  0
 15 16  1  0
 16 17  1  0
 17 18  1  0
  2 19  1  0
 19 20  2  0
 20 21  1  0
 21 22  2  0
 22 23  1  0
 23 24  2  0
 24 25  1  0
 24 26  1  0
 26 27  2  0
 27 28  1  0
 28 29  2  0
 12  7  1  0
 18 13  1  0
 29 19  1  0
 28 22  1  0
  3 30  1  0
  4 31  1  0
  4 32  1  0
  8 33  1  0
  8 34  1  0
  9 35  1  1
 10 36  1  0
 11 37  1  0
 11 38  1  0
 12 39  1  1
 13 40  1  0
 14 41  1  0
 14 42  1  0
 15 43  1  0
 15 44  1  0
 16 45  1  0
 16 46  1  0
 17 47  1  0
 17 48  1  0
 18 49  1  0
 18 50  1  0
 20 51  1  0
 21 52  1  0
 23 53  1  0
 26 54  1  0
 27 55  1  0
M  END
>  <smiles>  (20) 
O=C(NCC(=O)N1C[C@@H](O)C[C@H]1C1CCCCC1)c1ccc2cc(F)ccc2n1

>  <score_type>  (20) 
oracle

>  <origin>  (20) 
autodockgpu

>  <m_score__min__energy>  (20) 
-8.9600000000000009

>  <m_primary>  (20) 
energy

>  <rmsd>  (20) 
3.2350915164560616

>  <m_score__min__rmsd>  (20) 
3.2350915164560616

>  <meeko>  (20) 
{"free_energy": -8.33, "intermolecular_energy": -10.12, "internal_energy": -1.57, "cluster_size": 7, "cluster_id": 3, "rank_in_cluster": 4}

>  <energy>  (20) 
-8.59

>  <cluster_rmsd>  (20) 
0.36

>  <cluster>  (20) 
2

$$$$

     RDKit          3D

 55 58  0  0  0  0  0  0  0  0999 V2000
  140.6260   71.8100  221.1430 O   0  0  0  0  0  0  0  0  0  0  0  0
  140.2290   72.3060  222.2280 C   0  0  0  0  0  0  0  0  0  0  0  0
  139.9060   73.6850  222.3140 N   0  0  0  0  0  0  0  0  0  0  0  0
  140.0270   74.5680  221.1440 C   0  0  0  0  0  0  0  0  0  0  0  0
  140.6240   75.8500  221.5120 C   0  0  0  0  0  0  0  0  0  0  0  0
  140.4240   76.2220  222.7280 O   0  0  0  0  0  0  0  0  0  0  0  0
  141.3850   76.7450  220.7410 N   0  0  0  0  0  0  0  0  0  0  0  0
  141.7810   76.2530  219.3640 C   0  0  0  0  0  0  0  0  0  0  0  0
  142.1310   77.4880  218.5860 C   0  0  1  0  0  0  0  0  0  0  0  0
  141.5810   77.4770  217.3060 O   0  0  0  0  0  0  0  0  0  0  0  0
  141.5780   78.6150  219.4270 C   0  0  0  0  0  0  0  0  0  0  0  0
  141.9400   78.0240  220.8270 C   0  0  1  0  0  0  0  0  0  0  0  0
  141.5640   78.9950  221.8690 C   0  0  0  0  0  0  0  0  0  0  0  0
  142.5740   80.0380  222.2330 C   0  0  0  0  0  0  0  0  0  0  0  0
  141.7560   81.1870  222.8460 C   0  0  0  0  0  0  0  0  0  0  0  0
  140.7780   80.5720  223.8090 C   0  0  0  0  0  0  0  0  0  0  0  0
  139.6880   79.7690  223.1780 C   0  0  0  0  0  0  0  0  0  0  0  0
  140.1680   79.4900  221.7310 C   0  0  0  0  0  0  0  0  0  0  0  0
  140.0950   71.4520  223.4260 C   0  0  0  0  0  0  0  0  0  0  0  0
  139.5180   70.2070  223.3000 C   0  0  0  0  0  0  0  0  0  0  0  0
  139.3950   69.4140  224.4210 C   0  0  0  0  0  0  0  0  0  0  0  0
  139.8350   69.8400  225.6540 C   0  0  0  0  0  0  0  0  0  0  0  0
  139.7110   69.0470  226.7760 C   0  0  0  0  0  0  0  0  0  0  0  0
  140.1620   69.4990  228.0030 C   0  0  0  0  0  0  0  0  0  0  0  0
  140.0260   68.6980  229.0810 F   0  0  0  0  0  0  0  0  0  0  0  0
  140.7300   70.7520  228.0630 C   0  0  0  0  0  0  0  0  0  0  0  0
  140.8590   71.5610  226.9360 C   0  0  0  0  0  0  0  0  0  0  0  0
  140.4050   71.1080  225.6960 C   0  0  0  0  0  0  0  0  0  0  0  0
  140.5350   71.8920  224.6280 N   0  0  0  0  0  0  0  0  0  0  0  0
  139.5830   74.0330  223.2430 H   0  0  0  0  0  0  0  0  0  0  0  0
  140.6612   74.0797  220.3895 H   0  0  0  0  0  0  0  0  0  0  0  0
  139.0205   74.7541  220.7411 H   0  0  0  0  0  0  0  0  0  0  0  0
  142.6492   75.5807  219.4303 H   0  0  0  0  0  0  0  0  0  0  0  0
  140.9718   75.6826  218.8846 H   0  0  0  0  0  0  0  0  0  0  0  0
  143.2138   77.5804  218.4159 H   0  0  0  0  0  0  0  0  0  0  0  0
  142.2450   77.8810  216.7020 H   0  0  0  0  0  0  0  0  0  0  0  0
  142.0863   79.5708  219.2322 H   0  0  0  0  0  0  0  0  0  0  0  0
  140.5203   78.8697  219.2648 H   0  0  0  0  0  0  0  0  0  0  0  0
  142.9892   77.8794  221.1241 H   0  0  0  0  0  0  0  0  0  0  0  0
  141.5778   78.3859  222.7849 H   0  0  0  0  0  0  0  0  0  0  0  0
  143.2927   79.6414  222.9653 H   0  0  0  0  0  0  0  0  0  0  0  0
  143.1606   80.3669  221.3625 H   0  0  0  0  0  0  0  0  0  0  0  0
  142.4223   81.8821  223.3779 H   0  0  0  0  0  0  0  0  0  0  0  0
  141.2298   81.7528  222.0631 H   0  0  0  0  0  0  0  0  0  0  0  0
  141.3377   79.9124  224.4885 H   0  0  0  0  0  0  0  0  0  0  0  0
  140.2837   81.4106  224.3214 H   0  0  0  0  0  0  0  0  0  0  0  0
  139.5402   78.8252  223.7232 H   0  0  0  0  0  0  0  0  0  0  0  0
  138.7255   80.3012  223.1945 H   0  0  0  0  0  0  0  0  0  0  0  0
  139.5341   78.7273  221.2551 H   0  0  0  0  0  0  0  0  0  0  0  0
  140.1123   80.3892  221.0999 H   0  0  0  0  0  0  0  0  0  0  0  0
  139.1617   69.8520  222.3218 H   0  0  0  0  0  0  0  0  0  0  0  0
  138.9352   68.4190  224.3282 H   0  0  0  0  0  0  0  0  0  0  0  0
  139.2515   68.0509  226.6945 H   0  0  0  0  0  0  0  0  0  0  0  0
  141.0934   71.1261  229.0315 H   0  0  0  0  0  0  0  0  0  0  0  0
  141.3185   72.5566  227.0233 H   0  0  0  0  0  0  0  0  0  0  0  0
  1  2  2  0
  2  3  1  0
  3  4  1  0
  4  5  1  0
  5  6  2  0
  5  7  1  0
  7  8  1  0
  8  9  1  0
  9 10  1  0
  9 11  1  0
 11 12  1  0
 12 13  1  0
 13 14  1  0
 14 15  1  0
 15 16  1  0
 16 17  1  0
 17 18  1  0
  2 19  1  0
 19 20  2  0
 20 21  1  0
 21 22  2  0
 22 23  1  0
 23 24  2  0
 24 25  1  0
 24 26  1  0
 26 27  2  0
 27 28  1  0
 28 29  2  0
 12  7  1  0
 18 13  1  0
 29 19  1  0
 28 22  1  0
  3 30  1  0
  4 31  1  0
  4 32  1  0
  8 33  1  0
  8 34  1  0
  9 35  1  6
 10 36  1  0
 11 37  1  0
 11 38  1  0
 12 39  1  6
 13 40  1  0
 14 41  1  0
 14 42  1  0
 15 43  1  0
 15 44  1  0
 16 45  1  0
 16 46  1  0
 17 47  1  0
 17 48  1  0
 18 49  1  0
 18 50  1  0
 20 51  1  0
 21 52  1  0
 23 53  1  0
 26 54  1  0
 27 55  1  0
M  END
>  <smiles>  (21) 
O=C(NCC(=O)N1C[C@@H](O)C[C@H]1C1CCCCC1)c1ccc2cc(F)ccc2n1

>  <score_type>  (21) 
oracle

>  <origin>  (21) 
autodockgpu

>  <m_score__min__energy>  (21) 
-8.9600000000000009

>  <m_primary>  (21) 
energy

>  <rmsd>  (21) 
1.8626684131754347

>  <m_score__min__rmsd>  (21) 
1.8626684131754347

>  <meeko>  (21) 
{"free_energy": -8.26, "intermolecular_energy": -10.05, "internal_energy": -1.73, "cluster_size": 25, "cluster_id": 2, "rank_in_cluster": 19}

>  <energy>  (21) 
-8.56

>  <cluster_rmsd>  (21) 
0.55

>  <cluster>  (21) 
2

$$$$

     RDKit          3D

 55 58  0  0  0  0  0  0  0  0999 V2000
  138.6630   72.4250  222.3550 O   0  0  0  0  0  0  0  0  0  0  0  0
  139.3730   71.3940  222.4670 C   0  0  0  0  0  0  0  0  0  0  0  0
  139.7620   70.6580  221.3160 N   0  0  0  0  0  0  0  0  0  0  0  0
  139.3460   71.0800  219.9700 C   0  0  0  0  0  0  0  0  0  0  0  0
  140.2530   72.0910  219.4320 C   0  0  0  0  0  0  0  0  0  0  0  0
  140.8360   71.7770  218.3280 O   0  0  0  0  0  0  0  0  0  0  0  0
  140.5910   73.3580  219.9360 N   0  0  0  0  0  0  0  0  0  0  0  0
  139.4310   74.2080  220.4100 C   0  0  0  0  0  0  0  0  0  0  0  0
  140.0370   75.2430  221.3110 C   0  0  1  0  0  0  0  0  0  0  0  0
  139.3050   75.4130  222.4840 O   0  0  0  0  0  0  0  0  0  0  0  0
  141.4260   74.7160  221.5860 C   0  0  0  0  0  0  0  0  0  0  0  0
  141.7190   74.1540  220.1590 C   0  0  1  0  0  0  0  0  0  0  0  0
  143.0930   73.6260  220.1240 C   0  0  0  0  0  0  0  0  0  0  0  0
  144.2100   74.6010  220.3330 C   0  0  0  0  0  0  0  0  0  0  0  0
  145.3950   73.7520  220.8190 C   0  0  0  0  0  0  0  0  0  0  0  0
  145.4730   72.5440  219.9260 C   0  0  0  0  0  0  0  0  0  0  0  0
  144.3540   71.5660  220.0850 C   0  0  0  0  0  0  0  0  0  0  0  0
  143.2430   72.3340  220.8450 C   0  0  0  0  0  0  0  0  0  0  0  0
  139.8110   70.9380  223.8020 C   0  0  0  0  0  0  0  0  0  0  0  0
  140.3830   71.8470  224.6660 C   0  0  0  0  0  0  0  0  0  0  0  0
  140.7890   71.4170  225.9110 C   0  0  0  0  0  0  0  0  0  0  0  0
  140.6360   70.1060  226.3030 C   0  0  0  0  0  0  0  0  0  0  0  0
  141.0440   69.6760  227.5490 C   0  0  0  0  0  0  0  0  0  0  0  0
  140.8780   68.3530  227.9190 C   0  0  0  0  0  0  0  0  0  0  0  0
  141.2870   67.9650  229.1450 F   0  0  0  0  0  0  0  0  0  0  0  0
  140.2990   67.4950  227.0110 C   0  0  0  0  0  0  0  0  0  0  0  0
  139.8850   67.9190  225.7500 C   0  0  0  0  0  0  0  0  0  0  0  0
  140.0510   69.2530  225.3740 C   0  0  0  0  0  0  0  0  0  0  0  0
  139.6490   69.6440  224.1660 N   0  0  0  0  0  0  0  0  0  0  0  0
  140.3500   69.8140  221.4780 H   0  0  0  0  0  0  0  0  0  0  0  0
  139.3467   70.2053  219.3030 H   0  0  0  0  0  0  0  0  0  0  0  0
  138.3378   71.5149  220.0362 H   0  0  0  0  0  0  0  0  0  0  0  0
  138.9307   74.6871  219.5555 H   0  0  0  0  0  0  0  0  0  0  0  0
  138.6701   73.6078  220.9304 H   0  0  0  0  0  0  0  0  0  0  0  0
  140.0480   76.2416  220.8498 H   0  0  0  0  0  0  0  0  0  0  0  0
  138.9750   74.5240  222.7520 H   0  0  0  0  0  0  0  0  0  0  0  0
  142.1268   75.5136  221.8737 H   0  0  0  0  0  0  0  0  0  0  0  0
  141.5204   74.0035  222.4187 H   0  0  0  0  0  0  0  0  0  0  0  0
  141.7914   74.8275  219.2923 H   0  0  0  0  0  0  0  0  0  0  0  0
  143.2350   73.3942  219.0581 H   0  0  0  0  0  0  0  0  0  0  0  0
  144.4601   75.1099  219.3904 H   0  0  0  0  0  0  0  0  0  0  0  0
  143.9421   75.3870  221.0544 H   0  0  0  0  0  0  0  0  0  0  0  0
  146.3272   74.3320  220.7506 H   0  0  0  0  0  0  0  0  0  0  0  0
  145.2567   73.4532  221.8686 H   0  0  0  0  0  0  0  0  0  0  0  0
  145.4767   72.8912  218.8822 H   0  0  0  0  0  0  0  0  0  0  0  0
  146.3907   72.0094  220.2124 H   0  0  0  0  0  0  0  0  0  0  0  0
  143.9894   71.2347  219.1015 H   0  0  0  0  0  0  0  0  0  0  0  0
  144.6726   70.6636  220.6274 H   0  0  0  0  0  0  0  0  0  0  0  0
  142.2997   71.7687  220.8223 H   0  0  0  0  0  0  0  0  0  0  0  0
  143.4999   72.4836  221.9041 H   0  0  0  0  0  0  0  0  0  0  0  0
  140.5132   72.8976  224.3670 H   0  0  0  0  0  0  0  0  0  0  0  0
  141.2452   72.1368  226.6065 H   0  0  0  0  0  0  0  0  0  0  0  0
  141.5030   70.3877  228.2510 H   0  0  0  0  0  0  0  0  0  0  0  0
  140.1587   66.4403  227.2903 H   0  0  0  0  0  0  0  0  0  0  0  0
  139.4277   67.2030  225.0513 H   0  0  0  0  0  0  0  0  0  0  0  0
  1  2  2  0
  2  3  1  0
  3  4  1  0
  4  5  1  0
  5  6  2  0
  5  7  1  0
  7  8  1  0
  8  9  1  0
  9 10  1  0
  9 11  1  0
 11 12  1  0
 12 13  1  0
 13 14  1  0
 14 15  1  0
 15 16  1  0
 16 17  1  0
 17 18  1  0
  2 19  1  0
 19 20  2  0
 20 21  1  0
 21 22  2  0
 22 23  1  0
 23 24  2  0
 24 25  1  0
 24 26  1  0
 26 27  2  0
 27 28  1  0
 28 29  2  0
 12  7  1  0
 18 13  1  0
 29 19  1  0
 28 22  1  0
  3 30  1  0
  4 31  1  0
  4 32  1  0
  8 33  1  0
  8 34  1  0
  9 35  1  6
 10 36  1  0
 11 37  1  0
 11 38  1  0
 12 39  1  6
 13 40  1  0
 14 41  1  0
 14 42  1  0
 15 43  1  0
 15 44  1  0
 16 45  1  0
 16 46  1  0
 17 47  1  0
 17 48  1  0
 18 49  1  0
 18 50  1  0
 20 51  1  0
 21 52  1  0
 23 53  1  0
 26 54  1  0
 27 55  1  0
M  END
>  <smiles>  (22) 
O=C(NCC(=O)N1C[C@@H](O)C[C@H]1C1CCCCC1)c1ccc2cc(F)ccc2n1

>  <score_type>  (22) 
oracle

>  <origin>  (22) 
autodockgpu

>  <m_score__min__energy>  (22) 
-8.9600000000000009

>  <m_primary>  (22) 
energy

>  <rmsd>  (22) 
3.3850997415546513

>  <m_score__min__rmsd>  (22) 
3.3850997415546513

>  <meeko>  (22) 
{"free_energy": -7.35, "intermolecular_energy": -9.14, "internal_energy": -2.6, "cluster_size": 7, "cluster_id": 3, "rank_in_cluster": 7}

>  <energy>  (22) 
-8.53

>  <cluster_rmsd>  (22) 
1.77

>  <cluster>  (22) 
2

$$$$

     RDKit          3D

 55 58  0  0  0  0  0  0  0  0999 V2000
  136.6370   72.9730  223.1270 O   0  0  0  0  0  0  0  0  0  0  0  0
  135.7530   72.6540  223.9620 C   0  0  0  0  0  0  0  0  0  0  0  0
  135.4140   71.2910  224.1670 N   0  0  0  0  0  0  0  0  0  0  0  0
  136.0840   70.2200  223.4130 C   0  0  0  0  0  0  0  0  0  0  0  0
  137.3490   69.8470  224.0410 C   0  0  0  0  0  0  0  0  0  0  0  0
  137.2770   68.8910  224.8990 O   0  0  0  0  0  0  0  0  0  0  0  0
  138.6380   70.3750  223.8550 N   0  0  0  0  0  0  0  0  0  0  0  0
  138.8200   71.2510  222.6340 C   0  0  0  0  0  0  0  0  0  0  0  0
  140.0580   72.0550  222.9010 C   0  0  1  0  0  0  0  0  0  0  0  0
  139.8940   73.3990  222.5730 O   0  0  0  0  0  0  0  0  0  0  0  0
  140.3030   71.8630  224.3790 C   0  0  0  0  0  0  0  0  0  0  0  0
  139.8980   70.3570  224.4620 C   0  0  1  0  0  0  0  0  0  0  0  0
  140.1210   69.8740  225.8350 C   0  0  0  0  0  0  0  0  0  0  0  0
  140.2850   68.3980  226.0260 C   0  0  0  0  0  0  0  0  0  0  0  0
  141.0520   68.2500  227.3490 C   0  0  0  0  0  0  0  0  0  0  0  0
  140.4030   69.1730  228.3450 C   0  0  0  0  0  0  0  0  0  0  0  0
  140.5990   70.6300  228.0780 C   0  0  0  0  0  0  0  0  0  0  0  0
  141.0730   70.7180  226.6050 C   0  0  0  0  0  0  0  0  0  0  0  0
  135.0570   73.7000  224.7380 C   0  0  0  0  0  0  0  0  0  0  0  0
  135.4320   75.0160  224.5760 C   0  0  0  0  0  0  0  0  0  0  0  0
  134.7790   75.9890  225.3030 C   0  0  0  0  0  0  0  0  0  0  0  0
  133.7680   75.6720  226.1810 C   0  0  0  0  0  0  0  0  0  0  0  0
  133.1150   76.6460  226.9090 C   0  0  0  0  0  0  0  0  0  0  0  0
  132.1020   76.3000  227.7840 C   0  0  0  0  0  0  0  0  0  0  0  0
  131.4840   77.2770  228.4810 F   0  0  0  0  0  0  0  0  0  0  0  0
  131.7740   74.9680  227.9020 C   0  0  0  0  0  0  0  0  0  0  0  0
  132.4270   73.9770  227.1720 C   0  0  0  0  0  0  0  0  0  0  0  0
  133.4500   74.3220  226.2870 C   0  0  0  0  0  0  0  0  0  0  0  0
  134.0650   73.3640  225.5960 N   0  0  0  0  0  0  0  0  0  0  0  0
  134.6730   71.0940  224.8730 H   0  0  0  0  0  0  0  0  0  0  0  0
  135.4263   69.3390  223.3789 H   0  0  0  0  0  0  0  0  0  0  0  0
  136.2929   70.5860  222.3969 H   0  0  0  0  0  0  0  0  0  0  0  0
  138.9492   70.6333  221.7330 H   0  0  0  0  0  0  0  0  0  0  0  0
  137.9450   71.8939  222.4579 H   0  0  0  0  0  0  0  0  0  0  0  0
  140.9084   71.7264  222.2855 H   0  0  0  0  0  0  0  0  0  0  0  0
  138.9470   73.6220  222.7270 H   0  0  0  0  0  0  0  0  0  0  0  0
  141.3552   72.0289  224.6536 H   0  0  0  0  0  0  0  0  0  0  0  0
  139.7689   72.5482  225.0537 H   0  0  0  0  0  0  0  0  0  0  0  0
  140.4793   69.5869  223.9337 H   0  0  0  0  0  0  0  0  0  0  0  0
  139.1383   70.0222  226.3066 H   0  0  0  0  0  0  0  0  0  0  0  0
  139.3036   67.9054  226.0910 H   0  0  0  0  0  0  0  0  0  0  0  0
  140.8179   67.9297  225.1853 H   0  0  0  0  0  0  0  0  0  0  0  0
  140.9934   67.2107  227.7044 H   0  0  0  0  0  0  0  0  0  0  0  0
  142.1139   68.5040  227.2154 H   0  0  0  0  0  0  0  0  0  0  0  0
  139.3221   68.9687  228.3454 H   0  0  0  0  0  0  0  0  0  0  0  0
  140.8866   68.9703  229.3119 H   0  0  0  0  0  0  0  0  0  0  0  0
  139.6537   71.1764  228.2115 H   0  0  0  0  0  0  0  0  0  0  0  0
  141.3273   71.0784  228.7697 H   0  0  0  0  0  0  0  0  0  0  0  0
  141.0386   71.7588  226.2507 H   0  0  0  0  0  0  0  0  0  0  0  0
  142.1118   70.3759  226.4875 H   0  0  0  0  0  0  0  0  0  0  0  0
  136.2387   75.2859  223.8785 H   0  0  0  0  0  0  0  0  0  0  0  0
  135.0728   77.0417  225.1783 H   0  0  0  0  0  0  0  0  0  0  0  0
  133.4017   77.7016  226.7926 H   0  0  0  0  0  0  0  0  0  0  0  0
  130.9707   74.6769  228.5948 H   0  0  0  0  0  0  0  0  0  0  0  0
  132.1365   72.9230  227.2930 H   0  0  0  0  0  0  0  0  0  0  0  0
  1  2  2  0
  2  3  1  0
  3  4  1  0
  4  5  1  0
  5  6  2  0
  5  7  1  0
  7  8  1  0
  8  9  1  0
  9 10  1  0
  9 11  1  0
 11 12  1  0
 12 13  1  0
 13 14  1  0
 14 15  1  0
 15 16  1  0
 16 17  1  0
 17 18  1  0
  2 19  1  0
 19 20  2  0
 20 21  1  0
 21 22  2  0
 22 23  1  0
 23 24  2  0
 24 25  1  0
 24 26  1  0
 26 27  2  0
 27 28  1  0
 28 29  2  0
 12  7  1  0
 18 13  1  0
 29 19  1  0
 28 22  1  0
  3 30  1  0
  4 31  1  0
  4 32  1  0
  8 33  1  0
  8 34  1  0
  9 35  1  6
 10 36  1  0
 11 37  1  0
 11 38  1  0
 12 39  1  6
 13 40  1  0
 14 41  1  0
 14 42  1  0
 15 43  1  0
 15 44  1  0
 16 45  1  0
 16 46  1  0
 17 47  1  0
 17 48  1  0
 18 49  1  0
 18 50  1  0
 20 51  1  0
 21 52  1  0
 23 53  1  0
 26 54  1  0
 27 55  1  0
M  END
>  <smiles>  (23) 
O=C(NCC(=O)N1C[C@@H](O)C[C@H]1C1CCCCC1)c1ccc2cc(F)ccc2n1

>  <score_type>  (23) 
oracle

>  <origin>  (23) 
autodockgpu

>  <m_score__min__energy>  (23) 
-8.9600000000000009

>  <m_primary>  (23) 
energy

>  <rmsd>  (23) 
7.842946049529757

>  <m_score__min__rmsd>  (23) 
7.842946049529757

>  <meeko>  (23) 
{"free_energy": -8.4, "intermolecular_energy": -10.19, "internal_energy": -2.19, "cluster_size": 12, "cluster_id": 1, "rank_in_cluster": 5}

>  <energy>  (23) 
-8.52

>  <cluster_rmsd>  (23) 
1.73

>  <cluster>  (23) 
2

$$$$

     RDKit          3D

 55 58  0  0  0  0  0  0  0  0999 V2000
  139.8800   70.5600  221.2010 O   0  0  0  0  0  0  0  0  0  0  0  0
  139.8790   71.2040  222.2800 C   0  0  0  0  0  0  0  0  0  0  0  0
  139.9040   72.6240  222.2720 N   0  0  0  0  0  0  0  0  0  0  0  0
  139.9320   73.3760  221.0080 C   0  0  0  0  0  0  0  0  0  0  0  0
  140.7080   74.6060  221.1450 C   0  0  0  0  0  0  0  0  0  0  0  0
  140.6960   75.1370  222.3180 O   0  0  0  0  0  0  0  0  0  0  0  0
  141.4680   75.3040  220.1910 N   0  0  0  0  0  0  0  0  0  0  0  0
  140.9340   76.6640  219.7940 C   0  0  0  0  0  0  0  0  0  0  0  0
  142.0990   77.3870  219.1840 C   0  0  1  0  0  0  0  0  0  0  0  0
  142.2010   78.6990  219.6410 O   0  0  0  0  0  0  0  0  0  0  0  0
  143.2940   76.5550  219.5900 C   0  0  0  0  0  0  0  0  0  0  0  0
  142.6310   75.1500  219.4310 C   0  0  1  0  0  0  0  0  0  0  0  0
  143.6370   74.1110  219.7040 C   0  0  0  0  0  0  0  0  0  0  0  0
  144.8400   74.5120  220.5010 C   0  0  0  0  0  0  0  0  0  0  0  0
  145.3700   73.2030  221.1080 C   0  0  0  0  0  0  0  0  0  0  0  0
  145.3780   72.1740  220.0100 C   0  0  0  0  0  0  0  0  0  0  0  0
  144.0270   71.7330  219.5470 C   0  0  0  0  0  0  0  0  0  0  0  0
  143.0400   72.8020  220.0810 C   0  0  0  0  0  0  0  0  0  0  0  0
  139.8520   70.4860  223.5700 C   0  0  0  0  0  0  0  0  0  0  0  0
  139.2360   69.2550  223.6390 C   0  0  0  0  0  0  0  0  0  0  0  0
  139.2130   68.5890  224.8450 C   0  0  0  0  0  0  0  0  0  0  0  0
  139.7900   69.1260  225.9740 C   0  0  0  0  0  0  0  0  0  0  0  0
  139.7680   68.4580  227.1810 C   0  0  0  0  0  0  0  0  0  0  0  0
  140.3560   69.0200  228.3000 C   0  0  0  0  0  0  0  0  0  0  0  0
  140.3150   68.3410  229.4650 F   0  0  0  0  0  0  0  0  0  0  0  0
  140.9560   70.2520  228.1660 C   0  0  0  0  0  0  0  0  0  0  0  0
  140.9840   70.9340  226.9520 C   0  0  0  0  0  0  0  0  0  0  0  0
  140.3920   70.3700  225.8210 C   0  0  0  0  0  0  0  0  0  0  0  0
  140.4270   71.0340  224.6660 N   0  0  0  0  0  0  0  0  0  0  0  0
  139.9020   73.0970  223.2010 H   0  0  0  0  0  0  0  0  0  0  0  0
  140.3872   72.7492  220.2270 H   0  0  0  0  0  0  0  0  0  0  0  0
  138.8997   73.6425  220.7370 H   0  0  0  0  0  0  0  0  0  0  0  0
  140.1199   76.5591  219.0617 H   0  0  0  0  0  0  0  0  0  0  0  0
  140.5203   77.2085  220.6556 H   0  0  0  0  0  0  0  0  0  0  0  0
  142.0039   77.4853  218.0925 H   0  0  0  0  0  0  0  0  0  0  0  0
  142.9210   78.7170  220.3120 H   0  0  0  0  0  0  0  0  0  0  0  0
  144.1495   76.6930  218.9124 H   0  0  0  0  0  0  0  0  0  0  0  0
  143.7306   76.7784  220.5746 H   0  0  0  0  0  0  0  0  0  0  0  0
  142.3034   74.7894  218.4448 H   0  0  0  0  0  0  0  0  0  0  0  0
  144.0998   73.9573  218.7180 H   0  0  0  0  0  0  0  0  0  0  0  0
  145.5989   74.9716  219.8507 H   0  0  0  0  0  0  0  0  0  0  0  0
  144.5946   75.2558  221.2734 H   0  0  0  0  0  0  0  0  0  0  0  0
  146.3898   73.3517  221.4925 H   0  0  0  0  0  0  0  0  0  0  0  0
  144.7355   72.8758  221.9449 H   0  0  0  0  0  0  0  0  0  0  0  0
  145.9121   72.5995  219.1476 H   0  0  0  0  0  0  0  0  0  0  0  0
  145.8656   71.2814  220.4290 H   0  0  0  0  0  0  0  0  0  0  0  0
  143.9914   71.6909  218.4484 H   0  0  0  0  0  0  0  0  0  0  0  0
  143.7774   70.7263  219.9133 H   0  0  0  0  0  0  0  0  0  0  0  0
  142.0513   72.6808  219.6143 H   0  0  0  0  0  0  0  0  0  0  0  0
  142.8918   72.7167  221.1676 H   0  0  0  0  0  0  0  0  0  0  0  0
  138.7706   68.8117  222.7463 H   0  0  0  0  0  0  0  0  0  0  0  0
  138.7227   67.6063  224.9073 H   0  0  0  0  0  0  0  0  0  0  0  0
  139.2809   67.4744  227.2538 H   0  0  0  0  0  0  0  0  0  0  0  0
  141.4285   70.7125  229.0462 H   0  0  0  0  0  0  0  0  0  0  0  0
  141.4727   71.9172  226.8846 H   0  0  0  0  0  0  0  0  0  0  0  0
  1  2  2  0
  2  3  1  0
  3  4  1  0
  4  5  1  0
  5  6  2  0
  5  7  1  0
  7  8  1  0
  8  9  1  0
  9 10  1  0
  9 11  1  0
 11 12  1  0
 12 13  1  0
 13 14  1  0
 14 15  1  0
 15 16  1  0
 16 17  1  0
 17 18  1  0
  2 19  1  0
 19 20  2  0
 20 21  1  0
 21 22  2  0
 22 23  1  0
 23 24  2  0
 24 25  1  0
 24 26  1  0
 26 27  2  0
 27 28  1  0
 28 29  2  0
 12  7  1  0
 18 13  1  0
 29 19  1  0
 28 22  1  0
  3 30  1  0
  4 31  1  0
  4 32  1  0
  8 33  1  0
  8 34  1  0
  9 35  1  6
 10 36  1  0
 11 37  1  0
 11 38  1  0
 12 39  1  6
 13 40  1  0
 14 41  1  0
 14 42  1  0
 15 43  1  0
 15 44  1  0
 16 45  1  0
 16 46  1  0
 17 47  1  0
 17 48  1  0
 18 49  1  0
 18 50  1  0
 20 51  1  0
 21 52  1  0
 23 53  1  0
 26 54  1  0
 27 55  1  0
M  END
>  <smiles>  (24) 
O=C(NCC(=O)N1C[C@@H](O)C[C@H]1C1CCCCC1)c1ccc2cc(F)ccc2n1

>  <score_type>  (24) 
oracle

>  <origin>  (24) 
autodockgpu

>  <m_score__min__energy>  (24) 
-8.9600000000000009

>  <m_primary>  (24) 
energy

>  <rmsd>  (24) 
1.9511612007533863

>  <m_score__min__rmsd>  (24) 
1.9511612007533863

>  <meeko>  (24) 
{"free_energy": -8.11, "intermolecular_energy": -9.9, "internal_energy": -1.99, "cluster_size": 2, "cluster_id": 4, "rank_in_cluster": 1}

>  <energy>  (24) 
-8.51

>  <cluster_rmsd>  (24) 
0.48

>  <cluster>  (24) 
2

$$$$

     RDKit          3D

 55 58  0  0  0  0  0  0  0  0999 V2000
  141.1500   72.0990  221.4000 O   0  0  0  0  0  0  0  0  0  0  0  0
  140.3540   72.3930  222.3260 C   0  0  0  0  0  0  0  0  0  0  0  0
  139.5760   73.5790  222.2590 N   0  0  0  0  0  0  0  0  0  0  0  0
  139.6810   74.4910  221.1090 C   0  0  0  0  0  0  0  0  0  0  0  0
  140.1810   75.8000  221.5210 C   0  0  0  0  0  0  0  0  0  0  0  0
  139.6310   76.2930  222.5750 O   0  0  0  0  0  0  0  0  0  0  0  0
  141.1720   76.6090  220.9410 N   0  0  0  0  0  0  0  0  0  0  0  0
  141.8010   76.0720  219.6730 C   0  0  0  0  0  0  0  0  0  0  0  0
  142.4280   77.2600  219.0050 C   0  0  1  0  0  0  0  0  0  0  0  0
  142.1630   77.2950  217.6370 O   0  0  0  0  0  0  0  0  0  0  0  0
  141.8230   78.4420  219.7250 C   0  0  0  0  0  0  0  0  0  0  0  0
  141.8200   77.8290  221.1610 C   0  0  1  0  0  0  0  0  0  0  0  0
  141.3280   78.8380  222.1140 C   0  0  0  0  0  0  0  0  0  0  0  0
  142.3310   79.4560  223.0390 C   0  0  0  0  0  0  0  0  0  0  0  0
  141.7110   80.7990  223.4590 C   0  0  0  0  0  0  0  0  0  0  0  0
  140.2730   80.5340  223.8120 C   0  0  0  0  0  0  0  0  0  0  0  0
  139.3930   80.1770  222.6590 C   0  0  0  0  0  0  0  0  0  0  0  0
  140.3590   79.7910  221.5100 C   0  0  0  0  0  0  0  0  0  0  0  0
  140.2200   71.5030  223.4980 C   0  0  0  0  0  0  0  0  0  0  0  0
  139.5910   70.2860  223.3470 C   0  0  0  0  0  0  0  0  0  0  0  0
  139.4690   69.4600  224.4430 C   0  0  0  0  0  0  0  0  0  0  0  0
  139.9600   69.8250  225.6770 C   0  0  0  0  0  0  0  0  0  0  0  0
  139.8380   68.9970  226.7740 C   0  0  0  0  0  0  0  0  0  0  0  0
  140.3400   69.3880  228.0010 C   0  0  0  0  0  0  0  0  0  0  0  0
  140.2040   68.5550  229.0550 F   0  0  0  0  0  0  0  0  0  0  0  0
  140.9590   70.6150  228.0870 C   0  0  0  0  0  0  0  0  0  0  0  0
  141.0870   71.4580  226.9860 C   0  0  0  0  0  0  0  0  0  0  0  0
  140.5810   71.0670  225.7450 C   0  0  0  0  0  0  0  0  0  0  0  0
  140.7120   71.8830  224.7010 N   0  0  0  0  0  0  0  0  0  0  0  0
  138.9350   73.7640  223.0600 H   0  0  0  0  0  0  0  0  0  0  0  0
  140.3714   74.0590  220.3695 H   0  0  0  0  0  0  0  0  0  0  0  0
  138.6795   74.6206  220.6728 H   0  0  0  0  0  0  0  0  0  0  0  0
  142.5648   75.3173  219.9120 H   0  0  0  0  0  0  0  0  0  0  0  0
  141.0598   75.5821  219.0245 H   0  0  0  0  0  0  0  0  0  0  0  0
  143.5260   77.2428  219.0698 H   0  0  0  0  0  0  0  0  0  0  0  0
  142.7350   77.9980  217.2490 H   0  0  0  0  0  0  0  0  0  0  0  0
  142.4525   79.3414  219.6553 H   0  0  0  0  0  0  0  0  0  0  0  0
  140.8539   78.7989  219.3461 H   0  0  0  0  0  0  0  0  0  0  0  0
  142.7637   77.5850  221.6709 H   0  0  0  0  0  0  0  0  0  0  0  0
  140.7501   78.2339  222.8290 H   0  0  0  0  0  0  0  0  0  0  0  0
  142.4939   78.8140  223.9172 H   0  0  0  0  0  0  0  0  0  0  0  0
  143.3115   79.5863  222.5577 H   0  0  0  0  0  0  0  0  0  0  0  0
  142.2447   81.2041  224.3314 H   0  0  0  0  0  0  0  0  0  0  0  0
  141.7839   81.5345  222.6443 H   0  0  0  0  0  0  0  0  0  0  0  0
  140.2464   79.7022  224.5313 H   0  0  0  0  0  0  0  0  0  0  0  0
  139.8784   81.4771  224.2181 H   0  0  0  0  0  0  0  0  0  0  0  0
  138.7441   79.3275  222.9183 H   0  0  0  0  0  0  0  0  0  0  0  0
  138.7312   81.0088  222.3758 H   0  0  0  0  0  0  0  0  0  0  0  0
  139.8076   79.3106  220.6883 H   0  0  0  0  0  0  0  0  0  0  0  0
  140.8619   80.6718  221.0842 H   0  0  0  0  0  0  0  0  0  0  0  0
  139.1932   69.9794  222.3683 H   0  0  0  0  0  0  0  0  0  0  0  0
  138.9682   68.4872  224.3299 H   0  0  0  0  0  0  0  0  0  0  0  0
  139.3393   68.0219  226.6716 H   0  0  0  0  0  0  0  0  0  0  0  0
  141.3653   70.9396  229.0563 H   0  0  0  0  0  0  0  0  0  0  0  0
  141.5868   72.4319  227.0941 H   0  0  0  0  0  0  0  0  0  0  0  0
  1  2  2  0
  2  3  1  0
  3  4  1  0
  4  5  1  0
  5  6  2  0
  5  7  1  0
  7  8  1  0
  8  9  1  0
  9 10  1  0
  9 11  1  0
 11 12  1  0
 12 13  1  0
 13 14  1  0
 14 15  1  0
 15 16  1  0
 16 17  1  0
 17 18  1  0
  2 19  1  0
 19 20  2  0
 20 21  1  0
 21 22  2  0
 22 23  1  0
 23 24  2  0
 24 25  1  0
 24 26  1  0
 26 27  2  0
 27 28  1  0
 28 29  2  0
 12  7  1  0
 18 13  1  0
 29 19  1  0
 28 22  1  0
  3 30  1  0
  4 31  1  0
  4 32  1  0
  8 33  1  0
  8 34  1  0
  9 35  1  6
 10 36  1  0
 11 37  1  0
 11 38  1  0
 12 39  1  1
 13 40  1  0
 14 41  1  0
 14 42  1  0
 15 43  1  0
 15 44  1  0
 16 45  1  0
 16 46  1  0
 17 47  1  0
 17 48  1  0
 18 49  1  0
 18 50  1  0
 20 51  1  0
 21 52  1  0
 23 53  1  0
 26 54  1  0
 27 55  1  0
M  END
>  <smiles>  (25) 
O=C(NCC(=O)N1C[C@@H](O)C[C@H]1C1CCCCC1)c1ccc2cc(F)ccc2n1

>  <score_type>  (25) 
oracle

>  <origin>  (25) 
autodockgpu

>  <m_score__min__energy>  (25) 
-8.9600000000000009

>  <m_primary>  (25) 
energy

>  <rmsd>  (25) 
1.9024471965489618

>  <m_score__min__rmsd>  (25) 
1.9024471965489618

>  <meeko>  (25) 
{"free_energy": -8.59, "intermolecular_energy": -10.38, "internal_energy": -1.44, "cluster_size": 25, "cluster_id": 2, "rank_in_cluster": 8}

>  <energy>  (25) 
-8.47

>  <cluster_rmsd>  (25) 
0.6

>  <cluster>  (25) 
2

$$$$

     RDKit          3D

 55 58  0  0  0  0  0  0  0  0999 V2000
  140.5620   71.6930  221.0770 O   0  0  0  0  0  0  0  0  0  0  0  0
  140.1770   72.2300  222.1470 C   0  0  0  0  0  0  0  0  0  0  0  0
  139.8840   73.6180  222.1920 N   0  0  0  0  0  0  0  0  0  0  0  0
  140.0220   74.4630  220.9950 C   0  0  0  0  0  0  0  0  0  0  0  0
  140.5140   75.7930  221.3440 C   0  0  0  0  0  0  0  0  0  0  0  0
  140.0990   76.2550  222.4710 O   0  0  0  0  0  0  0  0  0  0  0  0
  141.3720   76.6520  220.6360 N   0  0  0  0  0  0  0  0  0  0  0  0
  141.8830   76.1240  219.3120 C   0  0  0  0  0  0  0  0  0  0  0  0
  142.3430   77.3340  218.5530 C   0  0  1  0  0  0  0  0  0  0  0  0
  141.9180   77.3150  217.2260 O   0  0  0  0  0  0  0  0  0  0  0  0
  141.7460   78.4910  219.3180 C   0  0  0  0  0  0  0  0  0  0  0  0
  141.9540   77.9170  220.7550 C   0  0  1  0  0  0  0  0  0  0  0  0
  141.5080   78.9160  221.7410 C   0  0  0  0  0  0  0  0  0  0  0  0
  141.8020   78.6380  223.1830 C   0  0  0  0  0  0  0  0  0  0  0  0
  141.7780   80.0140  223.8670 C   0  0  0  0  0  0  0  0  0  0  0  0
  140.5560   80.7380  223.3680 C   0  0  0  0  0  0  0  0  0  0  0  0
  140.6060   81.1480  221.9330 C   0  0  0  0  0  0  0  0  0  0  0  0
  141.7550   80.3170  221.3070 C   0  0  0  0  0  0  0  0  0  0  0  0
  140.0280   71.4160  223.3710 C   0  0  0  0  0  0  0  0  0  0  0  0
  139.4310   70.1770  223.2820 C   0  0  0  0  0  0  0  0  0  0  0  0
  139.2930   69.4220  224.4270 C   0  0  0  0  0  0  0  0  0  0  0  0
  139.7370   69.8790  225.6470 C   0  0  0  0  0  0  0  0  0  0  0  0
  139.5990   69.1230  226.7930 C   0  0  0  0  0  0  0  0  0  0  0  0
  140.0540   69.6050  228.0060 C   0  0  0  0  0  0  0  0  0  0  0  0
  139.9030   68.8400  229.1080 F   0  0  0  0  0  0  0  0  0  0  0  0
  140.6420   70.8500  228.0280 C   0  0  0  0  0  0  0  0  0  0  0  0
  140.7860   71.6220  226.8780 C   0  0  0  0  0  0  0  0  0  0  0  0
  140.3280   71.1380  225.6510 C   0  0  0  0  0  0  0  0  0  0  0  0
  140.4720   71.8870  224.5590 N   0  0  0  0  0  0  0  0  0  0  0  0
  139.5710   74.0010  223.1090 H   0  0  0  0  0  0  0  0  0  0  0  0
  140.7307   73.9887  220.3002 H   0  0  0  0  0  0  0  0  0  0  0  0
  139.0326   74.5685  220.5260 H   0  0  0  0  0  0  0  0  0  0  0  0
  142.7201   75.4285  219.4720 H   0  0  0  0  0  0  0  0  0  0  0  0
  141.1068   75.5682  218.7655 H   0  0  0  0  0  0  0  0  0  0  0  0
  143.4395   77.3926  218.4875 H   0  0  0  0  0  0  0  0  0  0  0  0
  140.9770   77.6040  217.2190 H   0  0  0  0  0  0  0  0  0  0  0  0
  142.2989   79.4283  219.1578 H   0  0  0  0  0  0  0  0  0  0  0  0
  140.7168   78.7722  219.0504 H   0  0  0  0  0  0  0  0  0  0  0  0
  142.9655   77.7500  221.1537 H   0  0  0  0  0  0  0  0  0  0  0  0
  140.4155   78.7878  221.7385 H   0  0  0  0  0  0  0  0  0  0  0  0
  141.0341   77.9787  223.6139 H   0  0  0  0  0  0  0  0  0  0  0  0
  142.7670   78.1273  223.3166 H   0  0  0  0  0  0  0  0  0  0  0  0
  141.7237   79.8912  224.9588 H   0  0  0  0  0  0  0  0  0  0  0  0
  142.6907   80.5819  223.6338 H   0  0  0  0  0  0  0  0  0  0  0  0
  139.6882   80.0757  223.5034 H   0  0  0  0  0  0  0  0  0  0  0  0
  140.4912   81.6686  223.9510 H   0  0  0  0  0  0  0  0  0  0  0  0
  139.6518   80.9218  221.4347 H   0  0  0  0  0  0  0  0  0  0  0  0
  140.7759   82.2291  221.8222 H   0  0  0  0  0  0  0  0  0  0  0  0
  141.7301   80.3905  220.2097 H   0  0  0  0  0  0  0  0  0  0  0  0
  142.7435   80.6774  221.6279 H   0  0  0  0  0  0  0  0  0  0  0  0
  139.0710   69.7973  222.3144 H   0  0  0  0  0  0  0  0  0  0  0  0
  138.8174   68.4321  224.3643 H   0  0  0  0  0  0  0  0  0  0  0  0
  139.1246   68.1319  226.7411 H   0  0  0  0  0  0  0  0  0  0  0  0
  141.0100   71.2477  228.9853 H   0  0  0  0  0  0  0  0  0  0  0  0
  141.2604   72.6127  226.9362 H   0  0  0  0  0  0  0  0  0  0  0  0
  1  2  2  0
  2  3  1  0
  3  4  1  0
  4  5  1  0
  5  6  2  0
  5  7  1  0
  7  8  1  0
  8  9  1  0
  9 10  1  0
  9 11  1  0
 11 12  1  0
 12 13  1  0
 13 14  1  0
 14 15  1  0
 15 16  1  0
 16 17  1  0
 17 18  1  0
  2 19  1  0
 19 20  2  0
 20 21  1  0
 21 22  2  0
 22 23  1  0
 23 24  2  0
 24 25  1  0
 24 26  1  0
 26 27  2  0
 27 28  1  0
 28 29  2  0
 12  7  1  0
 18 13  1  0
 29 19  1  0
 28 22  1  0
  3 30  1  0
  4 31  1  0
  4 32  1  0
  8 33  1  0
  8 34  1  0
  9 35  1  6
 10 36  1  0
 11 37  1  0
 11 38  1  0
 12 39  1  1
 13 40  1  0
 14 41  1  0
 14 42  1  0
 15 43  1  0
 15 44  1  0
 16 45  1  0
 16 46  1  0
 17 47  1  0
 17 48  1  0
 18 49  1  0
 18 50  1  0
 20 51  1  0
 21 52  1  0
 23 53  1  0
 26 54  1  0
 27 55  1  0
M  END
>  <smiles>  (26) 
O=C(NCC(=O)N1C[C@@H](O)C[C@H]1C1CCCCC1)c1ccc2cc(F)ccc2n1

>  <score_type>  (26) 
oracle

>  <origin>  (26) 
autodockgpu

>  <m_score__min__energy>  (26) 
-8.9600000000000009

>  <m_primary>  (26) 
energy

>  <rmsd>  (26) 
1.846819851197832

>  <m_score__min__rmsd>  (26) 
1.846819851197832

>  <meeko>  (26) 
{"free_energy": -8.43, "intermolecular_energy": -10.22, "internal_energy": -1.67, "cluster_size": 25, "cluster_id": 2, "rank_in_cluster": 14}

>  <energy>  (26) 
-8.43

>  <cluster_rmsd>  (26) 
0.61

>  <cluster>  (26) 
2

$$$$

     RDKit          3D

 55 58  0  0  0  0  0  0  0  0999 V2000
  137.0780   71.9060  222.5580 O   0  0  0  0  0  0  0  0  0  0  0  0
  136.3640   71.5010  223.5090 C   0  0  0  0  0  0  0  0  0  0  0  0
  136.3070   70.1190  223.8300 N   0  0  0  0  0  0  0  0  0  0  0  0
  137.0780   69.1290  223.0620 C   0  0  0  0  0  0  0  0  0  0  0  0
  138.4330   68.9940  223.5910 C   0  0  0  0  0  0  0  0  0  0  0  0
  138.7420   67.8200  224.0190 O   0  0  0  0  0  0  0  0  0  0  0  0
  139.4550   69.9510  223.7090 N   0  0  0  0  0  0  0  0  0  0  0  0
  139.5910   70.9130  222.5480 C   0  0  0  0  0  0  0  0  0  0  0  0
  140.3640   72.0810  223.0880 C   0  0  1  0  0  0  0  0  0  0  0  0
  139.8130   73.3010  222.7000 O   0  0  0  0  0  0  0  0  0  0  0  0
  140.3100   71.8900  224.5850 C   0  0  0  0  0  0  0  0  0  0  0  0
  140.4600   70.3360  224.6010 C   0  0  1  0  0  0  0  0  0  0  0  0
  140.5160   69.8730  225.9970 C   0  0  0  0  0  0  0  0  0  0  0  0
  141.0640   70.8240  227.0160 C   0  0  0  0  0  0  0  0  0  0  0  0
  140.4810   70.3510  228.3570 C   0  0  0  0  0  0  0  0  0  0  0  0
  140.6430   68.8560  228.4110 C   0  0  0  0  0  0  0  0  0  0  0  0
  139.7840   68.0920  227.4560 C   0  0  0  0  0  0  0  0  0  0  0  0
  139.2950   69.1350  226.4190 C   0  0  0  0  0  0  0  0  0  0  0  0
  135.5740   72.4640  224.3040 C   0  0  0  0  0  0  0  0  0  0  0  0
  135.7810   73.8140  224.1180 C   0  0  0  0  0  0  0  0  0  0  0  0
  135.0420   74.7090  224.8620 C   0  0  0  0  0  0  0  0  0  0  0  0
  134.1080   74.2820  225.7790 C   0  0  0  0  0  0  0  0  0  0  0  0
  133.3680   75.1770  226.5240 C   0  0  0  0  0  0  0  0  0  0  0  0
  132.4360   74.7210  227.4380 C   0  0  0  0  0  0  0  0  0  0  0  0
  131.7290   75.6240  228.1510 F   0  0  0  0  0  0  0  0  0  0  0  0
  132.2760   73.3610  227.5760 C   0  0  0  0  0  0  0  0  0  0  0  0
  133.0180   72.4480  226.8300 C   0  0  0  0  0  0  0  0  0  0  0  0
  133.9590   72.9050  225.9060 C   0  0  0  0  0  0  0  0  0  0  0  0
  134.6610   72.0200  225.1990 N   0  0  0  0  0  0  0  0  0  0  0  0
  135.6950   69.8500  224.6300 H   0  0  0  0  0  0  0  0  0  0  0  0
  136.5707   68.1547  223.1201 H   0  0  0  0  0  0  0  0  0  0  0  0
  137.1423   69.4691  222.0179 H   0  0  0  0  0  0  0  0  0  0  0  0
  140.1370   70.4404  221.7183 H   0  0  0  0  0  0  0  0  0  0  0  0
  138.6111   71.2182  222.1521 H   0  0  0  0  0  0  0  0  0  0  0  0
  141.3941   72.1128  222.7034 H   0  0  0  0  0  0  0  0  0  0  0  0
  138.8360   73.2240  222.8040 H   0  0  0  0  0  0  0  0  0  0  0  0
  141.1393   72.3956  225.1013 H   0  0  0  0  0  0  0  0  0  0  0  0
  139.4256   72.2986  225.0959 H   0  0  0  0  0  0  0  0  0  0  0  0
  141.3827   69.8547  224.2446 H   0  0  0  0  0  0  0  0  0  0  0  0
  141.3252   69.1283  225.9714 H   0  0  0  0  0  0  0  0  0  0  0  0
  142.1629   70.7790  227.0350 H   0  0  0  0  0  0  0  0  0  0  0  0
  140.7949   71.8672  226.7939 H   0  0  0  0  0  0  0  0  0  0  0  0
  141.0251   70.8192  229.1905 H   0  0  0  0  0  0  0  0  0  0  0  0
  139.4209   70.6319  228.4423 H   0  0  0  0  0  0  0  0  0  0  0  0
  141.6940   68.6186  228.1894 H   0  0  0  0  0  0  0  0  0  0  0  0
  140.3288   68.5493  229.4196 H   0  0  0  0  0  0  0  0  0  0  0  0
  140.3673   67.3014  226.9613 H   0  0  0  0  0  0  0  0  0  0  0  0
  138.9445   67.5971  227.9662 H   0  0  0  0  0  0  0  0  0  0  0  0
  138.8313   68.6329  225.5571 H   0  0  0  0  0  0  0  0  0  0  0  0
  138.5352   69.8084  226.8423 H   0  0  0  0  0  0  0  0  0  0  0  0
  136.5230   74.1711  223.3886 H   0  0  0  0  0  0  0  0  0  0  0  0
  135.2021   75.7880  224.7199 H   0  0  0  0  0  0  0  0  0  0  0  0
  133.5201   76.2582  226.3902 H   0  0  0  0  0  0  0  0  0  0  0  0
  131.5382   72.9827  228.2989 H   0  0  0  0  0  0  0  0  0  0  0  0
  132.8624   71.3680  226.9690 H   0  0  0  0  0  0  0  0  0  0  0  0
  1  2  2  0
  2  3  1  0
  3  4  1  0
  4  5  1  0
  5  6  2  0
  5  7  1  0
  7  8  1  0
  8  9  1  0
  9 10  1  0
  9 11  1  0
 11 12  1  0
 12 13  1  0
 13 14  1  0
 14 15  1  0
 15 16  1  0
 16 17  1  0
 17 18  1  0
  2 19  1  0
 19 20  2  0
 20 21  1  0
 21 22  2  0
 22 23  1  0
 23 24  2  0
 24 25  1  0
 24 26  1  0
 26 27  2  0
 27 28  1  0
 28 29  2  0
 12  7  1  0
 18 13  1  0
 29 19  1  0
 28 22  1  0
  3 30  1  0
  4 31  1  0
  4 32  1  0
  8 33  1  0
  8 34  1  0
  9 35  1  6
 10 36  1  0
 11 37  1  0
 11 38  1  0
 12 39  1  6
 13 40  1  0
 14 41  1  0
 14 42  1  0
 15 43  1  0
 15 44  1  0
 16 45  1  0
 16 46  1  0
 17 47  1  0
 17 48  1  0
 18 49  1  0
 18 50  1  0
 20 51  1  0
 21 52  1  0
 23 53  1  0
 26 54  1  0
 27 55  1  0
M  END
>  <smiles>  (27) 
O=C(NCC(=O)N1C[C@@H](O)C[C@H]1C1CCCCC1)c1ccc2cc(F)ccc2n1

>  <score_type>  (27) 
oracle

>  <origin>  (27) 
autodockgpu

>  <m_score__min__energy>  (27) 
-8.9600000000000009

>  <m_primary>  (27) 
energy

>  <rmsd>  (27) 
7.322940114878259

>  <m_score__min__rmsd>  (27) 
7.322940114878259

>  <meeko>  (27) 
{"free_energy": -7.95, "intermolecular_energy": -9.74, "internal_energy": -2.38, "cluster_size": 12, "cluster_id": 1, "rank_in_cluster": 11}

>  <energy>  (27) 
-8.42

>  <cluster_rmsd>  (27) 
0.39

>  <cluster>  (27) 
2

$$$$

     RDKit          3D

 55 58  0  0  0  0  0  0  0  0999 V2000
  141.0970   71.9400  221.3490 O   0  0  0  0  0  0  0  0  0  0  0  0
  140.4140   72.3620  222.3160 C   0  0  0  0  0  0  0  0  0  0  0  0
  139.8350   73.6580  222.2790 N   0  0  0  0  0  0  0  0  0  0  0  0
  140.0190   74.5380  221.1140 C   0  0  0  0  0  0  0  0  0  0  0  0
  140.5580   75.8350  221.5160 C   0  0  0  0  0  0  0  0  0  0  0  0
  140.2820   76.1970  222.7200 O   0  0  0  0  0  0  0  0  0  0  0  0
  141.3320   76.7540  220.7880 N   0  0  0  0  0  0  0  0  0  0  0  0
  141.8090   76.2820  219.4310 C   0  0  0  0  0  0  0  0  0  0  0  0
  142.1650   77.5300  218.6780 C   0  0  1  0  0  0  0  0  0  0  0  0
  141.6800   77.5130  217.3720 O   0  0  0  0  0  0  0  0  0  0  0  0
  141.5410   78.6370  219.4950 C   0  0  0  0  0  0  0  0  0  0  0  0
  141.8480   78.0480  220.9080 C   0  0  1  0  0  0  0  0  0  0  0  0
  141.3950   79.0010  221.9350 C   0  0  0  0  0  0  0  0  0  0  0  0
  142.3410   80.0950  222.3240 C   0  0  0  0  0  0  0  0  0  0  0  0
  141.4510   81.2030  222.9080 C   0  0  0  0  0  0  0  0  0  0  0  0
  140.4760   80.5440  223.8460 C   0  0  0  0  0  0  0  0  0  0  0  0
  139.4460   79.6860  223.1870 C   0  0  0  0  0  0  0  0  0  0  0  0
  139.9810   79.4270  221.7550 C   0  0  0  0  0  0  0  0  0  0  0  0
  140.2070   71.5080  223.5040 C   0  0  0  0  0  0  0  0  0  0  0  0
  139.5050   70.3300  223.3680 C   0  0  0  0  0  0  0  0  0  0  0  0
  139.3140   69.5370  224.4790 C   0  0  0  0  0  0  0  0  0  0  0  0
  139.8090   69.8970  225.7120 C   0  0  0  0  0  0  0  0  0  0  0  0
  139.6180   69.1030  226.8240 C   0  0  0  0  0  0  0  0  0  0  0  0
  140.1270   69.4880  228.0510 C   0  0  0  0  0  0  0  0  0  0  0  0
  139.9220   68.6890  229.1190 F   0  0  0  0  0  0  0  0  0  0  0  0
  140.8200   70.6760  228.1210 C   0  0  0  0  0  0  0  0  0  0  0  0
  141.0180   71.4850  227.0050 C   0  0  0  0  0  0  0  0  0  0  0  0
  140.5060   71.0990  225.7640 C   0  0  0  0  0  0  0  0  0  0  0  0
  140.7040   71.8830  224.7060 N   0  0  0  0  0  0  0  0  0  0  0  0
  139.2810   73.9460  223.1130 H   0  0  0  0  0  0  0  0  0  0  0  0
  140.7169   74.0612  220.4100 H   0  0  0  0  0  0  0  0  0  0  0  0
  139.0402   74.6981  220.6383 H   0  0  0  0  0  0  0  0  0  0  0  0
  142.6901   75.6321  219.5374 H   0  0  0  0  0  0  0  0  0  0  0  0
  141.0399   75.6942  218.9086 H   0  0  0  0  0  0  0  0  0  0  0  0
  143.2523   77.6511  218.5633 H   0  0  0  0  0  0  0  0  0  0  0  0
  141.8630   76.6160  217.0070 H   0  0  0  0  0  0  0  0  0  0  0  0
  142.0329   79.6070  219.3301 H   0  0  0  0  0  0  0  0  0  0  0  0
  140.4863   78.8647  219.2811 H   0  0  0  0  0  0  0  0  0  0  0  0
  142.8848   77.9304  221.2563 H   0  0  0  0  0  0  0  0  0  0  0  0
  141.4133   78.3942  222.8523 H   0  0  0  0  0  0  0  0  0  0  0  0
  143.0570   79.7367  223.0783 H   0  0  0  0  0  0  0  0  0  0  0  0
  142.9349   80.4504  221.4691 H   0  0  0  0  0  0  0  0  0  0  0  0
  142.0670   81.9315  223.4557 H   0  0  0  0  0  0  0  0  0  0  0  0
  140.9204   81.7395  222.1076 H   0  0  0  0  0  0  0  0  0  0  0  0
  141.0470   79.9153  224.5450 H   0  0  0  0  0  0  0  0  0  0  0  0
  139.9264   81.3590  224.3397 H   0  0  0  0  0  0  0  0  0  0  0  0
  139.3294   78.7375  223.7317 H   0  0  0  0  0  0  0  0  0  0  0  0
  138.4583   80.1699  223.1734 H   0  0  0  0  0  0  0  0  0  0  0  0
  139.3990   78.6331  221.2640 H   0  0  0  0  0  0  0  0  0  0  0  0
  139.8999   80.3209  221.1191 H   0  0  0  0  0  0  0  0  0  0  0  0
  139.1039   70.0277  222.3894 H   0  0  0  0  0  0  0  0  0  0  0  0
  138.7537   68.5958  224.3782 H   0  0  0  0  0  0  0  0  0  0  0  0
  139.0587   68.1601  226.7344 H   0  0  0  0  0  0  0  0  0  0  0  0
  141.2305   70.9963  229.0900 H   0  0  0  0  0  0  0  0  0  0  0  0
  141.5772   72.4274  227.1006 H   0  0  0  0  0  0  0  0  0  0  0  0
  1  2  2  0
  2  3  1  0
  3  4  1  0
  4  5  1  0
  5  6  2  0
  5  7  1  0
  7  8  1  0
  8  9  1  0
  9 10  1  0
  9 11  1  0
 11 12  1  0
 12 13  1  0
 13 14  1  0
 14 15  1  0
 15 16  1  0
 16 17  1  0
 17 18  1  0
  2 19  1  0
 19 20  2  0
 20 21  1  0
 21 22  2  0
 22 23  1  0
 23 24  2  0
 24 25  1  0
 24 26  1  0
 26 27  2  0
 27 28  1  0
 28 29  2  0
 12  7  1  0
 18 13  1  0
 29 19  1  0
 28 22  1  0
  3 30  1  0
  4 31  1  0
  4 32  1  0
  8 33  1  0
  8 34  1  0
  9 35  1  6
 10 36  1  0
 11 37  1  0
 11 38  1  0
 12 39  1  6
 13 40  1  0
 14 41  1  0
 14 42  1  0
 15 43  1  0
 15 44  1  0
 16 45  1  0
 16 46  1  0
 17 47  1  0
 17 48  1  0
 18 49  1  0
 18 50  1  0
 20 51  1  0
 21 52  1  0
 23 53  1  0
 26 54  1  0
 27 55  1  0
M  END
>  <smiles>  (28) 
O=C(NCC(=O)N1C[C@@H](O)C[C@H]1C1CCCCC1)c1ccc2cc(F)ccc2n1

>  <score_type>  (28) 
oracle

>  <origin>  (28) 
autodockgpu

>  <m_score__min__energy>  (28) 
-8.9600000000000009

>  <m_primary>  (28) 
energy

>  <rmsd>  (28) 
1.921108454314403

>  <m_score__min__rmsd>  (28) 
1.921108454314403

>  <meeko>  (28) 
{"free_energy": -8.36, "intermolecular_energy": -10.15, "internal_energy": -1.57, "cluster_size": 25, "cluster_id": 2, "rank_in_cluster": 17}

>  <energy>  (28) 
-8.38

>  <cluster_rmsd>  (28) 
0.53

>  <cluster>  (28) 
2

$$$$

     RDKit          3D

 55 58  0  0  0  0  0  0  0  0999 V2000
  140.9770   71.8920  221.2920 O   0  0  0  0  0  0  0  0  0  0  0  0
  140.3090   72.3220  222.2660 C   0  0  0  0  0  0  0  0  0  0  0  0
  139.7340   73.6190  222.2290 N   0  0  0  0  0  0  0  0  0  0  0  0
  139.9040   74.4920  221.0570 C   0  0  0  0  0  0  0  0  0  0  0  0
  140.4870   75.7760  221.4380 C   0  0  0  0  0  0  0  0  0  0  0  0
  140.1500   76.2100  222.6020 O   0  0  0  0  0  0  0  0  0  0  0  0
  141.3600   76.6170  220.7270 N   0  0  0  0  0  0  0  0  0  0  0  0
  141.8800   76.0660  219.4160 C   0  0  0  0  0  0  0  0  0  0  0  0
  142.3600   77.2610  218.6450 C   0  0  1  0  0  0  0  0  0  0  0  0
  141.9490   77.2270  217.3140 O   0  0  0  0  0  0  0  0  0  0  0  0
  141.7660   78.4340  219.3880 C   0  0  0  0  0  0  0  0  0  0  0  0
  141.9530   77.8780  220.8350 C   0  0  1  0  0  0  0  0  0  0  0  0
  141.5060   78.8950  221.8020 C   0  0  0  0  0  0  0  0  0  0  0  0
  141.8220   78.6560  223.2460 C   0  0  0  0  0  0  0  0  0  0  0  0
  141.7880   80.0480  223.8970 C   0  0  0  0  0  0  0  0  0  0  0  0
  140.5510   80.7430  223.3970 C   0  0  0  0  0  0  0  0  0  0  0  0
  140.5770   81.1190  221.9510 C   0  0  0  0  0  0  0  0  0  0  0  0
  141.7290   80.2880  221.3310 C   0  0  0  0  0  0  0  0  0  0  0  0
  140.1160   71.4760  223.4620 C   0  0  0  0  0  0  0  0  0  0  0  0
  139.3980   70.3060  223.3450 C   0  0  0  0  0  0  0  0  0  0  0  0
  139.2200   69.5200  224.4640 C   0  0  0  0  0  0  0  0  0  0  0  0
  139.7430   69.8800  225.6860 C   0  0  0  0  0  0  0  0  0  0  0  0
  139.5650   69.0940  226.8050 C   0  0  0  0  0  0  0  0  0  0  0  0
  140.1010   69.4790  228.0200 C   0  0  0  0  0  0  0  0  0  0  0  0
  139.9080   68.6870  229.0960 F   0  0  0  0  0  0  0  0  0  0  0  0
  140.8080   70.6590  228.0710 C   0  0  0  0  0  0  0  0  0  0  0  0
  140.9940   71.4610  226.9470 C   0  0  0  0  0  0  0  0  0  0  0  0
  140.4540   71.0750  225.7180 C   0  0  0  0  0  0  0  0  0  0  0  0
  140.6400   71.8510  224.6520 N   0  0  0  0  0  0  0  0  0  0  0  0
  139.1930   73.9150  223.0690 H   0  0  0  0  0  0  0  0  0  0  0  0
  140.5679   73.9966  220.3333 H   0  0  0  0  0  0  0  0  0  0  0  0
  138.9151   74.6756  220.6117 H   0  0  0  0  0  0  0  0  0  0  0  0
  142.7085   75.3648  219.5946 H   0  0  0  0  0  0  0  0  0  0  0  0
  141.1042   75.5103  218.8689 H   0  0  0  0  0  0  0  0  0  0  0  0
  143.4576   77.3088  218.5901 H   0  0  0  0  0  0  0  0  0  0  0  0
  140.9780   77.0600  217.3150 H   0  0  0  0  0  0  0  0  0  0  0  0
  142.3296   79.3638  219.2210 H   0  0  0  0  0  0  0  0  0  0  0  0
  140.7424   78.7210  219.1055 H   0  0  0  0  0  0  0  0  0  0  0  0
  142.9584   77.7067  221.2472 H   0  0  0  0  0  0  0  0  0  0  0  0
  140.4153   78.7531  221.8166 H   0  0  0  0  0  0  0  0  0  0  0  0
  141.0687   77.9972  223.7026 H   0  0  0  0  0  0  0  0  0  0  0  0
  142.7955   78.1615  223.3793 H   0  0  0  0  0  0  0  0  0  0  0  0
  141.7492   79.9511  224.9920 H   0  0  0  0  0  0  0  0  0  0  0  0
  142.6899   80.6221  223.6383 H   0  0  0  0  0  0  0  0  0  0  0  0
  139.6940   80.0728  223.5597 H   0  0  0  0  0  0  0  0  0  0  0  0
  140.4812   81.6865  223.9581 H   0  0  0  0  0  0  0  0  0  0  0  0
  139.6197   80.8682  221.4707 H   0  0  0  0  0  0  0  0  0  0  0  0
  140.7306   82.1993  221.8117 H   0  0  0  0  0  0  0  0  0  0  0  0
  141.6896   80.3343  220.2327 H   0  0  0  0  0  0  0  0  0  0  0  0
  142.7165   80.6689  221.6305 H   0  0  0  0  0  0  0  0  0  0  0  0
  138.9741   70.0041  222.3759 H   0  0  0  0  0  0  0  0  0  0  0  0
  138.6475   68.5846  224.3786 H   0  0  0  0  0  0  0  0  0  0  0  0
  138.9941   68.1567  226.7307 H   0  0  0  0  0  0  0  0  0  0  0  0
  141.2402   70.9792  229.0305 H   0  0  0  0  0  0  0  0  0  0  0  0
  141.5656   72.3974  227.0274 H   0  0  0  0  0  0  0  0  0  0  0  0
  1  2  2  0
  2  3  1  0
  3  4  1  0
  4  5  1  0
  5  6  2  0
  5  7  1  0
  7  8  1  0
  8  9  1  0
  9 10  1  0
  9 11  1  0
 11 12  1  0
 12 13  1  0
 13 14  1  0
 14 15  1  0
 15 16  1  0
 16 17  1  0
 17 18  1  0
  2 19  1  0
 19 20  2  0
 20 21  1  0
 21 22  2  0
 22 23  1  0
 23 24  2  0
 24 25  1  0
 24 26  1  0
 26 27  2  0
 27 28  1  0
 28 29  2  0
 12  7  1  0
 18 13  1  0
 29 19  1  0
 28 22  1  0
  3 30  1  0
  4 31  1  0
  4 32  1  0
  8 33  1  0
  8 34  1  0
  9 35  1  6
 10 36  1  0
 11 37  1  0
 11 38  1  0
 12 39  1  1
 13 40  1  0
 14 41  1  0
 14 42  1  0
 15 43  1  0
 15 44  1  0
 16 45  1  0
 16 46  1  0
 17 47  1  0
 17 48  1  0
 18 49  1  0
 18 50  1  0
 20 51  1  0
 21 52  1  0
 23 53  1  0
 26 54  1  0
 27 55  1  0
M  END
>  <smiles>  (29) 
O=C(NCC(=O)N1C[C@@H](O)C[C@H]1C1CCCCC1)c1ccc2cc(F)ccc2n1

>  <score_type>  (29) 
oracle

>  <origin>  (29) 
autodockgpu

>  <m_score__min__energy>  (29) 
-8.9600000000000009

>  <m_primary>  (29) 
energy

>  <rmsd>  (29) 
1.8633397017889926

>  <m_score__min__rmsd>  (29) 
1.8633397017889926

>  <meeko>  (29) 
{"free_energy": -8.56, "intermolecular_energy": -10.35, "internal_energy": -1.48, "cluster_size": 25, "cluster_id": 2, "rank_in_cluster": 9}

>  <energy>  (29) 
-8.36

>  <cluster_rmsd>  (29) 
0.47

>  <cluster>  (29) 
2

$$$$

     RDKit          3D

 55 58  0  0  0  0  0  0  0  0999 V2000
  134.2890   69.3410  226.4640 O   0  0  0  0  0  0  0  0  0  0  0  0
  134.6210   70.4720  226.0300 C   0  0  0  0  0  0  0  0  0  0  0  0
  135.7310   70.6120  225.1550 N   0  0  0  0  0  0  0  0  0  0  0  0
  136.5180   69.4420  224.7350 C   0  0  0  0  0  0  0  0  0  0  0  0
  137.3720   69.7650  223.5950 C   0  0  0  0  0  0  0  0  0  0  0  0
  136.8760   69.4920  222.4400 O   0  0  0  0  0  0  0  0  0  0  0  0
  138.6590   70.3280  223.5640 N   0  0  0  0  0  0  0  0  0  0  0  0
  138.9540   71.2270  222.3810 C   0  0  0  0  0  0  0  0  0  0  0  0
  140.1330   72.0580  222.7970 C   0  0  1  0  0  0  0  0  0  0  0  0
  139.9700   73.4030  222.4680 O   0  0  0  0  0  0  0  0  0  0  0  0
  140.2130   71.8510  224.2920 C   0  0  0  0  0  0  0  0  0  0  0  0
  139.8420   70.3340  224.3090 C   0  0  1  0  0  0  0  0  0  0  0  0
  139.9210   69.8360  225.6930 C   0  0  0  0  0  0  0  0  0  0  0  0
  139.9380   68.3520  225.8890 C   0  0  0  0  0  0  0  0  0  0  0  0
  140.5910   68.1390  227.2640 C   0  0  0  0  0  0  0  0  0  0  0  0
  139.9570   69.1190  228.2140 C   0  0  0  0  0  0  0  0  0  0  0  0
  140.3010   70.5520  227.9680 C   0  0  0  0  0  0  0  0  0  0  0  0
  140.8860   70.5930  226.5330 C   0  0  0  0  0  0  0  0  0  0  0  0
  133.8560   71.6720  226.4290 C   0  0  0  0  0  0  0  0  0  0  0  0
  132.6850   71.5140  227.1380 C   0  0  0  0  0  0  0  0  0  0  0  0
  131.9750   72.6360  227.5070 C   0  0  0  0  0  0  0  0  0  0  0  0
  132.4100   73.9010  227.1840 C   0  0  0  0  0  0  0  0  0  0  0  0
  131.6990   75.0240  227.5540 C   0  0  0  0  0  0  0  0  0  0  0  0
  132.1590   76.2830  227.2170 C   0  0  0  0  0  0  0  0  0  0  0  0
  131.4390   77.3610  227.5940 F   0  0  0  0  0  0  0  0  0  0  0  0
  133.3360   76.3740  226.5080 C   0  0  0  0  0  0  0  0  0  0  0  0
  134.0620   75.2470  226.1290 C   0  0  0  0  0  0  0  0  0  0  0  0
  133.6000   73.9740  226.4680 C   0  0  0  0  0  0  0  0  0  0  0  0
  134.3050   72.9060  226.0990 N   0  0  0  0  0  0  0  0  0  0  0  0
  135.9530   71.5770  224.8320 H   0  0  0  0  0  0  0  0  0  0  0  0
  137.1483   69.1128  225.5743 H   0  0  0  0  0  0  0  0  0  0  0  0
  135.8238   68.6427  224.4364 H   0  0  0  0  0  0  0  0  0  0  0  0
  139.2005   70.6264  221.4930 H   0  0  0  0  0  0  0  0  0  0  0  0
  138.0876   71.8501  222.1143 H   0  0  0  0  0  0  0  0  0  0  0  0
  141.0566   71.7598  222.2793 H   0  0  0  0  0  0  0  0  0  0  0  0
  139.2160   73.7430  223.0030 H   0  0  0  0  0  0  0  0  0  0  0  0
  141.2221   72.0396  224.6873 H   0  0  0  0  0  0  0  0  0  0  0  0
  139.5876   72.5124  224.9096 H   0  0  0  0  0  0  0  0  0  0  0  0
  140.5002   69.5881  223.8396 H   0  0  0  0  0  0  0  0  0  0  0  0
  138.9241   70.0726  226.0931 H   0  0  0  0  0  0  0  0  0  0  0  0
  138.9144   67.9493  225.8807 H   0  0  0  0  0  0  0  0  0  0  0  0
  140.4863   67.8359  225.0872 H   0  0  0  0  0  0  0  0  0  0  0  0
  140.4138   67.1100  227.6101 H   0  0  0  0  0  0  0  0  0  0  0  0
  141.6783   68.2963  227.2086 H   0  0  0  0  0  0  0  0  0  0  0  0
  138.8650   69.0122  228.1355 H   0  0  0  0  0  0  0  0  0  0  0  0
  140.3498   68.8763  229.2124 H   0  0  0  0  0  0  0  0  0  0  0  0
  139.4011   71.1811  228.0351 H   0  0  0  0  0  0  0  0  0  0  0  0
  141.0144   70.9356  228.7123 H   0  0  0  0  0  0  0  0  0  0  0  0
  140.9706   71.6318  226.1812 H   0  0  0  0  0  0  0  0  0  0  0  0
  141.8956   70.1585  226.4897 H   0  0  0  0  0  0  0  0  0  0  0  0
  132.3233   70.5100  227.4047 H   0  0  0  0  0  0  0  0  0  0  0  0
  131.0391   72.5177  228.0727 H   0  0  0  0  0  0  0  0  0  0  0  0
  130.7618   74.9168  228.1198 H   0  0  0  0  0  0  0  0  0  0  0  0
  133.7153   77.3689  226.2319 H   0  0  0  0  0  0  0  0  0  0  0  0
  134.9985   75.3601  225.5631 H   0  0  0  0  0  0  0  0  0  0  0  0
  1  2  2  0
  2  3  1  0
  3  4  1  0
  4  5  1  0
  5  6  2  0
  5  7  1  0
  7  8  1  0
  8  9  1  0
  9 10  1  0
  9 11  1  0
 11 12  1  0
 12 13  1  0
 13 14  1  0
 14 15  1  0
 15 16  1  0
 16 17  1  0
 17 18  1  0
  2 19  1  0
 19 20  2  0
 20 21  1  0
 21 22  2  0
 22 23  1  0
 23 24  2  0
 24 25  1  0
 24 26  1  0
 26 27  2  0
 27 28  1  0
 28 29  2  0
 12  7  1  0
 18 13  1  0
 29 19  1  0
 28 22  1  0
  3 30  1  0
  4 31  1  0
  4 32  1  0
  8 33  1  0
  8 34  1  0
  9 35  1  6
 10 36  1  0
 11 37  1  0
 11 38  1  0
 12 39  1  6
 13 40  1  0
 14 41  1  0
 14 42  1  0
 15 43  1  0
 15 44  1  0
 16 45  1  0
 16 46  1  0
 17 47  1  0
 17 48  1  0
 18 49  1  0
 18 50  1  0
 20 51  1  0
 21 52  1  0
 23 53  1  0
 26 54  1  0
 27 55  1  0
M  END
>  <smiles>  (30) 
O=C(NCC(=O)N1C[C@@H](O)C[C@H]1C1CCCCC1)c1ccc2cc(F)ccc2n1

>  <score_type>  (30) 
oracle

>  <origin>  (30) 
autodockgpu

>  <m_score__min__energy>  (30) 
-8.9600000000000009

>  <m_primary>  (30) 
energy

>  <rmsd>  (30) 
7.899000116331227

>  <m_score__min__rmsd>  (30) 
7.899000116331227

>  <meeko>  (30) 
{"free_energy": -8.94, "intermolecular_energy": -10.73, "internal_energy": -1.61, "cluster_size": 12, "cluster_id": 1, "rank_in_cluster": 2}

>  <energy>  (30) 
-8.33

>  <cluster_rmsd>  (30) 
0.87

>  <cluster>  (30) 
2

$$$$

     RDKit          3D

 55 58  0  0  0  0  0  0  0  0999 V2000
  133.9470   69.6210  226.5750 O   0  0  0  0  0  0  0  0  0  0  0  0
  134.3590   70.7240  226.1340 C   0  0  0  0  0  0  0  0  0  0  0  0
  135.5020   70.7820  225.2940 N   0  0  0  0  0  0  0  0  0  0  0  0
  136.2310   69.5600  224.9190 C   0  0  0  0  0  0  0  0  0  0  0  0
  137.0600   69.7850  223.7370 C   0  0  0  0  0  0  0  0  0  0  0  0
  136.4970   69.5150  222.6110 O   0  0  0  0  0  0  0  0  0  0  0  0
  138.3820   70.2500  223.6370 N   0  0  0  0  0  0  0  0  0  0  0  0
  138.6640   71.1850  222.4800 C   0  0  0  0  0  0  0  0  0  0  0  0
  139.9300   71.9020  222.8460 C   0  0  1  0  0  0  0  0  0  0  0  0
  139.8520   73.2700  222.5940 O   0  0  0  0  0  0  0  0  0  0  0  0
  140.0980   71.6110  224.3190 C   0  0  0  0  0  0  0  0  0  0  0  0
  139.6100   70.1270  224.2930 C   0  0  1  0  0  0  0  0  0  0  0  0
  139.7460   69.5530  225.6420 C   0  0  0  0  0  0  0  0  0  0  0  0
  139.9030   68.0670  225.7440 C   0  0  0  0  0  0  0  0  0  0  0  0
  140.5830   67.8310  227.1020 C   0  0  0  0  0  0  0  0  0  0  0  0
  139.8670   68.6860  228.1130 C   0  0  0  0  0  0  0  0  0  0  0  0
  140.0740   70.1570  227.9570 C   0  0  0  0  0  0  0  0  0  0  0  0
  140.6420   70.3430  226.5280 C   0  0  0  0  0  0  0  0  0  0  0  0
  133.6550   71.9730  226.4890 C   0  0  0  0  0  0  0  0  0  0  0  0
  132.4630   71.8970  227.1770 C   0  0  0  0  0  0  0  0  0  0  0  0
  131.8100   73.0660  227.5060 C   0  0  0  0  0  0  0  0  0  0  0  0
  132.3220   74.2970  227.1620 C   0  0  0  0  0  0  0  0  0  0  0  0
  131.6670   75.4660  227.4910 C   0  0  0  0  0  0  0  0  0  0  0  0
  132.2040   76.6890  227.1340 C   0  0  0  0  0  0  0  0  0  0  0  0
  131.5380   77.8140  227.4710 F   0  0  0  0  0  0  0  0  0  0  0  0
  133.3980   76.6980  226.4480 C   0  0  0  0  0  0  0  0  0  0  0  0
  134.0660   75.5230  226.1100 C   0  0  0  0  0  0  0  0  0  0  0  0
  133.5270   74.2860  226.4700 C   0  0  0  0  0  0  0  0  0  0  0  0
  134.1780   73.1720  226.1410 N   0  0  0  0  0  0  0  0  0  0  0  0
  135.7920   71.7270  224.9640 H   0  0  0  0  0  0  0  0  0  0  0  0
  136.8750   69.2542  225.7568 H   0  0  0  0  0  0  0  0  0  0  0  0
  135.4984   68.7727  224.6878 H   0  0  0  0  0  0  0  0  0  0  0  0
  138.8000   70.6151  221.5490 H   0  0  0  0  0  0  0  0  0  0  0  0
  137.8329   71.8848  222.3079 H   0  0  0  0  0  0  0  0  0  0  0  0
  140.7883   71.5631  222.2473 H   0  0  0  0  0  0  0  0  0  0  0  0
  139.0230   73.5960  223.0140 H   0  0  0  0  0  0  0  0  0  0  0  0
  141.1441   71.7017  224.6467 H   0  0  0  0  0  0  0  0  0  0  0  0
  139.5715   72.2844  225.0113 H   0  0  0  0  0  0  0  0  0  0  0  0
  140.1723   69.3581  223.7430 H   0  0  0  0  0  0  0  0  0  0  0  0
  138.7342   69.6700  226.0573 H   0  0  0  0  0  0  0  0  0  0  0  0
  138.9215   67.5714  225.7118 H   0  0  0  0  0  0  0  0  0  0  0  0
  140.4911   67.6555  224.9104 H   0  0  0  0  0  0  0  0  0  0  0  0
  140.5055   66.7703  227.3830 H   0  0  0  0  0  0  0  0  0  0  0  0
  141.6503   68.0930  227.0550 H   0  0  0  0  0  0  0  0  0  0  0  0
  138.7892   68.4825  228.0295 H   0  0  0  0  0  0  0  0  0  0  0  0
  140.2878   68.4191  229.0937 H   0  0  0  0  0  0  0  0  0  0  0  0
  139.1198   70.6935  228.0648 H   0  0  0  0  0  0  0  0  0  0  0  0
  140.7541   70.5580  228.7230 H   0  0  0  0  0  0  0  0  0  0  0  0
  140.6265   71.4053  226.2428 H   0  0  0  0  0  0  0  0  0  0  0  0
  141.6875   70.0087  226.4562 H   0  0  0  0  0  0  0  0  0  0  0  0
  132.0403   70.9213  227.4585 H   0  0  0  0  0  0  0  0  0  0  0  0
  130.8586   73.0140  228.0557 H   0  0  0  0  0  0  0  0  0  0  0  0
  130.7143   75.4248  228.0392 H   0  0  0  0  0  0  0  0  0  0  0  0
  133.8382   77.6634  226.1577 H   0  0  0  0  0  0  0  0  0  0  0  0
  135.0174   75.5696  225.5599 H   0  0  0  0  0  0  0  0  0  0  0  0
  1  2  2  0
  2  3  1  0
  3  4  1  0
  4  5  1  0
  5  6  2  0
  5  7  1  0
  7  8  1  0
  8  9  1  0
  9 10  1  0
  9 11  1  0
 11 12  1  0
 12 13  1  0
 13 14  1  0
 14 15  1  0
 15 16  1  0
 16 17  1  0
 17 18  1  0
  2 19  1  0
 19 20  2  0
 20 21  1  0
 21 22  2  0
 22 23  1  0
 23 24  2  0
 24 25  1  0
 24 26  1  0
 26 27  2  0
 27 28  1  0
 28 29  2  0
 12  7  1  0
 18 13  1  0
 29 19  1  0
 28 22  1  0
  3 30  1  0
  4 31  1  0
  4 32  1  0
  8 33  1  0
  8 34  1  0
  9 35  1  6
 10 36  1  0
 11 37  1  0
 11 38  1  0
 12 39  1  6
 13 40  1  0
 14 41  1  0
 14 42  1  0
 15 43  1  0
 15 44  1  0
 16 45  1  0
 16 46  1  0
 17 47  1  0
 17 48  1  0
 18 49  1  0
 18 50  1  0
 20 51  1  0
 21 52  1  0
 23 53  1  0
 26 54  1  0
 27 55  1  0
M  END
>  <smiles>  (31) 
O=C(NCC(=O)N1C[C@@H](O)C[C@H]1C1CCCCC1)c1ccc2cc(F)ccc2n1

>  <score_type>  (31) 
oracle

>  <origin>  (31) 
autodockgpu

>  <m_score__min__energy>  (31) 
-8.9600000000000009

>  <m_primary>  (31) 
energy

>  <rmsd>  (31) 
8.105667682244423

>  <m_score__min__rmsd>  (31) 
8.105667682244423

>  <meeko>  (31) 
{"free_energy": -8.96, "intermolecular_energy": -10.75, "internal_energy": -1.58, "cluster_size": 12, "cluster_id": 1, "rank_in_cluster": 1}

>  <energy>  (31) 
-8.26

>  <cluster_rmsd>  (31) 
0.48

>  <cluster>  (31) 
2

$$$$

     RDKit          3D

 55 58  0  0  0  0  0  0  0  0999 V2000
  135.6820   72.7090  221.7140 O   0  0  0  0  0  0  0  0  0  0  0  0
  136.2250   73.2140  222.7290 C   0  0  0  0  0  0  0  0  0  0  0  0
  136.4610   72.4270  223.8870 N   0  0  0  0  0  0  0  0  0  0  0  0
  136.0790   71.0070  223.9310 C   0  0  0  0  0  0  0  0  0  0  0  0
  137.2560   70.1440  223.8550 C   0  0  0  0  0  0  0  0  0  0  0  0
  137.0270   68.8870  224.0100 O   0  0  0  0  0  0  0  0  0  0  0  0
  138.6040   70.4750  223.6420 N   0  0  0  0  0  0  0  0  0  0  0  0
  138.8750   71.4240  222.4930 C   0  0  0  0  0  0  0  0  0  0  0  0
  140.2390   71.9910  222.7570 C   0  0  1  0  0  0  0  0  0  0  0  0
  140.2830   73.3690  222.5570 O   0  0  0  0  0  0  0  0  0  0  0  0
  140.5120   71.6220  224.1970 C   0  0  0  0  0  0  0  0  0  0  0  0
  139.8690   70.1990  224.1710 C   0  0  1  0  0  0  0  0  0  0  0  0
  140.0690   69.5580  225.4810 C   0  0  0  0  0  0  0  0  0  0  0  0
  139.9740   70.4300  226.6950 C   0  0  0  0  0  0  0  0  0  0  0  0
  139.6400   69.4720  227.8490 C   0  0  0  0  0  0  0  0  0  0  0  0
  140.5540   68.2840  227.7210 C   0  0  0  0  0  0  0  0  0  0  0  0
  140.2840   67.4010  226.5470 C   0  0  0  0  0  0  0  0  0  0  0  0
  139.3890   68.2400  225.5990 C   0  0  0  0  0  0  0  0  0  0  0  0
  136.6220   74.6370  222.7250 C   0  0  0  0  0  0  0  0  0  0  0  0
  135.6970   75.5910  223.0890 C   0  0  0  0  0  0  0  0  0  0  0  0
  136.0720   76.9180  223.0830 C   0  0  0  0  0  0  0  0  0  0  0  0
  137.3440   77.3030  222.7230 C   0  0  0  0  0  0  0  0  0  0  0  0
  137.7190   78.6310  222.7170 C   0  0  0  0  0  0  0  0  0  0  0  0
  139.0030   78.9910  222.3520 C   0  0  0  0  0  0  0  0  0  0  0  0
  139.3380   80.2980  222.3570 F   0  0  0  0  0  0  0  0  0  0  0  0
  139.8810   77.9900  221.9990 C   0  0  0  0  0  0  0  0  0  0  0  0
  139.5120   76.6460  222.0020 C   0  0  0  0  0  0  0  0  0  0  0  0
  138.2170   76.2800  222.3700 C   0  0  0  0  0  0  0  0  0  0  0  0
  137.8780   74.9910  222.3680 N   0  0  0  0  0  0  0  0  0  0  0  0
  136.9140   72.9070  224.6940 H   0  0  0  0  0  0  0  0  0  0  0  0
  135.5468   70.8070  224.8727 H   0  0  0  0  0  0  0  0  0  0  0  0
  135.4313   70.7921  223.0683 H   0  0  0  0  0  0  0  0  0  0  0  0
  138.8621   70.8826  221.5356 H   0  0  0  0  0  0  0  0  0  0  0  0
  138.1108   72.2122  222.4248 H   0  0  0  0  0  0  0  0  0  0  0  0
  140.9974   71.5914  222.0677 H   0  0  0  0  0  0  0  0  0  0  0  0
  139.5320   73.7590  223.0610 H   0  0  0  0  0  0  0  0  0  0  0  0
  141.5878   71.5908  224.4241 H   0  0  0  0  0  0  0  0  0  0  0  0
  140.1270   72.3161  224.9586 H   0  0  0  0  0  0  0  0  0  0  0  0
  140.2924   69.4004  223.5441 H   0  0  0  0  0  0  0  0  0  0  0  0
  141.1475   69.3415  225.4811 H   0  0  0  0  0  0  0  0  0  0  0  0
  140.9310   70.9397  226.8806 H   0  0  0  0  0  0  0  0  0  0  0  0
  139.2146   71.2173  226.5793 H   0  0  0  0  0  0  0  0  0  0  0  0
  139.8060   69.9727  228.8143 H   0  0  0  0  0  0  0  0  0  0  0  0
  138.5861   69.1599  227.8043 H   0  0  0  0  0  0  0  0  0  0  0  0
  141.5861   68.6554  227.6380 H   0  0  0  0  0  0  0  0  0  0  0  0
  140.3814   67.6667  228.6150 H   0  0  0  0  0  0  0  0  0  0  0  0
  141.2246   67.1275  226.0466 H   0  0  0  0  0  0  0  0  0  0  0  0
  139.7963   66.4612  226.8452 H   0  0  0  0  0  0  0  0  0  0  0  0
  139.3120   67.7567  224.6139 H   0  0  0  0  0  0  0  0  0  0  0  0
  138.3640   68.3406  225.9853 H   0  0  0  0  0  0  0  0  0  0  0  0
  134.6770   75.2992  223.3794 H   0  0  0  0  0  0  0  0  0  0  0  0
  135.3390   77.6856  223.3721 H   0  0  0  0  0  0  0  0  0  0  0  0
  136.9933   79.4064  223.0038 H   0  0  0  0  0  0  0  0  0  0  0  0
  140.9061   78.2600  221.7053 H   0  0  0  0  0  0  0  0  0  0  0  0
  140.2413   75.8744  221.7144 H   0  0  0  0  0  0  0  0  0  0  0  0
  1  2  2  0
  2  3  1  0
  3  4  1  0
  4  5  1  0
  5  6  2  0
  5  7  1  0
  7  8  1  0
  8  9  1  0
  9 10  1  0
  9 11  1  0
 11 12  1  0
 12 13  1  0
 13 14  1  0
 14 15  1  0
 15 16  1  0
 16 17  1  0
 17 18  1  0
  2 19  1  0
 19 20  2  0
 20 21  1  0
 21 22  2  0
 22 23  1  0
 23 24  2  0
 24 25  1  0
 24 26  1  0
 26 27  2  0
 27 28  1  0
 28 29  2  0
 12  7  1  0
 18 13  1  0
 29 19  1  0
 28 22  1  0
  3 30  1  0
  4 31  1  0
  4 32  1  0
  8 33  1  0
  8 34  1  0
  9 35  1  6
 10 36  1  0
 11 37  1  0
 11 38  1  0
 12 39  1  6
 13 40  1  0
 14 41  1  0
 14 42  1  0
 15 43  1  0
 15 44  1  0
 16 45  1  0
 16 46  1  0
 17 47  1  0
 17 48  1  0
 18 49  1  0
 18 50  1  0
 20 51  1  0
 21 52  1  0
 23 53  1  0
 26 54  1  0
 27 55  1  0
M  END
>  <smiles>  (32) 
O=C(NCC(=O)N1C[C@@H](O)C[C@H]1C1CCCCC1)c1ccc2cc(F)ccc2n1

>  <score_type>  (32) 
oracle

>  <origin>  (32) 
autodockgpu

>  <m_score__min__energy>  (32) 
-8.9600000000000009

>  <m_primary>  (32) 
energy

>  <rmsd>  (32) 
7.687163368716032

>  <m_score__min__rmsd>  (32) 
7.687163368716032

>  <meeko>  (32) 
{"free_energy": -7.54, "intermolecular_energy": -9.33, "internal_energy": -2.35, "cluster_size": 4, "cluster_id": 5, "rank_in_cluster": 4}

>  <energy>  (32) 
-8.18

>  <cluster_rmsd>  (32) 
1.96

>  <cluster>  (32) 
2

$$$$

     RDKit          3D

 55 58  0  0  0  0  0  0  0  0999 V2000
  140.9790   71.8620  221.2290 O   0  0  0  0  0  0  0  0  0  0  0  0
  140.4240   72.3400  222.2510 C   0  0  0  0  0  0  0  0  0  0  0  0
  139.9870   73.6900  222.2680 N   0  0  0  0  0  0  0  0  0  0  0  0
  140.1700   74.5630  221.0980 C   0  0  0  0  0  0  0  0  0  0  0  0
  140.5790   75.9060  221.5020 C   0  0  0  0  0  0  0  0  0  0  0  0
  140.1320   76.2970  222.6440 O   0  0  0  0  0  0  0  0  0  0  0  0
  141.3880   76.8410  220.8350 N   0  0  0  0  0  0  0  0  0  0  0  0
  141.9970   76.3710  219.5310 C   0  0  0  0  0  0  0  0  0  0  0  0
  142.3810   77.6230  218.7970 C   0  0  1  0  0  0  0  0  0  0  0  0
  142.0150   77.5780  217.4540 O   0  0  0  0  0  0  0  0  0  0  0  0
  141.6550   78.7180  219.5430 C   0  0  0  0  0  0  0  0  0  0  0  0
  141.8520   78.1510  220.9850 C   0  0  1  0  0  0  0  0  0  0  0  0
  141.2810   79.1000  221.9560 C   0  0  0  0  0  0  0  0  0  0  0  0
  139.7880   79.1810  222.0400 C   0  0  0  0  0  0  0  0  0  0  0  0
  139.4990   79.7460  223.4400 C   0  0  0  0  0  0  0  0  0  0  0  0
  140.4310   80.9080  223.6520 C   0  0  0  0  0  0  0  0  0  0  0  0
  141.8730   80.5450  223.7980 C   0  0  0  0  0  0  0  0  0  0  0  0
  141.9870   79.0940  223.2650 C   0  0  0  0  0  0  0  0  0  0  0  0
  140.2220   71.4960  223.4470 C   0  0  0  0  0  0  0  0  0  0  0  0
  139.5480   70.3020  223.3170 C   0  0  0  0  0  0  0  0  0  0  0  0
  139.3620   69.5180  224.4360 C   0  0  0  0  0  0  0  0  0  0  0  0
  139.8340   69.9040  225.6700 C   0  0  0  0  0  0  0  0  0  0  0  0
  139.6480   69.1190  226.7890 C   0  0  0  0  0  0  0  0  0  0  0  0
  140.1330   69.5300  228.0170 C   0  0  0  0  0  0  0  0  0  0  0  0
  139.9330   68.7390  229.0930 F   0  0  0  0  0  0  0  0  0  0  0  0
  140.7990   70.7340  228.0810 C   0  0  0  0  0  0  0  0  0  0  0  0
  140.9920   71.5340  226.9570 C   0  0  0  0  0  0  0  0  0  0  0  0
  140.5040   71.1210  225.7150 C   0  0  0  0  0  0  0  0  0  0  0  0
  140.6960   71.8960  224.6500 N   0  0  0  0  0  0  0  0  0  0  0  0
  139.5350   74.0240  223.1460 H   0  0  0  0  0  0  0  0  0  0  0  0
  140.9446   74.1325  220.4463 H   0  0  0  0  0  0  0  0  0  0  0  0
  139.2114   74.6360  220.5635 H   0  0  0  0  0  0  0  0  0  0  0  0
  142.8842   75.7495  219.7224 H   0  0  0  0  0  0  0  0  0  0  0  0
  141.2950   75.7548  218.9500 H   0  0  0  0  0  0  0  0  0  0  0  0
  143.4699   77.7772  218.7770 H   0  0  0  0  0  0  0  0  0  0  0  0
  142.6500   78.1460  216.9610 H   0  0  0  0  0  0  0  0  0  0  0  0
  142.1312   79.7008  219.4112 H   0  0  0  0  0  0  0  0  0  0  0  0
  140.6173   78.9120  219.2339 H   0  0  0  0  0  0  0  0  0  0  0  0
  142.8563   78.0677  221.4259 H   0  0  0  0  0  0  0  0  0  0  0  0
  141.5022   80.0766  221.5007 H   0  0  0  0  0  0  0  0  0  0  0  0
  139.3928   79.8519  221.2630 H   0  0  0  0  0  0  0  0  0  0  0  0
  139.3114   78.2022  221.8827 H   0  0  0  0  0  0  0  0  0  0  0  0
  138.4543   80.0848  223.5014 H   0  0  0  0  0  0  0  0  0  0  0  0
  139.6526   78.9766  224.2109 H   0  0  0  0  0  0  0  0  0  0  0  0
  140.3353   81.5835  222.7892 H   0  0  0  0  0  0  0  0  0  0  0  0
  140.1332   81.3699  224.6049 H   0  0  0  0  0  0  0  0  0  0  0  0
  142.5030   81.2238  223.2044 H   0  0  0  0  0  0  0  0  0  0  0  0
  142.2121   80.6259  224.8413 H   0  0  0  0  0  0  0  0  0  0  0  0
  143.0425   78.8142  223.1322 H   0  0  0  0  0  0  0  0  0  0  0  0
  141.5498   78.3651  223.9633 H   0  0  0  0  0  0  0  0  0  0  0  0
  139.1648   69.9794  222.3377 H   0  0  0  0  0  0  0  0  0  0  0  0
  138.8245   68.5630  224.3404 H   0  0  0  0  0  0  0  0  0  0  0  0
  139.1117   68.1623  226.7041 H   0  0  0  0  0  0  0  0  0  0  0  0
  141.1910   71.0747  229.0507 H   0  0  0  0  0  0  0  0  0  0  0  0
  141.5283   72.4902  227.0474 H   0  0  0  0  0  0  0  0  0  0  0  0
  1  2  2  0
  2  3  1  0
  3  4  1  0
  4  5  1  0
  5  6  2  0
  5  7  1  0
  7  8  1  0
  8  9  1  0
  9 10  1  0
  9 11  1  0
 11 12  1  0
 12 13  1  0
 13 14  1  0
 14 15  1  0
 15 16  1  0
 16 17  1  0
 17 18  1  0
  2 19  1  0
 19 20  2  0
 20 21  1  0
 21 22  2  0
 22 23  1  0
 23 24  2  0
 24 25  1  0
 24 26  1  0
 26 27  2  0
 27 28  1  0
 28 29  2  0
 12  7  1  0
 18 13  1  0
 29 19  1  0
 28 22  1  0
  3 30  1  0
  4 31  1  0
  4 32  1  0
  8 33  1  0
  8 34  1  0
  9 35  1  6
 10 36  1  0
 11 37  1  0
 11 38  1  0
 12 39  1  1
 13 40  1  0
 14 41  1  0
 14 42  1  0
 15 43  1  0
 15 44  1  0
 16 45  1  0
 16 46  1  0
 17 47  1  0
 17 48  1  0
 18 49  1  0
 18 50  1  0
 20 51  1  0
 21 52  1  0
 23 53  1  0
 26 54  1  0
 27 55  1  0
M  END
>  <smiles>  (33) 
O=C(NCC(=O)N1C[C@@H](O)C[C@H]1C1CCCCC1)c1ccc2cc(F)ccc2n1

>  <score_type>  (33) 
oracle

>  <origin>  (33) 
autodockgpu

>  <m_score__min__energy>  (33) 
-8.9600000000000009

>  <m_primary>  (33) 
energy

>  <rmsd>  (33) 
2.024117479720896

>  <m_score__min__rmsd>  (33) 
2.024117479720896

>  <meeko>  (33) 
{"free_energy": -8.66, "intermolecular_energy": -10.45, "internal_energy": -1.65, "cluster_size": 25, "cluster_id": 2, "rank_in_cluster": 3}

>  <energy>  (33) 
-8.11

>  <cluster_rmsd>  (33) 
1.94

>  <cluster>  (33) 
2

$$$$

     RDKit          3D

 55 58  0  0  0  0  0  0  0  0999 V2000
  136.6660   72.9300  223.1670 O   0  0  0  0  0  0  0  0  0  0  0  0
  135.7490   72.6140  223.9660 C   0  0  0  0  0  0  0  0  0  0  0  0
  135.3820   71.2540  224.1400 N   0  0  0  0  0  0  0  0  0  0  0  0
  136.0610   70.1830  223.3950 C   0  0  0  0  0  0  0  0  0  0  0  0
  137.3360   69.8350  224.0170 C   0  0  0  0  0  0  0  0  0  0  0  0
  137.2840   68.8890  224.8880 O   0  0  0  0  0  0  0  0  0  0  0  0
  138.6160   70.3780  223.8150 N   0  0  0  0  0  0  0  0  0  0  0  0
  138.7750   71.2440  222.5830 C   0  0  0  0  0  0  0  0  0  0  0  0
  140.0050   72.0670  222.8300 C   0  0  1  0  0  0  0  0  0  0  0  0
  139.8200   73.4050  222.4890 O   0  0  0  0  0  0  0  0  0  0  0  0
  140.2660   71.8930  224.3080 C   0  0  0  0  0  0  0  0  0  0  0  0
  139.8810   70.3830  224.4090 C   0  0  1  0  0  0  0  0  0  0  0  0
  140.1230   69.9170  225.7850 C   0  0  0  0  0  0  0  0  0  0  0  0
  140.2790   68.4430  225.9940 C   0  0  0  0  0  0  0  0  0  0  0  0
  141.0670   68.3080  227.3080 C   0  0  0  0  0  0  0  0  0  0  0  0
  140.4410   69.2490  228.3010 C   0  0  0  0  0  0  0  0  0  0  0  0
  140.6420   70.7010  228.0100 C   0  0  0  0  0  0  0  0  0  0  0  0
  141.0930   70.7650  226.5290 C   0  0  0  0  0  0  0  0  0  0  0  0
  135.0430   73.6600  224.7330 C   0  0  0  0  0  0  0  0  0  0  0  0
  135.3910   74.9800  224.5430 C   0  0  0  0  0  0  0  0  0  0  0  0
  134.7290   75.9530  225.2610 C   0  0  0  0  0  0  0  0  0  0  0  0
  133.7350   75.6330  226.1580 C   0  0  0  0  0  0  0  0  0  0  0  0
  133.0730   76.6070  226.8770 C   0  0  0  0  0  0  0  0  0  0  0  0
  132.0780   76.2580  227.7720 C   0  0  0  0  0  0  0  0  0  0  0  0
  131.4500   77.2350  228.4590 F   0  0  0  0  0  0  0  0  0  0  0  0
  131.7770   74.9220  227.9170 C   0  0  0  0  0  0  0  0  0  0  0  0
  132.4400   73.9310  227.1960 C   0  0  0  0  0  0  0  0  0  0  0  0
  133.4440   74.2800  226.2920 C   0  0  0  0  0  0  0  0  0  0  0  0
  134.0690   73.3210  225.6100 N   0  0  0  0  0  0  0  0  0  0  0  0
  134.6140   71.0600  224.8180 H   0  0  0  0  0  0  0  0  0  0  0  0
  135.4152   69.2927  223.3775 H   0  0  0  0  0  0  0  0  0  0  0  0
  136.2572   70.5392  222.3729 H   0  0  0  0  0  0  0  0  0  0  0  0
  138.9039   70.6188  221.6872 H   0  0  0  0  0  0  0  0  0  0  0  0
  137.8900   71.8736  222.4087 H   0  0  0  0  0  0  0  0  0  0  0  0
  140.8545   71.7437  222.2104 H   0  0  0  0  0  0  0  0  0  0  0  0
  138.8910   73.6370  222.7190 H   0  0  0  0  0  0  0  0  0  0  0  0
  141.3184   72.0749  224.5713 H   0  0  0  0  0  0  0  0  0  0  0  0
  139.7296   72.5781  224.9809 H   0  0  0  0  0  0  0  0  0  0  0  0
  140.4671   69.6158  223.8818 H   0  0  0  0  0  0  0  0  0  0  0  0
  139.1490   70.0788  226.2698 H   0  0  0  0  0  0  0  0  0  0  0  0
  139.2952   67.9588  226.0818 H   0  0  0  0  0  0  0  0  0  0  0  0
  140.7946   67.9587  225.1516 H   0  0  0  0  0  0  0  0  0  0  0  0
  141.0070   67.2742  227.6789 H   0  0  0  0  0  0  0  0  0  0  0  0
  142.1283   68.5527  227.1537 H   0  0  0  0  0  0  0  0  0  0  0  0
  139.3590   69.0520  228.3223 H   0  0  0  0  0  0  0  0  0  0  0  0
  140.9394   69.0567  229.2626 H   0  0  0  0  0  0  0  0  0  0  0  0
  139.7024   71.2554  228.1505 H   0  0  0  0  0  0  0  0  0  0  0  0
  141.3840   71.1544  228.6836 H   0  0  0  0  0  0  0  0  0  0  0  0
  141.0602   71.8011  226.1609 H   0  0  0  0  0  0  0  0  0  0  0  0
  142.1273   70.4135  226.4002 H   0  0  0  0  0  0  0  0  0  0  0  0
  136.1835   75.2525  223.8305 H   0  0  0  0  0  0  0  0  0  0  0  0
  135.0011   77.0086  225.1139 H   0  0  0  0  0  0  0  0  0  0  0  0
  133.3377   77.6656  226.7378 H   0  0  0  0  0  0  0  0  0  0  0  0
  130.9879   74.6278  228.6247 H   0  0  0  0  0  0  0  0  0  0  0  0
  132.1720   72.8738  227.3394 H   0  0  0  0  0  0  0  0  0  0  0  0
  1  2  2  0
  2  3  1  0
  3  4  1  0
  4  5  1  0
  5  6  2  0
  5  7  1  0
  7  8  1  0
  8  9  1  0
  9 10  1  0
  9 11  1  0
 11 12  1  0
 12 13  1  0
 13 14  1  0
 14 15  1  0
 15 16  1  0
 16 17  1  0
 17 18  1  0
  2 19  1  0
 19 20  2  0
 20 21  1  0
 21 22  2  0
 22 23  1  0
 23 24  2  0
 24 25  1  0
 24 26  1  0
 26 27  2  0
 27 28  1  0
 28 29  2  0
 12  7  1  0
 18 13  1  0
 29 19  1  0
 28 22  1  0
  3 30  1  0
  4 31  1  0
  4 32  1  0
  8 33  1  0
  8 34  1  0
  9 35  1  6
 10 36  1  0
 11 37  1  0
 11 38  1  0
 12 39  1  6
 13 40  1  0
 14 41  1  0
 14 42  1  0
 15 43  1  0
 15 44  1  0
 16 45  1  0
 16 46  1  0
 17 47  1  0
 17 48  1  0
 18 49  1  0
 18 50  1  0
 20 51  1  0
 21 52  1  0
 23 53  1  0
 26 54  1  0
 27 55  1  0
M  END
>  <smiles>  (34) 
O=C(NCC(=O)N1C[C@@H](O)C[C@H]1C1CCCCC1)c1ccc2cc(F)ccc2n1

>  <score_type>  (34) 
oracle

>  <origin>  (34) 
autodockgpu

>  <m_score__min__energy>  (34) 
-8.9600000000000009

>  <m_primary>  (34) 
energy

>  <rmsd>  (34) 
7.822092957925505

>  <m_score__min__rmsd>  (34) 
7.822092957925505

>  <meeko>  (34) 
{"free_energy": -8.36, "intermolecular_energy": -10.15, "internal_energy": -2.22, "cluster_size": 12, "cluster_id": 1, "rank_in_cluster": 6}

>  <energy>  (34) 
-8.1

>  <cluster_rmsd>  (34) 
2.0

>  <cluster>  (34) 
2

$$$$

     RDKit          3D

 55 58  0  0  0  0  0  0  0  0999 V2000
  140.7060   71.7790  221.1460 O   0  0  0  0  0  0  0  0  0  0  0  0
  140.2790   72.2670  222.2230 C   0  0  0  0  0  0  0  0  0  0  0  0
  139.9270   73.6400  222.3030 N   0  0  0  0  0  0  0  0  0  0  0  0
  140.0520   74.5250  221.1350 C   0  0  0  0  0  0  0  0  0  0  0  0
  140.5430   75.8440  221.5260 C   0  0  0  0  0  0  0  0  0  0  0  0
  140.1630   76.2520  222.6860 O   0  0  0  0  0  0  0  0  0  0  0  0
  141.3670   76.7430  220.8280 N   0  0  0  0  0  0  0  0  0  0  0  0
  141.9310   76.2350  219.5180 C   0  0  0  0  0  0  0  0  0  0  0  0
  142.3410   77.4620  218.7580 C   0  0  1  0  0  0  0  0  0  0  0  0
  141.9430   77.4120  217.4230 O   0  0  0  0  0  0  0  0  0  0  0  0
  141.6680   78.5910  219.5030 C   0  0  0  0  0  0  0  0  0  0  0  0
  141.8790   78.0380  220.9480 C   0  0  1  0  0  0  0  0  0  0  0  0
  141.3610   79.0190  221.9180 C   0  0  0  0  0  0  0  0  0  0  0  0
  139.8750   79.1100  222.0760 C   0  0  0  0  0  0  0  0  0  0  0  0
  139.6600   79.7190  223.4710 C   0  0  0  0  0  0  0  0  0  0  0  0
  140.6060   80.8820  223.6000 C   0  0  0  0  0  0  0  0  0  0  0  0
  142.0520   80.5160  223.6830 C   0  0  0  0  0  0  0  0  0  0  0  0
  142.1330   79.0490  223.1890 C   0  0  0  0  0  0  0  0  0  0  0  0
  140.1390   71.4100  223.4190 C   0  0  0  0  0  0  0  0  0  0  0  0
  139.5530   70.1700  223.2890 C   0  0  0  0  0  0  0  0  0  0  0  0
  139.4250   69.3740  224.4080 C   0  0  0  0  0  0  0  0  0  0  0  0
  139.8690   69.7940  225.6420 C   0  0  0  0  0  0  0  0  0  0  0  0
  139.7400   68.9980  226.7620 C   0  0  0  0  0  0  0  0  0  0  0  0
  140.1940   69.4430  227.9900 C   0  0  0  0  0  0  0  0  0  0  0  0
  140.0530   68.6400  229.0650 F   0  0  0  0  0  0  0  0  0  0  0  0
  140.7710   70.6920  228.0530 C   0  0  0  0  0  0  0  0  0  0  0  0
  140.9050   71.5040  226.9290 C   0  0  0  0  0  0  0  0  0  0  0  0
  140.4480   71.0570  225.6880 C   0  0  0  0  0  0  0  0  0  0  0  0
  140.5830   71.8440  224.6220 N   0  0  0  0  0  0  0  0  0  0  0  0
  139.5790   73.9800  223.2250 H   0  0  0  0  0  0  0  0  0  0  0  0
  140.7563   74.0772  220.4184 H   0  0  0  0  0  0  0  0  0  0  0  0
  139.0586   74.6430  220.6776 H   0  0  0  0  0  0  0  0  0  0  0  0
  142.8005   75.5861  219.6992 H   0  0  0  0  0  0  0  0  0  0  0  0
  141.1957   75.6357  218.9611 H   0  0  0  0  0  0  0  0  0  0  0  0
  143.4339   77.5778  218.7123 H   0  0  0  0  0  0  0  0  0  0  0  0
  142.4550   78.1030  216.9420 H   0  0  0  0  0  0  0  0  0  0  0  0
  142.1730   79.5556  219.3462 H   0  0  0  0  0  0  0  0  0  0  0  0
  140.6306   78.8151  219.2140 H   0  0  0  0  0  0  0  0  0  0  0  0
  142.8902   77.9274  221.3665 H   0  0  0  0  0  0  0  0  0  0  0  0
  141.5615   79.9801  221.4219 H   0  0  0  0  0  0  0  0  0  0  0  0
  139.4427   79.7588  221.3000 H   0  0  0  0  0  0  0  0  0  0  0  0
  139.3877   78.1292  221.9737 H   0  0  0  0  0  0  0  0  0  0  0  0
  138.6211   80.0651  223.5750 H   0  0  0  0  0  0  0  0  0  0  0  0
  139.8500   78.9725  224.2562 H   0  0  0  0  0  0  0  0  0  0  0  0
  140.4687   81.5319  222.7232 H   0  0  0  0  0  0  0  0  0  0  0  0
  140.3591   81.3737  224.5525 H   0  0  0  0  0  0  0  0  0  0  0  0
  142.6533   81.1734  223.0377 H   0  0  0  0  0  0  0  0  0  0  0  0
  142.4444   80.6264  224.7047 H   0  0  0  0  0  0  0  0  0  0  0  0
  143.1792   78.7597  223.0111 H   0  0  0  0  0  0  0  0  0  0  0  0
  141.7292   78.3440  223.9305 H   0  0  0  0  0  0  0  0  0  0  0  0
  139.1934   69.8209  222.3098 H   0  0  0  0  0  0  0  0  0  0  0  0
  138.9583   68.3825  224.3127 H   0  0  0  0  0  0  0  0  0  0  0  0
  139.2740   68.0052  226.6774 H   0  0  0  0  0  0  0  0  0  0  0  0
  141.1380   71.0604  229.0224 H   0  0  0  0  0  0  0  0  0  0  0  0
  141.3705   72.4965  227.0193 H   0  0  0  0  0  0  0  0  0  0  0  0
  1  2  2  0
  2  3  1  0
  3  4  1  0
  4  5  1  0
  5  6  2  0
  5  7  1  0
  7  8  1  0
  8  9  1  0
  9 10  1  0
  9 11  1  0
 11 12  1  0
 12 13  1  0
 13 14  1  0
 14 15  1  0
 15 16  1  0
 16 17  1  0
 17 18  1  0
  2 19  1  0
 19 20  2  0
 20 21  1  0
 21 22  2  0
 22 23  1  0
 23 24  2  0
 24 25  1  0
 24 26  1  0
 26 27  2  0
 27 28  1  0
 28 29  2  0
 12  7  1  0
 18 13  1  0
 29 19  1  0
 28 22  1  0
  3 30  1  0
  4 31  1  0
  4 32  1  0
  8 33  1  0
  8 34  1  0
  9 35  1  6
 10 36  1  0
 11 37  1  0
 11 38  1  0
 12 39  1  1
 13 40  1  0
 14 41  1  0
 14 42  1  0
 15 43  1  0
 15 44  1  0
 16 45  1  0
 16 46  1  0
 17 47  1  0
 17 48  1  0
 18 49  1  0
 18 50  1  0
 20 51  1  0
 21 52  1  0
 23 53  1  0
 26 54  1  0
 27 55  1  0
M  END
>  <smiles>  (35) 
O=C(NCC(=O)N1C[C@@H](O)C[C@H]1C1CCCCC1)c1ccc2cc(F)ccc2n1

>  <score_type>  (35) 
oracle

>  <origin>  (35) 
autodockgpu

>  <m_score__min__energy>  (35) 
-8.9600000000000009

>  <m_primary>  (35) 
energy

>  <rmsd>  (35) 
1.920953970783121

>  <m_score__min__rmsd>  (35) 
1.920953970783121

>  <meeko>  (35) 
{"free_energy": -8.62, "intermolecular_energy": -10.41, "internal_energy": -1.68, "cluster_size": 25, "cluster_id": 2, "rank_in_cluster": 5}

>  <energy>  (35) 
-7.92

>  <cluster_rmsd>  (35) 
0.94

>  <cluster>  (35) 
2

$$$$

     RDKit          3D

 55 58  0  0  0  0  0  0  0  0999 V2000
  139.2880   70.7940  221.3800 O   0  0  0  0  0  0  0  0  0  0  0  0
  139.4430   71.3710  222.4860 C   0  0  0  0  0  0  0  0  0  0  0  0
  139.4750   72.7880  222.5600 N   0  0  0  0  0  0  0  0  0  0  0  0
  139.3270   73.6160  221.3530 C   0  0  0  0  0  0  0  0  0  0  0  0
  140.0450   74.8810  221.4920 C   0  0  0  0  0  0  0  0  0  0  0  0
  139.8840   75.4850  222.6170 O   0  0  0  0  0  0  0  0  0  0  0  0
  140.8850   75.5450  220.5830 N   0  0  0  0  0  0  0  0  0  0  0  0
  140.4540   76.9420  220.1900 C   0  0  0  0  0  0  0  0  0  0  0  0
  141.6870   77.6000  219.6420 C   0  0  1  0  0  0  0  0  0  0  0  0
  141.8510   78.8960  220.1260 O   0  0  0  0  0  0  0  0  0  0  0  0
  142.8090   76.6890  220.0800 C   0  0  0  0  0  0  0  0  0  0  0  0
  142.0670   75.3310  219.8680 C   0  0  1  0  0  0  0  0  0  0  0  0
  142.9950   74.2260  220.1630 C   0  0  0  0  0  0  0  0  0  0  0  0
  142.5350   72.8380  219.8400 C   0  0  0  0  0  0  0  0  0  0  0  0
  143.8260   72.0160  219.6880 C   0  0  0  0  0  0  0  0  0  0  0  0
  144.7190   72.3720  220.8460 C   0  0  0  0  0  0  0  0  0  0  0  0
  145.2740   73.7590  220.8140 C   0  0  0  0  0  0  0  0  0  0  0  0
  144.4020   74.5260  219.7870 C   0  0  0  0  0  0  0  0  0  0  0  0
  139.5960   70.5750  223.7210 C   0  0  0  0  0  0  0  0  0  0  0  0
  139.1710   69.2640  223.7290 C   0  0  0  0  0  0  0  0  0  0  0  0
  139.3150   68.5250  224.8840 C   0  0  0  0  0  0  0  0  0  0  0  0
  139.8710   69.0700  226.0200 C   0  0  0  0  0  0  0  0  0  0  0  0
  140.0150   68.3300  227.1760 C   0  0  0  0  0  0  0  0  0  0  0  0
  140.5770   68.9010  228.3040 C   0  0  0  0  0  0  0  0  0  0  0  0
  140.7030   68.1500  229.4180 F   0  0  0  0  0  0  0  0  0  0  0  0
  140.9810   70.2150  228.2310 C   0  0  0  0  0  0  0  0  0  0  0  0
  140.8400   70.9710  227.0690 C   0  0  0  0  0  0  0  0  0  0  0  0
  140.2730   70.3970  225.9290 C   0  0  0  0  0  0  0  0  0  0  0  0
  140.1450   71.1320  224.8260 N   0  0  0  0  0  0  0  0  0  0  0  0
  139.6070   73.2040  223.5070 H   0  0  0  0  0  0  0  0  0  0  0  0
  139.7300   73.0671  220.4891 H   0  0  0  0  0  0  0  0  0  0  0  0
  138.2587   73.8345  221.2079 H   0  0  0  0  0  0  0  0  0  0  0  0
  139.6667   76.9004  219.4229 H   0  0  0  0  0  0  0  0  0  0  0  0
  140.0389   77.4975  221.0439 H   0  0  0  0  0  0  0  0  0  0  0  0
  141.6441   77.7212  218.5495 H   0  0  0  0  0  0  0  0  0  0  0  0
  142.5830   78.8690  220.7840 H   0  0  0  0  0  0  0  0  0  0  0  0
  143.6988   76.7839  219.4403 H   0  0  0  0  0  0  0  0  0  0  0  0
  143.2173   76.8686  221.0855 H   0  0  0  0  0  0  0  0  0  0  0  0
  141.7591   75.0080  218.8626 H   0  0  0  0  0  0  0  0  0  0  0  0
  142.9802   74.1847  221.2621 H   0  0  0  0  0  0  0  0  0  0  0  0
  141.9149   72.4367  220.6551 H   0  0  0  0  0  0  0  0  0  0  0  0
  141.9171   72.8087  218.9304 H   0  0  0  0  0  0  0  0  0  0  0  0
  143.5930   70.9411  219.7082 H   0  0  0  0  0  0  0  0  0  0  0  0
  144.3203   72.2385  218.7308 H   0  0  0  0  0  0  0  0  0  0  0  0
  144.1372   72.2588  221.7726 H   0  0  0  0  0  0  0  0  0  0  0  0
  145.5833   71.6942  220.7866 H   0  0  0  0  0  0  0  0  0  0  0  0
  145.2002   74.2263  221.8070 H   0  0  0  0  0  0  0  0  0  0  0  0
  146.3382   73.7682  220.5357 H   0  0  0  0  0  0  0  0  0  0  0  0
  144.5950   75.6071  219.8493 H   0  0  0  0  0  0  0  0  0  0  0  0
  144.6235   74.2215  218.7534 H   0  0  0  0  0  0  0  0  0  0  0  0
  138.7246   68.8150  222.8295 H   0  0  0  0  0  0  0  0  0  0  0  0
  138.9786   67.4778  224.8985 H   0  0  0  0  0  0  0  0  0  0  0  0
  139.6816   67.2820  227.2007 H   0  0  0  0  0  0  0  0  0  0  0  0
  141.4299   70.6836  229.1192 H   0  0  0  0  0  0  0  0  0  0  0  0
  141.1749   72.0186  227.0496 H   0  0  0  0  0  0  0  0  0  0  0  0
  1  2  2  0
  2  3  1  0
  3  4  1  0
  4  5  1  0
  5  6  2  0
  5  7  1  0
  7  8  1  0
  8  9  1  0
  9 10  1  0
  9 11  1  0
 11 12  1  0
 12 13  1  0
 13 14  1  0
 14 15  1  0
 15 16  1  0
 16 17  1  0
 17 18  1  0
  2 19  1  0
 19 20  2  0
 20 21  1  0
 21 22  2  0
 22 23  1  0
 23 24  2  0
 24 25  1  0
 24 26  1  0
 26 27  2  0
 27 28  1  0
 28 29  2  0
 12  7  1  0
 18 13  1  0
 29 19  1  0
 28 22  1  0
  3 30  1  0
  4 31  1  0
  4 32  1  0
  8 33  1  0
  8 34  1  0
  9 35  1  6
 10 36  1  0
 11 37  1  0
 11 38  1  0
 12 39  1  6
 13 40  1  0
 14 41  1  0
 14 42  1  0
 15 43  1  0
 15 44  1  0
 16 45  1  0
 16 46  1  0
 17 47  1  0
 17 48  1  0
 18 49  1  0
 18 50  1  0
 20 51  1  0
 21 52  1  0
 23 53  1  0
 26 54  1  0
 27 55  1  0
M  END
>  <smiles>  (36) 
O=C(NCC(=O)N1C[C@@H](O)C[C@H]1C1CCCCC1)c1ccc2cc(F)ccc2n1

>  <score_type>  (36) 
oracle

>  <origin>  (36) 
autodockgpu

>  <m_score__min__energy>  (36) 
-8.9600000000000009

>  <m_primary>  (36) 
energy

>  <rmsd>  (36) 
1.836323716810863

>  <m_score__min__rmsd>  (36) 
1.836323716810863

>  <meeko>  (36) 
{"free_energy": -7.96, "intermolecular_energy": -9.75, "internal_energy": -1.96, "cluster_size": 2, "cluster_id": 4, "rank_in_cluster": 2}

>  <energy>  (36) 
-7.7

>  <cluster_rmsd>  (36) 
1.91

>  <cluster>  (36) 
2

$$$$

     RDKit          3D

 55 58  0  0  0  0  0  0  0  0999 V2000
  135.6520   72.7560  221.6850 O   0  0  0  0  0  0  0  0  0  0  0  0
  136.1150   73.2830  222.7270 C   0  0  0  0  0  0  0  0  0  0  0  0
  136.2610   72.5230  223.9170 N   0  0  0  0  0  0  0  0  0  0  0  0
  135.8750   71.1040  223.9620 C   0  0  0  0  0  0  0  0  0  0  0  0
  137.0490   70.2370  223.8870 C   0  0  0  0  0  0  0  0  0  0  0  0
  136.8300   68.9920  224.1270 O   0  0  0  0  0  0  0  0  0  0  0  0
  138.3860   70.5540  223.5940 N   0  0  0  0  0  0  0  0  0  0  0  0
  138.5990   71.4770  222.4130 C   0  0  0  0  0  0  0  0  0  0  0  0
  139.9790   72.0390  222.5910 C   0  0  1  0  0  0  0  0  0  0  0  0
  140.0210   73.4130  222.3600 O   0  0  0  0  0  0  0  0  0  0  0  0
  140.3280   71.6990  224.0210 C   0  0  0  0  0  0  0  0  0  0  0  0
  139.6750   70.2800  224.0590 C   0  0  1  0  0  0  0  0  0  0  0  0
  139.9420   69.6650  225.3700 C   0  0  0  0  0  0  0  0  0  0  0  0
  139.9680   70.5710  226.5620 C   0  0  0  0  0  0  0  0  0  0  0  0
  139.6780   69.6570  227.7640 C   0  0  0  0  0  0  0  0  0  0  0  0
  140.5340   68.4290  227.6060 C   0  0  0  0  0  0  0  0  0  0  0  0
  140.1470   67.5290  226.4790 C   0  0  0  0  0  0  0  0  0  0  0  0
  139.2210   68.3800  225.5720 C   0  0  0  0  0  0  0  0  0  0  0  0
  136.5140   74.7060  222.7220 C   0  0  0  0  0  0  0  0  0  0  0  0
  135.5900   75.6610  223.0870 C   0  0  0  0  0  0  0  0  0  0  0  0
  135.9660   76.9870  223.0810 C   0  0  0  0  0  0  0  0  0  0  0  0
  137.2370   77.3720  222.7180 C   0  0  0  0  0  0  0  0  0  0  0  0
  137.6130   78.6990  222.7120 C   0  0  0  0  0  0  0  0  0  0  0  0
  138.8970   79.0580  222.3440 C   0  0  0  0  0  0  0  0  0  0  0  0
  139.2330   80.3660  222.3480 F   0  0  0  0  0  0  0  0  0  0  0  0
  139.7730   78.0570  221.9890 C   0  0  0  0  0  0  0  0  0  0  0  0
  139.4040   76.7140  221.9920 C   0  0  0  0  0  0  0  0  0  0  0  0
  138.1080   76.3480  222.3630 C   0  0  0  0  0  0  0  0  0  0  0  0
  137.7690   75.0600  222.3620 N   0  0  0  0  0  0  0  0  0  0  0  0
  136.6510   73.0200  224.7450 H   0  0  0  0  0  0  0  0  0  0  0  0
  135.3420   70.9063  224.9037 H   0  0  0  0  0  0  0  0  0  0  0  0
  135.2272   70.8905  223.0990 H   0  0  0  0  0  0  0  0  0  0  0  0
  138.5304   70.9164  221.4690 H   0  0  0  0  0  0  0  0  0  0  0  0
  137.8369   72.2691  222.3699 H   0  0  0  0  0  0  0  0  0  0  0  0
  140.6958   71.6187  221.8702 H   0  0  0  0  0  0  0  0  0  0  0  0
  139.1950   73.7960  222.7370 H   0  0  0  0  0  0  0  0  0  0  0  0
  141.4144   71.6646  224.1900 H   0  0  0  0  0  0  0  0  0  0  0  0
  139.9901   72.4117  224.7878 H   0  0  0  0  0  0  0  0  0  0  0  0
  140.0583   69.4657  223.4266 H   0  0  0  0  0  0  0  0  0  0  0  0
  141.0084   69.4042  225.3017 H   0  0  0  0  0  0  0  0  0  0  0  0
  140.9553   71.0446  226.6660 H   0  0  0  0  0  0  0  0  0  0  0  0
  139.2346   71.3864  226.4769 H   0  0  0  0  0  0  0  0  0  0  0  0
  139.9310   70.1748  228.7009 H   0  0  0  0  0  0  0  0  0  0  0  0
  138.6121   69.3878  227.8017 H   0  0  0  0  0  0  0  0  0  0  0  0
  141.5714   68.7554  227.4409 H   0  0  0  0  0  0  0  0  0  0  0  0
  140.4013   67.8420  228.5268 H   0  0  0  0  0  0  0  0  0  0  0  0
  141.0384   67.2043  225.9222 H   0  0  0  0  0  0  0  0  0  0  0  0
  139.6446   66.6182  226.8368 H   0  0  0  0  0  0  0  0  0  0  0  0
  139.0558   67.8754  224.6086 H   0  0  0  0  0  0  0  0  0  0  0  0
  138.2305   68.5326  226.0255 H   0  0  0  0  0  0  0  0  0  0  0  0
  134.5699   75.3701  223.3781 H   0  0  0  0  0  0  0  0  0  0  0  0
  135.2343   77.7548  223.3727 H   0  0  0  0  0  0  0  0  0  0  0  0
  136.8888   79.4749  223.0011 H   0  0  0  0  0  0  0  0  0  0  0  0
  140.7976   78.3267  221.6934 H   0  0  0  0  0  0  0  0  0  0  0  0
  140.1325   75.9423  221.7025 H   0  0  0  0  0  0  0  0  0  0  0  0
  1  2  2  0
  2  3  1  0
  3  4  1  0
  4  5  1  0
  5  6  2  0
  5  7  1  0
  7  8  1  0
  8  9  1  0
  9 10  1  0
  9 11  1  0
 11 12  1  0
 12 13  1  0
 13 14  1  0
 14 15  1  0
 15 16  1  0
 16 17  1  0
 17 18  1  0
  2 19  1  0
 19 20  2  0
 20 21  1  0
 21 22  2  0
 22 23  1  0
 23 24  2  0
 24 25  1  0
 24 26  1  0
 26 27  2  0
 27 28  1  0
 28 29  2  0
 12  7  1  0
 18 13  1  0
 29 19  1  0
 28 22  1  0
  3 30  1  0
  4 31  1  0
  4 32  1  0
  8 33  1  0
  8 34  1  0
  9 35  1  6
 10 36  1  0
 11 37  1  0
 11 38  1  0
 12 39  1  6
 13 40  1  0
 14 41  1  0
 14 42  1  0
 15 43  1  0
 15 44  1  0
 16 45  1  0
 16 46  1  0
 17 47  1  0
 17 48  1  0
 18 49  1  0
 18 50  1  0
 20 51  1  0
 21 52  1  0
 23 53  1  0
 26 54  1  0
 27 55  1  0
M  END
>  <smiles>  (37) 
O=C(NCC(=O)N1C[C@@H](O)C[C@H]1C1CCCCC1)c1ccc2cc(F)ccc2n1

>  <score_type>  (37) 
oracle

>  <origin>  (37) 
autodockgpu

>  <m_score__min__energy>  (37) 
-8.9600000000000009

>  <m_primary>  (37) 
energy

>  <rmsd>  (37) 
7.703773524924679

>  <m_score__min__rmsd>  (37) 
7.703773524924679

>  <meeko>  (37) 
{"free_energy": -7.59, "intermolecular_energy": -9.38, "internal_energy": -2.33, "cluster_size": 4, "cluster_id": 5, "rank_in_cluster": 3}

>  <energy>  (37) 
-7.4

>  <cluster_rmsd>  (37) 
1.63

>  <cluster>  (37) 
2

$$$$

     RDKit          3D

 55 58  0  0  0  0  0  0  0  0999 V2000
  139.9650   73.3930  222.6960 O   0  0  0  0  0  0  0  0  0  0  0  0
  140.0460   72.1520  222.5130 C   0  0  0  0  0  0  0  0  0  0  0  0
  140.1460   71.6230  221.1990 N   0  0  0  0  0  0  0  0  0  0  0  0
  140.1570   72.5070  220.0230 C   0  0  0  0  0  0  0  0  0  0  0  0
  141.4970   72.6040  219.4500 C   0  0  0  0  0  0  0  0  0  0  0  0
  141.6410   72.0640  218.2910 O   0  0  0  0  0  0  0  0  0  0  0  0
  142.6600   73.1950  219.9720 N   0  0  0  0  0  0  0  0  0  0  0  0
  143.8970   72.3210  219.9730 C   0  0  0  0  0  0  0  0  0  0  0  0
  145.0540   73.2690  220.0990 C   0  0  1  0  0  0  0  0  0  0  0  0
  146.0880   72.9580  219.2180 O   0  0  0  0  0  0  0  0  0  0  0  0
  144.4490   74.6210  219.8010 C   0  0  0  0  0  0  0  0  0  0  0  0
  143.0860   74.4020  220.5320 C   0  0  1  0  0  0  0  0  0  0  0  0
  142.2970   75.6440  220.4590 C   0  0  0  0  0  0  0  0  0  0  0  0
  142.1800   76.3050  219.1200 C   0  0  0  0  0  0  0  0  0  0  0  0
  140.9060   77.1610  219.2090 C   0  0  0  0  0  0  0  0  0  0  0  0
  140.9530   77.8940  220.5220 C   0  0  0  0  0  0  0  0  0  0  0  0
  140.7880   77.0340  221.7330 C   0  0  0  0  0  0  0  0  0  0  0  0
  141.0360   75.5840  221.2440 C   0  0  0  0  0  0  0  0  0  0  0  0
  140.0380   71.2310  223.6680 C   0  0  0  0  0  0  0  0  0  0  0  0
  139.5150   69.9660  223.5110 C   0  0  0  0  0  0  0  0  0  0  0  0
  139.5090   69.1100  224.5920 C   0  0  0  0  0  0  0  0  0  0  0  0
  140.0130   69.4930  225.8150 C   0  0  0  0  0  0  0  0  0  0  0  0
  140.0070   68.6370  226.8960 C   0  0  0  0  0  0  0  0  0  0  0  0
  140.5200   69.0470  228.1130 C   0  0  0  0  0  0  0  0  0  0  0  0
  140.4990   68.1840  229.1510 F   0  0  0  0  0  0  0  0  0  0  0  0
  141.0290   70.3230  228.2050 C   0  0  0  0  0  0  0  0  0  0  0  0
  141.0390   71.1960  227.1190 C   0  0  0  0  0  0  0  0  0  0  0  0
  140.5230   70.7850  225.8890 C   0  0  0  0  0  0  0  0  0  0  0  0
  140.5390   71.6300  224.8600 N   0  0  0  0  0  0  0  0  0  0  0  0
  140.2100   70.5860  221.1160 H   0  0  0  0  0  0  0  0  0  0  0  0
  139.4702   72.1038  219.2642 H   0  0  0  0  0  0  0  0  0  0  0  0
  139.8385   73.5116  220.3383 H   0  0  0  0  0  0  0  0  0  0  0  0
  143.8756   71.6245  220.8241 H   0  0  0  0  0  0  0  0  0  0  0  0
  143.9666   71.7091  219.0616 H   0  0  0  0  0  0  0  0  0  0  0  0
  145.5215   73.2253  221.0938 H   0  0  0  0  0  0  0  0  0  0  0  0
  146.3420   73.7930  218.7630 H   0  0  0  0  0  0  0  0  0  0  0  0
  145.0309   75.4455  220.2387 H   0  0  0  0  0  0  0  0  0  0  0  0
  144.3923   74.9059  218.7400 H   0  0  0  0  0  0  0  0  0  0  0  0
  143.0479   74.2604  221.6222 H   0  0  0  0  0  0  0  0  0  0  0  0
  142.9391   76.3704  220.9787 H   0  0  0  0  0  0  0  0  0  0  0  0
  143.0580   76.9377  218.9231 H   0  0  0  0  0  0  0  0  0  0  0  0
  142.1295   75.5728  218.3007 H   0  0  0  0  0  0  0  0  0  0  0  0
  140.8762   77.8799  218.3770 H   0  0  0  0  0  0  0  0  0  0  0  0
  140.0069   76.5305  219.1459 H   0  0  0  0  0  0  0  0  0  0  0  0
  141.9261   78.4018  220.5944 H   0  0  0  0  0  0  0  0  0  0  0  0
  140.0978   78.5858  220.5181 H   0  0  0  0  0  0  0  0  0  0  0  0
  141.5214   77.3108  222.5046 H   0  0  0  0  0  0  0  0  0  0  0  0
  139.7914   77.1491  222.1842 H   0  0  0  0  0  0  0  0  0  0  0  0
  141.1474   74.9026  222.1003 H   0  0  0  0  0  0  0  0  0  0  0  0
  140.1965   75.2053  220.6424 H   0  0  0  0  0  0  0  0  0  0  0  0
  139.1094   69.6446  222.5404 H   0  0  0  0  0  0  0  0  0  0  0  0
  139.0924   68.0987  224.4748 H   0  0  0  0  0  0  0  0  0  0  0  0
  139.5924   67.6237  226.7898 H   0  0  0  0  0  0  0  0  0  0  0  0
  141.4408   70.6641  229.1663 H   0  0  0  0  0  0  0  0  0  0  0  0
  141.4534   72.2088  227.2310 H   0  0  0  0  0  0  0  0  0  0  0  0
  1  2  2  0
  2  3  1  0
  3  4  1  0
  4  5  1  0
  5  6  2  0
  5  7  1  0
  7  8  1  0
  8  9  1  0
  9 10  1  0
  9 11  1  0
 11 12  1  0
 12 13  1  0
 13 14  1  0
 14 15  1  0
 15 16  1  0
 16 17  1  0
 17 18  1  0
  2 19  1  0
 19 20  2  0
 20 21  1  0
 21 22  2  0
 22 23  1  0
 23 24  2  0
 24 25  1  0
 24 26  1  0
 26 27  2  0
 27 28  1  0
 28 29  2  0
 12  7  1  0
 18 13  1  0
 29 19  1  0
 28 22  1  0
  3 30  1  0
  4 31  1  0
  4 32  1  0
  8 33  1  0
  8 34  1  0
  9 35  1  1
 10 36  1  0
 11 37  1  0
 11 38  1  0
 12 39  1  1
 13 40  1  0
 14 41  1  0
 14 42  1  0
 15 43  1  0
 15 44  1  0
 16 45  1  0
 16 46  1  0
 17 47  1  0
 17 48  1  0
 18 49  1  0
 18 50  1  0
 20 51  1  0
 21 52  1  0
 23 53  1  0
 26 54  1  0
 27 55  1  0
M  END
>  <smiles>  (38) 
O=C(NCC(=O)N1C[C@@H](O)C[C@H]1C1CCCCC1)c1ccc2cc(F)ccc2n1

>  <score_type>  (38) 
oracle

>  <origin>  (38) 
autodockgpu

>  <m_score__min__energy>  (38) 
-8.9600000000000009

>  <m_primary>  (38) 
energy

>  <rmsd>  (38) 
3.263963289032828

>  <m_score__min__rmsd>  (38) 
3.263963289032828

>  <meeko>  (38) 
{"free_energy": -8.36, "intermolecular_energy": -10.15, "internal_energy": -1.56, "cluster_size": 7, "cluster_id": 3, "rank_in_cluster": 3}

>  <energy>  (38) 
-8.41

>  <cluster_rmsd>  (38) 
0.0

>  <cluster>  (38) 
3

$$$$

     RDKit          3D

 55 58  0  0  0  0  0  0  0  0999 V2000
  137.1160   71.8240  222.5240 O   0  0  0  0  0  0  0  0  0  0  0  0
  136.3870   71.4080  223.4590 C   0  0  0  0  0  0  0  0  0  0  0  0
  136.3210   70.0220  223.7600 N   0  0  0  0  0  0  0  0  0  0  0  0
  137.1000   69.0400  222.9900 C   0  0  0  0  0  0  0  0  0  0  0  0
  138.4650   68.9350  223.5000 C   0  0  0  0  0  0  0  0  0  0  0  0
  138.8250   67.7570  223.8710 O   0  0  0  0  0  0  0  0  0  0  0  0
  139.4490   69.9260  223.6530 N   0  0  0  0  0  0  0  0  0  0  0  0
  139.6170   70.8710  222.4810 C   0  0  0  0  0  0  0  0  0  0  0  0
  140.3240   72.0730  223.0370 C   0  0  1  0  0  0  0  0  0  0  0  0
  139.7580   73.2670  222.5950 O   0  0  0  0  0  0  0  0  0  0  0  0
  140.1960   71.9080  224.5330 C   0  0  0  0  0  0  0  0  0  0  0  0
  140.3930   70.3600  224.5880 C   0  0  1  0  0  0  0  0  0  0  0  0
  140.3880   69.9250  225.9950 C   0  0  0  0  0  0  0  0  0  0  0  0
  140.7990   70.9300  227.0260 C   0  0  0  0  0  0  0  0  0  0  0  0
  140.1630   70.4390  228.3370 C   0  0  0  0  0  0  0  0  0  0  0  0
  140.4250   68.9600  228.4320 C   0  0  0  0  0  0  0  0  0  0  0  0
  139.6870   68.1210  227.4400 C   0  0  0  0  0  0  0  0  0  0  0  0
  139.1960   69.1090  226.3510 C   0  0  0  0  0  0  0  0  0  0  0  0
  135.5880   72.3620  224.2560 C   0  0  0  0  0  0  0  0  0  0  0  0
  135.7840   73.7140  224.0740 C   0  0  0  0  0  0  0  0  0  0  0  0
  135.0370   74.6010  224.8190 C   0  0  0  0  0  0  0  0  0  0  0  0
  134.1060   74.1640  225.7350 C   0  0  0  0  0  0  0  0  0  0  0  0
  133.3590   75.0510  226.4810 C   0  0  0  0  0  0  0  0  0  0  0  0
  132.4300   74.5850  227.3940 C   0  0  0  0  0  0  0  0  0  0  0  0
  131.7160   75.4800  228.1090 F   0  0  0  0  0  0  0  0  0  0  0  0
  132.2820   73.2230  227.5290 C   0  0  0  0  0  0  0  0  0  0  0  0
  133.0320   72.3180  226.7810 C   0  0  0  0  0  0  0  0  0  0  0  0
  133.9690   72.7850  225.8580 C   0  0  0  0  0  0  0  0  0  0  0  0
  134.6790   71.9090  225.1500 N   0  0  0  0  0  0  0  0  0  0  0  0
  135.6970   69.7430  224.5470 H   0  0  0  0  0  0  0  0  0  0  0  0
  136.6122   68.0568  223.0640 H   0  0  0  0  0  0  0  0  0  0  0  0
  137.1431   69.3723  221.9423 H   0  0  0  0  0  0  0  0  0  0  0  0
  140.2206   70.4007  221.6907 H   0  0  0  0  0  0  0  0  0  0  0  0
  138.6505   71.1376  222.0284 H   0  0  0  0  0  0  0  0  0  0  0  0
  141.3718   72.1307  222.7072 H   0  0  0  0  0  0  0  0  0  0  0  0
  138.7960   73.2250  222.8040 H   0  0  0  0  0  0  0  0  0  0  0  0
  140.9805   72.4493  225.0822 H   0  0  0  0  0  0  0  0  0  0  0  0
  139.2734   72.2974  224.9882 H   0  0  0  0  0  0  0  0  0  0  0  0
  141.3480   69.9026  224.2899 H   0  0  0  0  0  0  0  0  0  0  0  0
  141.2467   69.2390  226.0401 H   0  0  0  0  0  0  0  0  0  0  0  0
  141.8947   70.9643  227.1171 H   0  0  0  0  0  0  0  0  0  0  0  0
  140.4724   71.9473  226.7643 H   0  0  0  0  0  0  0  0  0  0  0  0
  140.6173   70.9581  229.1939 H   0  0  0  0  0  0  0  0  0  0  0  0
  139.0827   70.6458  228.3484 H   0  0  0  0  0  0  0  0  0  0  0  0
  141.5023   68.7945  228.2839 H   0  0  0  0  0  0  0  0  0  0  0  0
  140.0665   68.6483  229.4241 H   0  0  0  0  0  0  0  0  0  0  0  0
  140.3557   67.3657  227.0014 H   0  0  0  0  0  0  0  0  0  0  0  0
  138.8521   67.5763  227.9051 H   0  0  0  0  0  0  0  0  0  0  0  0
  138.8276   68.5609  225.4713 H   0  0  0  0  0  0  0  0  0  0  0  0
  138.3638   69.7331  226.7086 H   0  0  0  0  0  0  0  0  0  0  0  0
  136.5240   74.0790  223.3466 H   0  0  0  0  0  0  0  0  0  0  0  0
  135.1877   75.6816  224.6789 H   0  0  0  0  0  0  0  0  0  0  0  0
  133.5024   76.1337  226.3496 H   0  0  0  0  0  0  0  0  0  0  0  0
  131.5476   72.8366  228.2511 H   0  0  0  0  0  0  0  0  0  0  0  0
  132.8858   71.2364  226.9178 H   0  0  0  0  0  0  0  0  0  0  0  0
  1  2  2  0
  2  3  1  0
  3  4  1  0
  4  5  1  0
  5  6  2  0
  5  7  1  0
  7  8  1  0
  8  9  1  0
  9 10  1  0
  9 11  1  0
 11 12  1  0
 12 13  1  0
 13 14  1  0
 14 15  1  0
 15 16  1  0
 16 17  1  0
 17 18  1  0
  2 19  1  0
 19 20  2  0
 20 21  1  0
 21 22  2  0
 22 23  1  0
 23 24  2  0
 24 25  1  0
 24 26  1  0
 26 27  2  0
 27 28  1  0
 28 29  2  0
 12  7  1  0
 18 13  1  0
 29 19  1  0
 28 22  1  0
  3 30  1  0
  4 31  1  0
  4 32  1  0
  8 33  1  0
  8 34  1  0
  9 35  1  1
 10 36  1  0
 11 37  1  0
 11 38  1  0
 12 39  1  6
 13 40  1  0
 14 41  1  0
 14 42  1  0
 15 43  1  0
 15 44  1  0
 16 45  1  0
 16 46  1  0
 17 47  1  0
 17 48  1  0
 18 49  1  0
 18 50  1  0
 20 51  1  0
 21 52  1  0
 23 53  1  0
 26 54  1  0
 27 55  1  0
M  END
>  <smiles>  (39) 
O=C(NCC(=O)N1C[C@@H](O)C[C@H]1C1CCCCC1)c1ccc2cc(F)ccc2n1

>  <score_type>  (39) 
oracle

>  <origin>  (39) 
autodockgpu

>  <m_score__min__energy>  (39) 
-8.9600000000000009

>  <m_primary>  (39) 
energy

>  <rmsd>  (39) 
7.286017143185777

>  <m_score__min__rmsd>  (39) 
7.286017143185777

>  <meeko>  (39) 
{"free_energy": -7.87, "intermolecular_energy": -9.66, "internal_energy": -2.43, "cluster_size": 12, "cluster_id": 1, "rank_in_cluster": 12}

>  <energy>  (39) 
-8.37

>  <cluster_rmsd>  (39) 
0.1

>  <cluster>  (39) 
3

$$$$

     RDKit          3D

 55 58  0  0  0  0  0  0  0  0999 V2000
  138.7670   72.5040  221.6400 O   0  0  0  0  0  0  0  0  0  0  0  0
  139.7870   72.3980  222.3670 C   0  0  0  0  0  0  0  0  0  0  0  0
  140.9680   73.1230  222.0600 N   0  0  0  0  0  0  0  0  0  0  0  0
  141.0310   74.0120  220.8900 C   0  0  0  0  0  0  0  0  0  0  0  0
  140.9480   75.4140  221.2900 C   0  0  0  0  0  0  0  0  0  0  0  0
  140.1370   75.6630  222.2590 O   0  0  0  0  0  0  0  0  0  0  0  0
  141.6150   76.5400  220.7780 N   0  0  0  0  0  0  0  0  0  0  0  0
  142.3720   76.3220  219.4850 C   0  0  0  0  0  0  0  0  0  0  0  0
  142.5710   77.6920  218.9050 C   0  0  1  0  0  0  0  0  0  0  0  0
  142.2970   77.7300  217.5390 O   0  0  0  0  0  0  0  0  0  0  0  0
  141.6210   78.5620  219.6950 C   0  0  0  0  0  0  0  0  0  0  0  0
  141.8320   77.8860  221.0870 C   0  0  1  0  0  0  0  0  0  0  0  0
  141.0470   78.6140  222.0980 C   0  0  0  0  0  0  0  0  0  0  0  0
  141.8000   79.4810  223.0590 C   0  0  0  0  0  0  0  0  0  0  0  0
  140.7710   80.5090  223.5580 C   0  0  0  0  0  0  0  0  0  0  0  0
  139.5140   79.7530  223.8940 C   0  0  0  0  0  0  0  0  0  0  0  0
  138.7840   79.1860  222.7200 C   0  0  0  0  0  0  0  0  0  0  0  0
  139.8010   79.2150  221.5510 C   0  0  0  0  0  0  0  0  0  0  0  0
  139.7640   71.5150  223.5510 C   0  0  0  0  0  0  0  0  0  0  0  0
  139.0520   70.3370  223.4930 C   0  0  0  0  0  0  0  0  0  0  0  0
  139.0330   69.5160  224.6010 C   0  0  0  0  0  0  0  0  0  0  0  0
  139.7070   69.8500  225.7540 C   0  0  0  0  0  0  0  0  0  0  0  0
  139.6880   69.0280  226.8620 C   0  0  0  0  0  0  0  0  0  0  0  0
  140.3740   69.3870  228.0080 C   0  0  0  0  0  0  0  0  0  0  0  0
  140.3340   68.5610  229.0750 F   0  0  0  0  0  0  0  0  0  0  0  0
  141.0660   70.5770  228.0030 C   0  0  0  0  0  0  0  0  0  0  0  0
  141.0910   71.4140  226.8890 C   0  0  0  0  0  0  0  0  0  0  0  0
  140.4000   71.0550  225.7310 C   0  0  0  0  0  0  0  0  0  0  0  0
  140.4340   71.8650  224.6740 N   0  0  0  0  0  0  0  0  0  0  0  0
  141.7780   72.9910  222.7030 H   0  0  0  0  0  0  0  0  0  0  0  0
  141.9816   73.8446  220.3624 H   0  0  0  0  0  0  0  0  0  0  0  0
  140.1788   73.7852  220.2325 H   0  0  0  0  0  0  0  0  0  0  0  0
  143.3422   75.8430  219.6829 H   0  0  0  0  0  0  0  0  0  0  0  0
  141.8247   75.6614  218.7965 H   0  0  0  0  0  0  0  0  0  0  0  0
  143.6150   78.0296  218.9823 H   0  0  0  0  0  0  0  0  0  0  0  0
  142.9550   78.3370  217.1280 H   0  0  0  0  0  0  0  0  0  0  0  0
  141.9228   79.6198  219.6935 H   0  0  0  0  0  0  0  0  0  0  0  0
  140.5849   78.6089  219.3286 H   0  0  0  0  0  0  0  0  0  0  0  0
  142.8084   77.9282  221.5919 H   0  0  0  0  0  0  0  0  0  0  0  0
  140.7211   77.8112  222.7757 H   0  0  0  0  0  0  0  0  0  0  0  0
  142.1871   78.8833  223.8974 H   0  0  0  0  0  0  0  0  0  0  0  0
  142.6695   79.9622  222.5874 H   0  0  0  0  0  0  0  0  0  0  0  0
  141.1535   81.0211  224.4532 H   0  0  0  0  0  0  0  0  0  0  0  0
  140.5750   81.2704  222.7887 H   0  0  0  0  0  0  0  0  0  0  0  0
  139.7843   78.9215  224.5616 H   0  0  0  0  0  0  0  0  0  0  0  0
  138.8321   80.4815  224.3568 H   0  0  0  0  0  0  0  0  0  0  0  0
  138.4647   78.1539  222.9270 H   0  0  0  0  0  0  0  0  0  0  0  0
  137.8753   79.7603  222.4865 H   0  0  0  0  0  0  0  0  0  0  0  0
  139.4286   78.6232  220.7018 H   0  0  0  0  0  0  0  0  0  0  0  0
  139.9681   80.2365  221.1788 H   0  0  0  0  0  0  0  0  0  0  0  0
  138.5082   70.0562  222.5790 H   0  0  0  0  0  0  0  0  0  0  0  0
  138.4669   68.5736  224.5626 H   0  0  0  0  0  0  0  0  0  0  0  0
  139.1250   68.0834  226.8338 H   0  0  0  0  0  0  0  0  0  0  0  0
  141.6166   70.8767  228.9069 H   0  0  0  0  0  0  0  0  0  0  0  0
  141.6554   72.3576  226.9225 H   0  0  0  0  0  0  0  0  0  0  0  0
  1  2  2  0
  2  3  1  0
  3  4  1  0
  4  5  1  0
  5  6  2  0
  5  7  1  0
  7  8  1  0
  8  9  1  0
  9 10  1  0
  9 11  1  0
 11 12  1  0
 12 13  1  0
 13 14  1  0
 14 15  1  0
 15 16  1  0
 16 17  1  0
 17 18  1  0
  2 19  1  0
 19 20  2  0
 20 21  1  0
 21 22  2  0
 22 23  1  0
 23 24  2  0
 24 25  1  0
 24 26  1  0
 26 27  2  0
 27 28  1  0
 28 29  2  0
 12  7  1  0
 18 13  1  0
 29 19  1  0
 28 22  1  0
  3 30  1  0
  4 31  1  0
  4 32  1  0
  8 33  1  0
  8 34  1  0
  9 35  1  6
 10 36  1  0
 11 37  1  0
 11 38  1  0
 12 39  1  1
 13 40  1  0
 14 41  1  0
 14 42  1  0
 15 43  1  0
 15 44  1  0
 16 45  1  0
 16 46  1  0
 17 47  1  0
 17 48  1  0
 18 49  1  0
 18 50  1  0
 20 51  1  0
 21 52  1  0
 23 53  1  0
 26 54  1  0
 27 55  1  0
M  END
>  <smiles>  (40) 
O=C(NCC(=O)N1C[C@@H](O)C[C@H]1C1CCCCC1)c1ccc2cc(F)ccc2n1

>  <score_type>  (40) 
oracle

>  <origin>  (40) 
autodockgpu

>  <m_score__min__energy>  (40) 
-8.9600000000000009

>  <m_primary>  (40) 
energy

>  <rmsd>  (40) 
2.198958880676054

>  <m_score__min__rmsd>  (40) 
2.198958880676054

>  <meeko>  (40) 
{"free_energy": -7.92, "intermolecular_energy": -9.71, "internal_energy": -1.45, "cluster_size": 25, "cluster_id": 2, "rank_in_cluster": 23}

>  <energy>  (40) 
-8.36

>  <cluster_rmsd>  (40) 
0.83

>  <cluster>  (40) 
3

$$$$

     RDKit          3D

 55 58  0  0  0  0  0  0  0  0999 V2000
  140.5170   72.1490  220.9350 O   0  0  0  0  0  0  0  0  0  0  0  0
  140.1550   72.6360  222.0350 C   0  0  0  0  0  0  0  0  0  0  0  0
  139.8540   74.0190  222.1480 N   0  0  0  0  0  0  0  0  0  0  0  0
  139.9570   74.9150  220.9860 C   0  0  0  0  0  0  0  0  0  0  0  0
  141.3480   75.2680  220.7150 C   0  0  0  0  0  0  0  0  0  0  0  0
  142.1970   74.3110  220.8590 O   0  0  0  0  0  0  0  0  0  0  0  0
  141.9080   76.4960  220.3240 N   0  0  0  0  0  0  0  0  0  0  0  0
  142.7940   76.4520  219.0970 C   0  0  0  0  0  0  0  0  0  0  0  0
  142.8650   77.8690  218.6070 C   0  0  1  0  0  0  0  0  0  0  0  0
  142.7050   77.9560  217.2250 O   0  0  0  0  0  0  0  0  0  0  0  0
  141.7470   78.5650  219.3470 C   0  0  0  0  0  0  0  0  0  0  0  0
  141.9230   77.8370  220.7180 C   0  0  1  0  0  0  0  0  0  0  0  0
  140.9680   78.4000  221.6870 C   0  0  0  0  0  0  0  0  0  0  0  0
  139.5140   78.1300  221.4550 C   0  0  0  0  0  0  0  0  0  0  0  0
  138.8530   78.2970  222.8330 C   0  0  0  0  0  0  0  0  0  0  0  0
  139.4010   79.5610  223.4390 C   0  0  0  0  0  0  0  0  0  0  0  0
  140.8410   79.5000  223.8330 C   0  0  0  0  0  0  0  0  0  0  0  0
  141.4170   78.2630  223.0980 C   0  0  0  0  0  0  0  0  0  0  0  0
  140.0400   71.7690  223.2260 C   0  0  0  0  0  0  0  0  0  0  0  0
  139.3650   70.5720  223.1210 C   0  0  0  0  0  0  0  0  0  0  0  0
  139.2600   69.7670  224.2350 C   0  0  0  0  0  0  0  0  0  0  0  0
  139.8140   70.1330  225.4410 C   0  0  0  0  0  0  0  0  0  0  0  0
  139.7090   69.3270  226.5550 C   0  0  0  0  0  0  0  0  0  0  0  0
  140.2740   69.7190  227.7550 C   0  0  0  0  0  0  0  0  0  0  0  0
  140.1530   68.9070  228.8260 F   0  0  0  0  0  0  0  0  0  0  0  0
  140.9360   70.9260  227.7950 C   0  0  0  0  0  0  0  0  0  0  0  0
  141.0480   71.7470  226.6760 C   0  0  0  0  0  0  0  0  0  0  0  0
  140.4780   71.3550  225.4630 C   0  0  0  0  0  0  0  0  0  0  0  0
  140.5930   72.1500  224.4010 N   0  0  0  0  0  0  0  0  0  0  0  0
  139.5600   74.3580  223.0880 H   0  0  0  0  0  0  0  0  0  0  0  0
  139.5365   74.4094  220.1042 H   0  0  0  0  0  0  0  0  0  0  0  0
  139.3993   75.8373  221.2059 H   0  0  0  0  0  0  0  0  0  0  0  0
  143.7971   76.0846  219.3593 H   0  0  0  0  0  0  0  0  0  0  0  0
  142.3963   75.7725  218.3288 H   0  0  0  0  0  0  0  0  0  0  0  0
  143.8468   78.3270  218.7976 H   0  0  0  0  0  0  0  0  0  0  0  0
  143.3330   78.6430  216.9030 H   0  0  0  0  0  0  0  0  0  0  0  0
  141.9092   79.6501  219.4256 H   0  0  0  0  0  0  0  0  0  0  0  0
  140.7488   78.5054  218.8887 H   0  0  0  0  0  0  0  0  0  0  0  0
  142.8389   77.9687  221.3128 H   0  0  0  0  0  0  0  0  0  0  0  0
  141.0021   79.4766  221.4638 H   0  0  0  0  0  0  0  0  0  0  0  0
  139.0969   78.8507  220.7363 H   0  0  0  0  0  0  0  0  0  0  0  0
  139.3421   77.1288  221.0331 H   0  0  0  0  0  0  0  0  0  0  0  0
  137.7616   78.3753  222.7205 H   0  0  0  0  0  0  0  0  0  0  0  0
  139.0669   77.4308  223.4763 H   0  0  0  0  0  0  0  0  0  0  0  0
  139.2823   80.3710  222.7042 H   0  0  0  0  0  0  0  0  0  0  0  0
  138.8351   79.7271  224.3675 H   0  0  0  0  0  0  0  0  0  0  0  0
  141.3654   80.4139  223.5172 H   0  0  0  0  0  0  0  0  0  0  0  0
  140.9637   79.4217  224.9233 H   0  0  0  0  0  0  0  0  0  0  0  0
  142.5156   78.2587  223.1540 H   0  0  0  0  0  0  0  0  0  0  0  0
  141.0714   77.3209  223.5485 H   0  0  0  0  0  0  0  0  0  0  0  0
  138.9176   70.2642  222.1644 H   0  0  0  0  0  0  0  0  0  0  0  0
  138.7215   68.8108  224.1587 H   0  0  0  0  0  0  0  0  0  0  0  0
  139.1737   68.3683  226.4889 H   0  0  0  0  0  0  0  0  0  0  0  0
  141.3911   71.2521  228.7419 H   0  0  0  0  0  0  0  0  0  0  0  0
  141.5854   72.7041  226.7475 H   0  0  0  0  0  0  0  0  0  0  0  0
  1  2  2  0
  2  3  1  0
  3  4  1  0
  4  5  1  0
  5  6  2  0
  5  7  1  0
  7  8  1  0
  8  9  1  0
  9 10  1  0
  9 11  1  0
 11 12  1  0
 12 13  1  0
 13 14  1  0
 14 15  1  0
 15 16  1  0
 16 17  1  0
 17 18  1  0
  2 19  1  0
 19 20  2  0
 20 21  1  0
 21 22  2  0
 22 23  1  0
 23 24  2  0
 24 25  1  0
 24 26  1  0
 26 27  2  0
 27 28  1  0
 28 29  2  0
 12  7  1  0
 18 13  1  0
 29 19  1  0
 28 22  1  0
  3 30  1  0
  4 31  1  0
  4 32  1  0
  8 33  1  0
  8 34  1  0
  9 35  1  6
 10 36  1  0
 11 37  1  0
 11 38  1  0
 12 39  1  1
 13 40  1  0
 14 41  1  0
 14 42  1  0
 15 43  1  0
 15 44  1  0
 16 45  1  0
 16 46  1  0
 17 47  1  0
 17 48  1  0
 18 49  1  0
 18 50  1  0
 20 51  1  0
 21 52  1  0
 23 53  1  0
 26 54  1  0
 27 55  1  0
M  END
>  <smiles>  (41) 
O=C(NCC(=O)N1C[C@@H](O)C[C@H]1C1CCCCC1)c1ccc2cc(F)ccc2n1

>  <score_type>  (41) 
oracle

>  <origin>  (41) 
autodockgpu

>  <m_score__min__energy>  (41) 
-8.9600000000000009

>  <m_primary>  (41) 
energy

>  <rmsd>  (41) 
2.1822693454820303

>  <m_score__min__rmsd>  (41) 
2.1822693454820303

>  <meeko>  (41) 
{"free_energy": -8.33, "intermolecular_energy": -10.12, "internal_energy": -1.4, "cluster_size": 25, "cluster_id": 2, "rank_in_cluster": 18}

>  <energy>  (41) 
-8.33

>  <cluster_rmsd>  (41) 
0.79

>  <cluster>  (41) 
3

$$$$

     RDKit          3D

 55 58  0  0  0  0  0  0  0  0999 V2000
  136.6230   72.9180  223.2150 O   0  0  0  0  0  0  0  0  0  0  0  0
  135.7060   72.6120  224.0180 C   0  0  0  0  0  0  0  0  0  0  0  0
  135.3330   71.2550  224.2040 N   0  0  0  0  0  0  0  0  0  0  0  0
  136.0060   70.1750  223.4660 C   0  0  0  0  0  0  0  0  0  0  0  0
  137.2820   69.8300  224.0880 C   0  0  0  0  0  0  0  0  0  0  0  0
  137.2290   68.8980  224.9730 O   0  0  0  0  0  0  0  0  0  0  0  0
  138.5640   70.3630  223.8700 N   0  0  0  0  0  0  0  0  0  0  0  0
  138.7130   71.2360  222.6420 C   0  0  0  0  0  0  0  0  0  0  0  0
  139.9550   72.0450  222.8780 C   0  0  1  0  0  0  0  0  0  0  0  0
  139.7770   73.3880  222.5490 O   0  0  0  0  0  0  0  0  0  0  0  0
  140.2340   71.8590  224.3510 C   0  0  0  0  0  0  0  0  0  0  0  0
  139.8370   70.3520  224.4470 C   0  0  1  0  0  0  0  0  0  0  0  0
  140.0950   69.8750  225.8160 C   0  0  0  0  0  0  0  0  0  0  0  0
  140.2770   68.4000  226.0070 C   0  0  0  0  0  0  0  0  0  0  0  0
  141.0740   68.2640  227.3140 C   0  0  0  0  0  0  0  0  0  0  0  0
  140.4370   69.1830  228.3220 C   0  0  0  0  0  0  0  0  0  0  0  0
  140.6120   70.6410  228.0470 C   0  0  0  0  0  0  0  0  0  0  0  0
  141.0540   70.7300  226.5640 C   0  0  0  0  0  0  0  0  0  0  0  0
  135.0050   73.6690  224.7770 C   0  0  0  0  0  0  0  0  0  0  0  0
  135.3550   74.9850  224.5710 C   0  0  0  0  0  0  0  0  0  0  0  0
  134.6990   75.9670  225.2820 C   0  0  0  0  0  0  0  0  0  0  0  0
  133.7080   75.6590  226.1860 C   0  0  0  0  0  0  0  0  0  0  0  0
  133.0510   76.6420  226.8980 C   0  0  0  0  0  0  0  0  0  0  0  0
  132.0580   76.3040  227.8000 C   0  0  0  0  0  0  0  0  0  0  0  0
  131.4360   77.2900  228.4800 F   0  0  0  0  0  0  0  0  0  0  0  0
  131.7540   74.9710  227.9590 C   0  0  0  0  0  0  0  0  0  0  0  0
  132.4120   73.9710  227.2470 C   0  0  0  0  0  0  0  0  0  0  0  0
  133.4140   74.3080  226.3350 C   0  0  0  0  0  0  0  0  0  0  0  0
  134.0330   73.3410  225.6600 N   0  0  0  0  0  0  0  0  0  0  0  0
  134.5640   71.0700  224.8840 H   0  0  0  0  0  0  0  0  0  0  0  0
  135.3577   69.2864  223.4588 H   0  0  0  0  0  0  0  0  0  0  0  0
  136.1992   70.5203  222.4396 H   0  0  0  0  0  0  0  0  0  0  0  0
  138.8228   70.6162  221.7399 H   0  0  0  0  0  0  0  0  0  0  0  0
  137.8317   71.8751  222.4844 H   0  0  0  0  0  0  0  0  0  0  0  0
  140.7930   71.7174  222.2452 H   0  0  0  0  0  0  0  0  0  0  0  0
  138.8330   73.6070  222.7250 H   0  0  0  0  0  0  0  0  0  0  0  0
  141.2914   72.0299  224.6014 H   0  0  0  0  0  0  0  0  0  0  0  0
  139.7127   72.5443  225.0355 H   0  0  0  0  0  0  0  0  0  0  0  0
  140.4078   69.5822  223.9070 H   0  0  0  0  0  0  0  0  0  0  0  0
  139.1215   70.0155  226.3084 H   0  0  0  0  0  0  0  0  0  0  0  0
  139.3020   67.8982  226.0946 H   0  0  0  0  0  0  0  0  0  0  0  0
  140.7955   67.9339  225.1562 H   0  0  0  0  0  0  0  0  0  0  0  0
  141.0342   67.2251  227.6732 H   0  0  0  0  0  0  0  0  0  0  0  0
  142.1299   68.5291  227.1566 H   0  0  0  0  0  0  0  0  0  0  0  0
  139.3586   68.9675  228.3465 H   0  0  0  0  0  0  0  0  0  0  0  0
  140.9435   68.9879  229.2788 H   0  0  0  0  0  0  0  0  0  0  0  0
  139.6640   71.1778  228.1989 H   0  0  0  0  0  0  0  0  0  0  0  0
  141.3500   71.0989  228.7220 H   0  0  0  0  0  0  0  0  0  0  0  0
  141.0017   71.7696  226.2082 H   0  0  0  0  0  0  0  0  0  0  0  0
  142.0934   70.3977  226.4256 H   0  0  0  0  0  0  0  0  0  0  0  0
  136.1444   75.2479  223.8515 H   0  0  0  0  0  0  0  0  0  0  0  0
  134.9737   77.0203  225.1233 H   0  0  0  0  0  0  0  0  0  0  0  0
  133.3180   77.6985  226.7476 H   0  0  0  0  0  0  0  0  0  0  0  0
  130.9658   74.6862  228.6715 H   0  0  0  0  0  0  0  0  0  0  0  0
  132.1423   72.9161  227.4031 H   0  0  0  0  0  0  0  0  0  0  0  0
  1  2  2  0
  2  3  1  0
  3  4  1  0
  4  5  1  0
  5  6  2  0
  5  7  1  0
  7  8  1  0
  8  9  1  0
  9 10  1  0
  9 11  1  0
 11 12  1  0
 12 13  1  0
 13 14  1  0
 14 15  1  0
 15 16  1  0
 16 17  1  0
 17 18  1  0
  2 19  1  0
 19 20  2  0
 20 21  1  0
 21 22  2  0
 22 23  1  0
 23 24  2  0
 24 25  1  0
 24 26  1  0
 26 27  2  0
 27 28  1  0
 28 29  2  0
 12  7  1  0
 18 13  1  0
 29 19  1  0
 28 22  1  0
  3 30  1  0
  4 31  1  0
  4 32  1  0
  8 33  1  0
  8 34  1  0
  9 35  1  6
 10 36  1  0
 11 37  1  0
 11 38  1  0
 12 39  1  6
 13 40  1  0
 14 41  1  0
 14 42  1  0
 15 43  1  0
 15 44  1  0
 16 45  1  0
 16 46  1  0
 17 47  1  0
 17 48  1  0
 18 49  1  0
 18 50  1  0
 20 51  1  0
 21 52  1  0
 23 53  1  0
 26 54  1  0
 27 55  1  0
M  END
>  <smiles>  (42) 
O=C(NCC(=O)N1C[C@@H](O)C[C@H]1C1CCCCC1)c1ccc2cc(F)ccc2n1

>  <score_type>  (42) 
oracle

>  <origin>  (42) 
autodockgpu

>  <m_score__min__energy>  (42) 
-8.9600000000000009

>  <m_primary>  (42) 
energy

>  <rmsd>  (42) 
7.866718793422057

>  <m_score__min__rmsd>  (42) 
7.866718793422057

>  <meeko>  (42) 
{"free_energy": -8.36, "intermolecular_energy": -10.15, "internal_energy": -2.22, "cluster_size": 12, "cluster_id": 1, "rank_in_cluster": 7}

>  <energy>  (42) 
-7.63

>  <cluster_rmsd>  (42) 
1.64

>  <cluster>  (42) 
3

$$$$

     RDKit          3D

 55 58  0  0  0  0  0  0  0  0999 V2000
  140.8280   71.8620  221.1630 O   0  0  0  0  0  0  0  0  0  0  0  0
  140.1810   72.2810  222.1560 C   0  0  0  0  0  0  0  0  0  0  0  0
  139.5440   73.5490  222.1190 N   0  0  0  0  0  0  0  0  0  0  0  0
  139.6240   74.4040  220.9240 C   0  0  0  0  0  0  0  0  0  0  0  0
  140.9210   75.0700  220.8400 C   0  0  0  0  0  0  0  0  0  0  0  0
  141.4800   75.3330  221.9700 O   0  0  0  0  0  0  0  0  0  0  0  0
  141.6560   75.4740  219.7130 N   0  0  0  0  0  0  0  0  0  0  0  0
  141.1460   76.7100  219.0030 C   0  0  0  0  0  0  0  0  0  0  0  0
  142.3030   77.2070  218.1870 C   0  0  1  0  0  0  0  0  0  0  0  0
  142.4640   78.5870  218.2910 O   0  0  0  0  0  0  0  0  0  0  0  0
  143.4890   76.4580  218.7470 C   0  0  0  0  0  0  0  0  0  0  0  0
  142.7780   75.0860  218.9740 C   0  0  1  0  0  0  0  0  0  0  0  0
  143.7650   74.1100  219.4650 C   0  0  0  0  0  0  0  0  0  0  0  0
  144.7660   74.5900  220.4690 C   0  0  0  0  0  0  0  0  0  0  0  0
  145.2360   73.3230  221.2020 C   0  0  0  0  0  0  0  0  0  0  0  0
  145.5110   72.2790  220.1540 C   0  0  0  0  0  0  0  0  0  0  0  0
  144.3020   71.7550  219.4500 C   0  0  0  0  0  0  0  0  0  0  0  0
  143.1750   72.7750  219.7540 C   0  0  0  0  0  0  0  0  0  0  0  0
  140.0790   71.4520  223.3740 C   0  0  0  0  0  0  0  0  0  0  0  0
  139.4670   70.2200  223.2960 C   0  0  0  0  0  0  0  0  0  0  0  0
  139.3730   69.4500  224.4360 C   0  0  0  0  0  0  0  0  0  0  0  0
  139.8760   69.8870  225.6410 C   0  0  0  0  0  0  0  0  0  0  0  0
  139.7820   69.1160  226.7820 C   0  0  0  0  0  0  0  0  0  0  0  0
  140.2950   69.5790  227.9800 C   0  0  0  0  0  0  0  0  0  0  0  0
  140.1870   68.8000  229.0770 F   0  0  0  0  0  0  0  0  0  0  0  0
  140.8950   70.8180  227.9920 C   0  0  0  0  0  0  0  0  0  0  0  0
  140.9950   71.6040  226.8460 C   0  0  0  0  0  0  0  0  0  0  0  0
  140.4780   71.1400  225.6350 C   0  0  0  0  0  0  0  0  0  0  0  0
  140.5800   71.9020  224.5480 N   0  0  0  0  0  0  0  0  0  0  0  0
  139.0240   73.8360  222.9750 H   0  0  0  0  0  0  0  0  0  0  0  0
  139.4803   73.7829  220.0276 H   0  0  0  0  0  0  0  0  0  0  0  0
  138.8401   75.1728  220.9913 H   0  0  0  0  0  0  0  0  0  0  0  0
  140.2964   76.4567  218.3518 H   0  0  0  0  0  0  0  0  0  0  0  0
  140.7890   77.4711  219.7124 H   0  0  0  0  0  0  0  0  0  0  0  0
  142.1618   77.0293  217.1107 H   0  0  0  0  0  0  0  0  0  0  0  0
  143.1670   78.8460  217.6510 H   0  0  0  0  0  0  0  0  0  0  0  0
  144.3167   76.3860  218.0261 H   0  0  0  0  0  0  0  0  0  0  0  0
  143.9761   76.9051  219.6261 H   0  0  0  0  0  0  0  0  0  0  0  0
  142.3948   74.5016  218.1245 H   0  0  0  0  0  0  0  0  0  0  0  0
  144.4190   73.9682  218.5919 H   0  0  0  0  0  0  0  0  0  0  0  0
  145.6119   75.0818  219.9664 H   0  0  0  0  0  0  0  0  0  0  0  0
  144.3354   75.3302  221.1594 H   0  0  0  0  0  0  0  0  0  0  0  0
  146.1525   73.5354  221.7720 H   0  0  0  0  0  0  0  0  0  0  0  0
  144.4692   72.9739  221.9092 H   0  0  0  0  0  0  0  0  0  0  0  0
  146.1798   72.7203  219.4004 H   0  0  0  0  0  0  0  0  0  0  0  0
  145.9531   71.4221  220.6834 H   0  0  0  0  0  0  0  0  0  0  0  0
  144.4837   71.6935  218.3668 H   0  0  0  0  0  0  0  0  0  0  0  0
  144.0389   70.7416  219.7875 H   0  0  0  0  0  0  0  0  0  0  0  0
  142.3040   72.5907  219.1079 H   0  0  0  0  0  0  0  0  0  0  0  0
  142.8224   72.6988  220.7932 H   0  0  0  0  0  0  0  0  0  0  0  0
  139.0603   69.8569  222.3406 H   0  0  0  0  0  0  0  0  0  0  0  0
  138.8857   68.4653  224.3816 H   0  0  0  0  0  0  0  0  0  0  0  0
  139.2972   68.1296  226.7383 H   0  0  0  0  0  0  0  0  0  0  0  0
  141.3089   71.1998  228.9370 H   0  0  0  0  0  0  0  0  0  0  0  0
  141.4810   72.5896  226.8953 H   0  0  0  0  0  0  0  0  0  0  0  0
  1  2  2  0
  2  3  1  0
  3  4  1  0
  4  5  1  0
  5  6  2  0
  5  7  1  0
  7  8  1  0
  8  9  1  0
  9 10  1  0
  9 11  1  0
 11 12  1  0
 12 13  1  0
 13 14  1  0
 14 15  1  0
 15 16  1  0
 16 17  1  0
 17 18  1  0
  2 19  1  0
 19 20  2  0
 20 21  1  0
 21 22  2  0
 22 23  1  0
 23 24  2  0
 24 25  1  0
 24 26  1  0
 26 27  2  0
 27 28  1  0
 28 29  2  0
 12  7  1  0
 18 13  1  0
 29 19  1  0
 28 22  1  0
  3 30  1  0
  4 31  1  0
  4 32  1  0
  8 33  1  0
  8 34  1  0
  9 35  1  6
 10 36  1  0
 11 37  1  0
 11 38  1  0
 12 39  1  6
 13 40  1  0
 14 41  1  0
 14 42  1  0
 15 43  1  0
 15 44  1  0
 16 45  1  0
 16 46  1  0
 17 47  1  0
 17 48  1  0
 18 49  1  0
 18 50  1  0
 20 51  1  0
 21 52  1  0
 23 53  1  0
 26 54  1  0
 27 55  1  0
M  END
>  <smiles>  (43) 
O=C(NCC(=O)N1C[C@@H](O)C[C@H]1C1CCCCC1)c1ccc2cc(F)ccc2n1

>  <score_type>  (43) 
oracle

>  <origin>  (43) 
autodockgpu

>  <m_score__min__energy>  (43) 
-8.9600000000000009

>  <m_primary>  (43) 
energy

>  <rmsd>  (43) 
2.0005147783248787

>  <m_score__min__rmsd>  (43) 
2.0005147783248787

>  <meeko>  (43) 
{"free_energy": -8.1, "intermolecular_energy": -9.89, "internal_energy": -1.72, "cluster_size": 25, "cluster_id": 2, "rank_in_cluster": 22}

>  <energy>  (43) 
-7.51

>  <cluster_rmsd>  (43) 
1.62

>  <cluster>  (43) 
3

$$$$

     RDKit          3D

 55 58  0  0  0  0  0  0  0  0999 V2000
  137.1650   72.1250  222.6730 O   0  0  0  0  0  0  0  0  0  0  0  0
  136.3460   71.6960  223.5250 C   0  0  0  0  0  0  0  0  0  0  0  0
  136.1760   70.3000  223.7230 N   0  0  0  0  0  0  0  0  0  0  0  0
  136.9490   69.3230  222.9400 C   0  0  0  0  0  0  0  0  0  0  0  0
  138.2680   69.1030  223.5290 C   0  0  0  0  0  0  0  0  0  0  0  0
  138.4890   67.9090  223.9550 O   0  0  0  0  0  0  0  0  0  0  0  0
  139.3370   69.9980  223.7070 N   0  0  0  0  0  0  0  0  0  0  0  0
  139.6030   70.9410  222.5530 C   0  0  0  0  0  0  0  0  0  0  0  0
  140.4100   72.0650  223.1350 C   0  0  1  0  0  0  0  0  0  0  0  0
  139.9590   73.3120  222.7080 O   0  0  0  0  0  0  0  0  0  0  0  0
  140.2520   71.8890  224.6270 C   0  0  0  0  0  0  0  0  0  0  0  0
  140.3060   70.3290  224.6580 C   0  0  1  0  0  0  0  0  0  0  0  0
  140.2460   69.8740  226.0570 C   0  0  0  0  0  0  0  0  0  0  0  0
  140.6360   68.4560  226.3360 C   0  0  0  0  0  0  0  0  0  0  0  0
  141.0380   68.4370  227.8200 C   0  0  0  0  0  0  0  0  0  0  0  0
  139.9820   69.1980  228.5770 C   0  0  0  0  0  0  0  0  0  0  0  0
  139.9560   70.6690  228.3190 C   0  0  0  0  0  0  0  0  0  0  0  0
  140.7780   70.8740  227.0220 C   0  0  0  0  0  0  0  0  0  0  0  0
  135.5500   72.6450  224.3310 C   0  0  0  0  0  0  0  0  0  0  0  0
  135.7600   73.9980  224.1710 C   0  0  0  0  0  0  0  0  0  0  0  0
  135.0150   74.8800  224.9250 C   0  0  0  0  0  0  0  0  0  0  0  0
  134.0740   74.4370  225.8270 C   0  0  0  0  0  0  0  0  0  0  0  0
  133.3290   75.3200  226.5810 C   0  0  0  0  0  0  0  0  0  0  0  0
  132.3900   74.8480  227.4800 C   0  0  0  0  0  0  0  0  0  0  0  0
  131.6780   75.7390  228.2030 F   0  0  0  0  0  0  0  0  0  0  0  0
  132.2280   73.4860  227.5930 C   0  0  0  0  0  0  0  0  0  0  0  0
  132.9750   72.5860  226.8360 C   0  0  0  0  0  0  0  0  0  0  0  0
  133.9240   73.0580  225.9280 C   0  0  0  0  0  0  0  0  0  0  0  0
  134.6310   72.1860  225.2110 N   0  0  0  0  0  0  0  0  0  0  0  0
  135.4820   70.0110  224.4440 H   0  0  0  0  0  0  0  0  0  0  0  0
  136.4025   68.3687  222.9159 H   0  0  0  0  0  0  0  0  0  0  0  0
  137.0822   69.7178  221.9220 H   0  0  0  0  0  0  0  0  0  0  0  0
  140.1701   70.4298  221.7611 H   0  0  0  0  0  0  0  0  0  0  0  0
  138.6698   71.3014  222.0956 H   0  0  0  0  0  0  0  0  0  0  0  0
  141.4620   72.0325  222.8154 H   0  0  0  0  0  0  0  0  0  0  0  0
  138.9880   73.3410  222.8700 H   0  0  0  0  0  0  0  0  0  0  0  0
  141.0770   72.3474  225.1920 H   0  0  0  0  0  0  0  0  0  0  0  0
  139.3643   72.3542  225.0804 H   0  0  0  0  0  0  0  0  0  0  0  0
  141.2185   69.7909  224.3615 H   0  0  0  0  0  0  0  0  0  0  0  0
  139.1638   69.8186  226.2464 H   0  0  0  0  0  0  0  0  0  0  0  0
  139.7873   67.7795  226.1569 H   0  0  0  0  0  0  0  0  0  0  0  0
  141.4534   68.1167  225.6827 H   0  0  0  0  0  0  0  0  0  0  0  0
  141.0887   67.4000  228.1835 H   0  0  0  0  0  0  0  0  0  0  0  0
  142.0276   68.8957  227.9625 H   0  0  0  0  0  0  0  0  0  0  0  0
  139.0004   68.7858  228.3005 H   0  0  0  0  0  0  0  0  0  0  0  0
  140.2220   69.0775  229.6437 H   0  0  0  0  0  0  0  0  0  0  0  0
  138.9220   71.0168  228.1783 H   0  0  0  0  0  0  0  0  0  0  0  0
  140.3730   71.2395  229.1620 H   0  0  0  0  0  0  0  0  0  0  0  0
  140.6391   71.8943  226.6352 H   0  0  0  0  0  0  0  0  0  0  0  0
  141.8564   70.7430  227.1952 H   0  0  0  0  0  0  0  0  0  0  0  0
  136.5085   74.3675  223.4546 H   0  0  0  0  0  0  0  0  0  0  0  0
  135.1761   75.9613  224.8031 H   0  0  0  0  0  0  0  0  0  0  0  0
  133.4823   76.4032  226.4668 H   0  0  0  0  0  0  0  0  0  0  0  0
  131.4849   73.0954  228.3038 H   0  0  0  0  0  0  0  0  0  0  0  0
  132.8169   71.5038  226.9539 H   0  0  0  0  0  0  0  0  0  0  0  0
  1  2  2  0
  2  3  1  0
  3  4  1  0
  4  5  1  0
  5  6  2  0
  5  7  1  0
  7  8  1  0
  8  9  1  0
  9 10  1  0
  9 11  1  0
 11 12  1  0
 12 13  1  0
 13 14  1  0
 14 15  1  0
 15 16  1  0
 16 17  1  0
 17 18  1  0
  2 19  1  0
 19 20  2  0
 20 21  1  0
 21 22  2  0
 22 23  1  0
 23 24  2  0
 24 25  1  0
 24 26  1  0
 26 27  2  0
 27 28  1  0
 28 29  2  0
 12  7  1  0
 18 13  1  0
 29 19  1  0
 28 22  1  0
  3 30  1  0
  4 31  1  0
  4 32  1  0
  8 33  1  0
  8 34  1  0
  9 35  1  1
 10 36  1  0
 11 37  1  0
 11 38  1  0
 12 39  1  6
 13 40  1  0
 14 41  1  0
 14 42  1  0
 15 43  1  0
 15 44  1  0
 16 45  1  0
 16 46  1  0
 17 47  1  0
 17 48  1  0
 18 49  1  0
 18 50  1  0
 20 51  1  0
 21 52  1  0
 23 53  1  0
 26 54  1  0
 27 55  1  0
M  END
>  <smiles>  (44) 
O=C(NCC(=O)N1C[C@@H](O)C[C@H]1C1CCCCC1)c1ccc2cc(F)ccc2n1

>  <score_type>  (44) 
oracle

>  <origin>  (44) 
autodockgpu

>  <m_score__min__energy>  (44) 
-8.9600000000000009

>  <m_primary>  (44) 
energy

>  <rmsd>  (44) 
7.373058103551912

>  <m_score__min__rmsd>  (44) 
7.373058103551912

>  <meeko>  (44) 
{"free_energy": -8.13, "intermolecular_energy": -9.92, "internal_energy": -2.56, "cluster_size": 12, "cluster_id": 1, "rank_in_cluster": 9}

>  <energy>  (44) 
-7.35

>  <cluster_rmsd>  (44) 
1.59

>  <cluster>  (44) 
3

$$$$

     RDKit          3D

 55 58  0  0  0  0  0  0  0  0999 V2000
  136.4920   73.1260  223.2700 O   0  0  0  0  0  0  0  0  0  0  0  0
  135.6180   72.8440  224.1280 C   0  0  0  0  0  0  0  0  0  0  0  0
  135.2640   71.4920  224.3790 N   0  0  0  0  0  0  0  0  0  0  0  0
  135.9080   70.3900  223.6470 C   0  0  0  0  0  0  0  0  0  0  0  0
  137.1270   69.9520  224.3230 C   0  0  0  0  0  0  0  0  0  0  0  0
  136.9510   69.1300  225.2980 O   0  0  0  0  0  0  0  0  0  0  0  0
  138.4680   70.2920  224.0760 N   0  0  0  0  0  0  0  0  0  0  0  0
  138.7150   71.1310  222.8400 C   0  0  0  0  0  0  0  0  0  0  0  0
  140.0660   71.7520  223.0440 C   0  0  1  0  0  0  0  0  0  0  0  0
  140.0780   73.1050  222.7110 O   0  0  0  0  0  0  0  0  0  0  0  0
  140.3480   71.5310  224.5120 C   0  0  0  0  0  0  0  0  0  0  0  0
  139.7380   70.0980  224.6250 C   0  0  1  0  0  0  0  0  0  0  0  0
  139.9540   69.5920  225.9910 C   0  0  0  0  0  0  0  0  0  0  0  0
  140.3940   68.1680  226.1350 C   0  0  0  0  0  0  0  0  0  0  0  0
  141.0780   68.0990  227.5100 C   0  0  0  0  0  0  0  0  0  0  0  0
  140.1870   68.8200  228.4860 C   0  0  0  0  0  0  0  0  0  0  0  0
  140.1070   70.2990  228.2950 C   0  0  0  0  0  0  0  0  0  0  0  0
  140.6600   70.5610  226.8710 C   0  0  0  0  0  0  0  0  0  0  0  0
  134.9470   73.9220  224.8830 C   0  0  0  0  0  0  0  0  0  0  0  0
  135.3120   75.2300  224.6500 C   0  0  0  0  0  0  0  0  0  0  0  0
  134.6840   76.2330  225.3570 C   0  0  0  0  0  0  0  0  0  0  0  0
  133.7060   75.9530  226.2850 C   0  0  0  0  0  0  0  0  0  0  0  0
  133.0780   76.9560  226.9940 C   0  0  0  0  0  0  0  0  0  0  0  0
  132.0990   76.6480  227.9200 C   0  0  0  0  0  0  0  0  0  0  0  0
  131.5040   77.6530  228.5960 F   0  0  0  0  0  0  0  0  0  0  0  0
  131.7790   75.3220  228.1070 C   0  0  0  0  0  0  0  0  0  0  0  0
  132.4070   74.3010  227.3980 C   0  0  0  0  0  0  0  0  0  0  0  0
  133.3960   74.6090  226.4610 C   0  0  0  0  0  0  0  0  0  0  0  0
  133.9890   73.6220  225.7910 N   0  0  0  0  0  0  0  0  0  0  0  0
  134.5320   71.3260  225.1020 H   0  0  0  0  0  0  0  0  0  0  0  0
  135.2084   69.5435  223.5834 H   0  0  0  0  0  0  0  0  0  0  0  0
  136.1748   70.7470  222.6413 H   0  0  0  0  0  0  0  0  0  0  0  0
  138.7137   70.4994  221.9394 H   0  0  0  0  0  0  0  0  0  0  0  0
  137.9324   71.8909  222.6980 H   0  0  0  0  0  0  0  0  0  0  0  0
  140.8331   71.3048  222.3948 H   0  0  0  0  0  0  0  0  0  0  0  0
  139.2430   73.4960  223.0580 H   0  0  0  0  0  0  0  0  0  0  0  0
  141.4244   71.5467  224.7383 H   0  0  0  0  0  0  0  0  0  0  0  0
  139.9476   72.2866  225.2039 H   0  0  0  0  0  0  0  0  0  0  0  0
  140.1789   69.2524  224.0767 H   0  0  0  0  0  0  0  0  0  0  0  0
  138.9298   69.5193  226.3858 H   0  0  0  0  0  0  0  0  0  0  0  0
  139.5281   67.4905  226.0997 H   0  0  0  0  0  0  0  0  0  0  0  0
  141.0686   67.8602  225.3225 H   0  0  0  0  0  0  0  0  0  0  0  0
  141.2025   67.0501  227.8170 H   0  0  0  0  0  0  0  0  0  0  0  0
  142.0748   68.5628  227.4744 H   0  0  0  0  0  0  0  0  0  0  0  0
  139.1716   68.4082  228.3893 H   0  0  0  0  0  0  0  0  0  0  0  0
  140.6299   68.6623  229.4805 H   0  0  0  0  0  0  0  0  0  0  0  0
  139.0644   70.6411  228.3718 H   0  0  0  0  0  0  0  0  0  0  0  0
  140.6788   70.8419  229.0620 H   0  0  0  0  0  0  0  0  0  0  0  0
  140.4447   71.5933  226.5580 H   0  0  0  0  0  0  0  0  0  0  0  0
  141.7519   70.4357  226.8258 H   0  0  0  0  0  0  0  0  0  0  0  0
  136.0916   75.4699  223.9120 H   0  0  0  0  0  0  0  0  0  0  0  0
  134.9703   77.2795  225.1759 H   0  0  0  0  0  0  0  0  0  0  0  0
  133.3576   78.0058  226.8217 H   0  0  0  0  0  0  0  0  0  0  0  0
  131.0020   75.0605  228.8404 H   0  0  0  0  0  0  0  0  0  0  0  0
  132.1244   73.2529  227.5758 H   0  0  0  0  0  0  0  0  0  0  0  0
  1  2  2  0
  2  3  1  0
  3  4  1  0
  4  5  1  0
  5  6  2  0
  5  7  1  0
  7  8  1  0
  8  9  1  0
  9 10  1  0
  9 11  1  0
 11 12  1  0
 12 13  1  0
 13 14  1  0
 14 15  1  0
 15 16  1  0
 16 17  1  0
 17 18  1  0
  2 19  1  0
 19 20  2  0
 20 21  1  0
 21 22  2  0
 22 23  1  0
 23 24  2  0
 24 25  1  0
 24 26  1  0
 26 27  2  0
 27 28  1  0
 28 29  2  0
 12  7  1  0
 18 13  1  0
 29 19  1  0
 28 22  1  0
  3 30  1  0
  4 31  1  0
  4 32  1  0
  8 33  1  0
  8 34  1  0
  9 35  1  6
 10 36  1  0
 11 37  1  0
 11 38  1  0
 12 39  1  6
 13 40  1  0
 14 41  1  0
 14 42  1  0
 15 43  1  0
 15 44  1  0
 16 45  1  0
 16 46  1  0
 17 47  1  0
 17 48  1  0
 18 49  1  0
 18 50  1  0
 20 51  1  0
 21 52  1  0
 23 53  1  0
 26 54  1  0
 27 55  1  0
M  END
>  <smiles>  (45) 
O=C(NCC(=O)N1C[C@@H](O)C[C@H]1C1CCCCC1)c1ccc2cc(F)ccc2n1

>  <score_type>  (45) 
oracle

>  <origin>  (45) 
autodockgpu

>  <m_score__min__energy>  (45) 
-8.9600000000000009

>  <m_primary>  (45) 
energy

>  <rmsd>  (45) 
8.062736704315016

>  <m_score__min__rmsd>  (45) 
8.062736704315016

>  <meeko>  (45) 
{"free_energy": -8.33, "intermolecular_energy": -10.12, "internal_energy": -1.95, "cluster_size": 12, "cluster_id": 1, "rank_in_cluster": 8}

>  <energy>  (45) 
-8.11

>  <cluster_rmsd>  (45) 
0.0

>  <cluster>  (45) 
4

$$$$

     RDKit          3D

 55 58  0  0  0  0  0  0  0  0999 V2000
  141.2890   72.2580  221.5190 O   0  0  0  0  0  0  0  0  0  0  0  0
  140.3750   72.4860  222.3510 C   0  0  0  0  0  0  0  0  0  0  0  0
  139.5290   73.6160  222.2010 N   0  0  0  0  0  0  0  0  0  0  0  0
  139.6980   74.5460  221.0740 C   0  0  0  0  0  0  0  0  0  0  0  0
  140.3560   75.7780  221.5030 C   0  0  0  0  0  0  0  0  0  0  0  0
  140.0650   76.1710  222.6940 O   0  0  0  0  0  0  0  0  0  0  0  0
  141.2590   76.6050  220.8150 N   0  0  0  0  0  0  0  0  0  0  0  0
  141.8510   76.0210  219.5490 C   0  0  0  0  0  0  0  0  0  0  0  0
  142.3620   77.1970  218.7690 C   0  0  1  0  0  0  0  0  0  0  0  0
  142.0210   77.1210  217.4200 O   0  0  0  0  0  0  0  0  0  0  0  0
  141.7210   78.3860  219.4450 C   0  0  0  0  0  0  0  0  0  0  0  0
  141.8360   77.8740  220.9160 C   0  0  1  0  0  0  0  0  0  0  0  0
  141.3320   78.9150  221.8280 C   0  0  0  0  0  0  0  0  0  0  0  0
  139.8470   79.0280  221.9870 C   0  0  0  0  0  0  0  0  0  0  0  0
  139.6440   79.7210  223.3440 C   0  0  0  0  0  0  0  0  0  0  0  0
  140.6000   80.8820  223.3990 C   0  0  0  0  0  0  0  0  0  0  0  0
  142.0440   80.5090  223.4970 C   0  0  0  0  0  0  0  0  0  0  0  0
  142.1100   79.0140  223.0910 C   0  0  0  0  0  0  0  0  0  0  0  0
  140.1740   71.5750  223.4970 C   0  0  0  0  0  0  0  0  0  0  0  0
  139.4830   70.3990  223.3040 C   0  0  0  0  0  0  0  0  0  0  0  0
  139.2980   69.5520  224.3770 C   0  0  0  0  0  0  0  0  0  0  0  0
  139.7870   69.8590  225.6270 C   0  0  0  0  0  0  0  0  0  0  0  0
  139.6010   69.0120  226.7000 C   0  0  0  0  0  0  0  0  0  0  0  0
  140.1030   69.3440  227.9450 C   0  0  0  0  0  0  0  0  0  0  0  0
  139.9040   68.4930  228.9740 F   0  0  0  0  0  0  0  0  0  0  0  0
  140.7850   70.5330  228.0720 C   0  0  0  0  0  0  0  0  0  0  0  0
  140.9780   71.3960  226.9950 C   0  0  0  0  0  0  0  0  0  0  0  0
  140.4720   71.0640  225.7370 C   0  0  0  0  0  0  0  0  0  0  0  0
  140.6650   71.8980  224.7170 N   0  0  0  0  0  0  0  0  0  0  0  0
  138.7920   73.7470  222.9260 H   0  0  0  0  0  0  0  0  0  0  0  0
  140.3103   74.0630  220.2983 H   0  0  0  0  0  0  0  0  0  0  0  0
  138.7035   74.8004  220.6787 H   0  0  0  0  0  0  0  0  0  0  0  0
  142.6741   75.3326  219.7909 H   0  0  0  0  0  0  0  0  0  0  0  0
  141.1087   75.4432  218.9788 H   0  0  0  0  0  0  0  0  0  0  0  0
  143.4606   77.2524  218.7699 H   0  0  0  0  0  0  0  0  0  0  0  0
  142.6010   77.7560  216.9390 H   0  0  0  0  0  0  0  0  0  0  0  0
  142.2856   79.3155  219.2802 H   0  0  0  0  0  0  0  0  0  0  0  0
  140.7115   78.6555  219.1011 H   0  0  0  0  0  0  0  0  0  0  0  0
  142.8197   77.7236  221.3848 H   0  0  0  0  0  0  0  0  0  0  0  0
  141.5391   79.8431  221.2750 H   0  0  0  0  0  0  0  0  0  0  0  0
  139.4162   79.6330  221.1756 H   0  0  0  0  0  0  0  0  0  0  0  0
  139.3511   78.0470  221.9457 H   0  0  0  0  0  0  0  0  0  0  0  0
  138.6084   80.0812  223.4319 H   0  0  0  0  0  0  0  0  0  0  0  0
  139.8321   79.0211  224.1715 H   0  0  0  0  0  0  0  0  0  0  0  0
  140.4635   81.4797  222.4857 H   0  0  0  0  0  0  0  0  0  0  0  0
  140.3620   81.4319  224.3215 H   0  0  0  0  0  0  0  0  0  0  0  0
  142.6474   81.1214  222.8108 H   0  0  0  0  0  0  0  0  0  0  0  0
  142.4428   80.6769  224.5083 H   0  0  0  0  0  0  0  0  0  0  0  0
  143.1529   78.7053  222.9262 H   0  0  0  0  0  0  0  0  0  0  0  0
  141.7037   78.3581  223.8751 H   0  0  0  0  0  0  0  0  0  0  0  0
  139.0857   70.1399  222.3115 H   0  0  0  0  0  0  0  0  0  0  0  0
  138.7478   68.6108  224.2308 H   0  0  0  0  0  0  0  0  0  0  0  0
  139.0512   68.0689  226.5646 H   0  0  0  0  0  0  0  0  0  0  0  0
  141.1909   70.8110  229.0558 H   0  0  0  0  0  0  0  0  0  0  0  0
  141.5285   72.3379  227.1360 H   0  0  0  0  0  0  0  0  0  0  0  0
  1  2  2  0
  2  3  1  0
  3  4  1  0
  4  5  1  0
  5  6  2  0
  5  7  1  0
  7  8  1  0
  8  9  1  0
  9 10  1  0
  9 11  1  0
 11 12  1  0
 12 13  1  0
 13 14  1  0
 14 15  1  0
 15 16  1  0
 16 17  1  0
 17 18  1  0
  2 19  1  0
 19 20  2  0
 20 21  1  0
 21 22  2  0
 22 23  1  0
 23 24  2  0
 24 25  1  0
 24 26  1  0
 26 27  2  0
 27 28  1  0
 28 29  2  0
 12  7  1  0
 18 13  1  0
 29 19  1  0
 28 22  1  0
  3 30  1  0
  4 31  1  0
  4 32  1  0
  8 33  1  0
  8 34  1  0
  9 35  1  6
 10 36  1  0
 11 37  1  0
 11 38  1  0
 12 39  1  1
 13 40  1  0
 14 41  1  0
 14 42  1  0
 15 43  1  0
 15 44  1  0
 16 45  1  0
 16 46  1  0
 17 47  1  0
 17 48  1  0
 18 49  1  0
 18 50  1  0
 20 51  1  0
 21 52  1  0
 23 53  1  0
 26 54  1  0
 27 55  1  0
M  END
>  <smiles>  (46) 
O=C(NCC(=O)N1C[C@@H](O)C[C@H]1C1CCCCC1)c1ccc2cc(F)ccc2n1

>  <score_type>  (46) 
oracle

>  <origin>  (46) 
autodockgpu

>  <m_score__min__energy>  (46) 
-8.9600000000000009

>  <m_primary>  (46) 
energy

>  <rmsd>  (46) 
1.8701831462747955

>  <m_score__min__rmsd>  (46) 
1.8701831462747955

>  <meeko>  (46) 
{"free_energy": -8.75, "intermolecular_energy": -10.54, "internal_energy": -1.38, "cluster_size": 25, "cluster_id": 2, "rank_in_cluster": 1}

>  <energy>  (46) 
-7.96

>  <cluster_rmsd>  (46) 
0.58

>  <cluster>  (46) 
4

$$$$

     RDKit          3D

 55 58  0  0  0  0  0  0  0  0999 V2000
  140.7530   71.7890  221.1820 O   0  0  0  0  0  0  0  0  0  0  0  0
  140.3030   72.2770  222.2490 C   0  0  0  0  0  0  0  0  0  0  0  0
  139.9370   73.6470  222.3170 N   0  0  0  0  0  0  0  0  0  0  0  0
  140.0740   74.5280  221.1470 C   0  0  0  0  0  0  0  0  0  0  0  0
  140.6070   75.8330  221.5310 C   0  0  0  0  0  0  0  0  0  0  0  0
  140.2910   76.2310  222.7140 O   0  0  0  0  0  0  0  0  0  0  0  0
  141.4130   76.7270  220.8060 N   0  0  0  0  0  0  0  0  0  0  0  0
  141.9610   76.2020  219.4950 C   0  0  0  0  0  0  0  0  0  0  0  0
  142.3490   77.4210  218.7100 C   0  0  1  0  0  0  0  0  0  0  0  0
  141.9300   77.3470  217.3830 O   0  0  0  0  0  0  0  0  0  0  0  0
  141.6790   78.5560  219.4480 C   0  0  0  0  0  0  0  0  0  0  0  0
  141.9170   78.0270  220.8980 C   0  0  1  0  0  0  0  0  0  0  0  0
  141.4070   79.0190  221.8600 C   0  0  0  0  0  0  0  0  0  0  0  0
  139.9230   79.0970  222.0460 C   0  0  0  0  0  0  0  0  0  0  0  0
  139.7280   79.7280  223.4340 C   0  0  0  0  0  0  0  0  0  0  0  0
  140.6630   80.9040  223.5240 C   0  0  0  0  0  0  0  0  0  0  0  0
  142.1140   80.5550  223.5850 C   0  0  0  0  0  0  0  0  0  0  0  0
  142.2030   79.0800  223.1150 C   0  0  0  0  0  0  0  0  0  0  0  0
  140.1520   71.4250  223.4460 C   0  0  0  0  0  0  0  0  0  0  0  0
  139.5560   70.1890  223.3170 C   0  0  0  0  0  0  0  0  0  0  0  0
  139.4160   69.3980  224.4370 C   0  0  0  0  0  0  0  0  0  0  0  0
  139.8580   69.8160  225.6720 C   0  0  0  0  0  0  0  0  0  0  0  0
  139.7180   69.0240  226.7930 C   0  0  0  0  0  0  0  0  0  0  0  0
  140.1700   69.4680  228.0220 C   0  0  0  0  0  0  0  0  0  0  0  0
  140.0180   68.6690  229.0990 F   0  0  0  0  0  0  0  0  0  0  0  0
  140.7570   70.7130  228.0850 C   0  0  0  0  0  0  0  0  0  0  0  0
  140.9030   71.5210  226.9590 C   0  0  0  0  0  0  0  0  0  0  0  0
  140.4470   71.0750  225.7170 C   0  0  0  0  0  0  0  0  0  0  0  0
  140.5940   71.8580  224.6500 N   0  0  0  0  0  0  0  0  0  0  0  0
  139.5710   73.9890  223.2310 H   0  0  0  0  0  0  0  0  0  0  0  0
  140.7570   74.0599  220.4228 H   0  0  0  0  0  0  0  0  0  0  0  0
  139.0791   74.6743  220.7013 H   0  0  0  0  0  0  0  0  0  0  0  0
  142.8385   75.5630  219.6728 H   0  0  0  0  0  0  0  0  0  0  0  0
  141.2225   75.5876  218.9591 H   0  0  0  0  0  0  0  0  0  0  0  0
  143.4401   77.5449  218.6455 H   0  0  0  0  0  0  0  0  0  0  0  0
  142.0170   78.2500  217.0000 H   0  0  0  0  0  0  0  0  0  0  0  0
  142.1738   79.5219  219.2684 H   0  0  0  0  0  0  0  0  0  0  0  0
  140.6354   78.7676  219.1720 H   0  0  0  0  0  0  0  0  0  0  0  0
  142.9354   77.9300  221.3023 H   0  0  0  0  0  0  0  0  0  0  0  0
  141.5869   79.9729  221.3425 H   0  0  0  0  0  0  0  0  0  0  0  0
  139.4685   79.7274  221.2675 H   0  0  0  0  0  0  0  0  0  0  0  0
  139.4449   78.1092  221.9706 H   0  0  0  0  0  0  0  0  0  0  0  0
  138.6873   80.0641  223.5523 H   0  0  0  0  0  0  0  0  0  0  0  0
  139.9418   78.9977  224.2283 H   0  0  0  0  0  0  0  0  0  0  0  0
  140.5014   81.5367  222.6388 H   0  0  0  0  0  0  0  0  0  0  0  0
  140.4290   81.4103  224.4721 H   0  0  0  0  0  0  0  0  0  0  0  0
  142.6952   81.2075  222.9169 H   0  0  0  0  0  0  0  0  0  0  0  0
  142.5243   80.6873  224.5970 H   0  0  0  0  0  0  0  0  0  0  0  0
  143.2490   78.7997  222.9218 H   0  0  0  0  0  0  0  0  0  0  0  0
  141.8221   78.3834  223.8764 H   0  0  0  0  0  0  0  0  0  0  0  0
  139.1983   69.8399  222.3371 H   0  0  0  0  0  0  0  0  0  0  0  0
  138.9405   68.4107  224.3420 H   0  0  0  0  0  0  0  0  0  0  0  0
  139.2446   68.0347  226.7086 H   0  0  0  0  0  0  0  0  0  0  0  0
  141.1221   71.0809  229.0552 H   0  0  0  0  0  0  0  0  0  0  0  0
  141.3772   72.5095  227.0487 H   0  0  0  0  0  0  0  0  0  0  0  0
  1  2  2  0
  2  3  1  0
  3  4  1  0
  4  5  1  0
  5  6  2  0
  5  7  1  0
  7  8  1  0
  8  9  1  0
  9 10  1  0
  9 11  1  0
 11 12  1  0
 12 13  1  0
 13 14  1  0
 14 15  1  0
 15 16  1  0
 16 17  1  0
 17 18  1  0
  2 19  1  0
 19 20  2  0
 20 21  1  0
 21 22  2  0
 22 23  1  0
 23 24  2  0
 24 25  1  0
 24 26  1  0
 26 27  2  0
 27 28  1  0
 28 29  2  0
 12  7  1  0
 18 13  1  0
 29 19  1  0
 28 22  1  0
  3 30  1  0
  4 31  1  0
  4 32  1  0
  8 33  1  0
  8 34  1  0
  9 35  1  6
 10 36  1  0
 11 37  1  0
 11 38  1  0
 12 39  1  1
 13 40  1  0
 14 41  1  0
 14 42  1  0
 15 43  1  0
 15 44  1  0
 16 45  1  0
 16 46  1  0
 17 47  1  0
 17 48  1  0
 18 49  1  0
 18 50  1  0
 20 51  1  0
 21 52  1  0
 23 53  1  0
 26 54  1  0
 27 55  1  0
M  END
>  <smiles>  (47) 
O=C(NCC(=O)N1C[C@@H](O)C[C@H]1C1CCCCC1)c1ccc2cc(F)ccc2n1

>  <score_type>  (47) 
oracle

>  <origin>  (47) 
autodockgpu

>  <m_score__min__energy>  (47) 
-8.9600000000000009

>  <m_primary>  (47) 
energy

>  <rmsd>  (47) 
1.9223733944244006

>  <m_score__min__rmsd>  (47) 
1.9223733944244006

>  <meeko>  (47) 
{"free_energy": -8.62, "intermolecular_energy": -10.41, "internal_energy": -1.68, "cluster_size": 25, "cluster_id": 2, "rank_in_cluster": 6}

>  <energy>  (47) 
-7.86

>  <cluster_rmsd>  (47) 
0.0

>  <cluster>  (47) 
5

$$$$

     RDKit          3D

 55 58  0  0  0  0  0  0  0  0999 V2000
  140.3780   73.5480  222.2420 O   0  0  0  0  0  0  0  0  0  0  0  0
  140.2930   72.2980  222.1440 C   0  0  0  0  0  0  0  0  0  0  0  0
  140.3080   71.6720  220.8690 N   0  0  0  0  0  0  0  0  0  0  0  0
  140.4220   72.4650  219.6350 C   0  0  0  0  0  0  0  0  0  0  0  0
  141.8170   72.5980  219.2230 C   0  0  0  0  0  0  0  0  0  0  0  0
  142.0730   72.2250  218.0180 O   0  0  0  0  0  0  0  0  0  0  0  0
  142.9290   73.0700  219.9410 N   0  0  0  0  0  0  0  0  0  0  0  0
  143.9460   72.0220  220.3410 C   0  0  0  0  0  0  0  0  0  0  0  0
  145.2060   72.7810  220.6360 C   0  0  1  0  0  0  0  0  0  0  0  0
  146.3280   72.1770  220.0730 O   0  0  0  0  0  0  0  0  0  0  0  0
  144.9500   74.1500  220.0490 C   0  0  0  0  0  0  0  0  0  0  0  0
  143.4440   74.2660  220.4480 C   0  0  1  0  0  0  0  0  0  0  0  0
  142.9420   75.5910  220.0450 C   0  0  0  0  0  0  0  0  0  0  0  0
  143.3060   76.0770  218.6760 C   0  0  0  0  0  0  0  0  0  0  0  0
  142.2320   77.1180  218.3250 C   0  0  0  0  0  0  0  0  0  0  0  0
  142.0610   78.0060  219.5280 C   0  0  0  0  0  0  0  0  0  0  0  0
  141.4280   77.3500  220.7120 C   0  0  0  0  0  0  0  0  0  0  0  0
  141.5290   75.8270  220.4420 C   0  0  0  0  0  0  0  0  0  0  0  0
  140.1770   71.4660  223.3590 C   0  0  0  0  0  0  0  0  0  0  0  0
  139.5630   70.2350  223.2720 C   0  0  0  0  0  0  0  0  0  0  0  0
  139.4570   69.4630  224.4090 C   0  0  0  0  0  0  0  0  0  0  0  0
  139.9490   69.8950  225.6200 C   0  0  0  0  0  0  0  0  0  0  0  0
  139.8420   69.1220  226.7580 C   0  0  0  0  0  0  0  0  0  0  0  0
  140.3450   69.5810  227.9620 C   0  0  0  0  0  0  0  0  0  0  0  0
  140.2240   68.8000  229.0560 F   0  0  0  0  0  0  0  0  0  0  0  0
  140.9470   70.8190  227.9830 C   0  0  0  0  0  0  0  0  0  0  0  0
  141.0600   71.6070  226.8400 C   0  0  0  0  0  0  0  0  0  0  0  0
  140.5530   71.1480  225.6230 C   0  0  0  0  0  0  0  0  0  0  0  0
  140.6680   71.9120  224.5390 N   0  0  0  0  0  0  0  0  0  0  0  0
  140.2350   70.6330  220.8580 H   0  0  0  0  0  0  0  0  0  0  0  0
  139.8567   71.9664  218.8339 H   0  0  0  0  0  0  0  0  0  0  0  0
  140.0167   73.4695  219.8263 H   0  0  0  0  0  0  0  0  0  0  0  0
  143.6065   71.4777  221.2346 H   0  0  0  0  0  0  0  0  0  0  0  0
  144.0954   71.2738  219.5486 H   0  0  0  0  0  0  0  0  0  0  0  0
  145.4279   72.8177  221.7128 H   0  0  0  0  0  0  0  0  0  0  0  0
  146.6340   71.4870  220.7060 H   0  0  0  0  0  0  0  0  0  0  0  0
  145.5686   74.9291  220.5185 H   0  0  0  0  0  0  0  0  0  0  0  0
  145.1817   74.2730  218.9807 H   0  0  0  0  0  0  0  0  0  0  0  0
  143.1421   74.3024  221.5051 H   0  0  0  0  0  0  0  0  0  0  0  0
  143.5452   76.2756  220.6594 H   0  0  0  0  0  0  0  0  0  0  0  0
  144.3044   76.5387  218.6824 H   0  0  0  0  0  0  0  0  0  0  0  0
  143.3425   75.2577  217.9429 H   0  0  0  0  0  0  0  0  0  0  0  0
  142.5547   77.7148  217.4591 H   0  0  0  0  0  0  0  0  0  0  0  0
  141.2828   76.6265  218.0651 H   0  0  0  0  0  0  0  0  0  0  0  0
  143.0552   78.3677  219.8292 H   0  0  0  0  0  0  0  0  0  0  0  0
  141.3778   78.8116  219.2210 H   0  0  0  0  0  0  0  0  0  0  0  0
  141.9684   77.6142  221.6330 H   0  0  0  0  0  0  0  0  0  0  0  0
  140.3854   77.6727  220.8496 H   0  0  0  0  0  0  0  0  0  0  0  0
  141.2840   75.2577  221.3508 H   0  0  0  0  0  0  0  0  0  0  0  0
  140.8245   75.5015  219.6624 H   0  0  0  0  0  0  0  0  0  0  0  0
  139.1646   69.8750  222.3120 H   0  0  0  0  0  0  0  0  0  0  0  0
  138.9682   68.4795  224.3473 H   0  0  0  0  0  0  0  0  0  0  0  0
  139.3548   68.1370  226.7075 H   0  0  0  0  0  0  0  0  0  0  0  0
  141.3518   71.1980  228.9330 H   0  0  0  0  0  0  0  0  0  0  0  0
  141.5487   72.5909  226.8963 H   0  0  0  0  0  0  0  0  0  0  0  0
  1  2  2  0
  2  3  1  0
  3  4  1  0
  4  5  1  0
  5  6  2  0
  5  7  1  0
  7  8  1  0
  8  9  1  0
  9 10  1  0
  9 11  1  0
 11 12  1  0
 12 13  1  0
 13 14  1  0
 14 15  1  0
 15 16  1  0
 16 17  1  0
 17 18  1  0
  2 19  1  0
 19 20  2  0
 20 21  1  0
 21 22  2  0
 22 23  1  0
 23 24  2  0
 24 25  1  0
 24 26  1  0
 26 27  2  0
 27 28  1  0
 28 29  2  0
 12  7  1  0
 18 13  1  0
 29 19  1  0
 28 22  1  0
  3 30  1  0
  4 31  1  0
  4 32  1  0
  8 33  1  0
  8 34  1  0
  9 35  1  1
 10 36  1  0
 11 37  1  0
 11 38  1  0
 12 39  1  1
 13 40  1  0
 14 41  1  0
 14 42  1  0
 15 43  1  0
 15 44  1  0
 16 45  1  0
 16 46  1  0
 17 47  1  0
 17 48  1  0
 18 49  1  0
 18 50  1  0
 20 51  1  0
 21 52  1  0
 23 53  1  0
 26 54  1  0
 27 55  1  0
M  END
>  <smiles>  (48) 
O=C(NCC(=O)N1C[C@@H](O)C[C@H]1C1CCCCC1)c1ccc2cc(F)ccc2n1

>  <score_type>  (48) 
oracle

>  <origin>  (48) 
autodockgpu

>  <m_score__min__energy>  (48) 
-8.9600000000000009

>  <m_primary>  (48) 
energy

>  <rmsd>  (48) 
3.5595798615494885

>  <m_score__min__rmsd>  (48) 
3.5595798615494885

>  <meeko>  (48) 
{"free_energy": -8.37, "intermolecular_energy": -10.16, "internal_energy": -1.64, "cluster_size": 7, "cluster_id": 3, "rank_in_cluster": 2}

>  <energy>  (48) 
-7.74

>  <cluster_rmsd>  (48) 
0.36

>  <cluster>  (48) 
5

$$$$

     RDKit          3D

 55 58  0  0  0  0  0  0  0  0999 V2000
  141.3650   72.7010  221.9840 O   0  0  0  0  0  0  0  0  0  0  0  0
  140.2930   72.5890  222.6320 C   0  0  0  0  0  0  0  0  0  0  0  0
  139.1760   73.4090  222.3240 N   0  0  0  0  0  0  0  0  0  0  0  0
  139.2410   74.4070  221.2460 C   0  0  0  0  0  0  0  0  0  0  0  0
  139.6390   75.7140  221.7630 C   0  0  0  0  0  0  0  0  0  0  0  0
  140.8220   75.7700  222.2680 O   0  0  0  0  0  0  0  0  0  0  0  0
  138.9270   76.9250  221.7980 N   0  0  0  0  0  0  0  0  0  0  0  0
  137.4180   76.8000  221.8120 C   0  0  0  0  0  0  0  0  0  0  0  0
  136.9140   78.1160  222.3260 C   0  0  1  0  0  0  0  0  0  0  0  0
  135.9090   77.9590  223.2790 O   0  0  0  0  0  0  0  0  0  0  0  0
  138.1430   78.7730  222.9090 C   0  0  0  0  0  0  0  0  0  0  0  0
  139.1620   78.3030  221.8230 C   0  0  1  0  0  0  0  0  0  0  0  0
  140.4820   78.8870  222.1170 C   0  0  0  0  0  0  0  0  0  0  0  0
  141.1780   79.6080  221.0050 C   0  0  0  0  0  0  0  0  0  0  0  0
  142.1620   80.5610  221.7020 C   0  0  0  0  0  0  0  0  0  0  0  0
  142.8600   79.7720  222.7770 C   0  0  0  0  0  0  0  0  0  0  0  0
  141.9980   79.3770  223.9320 C   0  0  0  0  0  0  0  0  0  0  0  0
  140.5400   79.5640  223.4400 C   0  0  0  0  0  0  0  0  0  0  0  0
  140.1890   71.5980  223.7230 C   0  0  0  0  0  0  0  0  0  0  0  0
  139.5980   70.3800  223.4660 C   0  0  0  0  0  0  0  0  0  0  0  0
  139.5020   69.4580  224.4870 C   0  0  0  0  0  0  0  0  0  0  0  0
  139.9820   69.7320  225.7490 C   0  0  0  0  0  0  0  0  0  0  0  0
  139.8860   68.8100  226.7710 C   0  0  0  0  0  0  0  0  0  0  0  0
  140.3760   69.1100  228.0280 C   0  0  0  0  0  0  0  0  0  0  0  0
  140.2660   68.1860  229.0060 F   0  0  0  0  0  0  0  0  0  0  0  0
  140.9550   70.3440  228.2210 C   0  0  0  0  0  0  0  0  0  0  0  0
  141.0570   71.2820  227.1960 C   0  0  0  0  0  0  0  0  0  0  0  0
  140.5630   70.9830  225.9250 C   0  0  0  0  0  0  0  0  0  0  0  0
  140.6680   71.8890  224.9550 N   0  0  0  0  0  0  0  0  0  0  0  0
  138.3190   73.2650  222.8990 H   0  0  0  0  0  0  0  0  0  0  0  0
  139.9755   74.0784  220.4960 H   0  0  0  0  0  0  0  0  0  0  0  0
  138.2422   74.4992  220.7944 H   0  0  0  0  0  0  0  0  0  0  0  0
  137.0380   76.6122  220.7970 H   0  0  0  0  0  0  0  0  0  0  0  0
  137.0829   75.9605  222.4389 H   0  0  0  0  0  0  0  0  0  0  0  0
  136.4473   78.7205  221.5343 H   0  0  0  0  0  0  0  0  0  0  0  0
  135.8860   78.7850  223.8150 H   0  0  0  0  0  0  0  0  0  0  0  0
  138.0518   79.8684  222.9511 H   0  0  0  0  0  0  0  0  0  0  0  0
  138.3864   78.5136  223.9499 H   0  0  0  0  0  0  0  0  0  0  0  0
  139.0724   78.6452  220.7814 H   0  0  0  0  0  0  0  0  0  0  0  0
  141.1260   77.9995  222.2039 H   0  0  0  0  0  0  0  0  0  0  0  0
  141.7180   78.8974  220.3620 H   0  0  0  0  0  0  0  0  0  0  0  0
  140.4715   80.1463  220.3562 H   0  0  0  0  0  0  0  0  0  0  0  0
  142.8963   80.9411  220.9766 H   0  0  0  0  0  0  0  0  0  0  0  0
  141.6318   81.4233  222.1325 H   0  0  0  0  0  0  0  0  0  0  0  0
  143.2608   78.8547  222.3211 H   0  0  0  0  0  0  0  0  0  0  0  0
  143.6383   80.4327  223.1865 H   0  0  0  0  0  0  0  0  0  0  0  0
  142.1799   78.3275  224.2068 H   0  0  0  0  0  0  0  0  0  0  0  0
  142.2090   79.9823  224.8259 H   0  0  0  0  0  0  0  0  0  0  0  0
  139.8335   79.0978  224.1426 H   0  0  0  0  0  0  0  0  0  0  0  0
  140.2643   80.6265  223.3692 H   0  0  0  0  0  0  0  0  0  0  0  0
  139.2095   70.1471  222.4636 H   0  0  0  0  0  0  0  0  0  0  0  0
  139.0322   68.4831  224.2896 H   0  0  0  0  0  0  0  0  0  0  0  0
  139.4176   67.8323  226.5846 H   0  0  0  0  0  0  0  0  0  0  0  0
  141.3496   70.5974  229.2160 H   0  0  0  0  0  0  0  0  0  0  0  0
  141.5267   72.2580  227.3881 H   0  0  0  0  0  0  0  0  0  0  0  0
  1  2  2  0
  2  3  1  0
  3  4  1  0
  4  5  1  0
  5  6  2  0
  5  7  1  0
  7  8  1  0
  8  9  1  0
  9 10  1  0
  9 11  1  0
 11 12  1  0
 12 13  1  0
 13 14  1  0
 14 15  1  0
 15 16  1  0
 16 17  1  0
 17 18  1  0
  2 19  1  0
 19 20  2  0
 20 21  1  0
 21 22  2  0
 22 23  1  0
 23 24  2  0
 24 25  1  0
 24 26  1  0
 26 27  2  0
 27 28  1  0
 28 29  2  0
 12  7  1  0
 18 13  1  0
 29 19  1  0
 28 22  1  0
  3 30  1  0
  4 31  1  0
  4 32  1  0
  8 33  1  0
  8 34  1  0
  9 35  1  6
 10 36  1  0
 11 37  1  0
 11 38  1  0
 12 39  1  6
 13 40  1  0
 14 41  1  0
 14 42  1  0
 15 43  1  0
 15 44  1  0
 16 45  1  0
 16 46  1  0
 17 47  1  0
 17 48  1  0
 18 49  1  0
 18 50  1  0
 20 51  1  0
 21 52  1  0
 23 53  1  0
 26 54  1  0
 27 55  1  0
M  END
>  <smiles>  (49) 
O=C(NCC(=O)N1C[C@@H](O)C[C@H]1C1CCCCC1)c1ccc2cc(F)ccc2n1

>  <score_type>  (49) 
oracle

>  <origin>  (49) 
autodockgpu

>  <m_score__min__energy>  (49) 
-8.9600000000000009

>  <m_primary>  (49) 
energy

>  <rmsd>  (49) 
2.9079490428095713

>  <m_score__min__rmsd>  (49) 
2.9079490428095713

>  <meeko>  (49) 
{"free_energy": -8.53, "intermolecular_energy": -10.32, "internal_energy": -1.23, "cluster_size": 25, "cluster_id": 2, "rank_in_cluster": 10}

>  <energy>  (49) 
-7.59

>  <cluster_rmsd>  (49) 
0.4

>  <cluster>  (49) 
5

$$$$

     RDKit          3D

 55 58  0  0  0  0  0  0  0  0999 V2000
  140.8260   71.8040  221.1780 O   0  0  0  0  0  0  0  0  0  0  0  0
  140.3420   72.2970  222.2280 C   0  0  0  0  0  0  0  0  0  0  0  0
  139.9510   73.6610  222.2700 N   0  0  0  0  0  0  0  0  0  0  0  0
  140.1000   74.5310  221.0930 C   0  0  0  0  0  0  0  0  0  0  0  0
  140.5760   75.8570  221.4770 C   0  0  0  0  0  0  0  0  0  0  0  0
  140.1970   76.2640  222.6380 O   0  0  0  0  0  0  0  0  0  0  0  0
  141.3860   76.7640  220.7720 N   0  0  0  0  0  0  0  0  0  0  0  0
  141.9500   76.2590  219.4610 C   0  0  0  0  0  0  0  0  0  0  0  0
  142.3410   77.4890  218.6950 C   0  0  1  0  0  0  0  0  0  0  0  0
  141.9370   77.4290  217.3630 O   0  0  0  0  0  0  0  0  0  0  0  0
  141.6570   78.6120  219.4400 C   0  0  0  0  0  0  0  0  0  0  0  0
  141.8820   78.0660  220.8860 C   0  0  1  0  0  0  0  0  0  0  0  0
  141.3570   79.0430  221.8550 C   0  0  0  0  0  0  0  0  0  0  0  0
  139.8700   79.1140  222.0220 C   0  0  0  0  0  0  0  0  0  0  0  0
  139.6550   79.7260  223.4160 C   0  0  0  0  0  0  0  0  0  0  0  0
  140.5850   80.9030  223.5340 C   0  0  0  0  0  0  0  0  0  0  0  0
  142.0360   80.5580  223.6090 C   0  0  0  0  0  0  0  0  0  0  0  0
  142.1350   79.0900  223.1210 C   0  0  0  0  0  0  0  0  0  0  0  0
  140.1770   71.4560  223.4320 C   0  0  0  0  0  0  0  0  0  0  0  0
  139.5410   70.2390  223.3160 C   0  0  0  0  0  0  0  0  0  0  0  0
  139.3890   69.4590  224.4420 C   0  0  0  0  0  0  0  0  0  0  0  0
  139.8570   69.8690  225.6700 C   0  0  0  0  0  0  0  0  0  0  0  0
  139.7040   69.0880  226.7970 C   0  0  0  0  0  0  0  0  0  0  0  0
  140.1840   69.5240  228.0180 C   0  0  0  0  0  0  0  0  0  0  0  0
  140.0190   68.7360  229.1010 F   0  0  0  0  0  0  0  0  0  0  0  0
  140.8110   70.7500  228.0670 C   0  0  0  0  0  0  0  0  0  0  0  0
  140.9700   71.5470  226.9360 C   0  0  0  0  0  0  0  0  0  0  0  0
  140.4860   71.1090  225.7010 C   0  0  0  0  0  0  0  0  0  0  0  0
  140.6460   71.8810  224.6280 N   0  0  0  0  0  0  0  0  0  0  0  0
  139.5580   74.0070  223.1720 H   0  0  0  0  0  0  0  0  0  0  0  0
  140.8229   74.0766  220.3995 H   0  0  0  0  0  0  0  0  0  0  0  0
  139.1171   74.6384  220.6109 H   0  0  0  0  0  0  0  0  0  0  0  0
  142.8285   75.6217  219.6400 H   0  0  0  0  0  0  0  0  0  0  0  0
  141.2196   75.6487  218.9096 H   0  0  0  0  0  0  0  0  0  0  0  0
  143.4321   77.6190  218.6436 H   0  0  0  0  0  0  0  0  0  0  0  0
  142.6500   77.8460  216.8250 H   0  0  0  0  0  0  0  0  0  0  0  0
  142.1489   79.5824  219.2778 H   0  0  0  0  0  0  0  0  0  0  0  0
  140.6154   78.8220  219.1553 H   0  0  0  0  0  0  0  0  0  0  0  0
  142.8964   77.9693  221.3004 H   0  0  0  0  0  0  0  0  0  0  0  0
  141.5426   80.0041  221.3532 H   0  0  0  0  0  0  0  0  0  0  0  0
  139.4239   79.7534  221.2460 H   0  0  0  0  0  0  0  0  0  0  0  0
  139.3959   78.1260  221.9269 H   0  0  0  0  0  0  0  0  0  0  0  0
  138.6119   80.0576  223.5251 H   0  0  0  0  0  0  0  0  0  0  0  0
  139.8606   78.9857  224.2032 H   0  0  0  0  0  0  0  0  0  0  0  0
  140.4327   81.5472  222.6555 H   0  0  0  0  0  0  0  0  0  0  0  0
  140.3373   81.3953  224.4860 H   0  0  0  0  0  0  0  0  0  0  0  0
  142.6236   81.2209  222.9569 H   0  0  0  0  0  0  0  0  0  0  0  0
  142.4333   80.6785  224.6276 H   0  0  0  0  0  0  0  0  0  0  0  0
  143.1843   78.8147  222.9387 H   0  0  0  0  0  0  0  0  0  0  0  0
  141.7451   78.3828  223.8679 H   0  0  0  0  0  0  0  0  0  0  0  0
  139.1614   69.8963  222.3421 H   0  0  0  0  0  0  0  0  0  0  0  0
  138.8821   68.4864  224.3575 H   0  0  0  0  0  0  0  0  0  0  0  0
  139.1979   68.1141  226.7237 H   0  0  0  0  0  0  0  0  0  0  0  0
  141.1987   71.1111  229.0310 H   0  0  0  0  0  0  0  0  0  0  0  0
  141.4762   72.5204  227.0151 H   0  0  0  0  0  0  0  0  0  0  0  0
  1  2  2  0
  2  3  1  0
  3  4  1  0
  4  5  1  0
  5  6  2  0
  5  7  1  0
  7  8  1  0
  8  9  1  0
  9 10  1  0
  9 11  1  0
 11 12  1  0
 12 13  1  0
 13 14  1  0
 14 15  1  0
 15 16  1  0
 16 17  1  0
 17 18  1  0
  2 19  1  0
 19 20  2  0
 20 21  1  0
 21 22  2  0
 22 23  1  0
 23 24  2  0
 24 25  1  0
 24 26  1  0
 26 27  2  0
 27 28  1  0
 28 29  2  0
 12  7  1  0
 18 13  1  0
 29 19  1  0
 28 22  1  0
  3 30  1  0
  4 31  1  0
  4 32  1  0
  8 33  1  0
  8 34  1  0
  9 35  1  6
 10 36  1  0
 11 37  1  0
 11 38  1  0
 12 39  1  1
 13 40  1  0
 14 41  1  0
 14 42  1  0
 15 43  1  0
 15 44  1  0
 16 45  1  0
 16 46  1  0
 17 47  1  0
 17 48  1  0
 18 49  1  0
 18 50  1  0
 20 51  1  0
 21 52  1  0
 23 53  1  0
 26 54  1  0
 27 55  1  0
M  END
>  <smiles>  (50) 
O=C(NCC(=O)N1C[C@@H](O)C[C@H]1C1CCCCC1)c1ccc2cc(F)ccc2n1

>  <score_type>  (50) 
oracle

>  <origin>  (50) 
autodockgpu

>  <m_score__min__energy>  (50) 
-8.9600000000000009

>  <m_primary>  (50) 
energy

>  <rmsd>  (50) 
1.9421439889361707

>  <m_score__min__rmsd>  (50) 
1.9421439889361707

>  <meeko>  (50) 
{"free_energy": -8.66, "intermolecular_energy": -10.45, "internal_energy": -1.65, "cluster_size": 25, "cluster_id": 2, "rank_in_cluster": 4}

>  <energy>  (50) 
-7.54

>  <cluster_rmsd>  (50) 
0.43

>  <cluster>  (50) 
5

$$$$
