
     RDKit          3D

 47 50  0  0  0  0  0  0  0  0999 V2000
  140.8130   71.5440  221.3130 O   0  0  0  0  0  0  0  0  0  0  0  0
  140.2490   72.0800  222.3110 C   0  0  0  0  0  0  0  0  0  0  0  0
  139.7200   73.3790  222.2180 N   0  0  0  0  0  0  0  0  0  0  0  0
  139.7820   74.1750  221.0050 C   0  0  0  0  0  0  0  0  0  0  0  0
  138.7310   75.2320  221.1020 C   0  0  0  0  0  0  0  0  0  0  0  0
  137.5110   74.9500  220.9650 O   0  0  0  0  0  0  0  0  0  0  0  0
  139.1670   76.5750  221.3560 N   0  0  0  0  0  0  0  0  0  0  0  0
  138.8680   77.7910  220.6670 C   0  0  0  0  0  0  0  0  0  0  0  0
  138.6520   78.7840  221.7720 C   0  0  0  0  0  0  0  0  0  0  0  0
  139.5560   78.3050  222.8630 C   0  0  2  0  0  0  0  0  0  0  0  0
  140.6090   79.3040  223.1010 C   0  0  0  0  0  0  0  0  0  0  0  0
  141.9280   78.9380  222.8210 C   0  0  0  0  0  0  0  0  0  0  0  0
  142.9510   79.8460  223.0290 C   0  0  0  0  0  0  0  0  0  0  0  0
  142.6130   81.0970  223.5140 C   0  0  0  0  0  0  0  0  0  0  0  0
  141.3320   81.4310  223.7780 N   0  0  0  0  0  0  0  0  0  0  0  0
  140.3170   80.5530  223.5810 C   0  0  0  0  0  0  0  0  0  0  0  0
  140.0660   76.9510  222.4500 C   0  0  0  0  0  0  0  0  0  0  0  0
  140.1420   71.3430  223.5840 C   0  0  0  0  0  0  0  0  0  0  0  0
  139.5600   70.0900  223.6180 C   0  0  0  0  0  0  0  0  0  0  0  0
  139.4710   69.4130  224.8400 C   0  0  0  0  0  0  0  0  0  0  0  0
  139.9720   70.0170  225.9960 C   0  0  0  0  0  0  0  0  0  0  0  0
  139.9000   69.3700  227.2240 C   0  0  0  0  0  0  0  0  0  0  0  0
  140.4070   70.0000  228.3440 C   0  0  0  0  0  0  0  0  0  0  0  0
  140.9840   71.2540  228.2860 C   0  0  0  0  0  0  0  0  0  0  0  0
  141.0550   71.8940  227.0610 C   0  0  0  0  0  0  0  0  0  0  0  0
  140.5510   71.2750  225.9280 C   0  0  0  0  0  0  0  0  0  0  0  0
  140.6160   71.8930  224.7330 N   0  0  0  0  0  0  0  0  0  0  0  0
  139.2630   73.7800  223.0700 H   0  0  0  0  0  0  0  0  0  0  0  0
  140.7743   74.6406  220.9126 H   0  0  0  0  0  0  0  0  0  0  0  0
  139.6131   73.5434  220.1204 H   0  0  0  0  0  0  0  0  0  0  0  0
  139.7083   78.0949  220.0256 H   0  0  0  0  0  0  0  0  0  0  0  0
  137.9976   77.6997  220.0006 H   0  0  0  0  0  0  0  0  0  0  0  0
  138.9312   79.7975  221.4483 H   0  0  0  0  0  0  0  0  0  0  0  0
  137.6002   78.8473  222.0878 H   0  0  0  0  0  0  0  0  0  0  0  0
  139.0400   78.1909  223.8278 H   0  0  0  0  0  0  0  0  0  0  0  0
  142.1522   77.9320  222.4367 H   0  0  0  0  0  0  0  0  0  0  0  0
  143.9975   79.5823  222.8160 H   0  0  0  0  0  0  0  0  0  0  0  0
  143.4075   81.8374  223.6887 H   0  0  0  0  0  0  0  0  0  0  0  0
  139.2782   80.8390  223.8027 H   0  0  0  0  0  0  0  0  0  0  0  0
  141.1077   77.0111  222.1018 H   0  0  0  0  0  0  0  0  0  0  0  0
  140.0718   76.2221  223.2739 H   0  0  0  0  0  0  0  0  0  0  0  0
  139.1718   69.6307  222.6969 H   0  0  0  0  0  0  0  0  0  0  0  0
  139.0110   68.4150  224.8897 H   0  0  0  0  0  0  0  0  0  0  0  0
  139.4460   68.3712  227.3029 H   0  0  0  0  0  0  0  0  0  0  0  0
  140.3494   69.4859  229.3148 H   0  0  0  0  0  0  0  0  0  0  0  0
  141.3785   71.7334  229.1940 H   0  0  0  0  0  0  0  0  0  0  0  0
  141.5107   72.8924  226.9867 H   0  0  0  0  0  0  0  0  0  0  0  0
  1  2  2  0
  2  3  1  0
  3  4  1  0
  4  5  1  0
  5  6  2  0
  5  7  1  0
  7  8  1  0
  8  9  1  0
  9 10  1  0
 10 11  1  0
 11 12  2  0
 12 13  1  0
 13 14  2  0
 14 15  1  0
 15 16  2  0
 10 17  1  0
  2 18  1  0
 18 19  2  0
 19 20  1  0
 20 21  2  0
 21 22  1  0
 22 23  2  0
 23 24  1  0
 24 25  2  0
 25 26  1  0
 26 27  2  0
 17  7  1  0
 27 18  1  0
 16 11  1  0
 26 21  1  0
  3 28  1  0
  4 29  1  0
  4 30  1  0
  8 31  1  0
  8 32  1  0
  9 33  1  0
  9 34  1  0
 10 35  1  1
 12 36  1  0
 13 37  1  0
 14 38  1  0
 16 39  1  0
 17 40  1  0
 17 41  1  0
 19 42  1  0
 20 43  1  0
 22 44  1  0
 23 45  1  0
 24 46  1  0
 25 47  1  0
M  END
>  <smiles>  (1) 
O=C(NCC(=O)N1CC[C@H](c2cccnc2)C1)c1ccc2ccccc2n1

>  <score_type>  (1) 
oracle

>  <origin>  (1) 
autodockgpu

>  <m_score__min__energy>  (1) 
-9.0199999999999996

>  <m_primary>  (1) 
energy

>  <rmsd>  (1) 
3.1449571918046337

>  <m_score__min__rmsd>  (1) 
3.1449571918046337

>  <meeko>  (1) 
{"free_energy": -8.48, "intermolecular_energy": -9.97, "internal_energy": -1.11, "cluster_size": 42, "cluster_id": 1, "rank_in_cluster": 30}

>  <energy>  (1) 
-9.02

>  <cluster_rmsd>  (1) 
0.0

>  <cluster>  (1) 
1

$$$$

     RDKit          3D

 47 50  0  0  0  0  0  0  0  0999 V2000
  139.9740   71.4260  221.2260 O   0  0  0  0  0  0  0  0  0  0  0  0
  139.8520   72.0270  222.3330 C   0  0  0  0  0  0  0  0  0  0  0  0
  139.6570   73.4180  222.3730 N   0  0  0  0  0  0  0  0  0  0  0  0
  139.5840   74.2420  221.1790 C   0  0  0  0  0  0  0  0  0  0  0  0
  140.7900   75.1240  221.1630 C   0  0  0  0  0  0  0  0  0  0  0  0
  140.7510   76.2860  221.6470 O   0  0  0  0  0  0  0  0  0  0  0  0
  141.9860   74.5940  220.5740 N   0  0  0  0  0  0  0  0  0  0  0  0
  143.0880   75.2630  219.9550 C   0  0  0  0  0  0  0  0  0  0  0  0
  144.2900   74.5300  220.4760 C   0  0  0  0  0  0  0  0  0  0  0  0
  143.7950   73.1340  220.6800 C   0  0  2  0  0  0  0  0  0  0  0  0
  144.4960   72.2260  219.7590 C   0  0  0  0  0  0  0  0  0  0  0  0
  144.2870   70.8540  219.9130 C   0  0  0  0  0  0  0  0  0  0  0  0
  144.9250   69.9620  219.0690 C   0  0  0  0  0  0  0  0  0  0  0  0
  145.7580   70.4830  218.0940 C   0  0  0  0  0  0  0  0  0  0  0  0
  145.9470   71.8130  217.9620 N   0  0  0  0  0  0  0  0  0  0  0  0
  145.3290   72.7010  218.7820 C   0  0  0  0  0  0  0  0  0  0  0  0
  142.3010   73.1650  220.5040 C   0  0  0  0  0  0  0  0  0  0  0  0
  139.9130   71.2660  223.5960 C   0  0  0  0  0  0  0  0  0  0  0  0
  139.4940   69.9500  223.6390 C   0  0  0  0  0  0  0  0  0  0  0  0
  139.5630   69.2530  224.8510 C   0  0  0  0  0  0  0  0  0  0  0  0
  140.0530   69.9010  225.9870 C   0  0  0  0  0  0  0  0  0  0  0  0
  140.1340   69.2360  227.2050 C   0  0  0  0  0  0  0  0  0  0  0  0
  140.6240   69.9110  228.3060 C   0  0  0  0  0  0  0  0  0  0  0  0
  141.0360   71.2280  228.2390 C   0  0  0  0  0  0  0  0  0  0  0  0
  140.9540   71.8860  227.0250 C   0  0  0  0  0  0  0  0  0  0  0  0
  140.4650   71.2220  225.9110 C   0  0  0  0  0  0  0  0  0  0  0  0
  140.3820   71.8580  224.7260 N   0  0  0  0  0  0  0  0  0  0  0  0
  139.5610   73.8690  223.3120 H   0  0  0  0  0  0  0  0  0  0  0  0
  139.5744   73.6038  220.2831 H   0  0  0  0  0  0  0  0  0  0  0  0
  138.6645   74.8457  221.1824 H   0  0  0  0  0  0  0  0  0  0  0  0
  143.0272   75.1871  218.8593 H   0  0  0  0  0  0  0  0  0  0  0  0
  143.1144   76.3390  220.1819 H   0  0  0  0  0  0  0  0  0  0  0  0
  145.1104   74.5519  219.7435 H   0  0  0  0  0  0  0  0  0  0  0  0
  144.6951   74.9766  221.3960 H   0  0  0  0  0  0  0  0  0  0  0  0
  144.0074   72.7478  221.6878 H   0  0  0  0  0  0  0  0  0  0  0  0
  143.6172   70.4833  220.7029 H   0  0  0  0  0  0  0  0  0  0  0  0
  144.7754   68.8769  219.1694 H   0  0  0  0  0  0  0  0  0  0  0  0
  146.2786   69.7965  217.4101 H   0  0  0  0  0  0  0  0  0  0  0  0
  145.4945   73.7820  218.6636 H   0  0  0  0  0  0  0  0  0  0  0  0
  142.0096   72.7439  219.5305 H   0  0  0  0  0  0  0  0  0  0  0  0
  141.7652   72.5675  221.2563 H   0  0  0  0  0  0  0  0  0  0  0  0
  139.1115   69.4568  222.7332 H   0  0  0  0  0  0  0  0  0  0  0  0
  139.2344   68.2048  224.9081 H   0  0  0  0  0  0  0  0  0  0  0  0
  139.8126   68.1875  227.2908 H   0  0  0  0  0  0  0  0  0  0  0  0
  140.6883   69.3822  229.2684 H   0  0  0  0  0  0  0  0  0  0  0  0
  141.4210   71.7423  229.1319 H   0  0  0  0  0  0  0  0  0  0  0  0
  141.2764   72.9346  226.9439 H   0  0  0  0  0  0  0  0  0  0  0  0
  1  2  2  0
  2  3  1  0
  3  4  1  0
  4  5  1  0
  5  6  2  0
  5  7  1  0
  7  8  1  0
  8  9  1  0
  9 10  1  0
 10 11  1  0
 11 12  2  0
 12 13  1  0
 13 14  2  0
 14 15  1  0
 15 16  2  0
 10 17  1  0
  2 18  1  0
 18 19  2  0
 19 20  1  0
 20 21  2  0
 21 22  1  0
 22 23  2  0
 23 24  1  0
 24 25  2  0
 25 26  1  0
 26 27  2  0
 17  7  1  0
 27 18  1  0
 16 11  1  0
 26 21  1  0
  3 28  1  0
  4 29  1  0
  4 30  1  0
  8 31  1  0
  8 32  1  0
  9 33  1  0
  9 34  1  0
 10 35  1  1
 12 36  1  0
 13 37  1  0
 14 38  1  0
 16 39  1  0
 17 40  1  0
 17 41  1  0
 19 42  1  0
 20 43  1  0
 22 44  1  0
 23 45  1  0
 24 46  1  0
 25 47  1  0
M  END
>  <smiles>  (2) 
O=C(NCC(=O)N1CC[C@H](c2cccnc2)C1)c1ccc2ccccc2n1

>  <score_type>  (2) 
oracle

>  <origin>  (2) 
autodockgpu

>  <m_score__min__energy>  (2) 
-9.0199999999999996

>  <m_primary>  (2) 
energy

>  <rmsd>  (2) 
2.837661590270679

>  <m_score__min__rmsd>  (2) 
2.837661590270679

>  <meeko>  (2) 
{"free_energy": -8.06, "intermolecular_energy": -9.55, "internal_energy": -1.49, "cluster_size": 1, "cluster_id": 3, "rank_in_cluster": 1}

>  <energy>  (2) 
-8.98

>  <cluster_rmsd>  (2) 
0.22

>  <cluster>  (2) 
1

$$$$

     RDKit          3D

 47 50  0  0  0  0  0  0  0  0999 V2000
  139.8780   73.4760  222.4180 O   0  0  0  0  0  0  0  0  0  0  0  0
  140.3770   72.3130  222.4410 C   0  0  0  0  0  0  0  0  0  0  0  0
  141.0780   71.8150  221.3290 N   0  0  0  0  0  0  0  0  0  0  0  0
  141.2750   72.5790  220.1090 C   0  0  0  0  0  0  0  0  0  0  0  0
  142.6020   73.2570  220.2070 C   0  0  0  0  0  0  0  0  0  0  0  0
  143.6730   72.5960  220.1730 O   0  0  0  0  0  0  0  0  0  0  0  0
  142.6030   74.6850  220.3430 N   0  0  0  0  0  0  0  0  0  0  0  0
  143.4370   75.6720  219.7290 C   0  0  0  0  0  0  0  0  0  0  0  0
  142.4810   76.7720  219.3670 C   0  0  0  0  0  0  0  0  0  0  0  0
  141.4280   76.6920  220.4270 C   0  0  2  0  0  0  0  0  0  0  0  0
  141.4570   77.9190  221.2390 C   0  0  0  0  0  0  0  0  0  0  0  0
  141.1190   77.8120  222.5900 C   0  0  0  0  0  0  0  0  0  0  0  0
  141.1330   78.9400  223.3930 C   0  0  0  0  0  0  0  0  0  0  0  0
  141.4860   80.1420  222.8060 C   0  0  0  0  0  0  0  0  0  0  0  0
  141.8090   80.2240  221.4980 N   0  0  0  0  0  0  0  0  0  0  0  0
  141.8000   79.1280  220.6970 C   0  0  0  0  0  0  0  0  0  0  0  0
  141.6790   75.4280  221.2030 C   0  0  0  0  0  0  0  0  0  0  0  0
  140.2250   71.4680  223.6410 C   0  0  0  0  0  0  0  0  0  0  0  0
  139.5740   70.2520  223.5600 C   0  0  0  0  0  0  0  0  0  0  0  0
  139.4420   69.4710  224.7130 C   0  0  0  0  0  0  0  0  0  0  0  0
  139.9720   69.9370  225.9200 C   0  0  0  0  0  0  0  0  0  0  0  0
  139.8590   69.1840  227.0830 C   0  0  0  0  0  0  0  0  0  0  0  0
  140.3960   69.6790  228.2560 C   0  0  0  0  0  0  0  0  0  0  0  0
  141.0420   70.8980  228.3130 C   0  0  0  0  0  0  0  0  0  0  0  0
  141.1530   71.6440  227.1520 C   0  0  0  0  0  0  0  0  0  0  0  0
  140.6200   71.1610  225.9680 C   0  0  0  0  0  0  0  0  0  0  0  0
  140.7240   71.8820  224.8350 N   0  0  0  0  0  0  0  0  0  0  0  0
  141.4730   70.8490  221.3970 H   0  0  0  0  0  0  0  0  0  0  0  0
  141.2616   71.9058  219.2391 H   0  0  0  0  0  0  0  0  0  0  0  0
  140.4719   73.3203  219.9848 H   0  0  0  0  0  0  0  0  0  0  0  0
  144.2012   76.0327  220.4332 H   0  0  0  0  0  0  0  0  0  0  0  0
  143.9878   75.2832  218.8598 H   0  0  0  0  0  0  0  0  0  0  0  0
  142.9835   77.7503  219.3867 H   0  0  0  0  0  0  0  0  0  0  0  0
  142.0720   76.6635  218.3517 H   0  0  0  0  0  0  0  0  0  0  0  0
  140.4091   76.6383  220.0159 H   0  0  0  0  0  0  0  0  0  0  0  0
  140.8428   76.8355  223.0144 H   0  0  0  0  0  0  0  0  0  0  0  0
  140.8726   78.8824  224.4602 H   0  0  0  0  0  0  0  0  0  0  0  0
  141.5039   81.0540  223.4208 H   0  0  0  0  0  0  0  0  0  0  0  0
  142.0635   79.2101  219.6322 H   0  0  0  0  0  0  0  0  0  0  0  0
  142.1383   75.6483  222.1779 H   0  0  0  0  0  0  0  0  0  0  0  0
  140.7580   74.8708  221.4294 H   0  0  0  0  0  0  0  0  0  0  0  0
  139.1646   69.9024  222.6007 H   0  0  0  0  0  0  0  0  0  0  0  0
  138.9265   68.5002  224.6705 H   0  0  0  0  0  0  0  0  0  0  0  0
  139.3499   68.2090  227.0697 H   0  0  0  0  0  0  0  0  0  0  0  0
  140.3058   69.0818  229.1754 H   0  0  0  0  0  0  0  0  0  0  0  0
  141.4596   71.2686  229.2608 H   0  0  0  0  0  0  0  0  0  0  0  0
  141.6634   72.6183  227.1696 H   0  0  0  0  0  0  0  0  0  0  0  0
  1  2  2  0
  2  3  1  0
  3  4  1  0
  4  5  1  0
  5  6  2  0
  5  7  1  0
  7  8  1  0
  8  9  1  0
  9 10  1  0
 10 11  1  0
 11 12  2  0
 12 13  1  0
 13 14  2  0
 14 15  1  0
 15 16  2  0
 10 17  1  0
  2 18  1  0
 18 19  2  0
 19 20  1  0
 20 21  2  0
 21 22  1  0
 22 23  2  0
 23 24  1  0
 24 25  2  0
 25 26  1  0
 26 27  2  0
 17  7  1  0
 27 18  1  0
 16 11  1  0
 26 21  1  0
  3 28  1  0
  4 29  1  0
  4 30  1  0
  8 31  1  0
  8 32  1  0
  9 33  1  0
  9 34  1  0
 10 35  1  6
 12 36  1  0
 13 37  1  0
 14 38  1  0
 16 39  1  0
 17 40  1  0
 17 41  1  0
 19 42  1  0
 20 43  1  0
 22 44  1  0
 23 45  1  0
 24 46  1  0
 25 47  1  0
M  END
>  <smiles>  (3) 
O=C(NCC(=O)N1CC[C@H](c2cccnc2)C1)c1ccc2ccccc2n1

>  <score_type>  (3) 
oracle

>  <origin>  (3) 
autodockgpu

>  <m_score__min__energy>  (3) 
-9.0199999999999996

>  <m_primary>  (3) 
energy

>  <rmsd>  (3) 
2.636517800640167

>  <m_score__min__rmsd>  (3) 
2.636517800640167

>  <meeko>  (3) 
{"free_energy": -8.36, "intermolecular_energy": -9.85, "internal_energy": -1.18, "cluster_size": 42, "cluster_id": 1, "rank_in_cluster": 37}

>  <energy>  (3) 
-8.95

>  <cluster_rmsd>  (3) 
0.15

>  <cluster>  (3) 
1

$$$$

     RDKit          3D

 47 50  0  0  0  0  0  0  0  0999 V2000
  139.2610   71.0440  221.3070 O   0  0  0  0  0  0  0  0  0  0  0  0
  139.4330   71.6980  222.3770 C   0  0  0  0  0  0  0  0  0  0  0  0
  139.4240   73.1030  222.3630 N   0  0  0  0  0  0  0  0  0  0  0  0
  139.2230   73.8830  221.1540 C   0  0  0  0  0  0  0  0  0  0  0  0
  140.4960   74.6080  220.8640 C   0  0  0  0  0  0  0  0  0  0  0  0
  141.5030   73.9990  220.4170 O   0  0  0  0  0  0  0  0  0  0  0  0
  140.5230   76.0200  221.1170 N   0  0  0  0  0  0  0  0  0  0  0  0
  140.0740   77.1130  220.3110 C   0  0  0  0  0  0  0  0  0  0  0  0
  139.3990   78.0270  221.2930 C   0  0  0  0  0  0  0  0  0  0  0  0
  140.1550   77.8050  222.5640 C   0  0  2  0  0  0  0  0  0  0  0  0
  140.8540   79.0430  222.9410 C   0  0  0  0  0  0  0  0  0  0  0  0
  142.2480   79.0590  222.8380 C   0  0  0  0  0  0  0  0  0  0  0  0
  142.9480   80.2030  223.1800 C   0  0  0  0  0  0  0  0  0  0  0  0
  142.2210   81.2960  223.6180 C   0  0  0  0  0  0  0  0  0  0  0  0
  140.8750   81.2590  223.7100 N   0  0  0  0  0  0  0  0  0  0  0  0
  140.1730   80.1460  223.3790 C   0  0  0  0  0  0  0  0  0  0  0  0
  141.0590   76.6240  222.3390 C   0  0  0  0  0  0  0  0  0  0  0  0
  139.6450   70.9860  223.6520 C   0  0  0  0  0  0  0  0  0  0  0  0
  139.3410   69.6430  223.7600 C   0  0  0  0  0  0  0  0  0  0  0  0
  139.5510   68.9920  224.9800 C   0  0  0  0  0  0  0  0  0  0  0  0
  140.0630   69.7140  226.0620 C   0  0  0  0  0  0  0  0  0  0  0  0
  140.2840   69.0970  227.2880 C   0  0  0  0  0  0  0  0  0  0  0  0
  140.7920   69.8450  228.3330 C   0  0  0  0  0  0  0  0  0  0  0  0
  141.0880   71.1870  228.2010 C   0  0  0  0  0  0  0  0  0  0  0  0
  140.8660   71.7980  226.9790 C   0  0  0  0  0  0  0  0  0  0  0  0
  140.3580   71.0610  225.9220 C   0  0  0  0  0  0  0  0  0  0  0  0
  140.1400   71.6500  224.7290 N   0  0  0  0  0  0  0  0  0  0  0  0
  139.5700   73.6000  223.2730 H   0  0  0  0  0  0  0  0  0  0  0  0
  138.9722   73.2165  220.3156 H   0  0  0  0  0  0  0  0  0  0  0  0
  138.3960   74.5957  221.2886 H   0  0  0  0  0  0  0  0  0  0  0  0
  140.9229   77.6170  219.8258 H   0  0  0  0  0  0  0  0  0  0  0  0
  139.4065   76.7954  219.4964 H   0  0  0  0  0  0  0  0  0  0  0  0
  139.4758   79.0755  220.9693 H   0  0  0  0  0  0  0  0  0  0  0  0
  138.3234   77.8212  221.3961 H   0  0  0  0  0  0  0  0  0  0  0  0
  139.5005   77.5699  223.4163 H   0  0  0  0  0  0  0  0  0  0  0  0
  142.7863   78.1663  222.4867 H   0  0  0  0  0  0  0  0  0  0  0  0
  144.0448   80.2421  223.1061 H   0  0  0  0  0  0  0  0  0  0  0  0
  142.7530   82.2172  223.8979 H   0  0  0  0  0  0  0  0  0  0  0  0
  139.0762   80.1307  223.4613 H   0  0  0  0  0  0  0  0  0  0  0  0
  142.1008   76.9465  222.1954 H   0  0  0  0  0  0  0  0  0  0  0  0
  141.0797   75.9283  223.1908 H   0  0  0  0  0  0  0  0  0  0  0  0
  138.9387   69.0921  222.8971 H   0  0  0  0  0  0  0  0  0  0  0  0
  139.3157   67.9228  225.0870 H   0  0  0  0  0  0  0  0  0  0  0  0
  140.0578   68.0292  227.4242 H   0  0  0  0  0  0  0  0  0  0  0  0
  140.9664   69.3549  229.3022 H   0  0  0  0  0  0  0  0  0  0  0  0
  141.4919   71.7589  229.0494 H   0  0  0  0  0  0  0  0  0  0  0  0
  141.0925   72.8664  226.8476 H   0  0  0  0  0  0  0  0  0  0  0  0
  1  2  2  0
  2  3  1  0
  3  4  1  0
  4  5  1  0
  5  6  2  0
  5  7  1  0
  7  8  1  0
  8  9  1  0
  9 10  1  0
 10 11  1  0
 11 12  2  0
 12 13  1  0
 13 14  2  0
 14 15  1  0
 15 16  2  0
 10 17  1  0
  2 18  1  0
 18 19  2  0
 19 20  1  0
 20 21  2  0
 21 22  1  0
 22 23  2  0
 23 24  1  0
 24 25  2  0
 25 26  1  0
 26 27  2  0
 17  7  1  0
 27 18  1  0
 16 11  1  0
 26 21  1  0
  3 28  1  0
  4 29  1  0
  4 30  1  0
  8 31  1  0
  8 32  1  0
  9 33  1  0
  9 34  1  0
 10 35  1  1
 12 36  1  0
 13 37  1  0
 14 38  1  0
 16 39  1  0
 17 40  1  0
 17 41  1  0
 19 42  1  0
 20 43  1  0
 22 44  1  0
 23 45  1  0
 24 46  1  0
 25 47  1  0
M  END
>  <smiles>  (4) 
O=C(NCC(=O)N1CC[C@H](c2cccnc2)C1)c1ccc2ccccc2n1

>  <score_type>  (4) 
oracle

>  <origin>  (4) 
autodockgpu

>  <m_score__min__energy>  (4) 
-9.0199999999999996

>  <m_primary>  (4) 
energy

>  <rmsd>  (4) 
2.771589488099566

>  <m_score__min__rmsd>  (4) 
2.771589488099566

>  <meeko>  (4) 
{"free_energy": -8.53, "intermolecular_energy": -10.02, "internal_energy": -1.3, "cluster_size": 42, "cluster_id": 1, "rank_in_cluster": 26}

>  <energy>  (4) 
-8.91

>  <cluster_rmsd>  (4) 
1.23

>  <cluster>  (4) 
1

$$$$

     RDKit          3D

 47 50  0  0  0  0  0  0  0  0999 V2000
  141.0230   73.0120  222.3290 O   0  0  0  0  0  0  0  0  0  0  0  0
  139.9350   72.5690  222.7990 C   0  0  0  0  0  0  0  0  0  0  0  0
  138.7040   73.0660  222.3400 N   0  0  0  0  0  0  0  0  0  0  0  0
  138.5950   74.0960  221.3210 C   0  0  0  0  0  0  0  0  0  0  0  0
  138.3260   75.3910  222.0120 C   0  0  0  0  0  0  0  0  0  0  0  0
  137.1830   75.6610  222.4660 O   0  0  0  0  0  0  0  0  0  0  0  0
  139.4200   76.3120  222.1370 N   0  0  0  0  0  0  0  0  0  0  0  0
  140.8180   76.1230  221.9060 C   0  0  0  0  0  0  0  0  0  0  0  0
  141.2350   77.3770  221.1920 C   0  0  0  0  0  0  0  0  0  0  0  0
  140.3180   78.4220  221.7430 C   0  0  2  0  0  0  0  0  0  0  0  0
  141.1020   79.4120  222.4970 C   0  0  0  0  0  0  0  0  0  0  0  0
  141.0610   80.7400  222.0650 C   0  0  0  0  0  0  0  0  0  0  0  0
  141.7820   81.7070  222.7450 C   0  0  0  0  0  0  0  0  0  0  0  0
  142.5240   81.3030  223.8410 C   0  0  0  0  0  0  0  0  0  0  0  0
  142.5510   80.0140  224.2420 N   0  0  0  0  0  0  0  0  0  0  0  0
  141.8490   79.0550  223.5870 C   0  0  0  0  0  0  0  0  0  0  0  0
  139.2730   77.7080  222.5550 C   0  0  0  0  0  0  0  0  0  0  0  0
  139.9530   71.5210  223.8380 C   0  0  0  0  0  0  0  0  0  0  0  0
  139.4610   70.2590  223.5650 C   0  0  0  0  0  0  0  0  0  0  0  0
  139.4880   69.2850  224.5690 C   0  0  0  0  0  0  0  0  0  0  0  0
  140.0120   69.6090  225.8230 C   0  0  0  0  0  0  0  0  0  0  0  0
  140.0540   68.6630  226.8410 C   0  0  0  0  0  0  0  0  0  0  0  0
  140.5800   69.0220  228.0680 C   0  0  0  0  0  0  0  0  0  0  0  0
  141.0650   70.2910  228.3180 C   0  0  0  0  0  0  0  0  0  0  0  0
  141.0210   71.2300  227.3020 C   0  0  0  0  0  0  0  0  0  0  0  0
  140.4980   70.8840  226.0660 C   0  0  0  0  0  0  0  0  0  0  0  0
  140.4520   71.7930  225.0720 N   0  0  0  0  0  0  0  0  0  0  0  0
  137.8320   72.6670  222.7580 H   0  0  0  0  0  0  0  0  0  0  0  0
  139.5349   74.1624  220.7534 H   0  0  0  0  0  0  0  0  0  0  0  0
  137.7829   73.8583  220.6182 H   0  0  0  0  0  0  0  0  0  0  0  0
  141.3611   76.0139  222.8563 H   0  0  0  0  0  0  0  0  0  0  0  0
  141.0348   75.2122  221.3286 H   0  0  0  0  0  0  0  0  0  0  0  0
  142.2848   77.6220  221.4107 H   0  0  0  0  0  0  0  0  0  0  0  0
  141.1682   77.2861  220.0978 H   0  0  0  0  0  0  0  0  0  0  0  0
  139.8011   78.9953  220.9593 H   0  0  0  0  0  0  0  0  0  0  0  0
  140.4579   81.0165  221.1876 H   0  0  0  0  0  0  0  0  0  0  0  0
  141.7655   82.7594  222.4252 H   0  0  0  0  0  0  0  0  0  0  0  0
  143.1064   82.0507  224.3995 H   0  0  0  0  0  0  0  0  0  0  0  0
  141.8797   78.0090  223.9261 H   0  0  0  0  0  0  0  0  0  0  0  0
  139.4662   77.8196  223.6321 H   0  0  0  0  0  0  0  0  0  0  0  0
  138.2585   78.1017  222.3943 H   0  0  0  0  0  0  0  0  0  0  0  0
  139.0533   70.0231  222.5710 H   0  0  0  0  0  0  0  0  0  0  0  0
  139.1006   68.2743  224.3731 H   0  0  0  0  0  0  0  0  0  0  0  0
  139.6745   67.6444  226.6727 H   0  0  0  0  0  0  0  0  0  0  0  0
  140.6134   68.2721  228.8721 H   0  0  0  0  0  0  0  0  0  0  0  0
  141.4777   70.5500  229.3042 H   0  0  0  0  0  0  0  0  0  0  0  0
  141.4001   72.2480  227.4751 H   0  0  0  0  0  0  0  0  0  0  0  0
  1  2  2  0
  2  3  1  0
  3  4  1  0
  4  5  1  0
  5  6  2  0
  5  7  1  0
  7  8  1  0
  8  9  1  0
  9 10  1  0
 10 11  1  0
 11 12  2  0
 12 13  1  0
 13 14  2  0
 14 15  1  0
 15 16  2  0
 10 17  1  0
  2 18  1  0
 18 19  2  0
 19 20  1  0
 20 21  2  0
 21 22  1  0
 22 23  2  0
 23 24  1  0
 24 25  2  0
 25 26  1  0
 26 27  2  0
 17  7  1  0
 27 18  1  0
 16 11  1  0
 26 21  1  0
  3 28  1  0
  4 29  1  0
  4 30  1  0
  8 31  1  0
  8 32  1  0
  9 33  1  0
  9 34  1  0
 10 35  1  6
 12 36  1  0
 13 37  1  0
 14 38  1  0
 16 39  1  0
 17 40  1  0
 17 41  1  0
 19 42  1  0
 20 43  1  0
 22 44  1  0
 23 45  1  0
 24 46  1  0
 25 47  1  0
M  END
>  <smiles>  (5) 
O=C(NCC(=O)N1CC[C@H](c2cccnc2)C1)c1ccc2ccccc2n1

>  <score_type>  (5) 
oracle

>  <origin>  (5) 
autodockgpu

>  <m_score__min__energy>  (5) 
-9.0199999999999996

>  <m_primary>  (5) 
energy

>  <rmsd>  (5) 
2.777329267397287

>  <m_score__min__rmsd>  (5) 
2.777329267397287

>  <meeko>  (5) 
{"free_energy": -8.71, "intermolecular_energy": -10.2, "internal_energy": -1.11, "cluster_size": 42, "cluster_id": 1, "rank_in_cluster": 14}

>  <energy>  (5) 
-8.87

>  <cluster_rmsd>  (5) 
0.52

>  <cluster>  (5) 
1

$$$$

     RDKit          3D

 47 50  0  0  0  0  0  0  0  0999 V2000
  140.3130   71.4210  221.2340 O   0  0  0  0  0  0  0  0  0  0  0  0
  140.0620   72.0250  222.3170 C   0  0  0  0  0  0  0  0  0  0  0  0
  139.8020   73.4050  222.3210 N   0  0  0  0  0  0  0  0  0  0  0  0
  139.8010   74.2150  221.1150 C   0  0  0  0  0  0  0  0  0  0  0  0
  141.1930   74.7140  220.9040 C   0  0  0  0  0  0  0  0  0  0  0  0
  142.1260   73.9260  220.5970 O   0  0  0  0  0  0  0  0  0  0  0  0
  141.4200   76.1220  221.0640 N   0  0  0  0  0  0  0  0  0  0  0  0
  141.9980   77.0740  220.1680 C   0  0  0  0  0  0  0  0  0  0  0  0
  141.1150   78.2810  220.3110 C   0  0  0  0  0  0  0  0  0  0  0  0
  140.6470   78.2140  221.7300 C   0  0  2  0  0  0  0  0  0  0  0  0
  141.1770   79.3660  222.4750 C   0  0  0  0  0  0  0  0  0  0  0  0
  142.3860   79.2000  223.1560 C   0  0  0  0  0  0  0  0  0  0  0  0
  142.9230   80.2570  223.8700 C   0  0  0  0  0  0  0  0  0  0  0  0
  142.2240   81.4510  223.8750 C   0  0  0  0  0  0  0  0  0  0  0  0
  141.0570   81.5910  223.2100 N   0  0  0  0  0  0  0  0  0  0  0  0
  140.5170   80.5640  222.5060 C   0  0  0  0  0  0  0  0  0  0  0  0
  141.0710   76.8760  222.2710 C   0  0  0  0  0  0  0  0  0  0  0  0
  140.0420   71.2790  223.5900 C   0  0  0  0  0  0  0  0  0  0  0  0
  139.5230   69.9990  223.6410 C   0  0  0  0  0  0  0  0  0  0  0  0
  139.5150   69.3150  224.8620 C   0  0  0  0  0  0  0  0  0  0  0  0
  140.0330   69.9390  226.0000 C   0  0  0  0  0  0  0  0  0  0  0  0
  140.0400   69.2860  227.2270 C   0  0  0  0  0  0  0  0  0  0  0  0
  140.5610   69.9360  228.3290 C   0  0  0  0  0  0  0  0  0  0  0  0
  141.0750   71.2170  228.2540 C   0  0  0  0  0  0  0  0  0  0  0  0
  141.0650   71.8630  227.0300 C   0  0  0  0  0  0  0  0  0  0  0  0
  140.5470   71.2230  225.9160 C   0  0  0  0  0  0  0  0  0  0  0  0
  140.5340   71.8480  224.7220 N   0  0  0  0  0  0  0  0  0  0  0  0
  139.5990   73.8600  223.2420 H   0  0  0  0  0  0  0  0  0  0  0  0
  139.4865   73.6061  220.2546 H   0  0  0  0  0  0  0  0  0  0  0  0
  139.1003   75.0569  221.2161 H   0  0  0  0  0  0  0  0  0  0  0  0
  143.0326   77.3084  220.4590 H   0  0  0  0  0  0  0  0  0  0  0  0
  142.0521   76.7062  219.1327 H   0  0  0  0  0  0  0  0  0  0  0  0
  141.6824   79.2056  220.1287 H   0  0  0  0  0  0  0  0  0  0  0  0
  140.2851   78.2891  219.5891 H   0  0  0  0  0  0  0  0  0  0  0  0
  139.5533   78.2843  221.8245 H   0  0  0  0  0  0  0  0  0  0  0  0
  142.9089   78.2327  223.1247 H   0  0  0  0  0  0  0  0  0  0  0  0
  143.8728   80.1515  224.4147 H   0  0  0  0  0  0  0  0  0  0  0  0
  142.6288   82.3073  224.4344 H   0  0  0  0  0  0  0  0  0  0  0  0
  139.5653   80.6926  221.9697 H   0  0  0  0  0  0  0  0  0  0  0  0
  141.9400   76.9775  222.9377 H   0  0  0  0  0  0  0  0  0  0  0  0
  140.2913   76.3879  222.8741 H   0  0  0  0  0  0  0  0  0  0  0  0
  139.1214   69.5241  222.7337 H   0  0  0  0  0  0  0  0  0  0  0  0
  139.1050   68.2962  224.9252 H   0  0  0  0  0  0  0  0  0  0  0  0
  139.6366   68.2668  227.3192 H   0  0  0  0  0  0  0  0  0  0  0  0
  140.5671   69.4168  229.2987 H   0  0  0  0  0  0  0  0  0  0  0  0
  141.4830   71.7121  229.1475 H   0  0  0  0  0  0  0  0  0  0  0  0
  141.4677   72.8828  226.9420 H   0  0  0  0  0  0  0  0  0  0  0  0
  1  2  2  0
  2  3  1  0
  3  4  1  0
  4  5  1  0
  5  6  2  0
  5  7  1  0
  7  8  1  0
  8  9  1  0
  9 10  1  0
 10 11  1  0
 11 12  2  0
 12 13  1  0
 13 14  2  0
 14 15  1  0
 15 16  2  0
 10 17  1  0
  2 18  1  0
 18 19  2  0
 19 20  1  0
 20 21  2  0
 21 22  1  0
 22 23  2  0
 23 24  1  0
 24 25  2  0
 25 26  1  0
 26 27  2  0
 17  7  1  0
 27 18  1  0
 16 11  1  0
 26 21  1  0
  3 28  1  0
  4 29  1  0
  4 30  1  0
  8 31  1  0
  8 32  1  0
  9 33  1  0
  9 34  1  0
 10 35  1  6
 12 36  1  0
 13 37  1  0
 14 38  1  0
 16 39  1  0
 17 40  1  0
 17 41  1  0
 19 42  1  0
 20 43  1  0
 22 44  1  0
 23 45  1  0
 24 46  1  0
 25 47  1  0
M  END
>  <smiles>  (6) 
O=C(NCC(=O)N1CC[C@H](c2cccnc2)C1)c1ccc2ccccc2n1

>  <score_type>  (6) 
oracle

>  <origin>  (6) 
autodockgpu

>  <m_score__min__energy>  (6) 
-9.0199999999999996

>  <m_primary>  (6) 
energy

>  <rmsd>  (6) 
2.6194575055914653

>  <m_score__min__rmsd>  (6) 
2.6194575055914653

>  <meeko>  (6) 
{"free_energy": -8.83, "intermolecular_energy": -10.32, "internal_energy": -1.17, "cluster_size": 42, "cluster_id": 1, "rank_in_cluster": 8}

>  <energy>  (6) 
-8.87

>  <cluster_rmsd>  (6) 
0.58

>  <cluster>  (6) 
1

$$$$

     RDKit          3D

 47 50  0  0  0  0  0  0  0  0999 V2000
  139.1360   70.5540  221.3530 O   0  0  0  0  0  0  0  0  0  0  0  0
  139.2130   71.3140  222.3610 C   0  0  0  0  0  0  0  0  0  0  0  0
  139.0000   72.6970  222.2310 N   0  0  0  0  0  0  0  0  0  0  0  0
  138.6840   73.3340  220.9640 C   0  0  0  0  0  0  0  0  0  0  0  0
  139.8640   74.1560  220.5620 C   0  0  0  0  0  0  0  0  0  0  0  0
  140.7640   73.6820  219.8200 O   0  0  0  0  0  0  0  0  0  0  0  0
  139.9300   75.5010  221.0570 N   0  0  0  0  0  0  0  0  0  0  0  0
  138.8940   76.4690  221.2450 C   0  0  0  0  0  0  0  0  0  0  0  0
  139.2280   77.0970  222.5670 C   0  0  0  0  0  0  0  0  0  0  0  0
  140.7200   77.0230  222.6310 C   0  0  2  0  0  0  0  0  0  0  0  0
  141.2800   78.3830  222.6210 C   0  0  0  0  0  0  0  0  0  0  0  0
  141.7080   78.9190  223.8380 C   0  0  0  0  0  0  0  0  0  0  0  0
  142.2420   80.1950  223.8770 C   0  0  0  0  0  0  0  0  0  0  0  0
  142.3260   80.8930  222.6860 C   0  0  0  0  0  0  0  0  0  0  0  0
  141.9070   80.3580  221.5200 N   0  0  0  0  0  0  0  0  0  0  0  0
  141.3810   79.1080  221.4640 C   0  0  0  0  0  0  0  0  0  0  0  0
  141.1670   76.1590  221.4830 C   0  0  0  0  0  0  0  0  0  0  0  0
  139.5300   70.7510  223.6880 C   0  0  0  0  0  0  0  0  0  0  0  0
  139.2310   69.4340  223.9760 C   0  0  0  0  0  0  0  0  0  0  0  0
  139.5410   68.9250  225.2430 C   0  0  0  0  0  0  0  0  0  0  0  0
  140.1460   69.7600  226.1860 C   0  0  0  0  0  0  0  0  0  0  0  0
  140.4680   69.2850  227.4520 C   0  0  0  0  0  0  0  0  0  0  0  0
  141.0660   70.1420  228.3570 C   0  0  0  0  0  0  0  0  0  0  0  0
  141.3550   71.4560  228.0460 C   0  0  0  0  0  0  0  0  0  0  0  0
  141.0330   71.9250  226.7840 C   0  0  0  0  0  0  0  0  0  0  0  0
  140.4340   71.0780  225.8660 C   0  0  0  0  0  0  0  0  0  0  0  0
  140.1180   71.5280  224.6360 N   0  0  0  0  0  0  0  0  0  0  0  0
  139.0740   73.2840  223.0930 H   0  0  0  0  0  0  0  0  0  0  0  0
  138.4828   72.5687  220.1999 H   0  0  0  0  0  0  0  0  0  0  0  0
  137.7898   73.9668  221.0635 H   0  0  0  0  0  0  0  0  0  0  0  0
  138.9073   77.2188  220.4402 H   0  0  0  0  0  0  0  0  0  0  0  0
  137.8878   76.0250  221.2265 H   0  0  0  0  0  0  0  0  0  0  0  0
  138.8857   78.1418  222.6020 H   0  0  0  0  0  0  0  0  0  0  0  0
  138.7406   76.5909  223.4133 H   0  0  0  0  0  0  0  0  0  0  0  0
  141.0865   76.5650  223.5615 H   0  0  0  0  0  0  0  0  0  0  0  0
  141.6208   78.3287  224.7621 H   0  0  0  0  0  0  0  0  0  0  0  0
  142.5876   80.6387  224.8223 H   0  0  0  0  0  0  0  0  0  0  0  0
  142.7450   81.9101  222.6892 H   0  0  0  0  0  0  0  0  0  0  0  0
  141.0421   78.6853  220.5067 H   0  0  0  0  0  0  0  0  0  0  0  0
  141.5888   76.7695  220.6709 H   0  0  0  0  0  0  0  0  0  0  0  0
  141.9594   75.4486  221.7612 H   0  0  0  0  0  0  0  0  0  0  0  0
  138.7552   68.7927  223.2194 H   0  0  0  0  0  0  0  0  0  0  0  0
  139.3107   67.8789  225.4934 H   0  0  0  0  0  0  0  0  0  0  0  0
  140.2503   68.2431  227.7295 H   0  0  0  0  0  0  0  0  0  0  0  0
  141.3201   69.7645  229.3585 H   0  0  0  0  0  0  0  0  0  0  0  0
  141.8312   72.1163  228.7857 H   0  0  0  0  0  0  0  0  0  0  0  0
  141.2523   72.9677  226.5108 H   0  0  0  0  0  0  0  0  0  0  0  0
  1  2  2  0
  2  3  1  0
  3  4  1  0
  4  5  1  0
  5  6  2  0
  5  7  1  0
  7  8  1  0
  8  9  1  0
  9 10  1  0
 10 11  1  0
 11 12  2  0
 12 13  1  0
 13 14  2  0
 14 15  1  0
 15 16  2  0
 10 17  1  0
  2 18  1  0
 18 19  2  0
 19 20  1  0
 20 21  2  0
 21 22  1  0
 22 23  2  0
 23 24  1  0
 24 25  2  0
 25 26  1  0
 26 27  2  0
 17  7  1  0
 27 18  1  0
 16 11  1  0
 26 21  1  0
  3 28  1  0
  4 29  1  0
  4 30  1  0
  8 31  1  0
  8 32  1  0
  9 33  1  0
  9 34  1  0
 10 35  1  1
 12 36  1  0
 13 37  1  0
 14 38  1  0
 16 39  1  0
 17 40  1  0
 17 41  1  0
 19 42  1  0
 20 43  1  0
 22 44  1  0
 23 45  1  0
 24 46  1  0
 25 47  1  0
M  END
>  <smiles>  (7) 
O=C(NCC(=O)N1CC[C@H](c2cccnc2)C1)c1ccc2ccccc2n1

>  <score_type>  (7) 
oracle

>  <origin>  (7) 
autodockgpu

>  <m_score__min__energy>  (7) 
-9.0199999999999996

>  <m_primary>  (7) 
energy

>  <rmsd>  (7) 
2.841641612000079

>  <m_score__min__rmsd>  (7) 
2.841641612000079

>  <meeko>  (7) 
{"free_energy": -8.35, "intermolecular_energy": -9.84, "internal_energy": -1.3, "cluster_size": 42, "cluster_id": 1, "rank_in_cluster": 38}

>  <energy>  (7) 
-8.86

>  <cluster_rmsd>  (7) 
0.25

>  <cluster>  (7) 
1

$$$$

     RDKit          3D

 47 50  0  0  0  0  0  0  0  0999 V2000
  139.7260   71.3120  221.2460 O   0  0  0  0  0  0  0  0  0  0  0  0
  139.6890   71.9440  222.3410 C   0  0  0  0  0  0  0  0  0  0  0  0
  139.4980   73.3370  222.3560 N   0  0  0  0  0  0  0  0  0  0  0  0
  139.3350   74.1270  221.1480 C   0  0  0  0  0  0  0  0  0  0  0  0
  140.6720   74.6820  220.7840 C   0  0  0  0  0  0  0  0  0  0  0  0
  141.5750   73.9440  220.3100 O   0  0  0  0  0  0  0  0  0  0  0  0
  140.8840   76.0850  220.9990 N   0  0  0  0  0  0  0  0  0  0  0  0
  140.9570   77.1640  220.0640 C   0  0  0  0  0  0  0  0  0  0  0  0
  140.1780   78.2640  220.7250 C   0  0  0  0  0  0  0  0  0  0  0  0
  140.3970   78.0270  222.1850 C   0  0  2  0  0  0  0  0  0  0  0  0
  141.1510   79.1530  222.7560 C   0  0  0  0  0  0  0  0  0  0  0  0
  140.4240   80.2400  223.2490 C   0  0  0  0  0  0  0  0  0  0  0  0
  141.0920   81.3220  223.7960 C   0  0  0  0  0  0  0  0  0  0  0  0
  142.4750   81.2750  223.8290 C   0  0  0  0  0  0  0  0  0  0  0  0
  143.1590   80.2150  223.3470 N   0  0  0  0  0  0  0  0  0  0  0  0
  142.5190   79.1460  222.8080 C   0  0  0  0  0  0  0  0  0  0  0  0
  141.0770   76.6920  222.3180 C   0  0  0  0  0  0  0  0  0  0  0  0
  139.8470   71.2200  223.6180 C   0  0  0  0  0  0  0  0  0  0  0  0
  139.5130   69.8820  223.7060 C   0  0  0  0  0  0  0  0  0  0  0  0
  139.6720   69.2200  224.9290 C   0  0  0  0  0  0  0  0  0  0  0  0
  140.1640   69.9250  226.0310 C   0  0  0  0  0  0  0  0  0  0  0  0
  140.3330   69.2960  227.2590 C   0  0  0  0  0  0  0  0  0  0  0  0
  140.8220   70.0270  228.3240 C   0  0  0  0  0  0  0  0  0  0  0  0
  141.1480   71.3650  228.2110 C   0  0  0  0  0  0  0  0  0  0  0  0
  140.9780   71.9870  226.9870 C   0  0  0  0  0  0  0  0  0  0  0  0
  140.4890   71.2670  225.9090 C   0  0  0  0  0  0  0  0  0  0  0  0
  140.3210   71.8670  224.7140 N   0  0  0  0  0  0  0  0  0  0  0  0
  139.4740   73.8150  223.2860 H   0  0  0  0  0  0  0  0  0  0  0  0
  138.9588   73.4915  220.3328 H   0  0  0  0  0  0  0  0  0  0  0  0
  138.6130   74.9400  221.3142 H   0  0  0  0  0  0  0  0  0  0  0  0
  142.0009   77.4684  219.8976 H   0  0  0  0  0  0  0  0  0  0  0  0
  140.5591   76.8966  219.0739 H   0  0  0  0  0  0  0  0  0  0  0  0
  140.5618   79.2506  220.4260 H   0  0  0  0  0  0  0  0  0  0  0  0
  139.1136   78.2581  220.4476 H   0  0  0  0  0  0  0  0  0  0  0  0
  139.4589   77.9850  222.7578 H   0  0  0  0  0  0  0  0  0  0  0  0
  139.3250   80.2358  223.2025 H   0  0  0  0  0  0  0  0  0  0  0  0
  140.5427   82.1893  224.1909 H   0  0  0  0  0  0  0  0  0  0  0  0
  143.0305   82.1218  224.2583 H   0  0  0  0  0  0  0  0  0  0  0  0
  143.0895   78.2893  222.4199 H   0  0  0  0  0  0  0  0  0  0  0  0
  142.1467   76.8149  222.5429 H   0  0  0  0  0  0  0  0  0  0  0  0
  140.6710   76.0809  223.1376 H   0  0  0  0  0  0  0  0  0  0  0  0
  139.1275   69.3446  222.8270 H   0  0  0  0  0  0  0  0  0  0  0  0
  139.4122   68.1552  225.0219 H   0  0  0  0  0  0  0  0  0  0  0  0
  140.0811   68.2322  227.3808 H   0  0  0  0  0  0  0  0  0  0  0  0
  140.9565   69.5273  229.2947 H   0  0  0  0  0  0  0  0  0  0  0  0
  141.5345   71.9238  229.0760 H   0  0  0  0  0  0  0  0  0  0  0  0
  141.2306   73.0512  226.8699 H   0  0  0  0  0  0  0  0  0  0  0  0
  1  2  2  0
  2  3  1  0
  3  4  1  0
  4  5  1  0
  5  6  2  0
  5  7  1  0
  7  8  1  0
  8  9  1  0
  9 10  1  0
 10 11  1  0
 11 12  2  0
 12 13  1  0
 13 14  2  0
 14 15  1  0
 15 16  2  0
 10 17  1  0
  2 18  1  0
 18 19  2  0
 19 20  1  0
 20 21  2  0
 21 22  1  0
 22 23  2  0
 23 24  1  0
 24 25  2  0
 25 26  1  0
 26 27  2  0
 17  7  1  0
 27 18  1  0
 16 11  1  0
 26 21  1  0
  3 28  1  0
  4 29  1  0
  4 30  1  0
  8 31  1  0
  8 32  1  0
  9 33  1  0
  9 34  1  0
 10 35  1  1
 12 36  1  0
 13 37  1  0
 14 38  1  0
 16 39  1  0
 17 40  1  0
 17 41  1  0
 19 42  1  0
 20 43  1  0
 22 44  1  0
 23 45  1  0
 24 46  1  0
 25 47  1  0
M  END
>  <smiles>  (8) 
O=C(NCC(=O)N1CC[C@H](c2cccnc2)C1)c1ccc2ccccc2n1

>  <score_type>  (8) 
oracle

>  <origin>  (8) 
autodockgpu

>  <m_score__min__energy>  (8) 
-9.0199999999999996

>  <m_primary>  (8) 
energy

>  <rmsd>  (8) 
2.671067202980419

>  <m_score__min__rmsd>  (8) 
2.671067202980419

>  <meeko>  (8) 
{"free_energy": -8.49, "intermolecular_energy": -9.99, "internal_energy": -1.25, "cluster_size": 42, "cluster_id": 1, "rank_in_cluster": 28}

>  <energy>  (8) 
-8.83

>  <cluster_rmsd>  (8) 
0.26

>  <cluster>  (8) 
1

$$$$

     RDKit          3D

 47 50  0  0  0  0  0  0  0  0999 V2000
  140.3300   70.9380  221.1850 O   0  0  0  0  0  0  0  0  0  0  0  0
  140.0380   71.6410  222.1950 C   0  0  0  0  0  0  0  0  0  0  0  0
  139.8060   73.0210  222.0610 N   0  0  0  0  0  0  0  0  0  0  0  0
  139.8830   73.7170  220.7890 C   0  0  0  0  0  0  0  0  0  0  0  0
  138.8170   74.7640  220.7800 C   0  0  0  0  0  0  0  0  0  0  0  0
  137.6510   74.4990  220.3860 O   0  0  0  0  0  0  0  0  0  0  0  0
  139.1780   76.0760  221.2350 N   0  0  0  0  0  0  0  0  0  0  0  0
  138.3730   77.2420  221.4260 C   0  0  0  0  0  0  0  0  0  0  0  0
  138.8750   77.8140  222.7210 C   0  0  0  0  0  0  0  0  0  0  0  0
  140.3210   77.4310  222.7430 C   0  0  2  0  0  0  0  0  0  0  0  0
  141.1500   78.6440  222.6800 C   0  0  0  0  0  0  0  0  0  0  0  0
  141.7320   79.0960  223.8670 C   0  0  0  0  0  0  0  0  0  0  0  0
  142.5210   80.2330  223.8560 C   0  0  0  0  0  0  0  0  0  0  0  0
  142.6990   80.8810  222.6460 C   0  0  0  0  0  0  0  0  0  0  0  0
  142.1270   80.4270  221.5100 N   0  0  0  0  0  0  0  0  0  0  0  0
  141.3510   79.3140  221.5040 C   0  0  0  0  0  0  0  0  0  0  0  0
  140.5390   76.4690  221.6070 C   0  0  0  0  0  0  0  0  0  0  0  0
  139.9380   71.0150  223.5280 C   0  0  0  0  0  0  0  0  0  0  0  0
  139.3390   69.7780  223.6740 C   0  0  0  0  0  0  0  0  0  0  0  0
  139.2570   69.2070  224.9490 C   0  0  0  0  0  0  0  0  0  0  0  0
  139.7820   69.8990  226.0440 C   0  0  0  0  0  0  0  0  0  0  0  0
  139.7160   69.3590  227.3230 C   0  0  0  0  0  0  0  0  0  0  0  0
  140.2470   70.0740  228.3800 C   0  0  0  0  0  0  0  0  0  0  0  0
  140.8400   71.3090  228.2090 C   0  0  0  0  0  0  0  0  0  0  0  0
  140.9030   71.8430  226.9340 C   0  0  0  0  0  0  0  0  0  0  0  0
  140.3760   71.1380  225.8640 C   0  0  0  0  0  0  0  0  0  0  0  0
  140.4340   71.6530  224.6200 N   0  0  0  0  0  0  0  0  0  0  0  0
  139.5660   73.5600  222.9250 H   0  0  0  0  0  0  0  0  0  0  0  0
  140.8712   74.1873  220.6783 H   0  0  0  0  0  0  0  0  0  0  0  0
  139.7400   73.0138  219.9553 H   0  0  0  0  0  0  0  0  0  0  0  0
  138.5146   77.9557  220.6010 H   0  0  0  0  0  0  0  0  0  0  0  0
  137.2964   77.0174  221.4485 H   0  0  0  0  0  0  0  0  0  0  0  0
  138.7589   78.9077  222.7375 H   0  0  0  0  0  0  0  0  0  0  0  0
  138.3220   77.4388  223.5947 H   0  0  0  0  0  0  0  0  0  0  0  0
  140.6165   76.9252  223.6740 H   0  0  0  0  0  0  0  0  0  0  0  0
  141.5637   78.5501  224.8070 H   0  0  0  0  0  0  0  0  0  0  0  0
  142.9904   80.6087  224.7771 H   0  0  0  0  0  0  0  0  0  0  0  0
  143.3212   81.7874  222.6088 H   0  0  0  0  0  0  0  0  0  0  0  0
  140.8917   78.9567  220.5705 H   0  0  0  0  0  0  0  0  0  0  0  0
  141.0512   76.9605  220.7667 H   0  0  0  0  0  0  0  0  0  0  0  0
  141.1748   75.6144  221.8816 H   0  0  0  0  0  0  0  0  0  0  0  0
  138.9321   69.2493  222.7995 H   0  0  0  0  0  0  0  0  0  0  0  0
  138.7842   68.2236  225.0880 H   0  0  0  0  0  0  0  0  0  0  0  0
  139.2484   68.3777  227.4914 H   0  0  0  0  0  0  0  0  0  0  0  0
  140.1954   69.6446  229.3914 H   0  0  0  0  0  0  0  0  0  0  0  0
  141.2537   71.8570  229.0684 H   0  0  0  0  0  0  0  0  0  0  0  0
  141.3705   72.8252  226.7703 H   0  0  0  0  0  0  0  0  0  0  0  0
  1  2  2  0
  2  3  1  0
  3  4  1  0
  4  5  1  0
  5  6  2  0
  5  7  1  0
  7  8  1  0
  8  9  1  0
  9 10  1  0
 10 11  1  0
 11 12  2  0
 12 13  1  0
 13 14  2  0
 14 15  1  0
 15 16  2  0
 10 17  1  0
  2 18  1  0
 18 19  2  0
 19 20  1  0
 20 21  2  0
 21 22  1  0
 22 23  2  0
 23 24  1  0
 24 25  2  0
 25 26  1  0
 26 27  2  0
 17  7  1  0
 27 18  1  0
 16 11  1  0
 26 21  1  0
  3 28  1  0
  4 29  1  0
  4 30  1  0
  8 31  1  0
  8 32  1  0
  9 33  1  0
  9 34  1  0
 10 35  1  1
 12 36  1  0
 13 37  1  0
 14 38  1  0
 16 39  1  0
 17 40  1  0
 17 41  1  0
 19 42  1  0
 20 43  1  0
 22 44  1  0
 23 45  1  0
 24 46  1  0
 25 47  1  0
M  END
>  <smiles>  (9) 
O=C(NCC(=O)N1CC[C@H](c2cccnc2)C1)c1ccc2ccccc2n1

>  <score_type>  (9) 
oracle

>  <origin>  (9) 
autodockgpu

>  <m_score__min__energy>  (9) 
-9.0199999999999996

>  <m_primary>  (9) 
energy

>  <rmsd>  (9) 
3.0436434162408954

>  <m_score__min__rmsd>  (9) 
3.0436434162408954

>  <meeko>  (9) 
{"free_energy": -8.23, "intermolecular_energy": -9.72, "internal_energy": -1.18, "cluster_size": 42, "cluster_id": 1, "rank_in_cluster": 42}

>  <energy>  (9) 
-8.82

>  <cluster_rmsd>  (9) 
0.58

>  <cluster>  (9) 
1

$$$$

     RDKit          3D

 47 50  0  0  0  0  0  0  0  0999 V2000
  139.0100   71.0400  221.3860 O   0  0  0  0  0  0  0  0  0  0  0  0
  139.3090   71.6510  222.4520 C   0  0  0  0  0  0  0  0  0  0  0  0
  139.4040   73.0530  222.4690 N   0  0  0  0  0  0  0  0  0  0  0  0
  139.1720   73.8770  221.2950 C   0  0  0  0  0  0  0  0  0  0  0  0
  140.4510   74.5760  220.9710 C   0  0  0  0  0  0  0  0  0  0  0  0
  141.4380   73.9450  220.5110 O   0  0  0  0  0  0  0  0  0  0  0  0
  140.5070   75.9910  221.2070 N   0  0  0  0  0  0  0  0  0  0  0  0
  140.1180   77.0840  220.3710 C   0  0  0  0  0  0  0  0  0  0  0  0
  139.4320   78.0290  221.3150 C   0  0  0  0  0  0  0  0  0  0  0  0
  140.1340   77.8050  222.6160 C   0  0  2  0  0  0  0  0  0  0  0  0
  140.8530   79.0290  223.0030 C   0  0  0  0  0  0  0  0  0  0  0  0
  142.2440   79.0330  222.8760 C   0  0  0  0  0  0  0  0  0  0  0  0
  142.9620   80.1630  223.2260 C   0  0  0  0  0  0  0  0  0  0  0  0
  142.2540   81.2550  223.6960 C   0  0  0  0  0  0  0  0  0  0  0  0
  140.9090   81.2310  223.8110 N   0  0  0  0  0  0  0  0  0  0  0  0
  140.1900   80.1310  223.4720 C   0  0  0  0  0  0  0  0  0  0  0  0
  141.0140   76.5970  222.4400 C   0  0  0  0  0  0  0  0  0  0  0  0
  139.5620   70.8920  223.6920 C   0  0  0  0  0  0  0  0  0  0  0  0
  139.3040   69.5360  223.7450 C   0  0  0  0  0  0  0  0  0  0  0  0
  139.5520   68.8410  224.9340 C   0  0  0  0  0  0  0  0  0  0  0  0
  140.0550   69.5320  226.0390 C   0  0  0  0  0  0  0  0  0  0  0  0
  140.3130   68.8700  227.2340 C   0  0  0  0  0  0  0  0  0  0  0  0
  140.8100   69.5880  228.3040 C   0  0  0  0  0  0  0  0  0  0  0  0
  141.0600   70.9450  228.2280 C   0  0  0  0  0  0  0  0  0  0  0  0
  140.8020   71.6000  227.0370 C   0  0  0  0  0  0  0  0  0  0  0  0
  140.3040   70.8930  225.9540 C   0  0  0  0  0  0  0  0  0  0  0  0
  140.0510   71.5250  224.7910 N   0  0  0  0  0  0  0  0  0  0  0  0
  139.6540   73.5130  223.3750 H   0  0  0  0  0  0  0  0  0  0  0  0
  138.8655   73.2451  220.4484 H   0  0  0  0  0  0  0  0  0  0  0  0
  138.3723   74.6071  221.4887 H   0  0  0  0  0  0  0  0  0  0  0  0
  140.9976   77.5585  219.9115 H   0  0  0  0  0  0  0  0  0  0  0  0
  139.4728   76.7730  219.5361 H   0  0  0  0  0  0  0  0  0  0  0  0
  139.5489   79.0705  220.9808 H   0  0  0  0  0  0  0  0  0  0  0  0
  138.3481   77.8530  221.3805 H   0  0  0  0  0  0  0  0  0  0  0  0
  139.4418   77.5999  223.4459 H   0  0  0  0  0  0  0  0  0  0  0  0
  142.7666   78.1414  222.4993 H   0  0  0  0  0  0  0  0  0  0  0  0
  144.0577   80.1921  223.1338 H   0  0  0  0  0  0  0  0  0  0  0  0
  142.8006   82.1654  223.9831 H   0  0  0  0  0  0  0  0  0  0  0  0
  139.0946   80.1251  223.5723 H   0  0  0  0  0  0  0  0  0  0  0  0
  142.0687   76.8897  222.3310 H   0  0  0  0  0  0  0  0  0  0  0  0
  140.9849   75.9128  223.3008 H   0  0  0  0  0  0  0  0  0  0  0  0
  138.9087   69.0093  222.8639 H   0  0  0  0  0  0  0  0  0  0  0  0
  139.3528   67.7611  224.9979 H   0  0  0  0  0  0  0  0  0  0  0  0
  140.1241   67.7903  227.3259 H   0  0  0  0  0  0  0  0  0  0  0  0
  141.0137   69.0621  229.2484 H   0  0  0  0  0  0  0  0  0  0  0  0
  141.4557   71.4927  229.0960 H   0  0  0  0  0  0  0  0  0  0  0  0
  140.9918   72.6800  226.9498 H   0  0  0  0  0  0  0  0  0  0  0  0
  1  2  2  0
  2  3  1  0
  3  4  1  0
  4  5  1  0
  5  6  2  0
  5  7  1  0
  7  8  1  0
  8  9  1  0
  9 10  1  0
 10 11  1  0
 11 12  2  0
 12 13  1  0
 13 14  2  0
 14 15  1  0
 15 16  2  0
 10 17  1  0
  2 18  1  0
 18 19  2  0
 19 20  1  0
 20 21  2  0
 21 22  1  0
 22 23  2  0
 23 24  1  0
 24 25  2  0
 25 26  1  0
 26 27  2  0
 17  7  1  0
 27 18  1  0
 16 11  1  0
 26 21  1  0
  3 28  1  0
  4 29  1  0
  4 30  1  0
  8 31  1  0
  8 32  1  0
  9 33  1  0
  9 34  1  0
 10 35  1  1
 12 36  1  0
 13 37  1  0
 14 38  1  0
 16 39  1  0
 17 40  1  0
 17 41  1  0
 19 42  1  0
 20 43  1  0
 22 44  1  0
 23 45  1  0
 24 46  1  0
 25 47  1  0
M  END
>  <smiles>  (10) 
O=C(NCC(=O)N1CC[C@H](c2cccnc2)C1)c1ccc2ccccc2n1

>  <score_type>  (10) 
oracle

>  <origin>  (10) 
autodockgpu

>  <m_score__min__energy>  (10) 
-9.0199999999999996

>  <m_primary>  (10) 
energy

>  <rmsd>  (10) 
2.769698601575016

>  <m_score__min__rmsd>  (10) 
2.769698601575016

>  <meeko>  (10) 
{"free_energy": -8.42, "intermolecular_energy": -9.91, "internal_energy": -1.32, "cluster_size": 42, "cluster_id": 1, "rank_in_cluster": 35}

>  <energy>  (10) 
-8.79

>  <cluster_rmsd>  (10) 
0.31

>  <cluster>  (10) 
1

$$$$

     RDKit          3D

 47 50  0  0  0  0  0  0  0  0999 V2000
  141.0820   71.8630  221.4990 O   0  0  0  0  0  0  0  0  0  0  0  0
  140.3120   72.2440  222.4280 C   0  0  0  0  0  0  0  0  0  0  0  0
  139.5770   73.4350  222.3020 N   0  0  0  0  0  0  0  0  0  0  0  0
  139.6450   74.2890  221.1290 C   0  0  0  0  0  0  0  0  0  0  0  0
  140.9150   75.0710  221.2110 C   0  0  0  0  0  0  0  0  0  0  0  0
  142.0330   74.5150  221.0480 O   0  0  0  0  0  0  0  0  0  0  0  0
  140.8070   76.4760  221.4840 N   0  0  0  0  0  0  0  0  0  0  0  0
  139.9380   77.1820  222.3730 C   0  0  0  0  0  0  0  0  0  0  0  0
  140.8310   78.2100  223.0050 C   0  0  0  0  0  0  0  0  0  0  0  0
  141.8340   78.5150  221.9370 C   0  0  2  0  0  0  0  0  0  0  0  0
  141.6810   79.9120  221.5060 C   0  0  0  0  0  0  0  0  0  0  0  0
  141.5980   80.8940  222.4970 C   0  0  0  0  0  0  0  0  0  0  0  0
  141.4550   82.2230  222.1370 C   0  0  0  0  0  0  0  0  0  0  0  0
  141.3970   82.5210  220.7870 C   0  0  0  0  0  0  0  0  0  0  0  0
  141.4780   81.5580  219.8450 N   0  0  0  0  0  0  0  0  0  0  0  0
  141.6190   80.2500  220.1810 C   0  0  0  0  0  0  0  0  0  0  0  0
  141.6340   77.5010  220.8430 C   0  0  0  0  0  0  0  0  0  0  0  0
  140.1820   71.4370  223.6560 C   0  0  0  0  0  0  0  0  0  0  0  0
  139.5670   70.2000  223.6160 C   0  0  0  0  0  0  0  0  0  0  0  0
  139.4560   69.4560  224.7960 C   0  0  0  0  0  0  0  0  0  0  0  0
  139.9680   69.9790  225.9860 C   0  0  0  0  0  0  0  0  0  0  0  0
  139.8740   69.2640  227.1750 C   0  0  0  0  0  0  0  0  0  0  0  0
  140.3930   69.8150  228.3310 C   0  0  0  0  0  0  0  0  0  0  0  0
  141.0020   71.0540  228.3470 C   0  0  0  0  0  0  0  0  0  0  0  0
  141.0940   71.7630  227.1610 C   0  0  0  0  0  0  0  0  0  0  0  0
  140.5790   71.2230  225.9930 C   0  0  0  0  0  0  0  0  0  0  0  0
  140.6650   71.9070  224.8360 N   0  0  0  0  0  0  0  0  0  0  0  0
  138.9540   73.7080  223.0970 H   0  0  0  0  0  0  0  0  0  0  0  0
  139.6417   73.6741  220.2169 H   0  0  0  0  0  0  0  0  0  0  0  0
  138.7777   74.9646  221.0929 H   0  0  0  0  0  0  0  0  0  0  0  0
  139.1176   77.6625  221.8198 H   0  0  0  0  0  0  0  0  0  0  0  0
  139.4584   76.5230  223.1118 H   0  0  0  0  0  0  0  0  0  0  0  0
  140.2610   79.1108  223.2764 H   0  0  0  0  0  0  0  0  0  0  0  0
  141.2957   77.8553  223.9368 H   0  0  0  0  0  0  0  0  0  0  0  0
  142.8731   78.4316  222.2880 H   0  0  0  0  0  0  0  0  0  0  0  0
  141.6461   80.6119  223.5591 H   0  0  0  0  0  0  0  0  0  0  0  0
  141.3897   83.0148  222.8978 H   0  0  0  0  0  0  0  0  0  0  0  0
  141.2820   83.5692  220.4737 H   0  0  0  0  0  0  0  0  0  0  0  0
  141.6823   79.4757  219.4022 H   0  0  0  0  0  0  0  0  0  0  0  0
  141.1134   77.9466  219.9825 H   0  0  0  0  0  0  0  0  0  0  0  0
  142.5794   77.1050  220.4437 H   0  0  0  0  0  0  0  0  0  0  0  0
  139.1700   69.8054  222.6691 H   0  0  0  0  0  0  0  0  0  0  0  0
  138.9704   68.4691  224.7867 H   0  0  0  0  0  0  0  0  0  0  0  0
  139.3937   68.2746  227.1950 H   0  0  0  0  0  0  0  0  0  0  0  0
  140.3185   69.2473  229.2702 H   0  0  0  0  0  0  0  0  0  0  0  0
  141.4057   71.4693  229.2822 H   0  0  0  0  0  0  0  0  0  0  0  0
  141.5746   72.7523  227.1459 H   0  0  0  0  0  0  0  0  0  0  0  0
  1  2  2  0
  2  3  1  0
  3  4  1  0
  4  5  1  0
  5  6  2  0
  5  7  1  0
  7  8  1  0
  8  9  1  0
  9 10  1  0
 10 11  1  0
 11 12  2  0
 12 13  1  0
 13 14  2  0
 14 15  1  0
 15 16  2  0
 10 17  1  0
  2 18  1  0
 18 19  2  0
 19 20  1  0
 20 21  2  0
 21 22  1  0
 22 23  2  0
 23 24  1  0
 24 25  2  0
 25 26  1  0
 26 27  2  0
 17  7  1  0
 27 18  1  0
 16 11  1  0
 26 21  1  0
  3 28  1  0
  4 29  1  0
  4 30  1  0
  8 31  1  0
  8 32  1  0
  9 33  1  0
  9 34  1  0
 10 35  1  1
 12 36  1  0
 13 37  1  0
 14 38  1  0
 16 39  1  0
 17 40  1  0
 17 41  1  0
 19 42  1  0
 20 43  1  0
 22 44  1  0
 23 45  1  0
 24 46  1  0
 25 47  1  0
M  END
>  <smiles>  (11) 
O=C(NCC(=O)N1CC[C@H](c2cccnc2)C1)c1ccc2ccccc2n1

>  <score_type>  (11) 
oracle

>  <origin>  (11) 
autodockgpu

>  <m_score__min__energy>  (11) 
-9.0199999999999996

>  <m_primary>  (11) 
energy

>  <rmsd>  (11) 
3.0214568683910508

>  <m_score__min__rmsd>  (11) 
3.0214568683910508

>  <meeko>  (11) 
{"free_energy": -8.53, "intermolecular_energy": -10.02, "internal_energy": -1.04, "cluster_size": 42, "cluster_id": 1, "rank_in_cluster": 25}

>  <energy>  (11) 
-8.77

>  <cluster_rmsd>  (11) 
0.75

>  <cluster>  (11) 
1

$$$$

     RDKit          3D

 47 50  0  0  0  0  0  0  0  0999 V2000
  140.7610   75.2930  220.8520 O   0  0  0  0  0  0  0  0  0  0  0  0
  140.0060   75.6770  221.7920 C   0  0  0  0  0  0  0  0  0  0  0  0
  139.0410   74.8110  222.3330 N   0  0  0  0  0  0  0  0  0  0  0  0
  138.8470   73.4490  221.8650 C   0  0  0  0  0  0  0  0  0  0  0  0
  139.9780   72.6250  222.3870 C   0  0  0  0  0  0  0  0  0  0  0  0
  141.1370   72.7350  221.9080 O   0  0  0  0  0  0  0  0  0  0  0  0
  139.6880   71.7070  223.4510 N   0  0  0  0  0  0  0  0  0  0  0  0
  138.4490   71.1180  223.8520 C   0  0  0  0  0  0  0  0  0  0  0  0
  138.8120   69.6910  224.1490 C   0  0  0  0  0  0  0  0  0  0  0  0
  140.2240   69.7760  224.6340 C   0  0  2  0  0  0  0  0  0  0  0  0
  140.2840   69.3640  226.0450 C   0  0  0  0  0  0  0  0  0  0  0  0
  139.9610   70.3170  227.0140 C   0  0  0  0  0  0  0  0  0  0  0  0
  140.0020   69.9740  228.3550 C   0  0  0  0  0  0  0  0  0  0  0  0
  140.3690   68.6790  228.6760 C   0  0  0  0  0  0  0  0  0  0  0  0
  140.6770   67.7740  227.7240 N   0  0  0  0  0  0  0  0  0  0  0  0
  140.6420   68.0940  226.4060 C   0  0  0  0  0  0  0  0  0  0  0  0
  140.6940   71.1820  224.3770 C   0  0  0  0  0  0  0  0  0  0  0  0
  140.1340   77.0460  222.3290 C   0  0  0  0  0  0  0  0  0  0  0  0
  139.0100   77.7540  222.7090 C   0  0  0  0  0  0  0  0  0  0  0  0
  139.1600   79.0510  223.2140 C   0  0  0  0  0  0  0  0  0  0  0  0
  140.4400   79.6000  223.3220 C   0  0  0  0  0  0  0  0  0  0  0  0
  140.6220   80.8850  223.8200 C   0  0  0  0  0  0  0  0  0  0  0  0
  141.9040   81.3920  223.9120 C   0  0  0  0  0  0  0  0  0  0  0  0
  143.0130   80.6660  223.5240 C   0  0  0  0  0  0  0  0  0  0  0  0
  142.8270   79.3870  223.0290 C   0  0  0  0  0  0  0  0  0  0  0  0
  141.5480   78.8640  222.9320 C   0  0  0  0  0  0  0  0  0  0  0  0
  141.3600   77.6200  222.4500 N   0  0  0  0  0  0  0  0  0  0  0  0
  138.4410   75.1750  223.1080 H   0  0  0  0  0  0  0  0  0  0  0  0
  137.8915   73.0556  222.2421 H   0  0  0  0  0  0  0  0  0  0  0  0
  138.8231   73.4187  220.7657 H   0  0  0  0  0  0  0  0  0  0  0  0
  138.0500   71.6158  224.7481 H   0  0  0  0  0  0  0  0  0  0  0  0
  137.6665   71.2076  223.0842 H   0  0  0  0  0  0  0  0  0  0  0  0
  138.1551   69.2731  224.9261 H   0  0  0  0  0  0  0  0  0  0  0  0
  138.7013   69.0329  223.2745 H   0  0  0  0  0  0  0  0  0  0  0  0
  140.9012   69.0913  224.1024 H   0  0  0  0  0  0  0  0  0  0  0  0
  139.6753   71.3357  226.7130 H   0  0  0  0  0  0  0  0  0  0  0  0
  139.7516   70.7053  229.1376 H   0  0  0  0  0  0  0  0  0  0  0  0
  140.4107   68.3800  229.7337 H   0  0  0  0  0  0  0  0  0  0  0  0
  140.8970   67.3455  225.6413 H   0  0  0  0  0  0  0  0  0  0  0  0
  140.7163   71.7669  225.3083 H   0  0  0  0  0  0  0  0  0  0  0  0
  141.7167   71.2283  223.9746 H   0  0  0  0  0  0  0  0  0  0  0  0
  138.0104   77.3044  222.6159 H   0  0  0  0  0  0  0  0  0  0  0  0
  138.2786   79.6322  223.5228 H   0  0  0  0  0  0  0  0  0  0  0  0
  139.7586   81.4889  224.1360 H   0  0  0  0  0  0  0  0  0  0  0  0
  142.0462   82.4084  224.3077 H   0  0  0  0  0  0  0  0  0  0  0  0
  144.0225   81.0951  223.6066 H   0  0  0  0  0  0  0  0  0  0  0  0
  143.6931   78.7869  222.7132 H   0  0  0  0  0  0  0  0  0  0  0  0
  1  2  2  0
  2  3  1  0
  3  4  1  0
  4  5  1  0
  5  6  2  0
  5  7  1  0
  7  8  1  0
  8  9  1  0
  9 10  1  0
 10 11  1  0
 11 12  2  0
 12 13  1  0
 13 14  2  0
 14 15  1  0
 15 16  2  0
 10 17  1  0
  2 18  1  0
 18 19  2  0
 19 20  1  0
 20 21  2  0
 21 22  1  0
 22 23  2  0
 23 24  1  0
 24 25  2  0
 25 26  1  0
 26 27  2  0
 17  7  1  0
 27 18  1  0
 16 11  1  0
 26 21  1  0
  3 28  1  0
  4 29  1  0
  4 30  1  0
  8 31  1  0
  8 32  1  0
  9 33  1  0
  9 34  1  0
 10 35  1  6
 12 36  1  0
 13 37  1  0
 14 38  1  0
 16 39  1  0
 17 40  1  0
 17 41  1  0
 19 42  1  0
 20 43  1  0
 22 44  1  0
 23 45  1  0
 24 46  1  0
 25 47  1  0
M  END
>  <smiles>  (12) 
O=C(NCC(=O)N1CC[C@H](c2cccnc2)C1)c1ccc2ccccc2n1

>  <score_type>  (12) 
oracle

>  <origin>  (12) 
autodockgpu

>  <m_score__min__energy>  (12) 
-9.0199999999999996

>  <m_primary>  (12) 
energy

>  <rmsd>  (12) 
8.526976178710624

>  <m_score__min__rmsd>  (12) 
8.526976178710624

>  <meeko>  (12) 
{"free_energy": -8.78, "intermolecular_energy": -10.27, "internal_energy": -0.95, "cluster_size": 7, "cluster_id": 2, "rank_in_cluster": 1}

>  <energy>  (12) 
-8.75

>  <cluster_rmsd>  (12) 
0.79

>  <cluster>  (12) 
1

$$$$

     RDKit          3D

 47 50  0  0  0  0  0  0  0  0999 V2000
  140.2410   71.3920  221.2490 O   0  0  0  0  0  0  0  0  0  0  0  0
  140.0150   72.0000  222.3340 C   0  0  0  0  0  0  0  0  0  0  0  0
  139.7580   73.3820  222.3380 N   0  0  0  0  0  0  0  0  0  0  0  0
  139.7320   74.1860  221.1290 C   0  0  0  0  0  0  0  0  0  0  0  0
  141.1140   74.7030  220.8990 C   0  0  0  0  0  0  0  0  0  0  0  0
  142.0480   73.9310  220.5580 O   0  0  0  0  0  0  0  0  0  0  0  0
  141.3310   76.1100  221.0820 N   0  0  0  0  0  0  0  0  0  0  0  0
  141.8210   77.0970  220.1710 C   0  0  0  0  0  0  0  0  0  0  0  0
  140.9330   78.2820  220.4170 C   0  0  0  0  0  0  0  0  0  0  0  0
  140.5800   78.1680  221.8660 C   0  0  2  0  0  0  0  0  0  0  0  0
  141.1480   79.3090  222.6000 C   0  0  0  0  0  0  0  0  0  0  0  0
  142.5400   79.3880  222.7030 C   0  0  0  0  0  0  0  0  0  0  0  0
  143.1200   80.4440  223.3840 C   0  0  0  0  0  0  0  0  0  0  0  0
  142.2770   81.3900  223.9420 C   0  0  0  0  0  0  0  0  0  0  0  0
  140.9350   81.2950  223.8310 N   0  0  0  0  0  0  0  0  0  0  0  0
  140.3510   80.2660  223.1670 C   0  0  0  0  0  0  0  0  0  0  0  0
  141.0660   76.8240  222.3330 C   0  0  0  0  0  0  0  0  0  0  0  0
  140.0220   71.2600  223.6110 C   0  0  0  0  0  0  0  0  0  0  0  0
  139.5430   69.9660  223.6700 C   0  0  0  0  0  0  0  0  0  0  0  0
  139.5600   69.2870  224.8930 C   0  0  0  0  0  0  0  0  0  0  0  0
  140.0610   69.9320  226.0270 C   0  0  0  0  0  0  0  0  0  0  0  0
  140.0920   69.2850  227.2570 C   0  0  0  0  0  0  0  0  0  0  0  0
  140.5960   69.9570  228.3550 C   0  0  0  0  0  0  0  0  0  0  0  0
  141.0690   71.2520  228.2720 C   0  0  0  0  0  0  0  0  0  0  0  0
  141.0360   71.8920  227.0460 C   0  0  0  0  0  0  0  0  0  0  0  0
  140.5350   71.2310  225.9350 C   0  0  0  0  0  0  0  0  0  0  0  0
  140.4990   71.8490  224.7390 N   0  0  0  0  0  0  0  0  0  0  0  0
  139.5770   73.8400  223.2610 H   0  0  0  0  0  0  0  0  0  0  0  0
  139.4158   73.5688  220.2751 H   0  0  0  0  0  0  0  0  0  0  0  0
  139.0213   75.0189  221.2349 H   0  0  0  0  0  0  0  0  0  0  0  0
  142.8713   77.3426  220.3867 H   0  0  0  0  0  0  0  0  0  0  0  0
  141.7995   76.7587  219.1245 H   0  0  0  0  0  0  0  0  0  0  0  0
  141.4688   79.2216  220.2169 H   0  0  0  0  0  0  0  0  0  0  0  0
  140.0485   78.2940  219.7632 H   0  0  0  0  0  0  0  0  0  0  0  0
  139.4963   78.2160  222.0484 H   0  0  0  0  0  0  0  0  0  0  0  0
  143.1721   78.6134  222.2443 H   0  0  0  0  0  0  0  0  0  0  0  0
  144.2126   80.5288  223.4787 H   0  0  0  0  0  0  0  0  0  0  0  0
  142.7114   82.2397  224.4891 H   0  0  0  0  0  0  0  0  0  0  0  0
  139.2559   80.2021  223.0859 H   0  0  0  0  0  0  0  0  0  0  0  0
  141.9830   76.9228  222.9325 H   0  0  0  0  0  0  0  0  0  0  0  0
  140.3436   76.3055  222.9806 H   0  0  0  0  0  0  0  0  0  0  0  0
  139.1528   69.4752  222.7662 H   0  0  0  0  0  0  0  0  0  0  0  0
  139.1829   68.2559  224.9614 H   0  0  0  0  0  0  0  0  0  0  0  0
  139.7211   68.2541  227.3551 H   0  0  0  0  0  0  0  0  0  0  0  0
  140.6211   69.4431  229.3273 H   0  0  0  0  0  0  0  0  0  0  0  0
  141.4637   71.7638  229.1621 H   0  0  0  0  0  0  0  0  0  0  0  0
  141.4066   72.9235  226.9528 H   0  0  0  0  0  0  0  0  0  0  0  0
  1  2  2  0
  2  3  1  0
  3  4  1  0
  4  5  1  0
  5  6  2  0
  5  7  1  0
  7  8  1  0
  8  9  1  0
  9 10  1  0
 10 11  1  0
 11 12  2  0
 12 13  1  0
 13 14  2  0
 14 15  1  0
 15 16  2  0
 10 17  1  0
  2 18  1  0
 18 19  2  0
 19 20  1  0
 20 21  2  0
 21 22  1  0
 22 23  2  0
 23 24  1  0
 24 25  2  0
 25 26  1  0
 26 27  2  0
 17  7  1  0
 27 18  1  0
 16 11  1  0
 26 21  1  0
  3 28  1  0
  4 29  1  0
  4 30  1  0
  8 31  1  0
  8 32  1  0
  9 33  1  0
  9 34  1  0
 10 35  1  6
 12 36  1  0
 13 37  1  0
 14 38  1  0
 16 39  1  0
 17 40  1  0
 17 41  1  0
 19 42  1  0
 20 43  1  0
 22 44  1  0
 23 45  1  0
 24 46  1  0
 25 47  1  0
M  END
>  <smiles>  (13) 
O=C(NCC(=O)N1CC[C@H](c2cccnc2)C1)c1ccc2ccccc2n1

>  <score_type>  (13) 
oracle

>  <origin>  (13) 
autodockgpu

>  <m_score__min__energy>  (13) 
-9.0199999999999996

>  <m_primary>  (13) 
energy

>  <rmsd>  (13) 
2.6404188452355655

>  <m_score__min__rmsd>  (13) 
2.6404188452355655

>  <meeko>  (13) 
{"free_energy": -8.95, "intermolecular_energy": -10.44, "internal_energy": -1.17, "cluster_size": 42, "cluster_id": 1, "rank_in_cluster": 3}

>  <energy>  (13) 
-8.73

>  <cluster_rmsd>  (13) 
0.74

>  <cluster>  (13) 
1

$$$$

     RDKit          3D

 47 50  0  0  0  0  0  0  0  0999 V2000
  139.3570   71.0370  221.2980 O   0  0  0  0  0  0  0  0  0  0  0  0
  139.4730   71.7160  222.3590 C   0  0  0  0  0  0  0  0  0  0  0  0
  139.4010   73.1190  222.3200 N   0  0  0  0  0  0  0  0  0  0  0  0
  139.1950   73.8680  221.0930 C   0  0  0  0  0  0  0  0  0  0  0  0
  140.4360   74.6570  220.8290 C   0  0  0  0  0  0  0  0  0  0  0  0
  141.4610   74.1110  220.3440 O   0  0  0  0  0  0  0  0  0  0  0  0
  140.4090   76.0550  221.1520 N   0  0  0  0  0  0  0  0  0  0  0  0
  139.8050   77.1520  220.4630 C   0  0  0  0  0  0  0  0  0  0  0  0
  139.1980   77.9740  221.5630 C   0  0  0  0  0  0  0  0  0  0  0  0
  140.1110   77.7440  222.7250 C   0  0  2  0  0  0  0  0  0  0  0  0
  140.7760   79.0050  223.0830 C   0  0  0  0  0  0  0  0  0  0  0  0
  142.1720   79.0130  223.1360 C   0  0  0  0  0  0  0  0  0  0  0  0
  142.8420   80.1780  223.4670 C   0  0  0  0  0  0  0  0  0  0  0  0
  142.0810   81.3020  223.7370 C   0  0  0  0  0  0  0  0  0  0  0  0
  140.7320   81.2740  223.6810 N   0  0  0  0  0  0  0  0  0  0  0  0
  140.0610   80.1400  223.3580 C   0  0  0  0  0  0  0  0  0  0  0  0
  141.0500   76.6350  222.3340 C   0  0  0  0  0  0  0  0  0  0  0  0
  139.6850   71.0360  223.6520 C   0  0  0  0  0  0  0  0  0  0  0  0
  139.3790   69.6960  223.7940 C   0  0  0  0  0  0  0  0  0  0  0  0
  139.5890   69.0760  225.0300 C   0  0  0  0  0  0  0  0  0  0  0  0
  140.1030   69.8240  226.0930 C   0  0  0  0  0  0  0  0  0  0  0  0
  140.3230   69.2380  227.3340 C   0  0  0  0  0  0  0  0  0  0  0  0
  140.8330   70.0110  228.3590 C   0  0  0  0  0  0  0  0  0  0  0  0
  141.1300   71.3500  228.1940 C   0  0  0  0  0  0  0  0  0  0  0  0
  140.9090   71.9300  226.9570 C   0  0  0  0  0  0  0  0  0  0  0  0
  140.3990   71.1670  225.9190 C   0  0  0  0  0  0  0  0  0  0  0  0
  140.1820   71.7250  224.7120 N   0  0  0  0  0  0  0  0  0  0  0  0
  139.5020   73.6360  223.2240 H   0  0  0  0  0  0  0  0  0  0  0  0
  139.0063   73.1761  220.2589 H   0  0  0  0  0  0  0  0  0  0  0  0
  138.3268   74.5364  221.1906 H   0  0  0  0  0  0  0  0  0  0  0  0
  140.5596   77.7317  219.9111 H   0  0  0  0  0  0  0  0  0  0  0  0
  139.0659   76.8298  219.7147 H   0  0  0  0  0  0  0  0  0  0  0  0
  139.1735   79.0389  221.2886 H   0  0  0  0  0  0  0  0  0  0  0  0
  138.1563   77.6939  221.7783 H   0  0  0  0  0  0  0  0  0  0  0  0
  139.5772   77.4293  223.6338 H   0  0  0  0  0  0  0  0  0  0  0  0
  142.7374   78.0956  222.9152 H   0  0  0  0  0  0  0  0  0  0  0  0
  143.9406   80.2094  223.5138 H   0  0  0  0  0  0  0  0  0  0  0  0
  142.5874   82.2413  224.0038 H   0  0  0  0  0  0  0  0  0  0  0  0
  138.9618   80.1324  223.3177 H   0  0  0  0  0  0  0  0  0  0  0  0
  142.0467   77.0303  222.0882 H   0  0  0  0  0  0  0  0  0  0  0  0
  141.2126   75.9034  223.1392 H   0  0  0  0  0  0  0  0  0  0  0  0
  138.9753   69.1240  222.9456 H   0  0  0  0  0  0  0  0  0  0  0  0
  139.3520   68.0102  225.1642 H   0  0  0  0  0  0  0  0  0  0  0  0
  140.0944   68.1745  227.4975 H   0  0  0  0  0  0  0  0  0  0  0  0
  141.0085   69.5446  229.3396 H   0  0  0  0  0  0  0  0  0  0  0  0
  141.5336   71.9427  229.0282 H   0  0  0  0  0  0  0  0  0  0  0  0
  141.1377   72.9942  226.7983 H   0  0  0  0  0  0  0  0  0  0  0  0
  1  2  2  0
  2  3  1  0
  3  4  1  0
  4  5  1  0
  5  6  2  0
  5  7  1  0
  7  8  1  0
  8  9  1  0
  9 10  1  0
 10 11  1  0
 11 12  2  0
 12 13  1  0
 13 14  2  0
 14 15  1  0
 15 16  2  0
 10 17  1  0
  2 18  1  0
 18 19  2  0
 19 20  1  0
 20 21  2  0
 21 22  1  0
 22 23  2  0
 23 24  1  0
 24 25  2  0
 25 26  1  0
 26 27  2  0
 17  7  1  0
 27 18  1  0
 16 11  1  0
 26 21  1  0
  3 28  1  0
  4 29  1  0
  4 30  1  0
  8 31  1  0
  8 32  1  0
  9 33  1  0
  9 34  1  0
 10 35  1  1
 12 36  1  0
 13 37  1  0
 14 38  1  0
 16 39  1  0
 17 40  1  0
 17 41  1  0
 19 42  1  0
 20 43  1  0
 22 44  1  0
 23 45  1  0
 24 46  1  0
 25 47  1  0
M  END
>  <smiles>  (14) 
O=C(NCC(=O)N1CC[C@H](c2cccnc2)C1)c1ccc2ccccc2n1

>  <score_type>  (14) 
oracle

>  <origin>  (14) 
autodockgpu

>  <m_score__min__energy>  (14) 
-9.0199999999999996

>  <m_primary>  (14) 
energy

>  <rmsd>  (14) 
2.8574952064955967

>  <m_score__min__rmsd>  (14) 
2.8574952064955967

>  <meeko>  (14) 
{"free_energy": -8.52, "intermolecular_energy": -10.01, "internal_energy": -1.29, "cluster_size": 42, "cluster_id": 1, "rank_in_cluster": 27}

>  <energy>  (14) 
-8.71

>  <cluster_rmsd>  (14) 
1.57

>  <cluster>  (14) 
1

$$$$

     RDKit          3D

 47 50  0  0  0  0  0  0  0  0999 V2000
  139.5850   71.2190  221.2800 O   0  0  0  0  0  0  0  0  0  0  0  0
  139.6330   71.8770  222.3590 C   0  0  0  0  0  0  0  0  0  0  0  0
  139.5080   73.2770  222.3470 N   0  0  0  0  0  0  0  0  0  0  0  0
  139.3180   74.0450  221.1290 C   0  0  0  0  0  0  0  0  0  0  0  0
  140.6200   74.6980  220.7980 C   0  0  0  0  0  0  0  0  0  0  0  0
  141.5790   74.0330  220.3270 O   0  0  0  0  0  0  0  0  0  0  0  0
  140.7300   76.1090  221.0380 N   0  0  0  0  0  0  0  0  0  0  0  0
  140.5840   77.2140  220.1420 C   0  0  0  0  0  0  0  0  0  0  0  0
  139.8000   78.2180  220.9380 C   0  0  0  0  0  0  0  0  0  0  0  0
  140.2260   77.9640  222.3490 C   0  0  2  0  0  0  0  0  0  0  0  0
  140.9430   79.1410  222.8630 C   0  0  0  0  0  0  0  0  0  0  0  0
  142.3390   79.1260  222.8100 C   0  0  0  0  0  0  0  0  0  0  0  0
  143.0560   80.2120  223.2820 C   0  0  0  0  0  0  0  0  0  0  0  0
  142.3420   81.2810  223.7950 C   0  0  0  0  0  0  0  0  0  0  0  0
  140.9930   81.2750  223.8370 N   0  0  0  0  0  0  0  0  0  0  0  0
  140.2750   80.2180  223.3790 C   0  0  0  0  0  0  0  0  0  0  0  0
  141.0360   76.6960  222.3440 C   0  0  0  0  0  0  0  0  0  0  0  0
  139.8240   71.1760  223.6440 C   0  0  0  0  0  0  0  0  0  0  0  0
  139.5130   69.8350  223.7590 C   0  0  0  0  0  0  0  0  0  0  0  0
  139.7020   69.1950  224.9890 C   0  0  0  0  0  0  0  0  0  0  0  0
  140.2020   69.9250  226.0710 C   0  0  0  0  0  0  0  0  0  0  0  0
  140.4020   69.3190  227.3060 C   0  0  0  0  0  0  0  0  0  0  0  0
  140.8980   70.0740  228.3510 C   0  0  0  0  0  0  0  0  0  0  0  0
  141.2020   71.4150  228.2110 C   0  0  0  0  0  0  0  0  0  0  0  0
  141.0010   72.0150  226.9800 C   0  0  0  0  0  0  0  0  0  0  0  0
  140.5050   71.2700  225.9220 C   0  0  0  0  0  0  0  0  0  0  0  0
  140.3070   71.8480  224.7220 N   0  0  0  0  0  0  0  0  0  0  0  0
  139.5540   73.7770  223.2650 H   0  0  0  0  0  0  0  0  0  0  0  0
  139.0139   73.3780  220.3088 H   0  0  0  0  0  0  0  0  0  0  0  0
  138.5314   74.8012  221.2683 H   0  0  0  0  0  0  0  0  0  0  0  0
  141.5658   77.6200  219.8570 H   0  0  0  0  0  0  0  0  0  0  0  0
  140.0880   76.9361  219.2003 H   0  0  0  0  0  0  0  0  0  0  0  0
  140.0513   79.2440  220.6312 H   0  0  0  0  0  0  0  0  0  0  0  0
  138.7136   78.1188  220.7967 H   0  0  0  0  0  0  0  0  0  0  0  0
  139.3772   77.8182  223.0333 H   0  0  0  0  0  0  0  0  0  0  0  0
  142.8664   78.2545  222.3948 H   0  0  0  0  0  0  0  0  0  0  0  0
  144.1555   80.2249  223.2504 H   0  0  0  0  0  0  0  0  0  0  0  0
  142.8871   82.1565  224.1776 H   0  0  0  0  0  0  0  0  0  0  0  0
  139.1759   80.2271  223.4219 H   0  0  0  0  0  0  0  0  0  0  0  0
  142.1102   76.9137  222.4367 H   0  0  0  0  0  0  0  0  0  0  0  0
  140.7965   76.0277  223.1842 H   0  0  0  0  0  0  0  0  0  0  0  0
  139.1219   69.2776  222.8951 H   0  0  0  0  0  0  0  0  0  0  0  0
  139.4595   68.1282  225.1032 H   0  0  0  0  0  0  0  0  0  0  0  0
  140.1686   68.2536  227.4490 H   0  0  0  0  0  0  0  0  0  0  0  0
  141.0563   69.5920  229.3270 H   0  0  0  0  0  0  0  0  0  0  0  0
  141.5954   71.9933  229.0600 H   0  0  0  0  0  0  0  0  0  0  0  0
  141.2345   73.0810  226.8418 H   0  0  0  0  0  0  0  0  0  0  0  0
  1  2  2  0
  2  3  1  0
  3  4  1  0
  4  5  1  0
  5  6  2  0
  5  7  1  0
  7  8  1  0
  8  9  1  0
  9 10  1  0
 10 11  1  0
 11 12  2  0
 12 13  1  0
 13 14  2  0
 14 15  1  0
 15 16  2  0
 10 17  1  0
  2 18  1  0
 18 19  2  0
 19 20  1  0
 20 21  2  0
 21 22  1  0
 22 23  2  0
 23 24  1  0
 24 25  2  0
 25 26  1  0
 26 27  2  0
 17  7  1  0
 27 18  1  0
 16 11  1  0
 26 21  1  0
  3 28  1  0
  4 29  1  0
  4 30  1  0
  8 31  1  0
  8 32  1  0
  9 33  1  0
  9 34  1  0
 10 35  1  1
 12 36  1  0
 13 37  1  0
 14 38  1  0
 16 39  1  0
 17 40  1  0
 17 41  1  0
 19 42  1  0
 20 43  1  0
 22 44  1  0
 23 45  1  0
 24 46  1  0
 25 47  1  0
M  END
>  <smiles>  (15) 
O=C(NCC(=O)N1CC[C@H](c2cccnc2)C1)c1ccc2ccccc2n1

>  <score_type>  (15) 
oracle

>  <origin>  (15) 
autodockgpu

>  <m_score__min__energy>  (15) 
-9.0199999999999996

>  <m_primary>  (15) 
energy

>  <rmsd>  (15) 
2.7342615468194613

>  <m_score__min__rmsd>  (15) 
2.7342615468194613

>  <meeko>  (15) 
{"free_energy": -8.63, "intermolecular_energy": -10.12, "internal_energy": -1.28, "cluster_size": 42, "cluster_id": 1, "rank_in_cluster": 20}

>  <energy>  (15) 
-8.71

>  <cluster_rmsd>  (15) 
0.75

>  <cluster>  (15) 
1

$$$$

     RDKit          3D

 47 50  0  0  0  0  0  0  0  0999 V2000
  140.6950   71.4770  221.2690 O   0  0  0  0  0  0  0  0  0  0  0  0
  140.1870   72.0370  222.2830 C   0  0  0  0  0  0  0  0  0  0  0  0
  139.7010   73.3530  222.2030 N   0  0  0  0  0  0  0  0  0  0  0  0
  139.7460   74.1410  220.9830 C   0  0  0  0  0  0  0  0  0  0  0  0
  141.1610   74.5710  220.7730 C   0  0  0  0  0  0  0  0  0  0  0  0
  142.0470   73.7450  220.4300 O   0  0  0  0  0  0  0  0  0  0  0  0
  141.4660   75.9580  220.9780 N   0  0  0  0  0  0  0  0  0  0  0  0
  142.1830   76.8800  220.1540 C   0  0  0  0  0  0  0  0  0  0  0  0
  141.3730   78.1420  220.2390 C   0  0  0  0  0  0  0  0  0  0  0  0
  140.7770   78.0900  221.6100 C   0  0  2  0  0  0  0  0  0  0  0  0
  141.3130   79.1950  222.4190 C   0  0  0  0  0  0  0  0  0  0  0  0
  140.3990   80.0300  223.0670 C   0  0  0  0  0  0  0  0  0  0  0  0
  140.8580   81.0820  223.8400 C   0  0  0  0  0  0  0  0  0  0  0  0
  142.2270   81.2600  223.9360 C   0  0  0  0  0  0  0  0  0  0  0  0
  143.0940   80.4420  223.3020 N   0  0  0  0  0  0  0  0  0  0  0  0
  142.6600   79.4060  222.5400 C   0  0  0  0  0  0  0  0  0  0  0  0
  141.0610   76.7200  222.1630 C   0  0  0  0  0  0  0  0  0  0  0  0
  140.1010   71.3090  223.5640 C   0  0  0  0  0  0  0  0  0  0  0  0
  139.5180   70.0580  223.6180 C   0  0  0  0  0  0  0  0  0  0  0  0
  139.4490   69.3900  224.8460 C   0  0  0  0  0  0  0  0  0  0  0  0
  139.9710   70.0030  225.9880 C   0  0  0  0  0  0  0  0  0  0  0  0
  139.9180   69.3650  227.2220 C   0  0  0  0  0  0  0  0  0  0  0  0
  140.4460   70.0030  228.3290 C   0  0  0  0  0  0  0  0  0  0  0  0
  141.0240   71.2550  228.2510 C   0  0  0  0  0  0  0  0  0  0  0  0
  141.0740   71.8860  227.0200 C   0  0  0  0  0  0  0  0  0  0  0  0
  140.5500   71.2590  225.9010 C   0  0  0  0  0  0  0  0  0  0  0  0
  140.5950   71.8680  224.7000 N   0  0  0  0  0  0  0  0  0  0  0  0
  139.2900   73.7740  223.0680 H   0  0  0  0  0  0  0  0  0  0  0  0
  139.4089   73.5323  220.1310 H   0  0  0  0  0  0  0  0  0  0  0  0
  139.0850   75.0165  221.0648 H   0  0  0  0  0  0  0  0  0  0  0  0
  143.2005   77.0408  220.5397 H   0  0  0  0  0  0  0  0  0  0  0  0
  142.3047   76.5216  219.1212 H   0  0  0  0  0  0  0  0  0  0  0  0
  142.0144   79.0282  220.1236 H   0  0  0  0  0  0  0  0  0  0  0  0
  140.6134   78.2148  219.4467 H   0  0  0  0  0  0  0  0  0  0  0  0
  139.6863   78.2327  221.6087 H   0  0  0  0  0  0  0  0  0  0  0  0
  139.3185   79.8517  222.9630 H   0  0  0  0  0  0  0  0  0  0  0  0
  140.1590   81.7534  224.3601 H   0  0  0  0  0  0  0  0  0  0  0  0
  142.6186   82.0887  224.5441 H   0  0  0  0  0  0  0  0  0  0  0  0
  143.3779   78.7477  222.0288 H   0  0  0  0  0  0  0  0  0  0  0  0
  141.8716   76.7547  222.9057 H   0  0  0  0  0  0  0  0  0  0  0  0
  140.1998   76.2788  222.6861 H   0  0  0  0  0  0  0  0  0  0  0  0
  139.1130   69.5925  222.7073 H   0  0  0  0  0  0  0  0  0  0  0  0
  138.9888   68.3931  224.9114 H   0  0  0  0  0  0  0  0  0  0  0  0
  139.4630   68.3680  227.3162 H   0  0  0  0  0  0  0  0  0  0  0  0
  140.4044   69.4966  229.3046 H   0  0  0  0  0  0  0  0  0  0  0  0
  141.4359   71.7404  229.1481 H   0  0  0  0  0  0  0  0  0  0  0  0
  141.5290   72.8835  226.9303 H   0  0  0  0  0  0  0  0  0  0  0  0
  1  2  2  0
  2  3  1  0
  3  4  1  0
  4  5  1  0
  5  6  2  0
  5  7  1  0
  7  8  1  0
  8  9  1  0
  9 10  1  0
 10 11  1  0
 11 12  2  0
 12 13  1  0
 13 14  2  0
 14 15  1  0
 15 16  2  0
 10 17  1  0
  2 18  1  0
 18 19  2  0
 19 20  1  0
 20 21  2  0
 21 22  1  0
 22 23  2  0
 23 24  1  0
 24 25  2  0
 25 26  1  0
 26 27  2  0
 17  7  1  0
 27 18  1  0
 16 11  1  0
 26 21  1  0
  3 28  1  0
  4 29  1  0
  4 30  1  0
  8 31  1  0
  8 32  1  0
  9 33  1  0
  9 34  1  0
 10 35  1  6
 12 36  1  0
 13 37  1  0
 14 38  1  0
 16 39  1  0
 17 40  1  0
 17 41  1  0
 19 42  1  0
 20 43  1  0
 22 44  1  0
 23 45  1  0
 24 46  1  0
 25 47  1  0
M  END
>  <smiles>  (16) 
O=C(NCC(=O)N1CC[C@H](c2cccnc2)C1)c1ccc2ccccc2n1

>  <score_type>  (16) 
oracle

>  <origin>  (16) 
autodockgpu

>  <m_score__min__energy>  (16) 
-9.0199999999999996

>  <m_primary>  (16) 
energy

>  <rmsd>  (16) 
2.5615661790194966

>  <m_score__min__rmsd>  (16) 
2.5615661790194966

>  <meeko>  (16) 
{"free_energy": -8.87, "intermolecular_energy": -10.36, "internal_energy": -1.08, "cluster_size": 42, "cluster_id": 1, "rank_in_cluster": 5}

>  <energy>  (16) 
-8.69

>  <cluster_rmsd>  (16) 
1.24

>  <cluster>  (16) 
1

$$$$

     RDKit          3D

 47 50  0  0  0  0  0  0  0  0999 V2000
  139.1930   70.6520  221.2700 O   0  0  0  0  0  0  0  0  0  0  0  0
  139.1920   71.3780  222.3060 C   0  0  0  0  0  0  0  0  0  0  0  0
  138.9150   72.7520  222.2150 N   0  0  0  0  0  0  0  0  0  0  0  0
  138.6190   73.4200  220.9590 C   0  0  0  0  0  0  0  0  0  0  0  0
  139.8180   74.2260  220.5810 C   0  0  0  0  0  0  0  0  0  0  0  0
  140.7110   73.7510  219.8320 O   0  0  0  0  0  0  0  0  0  0  0  0
  139.9080   75.5590  221.1050 N   0  0  0  0  0  0  0  0  0  0  0  0
  138.8920   76.5440  221.3070 C   0  0  0  0  0  0  0  0  0  0  0  0
  139.2280   77.1360  222.6460 C   0  0  0  0  0  0  0  0  0  0  0  0
  140.7180   77.0280  222.7180 C   0  0  2  0  0  0  0  0  0  0  0  0
  141.3060   78.3760  222.7420 C   0  0  0  0  0  0  0  0  0  0  0  0
  141.6480   78.9590  221.5190 C   0  0  0  0  0  0  0  0  0  0  0  0
  142.2030   80.2260  221.4940 C   0  0  0  0  0  0  0  0  0  0  0  0
  142.3980   80.8680  222.7040 C   0  0  0  0  0  0  0  0  0  0  0  0
  142.0610   80.2870  223.8760 N   0  0  0  0  0  0  0  0  0  0  0  0
  141.5160   79.0450  223.9180 C   0  0  0  0  0  0  0  0  0  0  0  0
  141.1560   76.1800  221.5540 C   0  0  0  0  0  0  0  0  0  0  0  0
  139.4820   70.7820  223.6250 C   0  0  0  0  0  0  0  0  0  0  0  0
  139.2180   69.4460  223.8600 C   0  0  0  0  0  0  0  0  0  0  0  0
  139.5030   68.9070  225.1200 C   0  0  0  0  0  0  0  0  0  0  0  0
  140.0460   69.7300  226.1100 C   0  0  0  0  0  0  0  0  0  0  0  0
  140.3400   69.2250  227.3710 C   0  0  0  0  0  0  0  0  0  0  0  0
  140.8770   70.0700  228.3230 C   0  0  0  0  0  0  0  0  0  0  0  0
  141.1310   71.4030  228.0650 C   0  0  0  0  0  0  0  0  0  0  0  0
  140.8370   71.9020  226.8080 C   0  0  0  0  0  0  0  0  0  0  0  0
  140.2990   71.0660  225.8420 C   0  0  0  0  0  0  0  0  0  0  0  0
  140.0100   71.5460  224.6170 N   0  0  0  0  0  0  0  0  0  0  0  0
  138.9250   73.3100  223.1000 H   0  0  0  0  0  0  0  0  0  0  0  0
  138.4075   72.6742  220.1786 H   0  0  0  0  0  0  0  0  0  0  0  0
  137.7366   74.0680  221.0654 H   0  0  0  0  0  0  0  0  0  0  0  0
  138.9277   77.3110  220.5193 H   0  0  0  0  0  0  0  0  0  0  0  0
  137.8769   76.1216  221.2713 H   0  0  0  0  0  0  0  0  0  0  0  0
  138.9078   78.1869  222.7017 H   0  0  0  0  0  0  0  0  0  0  0  0
  138.7229   76.6229  223.4776 H   0  0  0  0  0  0  0  0  0  0  0  0
  141.0679   76.5409  223.6401 H   0  0  0  0  0  0  0  0  0  0  0  0
  141.4766   78.4127  220.5798 H   0  0  0  0  0  0  0  0  0  0  0  0
  142.4799   80.7068  220.5442 H   0  0  0  0  0  0  0  0  0  0  0  0
  142.8382   81.8761  222.7118 H   0  0  0  0  0  0  0  0  0  0  0  0
  141.2477   78.5838  224.8799 H   0  0  0  0  0  0  0  0  0  0  0  0
  141.5971   76.7989  220.7588 H   0  0  0  0  0  0  0  0  0  0  0  0
  141.9311   75.4468  221.8216 H   0  0  0  0  0  0  0  0  0  0  0  0
  138.7897   68.8147  223.0676 H   0  0  0  0  0  0  0  0  0  0  0  0
  139.3015   67.8459  225.3287 H   0  0  0  0  0  0  0  0  0  0  0  0
  140.1479   68.1680  227.6076 H   0  0  0  0  0  0  0  0  0  0  0  0
  141.1101   69.6677  229.3199 H   0  0  0  0  0  0  0  0  0  0  0  0
  141.5579   72.0541  228.8421 H   0  0  0  0  0  0  0  0  0  0  0  0
  141.0299   72.9598  226.5760 H   0  0  0  0  0  0  0  0  0  0  0  0
  1  2  2  0
  2  3  1  0
  3  4  1  0
  4  5  1  0
  5  6  2  0
  5  7  1  0
  7  8  1  0
  8  9  1  0
  9 10  1  0
 10 11  1  0
 11 12  2  0
 12 13  1  0
 13 14  2  0
 14 15  1  0
 15 16  2  0
 10 17  1  0
  2 18  1  0
 18 19  2  0
 19 20  1  0
 20 21  2  0
 21 22  1  0
 22 23  2  0
 23 24  1  0
 24 25  2  0
 25 26  1  0
 26 27  2  0
 17  7  1  0
 27 18  1  0
 16 11  1  0
 26 21  1  0
  3 28  1  0
  4 29  1  0
  4 30  1  0
  8 31  1  0
  8 32  1  0
  9 33  1  0
  9 34  1  0
 10 35  1  1
 12 36  1  0
 13 37  1  0
 14 38  1  0
 16 39  1  0
 17 40  1  0
 17 41  1  0
 19 42  1  0
 20 43  1  0
 22 44  1  0
 23 45  1  0
 24 46  1  0
 25 47  1  0
M  END
>  <smiles>  (17) 
O=C(NCC(=O)N1CC[C@H](c2cccnc2)C1)c1ccc2ccccc2n1

>  <score_type>  (17) 
oracle

>  <origin>  (17) 
autodockgpu

>  <m_score__min__energy>  (17) 
-9.0199999999999996

>  <m_primary>  (17) 
energy

>  <rmsd>  (17) 
2.8553242334032647

>  <m_score__min__rmsd>  (17) 
2.8553242334032647

>  <meeko>  (17) 
{"free_energy": -8.27, "intermolecular_energy": -9.76, "internal_energy": -1.3, "cluster_size": 42, "cluster_id": 1, "rank_in_cluster": 41}

>  <energy>  (17) 
-8.68

>  <cluster_rmsd>  (17) 
1.99

>  <cluster>  (17) 
1

$$$$

     RDKit          3D

 47 50  0  0  0  0  0  0  0  0999 V2000
  139.4220   71.0960  221.2770 O   0  0  0  0  0  0  0  0  0  0  0  0
  139.5150   71.7540  222.3540 C   0  0  0  0  0  0  0  0  0  0  0  0
  139.4430   73.1570  222.3410 N   0  0  0  0  0  0  0  0  0  0  0  0
  139.2620   73.9310  221.1250 C   0  0  0  0  0  0  0  0  0  0  0  0
  140.5380   74.6590  220.8570 C   0  0  0  0  0  0  0  0  0  0  0  0
  141.5470   74.0560  220.4050 O   0  0  0  0  0  0  0  0  0  0  0  0
  140.5650   76.0660  221.1350 N   0  0  0  0  0  0  0  0  0  0  0  0
  140.1900   77.1780  220.3180 C   0  0  0  0  0  0  0  0  0  0  0  0
  139.4570   78.0850  221.2640 C   0  0  0  0  0  0  0  0  0  0  0  0
  140.1170   77.8330  222.5820 C   0  0  2  0  0  0  0  0  0  0  0  0
  140.8030   79.0540  223.0290 C   0  0  0  0  0  0  0  0  0  0  0  0
  142.2000   79.0520  223.0290 C   0  0  0  0  0  0  0  0  0  0  0  0
  142.8890   80.1800  223.4400 C   0  0  0  0  0  0  0  0  0  0  0  0
  142.1470   81.2770  223.8410 C   0  0  0  0  0  0  0  0  0  0  0  0
  140.7970   81.2580  223.8330 N   0  0  0  0  0  0  0  0  0  0  0  0
  140.1060   80.1610  223.4330 C   0  0  0  0  0  0  0  0  0  0  0  0
  141.0200   76.6430  222.4020 C   0  0  0  0  0  0  0  0  0  0  0  0
  139.7000   71.0480  223.6370 C   0  0  0  0  0  0  0  0  0  0  0  0
  139.3820   69.7080  223.7480 C   0  0  0  0  0  0  0  0  0  0  0  0
  139.5670   69.0630  224.9760 C   0  0  0  0  0  0  0  0  0  0  0  0
  140.0690   69.7870  226.0610 C   0  0  0  0  0  0  0  0  0  0  0  0
  140.2640   69.1760  227.2940 C   0  0  0  0  0  0  0  0  0  0  0  0
  140.7630   69.9260  228.3420 C   0  0  0  0  0  0  0  0  0  0  0  0
  141.0730   71.2650  228.2070 C   0  0  0  0  0  0  0  0  0  0  0  0
  140.8770   71.8700  226.9770 C   0  0  0  0  0  0  0  0  0  0  0  0
  140.3790   71.1310  225.9170 C   0  0  0  0  0  0  0  0  0  0  0  0
  140.1850   71.7130  224.7170 N   0  0  0  0  0  0  0  0  0  0  0  0
  139.5250   73.6560  223.2570 H   0  0  0  0  0  0  0  0  0  0  0  0
  139.0297   73.2601  220.2848 H   0  0  0  0  0  0  0  0  0  0  0  0
  138.4298   74.6411  221.2402 H   0  0  0  0  0  0  0  0  0  0  0  0
  141.0783   77.6780  219.9046 H   0  0  0  0  0  0  0  0  0  0  0  0
  139.5796   76.8832  219.4517 H   0  0  0  0  0  0  0  0  0  0  0  0
  139.5693   79.1374  220.9642 H   0  0  0  0  0  0  0  0  0  0  0  0
  138.3743   77.8917  221.2862 H   0  0  0  0  0  0  0  0  0  0  0  0
  139.3998   77.5943  223.3812 H   0  0  0  0  0  0  0  0  0  0  0  0
  142.7506   78.1571  222.7035 H   0  0  0  0  0  0  0  0  0  0  0  0
  143.9887   80.2035  223.4476 H   0  0  0  0  0  0  0  0  0  0  0  0
  142.6693   82.1859  224.1742 H   0  0  0  0  0  0  0  0  0  0  0  0
  139.0060   80.1610  223.4333 H   0  0  0  0  0  0  0  0  0  0  0  0
  142.0734   76.9533  222.3383 H   0  0  0  0  0  0  0  0  0  0  0  0
  140.9711   75.9336  223.2412 H   0  0  0  0  0  0  0  0  0  0  0  0
  138.9885   69.1553  222.8822 H   0  0  0  0  0  0  0  0  0  0  0  0
  139.3198   67.9968  225.0862 H   0  0  0  0  0  0  0  0  0  0  0  0
  140.0248   68.1114  227.4336 H   0  0  0  0  0  0  0  0  0  0  0  0
  140.9185   69.4401  229.3165 H   0  0  0  0  0  0  0  0  0  0  0  0
  141.4673   71.8388  229.0586 H   0  0  0  0  0  0  0  0  0  0  0  0
  141.1163   72.9352  226.8422 H   0  0  0  0  0  0  0  0  0  0  0  0
  1  2  2  0
  2  3  1  0
  3  4  1  0
  4  5  1  0
  5  6  2  0
  5  7  1  0
  7  8  1  0
  8  9  1  0
  9 10  1  0
 10 11  1  0
 11 12  2  0
 12 13  1  0
 13 14  2  0
 14 15  1  0
 15 16  2  0
 10 17  1  0
  2 18  1  0
 18 19  2  0
 19 20  1  0
 20 21  2  0
 21 22  1  0
 22 23  2  0
 23 24  1  0
 24 25  2  0
 25 26  1  0
 26 27  2  0
 17  7  1  0
 27 18  1  0
 16 11  1  0
 26 21  1  0
  3 28  1  0
  4 29  1  0
  4 30  1  0
  8 31  1  0
  8 32  1  0
  9 33  1  0
  9 34  1  0
 10 35  1  1
 12 36  1  0
 13 37  1  0
 14 38  1  0
 16 39  1  0
 17 40  1  0
 17 41  1  0
 19 42  1  0
 20 43  1  0
 22 44  1  0
 23 45  1  0
 24 46  1  0
 25 47  1  0
M  END
>  <smiles>  (18) 
O=C(NCC(=O)N1CC[C@H](c2cccnc2)C1)c1ccc2ccccc2n1

>  <score_type>  (18) 
oracle

>  <origin>  (18) 
autodockgpu

>  <m_score__min__energy>  (18) 
-9.0199999999999996

>  <m_primary>  (18) 
energy

>  <rmsd>  (18) 
2.7879322085744374

>  <m_score__min__rmsd>  (18) 
2.7879322085744374

>  <meeko>  (18) 
{"free_energy": -8.59, "intermolecular_energy": -10.08, "internal_energy": -1.28, "cluster_size": 42, "cluster_id": 1, "rank_in_cluster": 22}

>  <energy>  (18) 
-8.68

>  <cluster_rmsd>  (18) 
1.17

>  <cluster>  (18) 
1

$$$$

     RDKit          3D

 47 50  0  0  0  0  0  0  0  0999 V2000
  140.1640   71.5400  221.1680 O   0  0  0  0  0  0  0  0  0  0  0  0
  139.9690   72.1080  222.2810 C   0  0  0  0  0  0  0  0  0  0  0  0
  139.7300   73.4910  222.3440 N   0  0  0  0  0  0  0  0  0  0  0  0
  139.6910   74.3430  221.1690 C   0  0  0  0  0  0  0  0  0  0  0  0
  140.9370   75.1670  221.1640 C   0  0  0  0  0  0  0  0  0  0  0  0
  142.0540   74.6540  220.8910 O   0  0  0  0  0  0  0  0  0  0  0  0
  140.8070   76.5600  221.4830 N   0  0  0  0  0  0  0  0  0  0  0  0
  139.9550   77.2190  222.4230 C   0  0  0  0  0  0  0  0  0  0  0  0
  140.8470   78.2480  223.0540 C   0  0  0  0  0  0  0  0  0  0  0  0
  141.8050   78.6070  221.9620 C   0  0  2  0  0  0  0  0  0  0  0  0
  141.6050   80.0130  221.5790 C   0  0  0  0  0  0  0  0  0  0  0  0
  141.5570   80.3150  220.2150 C   0  0  0  0  0  0  0  0  0  0  0  0
  141.3710   81.6240  219.8080 C   0  0  0  0  0  0  0  0  0  0  0  0
  141.2390   82.5910  220.7890 C   0  0  0  0  0  0  0  0  0  0  0  0
  141.2890   82.2790  222.1020 N   0  0  0  0  0  0  0  0  0  0  0  0
  141.4710   81.0000  222.5180 C   0  0  0  0  0  0  0  0  0  0  0  0
  141.5890   77.6220  220.8450 C   0  0  0  0  0  0  0  0  0  0  0  0
  139.9910   71.3180  223.5270 C   0  0  0  0  0  0  0  0  0  0  0  0
  139.5400   70.0120  223.5330 C   0  0  0  0  0  0  0  0  0  0  0  0
  139.5720   69.2850  224.7290 C   0  0  0  0  0  0  0  0  0  0  0  0
  140.0580   69.8960  225.8880 C   0  0  0  0  0  0  0  0  0  0  0  0
  140.1030   69.2010  227.0910 C   0  0  0  0  0  0  0  0  0  0  0  0
  140.5910   69.8390  228.2160 C   0  0  0  0  0  0  0  0  0  0  0  0
  141.0360   71.1460  228.1850 C   0  0  0  0  0  0  0  0  0  0  0  0
  140.9890   71.8340  226.9860 C   0  0  0  0  0  0  0  0  0  0  0  0
  140.5030   71.2080  225.8490 C   0  0  0  0  0  0  0  0  0  0  0  0
  140.4550   71.8720  224.6780 N   0  0  0  0  0  0  0  0  0  0  0  0
  139.5730   73.9150  223.2880 H   0  0  0  0  0  0  0  0  0  0  0  0
  139.6465   73.7255  220.2598 H   0  0  0  0  0  0  0  0  0  0  0  0
  138.8015   74.9897  221.1914 H   0  0  0  0  0  0  0  0  0  0  0  0
  139.1049   77.6965  221.9138 H   0  0  0  0  0  0  0  0  0  0  0  0
  139.5168   76.5276  223.1578 H   0  0  0  0  0  0  0  0  0  0  0  0
  140.2674   79.1273  223.3717 H   0  0  0  0  0  0  0  0  0  0  0  0
  141.3518   77.8768  223.9581 H   0  0  0  0  0  0  0  0  0  0  0  0
  142.8574   78.5367  222.2743 H   0  0  0  0  0  0  0  0  0  0  0  0
  141.6667   79.5149  219.4682 H   0  0  0  0  0  0  0  0  0  0  0  0
  141.3294   81.8872  218.7408 H   0  0  0  0  0  0  0  0  0  0  0  0
  141.0897   83.6396  220.4921 H   0  0  0  0  0  0  0  0  0  0  0  0
  141.5101   80.7607  223.5909 H   0  0  0  0  0  0  0  0  0  0  0  0
  141.0292   78.0811  220.0168 H   0  0  0  0  0  0  0  0  0  0  0  0
  142.5281   77.2596  220.4013 H   0  0  0  0  0  0  0  0  0  0  0  0
  139.1606   69.5494  222.6099 H   0  0  0  0  0  0  0  0  0  0  0  0
  139.2183   68.2438  224.7561 H   0  0  0  0  0  0  0  0  0  0  0  0
  139.7554   68.1588  227.1469 H   0  0  0  0  0  0  0  0  0  0  0  0
  140.6261   69.2876  229.1672 H   0  0  0  0  0  0  0  0  0  0  0  0
  141.4199   71.6300  229.0952 H   0  0  0  0  0  0  0  0  0  0  0  0
  141.3368   72.8763  226.9350 H   0  0  0  0  0  0  0  0  0  0  0  0
  1  2  2  0
  2  3  1  0
  3  4  1  0
  4  5  1  0
  5  6  2  0
  5  7  1  0
  7  8  1  0
  8  9  1  0
  9 10  1  0
 10 11  1  0
 11 12  2  0
 12 13  1  0
 13 14  2  0
 14 15  1  0
 15 16  2  0
 10 17  1  0
  2 18  1  0
 18 19  2  0
 19 20  1  0
 20 21  2  0
 21 22  1  0
 22 23  2  0
 23 24  1  0
 24 25  2  0
 25 26  1  0
 26 27  2  0
 17  7  1  0
 27 18  1  0
 16 11  1  0
 26 21  1  0
  3 28  1  0
  4 29  1  0
  4 30  1  0
  8 31  1  0
  8 32  1  0
  9 33  1  0
  9 34  1  0
 10 35  1  1
 12 36  1  0
 13 37  1  0
 14 38  1  0
 16 39  1  0
 17 40  1  0
 17 41  1  0
 19 42  1  0
 20 43  1  0
 22 44  1  0
 23 45  1  0
 24 46  1  0
 25 47  1  0
M  END
>  <smiles>  (19) 
O=C(NCC(=O)N1CC[C@H](c2cccnc2)C1)c1ccc2ccccc2n1

>  <score_type>  (19) 
oracle

>  <origin>  (19) 
autodockgpu

>  <m_score__min__energy>  (19) 
-9.0199999999999996

>  <m_primary>  (19) 
energy

>  <rmsd>  (19) 
3.021918686120417

>  <m_score__min__rmsd>  (19) 
3.021918686120417

>  <meeko>  (19) 
{"free_energy": -8.34, "intermolecular_energy": -9.84, "internal_energy": -1.19, "cluster_size": 42, "cluster_id": 1, "rank_in_cluster": 39}

>  <energy>  (19) 
-8.65

>  <cluster_rmsd>  (19) 
1.27

>  <cluster>  (19) 
1

$$$$

     RDKit          3D

 47 50  0  0  0  0  0  0  0  0999 V2000
  138.9400   71.0650  221.4930 O   0  0  0  0  0  0  0  0  0  0  0  0
  139.3390   71.6260  222.5550 C   0  0  0  0  0  0  0  0  0  0  0  0
  139.5770   73.0110  222.5840 N   0  0  0  0  0  0  0  0  0  0  0  0
  139.3870   73.8720  221.4310 C   0  0  0  0  0  0  0  0  0  0  0  0
  140.7380   74.2330  220.9060 C   0  0  0  0  0  0  0  0  0  0  0  0
  141.4620   73.3770  220.3330 O   0  0  0  0  0  0  0  0  0  0  0  0
  141.1740   75.5880  221.0830 N   0  0  0  0  0  0  0  0  0  0  0  0
  142.1010   76.3680  220.3240 C   0  0  0  0  0  0  0  0  0  0  0  0
  141.4420   77.7140  220.2290 C   0  0  0  0  0  0  0  0  0  0  0  0
  140.6620   77.8200  221.5010 C   0  0  2  0  0  0  0  0  0  0  0  0
  141.2100   78.9100  222.3220 C   0  0  0  0  0  0  0  0  0  0  0  0
  140.3100   79.6870  223.0560 C   0  0  0  0  0  0  0  0  0  0  0  0
  140.7810   80.7230  223.8440 C   0  0  0  0  0  0  0  0  0  0  0  0
  142.1460   80.9460  223.8660 C   0  0  0  0  0  0  0  0  0  0  0  0
  143.0000   80.1830  223.1490 N   0  0  0  0  0  0  0  0  0  0  0  0
  142.5550   79.1640  222.3720 C   0  0  0  0  0  0  0  0  0  0  0  0
  140.7040   76.4660  222.1570 C   0  0  0  0  0  0  0  0  0  0  0  0
  139.5580   70.8260  223.7750 C   0  0  0  0  0  0  0  0  0  0  0  0
  139.2400   69.4810  223.7940 C   0  0  0  0  0  0  0  0  0  0  0  0
  139.4570   68.7460  224.9650 C   0  0  0  0  0  0  0  0  0  0  0  0
  139.9910   69.3870  226.0860 C   0  0  0  0  0  0  0  0  0  0  0  0
  140.2200   68.6840  227.2640 C   0  0  0  0  0  0  0  0  0  0  0  0
  140.7490   69.3530  228.3510 C   0  0  0  0  0  0  0  0  0  0  0  0
  141.0590   70.6980  228.3080 C   0  0  0  0  0  0  0  0  0  0  0  0
  140.8300   71.3940  227.1340 C   0  0  0  0  0  0  0  0  0  0  0  0
  140.3000   70.7370  226.0350 C   0  0  0  0  0  0  0  0  0  0  0  0
  140.0750   71.4080  224.8890 N   0  0  0  0  0  0  0  0  0  0  0  0
  139.9060   73.4290  223.4850 H   0  0  0  0  0  0  0  0  0  0  0  0
  138.8140   73.3405  220.6569 H   0  0  0  0  0  0  0  0  0  0  0  0
  138.8292   74.7769  221.7138 H   0  0  0  0  0  0  0  0  0  0  0  0
  143.0685   76.4409  220.8423 H   0  0  0  0  0  0  0  0  0  0  0  0
  142.3190   75.9303  219.3387 H   0  0  0  0  0  0  0  0  0  0  0  0
  142.1936   78.5144  220.1623 H   0  0  0  0  0  0  0  0  0  0  0  0
  140.8114   77.8167  219.3335 H   0  0  0  0  0  0  0  0  0  0  0  0
  139.6065   78.0824  221.3364 H   0  0  0  0  0  0  0  0  0  0  0  0
  139.2315   79.4762  223.0078 H   0  0  0  0  0  0  0  0  0  0  0  0
  140.0932   81.3477  224.4327 H   0  0  0  0  0  0  0  0  0  0  0  0
  142.5460   81.7646  224.4823 H   0  0  0  0  0  0  0  0  0  0  0  0
  143.2619   78.5524  221.7922 H   0  0  0  0  0  0  0  0  0  0  0  0
  141.4038   76.4604  223.0057 H   0  0  0  0  0  0  0  0  0  0  0  0
  139.7332   76.1577  222.5724 H   0  0  0  0  0  0  0  0  0  0  0  0
  138.8218   68.9947  222.9004 H   0  0  0  0  0  0  0  0  0  0  0  0
  139.2098   67.6748  225.0026 H   0  0  0  0  0  0  0  0  0  0  0  0
  139.9836   67.6117  227.3293 H   0  0  0  0  0  0  0  0  0  0  0  0
  140.9293   68.7955  229.2820 H   0  0  0  0  0  0  0  0  0  0  0  0
  141.4793   71.2057  229.1887 H   0  0  0  0  0  0  0  0  0  0  0  0
  141.0681   72.4662  227.0733 H   0  0  0  0  0  0  0  0  0  0  0  0
  1  2  2  0
  2  3  1  0
  3  4  1  0
  4  5  1  0
  5  6  2  0
  5  7  1  0
  7  8  1  0
  8  9  1  0
  9 10  1  0
 10 11  1  0
 11 12  2  0
 12 13  1  0
 13 14  2  0
 14 15  1  0
 15 16  2  0
 10 17  1  0
  2 18  1  0
 18 19  2  0
 19 20  1  0
 20 21  2  0
 21 22  1  0
 22 23  2  0
 23 24  1  0
 24 25  2  0
 25 26  1  0
 26 27  2  0
 17  7  1  0
 27 18  1  0
 16 11  1  0
 26 21  1  0
  3 28  1  0
  4 29  1  0
  4 30  1  0
  8 31  1  0
  8 32  1  0
  9 33  1  0
  9 34  1  0
 10 35  1  6
 12 36  1  0
 13 37  1  0
 14 38  1  0
 16 39  1  0
 17 40  1  0
 17 41  1  0
 19 42  1  0
 20 43  1  0
 22 44  1  0
 23 45  1  0
 24 46  1  0
 25 47  1  0
M  END
>  <smiles>  (20) 
O=C(NCC(=O)N1CC[C@H](c2cccnc2)C1)c1ccc2ccccc2n1

>  <score_type>  (20) 
oracle

>  <origin>  (20) 
autodockgpu

>  <m_score__min__energy>  (20) 
-9.0199999999999996

>  <m_primary>  (20) 
energy

>  <rmsd>  (20) 
2.35835488501641

>  <m_score__min__rmsd>  (20) 
2.35835488501641

>  <meeko>  (20) 
{"free_energy": -8.37, "intermolecular_energy": -9.86, "internal_energy": -1.29, "cluster_size": 42, "cluster_id": 1, "rank_in_cluster": 36}

>  <energy>  (20) 
-8.63

>  <cluster_rmsd>  (20) 
0.54

>  <cluster>  (20) 
1

$$$$

     RDKit          3D

 47 50  0  0  0  0  0  0  0  0999 V2000
  140.8250   71.5370  221.3520 O   0  0  0  0  0  0  0  0  0  0  0  0
  140.2340   72.0540  222.3440 C   0  0  0  0  0  0  0  0  0  0  0  0
  139.6540   73.3300  222.2430 N   0  0  0  0  0  0  0  0  0  0  0  0
  139.6890   74.1230  221.0260 C   0  0  0  0  0  0  0  0  0  0  0  0
  141.0690   74.6780  220.8860 C   0  0  0  0  0  0  0  0  0  0  0  0
  142.0450   73.9310  220.6150 O   0  0  0  0  0  0  0  0  0  0  0  0
  141.2330   76.0910  221.0730 N   0  0  0  0  0  0  0  0  0  0  0  0
  141.5620   77.1170  220.1340 C   0  0  0  0  0  0  0  0  0  0  0  0
  140.6490   78.2490  220.5060 C   0  0  0  0  0  0  0  0  0  0  0  0
  140.4730   78.0940  221.9830 C   0  0  2  0  0  0  0  0  0  0  0  0
  141.0640   79.2510  222.6710 C   0  0  0  0  0  0  0  0  0  0  0  0
  142.4570   79.3160  222.7560 C   0  0  0  0  0  0  0  0  0  0  0  0
  143.0570   80.3880  223.3940 C   0  0  0  0  0  0  0  0  0  0  0  0
  142.2330   81.3620  223.9290 C   0  0  0  0  0  0  0  0  0  0  0  0
  140.8890   81.2810  223.8360 N   0  0  0  0  0  0  0  0  0  0  0  0
  140.2840   80.2370  223.2140 C   0  0  0  0  0  0  0  0  0  0  0  0
  141.0790   76.7700  222.3620 C   0  0  0  0  0  0  0  0  0  0  0  0
  140.1510   71.3190  223.6210 C   0  0  0  0  0  0  0  0  0  0  0  0
  139.5800   70.0620  223.6650 C   0  0  0  0  0  0  0  0  0  0  0  0
  139.5130   69.3860  224.8890 C   0  0  0  0  0  0  0  0  0  0  0  0
  140.0250   69.9970  226.0370 C   0  0  0  0  0  0  0  0  0  0  0  0
  139.9740   69.3530  227.2670 C   0  0  0  0  0  0  0  0  0  0  0  0
  140.4910   69.9900  228.3790 C   0  0  0  0  0  0  0  0  0  0  0  0
  141.0570   71.2480  228.3100 C   0  0  0  0  0  0  0  0  0  0  0  0
  141.1060   71.8860  227.0830 C   0  0  0  0  0  0  0  0  0  0  0  0
  140.5920   71.2600  225.9590 C   0  0  0  0  0  0  0  0  0  0  0  0
  140.6360   71.8750  224.7610 N   0  0  0  0  0  0  0  0  0  0  0  0
  139.1760   73.7160  223.0900 H   0  0  0  0  0  0  0  0  0  0  0  0
  139.4500   73.4896  220.1590 H   0  0  0  0  0  0  0  0  0  0  0  0
  138.9495   74.9359  221.0740 H   0  0  0  0  0  0  0  0  0  0  0  0
  142.6162   77.4152  220.2327 H   0  0  0  0  0  0  0  0  0  0  0  0
  141.4361   76.7944  219.0899 H   0  0  0  0  0  0  0  0  0  0  0  0
  141.1091   79.2188  220.2657 H   0  0  0  0  0  0  0  0  0  0  0  0
  139.6951   78.2239  219.9588 H   0  0  0  0  0  0  0  0  0  0  0  0
  139.4167   78.0818  222.2896 H   0  0  0  0  0  0  0  0  0  0  0  0
  143.0747   78.5183  222.3176 H   0  0  0  0  0  0  0  0  0  0  0  0
  144.1516   80.4628  223.4729 H   0  0  0  0  0  0  0  0  0  0  0  0
  142.6843   82.2236  224.4428 H   0  0  0  0  0  0  0  0  0  0  0  0
  139.1873   80.1840  223.1474 H   0  0  0  0  0  0  0  0  0  0  0  0
  142.0532   76.9084  222.8538 H   0  0  0  0  0  0  0  0  0  0  0  0
  140.4647   76.2034  223.0773 H   0  0  0  0  0  0  0  0  0  0  0  0
  139.1830   69.5981  222.7500 H   0  0  0  0  0  0  0  0  0  0  0  0
  139.0621   68.3843  224.9467 H   0  0  0  0  0  0  0  0  0  0  0  0
  139.5287   68.3510  227.3544 H   0  0  0  0  0  0  0  0  0  0  0  0
  140.4504   69.4780  229.3517 H   0  0  0  0  0  0  0  0  0  0  0  0
  141.4603   71.7325  229.2114 H   0  0  0  0  0  0  0  0  0  0  0  0
  141.5521   72.8881  227.0002 H   0  0  0  0  0  0  0  0  0  0  0  0
  1  2  2  0
  2  3  1  0
  3  4  1  0
  4  5  1  0
  5  6  2  0
  5  7  1  0
  7  8  1  0
  8  9  1  0
  9 10  1  0
 10 11  1  0
 11 12  2  0
 12 13  1  0
 13 14  2  0
 14 15  1  0
 15 16  2  0
 10 17  1  0
  2 18  1  0
 18 19  2  0
 19 20  1  0
 20 21  2  0
 21 22  1  0
 22 23  2  0
 23 24  1  0
 24 25  2  0
 25 26  1  0
 26 27  2  0
 17  7  1  0
 27 18  1  0
 16 11  1  0
 26 21  1  0
  3 28  1  0
  4 29  1  0
  4 30  1  0
  8 31  1  0
  8 32  1  0
  9 33  1  0
  9 34  1  0
 10 35  1  6
 12 36  1  0
 13 37  1  0
 14 38  1  0
 16 39  1  0
 17 40  1  0
 17 41  1  0
 19 42  1  0
 20 43  1  0
 22 44  1  0
 23 45  1  0
 24 46  1  0
 25 47  1  0
M  END
>  <smiles>  (21) 
O=C(NCC(=O)N1CC[C@H](c2cccnc2)C1)c1ccc2ccccc2n1

>  <score_type>  (21) 
oracle

>  <origin>  (21) 
autodockgpu

>  <m_score__min__energy>  (21) 
-9.0199999999999996

>  <m_primary>  (21) 
energy

>  <rmsd>  (21) 
2.676083273400669

>  <m_score__min__rmsd>  (21) 
2.676083273400669

>  <meeko>  (21) 
{"free_energy": -8.98, "intermolecular_energy": -10.47, "internal_energy": -1.07, "cluster_size": 42, "cluster_id": 1, "rank_in_cluster": 2}

>  <energy>  (21) 
-8.62

>  <cluster_rmsd>  (21) 
0.8

>  <cluster>  (21) 
1

$$$$

     RDKit          3D

 47 50  0  0  0  0  0  0  0  0999 V2000
  139.7400   71.1910  221.2450 O   0  0  0  0  0  0  0  0  0  0  0  0
  139.7090   71.8140  222.3460 C   0  0  0  0  0  0  0  0  0  0  0  0
  139.5830   73.2130  222.3710 N   0  0  0  0  0  0  0  0  0  0  0  0
  139.4810   74.0210  221.1680 C   0  0  0  0  0  0  0  0  0  0  0  0
  140.8470   74.5350  220.8500 C   0  0  0  0  0  0  0  0  0  0  0  0
  141.7540   73.7610  220.4430 O   0  0  0  0  0  0  0  0  0  0  0  0
  141.0810   75.9390  221.0260 N   0  0  0  0  0  0  0  0  0  0  0  0
  141.3510   76.9610  220.0630 C   0  0  0  0  0  0  0  0  0  0  0  0
  140.5220   78.1220  220.5310 C   0  0  0  0  0  0  0  0  0  0  0  0
  140.4900   77.9610  222.0180 C   0  0  2  0  0  0  0  0  0  0  0  0
  141.1900   79.0900  222.6480 C   0  0  0  0  0  0  0  0  0  0  0  0
  140.4120   80.1330  223.1590 C   0  0  0  0  0  0  0  0  0  0  0  0
  141.0270   81.2170  223.7620 C   0  0  0  0  0  0  0  0  0  0  0  0
  142.4090   81.2160  223.8300 C   0  0  0  0  0  0  0  0  0  0  0  0
  143.1420   80.1990  223.3300 N   0  0  0  0  0  0  0  0  0  0  0  0
  142.5550   79.1290  222.7360 C   0  0  0  0  0  0  0  0  0  0  0  0
  141.0830   76.6120  222.3270 C   0  0  0  0  0  0  0  0  0  0  0  0
  139.8070   71.0710  223.6180 C   0  0  0  0  0  0  0  0  0  0  0  0
  139.4170   69.7480  223.6850 C   0  0  0  0  0  0  0  0  0  0  0  0
  139.5200   69.0670  224.9030 C   0  0  0  0  0  0  0  0  0  0  0  0
  140.0140   69.7410  226.0240 C   0  0  0  0  0  0  0  0  0  0  0  0
  140.1280   69.0930  227.2480 C   0  0  0  0  0  0  0  0  0  0  0  0
  140.6220   69.7930  228.3330 C   0  0  0  0  0  0  0  0  0  0  0  0
  141.0060   71.1170  228.2420 C   0  0  0  0  0  0  0  0  0  0  0  0
  140.8900   71.7580  227.0210 C   0  0  0  0  0  0  0  0  0  0  0  0
  140.3970   71.0690  225.9240 C   0  0  0  0  0  0  0  0  0  0  0  0
  140.2810   71.6870  224.7320 N   0  0  0  0  0  0  0  0  0  0  0  0
  139.5630   73.6830  223.3050 H   0  0  0  0  0  0  0  0  0  0  0  0
  139.1081   73.4072  220.3348 H   0  0  0  0  0  0  0  0  0  0  0  0
  138.7812   74.8556  221.3222 H   0  0  0  0  0  0  0  0  0  0  0  0
  142.4200   77.2203  220.0560 H   0  0  0  0  0  0  0  0  0  0  0  0
  141.1087   76.6520  219.0355 H   0  0  0  0  0  0  0  0  0  0  0  0
  140.9907   79.0767  220.2502 H   0  0  0  0  0  0  0  0  0  0  0  0
  139.5175   78.1357  220.0828 H   0  0  0  0  0  0  0  0  0  0  0  0
  139.4704   77.9844  222.4301 H   0  0  0  0  0  0  0  0  0  0  0  0
  139.3154   80.0926  223.0823 H   0  0  0  0  0  0  0  0  0  0  0  0
  140.4375   82.0500  224.1727 H   0  0  0  0  0  0  0  0  0  0  0  0
  142.9232   82.0654  224.3035 H   0  0  0  0  0  0  0  0  0  0  0  0
  143.1657   78.3078  222.3325 H   0  0  0  0  0  0  0  0  0  0  0  0
  142.1063   76.7113  222.7181 H   0  0  0  0  0  0  0  0  0  0  0  0
  140.5239   76.0616  223.0980 H   0  0  0  0  0  0  0  0  0  0  0  0
  139.0301   69.2357  222.7918 H   0  0  0  0  0  0  0  0  0  0  0  0
  139.2156   68.0126  224.9778 H   0  0  0  0  0  0  0  0  0  0  0  0
  139.8298   68.0393  227.3520 H   0  0  0  0  0  0  0  0  0  0  0  0
  140.7123   69.2786  229.3011 H   0  0  0  0  0  0  0  0  0  0  0  0
  141.3957   71.6504  229.1215 H   0  0  0  0  0  0  0  0  0  0  0  0
  141.1884   72.8120  226.9213 H   0  0  0  0  0  0  0  0  0  0  0  0
  1  2  2  0
  2  3  1  0
  3  4  1  0
  4  5  1  0
  5  6  2  0
  5  7  1  0
  7  8  1  0
  8  9  1  0
  9 10  1  0
 10 11  1  0
 11 12  2  0
 12 13  1  0
 13 14  2  0
 14 15  1  0
 15 16  2  0
 10 17  1  0
  2 18  1  0
 18 19  2  0
 19 20  1  0
 20 21  2  0
 21 22  1  0
 22 23  2  0
 23 24  1  0
 24 25  2  0
 25 26  1  0
 26 27  2  0
 17  7  1  0
 27 18  1  0
 16 11  1  0
 26 21  1  0
  3 28  1  0
  4 29  1  0
  4 30  1  0
  8 31  1  0
  8 32  1  0
  9 33  1  0
  9 34  1  0
 10 35  1  1
 12 36  1  0
 13 37  1  0
 14 38  1  0
 16 39  1  0
 17 40  1  0
 17 41  1  0
 19 42  1  0
 20 43  1  0
 22 44  1  0
 23 45  1  0
 24 46  1  0
 25 47  1  0
M  END
>  <smiles>  (22) 
O=C(NCC(=O)N1CC[C@H](c2cccnc2)C1)c1ccc2ccccc2n1

>  <score_type>  (22) 
oracle

>  <origin>  (22) 
autodockgpu

>  <m_score__min__energy>  (22) 
-9.0199999999999996

>  <m_primary>  (22) 
energy

>  <rmsd>  (22) 
2.5789130897543386

>  <m_score__min__rmsd>  (22) 
2.5789130897543386

>  <meeko>  (22) 
{"free_energy": -8.58, "intermolecular_energy": -10.07, "internal_energy": -1.24, "cluster_size": 42, "cluster_id": 1, "rank_in_cluster": 23}

>  <energy>  (22) 
-8.59

>  <cluster_rmsd>  (22) 
0.66

>  <cluster>  (22) 
1

$$$$

     RDKit          3D

 47 50  0  0  0  0  0  0  0  0999 V2000
  140.5320   70.9710  221.5970 O   0  0  0  0  0  0  0  0  0  0  0  0
  140.1690   71.6710  222.5860 C   0  0  0  0  0  0  0  0  0  0  0  0
  139.6820   72.9760  222.3960 N   0  0  0  0  0  0  0  0  0  0  0  0
  139.5650   73.5950  221.0870 C   0  0  0  0  0  0  0  0  0  0  0  0
  140.8090   74.3860  220.8470 C   0  0  0  0  0  0  0  0  0  0  0  0
  141.8680   73.8300  220.4550 O   0  0  0  0  0  0  0  0  0  0  0  0
  140.7460   75.8010  221.0830 N   0  0  0  0  0  0  0  0  0  0  0  0
  140.3890   76.8700  220.2040 C   0  0  0  0  0  0  0  0  0  0  0  0
  139.5380   77.7650  221.0580 C   0  0  0  0  0  0  0  0  0  0  0  0
  140.0960   77.5810  222.4330 C   0  0  2  0  0  0  0  0  0  0  0  0
  140.6840   78.8470  222.8970 C   0  0  0  0  0  0  0  0  0  0  0  0
  142.0770   78.9240  222.9790 C   0  0  0  0  0  0  0  0  0  0  0  0
  142.6750   80.0960  223.4090 C   0  0  0  0  0  0  0  0  0  0  0  0
  141.8490   81.1550  223.7450 C   0  0  0  0  0  0  0  0  0  0  0  0
  140.5050   81.0590  223.6580 N   0  0  0  0  0  0  0  0  0  0  0  0
  139.9030   79.9170  223.2380 C   0  0  0  0  0  0  0  0  0  0  0  0
  141.0660   76.4330  222.3650 C   0  0  0  0  0  0  0  0  0  0  0  0
  140.2540   71.1200  223.9520 C   0  0  0  0  0  0  0  0  0  0  0  0
  140.7260   71.9000  224.9900 C   0  0  0  0  0  0  0  0  0  0  0  0
  140.7980   71.3520  226.2760 C   0  0  0  0  0  0  0  0  0  0  0  0
  140.3910   70.0310  226.4810 C   0  0  0  0  0  0  0  0  0  0  0  0
  140.4490   69.4580  227.7460 C   0  0  0  0  0  0  0  0  0  0  0  0
  140.0370   68.1490  227.9090 C   0  0  0  0  0  0  0  0  0  0  0  0
  139.5690   67.3880  226.8550 C   0  0  0  0  0  0  0  0  0  0  0  0
  139.5130   67.9630  225.5970 C   0  0  0  0  0  0  0  0  0  0  0  0
  139.9220   69.2750  225.4190 C   0  0  0  0  0  0  0  0  0  0  0  0
  139.8700   69.8400  224.1970 N   0  0  0  0  0  0  0  0  0  0  0  0
  139.3940   73.5150  223.2440 H   0  0  0  0  0  0  0  0  0  0  0  0
  139.4588   72.8197  220.3139 H   0  0  0  0  0  0  0  0  0  0  0  0
  138.6797   74.2467  221.0463 H   0  0  0  0  0  0  0  0  0  0  0  0
  141.2843   77.4017  219.8495 H   0  0  0  0  0  0  0  0  0  0  0  0
  139.8676   76.5221  219.3001 H   0  0  0  0  0  0  0  0  0  0  0  0
  139.6260   78.8132  220.7363 H   0  0  0  0  0  0  0  0  0  0  0  0
  138.4675   77.5196  220.9967 H   0  0  0  0  0  0  0  0  0  0  0  0
  139.3265   77.3281  223.1773 H   0  0  0  0  0  0  0  0  0  0  0  0
  142.6954   78.0572  222.7031 H   0  0  0  0  0  0  0  0  0  0  0  0
  143.7692   80.1830  223.4813 H   0  0  0  0  0  0  0  0  0  0  0  0
  142.2985   82.0974  224.0912 H   0  0  0  0  0  0  0  0  0  0  0  0
  138.8068   79.8532  223.1731 H   0  0  0  0  0  0  0  0  0  0  0  0
  142.1053   76.7932  222.3789 H   0  0  0  0  0  0  0  0  0  0  0  0
  140.9808   75.7447  223.2188 H   0  0  0  0  0  0  0  0  0  0  0  0
  141.0411   72.9381  224.8083 H   0  0  0  0  0  0  0  0  0  0  0  0
  141.1712   71.9551  227.1168 H   0  0  0  0  0  0  0  0  0  0  0  0
  140.8175   70.0380  228.6049 H   0  0  0  0  0  0  0  0  0  0  0  0
  140.0832   67.6979  228.9112 H   0  0  0  0  0  0  0  0  0  0  0  0
  139.2478   66.3477  227.0121 H   0  0  0  0  0  0  0  0  0  0  0  0
  139.1446   67.3796  224.7403 H   0  0  0  0  0  0  0  0  0  0  0  0
  1  2  2  0
  2  3  1  0
  3  4  1  0
  4  5  1  0
  5  6  2  0
  5  7  1  0
  7  8  1  0
  8  9  1  0
  9 10  1  0
 10 11  1  0
 11 12  2  0
 12 13  1  0
 13 14  2  0
 14 15  1  0
 15 16  2  0
 10 17  1  0
  2 18  1  0
 18 19  2  0
 19 20  1  0
 20 21  2  0
 21 22  1  0
 22 23  2  0
 23 24  1  0
 24 25  2  0
 25 26  1  0
 26 27  2  0
 17  7  1  0
 27 18  1  0
 16 11  1  0
 26 21  1  0
  3 28  1  0
  4 29  1  0
  4 30  1  0
  8 31  1  0
  8 32  1  0
  9 33  1  0
  9 34  1  0
 10 35  1  1
 12 36  1  0
 13 37  1  0
 14 38  1  0
 16 39  1  0
 17 40  1  0
 17 41  1  0
 19 42  1  0
 20 43  1  0
 22 44  1  0
 23 45  1  0
 24 46  1  0
 25 47  1  0
M  END
>  <smiles>  (23) 
O=C(NCC(=O)N1CC[C@H](c2cccnc2)C1)c1ccc2ccccc2n1

>  <score_type>  (23) 
oracle

>  <origin>  (23) 
autodockgpu

>  <m_score__min__energy>  (23) 
-9.0199999999999996

>  <m_primary>  (23) 
energy

>  <rmsd>  (23) 
3.5405779660155177

>  <m_score__min__rmsd>  (23) 
3.5405779660155177

>  <meeko>  (23) 
{"free_energy": -8.42, "intermolecular_energy": -9.92, "internal_energy": -1.02, "cluster_size": 42, "cluster_id": 1, "rank_in_cluster": 34}

>  <energy>  (23) 
-8.58

>  <cluster_rmsd>  (23) 
0.66

>  <cluster>  (23) 
1

$$$$

     RDKit          3D

 47 50  0  0  0  0  0  0  0  0999 V2000
  139.0140   71.0070  221.3990 O   0  0  0  0  0  0  0  0  0  0  0  0
  139.2800   71.6260  222.4700 C   0  0  0  0  0  0  0  0  0  0  0  0
  139.3530   73.0290  222.4840 N   0  0  0  0  0  0  0  0  0  0  0  0
  139.1320   73.8460  221.3030 C   0  0  0  0  0  0  0  0  0  0  0  0
  138.6830   75.1940  221.7620 C   0  0  0  0  0  0  0  0  0  0  0  0
  137.4740   75.4200  222.0310 O   0  0  0  0  0  0  0  0  0  0  0  0
  139.6830   76.2170  221.8810 N   0  0  0  0  0  0  0  0  0  0  0  0
  141.0570   76.2170  221.4870 C   0  0  0  0  0  0  0  0  0  0  0  0
  141.2560   77.5800  220.8880 C   0  0  0  0  0  0  0  0  0  0  0  0
  140.3060   78.4470  221.6510 C   0  0  2  0  0  0  0  0  0  0  0  0
  141.0650   79.4350  222.4330 C   0  0  0  0  0  0  0  0  0  0  0  0
  142.4600   79.3600  222.3960 C   0  0  0  0  0  0  0  0  0  0  0  0
  143.2160   80.2700  223.1150 C   0  0  0  0  0  0  0  0  0  0  0  0
  142.5410   81.2270  223.8520 C   0  0  0  0  0  0  0  0  0  0  0  0
  141.1920   81.2810  223.8750 N   0  0  0  0  0  0  0  0  0  0  0  0
  140.4360   80.3970  223.1750 C   0  0  0  0  0  0  0  0  0  0  0  0
  139.4410   77.5330  222.4760 C   0  0  0  0  0  0  0  0  0  0  0  0
  139.5190   70.8750  223.7170 C   0  0  0  0  0  0  0  0  0  0  0  0
  139.2360   69.5240  223.7830 C   0  0  0  0  0  0  0  0  0  0  0  0
  139.4710   68.8360  224.9790 C   0  0  0  0  0  0  0  0  0  0  0  0
  139.9870   69.5290  226.0770 C   0  0  0  0  0  0  0  0  0  0  0  0
  140.2320   68.8740  227.2790 C   0  0  0  0  0  0  0  0  0  0  0  0
  140.7420   69.5930  228.3420 C   0  0  0  0  0  0  0  0  0  0  0  0
  141.0170   70.9440  228.2530 C   0  0  0  0  0  0  0  0  0  0  0  0
  140.7720   71.5920  227.0550 C   0  0  0  0  0  0  0  0  0  0  0  0
  140.2610   70.8840  225.9790 C   0  0  0  0  0  0  0  0  0  0  0  0
  140.0190   71.5090  224.8100 N   0  0  0  0  0  0  0  0  0  0  0  0
  139.5760   73.4960  223.3930 H   0  0  0  0  0  0  0  0  0  0  0  0
  140.0666   73.9372  220.7301 H   0  0  0  0  0  0  0  0  0  0  0  0
  138.3722   73.3871  220.6533 H   0  0  0  0  0  0  0  0  0  0  0  0
  141.7144   76.0711  222.3568 H   0  0  0  0  0  0  0  0  0  0  0  0
  141.2995   75.4042  220.7866 H   0  0  0  0  0  0  0  0  0  0  0  0
  142.2931   77.9204  221.0244 H   0  0  0  0  0  0  0  0  0  0  0  0
  141.0722   77.5991  219.8036 H   0  0  0  0  0  0  0  0  0  0  0  0
  139.6459   79.0374  220.9986 H   0  0  0  0  0  0  0  0  0  0  0  0
  142.9554   78.5810  221.7979 H   0  0  0  0  0  0  0  0  0  0  0  0
  144.3153   80.2335  223.1009 H   0  0  0  0  0  0  0  0  0  0  0  0
  143.1174   81.9617  224.4333 H   0  0  0  0  0  0  0  0  0  0  0  0
  139.3378   80.4532  223.2039 H   0  0  0  0  0  0  0  0  0  0  0  0
  139.7449   77.5500  223.5331 H   0  0  0  0  0  0  0  0  0  0  0  0
  138.3794   77.8211  222.4693 H   0  0  0  0  0  0  0  0  0  0  0  0
  138.8313   68.9961  222.9069 H   0  0  0  0  0  0  0  0  0  0  0  0
  139.2517   67.7607  225.0537 H   0  0  0  0  0  0  0  0  0  0  0  0
  140.0226   67.7990  227.3816 H   0  0  0  0  0  0  0  0  0  0  0  0
  140.9358   69.0726  229.2915 H   0  0  0  0  0  0  0  0  0  0  0  0
  141.4220   71.4929  229.1160 H   0  0  0  0  0  0  0  0  0  0  0  0
  140.9825   72.6672  226.9571 H   0  0  0  0  0  0  0  0  0  0  0  0
  1  2  2  0
  2  3  1  0
  3  4  1  0
  4  5  1  0
  5  6  2  0
  5  7  1  0
  7  8  1  0
  8  9  1  0
  9 10  1  0
 10 11  1  0
 11 12  2  0
 12 13  1  0
 13 14  2  0
 14 15  1  0
 15 16  2  0
 10 17  1  0
  2 18  1  0
 18 19  2  0
 19 20  1  0
 20 21  2  0
 21 22  1  0
 22 23  2  0
 23 24  1  0
 24 25  2  0
 25 26  1  0
 26 27  2  0
 17  7  1  0
 27 18  1  0
 16 11  1  0
 26 21  1  0
  3 28  1  0
  4 29  1  0
  4 30  1  0
  8 31  1  0
  8 32  1  0
  9 33  1  0
  9 34  1  0
 10 35  1  6
 12 36  1  0
 13 37  1  0
 14 38  1  0
 16 39  1  0
 17 40  1  0
 17 41  1  0
 19 42  1  0
 20 43  1  0
 22 44  1  0
 23 45  1  0
 24 46  1  0
 25 47  1  0
M  END
>  <smiles>  (24) 
O=C(NCC(=O)N1CC[C@H](c2cccnc2)C1)c1ccc2ccccc2n1

>  <score_type>  (24) 
oracle

>  <origin>  (24) 
autodockgpu

>  <m_score__min__energy>  (24) 
-9.0199999999999996

>  <m_primary>  (24) 
energy

>  <rmsd>  (24) 
2.6026150219937643

>  <m_score__min__rmsd>  (24) 
2.6026150219937643

>  <meeko>  (24) 
{"free_energy": -8.65, "intermolecular_energy": -10.14, "internal_energy": -1.29, "cluster_size": 42, "cluster_id": 1, "rank_in_cluster": 19}

>  <energy>  (24) 
-8.57

>  <cluster_rmsd>  (24) 
0.73

>  <cluster>  (24) 
1

$$$$

     RDKit          3D

 47 50  0  0  0  0  0  0  0  0999 V2000
  140.2530   71.4080  221.2580 O   0  0  0  0  0  0  0  0  0  0  0  0
  140.0270   72.0060  222.3500 C   0  0  0  0  0  0  0  0  0  0  0  0
  139.7700   73.3870  222.3670 N   0  0  0  0  0  0  0  0  0  0  0  0
  139.7450   74.2040  221.1660 C   0  0  0  0  0  0  0  0  0  0  0  0
  141.1200   74.7500  220.9610 C   0  0  0  0  0  0  0  0  0  0  0  0
  142.0840   73.9930  220.6750 O   0  0  0  0  0  0  0  0  0  0  0  0
  141.2940   76.1680  221.1040 N   0  0  0  0  0  0  0  0  0  0  0  0
  141.6880   77.1520  220.1450 C   0  0  0  0  0  0  0  0  0  0  0  0
  140.7730   78.3100  220.4240 C   0  0  0  0  0  0  0  0  0  0  0  0
  140.5150   78.2130  221.8950 C   0  0  2  0  0  0  0  0  0  0  0  0
  141.0850   79.3890  222.5700 C   0  0  0  0  0  0  0  0  0  0  0  0
  142.3140   79.2370  223.2150 C   0  0  0  0  0  0  0  0  0  0  0  0
  142.8890   80.3160  223.8630 C   0  0  0  0  0  0  0  0  0  0  0  0
  142.2040   81.5190  223.8410 C   0  0  0  0  0  0  0  0  0  0  0  0
  141.0170   81.6460  223.2110 N   0  0  0  0  0  0  0  0  0  0  0  0
  140.4400   80.5970  222.5710 C   0  0  0  0  0  0  0  0  0  0  0  0
  141.0810   76.8980  222.3560 C   0  0  0  0  0  0  0  0  0  0  0  0
  140.0330   71.2530  223.6190 C   0  0  0  0  0  0  0  0  0  0  0  0
  139.5620   69.9550  223.6620 C   0  0  0  0  0  0  0  0  0  0  0  0
  139.5780   69.2640  224.8790 C   0  0  0  0  0  0  0  0  0  0  0  0
  140.0690   69.9010  226.0210 C   0  0  0  0  0  0  0  0  0  0  0  0
  140.0990   69.2410  227.2450 C   0  0  0  0  0  0  0  0  0  0  0  0
  140.5930   69.9050  228.3510 C   0  0  0  0  0  0  0  0  0  0  0  0
  141.0580   71.2040  228.2840 C   0  0  0  0  0  0  0  0  0  0  0  0
  141.0260   71.8570  227.0640 C   0  0  0  0  0  0  0  0  0  0  0  0
  140.5350   71.2040  225.9450 C   0  0  0  0  0  0  0  0  0  0  0  0
  140.5010   71.8340  224.7540 N   0  0  0  0  0  0  0  0  0  0  0  0
  139.5880   73.8360  223.2940 H   0  0  0  0  0  0  0  0  0  0  0  0
  139.4526   73.5903  220.3012 H   0  0  0  0  0  0  0  0  0  0  0  0
  139.0168   75.0218  221.2708 H   0  0  0  0  0  0  0  0  0  0  0  0
  142.7398   77.4401  220.2886 H   0  0  0  0  0  0  0  0  0  0  0  0
  141.6131   76.7904  219.1088 H   0  0  0  0  0  0  0  0  0  0  0  0
  141.2601   79.2639  220.1734 H   0  0  0  0  0  0  0  0  0  0  0  0
  139.8500   78.2771  219.8266 H   0  0  0  0  0  0  0  0  0  0  0  0
  139.4436   78.2244  222.1439 H   0  0  0  0  0  0  0  0  0  0  0  0
  142.8237   78.2622  223.2080 H   0  0  0  0  0  0  0  0  0  0  0  0
  143.8566   80.2213  224.3776 H   0  0  0  0  0  0  0  0  0  0  0  0
  142.6377   82.3927  224.3494 H   0  0  0  0  0  0  0  0  0  0  0  0
  139.4718   80.7152  222.0624 H   0  0  0  0  0  0  0  0  0  0  0  0
  142.0294   77.0436  222.8940 H   0  0  0  0  0  0  0  0  0  0  0  0
  140.4215   76.3669  223.0582 H   0  0  0  0  0  0  0  0  0  0  0  0
  139.1793   69.4708  222.7515 H   0  0  0  0  0  0  0  0  0  0  0  0
  139.2077   68.2298  224.9356 H   0  0  0  0  0  0  0  0  0  0  0  0
  139.7351   68.2065  227.3309 H   0  0  0  0  0  0  0  0  0  0  0  0
  140.6169   69.3814  229.3181 H   0  0  0  0  0  0  0  0  0  0  0  0
  141.4455   71.7088  229.1812 H   0  0  0  0  0  0  0  0  0  0  0  0
  141.3896   72.8920  226.9830 H   0  0  0  0  0  0  0  0  0  0  0  0
  1  2  2  0
  2  3  1  0
  3  4  1  0
  4  5  1  0
  5  6  2  0
  5  7  1  0
  7  8  1  0
  8  9  1  0
  9 10  1  0
 10 11  1  0
 11 12  2  0
 12 13  1  0
 13 14  2  0
 14 15  1  0
 15 16  2  0
 10 17  1  0
  2 18  1  0
 18 19  2  0
 19 20  1  0
 20 21  2  0
 21 22  1  0
 22 23  2  0
 23 24  1  0
 24 25  2  0
 25 26  1  0
 26 27  2  0
 17  7  1  0
 27 18  1  0
 16 11  1  0
 26 21  1  0
  3 28  1  0
  4 29  1  0
  4 30  1  0
  8 31  1  0
  8 32  1  0
  9 33  1  0
  9 34  1  0
 10 35  1  6
 12 36  1  0
 13 37  1  0
 14 38  1  0
 16 39  1  0
 17 40  1  0
 17 41  1  0
 19 42  1  0
 20 43  1  0
 22 44  1  0
 23 45  1  0
 24 46  1  0
 25 47  1  0
M  END
>  <smiles>  (25) 
O=C(NCC(=O)N1CC[C@H](c2cccnc2)C1)c1ccc2ccccc2n1

>  <score_type>  (25) 
oracle

>  <origin>  (25) 
autodockgpu

>  <m_score__min__energy>  (25) 
-9.0199999999999996

>  <m_primary>  (25) 
energy

>  <rmsd>  (25) 
2.6600882906555428

>  <m_score__min__rmsd>  (25) 
2.6600882906555428

>  <meeko>  (25) 
{"free_energy": -8.79, "intermolecular_energy": -10.28, "internal_energy": -1.18, "cluster_size": 42, "cluster_id": 1, "rank_in_cluster": 10}

>  <energy>  (25) 
-8.53

>  <cluster_rmsd>  (25) 
1.35

>  <cluster>  (25) 
1

$$$$

     RDKit          3D

 47 50  0  0  0  0  0  0  0  0999 V2000
  137.1250   76.5030  222.6160 O   0  0  0  0  0  0  0  0  0  0  0  0
  138.3770   76.6390  222.5060 C   0  0  0  0  0  0  0  0  0  0  0  0
  139.1910   75.5380  222.1890 N   0  0  0  0  0  0  0  0  0  0  0  0
  138.6650   74.2020  221.9700 C   0  0  0  0  0  0  0  0  0  0  0  0
  139.7520   73.2290  222.2910 C   0  0  0  0  0  0  0  0  0  0  0  0
  140.9320   73.4200  221.8960 O   0  0  0  0  0  0  0  0  0  0  0  0
  139.3950   72.0740  223.0630 N   0  0  0  0  0  0  0  0  0  0  0  0
  138.1670   71.3430  223.1210 C   0  0  0  0  0  0  0  0  0  0  0  0
  138.6070   69.9070  223.1450 C   0  0  0  0  0  0  0  0  0  0  0  0
  139.9230   69.9500  223.8550 C   0  0  2  0  0  0  0  0  0  0  0  0
  139.8170   69.2230  225.1290 C   0  0  0  0  0  0  0  0  0  0  0  0
  140.3200   69.8430  226.2750 C   0  0  0  0  0  0  0  0  0  0  0  0
  140.2410   69.1970  227.4970 C   0  0  0  0  0  0  0  0  0  0  0  0
  139.6580   67.9420  227.5240 C   0  0  0  0  0  0  0  0  0  0  0  0
  139.1780   67.3600  226.4040 N   0  0  0  0  0  0  0  0  0  0  0  0
  139.2470   67.9800  225.1990 C   0  0  0  0  0  0  0  0  0  0  0  0
  140.3010   71.4000  223.9960 C   0  0  0  0  0  0  0  0  0  0  0  0
  138.9970   77.9630  222.7130 C   0  0  0  0  0  0  0  0  0  0  0  0
  138.2180   79.1040  222.7190 C   0  0  0  0  0  0  0  0  0  0  0  0
  138.8300   80.3470  222.9160 C   0  0  0  0  0  0  0  0  0  0  0  0
  140.2140   80.4060  223.1030 C   0  0  0  0  0  0  0  0  0  0  0  0
  140.8520   81.6240  223.3020 C   0  0  0  0  0  0  0  0  0  0  0  0
  142.2220   81.6410  223.4840 C   0  0  0  0  0  0  0  0  0  0  0  0
  142.9800   80.4870  223.4740 C   0  0  0  0  0  0  0  0  0  0  0  0
  142.3410   79.2760  223.2750 C   0  0  0  0  0  0  0  0  0  0  0  0
  140.9680   79.2430  223.0920 C   0  0  0  0  0  0  0  0  0  0  0  0
  140.3390   78.0670  222.8980 N   0  0  0  0  0  0  0  0  0  0  0  0
  140.2210   75.7020  222.1090 H   0  0  0  0  0  0  0  0  0  0  0  0
  137.7998   74.0275  222.6265 H   0  0  0  0  0  0  0  0  0  0  0  0
  138.3363   74.0830  220.9270 H   0  0  0  0  0  0  0  0  0  0  0  0
  137.6030   71.5955  224.0310 H   0  0  0  0  0  0  0  0  0  0  0  0
  137.4967   71.5690  222.2786 H   0  0  0  0  0  0  0  0  0  0  0  0
  137.8852   69.2849  223.6945 H   0  0  0  0  0  0  0  0  0  0  0  0
  138.6798   69.4671  222.1394 H   0  0  0  0  0  0  0  0  0  0  0  0
  140.7264   69.4451  223.2985 H   0  0  0  0  0  0  0  0  0  0  0  0
  140.7774   70.8411  226.2069 H   0  0  0  0  0  0  0  0  0  0  0  0
  140.6280   69.6648  228.4143 H   0  0  0  0  0  0  0  0  0  0  0  0
  139.5838   67.4054  228.4814 H   0  0  0  0  0  0  0  0  0  0  0  0
  138.8523   67.4930  224.2951 H   0  0  0  0  0  0  0  0  0  0  0  0
  140.1397   71.7514  225.0258 H   0  0  0  0  0  0  0  0  0  0  0  0
  141.3626   71.5920  223.7813 H   0  0  0  0  0  0  0  0  0  0  0  0
  137.1301   79.0362  222.5707 H   0  0  0  0  0  0  0  0  0  0  0  0
  138.2283   81.2678  222.9236 H   0  0  0  0  0  0  0  0  0  0  0  0
  140.2755   82.5607  223.3145 H   0  0  0  0  0  0  0  0  0  0  0  0
  142.7253   82.6062  223.6421 H   0  0  0  0  0  0  0  0  0  0  0  0
  144.0693   80.5295  223.6212 H   0  0  0  0  0  0  0  0  0  0  0  0
  142.9216   78.3418  223.2621 H   0  0  0  0  0  0  0  0  0  0  0  0
  1  2  2  0
  2  3  1  0
  3  4  1  0
  4  5  1  0
  5  6  2  0
  5  7  1  0
  7  8  1  0
  8  9  1  0
  9 10  1  0
 10 11  1  0
 11 12  2  0
 12 13  1  0
 13 14  2  0
 14 15  1  0
 15 16  2  0
 10 17  1  0
  2 18  1  0
 18 19  2  0
 19 20  1  0
 20 21  2  0
 21 22  1  0
 22 23  2  0
 23 24  1  0
 24 25  2  0
 25 26  1  0
 26 27  2  0
 17  7  1  0
 27 18  1  0
 16 11  1  0
 26 21  1  0
  3 28  1  0
  4 29  1  0
  4 30  1  0
  8 31  1  0
  8 32  1  0
  9 33  1  0
  9 34  1  0
 10 35  1  6
 12 36  1  0
 13 37  1  0
 14 38  1  0
 16 39  1  0
 17 40  1  0
 17 41  1  0
 19 42  1  0
 20 43  1  0
 22 44  1  0
 23 45  1  0
 24 46  1  0
 25 47  1  0
M  END
>  <smiles>  (26) 
O=C(NCC(=O)N1CC[C@H](c2cccnc2)C1)c1ccc2ccccc2n1

>  <score_type>  (26) 
oracle

>  <origin>  (26) 
autodockgpu

>  <m_score__min__energy>  (26) 
-9.0199999999999996

>  <m_primary>  (26) 
energy

>  <rmsd>  (26) 
8.71966111812083

>  <m_score__min__rmsd>  (26) 
8.71966111812083

>  <meeko>  (26) 
{"free_energy": -7.78, "intermolecular_energy": -9.27, "internal_energy": -1.6, "cluster_size": 7, "cluster_id": 2, "rank_in_cluster": 7}

>  <energy>  (26) 
-8.53

>  <cluster_rmsd>  (26) 
0.7

>  <cluster>  (26) 
1

$$$$

     RDKit          3D

 47 50  0  0  0  0  0  0  0  0999 V2000
  139.5660   70.9660  221.2690 O   0  0  0  0  0  0  0  0  0  0  0  0
  139.6200   71.6880  222.3060 C   0  0  0  0  0  0  0  0  0  0  0  0
  139.4490   73.0800  222.2160 N   0  0  0  0  0  0  0  0  0  0  0  0
  139.2030   73.7690  220.9610 C   0  0  0  0  0  0  0  0  0  0  0  0
  140.5270   74.0480  220.3290 C   0  0  0  0  0  0  0  0  0  0  0  0
  141.0600   73.2200  219.5450 O   0  0  0  0  0  0  0  0  0  0  0  0
  141.1620   75.2940  220.6530 N   0  0  0  0  0  0  0  0  0  0  0  0
  142.4200   75.8270  220.2340 C   0  0  0  0  0  0  0  0  0  0  0  0
  142.1220   77.2720  219.9560 C   0  0  0  0  0  0  0  0  0  0  0  0
  141.0280   77.6010  220.9220 C   0  0  2  0  0  0  0  0  0  0  0  0
  141.5120   78.5980  221.8890 C   0  0  0  0  0  0  0  0  0  0  0  0
  141.4480   78.2730  223.2460 C   0  0  0  0  0  0  0  0  0  0  0  0
  141.8930   79.1800  224.1920 C   0  0  0  0  0  0  0  0  0  0  0  0
  142.3890   80.3900  223.7390 C   0  0  0  0  0  0  0  0  0  0  0  0
  142.4430   80.6850  222.4230 N   0  0  0  0  0  0  0  0  0  0  0  0
  142.0100   79.8070  221.4830 C   0  0  0  0  0  0  0  0  0  0  0  0
  140.5800   76.3040  221.5390 C   0  0  0  0  0  0  0  0  0  0  0  0
  139.8670   71.0710  223.6240 C   0  0  0  0  0  0  0  0  0  0  0  0
  139.5840   69.7350  223.8320 C   0  0  0  0  0  0  0  0  0  0  0  0
  139.8270   69.1760  225.0910 C   0  0  0  0  0  0  0  0  0  0  0  0
  140.3490   69.9790  226.1090 C   0  0  0  0  0  0  0  0  0  0  0  0
  140.6010   69.4530  227.3700 C   0  0  0  0  0  0  0  0  0  0  0  0
  141.1180   70.2800  228.3500 C   0  0  0  0  0  0  0  0  0  0  0  0
  141.3920   71.6140  228.1180 C   0  0  0  0  0  0  0  0  0  0  0  0
  141.1390   72.1340  226.8600 C   0  0  0  0  0  0  0  0  0  0  0  0
  140.6220   71.3170  225.8680 C   0  0  0  0  0  0  0  0  0  0  0  0
  140.3730   71.8160  224.6410 N   0  0  0  0  0  0  0  0  0  0  0  0
  139.5020   73.6350  223.1010 H   0  0  0  0  0  0  0  0  0  0  0  0
  138.5975   73.1341  220.2975 H   0  0  0  0  0  0  0  0  0  0  0  0
  138.6550   74.7064  221.1371 H   0  0  0  0  0  0  0  0  0  0  0  0
  143.1723   75.7282  221.0304 H   0  0  0  0  0  0  0  0  0  0  0  0
  142.8345   75.3025  219.3605 H   0  0  0  0  0  0  0  0  0  0  0  0
  143.0081   77.8975  220.1391 H   0  0  0  0  0  0  0  0  0  0  0  0
  141.8358   77.4545  218.9097 H   0  0  0  0  0  0  0  0  0  0  0  0
  140.1548   78.0638  220.4389 H   0  0  0  0  0  0  0  0  0  0  0  0
  141.0452   77.2993  223.5618 H   0  0  0  0  0  0  0  0  0  0  0  0
  141.8538   78.9472  225.2664 H   0  0  0  0  0  0  0  0  0  0  0  0
  142.7482   81.1297  224.4696 H   0  0  0  0  0  0  0  0  0  0  0  0
  142.0583   80.0622  220.4141 H   0  0  0  0  0  0  0  0  0  0  0  0
  140.9668   76.2001  222.5635 H   0  0  0  0  0  0  0  0  0  0  0  0
  139.4865   76.2227  221.6266 H   0  0  0  0  0  0  0  0  0  0  0  0
  139.1731   69.1190  223.0185 H   0  0  0  0  0  0  0  0  0  0  0  0
  139.6093   68.1141  225.2782 H   0  0  0  0  0  0  0  0  0  0  0  0
  140.3924   68.3947  227.5854 H   0  0  0  0  0  0  0  0  0  0  0  0
  141.3178   69.8618  229.3476 H   0  0  0  0  0  0  0  0  0  0  0  0
  141.8026   72.2499  228.9161 H   0  0  0  0  0  0  0  0  0  0  0  0
  141.3480   73.1931  226.6488 H   0  0  0  0  0  0  0  0  0  0  0  0
  1  2  2  0
  2  3  1  0
  3  4  1  0
  4  5  1  0
  5  6  2  0
  5  7  1  0
  7  8  1  0
  8  9  1  0
  9 10  1  0
 10 11  1  0
 11 12  2  0
 12 13  1  0
 13 14  2  0
 14 15  1  0
 15 16  2  0
 10 17  1  0
  2 18  1  0
 18 19  2  0
 19 20  1  0
 20 21  2  0
 21 22  1  0
 22 23  2  0
 23 24  1  0
 24 25  2  0
 25 26  1  0
 26 27  2  0
 17  7  1  0
 27 18  1  0
 16 11  1  0
 26 21  1  0
  3 28  1  0
  4 29  1  0
  4 30  1  0
  8 31  1  0
  8 32  1  0
  9 33  1  0
  9 34  1  0
 10 35  1  6
 12 36  1  0
 13 37  1  0
 14 38  1  0
 16 39  1  0
 17 40  1  0
 17 41  1  0
 19 42  1  0
 20 43  1  0
 22 44  1  0
 23 45  1  0
 24 46  1  0
 25 47  1  0
M  END
>  <smiles>  (27) 
O=C(NCC(=O)N1CC[C@H](c2cccnc2)C1)c1ccc2ccccc2n1

>  <score_type>  (27) 
oracle

>  <origin>  (27) 
autodockgpu

>  <m_score__min__energy>  (27) 
-9.0199999999999996

>  <m_primary>  (27) 
energy

>  <rmsd>  (27) 
2.2385336571186993

>  <m_score__min__rmsd>  (27) 
2.2385336571186993

>  <meeko>  (27) 
{"free_energy": -8.47, "intermolecular_energy": -9.96, "internal_energy": -1.3, "cluster_size": 42, "cluster_id": 1, "rank_in_cluster": 33}

>  <energy>  (27) 
-8.52

>  <cluster_rmsd>  (27) 
0.75

>  <cluster>  (27) 
1

$$$$

     RDKit          3D

 47 50  0  0  0  0  0  0  0  0999 V2000
  140.8380   71.9400  221.5030 O   0  0  0  0  0  0  0  0  0  0  0  0
  139.9980   72.1550  222.4240 C   0  0  0  0  0  0  0  0  0  0  0  0
  139.0360   73.1710  222.2900 N   0  0  0  0  0  0  0  0  0  0  0  0
  138.9400   74.0220  221.1160 C   0  0  0  0  0  0  0  0  0  0  0  0
  138.5530   75.3880  221.5770 C   0  0  0  0  0  0  0  0  0  0  0  0
  137.3450   75.6960  221.7540 O   0  0  0  0  0  0  0  0  0  0  0  0
  139.6100   76.3310  221.8080 N   0  0  0  0  0  0  0  0  0  0  0  0
  141.0240   76.1920  221.6490 C   0  0  0  0  0  0  0  0  0  0  0  0
  141.4410   77.4920  221.0210 C   0  0  0  0  0  0  0  0  0  0  0  0
  140.4640   78.4820  221.5710 C   0  0  2  0  0  0  0  0  0  0  0  0
  141.1750   79.4530  222.4160 C   0  0  0  0  0  0  0  0  0  0  0  0
  142.5710   79.4080  222.4260 C   0  0  0  0  0  0  0  0  0  0  0  0
  143.2820   80.3030  223.2060 C   0  0  0  0  0  0  0  0  0  0  0  0
  142.5620   81.2180  223.9540 C   0  0  0  0  0  0  0  0  0  0  0  0
  141.2120   81.2450  223.9310 N   0  0  0  0  0  0  0  0  0  0  0  0
  140.5000   80.3740  223.1710 C   0  0  0  0  0  0  0  0  0  0  0  0
  139.3970   77.6990  222.2860 C   0  0  0  0  0  0  0  0  0  0  0  0
  140.0240   71.3370  223.6520 C   0  0  0  0  0  0  0  0  0  0  0  0
  139.5760   70.0310  223.6290 C   0  0  0  0  0  0  0  0  0  0  0  0
  139.6100   69.2780  224.8080 C   0  0  0  0  0  0  0  0  0  0  0  0
  140.0960   69.8630  225.9810 C   0  0  0  0  0  0  0  0  0  0  0  0
  140.1430   69.1420  227.1680 C   0  0  0  0  0  0  0  0  0  0  0  0
  140.6310   69.7560  228.3060 C   0  0  0  0  0  0  0  0  0  0  0  0
  141.0730   71.0650  228.3040 C   0  0  0  0  0  0  0  0  0  0  0  0
  141.0240   71.7790  227.1200 C   0  0  0  0  0  0  0  0  0  0  0  0
  140.5380   71.1770  225.9710 C   0  0  0  0  0  0  0  0  0  0  0  0
  140.4870   71.8670  224.8140 N   0  0  0  0  0  0  0  0  0  0  0  0
  138.3630   73.3100  223.0780 H   0  0  0  0  0  0  0  0  0  0  0  0
  139.9113   74.0614  220.6012 H   0  0  0  0  0  0  0  0  0  0  0  0
  138.1924   73.6261  220.4129 H   0  0  0  0  0  0  0  0  0  0  0  0
  141.5163   76.0509  222.6225 H   0  0  0  0  0  0  0  0  0  0  0  0
  141.3009   75.3172  221.0424 H   0  0  0  0  0  0  0  0  0  0  0  0
  142.4696   77.7546  221.3092 H   0  0  0  0  0  0  0  0  0  0  0  0
  141.4364   77.4547  219.9216 H   0  0  0  0  0  0  0  0  0  0  0  0
  139.9740   79.0805  220.7889 H   0  0  0  0  0  0  0  0  0  0  0  0
  143.1035   78.6636  221.8158 H   0  0  0  0  0  0  0  0  0  0  0  0
  144.3816   80.2877  223.2306 H   0  0  0  0  0  0  0  0  0  0  0  0
  143.1025   81.9410  224.5826 H   0  0  0  0  0  0  0  0  0  0  0  0
  139.4006   80.4078  223.1621 H   0  0  0  0  0  0  0  0  0  0  0  0
  139.5264   77.7605  223.3766 H   0  0  0  0  0  0  0  0  0  0  0  0
  138.3815   78.0724  222.0877 H   0  0  0  0  0  0  0  0  0  0  0  0
  139.1973   69.5883  222.6959 H   0  0  0  0  0  0  0  0  0  0  0  0
  139.2578   68.2359  224.8118 H   0  0  0  0  0  0  0  0  0  0  0  0
  139.7971   68.0983  227.2014 H   0  0  0  0  0  0  0  0  0  0  0  0
  140.6687   69.1835  229.2445 H   0  0  0  0  0  0  0  0  0  0  0  0
  141.4559   71.5298  229.2245 H   0  0  0  0  0  0  0  0  0  0  0  0
  141.3703   72.8227  227.0911 H   0  0  0  0  0  0  0  0  0  0  0  0
  1  2  2  0
  2  3  1  0
  3  4  1  0
  4  5  1  0
  5  6  2  0
  5  7  1  0
  7  8  1  0
  8  9  1  0
  9 10  1  0
 10 11  1  0
 11 12  2  0
 12 13  1  0
 13 14  2  0
 14 15  1  0
 15 16  2  0
 10 17  1  0
  2 18  1  0
 18 19  2  0
 19 20  1  0
 20 21  2  0
 21 22  1  0
 22 23  2  0
 23 24  1  0
 24 25  2  0
 25 26  1  0
 26 27  2  0
 17  7  1  0
 27 18  1  0
 16 11  1  0
 26 21  1  0
  3 28  1  0
  4 29  1  0
  4 30  1  0
  8 31  1  0
  8 32  1  0
  9 33  1  0
  9 34  1  0
 10 35  1  6
 12 36  1  0
 13 37  1  0
 14 38  1  0
 16 39  1  0
 17 40  1  0
 17 41  1  0
 19 42  1  0
 20 43  1  0
 22 44  1  0
 23 45  1  0
 24 46  1  0
 25 47  1  0
M  END
>  <smiles>  (28) 
O=C(NCC(=O)N1CC[C@H](c2cccnc2)C1)c1ccc2ccccc2n1

>  <score_type>  (28) 
oracle

>  <origin>  (28) 
autodockgpu

>  <m_score__min__energy>  (28) 
-9.0199999999999996

>  <m_primary>  (28) 
energy

>  <rmsd>  (28) 
2.666219573974199

>  <m_score__min__rmsd>  (28) 
2.666219573974199

>  <meeko>  (28) 
{"free_energy": -8.91, "intermolecular_energy": -10.4, "internal_energy": -1.11, "cluster_size": 42, "cluster_id": 1, "rank_in_cluster": 4}

>  <energy>  (28) 
-8.49

>  <cluster_rmsd>  (28) 
0.7

>  <cluster>  (28) 
1

$$$$

     RDKit          3D

 47 50  0  0  0  0  0  0  0  0999 V2000
  140.1210   71.3190  221.2310 O   0  0  0  0  0  0  0  0  0  0  0  0
  139.8610   71.9360  222.3040 C   0  0  0  0  0  0  0  0  0  0  0  0
  139.4780   73.2880  222.2760 N   0  0  0  0  0  0  0  0  0  0  0  0
  139.3550   74.0500  221.0460 C   0  0  0  0  0  0  0  0  0  0  0  0
  138.6270   75.3140  221.3670 C   0  0  0  0  0  0  0  0  0  0  0  0
  137.3830   75.3150  221.5650 O   0  0  0  0  0  0  0  0  0  0  0  0
  139.4000   76.5210  221.4380 N   0  0  0  0  0  0  0  0  0  0  0  0
  140.0920   77.2380  220.4130 C   0  0  0  0  0  0  0  0  0  0  0  0
  139.7850   78.6770  220.7140 C   0  0  0  0  0  0  0  0  0  0  0  0
  139.6390   78.7060  222.2030 C   0  0  2  0  0  0  0  0  0  0  0  0
  140.7110   79.5280  222.7840 C   0  0  0  0  0  0  0  0  0  0  0  0
  142.0280   79.0970  222.6080 C   0  0  0  0  0  0  0  0  0  0  0  0
  143.0700   79.8390  223.1370 C   0  0  0  0  0  0  0  0  0  0  0  0
  142.7510   80.9940  223.8300 C   0  0  0  0  0  0  0  0  0  0  0  0
  141.4710   81.3920  223.9890 N   0  0  0  0  0  0  0  0  0  0  0  0
  140.4380   80.6760  223.4770 C   0  0  0  0  0  0  0  0  0  0  0  0
  139.6270   77.2760  222.6720 C   0  0  0  0  0  0  0  0  0  0  0  0
  139.9610   71.2370  223.6010 C   0  0  0  0  0  0  0  0  0  0  0  0
  139.5730   69.9160  223.7120 C   0  0  0  0  0  0  0  0  0  0  0  0
  139.6770   69.2780  224.9530 C   0  0  0  0  0  0  0  0  0  0  0  0
  140.1700   69.9900  226.0500 C   0  0  0  0  0  0  0  0  0  0  0  0
  140.2850   69.3840  227.2960 C   0  0  0  0  0  0  0  0  0  0  0  0
  140.7770   70.1210  228.3560 C   0  0  0  0  0  0  0  0  0  0  0  0
  141.1580   71.4420  228.2200 C   0  0  0  0  0  0  0  0  0  0  0  0
  141.0410   72.0410  226.9780 C   0  0  0  0  0  0  0  0  0  0  0  0
  140.5500   71.3140  225.9050 C   0  0  0  0  0  0  0  0  0  0  0  0
  140.4330   71.8910  224.6940 N   0  0  0  0  0  0  0  0  0  0  0  0
  139.2730   73.7550  223.1890 H   0  0  0  0  0  0  0  0  0  0  0  0
  140.3536   74.2833  220.6482 H   0  0  0  0  0  0  0  0  0  0  0  0
  138.8076   73.4717  220.2871 H   0  0  0  0  0  0  0  0  0  0  0  0
  141.1744   77.0489  220.4647 H   0  0  0  0  0  0  0  0  0  0  0  0
  139.7819   76.9392  219.4008 H   0  0  0  0  0  0  0  0  0  0  0  0
  140.6081   79.3299  220.3880 H   0  0  0  0  0  0  0  0  0  0  0  0
  138.8876   79.0393  220.1911 H   0  0  0  0  0  0  0  0  0  0  0  0
  138.7011   79.1764  222.5333 H   0  0  0  0  0  0  0  0  0  0  0  0
  142.2363   78.1715  222.0512 H   0  0  0  0  0  0  0  0  0  0  0  0
  144.1157   79.5217  223.0110 H   0  0  0  0  0  0  0  0  0  0  0  0
  143.5598   81.6020  224.2614 H   0  0  0  0  0  0  0  0  0  0  0  0
  139.4000   81.0124  223.6166 H   0  0  0  0  0  0  0  0  0  0  0  0
  140.5891   77.0030  223.1301 H   0  0  0  0  0  0  0  0  0  0  0  0
  138.8669   77.0812  223.4429 H   0  0  0  0  0  0  0  0  0  0  0  0
  139.1874   69.3729  222.8366 H   0  0  0  0  0  0  0  0  0  0  0  0
  139.3738   68.2265  225.0641 H   0  0  0  0  0  0  0  0  0  0  0  0
  139.9888   68.3339  227.4357 H   0  0  0  0  0  0  0  0  0  0  0  0
  140.8684   69.6400  229.3410 H   0  0  0  0  0  0  0  0  0  0  0  0
  141.5463   72.0059  229.0810 H   0  0  0  0  0  0  0  0  0  0  0  0
  141.3370   73.0917  226.8427 H   0  0  0  0  0  0  0  0  0  0  0  0
  1  2  2  0
  2  3  1  0
  3  4  1  0
  4  5  1  0
  5  6  2  0
  5  7  1  0
  7  8  1  0
  8  9  1  0
  9 10  1  0
 10 11  1  0
 11 12  2  0
 12 13  1  0
 13 14  2  0
 14 15  1  0
 15 16  2  0
 10 17  1  0
  2 18  1  0
 18 19  2  0
 19 20  1  0
 20 21  2  0
 21 22  1  0
 22 23  2  0
 23 24  1  0
 24 25  2  0
 25 26  1  0
 26 27  2  0
 17  7  1  0
 27 18  1  0
 16 11  1  0
 26 21  1  0
  3 28  1  0
  4 29  1  0
  4 30  1  0
  8 31  1  0
  8 32  1  0
  9 33  1  0
  9 34  1  0
 10 35  1  6
 12 36  1  0
 13 37  1  0
 14 38  1  0
 16 39  1  0
 17 40  1  0
 17 41  1  0
 19 42  1  0
 20 43  1  0
 22 44  1  0
 23 45  1  0
 24 46  1  0
 25 47  1  0
M  END
>  <smiles>  (29) 
O=C(NCC(=O)N1CC[C@H](c2cccnc2)C1)c1ccc2ccccc2n1

>  <score_type>  (29) 
oracle

>  <origin>  (29) 
autodockgpu

>  <m_score__min__energy>  (29) 
-9.0199999999999996

>  <m_primary>  (29) 
energy

>  <rmsd>  (29) 
2.8396663579112364

>  <m_score__min__rmsd>  (29) 
2.8396663579112364

>  <meeko>  (29) 
{"free_energy": -8.34, "intermolecular_energy": -9.83, "internal_energy": -1.17, "cluster_size": 42, "cluster_id": 1, "rank_in_cluster": 40}

>  <energy>  (29) 
-8.49

>  <cluster_rmsd>  (29) 
1.41

>  <cluster>  (29) 
1

$$$$

     RDKit          3D

 47 50  0  0  0  0  0  0  0  0999 V2000
  139.5460   71.0510  221.2740 O   0  0  0  0  0  0  0  0  0  0  0  0
  139.5720   71.7340  222.3380 C   0  0  0  0  0  0  0  0  0  0  0  0
  139.4010   73.1280  222.2950 N   0  0  0  0  0  0  0  0  0  0  0  0
  139.1880   73.8630  221.0600 C   0  0  0  0  0  0  0  0  0  0  0  0
  140.4260   74.6500  220.7810 C   0  0  0  0  0  0  0  0  0  0  0  0
  141.4410   74.1070  220.2710 O   0  0  0  0  0  0  0  0  0  0  0  0
  140.4110   76.0450  221.1190 N   0  0  0  0  0  0  0  0  0  0  0  0
  139.8160   77.1540  220.4420 C   0  0  0  0  0  0  0  0  0  0  0  0
  139.2150   77.9690  221.5510 C   0  0  0  0  0  0  0  0  0  0  0  0
  140.1250   77.7190  222.7110 C   0  0  2  0  0  0  0  0  0  0  0  0
  140.8000   78.9710  223.0830 C   0  0  0  0  0  0  0  0  0  0  0  0
  142.1950   79.0020  223.0190 C   0  0  0  0  0  0  0  0  0  0  0  0
  142.8730   80.1590  223.3590 C   0  0  0  0  0  0  0  0  0  0  0  0
  142.1220   81.2520  223.7560 C   0  0  0  0  0  0  0  0  0  0  0  0
  140.7740   81.2020  223.8110 N   0  0  0  0  0  0  0  0  0  0  0  0
  140.0940   80.0740  223.4810 C   0  0  0  0  0  0  0  0  0  0  0  0
  141.0560   76.6070  222.3080 C   0  0  0  0  0  0  0  0  0  0  0  0
  139.7830   71.0690  223.6380 C   0  0  0  0  0  0  0  0  0  0  0  0
  139.4430   69.7400  223.8050 C   0  0  0  0  0  0  0  0  0  0  0  0
  139.6540   69.1340  225.0490 C   0  0  0  0  0  0  0  0  0  0  0  0
  140.2020   69.8850  226.0920 C   0  0  0  0  0  0  0  0  0  0  0  0
  140.4230   69.3110  227.3390 C   0  0  0  0  0  0  0  0  0  0  0  0
  140.9670   70.0860  228.3460 C   0  0  0  0  0  0  0  0  0  0  0  0
  141.2980   71.4140  228.1550 C   0  0  0  0  0  0  0  0  0  0  0  0
  141.0760   71.9810  226.9120 C   0  0  0  0  0  0  0  0  0  0  0  0
  140.5320   71.2160  225.8930 C   0  0  0  0  0  0  0  0  0  0  0  0
  140.3120   71.7610  224.6800 N   0  0  0  0  0  0  0  0  0  0  0  0
  139.4300   73.6500  223.2010 H   0  0  0  0  0  0  0  0  0  0  0  0
  138.9961   73.1614  220.2348 H   0  0  0  0  0  0  0  0  0  0  0  0
  138.3195   74.5314  221.1543 H   0  0  0  0  0  0  0  0  0  0  0  0
  140.5753   77.7337  219.8967 H   0  0  0  0  0  0  0  0  0  0  0  0
  139.0746   76.8458  219.6901 H   0  0  0  0  0  0  0  0  0  0  0  0
  139.1994   79.0371  221.2883 H   0  0  0  0  0  0  0  0  0  0  0  0
  138.1709   77.6949  221.7626 H   0  0  0  0  0  0  0  0  0  0  0  0
  139.5880   77.3984  223.6159 H   0  0  0  0  0  0  0  0  0  0  0  0
  142.7527   78.1094  222.6993 H   0  0  0  0  0  0  0  0  0  0  0  0
  143.9710   80.2087  223.3154 H   0  0  0  0  0  0  0  0  0  0  0  0
  142.6361   82.1840  224.0334 H   0  0  0  0  0  0  0  0  0  0  0  0
  138.9955   80.0471  223.5326 H   0  0  0  0  0  0  0  0  0  0  0  0
  142.0558   76.9974  222.0671 H   0  0  0  0  0  0  0  0  0  0  0  0
  141.2127   75.8653  223.1051 H   0  0  0  0  0  0  0  0  0  0  0  0
  139.0122   69.1660  222.9714 H   0  0  0  0  0  0  0  0  0  0  0  0
  139.3911   68.0772  225.2039 H   0  0  0  0  0  0  0  0  0  0  0  0
  140.1689   68.2564  227.5213 H   0  0  0  0  0  0  0  0  0  0  0  0
  141.1422   69.6307  229.3319 H   0  0  0  0  0  0  0  0  0  0  0  0
  141.7291   72.0084  228.9741 H   0  0  0  0  0  0  0  0  0  0  0  0
  141.3308   73.0361  226.7337 H   0  0  0  0  0  0  0  0  0  0  0  0
  1  2  2  0
  2  3  1  0
  3  4  1  0
  4  5  1  0
  5  6  2  0
  5  7  1  0
  7  8  1  0
  8  9  1  0
  9 10  1  0
 10 11  1  0
 11 12  2  0
 12 13  1  0
 13 14  2  0
 14 15  1  0
 15 16  2  0
 10 17  1  0
  2 18  1  0
 18 19  2  0
 19 20  1  0
 20 21  2  0
 21 22  1  0
 22 23  2  0
 23 24  1  0
 24 25  2  0
 25 26  1  0
 26 27  2  0
 17  7  1  0
 27 18  1  0
 16 11  1  0
 26 21  1  0
  3 28  1  0
  4 29  1  0
  4 30  1  0
  8 31  1  0
  8 32  1  0
  9 33  1  0
  9 34  1  0
 10 35  1  1
 12 36  1  0
 13 37  1  0
 14 38  1  0
 16 39  1  0
 17 40  1  0
 17 41  1  0
 19 42  1  0
 20 43  1  0
 22 44  1  0
 23 45  1  0
 24 46  1  0
 25 47  1  0
M  END
>  <smiles>  (30) 
O=C(NCC(=O)N1CC[C@H](c2cccnc2)C1)c1ccc2ccccc2n1

>  <score_type>  (30) 
oracle

>  <origin>  (30) 
autodockgpu

>  <m_score__min__energy>  (30) 
-9.0199999999999996

>  <m_primary>  (30) 
energy

>  <rmsd>  (30) 
2.859199898782065

>  <m_score__min__rmsd>  (30) 
2.859199898782065

>  <meeko>  (30) 
{"free_energy": -8.57, "intermolecular_energy": -10.06, "internal_energy": -1.26, "cluster_size": 42, "cluster_id": 1, "rank_in_cluster": 24}

>  <energy>  (30) 
-8.48

>  <cluster_rmsd>  (30) 
1.27

>  <cluster>  (30) 
1

$$$$

     RDKit          3D

 47 50  0  0  0  0  0  0  0  0999 V2000
  139.0440   71.0520  221.3720 O   0  0  0  0  0  0  0  0  0  0  0  0
  139.3100   71.7100  222.4200 C   0  0  0  0  0  0  0  0  0  0  0  0
  139.3450   73.1140  222.3910 N   0  0  0  0  0  0  0  0  0  0  0  0
  139.0860   73.8880  221.1890 C   0  0  0  0  0  0  0  0  0  0  0  0
  138.6640   75.2570  221.6140 C   0  0  0  0  0  0  0  0  0  0  0  0
  137.4500   75.5360  221.7930 O   0  0  0  0  0  0  0  0  0  0  0  0
  139.6970   76.2340  221.8080 N   0  0  0  0  0  0  0  0  0  0  0  0
  141.1050   76.1500  221.5790 C   0  0  0  0  0  0  0  0  0  0  0  0
  141.4450   77.4710  220.9510 C   0  0  0  0  0  0  0  0  0  0  0  0
  140.4610   78.4190  221.5590 C   0  0  2  0  0  0  0  0  0  0  0  0
  141.1750   79.4050  222.3830 C   0  0  0  0  0  0  0  0  0  0  0  0
  142.5710   79.3510  222.3980 C   0  0  0  0  0  0  0  0  0  0  0  0
  143.2860   80.2600  223.1580 C   0  0  0  0  0  0  0  0  0  0  0  0
  142.5700   81.1970  223.8820 C   0  0  0  0  0  0  0  0  0  0  0  0
  141.2210   81.2320  223.8540 N   0  0  0  0  0  0  0  0  0  0  0  0
  140.5050   80.3480  223.1140 C   0  0  0  0  0  0  0  0  0  0  0  0
  139.4580   77.5880  222.3130 C   0  0  0  0  0  0  0  0  0  0  0  0
  139.5860   71.0030  223.6860 C   0  0  0  0  0  0  0  0  0  0  0  0
  139.3490   69.6460  223.7930 C   0  0  0  0  0  0  0  0  0  0  0  0
  139.6190   69.0010  225.0050 C   0  0  0  0  0  0  0  0  0  0  0  0
  140.1210   69.7420  226.0780 C   0  0  0  0  0  0  0  0  0  0  0  0
  140.4000   69.1310  227.2950 C   0  0  0  0  0  0  0  0  0  0  0  0
  140.8960   69.8980  228.3320 C   0  0  0  0  0  0  0  0  0  0  0  0
  141.1230   71.2540  228.2010 C   0  0  0  0  0  0  0  0  0  0  0  0
  140.8440   71.8580  226.9880 C   0  0  0  0  0  0  0  0  0  0  0  0
  140.3480   71.1020  225.9390 C   0  0  0  0  0  0  0  0  0  0  0  0
  140.0740   71.6850  224.7550 N   0  0  0  0  0  0  0  0  0  0  0  0
  139.5690   73.6140  223.2820 H   0  0  0  0  0  0  0  0  0  0  0  0
  139.9992   73.9497  220.5788 H   0  0  0  0  0  0  0  0  0  0  0  0
  138.2993   73.4117  220.5854 H   0  0  0  0  0  0  0  0  0  0  0  0
  141.6486   76.0146  222.5256 H   0  0  0  0  0  0  0  0  0  0  0  0
  141.3828   75.2941  220.9464 H   0  0  0  0  0  0  0  0  0  0  0  0
  142.4761   77.7669  221.1946 H   0  0  0  0  0  0  0  0  0  0  0  0
  141.3894   77.4467  219.8527 H   0  0  0  0  0  0  0  0  0  0  0  0
  139.9144   79.0092  220.8088 H   0  0  0  0  0  0  0  0  0  0  0  0
  143.1001   78.5884  221.8076 H   0  0  0  0  0  0  0  0  0  0  0  0
  144.3854   80.2384  223.1856 H   0  0  0  0  0  0  0  0  0  0  0  0
  143.1133   81.9310  224.4952 H   0  0  0  0  0  0  0  0  0  0  0  0
  139.4058   80.3888  223.1020 H   0  0  0  0  0  0  0  0  0  0  0  0
  139.6366   77.6418  223.3971 H   0  0  0  0  0  0  0  0  0  0  0  0
  138.4214   77.9259  222.1670 H   0  0  0  0  0  0  0  0  0  0  0  0
  138.9533   69.0802  222.9367 H   0  0  0  0  0  0  0  0  0  0  0  0
  139.4379   67.9213  225.1120 H   0  0  0  0  0  0  0  0  0  0  0  0
  140.2285   68.0529  227.4306 H   0  0  0  0  0  0  0  0  0  0  0  0
  141.1174   69.4123  229.2938 H   0  0  0  0  0  0  0  0  0  0  0  0
  141.5173   71.8414  229.0433 H   0  0  0  0  0  0  0  0  0  0  0  0
  141.0158   72.9366  226.8570 H   0  0  0  0  0  0  0  0  0  0  0  0
  1  2  2  0
  2  3  1  0
  3  4  1  0
  4  5  1  0
  5  6  2  0
  5  7  1  0
  7  8  1  0
  8  9  1  0
  9 10  1  0
 10 11  1  0
 11 12  2  0
 12 13  1  0
 13 14  2  0
 14 15  1  0
 15 16  2  0
 10 17  1  0
  2 18  1  0
 18 19  2  0
 19 20  1  0
 20 21  2  0
 21 22  1  0
 22 23  2  0
 23 24  1  0
 24 25  2  0
 25 26  1  0
 26 27  2  0
 17  7  1  0
 27 18  1  0
 16 11  1  0
 26 21  1  0
  3 28  1  0
  4 29  1  0
  4 30  1  0
  8 31  1  0
  8 32  1  0
  9 33  1  0
  9 34  1  0
 10 35  1  6
 12 36  1  0
 13 37  1  0
 14 38  1  0
 16 39  1  0
 17 40  1  0
 17 41  1  0
 19 42  1  0
 20 43  1  0
 22 44  1  0
 23 45  1  0
 24 46  1  0
 25 47  1  0
M  END
>  <smiles>  (31) 
O=C(NCC(=O)N1CC[C@H](c2cccnc2)C1)c1ccc2ccccc2n1

>  <score_type>  (31) 
oracle

>  <origin>  (31) 
autodockgpu

>  <m_score__min__energy>  (31) 
-9.0199999999999996

>  <m_primary>  (31) 
energy

>  <rmsd>  (31) 
2.603528933327565

>  <m_score__min__rmsd>  (31) 
2.603528933327565

>  <meeko>  (31) 
{"free_energy": -8.69, "intermolecular_energy": -10.18, "internal_energy": -1.3, "cluster_size": 42, "cluster_id": 1, "rank_in_cluster": 16}

>  <energy>  (31) 
-8.48

>  <cluster_rmsd>  (31) 
0.99

>  <cluster>  (31) 
1

$$$$

     RDKit          3D

 47 50  0  0  0  0  0  0  0  0999 V2000
  140.5900   71.4690  221.2630 O   0  0  0  0  0  0  0  0  0  0  0  0
  140.1530   72.0370  222.3050 C   0  0  0  0  0  0  0  0  0  0  0  0
  139.7180   73.3720  222.2620 N   0  0  0  0  0  0  0  0  0  0  0  0
  139.7380   74.1730  221.0500 C   0  0  0  0  0  0  0  0  0  0  0  0
  141.1490   74.5950  220.8080 C   0  0  0  0  0  0  0  0  0  0  0  0
  142.0260   73.7630  220.4550 O   0  0  0  0  0  0  0  0  0  0  0  0
  141.4630   75.9830  220.9940 N   0  0  0  0  0  0  0  0  0  0  0  0
  142.1910   76.8870  220.1590 C   0  0  0  0  0  0  0  0  0  0  0  0
  141.3900   78.1560  220.2220 C   0  0  0  0  0  0  0  0  0  0  0  0
  140.7870   78.1290  221.5910 C   0  0  2  0  0  0  0  0  0  0  0  0
  141.3280   79.2410  222.3870 C   0  0  0  0  0  0  0  0  0  0  0  0
  141.0120   80.5420  221.9850 C   0  0  0  0  0  0  0  0  0  0  0  0
  141.4980   81.6200  222.7040 C   0  0  0  0  0  0  0  0  0  0  0  0
  142.2910   81.3530  223.8070 C   0  0  0  0  0  0  0  0  0  0  0  0
  142.5850   80.0890  224.1780 N   0  0  0  0  0  0  0  0  0  0  0  0
  142.1170   79.0210  223.4840 C   0  0  0  0  0  0  0  0  0  0  0  0
  141.0590   76.7650  222.1650 C   0  0  0  0  0  0  0  0  0  0  0  0
  140.0990   71.2970  223.5820 C   0  0  0  0  0  0  0  0  0  0  0  0
  139.5600   70.0260  223.6280 C   0  0  0  0  0  0  0  0  0  0  0  0
  139.5200   69.3480  224.8520 C   0  0  0  0  0  0  0  0  0  0  0  0
  140.0250   69.9700  225.9960 C   0  0  0  0  0  0  0  0  0  0  0  0
  140.0000   69.3220  227.2260 C   0  0  0  0  0  0  0  0  0  0  0  0
  140.5090   69.9710  228.3350 C   0  0  0  0  0  0  0  0  0  0  0  0
  141.0420   71.2430  228.2640 C   0  0  0  0  0  0  0  0  0  0  0  0
  141.0650   71.8840  227.0380 C   0  0  0  0  0  0  0  0  0  0  0  0
  140.5590   71.2460  225.9160 C   0  0  0  0  0  0  0  0  0  0  0  0
  140.5780   71.8650  224.7190 N   0  0  0  0  0  0  0  0  0  0  0  0
  139.3660   73.7980  223.1500 H   0  0  0  0  0  0  0  0  0  0  0  0
  139.3746   73.5761  220.2005 H   0  0  0  0  0  0  0  0  0  0  0  0
  139.0862   75.0524  221.1587 H   0  0  0  0  0  0  0  0  0  0  0  0
  143.2081   77.0458  220.5466 H   0  0  0  0  0  0  0  0  0  0  0  0
  142.3146   76.5122  219.1322 H   0  0  0  0  0  0  0  0  0  0  0  0
  142.0386   79.0356  220.0966 H   0  0  0  0  0  0  0  0  0  0  0  0
  140.6344   78.2225  219.4253 H   0  0  0  0  0  0  0  0  0  0  0  0
  139.6975   78.2805  221.5822 H   0  0  0  0  0  0  0  0  0  0  0  0
  140.3794   80.7083  221.1006 H   0  0  0  0  0  0  0  0  0  0  0  0
  141.2624   82.6533  222.4093 H   0  0  0  0  0  0  0  0  0  0  0  0
  142.6913   82.1917  224.3955 H   0  0  0  0  0  0  0  0  0  0  0  0
  142.3671   77.9966  223.7973 H   0  0  0  0  0  0  0  0  0  0  0  0
  141.8669   76.8048  222.9105 H   0  0  0  0  0  0  0  0  0  0  0  0
  140.1923   76.3378  222.6907 H   0  0  0  0  0  0  0  0  0  0  0  0
  139.1677   69.5533  222.7155 H   0  0  0  0  0  0  0  0  0  0  0  0
  139.0950   68.3352  224.9123 H   0  0  0  0  0  0  0  0  0  0  0  0
  139.5816   68.3086  227.3150 H   0  0  0  0  0  0  0  0  0  0  0  0
  140.4889   69.4569  229.3073 H   0  0  0  0  0  0  0  0  0  0  0  0
  141.4399   71.7362  229.1631 H   0  0  0  0  0  0  0  0  0  0  0  0
  141.4839   72.8976  226.9538 H   0  0  0  0  0  0  0  0  0  0  0  0
  1  2  2  0
  2  3  1  0
  3  4  1  0
  4  5  1  0
  5  6  2  0
  5  7  1  0
  7  8  1  0
  8  9  1  0
  9 10  1  0
 10 11  1  0
 11 12  2  0
 12 13  1  0
 13 14  2  0
 14 15  1  0
 15 16  2  0
 10 17  1  0
  2 18  1  0
 18 19  2  0
 19 20  1  0
 20 21  2  0
 21 22  1  0
 22 23  2  0
 23 24  1  0
 24 25  2  0
 25 26  1  0
 26 27  2  0
 17  7  1  0
 27 18  1  0
 16 11  1  0
 26 21  1  0
  3 28  1  0
  4 29  1  0
  4 30  1  0
  8 31  1  0
  8 32  1  0
  9 33  1  0
  9 34  1  0
 10 35  1  6
 12 36  1  0
 13 37  1  0
 14 38  1  0
 16 39  1  0
 17 40  1  0
 17 41  1  0
 19 42  1  0
 20 43  1  0
 22 44  1  0
 23 45  1  0
 24 46  1  0
 25 47  1  0
M  END
>  <smiles>  (32) 
O=C(NCC(=O)N1CC[C@H](c2cccnc2)C1)c1ccc2ccccc2n1

>  <score_type>  (32) 
oracle

>  <origin>  (32) 
autodockgpu

>  <m_score__min__energy>  (32) 
-9.0199999999999996

>  <m_primary>  (32) 
energy

>  <rmsd>  (32) 
2.5610260520346984

>  <m_score__min__rmsd>  (32) 
2.5610260520346984

>  <meeko>  (32) 
{"free_energy": -8.87, "intermolecular_energy": -10.36, "internal_energy": -1.11, "cluster_size": 42, "cluster_id": 1, "rank_in_cluster": 6}

>  <energy>  (32) 
-8.48

>  <cluster_rmsd>  (32) 
1.51

>  <cluster>  (32) 
1

$$$$

     RDKit          3D

 47 50  0  0  0  0  0  0  0  0999 V2000
  139.7860   71.2110  221.2220 O   0  0  0  0  0  0  0  0  0  0  0  0
  139.7340   71.8630  222.3050 C   0  0  0  0  0  0  0  0  0  0  0  0
  139.5700   73.2590  222.2910 N   0  0  0  0  0  0  0  0  0  0  0  0
  139.4520   74.0300  221.0660 C   0  0  0  0  0  0  0  0  0  0  0  0
  140.8340   74.3200  220.5780 C   0  0  0  0  0  0  0  0  0  0  0  0
  141.5230   73.4320  220.0130 O   0  0  0  0  0  0  0  0  0  0  0  0
  141.3390   75.6480  220.7810 N   0  0  0  0  0  0  0  0  0  0  0  0
  142.3750   76.3580  220.0980 C   0  0  0  0  0  0  0  0  0  0  0  0
  141.8150   77.7410  219.9370 C   0  0  0  0  0  0  0  0  0  0  0  0
  140.9390   77.9130  221.1370 C   0  0  2  0  0  0  0  0  0  0  0  0
  141.4840   78.9770  221.9940 C   0  0  0  0  0  0  0  0  0  0  0  0
  141.6730   78.6890  223.3480 C   0  0  0  0  0  0  0  0  0  0  0  0
  142.1850   79.6590  224.1920 C   0  0  0  0  0  0  0  0  0  0  0  0
  142.4900   80.8930  223.6430 C   0  0  0  0  0  0  0  0  0  0  0  0
  142.3000   81.1510  222.3320 N   0  0  0  0  0  0  0  0  0  0  0  0
  141.7990   80.2100  221.4910 C   0  0  0  0  0  0  0  0  0  0  0  0
  140.8380   76.5680  221.8050 C   0  0  0  0  0  0  0  0  0  0  0  0
  139.8450   71.1580  223.5970 C   0  0  0  0  0  0  0  0  0  0  0  0
  139.4630   69.8350  223.7050 C   0  0  0  0  0  0  0  0  0  0  0  0
  139.5780   69.1910  224.9420 C   0  0  0  0  0  0  0  0  0  0  0  0
  140.0770   69.8990  226.0380 C   0  0  0  0  0  0  0  0  0  0  0  0
  140.2040   69.2880  227.2800 C   0  0  0  0  0  0  0  0  0  0  0  0
  140.7020   70.0220  228.3400 C   0  0  0  0  0  0  0  0  0  0  0  0
  141.0770   71.3450  228.2080 C   0  0  0  0  0  0  0  0  0  0  0  0
  140.9480   71.9490  226.9700 C   0  0  0  0  0  0  0  0  0  0  0  0
  140.4520   71.2260  225.8970 C   0  0  0  0  0  0  0  0  0  0  0  0
  140.3240   71.8090  224.6890 N   0  0  0  0  0  0  0  0  0  0  0  0
  139.5320   73.7530  223.2120 H   0  0  0  0  0  0  0  0  0  0  0  0
  138.9015   73.4507  220.3101 H   0  0  0  0  0  0  0  0  0  0  0  0
  138.9039   74.9657  221.2505 H   0  0  0  0  0  0  0  0  0  0  0  0
  143.2978   76.3761  220.6964 H   0  0  0  0  0  0  0  0  0  0  0  0
  142.6467   75.8947  219.1381 H   0  0  0  0  0  0  0  0  0  0  0  0
  142.6196   78.4910  219.9284 H   0  0  0  0  0  0  0  0  0  0  0  0
  141.2703   77.8719  218.9903 H   0  0  0  0  0  0  0  0  0  0  0  0
  139.9205   78.2398  220.8803 H   0  0  0  0  0  0  0  0  0  0  0  0
  141.4158   77.6947  223.7419 H   0  0  0  0  0  0  0  0  0  0  0  0
  142.3441   79.4567  225.2615 H   0  0  0  0  0  0  0  0  0  0  0  0
  142.8973   81.6827  224.2915 H   0  0  0  0  0  0  0  0  0  0  0  0
  141.6491   80.4348  220.4247 H   0  0  0  0  0  0  0  0  0  0  0  0
  141.4622   76.5290  222.7099 H   0  0  0  0  0  0  0  0  0  0  0  0
  139.8180   76.3276  222.1394 H   0  0  0  0  0  0  0  0  0  0  0  0
  139.0733   69.2945  222.8298 H   0  0  0  0  0  0  0  0  0  0  0  0
  139.2786   68.1381  225.0503 H   0  0  0  0  0  0  0  0  0  0  0  0
  139.9126   68.2362  227.4172 H   0  0  0  0  0  0  0  0  0  0  0  0
  140.8031   69.5363  229.3218 H   0  0  0  0  0  0  0  0  0  0  0  0
  141.4697   71.9062  229.0687 H   0  0  0  0  0  0  0  0  0  0  0  0
  141.2387   73.0016  226.8377 H   0  0  0  0  0  0  0  0  0  0  0  0
  1  2  2  0
  2  3  1  0
  3  4  1  0
  4  5  1  0
  5  6  2  0
  5  7  1  0
  7  8  1  0
  8  9  1  0
  9 10  1  0
 10 11  1  0
 11 12  2  0
 12 13  1  0
 13 14  2  0
 14 15  1  0
 15 16  2  0
 10 17  1  0
  2 18  1  0
 18 19  2  0
 19 20  1  0
 20 21  2  0
 21 22  1  0
 22 23  2  0
 23 24  1  0
 24 25  2  0
 25 26  1  0
 26 27  2  0
 17  7  1  0
 27 18  1  0
 16 11  1  0
 26 21  1  0
  3 28  1  0
  4 29  1  0
  4 30  1  0
  8 31  1  0
  8 32  1  0
  9 33  1  0
  9 34  1  0
 10 35  1  6
 12 36  1  0
 13 37  1  0
 14 38  1  0
 16 39  1  0
 17 40  1  0
 17 41  1  0
 19 42  1  0
 20 43  1  0
 22 44  1  0
 23 45  1  0
 24 46  1  0
 25 47  1  0
M  END
>  <smiles>  (33) 
O=C(NCC(=O)N1CC[C@H](c2cccnc2)C1)c1ccc2ccccc2n1

>  <score_type>  (33) 
oracle

>  <origin>  (33) 
autodockgpu

>  <m_score__min__energy>  (33) 
-9.0199999999999996

>  <m_primary>  (33) 
energy

>  <rmsd>  (33) 
2.326252999485592

>  <m_score__min__rmsd>  (33) 
2.326252999485592

>  <meeko>  (33) 
{"free_energy": -8.71, "intermolecular_energy": -10.2, "internal_energy": -1.25, "cluster_size": 42, "cluster_id": 1, "rank_in_cluster": 15}

>  <energy>  (33) 
-8.47

>  <cluster_rmsd>  (33) 
0.95

>  <cluster>  (33) 
1

$$$$

     RDKit          3D

 47 50  0  0  0  0  0  0  0  0999 V2000
  137.4610   75.8560  222.5340 O   0  0  0  0  0  0  0  0  0  0  0  0
  138.6960   76.0970  222.4100 C   0  0  0  0  0  0  0  0  0  0  0  0
  139.5810   75.0920  221.9840 N   0  0  0  0  0  0  0  0  0  0  0  0
  139.1510   73.7430  221.6620 C   0  0  0  0  0  0  0  0  0  0  0  0
  140.1820   72.8000  222.1900 C   0  0  0  0  0  0  0  0  0  0  0  0
  141.3440   72.7700  221.7050 O   0  0  0  0  0  0  0  0  0  0  0  0
  139.7950   71.9360  223.2680 N   0  0  0  0  0  0  0  0  0  0  0  0
  138.5470   71.2910  223.5340 C   0  0  0  0  0  0  0  0  0  0  0  0
  138.9440   69.9150  223.9830 C   0  0  0  0  0  0  0  0  0  0  0  0
  140.2640   70.1250  224.6530 C   0  0  2  0  0  0  0  0  0  0  0  0
  140.1430   69.8100  226.0850 C   0  0  0  0  0  0  0  0  0  0  0  0
  139.9800   68.4700  226.4440 C   0  0  0  0  0  0  0  0  0  0  0  0
  139.8620   68.1260  227.7790 C   0  0  0  0  0  0  0  0  0  0  0  0
  139.9120   69.1470  228.7130 C   0  0  0  0  0  0  0  0  0  0  0  0
  140.0700   70.4360  228.3450 N   0  0  0  0  0  0  0  0  0  0  0  0
  140.1870   70.7900  227.0400 C   0  0  0  0  0  0  0  0  0  0  0  0
  140.6860   71.5400  224.3620 C   0  0  0  0  0  0  0  0  0  0  0  0
  139.2200   77.4430  222.7160 C   0  0  0  0  0  0  0  0  0  0  0  0
  138.3530   78.4850  222.9820 C   0  0  0  0  0  0  0  0  0  0  0  0
  138.8760   79.7510  223.2680 C   0  0  0  0  0  0  0  0  0  0  0  0
  140.2610   79.9330  223.2790 C   0  0  0  0  0  0  0  0  0  0  0  0
  140.8120   81.1780  223.5600 C   0  0  0  0  0  0  0  0  0  0  0  0
  142.1870   81.3170  223.5610 C   0  0  0  0  0  0  0  0  0  0  0  0
  143.0340   80.2600  223.2910 C   0  0  0  0  0  0  0  0  0  0  0  0
  142.4820   79.0230  223.0120 C   0  0  0  0  0  0  0  0  0  0  0  0
  141.1050   78.8670  223.0080 C   0  0  0  0  0  0  0  0  0  0  0  0
  140.5600   77.6650  222.7360 N   0  0  0  0  0  0  0  0  0  0  0  0
  140.5930   75.3400  221.8960 H   0  0  0  0  0  0  0  0  0  0  0  0
  138.1786   73.5372  222.1332 H   0  0  0  0  0  0  0  0  0  0  0  0
  139.0400   73.6231  220.5742 H   0  0  0  0  0  0  0  0  0  0  0  0
  137.9947   71.8176  224.3262 H   0  0  0  0  0  0  0  0  0  0  0  0
  137.8802   71.2773  222.6593 H   0  0  0  0  0  0  0  0  0  0  0  0
  138.2069   69.5055  224.6893 H   0  0  0  0  0  0  0  0  0  0  0  0
  138.9984   69.1958  223.1524 H   0  0  0  0  0  0  0  0  0  0  0  0
  141.0484   69.4541  224.2728 H   0  0  0  0  0  0  0  0  0  0  0  0
  139.9456   67.6910  225.6681 H   0  0  0  0  0  0  0  0  0  0  0  0
  139.7330   67.0781  228.0876 H   0  0  0  0  0  0  0  0  0  0  0  0
  139.8207   68.9016  229.7814 H   0  0  0  0  0  0  0  0  0  0  0  0
  140.3148   71.8447  226.7549 H   0  0  0  0  0  0  0  0  0  0  0  0
  140.5408   72.1839  225.2419 H   0  0  0  0  0  0  0  0  0  0  0  0
  141.7517   71.6283  224.1043 H   0  0  0  0  0  0  0  0  0  0  0  0
  137.2653   78.3216  222.9691 H   0  0  0  0  0  0  0  0  0  0  0  0
  138.2032   80.5945  223.4821 H   0  0  0  0  0  0  0  0  0  0  0  0
  140.1635   82.0393  223.7782 H   0  0  0  0  0  0  0  0  0  0  0  0
  142.6214   82.3026  223.7844 H   0  0  0  0  0  0  0  0  0  0  0  0
  144.1251   80.3992  223.2977 H   0  0  0  0  0  0  0  0  0  0  0  0
  143.1346   78.1648  222.7937 H   0  0  0  0  0  0  0  0  0  0  0  0
  1  2  2  0
  2  3  1  0
  3  4  1  0
  4  5  1  0
  5  6  2  0
  5  7  1  0
  7  8  1  0
  8  9  1  0
  9 10  1  0
 10 11  1  0
 11 12  2  0
 12 13  1  0
 13 14  2  0
 14 15  1  0
 15 16  2  0
 10 17  1  0
  2 18  1  0
 18 19  2  0
 19 20  1  0
 20 21  2  0
 21 22  1  0
 22 23  2  0
 23 24  1  0
 24 25  2  0
 25 26  1  0
 26 27  2  0
 17  7  1  0
 27 18  1  0
 16 11  1  0
 26 21  1  0
  3 28  1  0
  4 29  1  0
  4 30  1  0
  8 31  1  0
  8 32  1  0
  9 33  1  0
  9 34  1  0
 10 35  1  6
 12 36  1  0
 13 37  1  0
 14 38  1  0
 16 39  1  0
 17 40  1  0
 17 41  1  0
 19 42  1  0
 20 43  1  0
 22 44  1  0
 23 45  1  0
 24 46  1  0
 25 47  1  0
M  END
>  <smiles>  (34) 
O=C(NCC(=O)N1CC[C@H](c2cccnc2)C1)c1ccc2ccccc2n1

>  <score_type>  (34) 
oracle

>  <origin>  (34) 
autodockgpu

>  <m_score__min__energy>  (34) 
-9.0199999999999996

>  <m_primary>  (34) 
energy

>  <rmsd>  (34) 
8.600993236132387

>  <m_score__min__rmsd>  (34) 
8.600993236132387

>  <meeko>  (34) 
{"free_energy": -8.12, "intermolecular_energy": -9.61, "internal_energy": -1.45, "cluster_size": 7, "cluster_id": 2, "rank_in_cluster": 6}

>  <energy>  (34) 
-8.42

>  <cluster_rmsd>  (34) 
1.0

>  <cluster>  (34) 
1

$$$$

     RDKit          3D

 47 50  0  0  0  0  0  0  0  0999 V2000
  140.7200   74.6050  221.9750 O   0  0  0  0  0  0  0  0  0  0  0  0
  139.7270   75.3830  221.8830 C   0  0  0  0  0  0  0  0  0  0  0  0
  138.5090   74.9280  221.3490 N   0  0  0  0  0  0  0  0  0  0  0  0
  138.3110   73.5680  220.8770 C   0  0  0  0  0  0  0  0  0  0  0  0
  137.6840   72.7900  221.9880 C   0  0  0  0  0  0  0  0  0  0  0  0
  136.4640   72.9240  222.2670 O   0  0  0  0  0  0  0  0  0  0  0  0
  138.5280   71.8890  222.7190 N   0  0  0  0  0  0  0  0  0  0  0  0
  139.9050   71.5530  222.5310 C   0  0  0  0  0  0  0  0  0  0  0  0
  140.4580   71.5160  223.9260 C   0  0  0  0  0  0  0  0  0  0  0  0
  139.2970   71.0720  224.7580 C   0  0  2  0  0  0  0  0  0  0  0  0
  139.5900   69.7560  225.3450 C   0  0  0  0  0  0  0  0  0  0  0  0
  140.6190   69.6770  226.2860 C   0  0  0  0  0  0  0  0  0  0  0  0
  140.9290   68.4590  226.8650 C   0  0  0  0  0  0  0  0  0  0  0  0
  140.1910   67.3550  226.4760 C   0  0  0  0  0  0  0  0  0  0  0  0
  139.2000   67.4520  225.5640 N   0  0  0  0  0  0  0  0  0  0  0  0
  138.8830   68.6390  224.9870 C   0  0  0  0  0  0  0  0  0  0  0  0
  138.0830   71.1010  223.8710 C   0  0  0  0  0  0  0  0  0  0  0  0
  139.8410   76.7830  222.3390 C   0  0  0  0  0  0  0  0  0  0  0  0
  138.7060   77.5180  222.6220 C   0  0  0  0  0  0  0  0  0  0  0  0
  138.8420   78.8430  223.0510 C   0  0  0  0  0  0  0  0  0  0  0  0
  140.1210   79.3920  223.1830 C   0  0  0  0  0  0  0  0  0  0  0  0
  140.2900   80.7050  223.6080 C   0  0  0  0  0  0  0  0  0  0  0  0
  141.5700   81.2110  223.7260 C   0  0  0  0  0  0  0  0  0  0  0  0
  142.6900   80.4560  223.4360 C   0  0  0  0  0  0  0  0  0  0  0  0
  142.5170   79.1490  223.0130 C   0  0  0  0  0  0  0  0  0  0  0  0
  141.2390   78.6270  222.8910 C   0  0  0  0  0  0  0  0  0  0  0  0
  141.0640   77.3560  222.4800 N   0  0  0  0  0  0  0  0  0  0  0  0
  137.7170   75.6080  221.2940 H   0  0  0  0  0  0  0  0  0  0  0  0
  137.6482   73.5686  219.9991 H   0  0  0  0  0  0  0  0  0  0  0  0
  139.2709   73.1175  220.5842 H   0  0  0  0  0  0  0  0  0  0  0  0
  140.0060   70.5723  222.0432 H   0  0  0  0  0  0  0  0  0  0  0  0
  140.4328   72.2681  221.8829 H   0  0  0  0  0  0  0  0  0  0  0  0
  141.2894   70.7995  223.9991 H   0  0  0  0  0  0  0  0  0  0  0  0
  140.8661   72.4855  224.2478 H   0  0  0  0  0  0  0  0  0  0  0  0
  139.1043   71.7354  225.6140 H   0  0  0  0  0  0  0  0  0  0  0  0
  141.1812   70.5801  226.5660 H   0  0  0  0  0  0  0  0  0  0  0  0
  141.7345   68.3714  227.6090 H   0  0  0  0  0  0  0  0  0  0  0  0
  140.4171   66.3746  226.9205 H   0  0  0  0  0  0  0  0  0  0  0  0
  138.0731   68.7026  224.2454 H   0  0  0  0  0  0  0  0  0  0  0  0
  137.7935   70.0847  223.5655 H   0  0  0  0  0  0  0  0  0  0  0  0
  137.1970   71.5245  224.3666 H   0  0  0  0  0  0  0  0  0  0  0  0
  137.7085   77.0676  222.5115 H   0  0  0  0  0  0  0  0  0  0  0  0
  137.9518   79.4464  223.2820 H   0  0  0  0  0  0  0  0  0  0  0  0
  139.4178   81.3313  223.8466 H   0  0  0  0  0  0  0  0  0  0  0  0
  141.7019   82.2500  224.0622 H   0  0  0  0  0  0  0  0  0  0  0  0
  143.6980   80.8842  223.5390 H   0  0  0  0  0  0  0  0  0  0  0  0
  143.3919   78.5264  222.7743 H   0  0  0  0  0  0  0  0  0  0  0  0
  1  2  2  0
  2  3  1  0
  3  4  1  0
  4  5  1  0
  5  6  2  0
  5  7  1  0
  7  8  1  0
  8  9  1  0
  9 10  1  0
 10 11  1  0
 11 12  2  0
 12 13  1  0
 13 14  2  0
 14 15  1  0
 15 16  2  0
 10 17  1  0
  2 18  1  0
 18 19  2  0
 19 20  1  0
 20 21  2  0
 21 22  1  0
 22 23  2  0
 23 24  1  0
 24 25  2  0
 25 26  1  0
 26 27  2  0
 17  7  1  0
 27 18  1  0
 16 11  1  0
 26 21  1  0
  3 28  1  0
  4 29  1  0
  4 30  1  0
  8 31  1  0
  8 32  1  0
  9 33  1  0
  9 34  1  0
 10 35  1  1
 12 36  1  0
 13 37  1  0
 14 38  1  0
 16 39  1  0
 17 40  1  0
 17 41  1  0
 19 42  1  0
 20 43  1  0
 22 44  1  0
 23 45  1  0
 24 46  1  0
 25 47  1  0
M  END
>  <smiles>  (35) 
O=C(NCC(=O)N1CC[C@H](c2cccnc2)C1)c1ccc2ccccc2n1

>  <score_type>  (35) 
oracle

>  <origin>  (35) 
autodockgpu

>  <m_score__min__energy>  (35) 
-9.0199999999999996

>  <m_primary>  (35) 
energy

>  <rmsd>  (35) 
8.101208110328207

>  <m_score__min__rmsd>  (35) 
8.101208110328207

>  <meeko>  (35) 
{"free_energy": -8.66, "intermolecular_energy": -10.15, "internal_energy": -1.2, "cluster_size": 7, "cluster_id": 2, "rank_in_cluster": 2}

>  <energy>  (35) 
-8.42

>  <cluster_rmsd>  (35) 
0.77

>  <cluster>  (35) 
1

$$$$

     RDKit          3D

 47 50  0  0  0  0  0  0  0  0999 V2000
  140.3350   71.4630  221.2450 O   0  0  0  0  0  0  0  0  0  0  0  0
  140.0660   72.0570  222.3290 C   0  0  0  0  0  0  0  0  0  0  0  0
  139.7860   73.4340  222.3380 N   0  0  0  0  0  0  0  0  0  0  0  0
  139.7850   74.2510  221.1370 C   0  0  0  0  0  0  0  0  0  0  0  0
  141.1760   74.7520  220.9280 C   0  0  0  0  0  0  0  0  0  0  0  0
  142.1130   73.9650  220.6310 O   0  0  0  0  0  0  0  0  0  0  0  0
  141.3980   76.1620  221.0790 N   0  0  0  0  0  0  0  0  0  0  0  0
  141.9440   77.1160  220.1650 C   0  0  0  0  0  0  0  0  0  0  0  0
  141.0580   78.3170  220.3300 C   0  0  0  0  0  0  0  0  0  0  0  0
  140.6310   78.2500  221.7620 C   0  0  2  0  0  0  0  0  0  0  0  0
  141.1740   79.4070  222.4900 C   0  0  0  0  0  0  0  0  0  0  0  0
  142.4040   79.2510  223.1340 C   0  0  0  0  0  0  0  0  0  0  0  0
  142.9550   80.3130  223.8300 C   0  0  0  0  0  0  0  0  0  0  0  0
  142.2460   81.5020  223.8560 C   0  0  0  0  0  0  0  0  0  0  0  0
  141.0590   81.6320  223.2270 N   0  0  0  0  0  0  0  0  0  0  0  0
  140.5050   80.6000  222.5400 C   0  0  0  0  0  0  0  0  0  0  0  0
  141.0790   76.9160  222.2940 C   0  0  0  0  0  0  0  0  0  0  0  0
  140.0460   71.3040  223.5980 C   0  0  0  0  0  0  0  0  0  0  0  0
  139.5440   70.0170  223.6370 C   0  0  0  0  0  0  0  0  0  0  0  0
  139.5350   69.3260  224.8540 C   0  0  0  0  0  0  0  0  0  0  0  0
  140.0340   69.9520  226.0000 C   0  0  0  0  0  0  0  0  0  0  0  0
  140.0400   69.2920  227.2240 C   0  0  0  0  0  0  0  0  0  0  0  0
  140.5410   69.9440  228.3340 C   0  0  0  0  0  0  0  0  0  0  0  0
  141.0370   71.2310  228.2700 C   0  0  0  0  0  0  0  0  0  0  0  0
  141.0290   71.8850  227.0500 C   0  0  0  0  0  0  0  0  0  0  0  0
  140.5300   71.2440  225.9280 C   0  0  0  0  0  0  0  0  0  0  0  0
  140.5190   71.8740  224.7370 N   0  0  0  0  0  0  0  0  0  0  0  0
  139.5690   73.8810  223.2590 H   0  0  0  0  0  0  0  0  0  0  0  0
  139.4706   73.6469  220.2731 H   0  0  0  0  0  0  0  0  0  0  0  0
  139.0843   75.0922  221.2437 H   0  0  0  0  0  0  0  0  0  0  0  0
  142.9848   77.3579  220.4261 H   0  0  0  0  0  0  0  0  0  0  0  0
  141.9711   76.7461  219.1294 H   0  0  0  0  0  0  0  0  0  0  0  0
  141.6139   79.2448  220.1297 H   0  0  0  0  0  0  0  0  0  0  0  0
  140.2080   78.3182  219.6318 H   0  0  0  0  0  0  0  0  0  0  0  0
  139.5399   78.3134  221.8866 H   0  0  0  0  0  0  0  0  0  0  0  0
  142.9327   78.2875  223.0881 H   0  0  0  0  0  0  0  0  0  0  0  0
  143.9224   80.2158  224.3445 H   0  0  0  0  0  0  0  0  0  0  0  0
  142.6604   82.3618  224.4028 H   0  0  0  0  0  0  0  0  0  0  0  0
  139.5363   80.7206  222.0329 H   0  0  0  0  0  0  0  0  0  0  0  0
  141.9661   77.0247  222.9353 H   0  0  0  0  0  0  0  0  0  0  0  0
  140.3203   76.4242  222.9206 H   0  0  0  0  0  0  0  0  0  0  0  0
  139.1566   69.5420  222.7236 H   0  0  0  0  0  0  0  0  0  0  0  0
  139.1394   68.3010  224.9082 H   0  0  0  0  0  0  0  0  0  0  0  0
  139.6516   68.2662  227.3071 H   0  0  0  0  0  0  0  0  0  0  0  0
  140.5449   69.4203  229.3013 H   0  0  0  0  0  0  0  0  0  0  0  0
  141.4304   71.7264  229.1699 H   0  0  0  0  0  0  0  0  0  0  0  0
  141.4179   72.9110  226.9717 H   0  0  0  0  0  0  0  0  0  0  0  0
  1  2  2  0
  2  3  1  0
  3  4  1  0
  4  5  1  0
  5  6  2  0
  5  7  1  0
  7  8  1  0
  8  9  1  0
  9 10  1  0
 10 11  1  0
 11 12  2  0
 12 13  1  0
 13 14  2  0
 14 15  1  0
 15 16  2  0
 10 17  1  0
  2 18  1  0
 18 19  2  0
 19 20  1  0
 20 21  2  0
 21 22  1  0
 22 23  2  0
 23 24  1  0
 24 25  2  0
 25 26  1  0
 26 27  2  0
 17  7  1  0
 27 18  1  0
 16 11  1  0
 26 21  1  0
  3 28  1  0
  4 29  1  0
  4 30  1  0
  8 31  1  0
  8 32  1  0
  9 33  1  0
  9 34  1  0
 10 35  1  6
 12 36  1  0
 13 37  1  0
 14 38  1  0
 16 39  1  0
 17 40  1  0
 17 41  1  0
 19 42  1  0
 20 43  1  0
 22 44  1  0
 23 45  1  0
 24 46  1  0
 25 47  1  0
M  END
>  <smiles>  (36) 
O=C(NCC(=O)N1CC[C@H](c2cccnc2)C1)c1ccc2ccccc2n1

>  <score_type>  (36) 
oracle

>  <origin>  (36) 
autodockgpu

>  <m_score__min__energy>  (36) 
-9.0199999999999996

>  <m_primary>  (36) 
energy

>  <rmsd>  (36) 
2.6389473586268855

>  <m_score__min__rmsd>  (36) 
2.6389473586268855

>  <meeko>  (36) 
{"free_energy": -8.86, "intermolecular_energy": -10.35, "internal_energy": -1.17, "cluster_size": 42, "cluster_id": 1, "rank_in_cluster": 7}

>  <energy>  (36) 
-8.37

>  <cluster_rmsd>  (36) 
0.85

>  <cluster>  (36) 
1

$$$$

     RDKit          3D

 47 50  0  0  0  0  0  0  0  0999 V2000
  140.5960   71.5130  221.2680 O   0  0  0  0  0  0  0  0  0  0  0  0
  140.1720   72.0820  222.3160 C   0  0  0  0  0  0  0  0  0  0  0  0
  139.7590   73.4250  222.2810 N   0  0  0  0  0  0  0  0  0  0  0  0
  139.7870   74.2320  221.0740 C   0  0  0  0  0  0  0  0  0  0  0  0
  141.1910   74.7010  220.8750 C   0  0  0  0  0  0  0  0  0  0  0  0
  142.1040   73.8990  220.5450 O   0  0  0  0  0  0  0  0  0  0  0  0
  141.4540   76.0980  221.0750 N   0  0  0  0  0  0  0  0  0  0  0  0
  142.1120   77.0450  220.2310 C   0  0  0  0  0  0  0  0  0  0  0  0
  141.2620   78.2780  220.3460 C   0  0  0  0  0  0  0  0  0  0  0  0
  140.7110   78.2030  221.7340 C   0  0  2  0  0  0  0  0  0  0  0  0
  141.2340   79.3240  222.5300 C   0  0  0  0  0  0  0  0  0  0  0  0
  142.6200   79.4220  222.6830 C   0  0  0  0  0  0  0  0  0  0  0  0
  143.1570   80.4610  223.4220 C   0  0  0  0  0  0  0  0  0  0  0  0
  142.2800   81.3700  223.9870 C   0  0  0  0  0  0  0  0  0  0  0  0
  140.9440   81.2570  223.8270 N   0  0  0  0  0  0  0  0  0  0  0  0
  140.4010   80.2440  223.1050 C   0  0  0  0  0  0  0  0  0  0  0  0
  141.0600   76.8420  222.2740 C   0  0  0  0  0  0  0  0  0  0  0  0
  140.1100   71.3360  223.5880 C   0  0  0  0  0  0  0  0  0  0  0  0
  139.5660   70.0670  223.6260 C   0  0  0  0  0  0  0  0  0  0  0  0
  139.5180   69.3820  224.8460 C   0  0  0  0  0  0  0  0  0  0  0  0
  140.0220   69.9960  225.9950 C   0  0  0  0  0  0  0  0  0  0  0  0
  139.9900   69.3420  227.2220 C   0  0  0  0  0  0  0  0  0  0  0  0
  140.4980   69.9830  228.3360 C   0  0  0  0  0  0  0  0  0  0  0  0
  141.0370   71.2530  228.2730 C   0  0  0  0  0  0  0  0  0  0  0  0
  141.0670   71.9000  227.0500 C   0  0  0  0  0  0  0  0  0  0  0  0
  140.5620   71.2710  225.9240 C   0  0  0  0  0  0  0  0  0  0  0  0
  140.5880   71.8950  224.7300 N   0  0  0  0  0  0  0  0  0  0  0  0
  139.4170   73.8510  223.1730 H   0  0  0  0  0  0  0  0  0  0  0  0
  139.4678   73.6280  220.2118 H   0  0  0  0  0  0  0  0  0  0  0  0
  139.1036   75.0890  221.1671 H   0  0  0  0  0  0  0  0  0  0  0  0
  143.1354   77.2401  220.5841 H   0  0  0  0  0  0  0  0  0  0  0  0
  142.2128   76.6928  219.1938 H   0  0  0  0  0  0  0  0  0  0  0  0
  141.8687   79.1860  220.2137 H   0  0  0  0  0  0  0  0  0  0  0  0
  140.4758   78.3259  219.5781 H   0  0  0  0  0  0  0  0  0  0  0  0
  139.6165   78.3083  221.7665 H   0  0  0  0  0  0  0  0  0  0  0  0
  143.2810   78.6760  222.2177 H   0  0  0  0  0  0  0  0  0  0  0  0
  144.2442   80.5611  223.5559 H   0  0  0  0  0  0  0  0  0  0  0  0
  142.6808   82.2047  224.5808 H   0  0  0  0  0  0  0  0  0  0  0  0
  139.3105   80.1643  222.9844 H   0  0  0  0  0  0  0  0  0  0  0  0
  141.8917   76.9035  222.9913 H   0  0  0  0  0  0  0  0  0  0  0  0
  140.2316   76.3697  222.8224 H   0  0  0  0  0  0  0  0  0  0  0  0
  139.1755   69.6006  222.7095 H   0  0  0  0  0  0  0  0  0  0  0  0
  139.0880   68.3710  224.8992 H   0  0  0  0  0  0  0  0  0  0  0  0
  139.5668   68.3300  227.3045 H   0  0  0  0  0  0  0  0  0  0  0  0
  140.4722   69.4642  229.3056 H   0  0  0  0  0  0  0  0  0  0  0  0
  141.4341   71.7400  229.1759 H   0  0  0  0  0  0  0  0  0  0  0  0
  141.4911   72.9120  226.9723 H   0  0  0  0  0  0  0  0  0  0  0  0
  1  2  2  0
  2  3  1  0
  3  4  1  0
  4  5  1  0
  5  6  2  0
  5  7  1  0
  7  8  1  0
  8  9  1  0
  9 10  1  0
 10 11  1  0
 11 12  2  0
 12 13  1  0
 13 14  2  0
 14 15  1  0
 15 16  2  0
 10 17  1  0
  2 18  1  0
 18 19  2  0
 19 20  1  0
 20 21  2  0
 21 22  1  0
 22 23  2  0
 23 24  1  0
 24 25  2  0
 25 26  1  0
 26 27  2  0
 17  7  1  0
 27 18  1  0
 16 11  1  0
 26 21  1  0
  3 28  1  0
  4 29  1  0
  4 30  1  0
  8 31  1  0
  8 32  1  0
  9 33  1  0
  9 34  1  0
 10 35  1  6
 12 36  1  0
 13 37  1  0
 14 38  1  0
 16 39  1  0
 17 40  1  0
 17 41  1  0
 19 42  1  0
 20 43  1  0
 22 44  1  0
 23 45  1  0
 24 46  1  0
 25 47  1  0
M  END
>  <smiles>  (37) 
O=C(NCC(=O)N1CC[C@H](c2cccnc2)C1)c1ccc2ccccc2n1

>  <score_type>  (37) 
oracle

>  <origin>  (37) 
autodockgpu

>  <m_score__min__energy>  (37) 
-9.0199999999999996

>  <m_primary>  (37) 
energy

>  <rmsd>  (37) 
2.6326156053797316

>  <m_score__min__rmsd>  (37) 
2.6326156053797316

>  <meeko>  (37) 
{"free_energy": -9.02, "intermolecular_energy": -10.52, "internal_energy": -1.11, "cluster_size": 42, "cluster_id": 1, "rank_in_cluster": 1}

>  <energy>  (37) 
-8.36

>  <cluster_rmsd>  (37) 
1.59

>  <cluster>  (37) 
1

$$$$

     RDKit          3D

 47 50  0  0  0  0  0  0  0  0999 V2000
  140.7290   74.5930  222.0190 O   0  0  0  0  0  0  0  0  0  0  0  0
  139.7480   75.3830  221.9000 C   0  0  0  0  0  0  0  0  0  0  0  0
  138.5380   74.9390  221.3410 N   0  0  0  0  0  0  0  0  0  0  0  0
  138.3330   73.5780  220.8750 C   0  0  0  0  0  0  0  0  0  0  0  0
  137.7110   72.8050  221.9910 C   0  0  0  0  0  0  0  0  0  0  0  0
  136.4920   72.9410  222.2760 O   0  0  0  0  0  0  0  0  0  0  0  0
  138.5580   71.9060  222.7210 N   0  0  0  0  0  0  0  0  0  0  0  0
  139.9330   71.5670  222.5270 C   0  0  0  0  0  0  0  0  0  0  0  0
  140.4930   71.5340  223.9200 C   0  0  0  0  0  0  0  0  0  0  0  0
  139.3350   71.0950  224.7590 C   0  0  2  0  0  0  0  0  0  0  0  0
  139.6290   69.7800  225.3490 C   0  0  0  0  0  0  0  0  0  0  0  0
  140.6790   69.6980  226.2670 C   0  0  0  0  0  0  0  0  0  0  0  0
  140.9910   68.4820  226.8480 C   0  0  0  0  0  0  0  0  0  0  0  0
  140.2340   67.3820  226.4830 C   0  0  0  0  0  0  0  0  0  0  0  0
  139.2240   67.4810  225.5940 N   0  0  0  0  0  0  0  0  0  0  0  0
  138.9050   68.6670  225.0150 C   0  0  0  0  0  0  0  0  0  0  0  0
  138.1160   71.1220  223.8780 C   0  0  0  0  0  0  0  0  0  0  0  0
  139.8690   76.7840  222.3480 C   0  0  0  0  0  0  0  0  0  0  0  0
  138.7380   77.5280  222.6250 C   0  0  0  0  0  0  0  0  0  0  0  0
  138.8820   78.8540  223.0470 C   0  0  0  0  0  0  0  0  0  0  0  0
  140.1630   79.3960  223.1800 C   0  0  0  0  0  0  0  0  0  0  0  0
  140.3390   80.7100  223.5980 C   0  0  0  0  0  0  0  0  0  0  0  0
  141.6220   81.2090  223.7170 C   0  0  0  0  0  0  0  0  0  0  0  0
  142.7380   80.4460  223.4340 C   0  0  0  0  0  0  0  0  0  0  0  0
  142.5580   79.1380  223.0180 C   0  0  0  0  0  0  0  0  0  0  0  0
  141.2780   78.6230  222.8940 C   0  0  0  0  0  0  0  0  0  0  0  0
  141.0960   77.3510  222.4900 N   0  0  0  0  0  0  0  0  0  0  0  0
  137.7550   75.6290  221.2640 H   0  0  0  0  0  0  0  0  0  0  0  0
  137.6648   73.5778  220.0012 H   0  0  0  0  0  0  0  0  0  0  0  0
  139.2900   73.1240  220.5784 H   0  0  0  0  0  0  0  0  0  0  0  0
  140.0298   70.5844  222.0422 H   0  0  0  0  0  0  0  0  0  0  0  0
  140.4588   72.2787  221.8736 H   0  0  0  0  0  0  0  0  0  0  0  0
  141.3234   70.8162  223.9917 H   0  0  0  0  0  0  0  0  0  0  0  0
  140.9045   72.5038  224.2364 H   0  0  0  0  0  0  0  0  0  0  0  0
  139.1475   71.7624  225.6131 H   0  0  0  0  0  0  0  0  0  0  0  0
  141.2559   70.5978  226.5270 H   0  0  0  0  0  0  0  0  0  0  0  0
  141.8119   68.3923  227.5747 H   0  0  0  0  0  0  0  0  0  0  0  0
  140.4617   66.4026  226.9290 H   0  0  0  0  0  0  0  0  0  0  0  0
  138.0798   68.7324  224.2906 H   0  0  0  0  0  0  0  0  0  0  0  0
  137.8237   70.1051  223.5773 H   0  0  0  0  0  0  0  0  0  0  0  0
  137.2324   71.5476  224.3761 H   0  0  0  0  0  0  0  0  0  0  0  0
  137.7378   77.0836  222.5152 H   0  0  0  0  0  0  0  0  0  0  0  0
  137.9949   79.4643  223.2720 H   0  0  0  0  0  0  0  0  0  0  0  0
  139.4700   81.3430  223.8306 H   0  0  0  0  0  0  0  0  0  0  0  0
  141.7592   82.2489  224.0482 H   0  0  0  0  0  0  0  0  0  0  0  0
  143.7483   80.8687  223.5370 H   0  0  0  0  0  0  0  0  0  0  0  0
  143.4299   78.5086  222.7863 H   0  0  0  0  0  0  0  0  0  0  0  0
  1  2  2  0
  2  3  1  0
  3  4  1  0
  4  5  1  0
  5  6  2  0
  5  7  1  0
  7  8  1  0
  8  9  1  0
  9 10  1  0
 10 11  1  0
 11 12  2  0
 12 13  1  0
 13 14  2  0
 14 15  1  0
 15 16  2  0
 10 17  1  0
  2 18  1  0
 18 19  2  0
 19 20  1  0
 20 21  2  0
 21 22  1  0
 22 23  2  0
 23 24  1  0
 24 25  2  0
 25 26  1  0
 26 27  2  0
 17  7  1  0
 27 18  1  0
 16 11  1  0
 26 21  1  0
  3 28  1  0
  4 29  1  0
  4 30  1  0
  8 31  1  0
  8 32  1  0
  9 33  1  0
  9 34  1  0
 10 35  1  1
 12 36  1  0
 13 37  1  0
 14 38  1  0
 16 39  1  0
 17 40  1  0
 17 41  1  0
 19 42  1  0
 20 43  1  0
 22 44  1  0
 23 45  1  0
 24 46  1  0
 25 47  1  0
M  END
>  <smiles>  (38) 
O=C(NCC(=O)N1CC[C@H](c2cccnc2)C1)c1ccc2ccccc2n1

>  <score_type>  (38) 
oracle

>  <origin>  (38) 
autodockgpu

>  <m_score__min__energy>  (38) 
-9.0199999999999996

>  <m_primary>  (38) 
energy

>  <rmsd>  (38) 
8.098885222225853

>  <m_score__min__rmsd>  (38) 
8.098885222225853

>  <meeko>  (38) 
{"free_energy": -8.66, "intermolecular_energy": -10.15, "internal_energy": -1.2, "cluster_size": 7, "cluster_id": 2, "rank_in_cluster": 3}

>  <energy>  (38) 
-8.35

>  <cluster_rmsd>  (38) 
1.21

>  <cluster>  (38) 
1

$$$$

     RDKit          3D

 47 50  0  0  0  0  0  0  0  0999 V2000
  139.9690   71.1710  221.2160 O   0  0  0  0  0  0  0  0  0  0  0  0
  139.6600   71.8030  222.2670 C   0  0  0  0  0  0  0  0  0  0  0  0
  139.1220   73.0990  222.1890 N   0  0  0  0  0  0  0  0  0  0  0  0
  138.8870   73.7850  220.9300 C   0  0  0  0  0  0  0  0  0  0  0  0
  140.2150   74.0270  220.2910 C   0  0  0  0  0  0  0  0  0  0  0  0
  140.6890   73.2170  219.4520 O   0  0  0  0  0  0  0  0  0  0  0  0
  140.9230   75.2150  220.6730 N   0  0  0  0  0  0  0  0  0  0  0  0
  142.2870   75.5870  220.4620 C   0  0  0  0  0  0  0  0  0  0  0  0
  142.2060   77.0380  220.0800 C   0  0  0  0  0  0  0  0  0  0  0  0
  141.0090   77.5360  220.8250 C   0  0  2  0  0  0  0  0  0  0  0  0
  141.4320   78.5300  221.8230 C   0  0  0  0  0  0  0  0  0  0  0  0
  141.4170   78.1500  223.1670 C   0  0  0  0  0  0  0  0  0  0  0  0
  141.8070   79.0520  224.1410 C   0  0  0  0  0  0  0  0  0  0  0  0
  142.2000   80.3140  223.7290 C   0  0  0  0  0  0  0  0  0  0  0  0
  142.2070   80.6620  222.4240 N   0  0  0  0  0  0  0  0  0  0  0  0
  141.8270   79.7890  221.4570 C   0  0  0  0  0  0  0  0  0  0  0  0
  140.3170   76.3310  221.4030 C   0  0  0  0  0  0  0  0  0  0  0  0
  139.8660   71.1820  223.5900 C   0  0  0  0  0  0  0  0  0  0  0  0
  139.5230   69.8600  223.8000 C   0  0  0  0  0  0  0  0  0  0  0  0
  139.7280   69.2950  225.0650 C   0  0  0  0  0  0  0  0  0  0  0  0
  140.2730   70.0800  226.0840 C   0  0  0  0  0  0  0  0  0  0  0  0
  140.4890   69.5490  227.3510 C   0  0  0  0  0  0  0  0  0  0  0  0
  141.0300   70.3570  228.3330 C   0  0  0  0  0  0  0  0  0  0  0  0
  141.3630   71.6770  228.0990 C   0  0  0  0  0  0  0  0  0  0  0  0
  141.1470   72.2010  226.8370 C   0  0  0  0  0  0  0  0  0  0  0  0
  140.6060   71.4030  225.8420 C   0  0  0  0  0  0  0  0  0  0  0  0
  140.3920   71.9080  224.6110 N   0  0  0  0  0  0  0  0  0  0  0  0
  138.8820   73.5810  223.0860 H   0  0  0  0  0  0  0  0  0  0  0  0
  138.2634   73.1603  220.2735 H   0  0  0  0  0  0  0  0  0  0  0  0
  138.3624   74.7365  221.1014 H   0  0  0  0  0  0  0  0  0  0  0  0
  142.8760   75.4559  221.3817 H   0  0  0  0  0  0  0  0  0  0  0  0
  142.7829   74.9719  219.6966 H   0  0  0  0  0  0  0  0  0  0  0  0
  143.1133   77.5765  220.3911 H   0  0  0  0  0  0  0  0  0  0  0  0
  142.1239   77.1881  218.9934 H   0  0  0  0  0  0  0  0  0  0  0  0
  140.2896   78.0602  220.1788 H   0  0  0  0  0  0  0  0  0  0  0  0
  141.0961   77.1367  223.4502 H   0  0  0  0  0  0  0  0  0  0  0  0
  141.8049   78.7760  225.2058 H   0  0  0  0  0  0  0  0  0  0  0  0
  142.5141   81.0511  224.4827 H   0  0  0  0  0  0  0  0  0  0  0  0
  141.8361   80.0874  220.3983 H   0  0  0  0  0  0  0  0  0  0  0  0
  140.5085   76.2464  222.4829 H   0  0  0  0  0  0  0  0  0  0  0  0
  139.2226   76.3709  221.2993 H   0  0  0  0  0  0  0  0  0  0  0  0
  139.0945   69.2592  222.9842 H   0  0  0  0  0  0  0  0  0  0  0  0
  139.4627   68.2444  225.2542 H   0  0  0  0  0  0  0  0  0  0  0  0
  140.2331   68.5015  227.5683 H   0  0  0  0  0  0  0  0  0  0  0  0
  141.2011   69.9349  229.3343 H   0  0  0  0  0  0  0  0  0  0  0  0
  141.7910   72.2985  228.8994 H   0  0  0  0  0  0  0  0  0  0  0  0
  141.4043   73.2491  226.6240 H   0  0  0  0  0  0  0  0  0  0  0  0
  1  2  2  0
  2  3  1  0
  3  4  1  0
  4  5  1  0
  5  6  2  0
  5  7  1  0
  7  8  1  0
  8  9  1  0
  9 10  1  0
 10 11  1  0
 11 12  2  0
 12 13  1  0
 13 14  2  0
 14 15  1  0
 15 16  2  0
 10 17  1  0
  2 18  1  0
 18 19  2  0
 19 20  1  0
 20 21  2  0
 21 22  1  0
 22 23  2  0
 23 24  1  0
 24 25  2  0
 25 26  1  0
 26 27  2  0
 17  7  1  0
 27 18  1  0
 16 11  1  0
 26 21  1  0
  3 28  1  0
  4 29  1  0
  4 30  1  0
  8 31  1  0
  8 32  1  0
  9 33  1  0
  9 34  1  0
 10 35  1  6
 12 36  1  0
 13 37  1  0
 14 38  1  0
 16 39  1  0
 17 40  1  0
 17 41  1  0
 19 42  1  0
 20 43  1  0
 22 44  1  0
 23 45  1  0
 24 46  1  0
 25 47  1  0
M  END
>  <smiles>  (39) 
O=C(NCC(=O)N1CC[C@H](c2cccnc2)C1)c1ccc2ccccc2n1

>  <score_type>  (39) 
oracle

>  <origin>  (39) 
autodockgpu

>  <m_score__min__energy>  (39) 
-9.0199999999999996

>  <m_primary>  (39) 
energy

>  <rmsd>  (39) 
2.1949457615995067

>  <m_score__min__rmsd>  (39) 
2.1949457615995067

>  <meeko>  (39) 
{"free_energy": -8.48, "intermolecular_energy": -9.97, "internal_energy": -1.21, "cluster_size": 42, "cluster_id": 1, "rank_in_cluster": 31}

>  <energy>  (39) 
-8.34

>  <cluster_rmsd>  (39) 
1.28

>  <cluster>  (39) 
1

$$$$

     RDKit          3D

 47 50  0  0  0  0  0  0  0  0999 V2000
  139.8250   71.1550  221.2120 O   0  0  0  0  0  0  0  0  0  0  0  0
  139.7630   71.8040  222.2960 C   0  0  0  0  0  0  0  0  0  0  0  0
  139.6050   73.2000  222.2850 N   0  0  0  0  0  0  0  0  0  0  0  0
  139.5020   73.9760  221.0610 C   0  0  0  0  0  0  0  0  0  0  0  0
  140.8890   74.3140  220.6210 C   0  0  0  0  0  0  0  0  0  0  0  0
  141.6280   73.4490  220.0810 O   0  0  0  0  0  0  0  0  0  0  0  0
  141.3410   75.6580  220.8390 N   0  0  0  0  0  0  0  0  0  0  0  0
  142.2630   76.4560  220.0930 C   0  0  0  0  0  0  0  0  0  0  0  0
  141.6160   77.8110  220.0570 C   0  0  0  0  0  0  0  0  0  0  0  0
  140.8580   77.8780  221.3450 C   0  0  2  0  0  0  0  0  0  0  0  0
  141.4300   78.9330  222.1960 C   0  0  0  0  0  0  0  0  0  0  0  0
  141.6440   80.1880  221.6200 C   0  0  0  0  0  0  0  0  0  0  0  0
  142.1800   81.2110  222.3820 C   0  0  0  0  0  0  0  0  0  0  0  0
  142.4840   80.9370  223.7040 C   0  0  0  0  0  0  0  0  0  0  0  0
  142.2700   79.7170  224.2420 N   0  0  0  0  0  0  0  0  0  0  0  0
  141.7460   78.7030  223.5080 C   0  0  0  0  0  0  0  0  0  0  0  0
  140.8980   76.5010  221.9520 C   0  0  0  0  0  0  0  0  0  0  0  0
  139.8590   71.0950  223.5870 C   0  0  0  0  0  0  0  0  0  0  0  0
  139.4560   69.7770  223.6910 C   0  0  0  0  0  0  0  0  0  0  0  0
  139.5560   69.1290  224.9270 C   0  0  0  0  0  0  0  0  0  0  0  0
  140.0610   69.8280  226.0270 C   0  0  0  0  0  0  0  0  0  0  0  0
  140.1740   69.2120  227.2680 C   0  0  0  0  0  0  0  0  0  0  0  0
  140.6790   69.9360  228.3320 C   0  0  0  0  0  0  0  0  0  0  0  0
  141.0740   71.2530  228.2040 C   0  0  0  0  0  0  0  0  0  0  0  0
  140.9600   71.8620  226.9660 C   0  0  0  0  0  0  0  0  0  0  0  0
  140.4570   71.1490  225.8900 C   0  0  0  0  0  0  0  0  0  0  0  0
  140.3430   71.7360  224.6830 N   0  0  0  0  0  0  0  0  0  0  0  0
  139.5580   73.6920  223.2070 H   0  0  0  0  0  0  0  0  0  0  0  0
  138.9958   73.3847  220.2838 H   0  0  0  0  0  0  0  0  0  0  0  0
  138.9178   74.8920  221.2330 H   0  0  0  0  0  0  0  0  0  0  0  0
  143.2395   76.5012  220.5973 H   0  0  0  0  0  0  0  0  0  0  0  0
  142.4603   76.0519  219.0891 H   0  0  0  0  0  0  0  0  0  0  0  0
  142.3743   78.6063  220.0066 H   0  0  0  0  0  0  0  0  0  0  0  0
  140.9722   77.9520  219.1763 H   0  0  0  0  0  0  0  0  0  0  0  0
  139.8026   78.1555  221.2068 H   0  0  0  0  0  0  0  0  0  0  0  0
  141.3873   80.3620  220.5646 H   0  0  0  0  0  0  0  0  0  0  0  0
  142.3583   82.2076  221.9519 H   0  0  0  0  0  0  0  0  0  0  0  0
  142.9106   81.7328  224.3322 H   0  0  0  0  0  0  0  0  0  0  0  0
  141.5782   77.7139  223.9592 H   0  0  0  0  0  0  0  0  0  0  0  0
  141.6122   76.4587  222.7876 H   0  0  0  0  0  0  0  0  0  0  0  0
  139.9317   76.1868  222.3734 H   0  0  0  0  0  0  0  0  0  0  0  0
  139.0616   69.2443  222.8131 H   0  0  0  0  0  0  0  0  0  0  0  0
  139.2405   68.0805  225.0319 H   0  0  0  0  0  0  0  0  0  0  0  0
  139.8663   68.1644  227.4014 H   0  0  0  0  0  0  0  0  0  0  0  0
  140.7692   69.4467  229.3131 H   0  0  0  0  0  0  0  0  0  0  0  0
  141.4709   71.8066  229.0677 H   0  0  0  0  0  0  0  0  0  0  0  0
  141.2682   72.9100  226.8369 H   0  0  0  0  0  0  0  0  0  0  0  0
  1  2  2  0
  2  3  1  0
  3  4  1  0
  4  5  1  0
  5  6  2  0
  5  7  1  0
  7  8  1  0
  8  9  1  0
  9 10  1  0
 10 11  1  0
 11 12  2  0
 12 13  1  0
 13 14  2  0
 14 15  1  0
 15 16  2  0
 10 17  1  0
  2 18  1  0
 18 19  2  0
 19 20  1  0
 20 21  2  0
 21 22  1  0
 22 23  2  0
 23 24  1  0
 24 25  2  0
 25 26  1  0
 26 27  2  0
 17  7  1  0
 27 18  1  0
 16 11  1  0
 26 21  1  0
  3 28  1  0
  4 29  1  0
  4 30  1  0
  8 31  1  0
  8 32  1  0
  9 33  1  0
  9 34  1  0
 10 35  1  6
 12 36  1  0
 13 37  1  0
 14 38  1  0
 16 39  1  0
 17 40  1  0
 17 41  1  0
 19 42  1  0
 20 43  1  0
 22 44  1  0
 23 45  1  0
 24 46  1  0
 25 47  1  0
M  END
>  <smiles>  (40) 
O=C(NCC(=O)N1CC[C@H](c2cccnc2)C1)c1ccc2ccccc2n1

>  <score_type>  (40) 
oracle

>  <origin>  (40) 
autodockgpu

>  <m_score__min__energy>  (40) 
-9.0199999999999996

>  <m_primary>  (40) 
energy

>  <rmsd>  (40) 
2.3679819411897256

>  <m_score__min__rmsd>  (40) 
2.3679819411897256

>  <meeko>  (40) 
{"free_energy": -8.73, "intermolecular_energy": -10.22, "internal_energy": -1.24, "cluster_size": 42, "cluster_id": 1, "rank_in_cluster": 13}

>  <energy>  (40) 
-8.34

>  <cluster_rmsd>  (40) 
1.26

>  <cluster>  (40) 
1

$$$$

     RDKit          3D

 47 50  0  0  0  0  0  0  0  0999 V2000
  141.0930   71.8470  221.4920 O   0  0  0  0  0  0  0  0  0  0  0  0
  140.3210   72.2230  222.4220 C   0  0  0  0  0  0  0  0  0  0  0  0
  139.5780   73.4100  222.2960 N   0  0  0  0  0  0  0  0  0  0  0  0
  139.6410   74.2640  221.1230 C   0  0  0  0  0  0  0  0  0  0  0  0
  138.5190   75.2450  221.2150 C   0  0  0  0  0  0  0  0  0  0  0  0
  137.3260   74.8870  221.0310 O   0  0  0  0  0  0  0  0  0  0  0  0
  138.8570   76.6060  221.5210 N   0  0  0  0  0  0  0  0  0  0  0  0
  138.2480   77.8280  221.0970 C   0  0  0  0  0  0  0  0  0  0  0  0
  138.2330   78.6700  222.3400 C   0  0  0  0  0  0  0  0  0  0  0  0
  139.4470   78.2210  223.0890 C   0  0  2  0  0  0  0  0  0  0  0  0
  140.4080   79.3320  223.1750 C   0  0  0  0  0  0  0  0  0  0  0  0
  141.6630   79.0640  223.7260 C   0  0  0  0  0  0  0  0  0  0  0  0
  142.6000   80.0790  223.8270 C   0  0  0  0  0  0  0  0  0  0  0  0
  142.2400   81.3340  223.3690 C   0  0  0  0  0  0  0  0  0  0  0  0
  141.0210   81.5720  222.8390 N   0  0  0  0  0  0  0  0  0  0  0  0
  140.0920   80.5880  222.7340 C   0  0  0  0  0  0  0  0  0  0  0  0
  139.9720   76.9990  222.3850 C   0  0  0  0  0  0  0  0  0  0  0  0
  140.1960   71.4150  223.6500 C   0  0  0  0  0  0  0  0  0  0  0  0
  139.5880   70.1750  223.6110 C   0  0  0  0  0  0  0  0  0  0  0  0
  139.4820   69.4300  224.7910 C   0  0  0  0  0  0  0  0  0  0  0  0
  139.9920   69.9570  225.9810 C   0  0  0  0  0  0  0  0  0  0  0  0
  139.9020   69.2410  227.1690 C   0  0  0  0  0  0  0  0  0  0  0  0
  140.4190   69.7950  228.3250 C   0  0  0  0  0  0  0  0  0  0  0  0
  141.0220   71.0380  228.3400 C   0  0  0  0  0  0  0  0  0  0  0  0
  141.1090   71.7470  227.1550 C   0  0  0  0  0  0  0  0  0  0  0  0
  140.5960   71.2040  225.9870 C   0  0  0  0  0  0  0  0  0  0  0  0
  140.6770   71.8890  224.8300 N   0  0  0  0  0  0  0  0  0  0  0  0
  138.9540   73.6790  223.0910 H   0  0  0  0  0  0  0  0  0  0  0  0
  140.6032   74.7965  221.0985 H   0  0  0  0  0  0  0  0  0  0  0  0
  139.5543   73.6645  220.2048 H   0  0  0  0  0  0  0  0  0  0  0  0
  138.8422   78.3081  220.3055 H   0  0  0  0  0  0  0  0  0  0  0  0
  137.2445   77.6785  220.6720 H   0  0  0  0  0  0  0  0  0  0  0  0
  138.2998   79.7391  222.0900 H   0  0  0  0  0  0  0  0  0  0  0  0
  137.3067   78.5536  222.9218 H   0  0  0  0  0  0  0  0  0  0  0  0
  139.2294   77.9427  224.1307 H   0  0  0  0  0  0  0  0  0  0  0  0
  141.9064   78.0508  224.0784 H   0  0  0  0  0  0  0  0  0  0  0  0
  143.5957   79.8938  224.2564 H   0  0  0  0  0  0  0  0  0  0  0  0
  142.9649   82.1585  223.4383 H   0  0  0  0  0  0  0  0  0  0  0  0
  139.1022   80.7967  222.3018 H   0  0  0  0  0  0  0  0  0  0  0  0
  140.8658   77.2396  221.7907 H   0  0  0  0  0  0  0  0  0  0  0  0
  140.2831   76.2026  223.0771 H   0  0  0  0  0  0  0  0  0  0  0  0
  139.1922   69.7783  222.6644 H   0  0  0  0  0  0  0  0  0  0  0  0
  139.0024   68.4401  224.7821 H   0  0  0  0  0  0  0  0  0  0  0  0
  139.4268   68.2491  227.1889 H   0  0  0  0  0  0  0  0  0  0  0  0
  140.3480   69.2272  229.2645 H   0  0  0  0  0  0  0  0  0  0  0  0
  141.4246   71.4554  229.2747 H   0  0  0  0  0  0  0  0  0  0  0  0
  141.5840   72.7390  227.1396 H   0  0  0  0  0  0  0  0  0  0  0  0
  1  2  2  0
  2  3  1  0
  3  4  1  0
  4  5  1  0
  5  6  2  0
  5  7  1  0
  7  8  1  0
  8  9  1  0
  9 10  1  0
 10 11  1  0
 11 12  2  0
 12 13  1  0
 13 14  2  0
 14 15  1  0
 15 16  2  0
 10 17  1  0
  2 18  1  0
 18 19  2  0
 19 20  1  0
 20 21  2  0
 21 22  1  0
 22 23  2  0
 23 24  1  0
 24 25  2  0
 25 26  1  0
 26 27  2  0
 17  7  1  0
 27 18  1  0
 16 11  1  0
 26 21  1  0
  3 28  1  0
  4 29  1  0
  4 30  1  0
  8 31  1  0
  8 32  1  0
  9 33  1  0
  9 34  1  0
 10 35  1  1
 12 36  1  0
 13 37  1  0
 14 38  1  0
 16 39  1  0
 17 40  1  0
 17 41  1  0
 19 42  1  0
 20 43  1  0
 22 44  1  0
 23 45  1  0
 24 46  1  0
 25 47  1  0
M  END
>  <smiles>  (41) 
O=C(NCC(=O)N1CC[C@H](c2cccnc2)C1)c1ccc2ccccc2n1

>  <score_type>  (41) 
oracle

>  <origin>  (41) 
autodockgpu

>  <m_score__min__energy>  (41) 
-9.0199999999999996

>  <m_primary>  (41) 
energy

>  <rmsd>  (41) 
3.303117423057015

>  <m_score__min__rmsd>  (41) 
3.303117423057015

>  <meeko>  (41) 
{"free_energy": -8.49, "intermolecular_energy": -9.98, "internal_energy": -1.08, "cluster_size": 42, "cluster_id": 1, "rank_in_cluster": 29}

>  <energy>  (41) 
-8.27

>  <cluster_rmsd>  (41) 
1.14

>  <cluster>  (41) 
1

$$$$

     RDKit          3D

 47 50  0  0  0  0  0  0  0  0999 V2000
  140.1590   71.2470  221.2010 O   0  0  0  0  0  0  0  0  0  0  0  0
  139.8880   71.8770  222.2640 C   0  0  0  0  0  0  0  0  0  0  0  0
  139.5310   73.2350  222.2180 N   0  0  0  0  0  0  0  0  0  0  0  0
  139.4480   73.9910  220.9800 C   0  0  0  0  0  0  0  0  0  0  0  0
  140.8420   74.2960  220.5400 C   0  0  0  0  0  0  0  0  0  0  0  0
  141.5510   73.4220  219.9770 O   0  0  0  0  0  0  0  0  0  0  0  0
  141.3370   75.6200  220.7870 N   0  0  0  0  0  0  0  0  0  0  0  0
  142.3570   76.3660  220.1200 C   0  0  0  0  0  0  0  0  0  0  0  0
  141.7810   77.7490  220.0180 C   0  0  0  0  0  0  0  0  0  0  0  0
  140.9180   77.8650  221.2340 C   0  0  2  0  0  0  0  0  0  0  0  0
  141.4620   78.9020  222.1230 C   0  0  0  0  0  0  0  0  0  0  0  0
  141.6930   80.1690  221.5810 C   0  0  0  0  0  0  0  0  0  0  0  0
  142.2040   81.1760  222.3810 C   0  0  0  0  0  0  0  0  0  0  0  0
  142.4690   80.8740  223.7050 C   0  0  0  0  0  0  0  0  0  0  0  0
  142.2390   79.6430  224.2100 N   0  0  0  0  0  0  0  0  0  0  0  0
  141.7390   78.6440  223.4390 C   0  0  0  0  0  0  0  0  0  0  0  0
  140.8390   76.4950  221.8510 C   0  0  0  0  0  0  0  0  0  0  0  0
  139.9480   71.1870  223.5680 C   0  0  0  0  0  0  0  0  0  0  0  0
  139.5160   69.8800  223.6850 C   0  0  0  0  0  0  0  0  0  0  0  0
  139.5820   69.2490  224.9330 C   0  0  0  0  0  0  0  0  0  0  0  0
  140.0840   69.9550  226.0300 C   0  0  0  0  0  0  0  0  0  0  0  0
  140.1630   69.3560  227.2820 C   0  0  0  0  0  0  0  0  0  0  0  0
  140.6650   70.0860  228.3430 C   0  0  0  0  0  0  0  0  0  0  0  0
  141.0900   71.3930  228.2010 C   0  0  0  0  0  0  0  0  0  0  0  0
  141.0090   71.9850  226.9530 C   0  0  0  0  0  0  0  0  0  0  0  0
  140.5090   71.2650  225.8800 C   0  0  0  0  0  0  0  0  0  0  0  0
  140.4270   71.8350  224.6610 N   0  0  0  0  0  0  0  0  0  0  0  0
  139.3160   73.7130  223.1230 H   0  0  0  0  0  0  0  0  0  0  0  0
  138.9343   73.3954  220.2110 H   0  0  0  0  0  0  0  0  0  0  0  0
  138.8804   74.9206  221.1336 H   0  0  0  0  0  0  0  0  0  0  0  0
  143.2867   76.3711  220.7080 H   0  0  0  0  0  0  0  0  0  0  0  0
  142.6218   75.9423  219.1400 H   0  0  0  0  0  0  0  0  0  0  0  0
  142.5777   78.5074  220.0288 H   0  0  0  0  0  0  0  0  0  0  0  0
  141.2240   77.9106  219.0833 H   0  0  0  0  0  0  0  0  0  0  0  0
  139.8926   78.1891  221.0028 H   0  0  0  0  0  0  0  0  0  0  0  0
  141.4694   80.3653  220.5220 H   0  0  0  0  0  0  0  0  0  0  0  0
  142.3930   82.1820  221.9781 H   0  0  0  0  0  0  0  0  0  0  0  0
  142.8771   81.6559  224.3623 H   0  0  0  0  0  0  0  0  0  0  0  0
  141.5596   77.6453  223.8636 H   0  0  0  0  0  0  0  0  0  0  0  0
  141.4745   76.4283  222.7464 H   0  0  0  0  0  0  0  0  0  0  0  0
  139.8256   76.2312  222.1878 H   0  0  0  0  0  0  0  0  0  0  0  0
  139.1252   69.3420  222.8088 H   0  0  0  0  0  0  0  0  0  0  0  0
  139.2426   68.2091  225.0490 H   0  0  0  0  0  0  0  0  0  0  0  0
  139.8312   68.3172  227.4261 H   0  0  0  0  0  0  0  0  0  0  0  0
  140.7282   69.6107  229.3330 H   0  0  0  0  0  0  0  0  0  0  0  0
  141.4847   71.9515  229.0625 H   0  0  0  0  0  0  0  0  0  0  0  0
  141.3407   73.0244  226.8131 H   0  0  0  0  0  0  0  0  0  0  0  0
  1  2  2  0
  2  3  1  0
  3  4  1  0
  4  5  1  0
  5  6  2  0
  5  7  1  0
  7  8  1  0
  8  9  1  0
  9 10  1  0
 10 11  1  0
 11 12  2  0
 12 13  1  0
 13 14  2  0
 14 15  1  0
 15 16  2  0
 10 17  1  0
  2 18  1  0
 18 19  2  0
 19 20  1  0
 20 21  2  0
 21 22  1  0
 22 23  2  0
 23 24  1  0
 24 25  2  0
 25 26  1  0
 26 27  2  0
 17  7  1  0
 27 18  1  0
 16 11  1  0
 26 21  1  0
  3 28  1  0
  4 29  1  0
  4 30  1  0
  8 31  1  0
  8 32  1  0
  9 33  1  0
  9 34  1  0
 10 35  1  6
 12 36  1  0
 13 37  1  0
 14 38  1  0
 16 39  1  0
 17 40  1  0
 17 41  1  0
 19 42  1  0
 20 43  1  0
 22 44  1  0
 23 45  1  0
 24 46  1  0
 25 47  1  0
M  END
>  <smiles>  (42) 
O=C(NCC(=O)N1CC[C@H](c2cccnc2)C1)c1ccc2ccccc2n1

>  <score_type>  (42) 
oracle

>  <origin>  (42) 
autodockgpu

>  <m_score__min__energy>  (42) 
-9.0199999999999996

>  <m_primary>  (42) 
energy

>  <rmsd>  (42) 
2.3531798635936174

>  <m_score__min__rmsd>  (42) 
2.3531798635936174

>  <meeko>  (42) 
{"free_energy": -8.77, "intermolecular_energy": -10.26, "internal_energy": -1.18, "cluster_size": 42, "cluster_id": 1, "rank_in_cluster": 11}

>  <energy>  (42) 
-8.23

>  <cluster_rmsd>  (42) 
1.37

>  <cluster>  (42) 
1

$$$$

     RDKit          3D

 47 50  0  0  0  0  0  0  0  0999 V2000
  139.5960   71.1890  221.2650 O   0  0  0  0  0  0  0  0  0  0  0  0
  139.6440   71.8430  222.3460 C   0  0  0  0  0  0  0  0  0  0  0  0
  139.5370   73.2440  222.3380 N   0  0  0  0  0  0  0  0  0  0  0  0
  139.3680   74.0190  221.1220 C   0  0  0  0  0  0  0  0  0  0  0  0
  140.7260   74.2850  220.5600 C   0  0  0  0  0  0  0  0  0  0  0  0
  141.3630   73.3870  219.9490 O   0  0  0  0  0  0  0  0  0  0  0  0
  141.2720   75.5990  220.7480 N   0  0  0  0  0  0  0  0  0  0  0  0
  142.3780   76.2410  220.1080 C   0  0  0  0  0  0  0  0  0  0  0  0
  141.8850   77.6380  219.8610 C   0  0  0  0  0  0  0  0  0  0  0  0
  140.9430   77.8890  220.9950 C   0  0  2  0  0  0  0  0  0  0  0  0
  141.4760   78.9630  221.8460 C   0  0  0  0  0  0  0  0  0  0  0  0
  141.6970   78.6750  223.1960 C   0  0  0  0  0  0  0  0  0  0  0  0
  142.1990   79.6550  224.0340 C   0  0  0  0  0  0  0  0  0  0  0  0
  142.4610   80.8980  223.4860 C   0  0  0  0  0  0  0  0  0  0  0  0
  142.2400   81.1570  222.1800 N   0  0  0  0  0  0  0  0  0  0  0  0
  141.7480   80.2070  221.3440 C   0  0  0  0  0  0  0  0  0  0  0  0
  140.7450   76.5760  221.7030 C   0  0  0  0  0  0  0  0  0  0  0  0
  139.8140   71.1360  223.6310 C   0  0  0  0  0  0  0  0  0  0  0  0
  139.4880   69.7980  223.7380 C   0  0  0  0  0  0  0  0  0  0  0  0
  139.6580   69.1510  224.9680 C   0  0  0  0  0  0  0  0  0  0  0  0
  140.1540   69.8730  226.0570 C   0  0  0  0  0  0  0  0  0  0  0  0
  140.3350   69.2590  227.2920 C   0  0  0  0  0  0  0  0  0  0  0  0
  140.8280   70.0060  228.3450 C   0  0  0  0  0  0  0  0  0  0  0  0
  141.1470   71.3440  228.2130 C   0  0  0  0  0  0  0  0  0  0  0  0
  140.9650   71.9500  226.9820 C   0  0  0  0  0  0  0  0  0  0  0  0
  140.4720   71.2140  225.9170 C   0  0  0  0  0  0  0  0  0  0  0  0
  140.2920   71.7980  224.7160 N   0  0  0  0  0  0  0  0  0  0  0  0
  139.5820   73.7410  223.2580 H   0  0  0  0  0  0  0  0  0  0  0  0
  138.7670   73.4512  220.3964 H   0  0  0  0  0  0  0  0  0  0  0  0
  138.8483   74.9644  221.3370 H   0  0  0  0  0  0  0  0  0  0  0  0
  143.2611   76.2470  220.7638 H   0  0  0  0  0  0  0  0  0  0  0  0
  142.6915   75.7304  219.1855 H   0  0  0  0  0  0  0  0  0  0  0  0
  142.7180   78.3562  219.8771 H   0  0  0  0  0  0  0  0  0  0  0  0
  141.4068   77.7528  218.8771 H   0  0  0  0  0  0  0  0  0  0  0  0
  139.9567   78.2441  220.6616 H   0  0  0  0  0  0  0  0  0  0  0  0
  141.4727   77.6730  223.5906 H   0  0  0  0  0  0  0  0  0  0  0  0
  142.3834   79.4527  225.0994 H   0  0  0  0  0  0  0  0  0  0  0  0
  142.8594   81.6952  224.1308 H   0  0  0  0  0  0  0  0  0  0  0  0
  141.5711   80.4331  220.2821 H   0  0  0  0  0  0  0  0  0  0  0  0
  141.3083   76.5481  222.6474 H   0  0  0  0  0  0  0  0  0  0  0  0
  139.6969   76.3880  221.9788 H   0  0  0  0  0  0  0  0  0  0  0  0
  139.0999   69.2479  222.8681 H   0  0  0  0  0  0  0  0  0  0  0  0
  139.4040   68.0862  225.0760 H   0  0  0  0  0  0  0  0  0  0  0  0
  140.0896   68.1954  227.4283 H   0  0  0  0  0  0  0  0  0  0  0  0
  140.9713   69.5191  229.3209 H   0  0  0  0  0  0  0  0  0  0  0  0
  141.5373   71.9154  229.0681 H   0  0  0  0  0  0  0  0  0  0  0  0
  141.2113   73.0139  226.8496 H   0  0  0  0  0  0  0  0  0  0  0  0
  1  2  2  0
  2  3  1  0
  3  4  1  0
  4  5  1  0
  5  6  2  0
  5  7  1  0
  7  8  1  0
  8  9  1  0
  9 10  1  0
 10 11  1  0
 11 12  2  0
 12 13  1  0
 13 14  2  0
 14 15  1  0
 15 16  2  0
 10 17  1  0
  2 18  1  0
 18 19  2  0
 19 20  1  0
 20 21  2  0
 21 22  1  0
 22 23  2  0
 23 24  1  0
 24 25  2  0
 25 26  1  0
 26 27  2  0
 17  7  1  0
 27 18  1  0
 16 11  1  0
 26 21  1  0
  3 28  1  0
  4 29  1  0
  4 30  1  0
  8 31  1  0
  8 32  1  0
  9 33  1  0
  9 34  1  0
 10 35  1  6
 12 36  1  0
 13 37  1  0
 14 38  1  0
 16 39  1  0
 17 40  1  0
 17 41  1  0
 19 42  1  0
 20 43  1  0
 22 44  1  0
 23 45  1  0
 24 46  1  0
 25 47  1  0
M  END
>  <smiles>  (43) 
O=C(NCC(=O)N1CC[C@H](c2cccnc2)C1)c1ccc2ccccc2n1

>  <score_type>  (43) 
oracle

>  <origin>  (43) 
autodockgpu

>  <m_score__min__energy>  (43) 
-9.0199999999999996

>  <m_primary>  (43) 
energy

>  <rmsd>  (43) 
2.273943634848716

>  <m_score__min__rmsd>  (43) 
2.273943634848716

>  <meeko>  (43) 
{"free_energy": -8.62, "intermolecular_energy": -10.12, "internal_energy": -1.28, "cluster_size": 42, "cluster_id": 1, "rank_in_cluster": 21}

>  <energy>  (43) 
-8.78

>  <cluster_rmsd>  (43) 
0.0

>  <cluster>  (43) 
2

$$$$

     RDKit          3D

 47 50  0  0  0  0  0  0  0  0999 V2000
  138.6280   70.6040  221.4930 O   0  0  0  0  0  0  0  0  0  0  0  0
  138.9720   71.3380  222.4650 C   0  0  0  0  0  0  0  0  0  0  0  0
  138.9710   72.7380  222.3370 N   0  0  0  0  0  0  0  0  0  0  0  0
  138.5870   73.4220  221.1150 C   0  0  0  0  0  0  0  0  0  0  0  0
  138.3180   74.8500  221.4610 C   0  0  0  0  0  0  0  0  0  0  0  0
  137.1410   75.2860  221.5550 O   0  0  0  0  0  0  0  0  0  0  0  0
  139.4540   75.7000  221.6790 N   0  0  0  0  0  0  0  0  0  0  0  0
  140.8520   75.4100  221.6170 C   0  0  0  0  0  0  0  0  0  0  0  0
  141.4340   76.6020  220.9130 C   0  0  0  0  0  0  0  0  0  0  0  0
  140.5370   77.7280  221.3210 C   0  0  2  0  0  0  0  0  0  0  0  0
  141.2990   78.6940  222.1260 C   0  0  0  0  0  0  0  0  0  0  0  0
  141.8240   79.8130  221.4750 C   0  0  0  0  0  0  0  0  0  0  0  0
  142.5480   80.7500  222.1940 C   0  0  0  0  0  0  0  0  0  0  0  0
  142.7210   80.5270  223.5490 C   0  0  0  0  0  0  0  0  0  0  0  0
  142.2050   79.4390  224.1590 N   0  0  0  0  0  0  0  0  0  0  0  0
  141.4940   78.5110  223.4690 C   0  0  0  0  0  0  0  0  0  0  0  0
  139.3590   77.1190  222.0310 C   0  0  0  0  0  0  0  0  0  0  0  0
  139.3780   70.7260  223.7450 C   0  0  0  0  0  0  0  0  0  0  0  0
  139.2200   69.3690  223.9500 C   0  0  0  0  0  0  0  0  0  0  0  0
  139.6130   68.8140  225.1730 C   0  0  0  0  0  0  0  0  0  0  0  0
  140.1550   69.6440  226.1580 C   0  0  0  0  0  0  0  0  0  0  0  0
  140.5550   69.1240  227.3840 C   0  0  0  0  0  0  0  0  0  0  0  0
  141.0870   69.9770  228.3320 C   0  0  0  0  0  0  0  0  0  0  0  0
  141.2350   71.3310  228.1040 C   0  0  0  0  0  0  0  0  0  0  0  0
  140.8350   71.8450  226.8830 C   0  0  0  0  0  0  0  0  0  0  0  0
  140.3000   71.0020  225.9210 C   0  0  0  0  0  0  0  0  0  0  0  0
  139.9090   71.4960  224.7300 N   0  0  0  0  0  0  0  0  0  0  0  0
  139.2630   73.3020  223.1690 H   0  0  0  0  0  0  0  0  0  0  0  0
  139.4027   73.3617  220.3794 H   0  0  0  0  0  0  0  0  0  0  0  0
  137.6922   72.9559  220.6767 H   0  0  0  0  0  0  0  0  0  0  0  0
  141.2758   75.3057  222.6267 H   0  0  0  0  0  0  0  0  0  0  0  0
  141.0677   74.4633  221.1000 H   0  0  0  0  0  0  0  0  0  0  0  0
  142.4677   76.7853  221.2413 H   0  0  0  0  0  0  0  0  0  0  0  0
  141.4836   76.4704  219.8220 H   0  0  0  0  0  0  0  0  0  0  0  0
  140.1533   78.3018  220.4645 H   0  0  0  0  0  0  0  0  0  0  0  0
  141.6631   79.9496  220.3954 H   0  0  0  0  0  0  0  0  0  0  0  0
  142.9706   81.6401  221.7051 H   0  0  0  0  0  0  0  0  0  0  0  0
  143.2932   81.2544  224.1435 H   0  0  0  0  0  0  0  0  0  0  0  0
  141.0820   77.6280  223.9795 H   0  0  0  0  0  0  0  0  0  0  0  0
  139.4370   77.2618  223.1189 H   0  0  0  0  0  0  0  0  0  0  0  0
  138.3993   77.5722  221.7420 H   0  0  0  0  0  0  0  0  0  0  0  0
  138.7907   68.7329  223.1619 H   0  0  0  0  0  0  0  0  0  0  0  0
  139.4965   67.7358  225.3571 H   0  0  0  0  0  0  0  0  0  0  0  0
  140.4495   68.0498  227.5960 H   0  0  0  0  0  0  0  0  0  0  0  0
  141.4033   69.5636  229.3010 H   0  0  0  0  0  0  0  0  0  0  0  0
  141.6619   71.9872  228.8768 H   0  0  0  0  0  0  0  0  0  0  0  0
  140.9413   72.9201  226.6761 H   0  0  0  0  0  0  0  0  0  0  0  0
  1  2  2  0
  2  3  1  0
  3  4  1  0
  4  5  1  0
  5  6  2  0
  5  7  1  0
  7  8  1  0
  8  9  1  0
  9 10  1  0
 10 11  1  0
 11 12  2  0
 12 13  1  0
 13 14  2  0
 14 15  1  0
 15 16  2  0
 10 17  1  0
  2 18  1  0
 18 19  2  0
 19 20  1  0
 20 21  2  0
 21 22  1  0
 22 23  2  0
 23 24  1  0
 24 25  2  0
 25 26  1  0
 26 27  2  0
 17  7  1  0
 27 18  1  0
 16 11  1  0
 26 21  1  0
  3 28  1  0
  4 29  1  0
  4 30  1  0
  8 31  1  0
  8 32  1  0
  9 33  1  0
  9 34  1  0
 10 35  1  6
 12 36  1  0
 13 37  1  0
 14 38  1  0
 16 39  1  0
 17 40  1  0
 17 41  1  0
 19 42  1  0
 20 43  1  0
 22 44  1  0
 23 45  1  0
 24 46  1  0
 25 47  1  0
M  END
>  <smiles>  (44) 
O=C(NCC(=O)N1CC[C@H](c2cccnc2)C1)c1ccc2ccccc2n1

>  <score_type>  (44) 
oracle

>  <origin>  (44) 
autodockgpu

>  <m_score__min__energy>  (44) 
-9.0199999999999996

>  <m_primary>  (44) 
energy

>  <rmsd>  (44) 
2.4334038040567147

>  <m_score__min__rmsd>  (44) 
2.4334038040567147

>  <meeko>  (44) 
{"free_energy": -8.48, "intermolecular_energy": -9.97, "internal_energy": -1.34, "cluster_size": 42, "cluster_id": 1, "rank_in_cluster": 32}

>  <energy>  (44) 
-8.66

>  <cluster_rmsd>  (44) 
1.36

>  <cluster>  (44) 
2

$$$$

     RDKit          3D

 47 50  0  0  0  0  0  0  0  0999 V2000
  137.3990   75.9950  222.4790 O   0  0  0  0  0  0  0  0  0  0  0  0
  138.6480   76.1880  222.4430 C   0  0  0  0  0  0  0  0  0  0  0  0
  139.5250   75.1320  222.1410 N   0  0  0  0  0  0  0  0  0  0  0  0
  139.0710   73.7810  221.8570 C   0  0  0  0  0  0  0  0  0  0  0  0
  140.1330   72.8390  222.3200 C   0  0  0  0  0  0  0  0  0  0  0  0
  141.2920   72.8740  221.8280 O   0  0  0  0  0  0  0  0  0  0  0  0
  139.7790   71.8960  223.3420 N   0  0  0  0  0  0  0  0  0  0  0  0
  138.5600   71.1800  223.5580 C   0  0  0  0  0  0  0  0  0  0  0  0
  139.0180   69.8000  223.9310 C   0  0  0  0  0  0  0  0  0  0  0  0
  140.3220   70.0330  224.6250 C   0  0  2  0  0  0  0  0  0  0  0  0
  140.2050   69.6300  226.0350 C   0  0  0  0  0  0  0  0  0  0  0  0
  140.2980   70.6300  227.0070 C   0  0  0  0  0  0  0  0  0  0  0  0
  140.1920   70.2980  228.3460 C   0  0  0  0  0  0  0  0  0  0  0  0
  139.9970   68.9650  228.6650 C   0  0  0  0  0  0  0  0  0  0  0  0
  139.9110   68.0140  227.7110 N   0  0  0  0  0  0  0  0  0  0  0  0
  140.0120   68.3230  226.3930 C   0  0  0  0  0  0  0  0  0  0  0  0
  140.6780   71.4800  224.4200 C   0  0  0  0  0  0  0  0  0  0  0  0
  139.1970   77.5300  222.7190 C   0  0  0  0  0  0  0  0  0  0  0  0
  138.3490   78.6020  222.9230 C   0  0  0  0  0  0  0  0  0  0  0  0
  138.8960   79.8630  223.1820 C   0  0  0  0  0  0  0  0  0  0  0  0
  140.2850   80.0110  223.2290 C   0  0  0  0  0  0  0  0  0  0  0  0
  140.8590   81.2510  223.4840 C   0  0  0  0  0  0  0  0  0  0  0  0
  142.2360   81.3570  223.5220 C   0  0  0  0  0  0  0  0  0  0  0  0
  143.0640   80.2710  223.3140 C   0  0  0  0  0  0  0  0  0  0  0  0
  142.4880   79.0380  223.0600 C   0  0  0  0  0  0  0  0  0  0  0  0
  141.1090   78.9160  223.0190 C   0  0  0  0  0  0  0  0  0  0  0  0
  140.5420   77.7190  222.7720 N   0  0  0  0  0  0  0  0  0  0  0  0
  140.5500   75.3400  222.1230 H   0  0  0  0  0  0  0  0  0  0  0  0
  138.1322   73.5805  222.3940 H   0  0  0  0  0  0  0  0  0  0  0  0
  138.8866   73.6547  220.7799 H   0  0  0  0  0  0  0  0  0  0  0  0
  137.9780   71.6338  224.3737 H   0  0  0  0  0  0  0  0  0  0  0  0
  137.9006   71.1864  222.6776 H   0  0  0  0  0  0  0  0  0  0  0  0
  138.2960   69.3163  224.6054 H   0  0  0  0  0  0  0  0  0  0  0  0
  139.1119   69.1331  223.0613 H   0  0  0  0  0  0  0  0  0  0  0  0
  141.1407   69.4234  224.2149 H   0  0  0  0  0  0  0  0  0  0  0  0
  140.4549   71.6771  226.7086 H   0  0  0  0  0  0  0  0  0  0  0  0
  140.2603   71.0666  229.1300 H   0  0  0  0  0  0  0  0  0  0  0  0
  139.9100   68.6737  229.7221 H   0  0  0  0  0  0  0  0  0  0  0  0
  139.9400   67.5373  225.6266 H   0  0  0  0  0  0  0  0  0  0  0  0
  140.4952   72.0645  225.3337 H   0  0  0  0  0  0  0  0  0  0  0  0
  141.7403   71.6330  224.1791 H   0  0  0  0  0  0  0  0  0  0  0  0
  137.2583   78.4654  222.8822 H   0  0  0  0  0  0  0  0  0  0  0  0
  138.2393   80.7299  223.3471 H   0  0  0  0  0  0  0  0  0  0  0  0
  140.2263   82.1348  223.6530 H   0  0  0  0  0  0  0  0  0  0  0  0
  142.6881   82.3391  223.7247 H   0  0  0  0  0  0  0  0  0  0  0  0
  144.1577   80.3835  223.3494 H   0  0  0  0  0  0  0  0  0  0  0  0
  143.1244   78.1568  222.8911 H   0  0  0  0  0  0  0  0  0  0  0  0
  1  2  2  0
  2  3  1  0
  3  4  1  0
  4  5  1  0
  5  6  2  0
  5  7  1  0
  7  8  1  0
  8  9  1  0
  9 10  1  0
 10 11  1  0
 11 12  2  0
 12 13  1  0
 13 14  2  0
 14 15  1  0
 15 16  2  0
 10 17  1  0
  2 18  1  0
 18 19  2  0
 19 20  1  0
 20 21  2  0
 21 22  1  0
 22 23  2  0
 23 24  1  0
 24 25  2  0
 25 26  1  0
 26 27  2  0
 17  7  1  0
 27 18  1  0
 16 11  1  0
 26 21  1  0
  3 28  1  0
  4 29  1  0
  4 30  1  0
  8 31  1  0
  8 32  1  0
  9 33  1  0
  9 34  1  0
 10 35  1  6
 12 36  1  0
 13 37  1  0
 14 38  1  0
 16 39  1  0
 17 40  1  0
 17 41  1  0
 19 42  1  0
 20 43  1  0
 22 44  1  0
 23 45  1  0
 24 46  1  0
 25 47  1  0
M  END
>  <smiles>  (45) 
O=C(NCC(=O)N1CC[C@H](c2cccnc2)C1)c1ccc2ccccc2n1

>  <score_type>  (45) 
oracle

>  <origin>  (45) 
autodockgpu

>  <m_score__min__energy>  (45) 
-9.0199999999999996

>  <m_primary>  (45) 
energy

>  <rmsd>  (45) 
8.657346112510446

>  <m_score__min__rmsd>  (45) 
8.657346112510446

>  <meeko>  (45) 
{"free_energy": -8.15, "intermolecular_energy": -9.64, "internal_energy": -1.48, "cluster_size": 7, "cluster_id": 2, "rank_in_cluster": 5}

>  <energy>  (45) 
-8.66

>  <cluster_rmsd>  (45) 
1.35

>  <cluster>  (45) 
2

$$$$

     RDKit          3D

 47 50  0  0  0  0  0  0  0  0999 V2000
  140.6520   74.5070  222.2350 O   0  0  0  0  0  0  0  0  0  0  0  0
  139.7330   75.3310  221.9570 C   0  0  0  0  0  0  0  0  0  0  0  0
  138.5840   74.9100  221.2650 N   0  0  0  0  0  0  0  0  0  0  0  0
  138.3760   73.5390  220.8340 C   0  0  0  0  0  0  0  0  0  0  0  0
  137.7520   72.7960  221.9690 C   0  0  0  0  0  0  0  0  0  0  0  0
  136.5390   72.9600  222.2640 O   0  0  0  0  0  0  0  0  0  0  0  0
  138.5890   71.8940  222.7060 N   0  0  0  0  0  0  0  0  0  0  0  0
  139.9590   71.5350  222.5110 C   0  0  0  0  0  0  0  0  0  0  0  0
  140.5240   71.5100  223.9030 C   0  0  0  0  0  0  0  0  0  0  0  0
  139.3640   71.0950  224.7500 C   0  0  2  0  0  0  0  0  0  0  0  0
  139.6430   69.7820  225.3530 C   0  0  0  0  0  0  0  0  0  0  0  0
  140.6470   69.7120  226.3210 C   0  0  0  0  0  0  0  0  0  0  0  0
  140.9440   68.4980  226.9160 C   0  0  0  0  0  0  0  0  0  0  0  0
  140.2180   67.3900  226.5150 C   0  0  0  0  0  0  0  0  0  0  0  0
  139.2500   67.4800  225.5770 N   0  0  0  0  0  0  0  0  0  0  0  0
  138.9470   68.6620  224.9840 C   0  0  0  0  0  0  0  0  0  0  0  0
  138.1420   71.1280  223.8730 C   0  0  0  0  0  0  0  0  0  0  0  0
  139.8620   76.7450  222.3570 C   0  0  0  0  0  0  0  0  0  0  0  0
  138.7350   77.5090  222.5930 C   0  0  0  0  0  0  0  0  0  0  0  0
  138.8860   78.8480  222.9710 C   0  0  0  0  0  0  0  0  0  0  0  0
  140.1710   79.3820  223.1010 C   0  0  0  0  0  0  0  0  0  0  0  0
  140.3540   80.7080  223.4750 C   0  0  0  0  0  0  0  0  0  0  0  0
  141.6400   81.1990  223.5930 C   0  0  0  0  0  0  0  0  0  0  0  0
  142.7520   80.4160  223.3510 C   0  0  0  0  0  0  0  0  0  0  0  0
  142.5650   79.0970  222.9790 C   0  0  0  0  0  0  0  0  0  0  0  0
  141.2810   78.5900  222.8570 C   0  0  0  0  0  0  0  0  0  0  0  0
  141.0920   77.3060  222.4950 N   0  0  0  0  0  0  0  0  0  0  0  0
  137.8510   75.6280  221.0590 H   0  0  0  0  0  0  0  0  0  0  0  0
  137.7080   73.5182  219.9603 H   0  0  0  0  0  0  0  0  0  0  0  0
  139.3321   73.0754  220.5493 H   0  0  0  0  0  0  0  0  0  0  0  0
  140.0413   70.5459  222.0367 H   0  0  0  0  0  0  0  0  0  0  0  0
  140.4916   72.2327  221.8480 H   0  0  0  0  0  0  0  0  0  0  0  0
  141.3456   70.7826  223.9797 H   0  0  0  0  0  0  0  0  0  0  0  0
  140.9490   72.4778  224.2076 H   0  0  0  0  0  0  0  0  0  0  0  0
  139.1884   71.7741  225.5974 H   0  0  0  0  0  0  0  0  0  0  0  0
  141.1998   70.6182  226.6096 H   0  0  0  0  0  0  0  0  0  0  0  0
  141.7300   68.4167  227.6812 H   0  0  0  0  0  0  0  0  0  0  0  0
  140.4344   66.4126  226.9710 H   0  0  0  0  0  0  0  0  0  0  0  0
  138.1568   68.7196  224.2209 H   0  0  0  0  0  0  0  0  0  0  0  0
  137.8359   70.1116  223.5843 H   0  0  0  0  0  0  0  0  0  0  0  0
  137.2658   71.5701  224.3698 H   0  0  0  0  0  0  0  0  0  0  0  0
  137.7320   77.0703  222.4852 H   0  0  0  0  0  0  0  0  0  0  0  0
  138.0022   79.4739  223.1638 H   0  0  0  0  0  0  0  0  0  0  0  0
  139.4882   81.3566  223.6740 H   0  0  0  0  0  0  0  0  0  0  0  0
  141.7832   82.2485  223.8896 H   0  0  0  0  0  0  0  0  0  0  0  0
  143.7650   80.8327  223.4520 H   0  0  0  0  0  0  0  0  0  0  0  0
  143.4335   78.4519  222.7804 H   0  0  0  0  0  0  0  0  0  0  0  0
  1  2  2  0
  2  3  1  0
  3  4  1  0
  4  5  1  0
  5  6  2  0
  5  7  1  0
  7  8  1  0
  8  9  1  0
  9 10  1  0
 10 11  1  0
 11 12  2  0
 12 13  1  0
 13 14  2  0
 14 15  1  0
 15 16  2  0
 10 17  1  0
  2 18  1  0
 18 19  2  0
 19 20  1  0
 20 21  2  0
 21 22  1  0
 22 23  2  0
 23 24  1  0
 24 25  2  0
 25 26  1  0
 26 27  2  0
 17  7  1  0
 27 18  1  0
 16 11  1  0
 26 21  1  0
  3 28  1  0
  4 29  1  0
  4 30  1  0
  8 31  1  0
  8 32  1  0
  9 33  1  0
  9 34  1  0
 10 35  1  1
 12 36  1  0
 13 37  1  0
 14 38  1  0
 16 39  1  0
 17 40  1  0
 17 41  1  0
 19 42  1  0
 20 43  1  0
 22 44  1  0
 23 45  1  0
 24 46  1  0
 25 47  1  0
M  END
>  <smiles>  (46) 
O=C(NCC(=O)N1CC[C@H](c2cccnc2)C1)c1ccc2ccccc2n1

>  <score_type>  (46) 
oracle

>  <origin>  (46) 
autodockgpu

>  <m_score__min__energy>  (46) 
-9.0199999999999996

>  <m_primary>  (46) 
energy

>  <rmsd>  (46) 
8.099189143288076

>  <m_score__min__rmsd>  (46) 
8.099189143288076

>  <meeko>  (46) 
{"free_energy": -8.64, "intermolecular_energy": -10.13, "internal_energy": -1.21, "cluster_size": 7, "cluster_id": 2, "rank_in_cluster": 4}

>  <energy>  (46) 
-8.64

>  <cluster_rmsd>  (46) 
1.37

>  <cluster>  (46) 
2

$$$$

     RDKit          3D

 47 50  0  0  0  0  0  0  0  0999 V2000
  140.2570   75.6990  220.4290 O   0  0  0  0  0  0  0  0  0  0  0  0
  139.8270   75.9630  221.5890 C   0  0  0  0  0  0  0  0  0  0  0  0
  139.1070   75.0030  222.3190 N   0  0  0  0  0  0  0  0  0  0  0  0
  138.8140   73.6750  221.8080 C   0  0  0  0  0  0  0  0  0  0  0  0
  139.9270   72.7720  222.2270 C   0  0  0  0  0  0  0  0  0  0  0  0
  141.0490   72.8160  221.6560 O   0  0  0  0  0  0  0  0  0  0  0  0
  139.6660   71.8570  223.3010 N   0  0  0  0  0  0  0  0  0  0  0  0
  138.4850   71.1150  223.6180 C   0  0  0  0  0  0  0  0  0  0  0  0
  139.0070   69.7630  224.0080 C   0  0  0  0  0  0  0  0  0  0  0  0
  140.3440   70.0570  224.6110 C   0  0  2  0  0  0  0  0  0  0  0  0
  140.3270   69.7020  226.0380 C   0  0  0  0  0  0  0  0  0  0  0  0
  140.3770   70.7440  226.9670 C   0  0  0  0  0  0  0  0  0  0  0  0
  140.3620   70.4580  228.3220 C   0  0  0  0  0  0  0  0  0  0  0  0
  140.2980   69.1270  228.6970 C   0  0  0  0  0  0  0  0  0  0  0  0
  140.2500   68.1350  227.7830 N   0  0  0  0  0  0  0  0  0  0  0  0
  140.2640   68.3990  226.4510 C   0  0  0  0  0  0  0  0  0  0  0  0
  140.6430   71.5050  224.3340 C   0  0  0  0  0  0  0  0  0  0  0  0
  140.0800   77.2900  222.1860 C   0  0  0  0  0  0  0  0  0  0  0  0
  139.0300   78.0520  222.6600 C   0  0  0  0  0  0  0  0  0  0  0  0
  139.2980   79.3060  223.2210 C   0  0  0  0  0  0  0  0  0  0  0  0
  140.6190   79.7580  223.2880 C   0  0  0  0  0  0  0  0  0  0  0  0
  140.9170   80.9990  223.8390 C   0  0  0  0  0  0  0  0  0  0  0  0
  142.2360   81.4110  223.8880 C   0  0  0  0  0  0  0  0  0  0  0  0
  143.2690   80.6300  223.4060 C   0  0  0  0  0  0  0  0  0  0  0  0
  142.9670   79.3960  222.8580 C   0  0  0  0  0  0  0  0  0  0  0  0
  141.6500   78.9690  222.8030 C   0  0  0  0  0  0  0  0  0  0  0  0
  141.3490   77.7690  222.2700 N   0  0  0  0  0  0  0  0  0  0  0  0
  138.7730   75.2680  223.2740 H   0  0  0  0  0  0  0  0  0  0  0  0
  137.8620   73.3147  222.2249 H   0  0  0  0  0  0  0  0  0  0  0  0
  138.7256   73.6947  220.7117 H   0  0  0  0  0  0  0  0  0  0  0  0
  137.9414   71.5812  224.4529 H   0  0  0  0  0  0  0  0  0  0  0  0
  137.7722   71.0712  222.7814 H   0  0  0  0  0  0  0  0  0  0  0  0
  138.3429   69.2834  224.7421 H   0  0  0  0  0  0  0  0  0  0  0  0
  139.0676   69.0687  223.1570 H   0  0  0  0  0  0  0  0  0  0  0  0
  141.1538   69.4557  224.1719 H   0  0  0  0  0  0  0  0  0  0  0  0
  140.4281   71.7878  226.6236 H   0  0  0  0  0  0  0  0  0  0  0  0
  140.3996   71.2602  229.0737 H   0  0  0  0  0  0  0  0  0  0  0  0
  140.2860   68.8714  229.7668 H   0  0  0  0  0  0  0  0  0  0  0  0
  140.2254   67.5803  225.7174 H   0  0  0  0  0  0  0  0  0  0  0  0
  140.5002   72.1169  225.2368 H   0  0  0  0  0  0  0  0  0  0  0  0
  141.6832   71.6784  224.0209 H   0  0  0  0  0  0  0  0  0  0  0  0
  137.9973   77.6784  222.5975 H   0  0  0  0  0  0  0  0  0  0  0  0
  138.4773   79.9295  223.6053 H   0  0  0  0  0  0  0  0  0  0  0  0
  140.1158   81.6433  224.2300 H   0  0  0  0  0  0  0  0  0  0  0  0
  142.4707   82.3928  224.3251 H   0  0  0  0  0  0  0  0  0  0  0  0
  144.3099   80.9821  223.4569 H   0  0  0  0  0  0  0  0  0  0  0  0
  143.7709   78.7552  222.4667 H   0  0  0  0  0  0  0  0  0  0  0  0
  1  2  2  0
  2  3  1  0
  3  4  1  0
  4  5  1  0
  5  6  2  0
  5  7  1  0
  7  8  1  0
  8  9  1  0
  9 10  1  0
 10 11  1  0
 11 12  2  0
 12 13  1  0
 13 14  2  0
 14 15  1  0
 15 16  2  0
 10 17  1  0
  2 18  1  0
 18 19  2  0
 19 20  1  0
 20 21  2  0
 21 22  1  0
 22 23  2  0
 23 24  1  0
 24 25  2  0
 25 26  1  0
 26 27  2  0
 17  7  1  0
 27 18  1  0
 16 11  1  0
 26 21  1  0
  3 28  1  0
  4 29  1  0
  4 30  1  0
  8 31  1  0
  8 32  1  0
  9 33  1  0
  9 34  1  0
 10 35  1  6
 12 36  1  0
 13 37  1  0
 14 38  1  0
 16 39  1  0
 17 40  1  0
 17 41  1  0
 19 42  1  0
 20 43  1  0
 22 44  1  0
 23 45  1  0
 24 46  1  0
 25 47  1  0
M  END
>  <smiles>  (47) 
O=C(NCC(=O)N1CC[C@H](c2cccnc2)C1)c1ccc2ccccc2n1

>  <score_type>  (47) 
oracle

>  <origin>  (47) 
autodockgpu

>  <m_score__min__energy>  (47) 
-9.0199999999999996

>  <m_primary>  (47) 
energy

>  <rmsd>  (47) 
8.55955437166937

>  <m_score__min__rmsd>  (47) 
8.55955437166937

>  <meeko>  (47) 
{"free_energy": -8.68, "intermolecular_energy": -10.18, "internal_energy": -0.97, "cluster_size": 42, "cluster_id": 1, "rank_in_cluster": 17}

>  <energy>  (47) 
-8.15

>  <cluster_rmsd>  (47) 
1.02

>  <cluster>  (47) 
2

$$$$

     RDKit          3D

 47 50  0  0  0  0  0  0  0  0999 V2000
  140.1320   71.1920  221.1960 O   0  0  0  0  0  0  0  0  0  0  0  0
  139.8380   71.8280  222.2490 C   0  0  0  0  0  0  0  0  0  0  0  0
  139.4460   73.1760  222.1830 N   0  0  0  0  0  0  0  0  0  0  0  0
  139.3530   73.9140  220.9350 C   0  0  0  0  0  0  0  0  0  0  0  0
  140.7440   74.1840  220.4640 C   0  0  0  0  0  0  0  0  0  0  0  0
  141.4080   73.3030  219.8580 O   0  0  0  0  0  0  0  0  0  0  0  0
  141.2890   75.4850  220.7300 N   0  0  0  0  0  0  0  0  0  0  0  0
  142.3440   76.1970  220.0780 C   0  0  0  0  0  0  0  0  0  0  0  0
  141.8230   77.6030  219.9880 C   0  0  0  0  0  0  0  0  0  0  0  0
  140.9560   77.7400  221.1990 C   0  0  2  0  0  0  0  0  0  0  0  0
  141.5350   78.7440  222.1040 C   0  0  0  0  0  0  0  0  0  0  0  0
  142.0050   79.9330  221.5410 C   0  0  0  0  0  0  0  0  0  0  0  0
  142.5570   80.9070  222.3550 C   0  0  0  0  0  0  0  0  0  0  0  0
  142.6190   80.6510  223.7140 C   0  0  0  0  0  0  0  0  0  0  0  0
  142.1590   79.4950  224.2380 N   0  0  0  0  0  0  0  0  0  0  0  0
  141.6150   78.5300  223.4540 C   0  0  0  0  0  0  0  0  0  0  0  0
  140.8180   76.3670  221.8000 C   0  0  0  0  0  0  0  0  0  0  0  0
  139.9050   71.1550  223.5610 C   0  0  0  0  0  0  0  0  0  0  0  0
  139.4770   69.8490  223.6980 C   0  0  0  0  0  0  0  0  0  0  0  0
  139.5510   69.2350  224.9530 C   0  0  0  0  0  0  0  0  0  0  0  0
  140.0560   69.9560  226.0390 C   0  0  0  0  0  0  0  0  0  0  0  0
  140.1430   69.3750  227.2990 C   0  0  0  0  0  0  0  0  0  0  0  0
  140.6470   70.1210  228.3470 C   0  0  0  0  0  0  0  0  0  0  0  0
  141.0690   71.4260  228.1860 C   0  0  0  0  0  0  0  0  0  0  0  0
  140.9800   72.0010  226.9300 C   0  0  0  0  0  0  0  0  0  0  0  0
  140.4770   71.2660  225.8690 C   0  0  0  0  0  0  0  0  0  0  0  0
  140.3880   71.8190  224.6440 N   0  0  0  0  0  0  0  0  0  0  0  0
  139.2130   73.6590  223.0810 H   0  0  0  0  0  0  0  0  0  0  0  0
  138.8128   73.3168  220.1857 H   0  0  0  0  0  0  0  0  0  0  0  0
  138.8063   74.8568  221.0841 H   0  0  0  0  0  0  0  0  0  0  0  0
  143.2687   76.1588  220.6725 H   0  0  0  0  0  0  0  0  0  0  0  0
  142.5999   75.7738  219.0955 H   0  0  0  0  0  0  0  0  0  0  0  0
  142.6487   78.3293  220.0130 H   0  0  0  0  0  0  0  0  0  0  0  0
  141.2794   77.7963  219.0514 H   0  0  0  0  0  0  0  0  0  0  0  0
  139.9462   78.1077  220.9642 H   0  0  0  0  0  0  0  0  0  0  0  0
  141.9367   80.0946  220.4551 H   0  0  0  0  0  0  0  0  0  0  0  0
  142.9335   81.8520  221.9363 H   0  0  0  0  0  0  0  0  0  0  0  0
  143.0537   81.4080  224.3833 H   0  0  0  0  0  0  0  0  0  0  0  0
  141.2450   77.5927  223.8952 H   0  0  0  0  0  0  0  0  0  0  0  0
  141.4434   76.2652  222.6992 H   0  0  0  0  0  0  0  0  0  0  0  0
  139.7924   76.1399  222.1264 H   0  0  0  0  0  0  0  0  0  0  0  0
  139.0828   69.2984  222.8311 H   0  0  0  0  0  0  0  0  0  0  0  0
  139.2153   68.1957  225.0838 H   0  0  0  0  0  0  0  0  0  0  0  0
  139.8156   68.3371  227.4591 H   0  0  0  0  0  0  0  0  0  0  0  0
  140.7144   69.6598  229.3434 H   0  0  0  0  0  0  0  0  0  0  0  0
  141.4675   71.9965  229.0379 H   0  0  0  0  0  0  0  0  0  0  0  0
  141.3080   73.0394  226.7747 H   0  0  0  0  0  0  0  0  0  0  0  0
  1  2  2  0
  2  3  1  0
  3  4  1  0
  4  5  1  0
  5  6  2  0
  5  7  1  0
  7  8  1  0
  8  9  1  0
  9 10  1  0
 10 11  1  0
 11 12  2  0
 12 13  1  0
 13 14  2  0
 14 15  1  0
 15 16  2  0
 10 17  1  0
  2 18  1  0
 18 19  2  0
 19 20  1  0
 20 21  2  0
 21 22  1  0
 22 23  2  0
 23 24  1  0
 24 25  2  0
 25 26  1  0
 26 27  2  0
 17  7  1  0
 27 18  1  0
 16 11  1  0
 26 21  1  0
  3 28  1  0
  4 29  1  0
  4 30  1  0
  8 31  1  0
  8 32  1  0
  9 33  1  0
  9 34  1  0
 10 35  1  6
 12 36  1  0
 13 37  1  0
 14 38  1  0
 16 39  1  0
 17 40  1  0
 17 41  1  0
 19 42  1  0
 20 43  1  0
 22 44  1  0
 23 45  1  0
 24 46  1  0
 25 47  1  0
M  END
>  <smiles>  (48) 
O=C(NCC(=O)N1CC[C@H](c2cccnc2)C1)c1ccc2ccccc2n1

>  <score_type>  (48) 
oracle

>  <origin>  (48) 
autodockgpu

>  <m_score__min__energy>  (48) 
-9.0199999999999996

>  <m_primary>  (48) 
energy

>  <rmsd>  (48) 
2.3100239710720896

>  <m_score__min__rmsd>  (48) 
2.3100239710720896

>  <meeko>  (48) 
{"free_energy": -8.75, "intermolecular_energy": -10.24, "internal_energy": -1.18, "cluster_size": 42, "cluster_id": 1, "rank_in_cluster": 12}

>  <energy>  (48) 
-8.12

>  <cluster_rmsd>  (48) 
1.17

>  <cluster>  (48) 
2

$$$$

     RDKit          3D

 47 50  0  0  0  0  0  0  0  0999 V2000
  140.8730   71.5410  221.3270 O   0  0  0  0  0  0  0  0  0  0  0  0
  140.2570   72.0430  222.3110 C   0  0  0  0  0  0  0  0  0  0  0  0
  139.6470   73.3050  222.2020 N   0  0  0  0  0  0  0  0  0  0  0  0
  139.6800   74.0980  220.9860 C   0  0  0  0  0  0  0  0  0  0  0  0
  139.1350   75.4500  221.3120 C   0  0  0  0  0  0  0  0  0  0  0  0
  137.8970   75.6350  221.4500 O   0  0  0  0  0  0  0  0  0  0  0  0
  140.0760   76.5220  221.4600 N   0  0  0  0  0  0  0  0  0  0  0  0
  141.3010   76.7810  220.7690 C   0  0  0  0  0  0  0  0  0  0  0  0
  141.2670   78.2620  220.5240 C   0  0  0  0  0  0  0  0  0  0  0  0
  140.5020   78.7990  221.6910 C   0  0  2  0  0  0  0  0  0  0  0  0
  141.3840   79.6480  222.5060 C   0  0  0  0  0  0  0  0  0  0  0  0
  140.8180   80.7640  223.1280 C   0  0  0  0  0  0  0  0  0  0  0  0
  141.6100   81.5920  223.9060 C   0  0  0  0  0  0  0  0  0  0  0  0
  142.9500   81.2680  224.0310 C   0  0  0  0  0  0  0  0  0  0  0  0
  143.4760   80.1850  223.4210 N   0  0  0  0  0  0  0  0  0  0  0  0
  142.7140   79.3640  222.6550 C   0  0  0  0  0  0  0  0  0  0  0  0
  139.9270   77.6170  222.4230 C   0  0  0  0  0  0  0  0  0  0  0  0
  140.1750   71.3050  223.5870 C   0  0  0  0  0  0  0  0  0  0  0  0
  139.6200   70.0400  223.6250 C   0  0  0  0  0  0  0  0  0  0  0  0
  139.5530   69.3620  224.8480 C   0  0  0  0  0  0  0  0  0  0  0  0
  140.0480   69.9790  226.0000 C   0  0  0  0  0  0  0  0  0  0  0  0
  139.9970   69.3320  227.2300 C   0  0  0  0  0  0  0  0  0  0  0  0
  140.4980   69.9750  228.3460 C   0  0  0  0  0  0  0  0  0  0  0  0
  141.0470   71.2410  228.2820 C   0  0  0  0  0  0  0  0  0  0  0  0
  141.0960   71.8810  227.0560 C   0  0  0  0  0  0  0  0  0  0  0  0
  140.5990   71.2490  225.9280 C   0  0  0  0  0  0  0  0  0  0  0  0
  140.6430   71.8670  224.7310 N   0  0  0  0  0  0  0  0  0  0  0  0
  139.1490   73.6780  223.0430 H   0  0  0  0  0  0  0  0  0  0  0  0
  140.7152   74.1882  220.6252 H   0  0  0  0  0  0  0  0  0  0  0  0
  139.0801   73.6201  220.1974 H   0  0  0  0  0  0  0  0  0  0  0  0
  142.1667   76.5061  221.3894 H   0  0  0  0  0  0  0  0  0  0  0  0
  141.3978   76.1982  219.8411 H   0  0  0  0  0  0  0  0  0  0  0  0
  142.2848   78.6783  220.4976 H   0  0  0  0  0  0  0  0  0  0  0  0
  140.8090   78.5231  219.5586 H   0  0  0  0  0  0  0  0  0  0  0  0
  139.6664   79.4493  221.3929 H   0  0  0  0  0  0  0  0  0  0  0  0
  139.7478   80.9840  223.0002 H   0  0  0  0  0  0  0  0  0  0  0  0
  141.1890   82.4761  224.4070 H   0  0  0  0  0  0  0  0  0  0  0  0
  143.6021   81.9089  224.6425 H   0  0  0  0  0  0  0  0  0  0  0  0
  143.1577   78.4860  222.1628 H   0  0  0  0  0  0  0  0  0  0  0  0
  140.4911   77.4113  223.3447 H   0  0  0  0  0  0  0  0  0  0  0  0
  138.8858   77.7721  222.7423 H   0  0  0  0  0  0  0  0  0  0  0  0
  139.2360   69.5720  222.7066 H   0  0  0  0  0  0  0  0  0  0  0  0
  139.1153   68.3542  224.9016 H   0  0  0  0  0  0  0  0  0  0  0  0
  139.5645   68.3240  227.3133 H   0  0  0  0  0  0  0  0  0  0  0  0
  140.4583   69.4614  229.3179 H   0  0  0  0  0  0  0  0  0  0  0  0
  141.4371   71.7302  229.1867 H   0  0  0  0  0  0  0  0  0  0  0  0
  141.5286   72.8893  226.9774 H   0  0  0  0  0  0  0  0  0  0  0  0
  1  2  2  0
  2  3  1  0
  3  4  1  0
  4  5  1  0
  5  6  2  0
  5  7  1  0
  7  8  1  0
  8  9  1  0
  9 10  1  0
 10 11  1  0
 11 12  2  0
 12 13  1  0
 13 14  2  0
 14 15  1  0
 15 16  2  0
 10 17  1  0
  2 18  1  0
 18 19  2  0
 19 20  1  0
 20 21  2  0
 21 22  1  0
 22 23  2  0
 23 24  1  0
 24 25  2  0
 25 26  1  0
 26 27  2  0
 17  7  1  0
 27 18  1  0
 16 11  1  0
 26 21  1  0
  3 28  1  0
  4 29  1  0
  4 30  1  0
  8 31  1  0
  8 32  1  0
  9 33  1  0
  9 34  1  0
 10 35  1  6
 12 36  1  0
 13 37  1  0
 14 38  1  0
 16 39  1  0
 17 40  1  0
 17 41  1  0
 19 42  1  0
 20 43  1  0
 22 44  1  0
 23 45  1  0
 24 46  1  0
 25 47  1  0
M  END
>  <smiles>  (49) 
O=C(NCC(=O)N1CC[C@H](c2cccnc2)C1)c1ccc2ccccc2n1

>  <score_type>  (49) 
oracle

>  <origin>  (49) 
autodockgpu

>  <m_score__min__energy>  (49) 
-9.0199999999999996

>  <m_primary>  (49) 
energy

>  <rmsd>  (49) 
2.720059888621759

>  <m_score__min__rmsd>  (49) 
2.720059888621759

>  <meeko>  (49) 
{"free_energy": -8.68, "intermolecular_energy": -10.17, "internal_energy": -1.1, "cluster_size": 42, "cluster_id": 1, "rank_in_cluster": 18}

>  <energy>  (49) 
-7.78

>  <cluster_rmsd>  (49) 
1.36

>  <cluster>  (49) 
2

$$$$

     RDKit          3D

 47 50  0  0  0  0  0  0  0  0999 V2000
  140.2300   71.4000  221.2400 O   0  0  0  0  0  0  0  0  0  0  0  0
  140.0070   72.0060  222.3280 C   0  0  0  0  0  0  0  0  0  0  0  0
  139.7490   73.3880  222.3350 N   0  0  0  0  0  0  0  0  0  0  0  0
  139.7200   74.1950  221.1270 C   0  0  0  0  0  0  0  0  0  0  0  0
  141.1180   74.6350  220.8430 C   0  0  0  0  0  0  0  0  0  0  0  0
  141.9920   73.8150  220.4570 O   0  0  0  0  0  0  0  0  0  0  0  0
  141.4210   76.0260  221.0280 N   0  0  0  0  0  0  0  0  0  0  0  0
  142.1080   76.9440  220.1740 C   0  0  0  0  0  0  0  0  0  0  0  0
  141.2940   78.2020  220.2740 C   0  0  0  0  0  0  0  0  0  0  0  0
  140.7410   78.1590  221.6640 C   0  0  2  0  0  0  0  0  0  0  0  0
  141.2970   79.2720  222.4470 C   0  0  0  0  0  0  0  0  0  0  0  0
  140.9790   80.5720  222.0450 C   0  0  0  0  0  0  0  0  0  0  0  0
  141.4790   81.6520  222.7520 C   0  0  0  0  0  0  0  0  0  0  0  0
  142.2860   81.3870  223.8450 C   0  0  0  0  0  0  0  0  0  0  0  0
  142.5810   80.1230  224.2170 N   0  0  0  0  0  0  0  0  0  0  0  0
  142.0990   79.0540  223.5340 C   0  0  0  0  0  0  0  0  0  0  0  0
  141.0500   76.7940  222.2180 C   0  0  0  0  0  0  0  0  0  0  0  0
  140.0170   71.2640  223.6030 C   0  0  0  0  0  0  0  0  0  0  0  0
  139.5430   69.9670  223.6590 C   0  0  0  0  0  0  0  0  0  0  0  0
  139.5630   69.2860  224.8810 C   0  0  0  0  0  0  0  0  0  0  0  0
  140.0620   69.9310  226.0160 C   0  0  0  0  0  0  0  0  0  0  0  0
  140.0970   69.2820  227.2450 C   0  0  0  0  0  0  0  0  0  0  0  0
  140.5980   69.9530  228.3440 C   0  0  0  0  0  0  0  0  0  0  0  0
  141.0660   71.2500  228.2630 C   0  0  0  0  0  0  0  0  0  0  0  0
  141.0300   71.8930  227.0380 C   0  0  0  0  0  0  0  0  0  0  0  0
  140.5310   71.2330  225.9270 C   0  0  0  0  0  0  0  0  0  0  0  0
  140.4930   71.8530  224.7320 N   0  0  0  0  0  0  0  0  0  0  0  0
  139.5700   73.8440  223.2590 H   0  0  0  0  0  0  0  0  0  0  0  0
  139.3369   73.5979  220.2864 H   0  0  0  0  0  0  0  0  0  0  0  0
  139.0611   75.0656  221.2604 H   0  0  0  0  0  0  0  0  0  0  0  0
  143.1362   77.1132  220.5265 H   0  0  0  0  0  0  0  0  0  0  0  0
  142.2002   76.5773  219.1410 H   0  0  0  0  0  0  0  0  0  0  0  0
  141.9265   79.0906  220.1311 H   0  0  0  0  0  0  0  0  0  0  0  0
  140.5094   78.2636  219.5055 H   0  0  0  0  0  0  0  0  0  0  0  0
  139.6502   78.2975  221.6961 H   0  0  0  0  0  0  0  0  0  0  0  0
  140.3335   80.7366  221.1696 H   0  0  0  0  0  0  0  0  0  0  0  0
  141.2433   82.6847  222.4556 H   0  0  0  0  0  0  0  0  0  0  0  0
  142.6970   82.2267  224.4247 H   0  0  0  0  0  0  0  0  0  0  0  0
  142.3487   78.0300  223.8487 H   0  0  0  0  0  0  0  0  0  0  0  0
  141.8835   76.8385  222.9344 H   0  0  0  0  0  0  0  0  0  0  0  0
  140.2081   76.3523  222.7713 H   0  0  0  0  0  0  0  0  0  0  0  0
  139.1549   69.4763  222.7542 H   0  0  0  0  0  0  0  0  0  0  0  0
  139.1898   68.2534  224.9478 H   0  0  0  0  0  0  0  0  0  0  0  0
  139.7311   68.2491  227.3411 H   0  0  0  0  0  0  0  0  0  0  0  0
  140.6251   69.4374  229.3153 H   0  0  0  0  0  0  0  0  0  0  0  0
  141.4593   71.7614  229.1539 H   0  0  0  0  0  0  0  0  0  0  0  0
  141.3969   72.9260  226.9468 H   0  0  0  0  0  0  0  0  0  0  0  0
  1  2  2  0
  2  3  1  0
  3  4  1  0
  4  5  1  0
  5  6  2  0
  5  7  1  0
  7  8  1  0
  8  9  1  0
  9 10  1  0
 10 11  1  0
 11 12  2  0
 12 13  1  0
 13 14  2  0
 14 15  1  0
 15 16  2  0
 10 17  1  0
  2 18  1  0
 18 19  2  0
 19 20  1  0
 20 21  2  0
 21 22  1  0
 22 23  2  0
 23 24  1  0
 24 25  2  0
 25 26  1  0
 26 27  2  0
 17  7  1  0
 27 18  1  0
 16 11  1  0
 26 21  1  0
  3 28  1  0
  4 29  1  0
  4 30  1  0
  8 31  1  0
  8 32  1  0
  9 33  1  0
  9 34  1  0
 10 35  1  6
 12 36  1  0
 13 37  1  0
 14 38  1  0
 16 39  1  0
 17 40  1  0
 17 41  1  0
 19 42  1  0
 20 43  1  0
 22 44  1  0
 23 45  1  0
 24 46  1  0
 25 47  1  0
M  END
>  <smiles>  (50) 
O=C(NCC(=O)N1CC[C@H](c2cccnc2)C1)c1ccc2ccccc2n1

>  <score_type>  (50) 
oracle

>  <origin>  (50) 
autodockgpu

>  <m_score__min__energy>  (50) 
-9.0199999999999996

>  <m_primary>  (50) 
energy

>  <rmsd>  (50) 
2.5762080828180514

>  <m_score__min__rmsd>  (50) 
2.5762080828180514

>  <meeko>  (50) 
{"free_energy": -8.82, "intermolecular_energy": -10.31, "internal_energy": -1.18, "cluster_size": 42, "cluster_id": 1, "rank_in_cluster": 9}

>  <energy>  (50) 
-8.06

>  <cluster_rmsd>  (50) 
0.0

>  <cluster>  (50) 
3

$$$$
