
     RDKit          3D

 44 47  0  0  0  0  0  0  0  0999 V2000
  140.8040   72.7760  222.4030 O   0  0  0  0  0  0  0  0  0  0  0  0
  140.7290   73.7270  221.5820 C   0  0  0  0  0  0  0  0  0  0  0  0
  141.1930   73.5090  220.2340 N   0  0  0  0  0  0  0  0  0  0  0  0
  141.7110   72.2100  219.9280 C   0  0  0  0  0  0  0  0  0  0  0  0
  142.9880   72.2680  219.1750 C   0  0  0  0  0  0  0  0  0  0  0  0
  143.1370   71.7640  218.0270 O   0  0  0  0  0  0  0  0  0  0  0  0
  144.1190   72.9150  219.7400 N   0  0  0  0  0  0  0  0  0  0  0  0
  145.4850   72.4090  219.7150 C   0  0  0  0  0  0  0  0  0  0  0  0
  146.0910   73.0350  220.9760 C   0  0  0  0  0  0  0  0  0  0  0  0
  145.5460   74.4430  220.8470 C   0  0  0  0  0  0  0  0  0  0  0  0
  144.1130   74.1830  220.4370 C   0  0  1  0  0  0  0  0  0  0  0  0
  143.5690   75.2970  219.6190 C   0  0  0  0  0  0  0  0  0  0  0  0
  143.6970   75.3970  218.2860 N   0  0  0  0  0  0  0  0  0  0  0  0
  143.0840   76.5210  217.9110 N   0  0  0  0  0  0  0  0  0  0  0  0
  142.5700   77.1290  219.0080 C   0  0  0  0  0  0  0  0  0  0  0  0
  142.8740   76.3590  220.0820 N   0  0  0  0  0  0  0  0  0  0  0  0
  140.1920   75.0270  221.9480 C   0  0  0  0  0  0  0  0  0  0  0  0
  138.8220   75.2010  221.9160 C   0  0  0  0  0  0  0  0  0  0  0  0
  138.2370   76.4000  222.2480 C   0  0  0  0  0  0  0  0  0  0  0  0
  139.0390   77.4580  222.6250 C   0  0  0  0  0  0  0  0  0  0  0  0
  138.4700   78.6690  222.9620 C   0  0  0  0  0  0  0  0  0  0  0  0
  139.2790   79.7150  223.3350 C   0  0  0  0  0  0  0  0  0  0  0  0
  138.5790   81.2640  223.7690 Cl  0  0  0  0  0  0  0  0  0  0  0  0
  140.6460   79.5380  223.3670 C   0  0  0  0  0  0  0  0  0  0  0  0
  141.2110   78.3220  223.0270 C   0  0  0  0  0  0  0  0  0  0  0  0
  140.4180   77.2660  222.6520 C   0  0  0  0  0  0  0  0  0  0  0  0
  140.9360   76.0710  222.3160 N   0  0  0  0  0  0  0  0  0  0  0  0
  141.1330   74.3020  219.5410 H   0  0  0  0  0  0  0  0  0  0  0  0
  141.8816   71.6679  220.8698 H   0  0  0  0  0  0  0  0  0  0  0  0
  140.9728   71.6979  219.2932 H   0  0  0  0  0  0  0  0  0  0  0  0
  145.5035   71.3104  219.7678 H   0  0  0  0  0  0  0  0  0  0  0  0
  146.0303   72.6611  218.7935 H   0  0  0  0  0  0  0  0  0  0  0  0
  145.7345   72.5398  221.8913 H   0  0  0  0  0  0  0  0  0  0  0  0
  147.1860   72.9634  221.0529 H   0  0  0  0  0  0  0  0  0  0  0  0
  145.5973   74.9818  221.8047 H   0  0  0  0  0  0  0  0  0  0  0  0
  146.1044   75.0741  220.1400 H   0  0  0  0  0  0  0  0  0  0  0  0
  143.4436   74.1309  221.3083 H   0  0  0  0  0  0  0  0  0  0  0  0
  142.0085   78.0748  219.0241 H   0  0  0  0  0  0  0  0  0  0  0  0
  142.6400   76.5140  221.0900 H   0  0  0  0  0  0  0  0  0  0  0  0
  138.1821   74.3577  221.6169 H   0  0  0  0  0  0  0  0  0  0  0  0
  137.1435   76.5146  222.2136 H   0  0  0  0  0  0  0  0  0  0  0  0
  137.3778   78.7959  222.9323 H   0  0  0  0  0  0  0  0  0  0  0  0
  141.2952   80.3739  223.6666 H   0  0  0  0  0  0  0  0  0  0  0  0
  142.3038   78.2003  223.0573 H   0  0  0  0  0  0  0  0  0  0  0  0
  1  2  2  0
  2  3  1  0
  3  4  1  0
  4  5  1  0
  5  6  2  0
  5  7  1  0
  7  8  1  0
  8  9  1  0
  9 10  1  0
 10 11  1  0
 11 12  1  0
 12 13  2  0
 13 14  1  0
 14 15  2  0
 15 16  1  0
  2 17  1  0
 17 18  2  0
 18 19  1  0
 19 20  2  0
 20 21  1  0
 21 22  2  0
 22 23  1  0
 22 24  1  0
 24 25  2  0
 25 26  1  0
 26 27  2  0
 11  7  1  0
 16 12  1  0
 27 17  1  0
 26 20  1  0
  3 28  1  0
  4 29  1  0
  4 30  1  0
  8 31  1  0
  8 32  1  0
  9 33  1  0
  9 34  1  0
 10 35  1  0
 10 36  1  0
 11 37  1  1
 15 38  1  0
 16 39  1  0
 18 40  1  0
 19 41  1  0
 21 42  1  0
 24 43  1  0
 25 44  1  0
M  END
>  <smiles>  (1) 
O=C(NCC(=O)N1CCC[C@H]1c1nnc[nH]1)c1ccc2cc(Cl)ccc2n1

>  <score_type>  (1) 
oracle

>  <origin>  (1) 
autodockgpu

>  <m_score__min__energy>  (1) 
-7.9900000000000002

>  <m_primary>  (1) 
energy

>  <rmsd>  (1) 
6.7129282691430285

>  <m_score__min__rmsd>  (1) 
6.7129282691430285

>  <meeko>  (1) 
{"free_energy": -6.44, "intermolecular_energy": -7.93, "internal_energy": -2.57, "cluster_size": 1, "cluster_id": 9, "rank_in_cluster": 1}

>  <energy>  (1) 
-7.99

>  <cluster_rmsd>  (1) 
0.0

>  <cluster>  (1) 
1

$$$$

     RDKit          3D

 44 47  0  0  0  0  0  0  0  0999 V2000
  136.0200   71.2240  222.1850 O   0  0  0  0  0  0  0  0  0  0  0  0
  137.0260   71.6770  222.7920 C   0  0  0  0  0  0  0  0  0  0  0  0
  137.5070   72.9890  222.4420 N   0  0  0  0  0  0  0  0  0  0  0  0
  136.7940   73.6890  221.4160 C   0  0  0  0  0  0  0  0  0  0  0  0
  135.3790   73.9480  221.7790 C   0  0  0  0  0  0  0  0  0  0  0  0
  134.4210   73.2260  221.3870 O   0  0  0  0  0  0  0  0  0  0  0  0
  135.0490   75.0530  222.6080 N   0  0  0  0  0  0  0  0  0  0  0  0
  134.3750   76.2680  222.1710 C   0  0  0  0  0  0  0  0  0  0  0  0
  134.8980   77.3100  223.1660 C   0  0  0  0  0  0  0  0  0  0  0  0
  134.7850   76.5140  224.4500 C   0  0  0  0  0  0  0  0  0  0  0  0
  135.3210   75.1650  224.0240 C   0  0  1  0  0  0  0  0  0  0  0  0
  134.7250   74.0630  224.8240 C   0  0  0  0  0  0  0  0  0  0  0  0
  134.3290   74.1770  226.1020 N   0  0  0  0  0  0  0  0  0  0  0  0
  133.8500   72.9900  226.4770 N   0  0  0  0  0  0  0  0  0  0  0  0
  133.9450   72.1280  225.4350 C   0  0  0  0  0  0  0  0  0  0  0  0
  134.4950   72.8030  224.3950 N   0  0  0  0  0  0  0  0  0  0  0  0
  137.7110   70.9220  223.8290 C   0  0  0  0  0  0  0  0  0  0  0  0
  137.2300   69.6660  224.1490 C   0  0  0  0  0  0  0  0  0  0  0  0
  137.8230   68.8900  225.1170 C   0  0  0  0  0  0  0  0  0  0  0  0
  138.9270   69.3760  225.7860 C   0  0  0  0  0  0  0  0  0  0  0  0
  139.5350   68.6120  226.7600 C   0  0  0  0  0  0  0  0  0  0  0  0
  140.6340   69.1070  227.4200 C   0  0  0  0  0  0  0  0  0  0  0  0
  141.4250   68.1530  228.6620 Cl  0  0  0  0  0  0  0  0  0  0  0  0
  141.1130   70.3600  227.0970 C   0  0  0  0  0  0  0  0  0  0  0  0
  140.4990   71.1220  226.1200 C   0  0  0  0  0  0  0  0  0  0  0  0
  139.3990   70.6430  225.4510 C   0  0  0  0  0  0  0  0  0  0  0  0
  138.7800   71.3600  224.4950 N   0  0  0  0  0  0  0  0  0  0  0  0
  138.3480   73.3750  222.9460 H   0  0  0  0  0  0  0  0  0  0  0  0
  137.2931   74.6523  221.2348 H   0  0  0  0  0  0  0  0  0  0  0  0
  136.7964   73.0551  220.5170 H   0  0  0  0  0  0  0  0  0  0  0  0
  134.6532   76.5283  221.1391 H   0  0  0  0  0  0  0  0  0  0  0  0
  133.2784   76.1826  222.1595 H   0  0  0  0  0  0  0  0  0  0  0  0
  135.9383   77.5956  222.9512 H   0  0  0  0  0  0  0  0  0  0  0  0
  134.3602   78.2696  223.1628 H   0  0  0  0  0  0  0  0  0  0  0  0
  135.3982   76.9545  225.2499 H   0  0  0  0  0  0  0  0  0  0  0  0
  133.7669   76.4787  224.8649 H   0  0  0  0  0  0  0  0  0  0  0  0
  136.4025   75.0814  224.2067 H   0  0  0  0  0  0  0  0  0  0  0  0
  133.6329   71.0732  225.4333 H   0  0  0  0  0  0  0  0  0  0  0  0
  134.7160   72.4600  223.4310 H   0  0  0  0  0  0  0  0  0  0  0  0
  136.3501   69.2773  223.6154 H   0  0  0  0  0  0  0  0  0  0  0  0
  137.4218   67.8938  225.3550 H   0  0  0  0  0  0  0  0  0  0  0  0
  139.1433   67.6141  227.0066 H   0  0  0  0  0  0  0  0  0  0  0  0
  141.9936   70.7574  227.6228 H   0  0  0  0  0  0  0  0  0  0  0  0
  140.8944   72.1192  225.8767 H   0  0  0  0  0  0  0  0  0  0  0  0
  1  2  2  0
  2  3  1  0
  3  4  1  0
  4  5  1  0
  5  6  2  0
  5  7  1  0
  7  8  1  0
  8  9  1  0
  9 10  1  0
 10 11  1  0
 11 12  1  0
 12 13  2  0
 13 14  1  0
 14 15  2  0
 15 16  1  0
  2 17  1  0
 17 18  2  0
 18 19  1  0
 19 20  2  0
 20 21  1  0
 21 22  2  0
 22 23  1  0
 22 24  1  0
 24 25  2  0
 25 26  1  0
 26 27  2  0
 11  7  1  0
 16 12  1  0
 27 17  1  0
 26 20  1  0
  3 28  1  0
  4 29  1  0
  4 30  1  0
  8 31  1  0
  8 32  1  0
  9 33  1  0
  9 34  1  0
 10 35  1  0
 10 36  1  0
 11 37  1  6
 15 38  1  0
 16 39  1  0
 18 40  1  0
 19 41  1  0
 21 42  1  0
 24 43  1  0
 25 44  1  0
M  END
>  <smiles>  (2) 
O=C(NCC(=O)N1CCC[C@H]1c1nnc[nH]1)c1ccc2cc(Cl)ccc2n1

>  <score_type>  (2) 
oracle

>  <origin>  (2) 
autodockgpu

>  <m_score__min__energy>  (2) 
-7.9900000000000002

>  <m_primary>  (2) 
energy

>  <rmsd>  (2) 
5.477804315845921

>  <m_score__min__rmsd>  (2) 
5.477804315845921

>  <meeko>  (2) 
{"free_energy": -6.35, "intermolecular_energy": -7.85, "internal_energy": -3.05, "cluster_size": 3, "cluster_id": 10, "rank_in_cluster": 1}

>  <energy>  (2) 
-7.85

>  <cluster_rmsd>  (2) 
0.15

>  <cluster>  (2) 
1

$$$$

     RDKit          3D

 44 47  0  0  0  0  0  0  0  0999 V2000
  135.4010   68.5570  224.7970 O   0  0  0  0  0  0  0  0  0  0  0  0
  135.7690   69.7590  224.8700 C   0  0  0  0  0  0  0  0  0  0  0  0
  137.0740   70.1090  224.3680 N   0  0  0  0  0  0  0  0  0  0  0  0
  137.8630   69.0490  223.8170 C   0  0  0  0  0  0  0  0  0  0  0  0
  138.9430   68.6060  224.7330 C   0  0  0  0  0  0  0  0  0  0  0  0
  139.2020   67.3920  224.9600 O   0  0  0  0  0  0  0  0  0  0  0  0
  139.7450   69.5670  225.4040 N   0  0  0  0  0  0  0  0  0  0  0  0
  140.7990   69.2690  226.3640 C   0  0  0  0  0  0  0  0  0  0  0  0
  140.8080   70.5250  227.2430 C   0  0  0  0  0  0  0  0  0  0  0  0
  140.7100   71.5880  226.1680 C   0  0  0  0  0  0  0  0  0  0  0  0
  139.6570   71.0030  225.2510 C   0  0  1  0  0  0  0  0  0  0  0  0
  139.8430   71.4550  223.8480 C   0  0  0  0  0  0  0  0  0  0  0  0
  138.8590   71.9230  223.0620 N   0  0  0  0  0  0  0  0  0  0  0  0
  139.4040   72.2270  221.8830 N   0  0  0  0  0  0  0  0  0  0  0  0
  140.7290   71.9490  221.9260 C   0  0  0  0  0  0  0  0  0  0  0  0
  141.0060   71.4650  223.1620 N   0  0  0  0  0  0  0  0  0  0  0  0
  134.9250   70.7950  225.4400 C   0  0  0  0  0  0  0  0  0  0  0  0
  133.9080   70.4140  226.2940 C   0  0  0  0  0  0  0  0  0  0  0  0
  133.0660   71.3340  226.8740 C   0  0  0  0  0  0  0  0  0  0  0  0
  133.2420   72.6750  226.5960 C   0  0  0  0  0  0  0  0  0  0  0  0
  132.4080   73.6130  227.1680 C   0  0  0  0  0  0  0  0  0  0  0  0
  132.5930   74.9440  226.8840 C   0  0  0  0  0  0  0  0  0  0  0  0
  131.5460   76.1560  227.6000 Cl  0  0  0  0  0  0  0  0  0  0  0  0
  133.6100   75.3220  226.0320 C   0  0  0  0  0  0  0  0  0  0  0  0
  134.4420   74.3770  225.4600 C   0  0  0  0  0  0  0  0  0  0  0  0
  134.2720   73.0420  225.7330 C   0  0  0  0  0  0  0  0  0  0  0  0
  135.0650   72.0990  225.1940 N   0  0  0  0  0  0  0  0  0  0  0  0
  137.3890   71.1140  224.4250 H   0  0  0  0  0  0  0  0  0  0  0  0
  137.2053   68.1925  223.6075 H   0  0  0  0  0  0  0  0  0  0  0  0
  138.3384   69.4292  222.9007 H   0  0  0  0  0  0  0  0  0  0  0  0
  140.5583   68.3722  226.9538 H   0  0  0  0  0  0  0  0  0  0  0  0
  141.7710   69.0525  225.8966 H   0  0  0  0  0  0  0  0  0  0  0  0
  139.9466   70.5529  227.9265 H   0  0  0  0  0  0  0  0  0  0  0  0
  141.6743   70.6186  227.9144 H   0  0  0  0  0  0  0  0  0  0  0  0
  140.3861   72.5524  226.5864 H   0  0  0  0  0  0  0  0  0  0  0  0
  141.6653   71.8062  225.6681 H   0  0  0  0  0  0  0  0  0  0  0  0
  138.6474   71.3487  225.5177 H   0  0  0  0  0  0  0  0  0  0  0  0
  141.4495   72.0902  221.1069 H   0  0  0  0  0  0  0  0  0  0  0  0
  141.9230   71.1470  223.5540 H   0  0  0  0  0  0  0  0  0  0  0  0
  133.7679   69.3458  226.5161 H   0  0  0  0  0  0  0  0  0  0  0  0
  132.2630   71.0058  227.5504 H   0  0  0  0  0  0  0  0  0  0  0  0
  131.6013   73.2976  227.8461 H   0  0  0  0  0  0  0  0  0  0  0  0
  133.7609   76.3877  225.8049 H   0  0  0  0  0  0  0  0  0  0  0  0
  135.2461   74.6972  224.7811 H   0  0  0  0  0  0  0  0  0  0  0  0
  1  2  2  0
  2  3  1  0
  3  4  1  0
  4  5  1  0
  5  6  2  0
  5  7  1  0
  7  8  1  0
  8  9  1  0
  9 10  1  0
 10 11  1  0
 11 12  1  0
 12 13  2  0
 13 14  1  0
 14 15  2  0
 15 16  1  0
  2 17  1  0
 17 18  2  0
 18 19  1  0
 19 20  2  0
 20 21  1  0
 21 22  2  0
 22 23  1  0
 22 24  1  0
 24 25  2  0
 25 26  1  0
 26 27  2  0
 11  7  1  0
 16 12  1  0
 27 17  1  0
 26 20  1  0
  3 28  1  0
  4 29  1  0
  4 30  1  0
  8 31  1  0
  8 32  1  0
  9 33  1  0
  9 34  1  0
 10 35  1  0
 10 36  1  0
 11 37  1  1
 15 38  1  0
 16 39  1  0
 18 40  1  0
 19 41  1  0
 21 42  1  0
 24 43  1  0
 25 44  1  0
M  END
>  <smiles>  (3) 
O=C(NCC(=O)N1CCC[C@H]1c1nnc[nH]1)c1ccc2cc(Cl)ccc2n1

>  <score_type>  (3) 
oracle

>  <origin>  (3) 
autodockgpu

>  <m_score__min__energy>  (3) 
-7.9900000000000002

>  <m_primary>  (3) 
energy

>  <rmsd>  (3) 
7.865648365692346

>  <m_score__min__rmsd>  (3) 
7.865648365692346

>  <meeko>  (3) 
{"free_energy": -6.96, "intermolecular_energy": -8.45, "internal_energy": -2.13, "cluster_size": 2, "cluster_id": 6, "rank_in_cluster": 2}

>  <energy>  (3) 
-7.39

>  <cluster_rmsd>  (3) 
1.74

>  <cluster>  (3) 
1

$$$$

     RDKit          3D

 44 47  0  0  0  0  0  0  0  0999 V2000
  139.5870   73.9020  222.3090 O   0  0  0  0  0  0  0  0  0  0  0  0
  140.1550   72.7820  222.2250 C   0  0  0  0  0  0  0  0  0  0  0  0
  140.8060   72.4340  220.9870 N   0  0  0  0  0  0  0  0  0  0  0  0
  140.7570   73.4010  219.9340 C   0  0  0  0  0  0  0  0  0  0  0  0
  141.7060   74.5230  220.1440 C   0  0  0  0  0  0  0  0  0  0  0  0
  141.8910   75.0690  221.2670 O   0  0  0  0  0  0  0  0  0  0  0  0
  142.4580   75.0320  219.0540 N   0  0  0  0  0  0  0  0  0  0  0  0
  142.3540   76.3790  218.5080 C   0  0  0  0  0  0  0  0  0  0  0  0
  142.7710   76.1740  217.0470 C   0  0  0  0  0  0  0  0  0  0  0  0
  143.9700   75.2700  217.2490 C   0  0  0  0  0  0  0  0  0  0  0  0
  143.4560   74.3070  218.2980 C   0  0  1  0  0  0  0  0  0  0  0  0
  144.5600   73.7790  219.1410 C   0  0  0  0  0  0  0  0  0  0  0  0
  145.5750   73.0290  218.6840 N   0  0  0  0  0  0  0  0  0  0  0  0
  146.3610   72.7470  219.7250 N   0  0  0  0  0  0  0  0  0  0  0  0
  145.8400   73.3200  220.8360 C   0  0  0  0  0  0  0  0  0  0  0  0
  144.7070   73.9700  220.4690 N   0  0  0  0  0  0  0  0  0  0  0  0
  140.1740   71.8370  223.3290 C   0  0  0  0  0  0  0  0  0  0  0  0
  139.6800   70.5650  223.1100 C   0  0  0  0  0  0  0  0  0  0  0  0
  139.6640   69.6140  224.1030 C   0  0  0  0  0  0  0  0  0  0  0  0
  140.1550   69.9370  225.3520 C   0  0  0  0  0  0  0  0  0  0  0  0
  140.1470   68.9960  226.3610 C   0  0  0  0  0  0  0  0  0  0  0  0
  140.6390   69.3300  227.6000 C   0  0  0  0  0  0  0  0  0  0  0  0
  140.6400   68.1510  228.8980 Cl  0  0  0  0  0  0  0  0  0  0  0  0
  141.1320   70.6000  227.8150 C   0  0  0  0  0  0  0  0  0  0  0  0
  141.1370   71.5400  226.8000 C   0  0  0  0  0  0  0  0  0  0  0  0
  140.6490   71.2230  225.5560 C   0  0  0  0  0  0  0  0  0  0  0  0
  140.6400   72.1140  224.5480 N   0  0  0  0  0  0  0  0  0  0  0  0
  141.2840   71.4970  220.9090 H   0  0  0  0  0  0  0  0  0  0  0  0
  141.0058   72.9021  218.9858 H   0  0  0  0  0  0  0  0  0  0  0  0
  139.7413   73.8229  219.9165 H   0  0  0  0  0  0  0  0  0  0  0  0
  141.3240   76.7587  218.5785 H   0  0  0  0  0  0  0  0  0  0  0  0
  142.9692   77.1186  219.0414 H   0  0  0  0  0  0  0  0  0  0  0  0
  141.9810   75.6818  216.4607 H   0  0  0  0  0  0  0  0  0  0  0  0
  142.9728   77.0981  216.4854 H   0  0  0  0  0  0  0  0  0  0  0  0
  144.2375   74.7453  216.3199 H   0  0  0  0  0  0  0  0  0  0  0  0
  144.8862   75.8030  217.5432 H   0  0  0  0  0  0  0  0  0  0  0  0
  143.0065   73.4118  217.8436 H   0  0  0  0  0  0  0  0  0  0  0  0
  146.2593   73.2679  221.8516 H   0  0  0  0  0  0  0  0  0  0  0  0
  144.0450   74.5230  221.0620 H   0  0  0  0  0  0  0  0  0  0  0  0
  139.2892   70.3065  222.1148 H   0  0  0  0  0  0  0  0  0  0  0  0
  139.2649   68.6083  223.9045 H   0  0  0  0  0  0  0  0  0  0  0  0
  139.7502   67.9870  226.1753 H   0  0  0  0  0  0  0  0  0  0  0  0
  141.5262   70.8689  228.8061 H   0  0  0  0  0  0  0  0  0  0  0  0
  141.5344   72.5479  226.9906 H   0  0  0  0  0  0  0  0  0  0  0  0
  1  2  2  0
  2  3  1  0
  3  4  1  0
  4  5  1  0
  5  6  2  0
  5  7  1  0
  7  8  1  0
  8  9  1  0
  9 10  1  0
 10 11  1  0
 11 12  1  0
 12 13  2  0
 13 14  1  0
 14 15  2  0
 15 16  1  0
  2 17  1  0
 17 18  2  0
 18 19  1  0
 19 20  2  0
 20 21  1  0
 21 22  2  0
 22 23  1  0
 22 24  1  0
 24 25  2  0
 25 26  1  0
 26 27  2  0
 11  7  1  0
 16 12  1  0
 27 17  1  0
 26 20  1  0
  3 28  1  0
  4 29  1  0
  4 30  1  0
  8 31  1  0
  8 32  1  0
  9 33  1  0
  9 34  1  0
 10 35  1  0
 10 36  1  0
 11 37  1  6
 15 38  1  0
 16 39  1  0
 18 40  1  0
 19 41  1  0
 21 42  1  0
 24 43  1  0
 25 44  1  0
M  END
>  <smiles>  (4) 
O=C(NCC(=O)N1CCC[C@H]1c1nnc[nH]1)c1ccc2cc(Cl)ccc2n1

>  <score_type>  (4) 
oracle

>  <origin>  (4) 
autodockgpu

>  <m_score__min__energy>  (4) 
-7.9900000000000002

>  <m_primary>  (4) 
energy

>  <rmsd>  (4) 
3.344591395284536

>  <m_score__min__rmsd>  (4) 
3.344591395284536

>  <meeko>  (4) 
{"free_energy": -7.99, "intermolecular_energy": -9.48, "internal_energy": -1.78, "cluster_size": 13, "cluster_id": 1, "rank_in_cluster": 1}

>  <energy>  (4) 
-7.39

>  <cluster_rmsd>  (4) 
1.79

>  <cluster>  (4) 
1

$$$$

     RDKit          3D

 44 47  0  0  0  0  0  0  0  0999 V2000
  140.2480   78.1090  218.6480 O   0  0  0  0  0  0  0  0  0  0  0  0
  141.4550   77.9470  218.9680 C   0  0  0  0  0  0  0  0  0  0  0  0
  142.2100   79.0930  219.4060 N   0  0  0  0  0  0  0  0  0  0  0  0
  141.5210   80.3470  219.4450 C   0  0  0  0  0  0  0  0  0  0  0  0
  140.6530   80.4850  220.6410 C   0  0  0  0  0  0  0  0  0  0  0  0
  139.4310   80.7960  220.5760 O   0  0  0  0  0  0  0  0  0  0  0  0
  141.1880   80.2630  221.9370 N   0  0  0  0  0  0  0  0  0  0  0  0
  141.2400   81.2460  223.0120 C   0  0  0  0  0  0  0  0  0  0  0  0
  142.4570   80.7830  223.8210 C   0  0  0  0  0  0  0  0  0  0  0  0
  142.1930   79.2910  223.8460 C   0  0  0  0  0  0  0  0  0  0  0  0
  141.7710   79.0290  222.4170 C   0  0  1  0  0  0  0  0  0  0  0  0
  140.8460   77.8700  222.3240 C   0  0  0  0  0  0  0  0  0  0  0  0
  139.5400   77.9110  222.6360 N   0  0  0  0  0  0  0  0  0  0  0  0
  139.0440   76.6900  222.4280 N   0  0  0  0  0  0  0  0  0  0  0  0
  140.0360   75.8810  221.9850 C   0  0  0  0  0  0  0  0  0  0  0  0
  141.1700   76.6230  221.9190 N   0  0  0  0  0  0  0  0  0  0  0  0
  142.1040   76.6470  218.9100 C   0  0  0  0  0  0  0  0  0  0  0  0
  141.6480   75.7290  217.9830 C   0  0  0  0  0  0  0  0  0  0  0  0
  142.2100   74.4800  217.8660 C   0  0  0  0  0  0  0  0  0  0  0  0
  143.2570   74.1330  218.6950 C   0  0  0  0  0  0  0  0  0  0  0  0
  143.8330   72.8830  218.5920 C   0  0  0  0  0  0  0  0  0  0  0  0
  144.8750   72.5490  219.4230 C   0  0  0  0  0  0  0  0  0  0  0  0
  145.6250   70.9670  219.3110 Cl  0  0  0  0  0  0  0  0  0  0  0  0
  145.3280   73.4680  220.3470 C   0  0  0  0  0  0  0  0  0  0  0  0
  144.7470   74.7190  220.4460 C   0  0  0  0  0  0  0  0  0  0  0  0
  143.7040   75.0690  219.6230 C   0  0  0  0  0  0  0  0  0  0  0  0
  143.1170   76.2780  219.6950 N   0  0  0  0  0  0  0  0  0  0  0  0
  143.2210   78.9640  219.6760 H   0  0  0  0  0  0  0  0  0  0  0  0
  142.2648   81.1574  219.4542 H   0  0  0  0  0  0  0  0  0  0  0  0
  140.8745   80.3994  218.5566 H   0  0  0  0  0  0  0  0  0  0  0  0
  141.3880   82.2616  222.6161 H   0  0  0  0  0  0  0  0  0  0  0  0
  140.3139   81.3012  223.6030 H   0  0  0  0  0  0  0  0  0  0  0  0
  143.4024   81.0233  223.3126 H   0  0  0  0  0  0  0  0  0  0  0  0
  142.5673   81.2540  224.8089 H   0  0  0  0  0  0  0  0  0  0  0  0
  143.1014   78.7275  224.1053 H   0  0  0  0  0  0  0  0  0  0  0  0
  141.4486   78.9822  224.5947 H   0  0  0  0  0  0  0  0  0  0  0  0
  142.6269   78.7469  221.7863 H   0  0  0  0  0  0  0  0  0  0  0  0
  139.9397   74.8163  221.7259 H   0  0  0  0  0  0  0  0  0  0  0  0
  142.1300   76.3330  221.6200 H   0  0  0  0  0  0  0  0  0  0  0  0
  140.8135   76.0050  217.3216 H   0  0  0  0  0  0  0  0  0  0  0  0
  141.8298   73.7660  217.1207 H   0  0  0  0  0  0  0  0  0  0  0  0
  143.4610   72.1603  217.8509 H   0  0  0  0  0  0  0  0  0  0  0  0
  146.1619   73.2023  221.0134 H   0  0  0  0  0  0  0  0  0  0  0  0
  145.1223   75.4386  221.1885 H   0  0  0  0  0  0  0  0  0  0  0  0
  1  2  2  0
  2  3  1  0
  3  4  1  0
  4  5  1  0
  5  6  2  0
  5  7  1  0
  7  8  1  0
  8  9  1  0
  9 10  1  0
 10 11  1  0
 11 12  1  0
 12 13  2  0
 13 14  1  0
 14 15  2  0
 15 16  1  0
  2 17  1  0
 17 18  2  0
 18 19  1  0
 19 20  2  0
 20 21  1  0
 21 22  2  0
 22 23  1  0
 22 24  1  0
 24 25  2  0
 25 26  1  0
 26 27  2  0
 11  7  1  0
 16 12  1  0
 27 17  1  0
 26 20  1  0
  3 28  1  0
  4 29  1  0
  4 30  1  0
  8 31  1  0
  8 32  1  0
  9 33  1  0
  9 34  1  0
 10 35  1  0
 10 36  1  0
 11 37  1  6
 15 38  1  0
 16 39  1  0
 18 40  1  0
 19 41  1  0
 21 42  1  0
 24 43  1  0
 25 44  1  0
M  END
>  <smiles>  (5) 
O=C(NCC(=O)N1CCC[C@H]1c1nnc[nH]1)c1ccc2cc(Cl)ccc2n1

>  <score_type>  (5) 
oracle

>  <origin>  (5) 
autodockgpu

>  <m_score__min__energy>  (5) 
-7.9900000000000002

>  <m_primary>  (5) 
energy

>  <rmsd>  (5) 
7.633255739989977

>  <m_score__min__rmsd>  (5) 
7.633255739989977

>  <meeko>  (5) 
{"free_energy": -6.35, "intermolecular_energy": -7.84, "internal_energy": -2.8, "cluster_size": 1, "cluster_id": 11, "rank_in_cluster": 1}

>  <energy>  (5) 
-7.38

>  <cluster_rmsd>  (5) 
1.63

>  <cluster>  (5) 
1

$$$$

     RDKit          3D

 44 47  0  0  0  0  0  0  0  0999 V2000
  139.0160   76.3070  222.9890 O   0  0  0  0  0  0  0  0  0  0  0  0
  139.6460   76.3950  221.9030 C   0  0  0  0  0  0  0  0  0  0  0  0
  139.3940   77.5330  221.0540 N   0  0  0  0  0  0  0  0  0  0  0  0
  138.4340   78.4880  221.5170 C   0  0  0  0  0  0  0  0  0  0  0  0
  139.0480   79.5640  222.3340 C   0  0  0  0  0  0  0  0  0  0  0  0
  138.3870   80.5200  222.8260 O   0  0  0  0  0  0  0  0  0  0  0  0
  140.4440   79.5500  222.5960 N   0  0  0  0  0  0  0  0  0  0  0  0
  141.0670   79.1260  223.8430 C   0  0  0  0  0  0  0  0  0  0  0  0
  142.3650   79.9400  223.8550 C   0  0  0  0  0  0  0  0  0  0  0  0
  142.7930   79.7570  222.4130 C   0  0  0  0  0  0  0  0  0  0  0  0
  141.4860   79.9500  221.6760 C   0  0  1  0  0  0  0  0  0  0  0  0
  141.4620   79.1920  220.3990 C   0  0  0  0  0  0  0  0  0  0  0  0
  140.6870   79.4990  219.3450 N   0  0  0  0  0  0  0  0  0  0  0  0
  140.9380   78.6000  218.3920 N   0  0  0  0  0  0  0  0  0  0  0  0
  141.8710   77.7280  218.8450 C   0  0  0  0  0  0  0  0  0  0  0  0
  142.2010   78.1000  220.1070 N   0  0  0  0  0  0  0  0  0  0  0  0
  140.6120   75.3940  221.4830 C   0  0  0  0  0  0  0  0  0  0  0  0
  140.2640   74.0610  221.5990 C   0  0  0  0  0  0  0  0  0  0  0  0
  141.1220   73.0550  221.2230 C   0  0  0  0  0  0  0  0  0  0  0  0
  142.3630   73.3830  220.7160 C   0  0  0  0  0  0  0  0  0  0  0  0
  143.2370   72.3870  220.3330 C   0  0  0  0  0  0  0  0  0  0  0  0
  144.4700   72.7260  219.8300 C   0  0  0  0  0  0  0  0  0  0  0  0
  145.5990   71.4770  219.3360 Cl  0  0  0  0  0  0  0  0  0  0  0  0
  144.8140   74.0570  219.7150 C   0  0  0  0  0  0  0  0  0  0  0  0
  143.9340   75.0510  220.1010 C   0  0  0  0  0  0  0  0  0  0  0  0
  142.6970   74.7300  220.6060 C   0  0  0  0  0  0  0  0  0  0  0  0
  141.8180   75.6740  220.9900 N   0  0  0  0  0  0  0  0  0  0  0  0
  139.9190   77.6130  220.1430 H   0  0  0  0  0  0  0  0  0  0  0  0
  137.9424   78.9445  220.6452 H   0  0  0  0  0  0  0  0  0  0  0  0
  137.7143   77.9545  222.1552 H   0  0  0  0  0  0  0  0  0  0  0  0
  140.4342   79.3730  224.7082 H   0  0  0  0  0  0  0  0  0  0  0  0
  141.2285   78.0398  223.9068 H   0  0  0  0  0  0  0  0  0  0  0  0
  142.1832   80.9975  224.0974 H   0  0  0  0  0  0  0  0  0  0  0  0
  143.1058   79.6261  224.6051 H   0  0  0  0  0  0  0  0  0  0  0  0
  143.5355   80.5126  222.1165 H   0  0  0  0  0  0  0  0  0  0  0  0
  143.2798   78.7913  222.2117 H   0  0  0  0  0  0  0  0  0  0  0  0
  141.3400   80.9977  221.3742 H   0  0  0  0  0  0  0  0  0  0  0  0
  142.2856   76.8735  218.2900 H   0  0  0  0  0  0  0  0  0  0  0  0
  142.8860   77.6600  220.7640 H   0  0  0  0  0  0  0  0  0  0  0  0
  139.2749   73.7987  222.0026 H   0  0  0  0  0  0  0  0  0  0  0  0
  140.8231   72.0013  221.3250 H   0  0  0  0  0  0  0  0  0  0  0  0
  142.9492   71.3297  220.4294 H   0  0  0  0  0  0  0  0  0  0  0  0
  145.8000   74.3306  219.3114 H   0  0  0  0  0  0  0  0  0  0  0  0
  144.2263   76.1069  220.0031 H   0  0  0  0  0  0  0  0  0  0  0  0
  1  2  2  0
  2  3  1  0
  3  4  1  0
  4  5  1  0
  5  6  2  0
  5  7  1  0
  7  8  1  0
  8  9  1  0
  9 10  1  0
 10 11  1  0
 11 12  1  0
 12 13  2  0
 13 14  1  0
 14 15  2  0
 15 16  1  0
  2 17  1  0
 17 18  2  0
 18 19  1  0
 19 20  2  0
 20 21  1  0
 21 22  2  0
 22 23  1  0
 22 24  1  0
 24 25  2  0
 25 26  1  0
 26 27  2  0
 11  7  1  0
 16 12  1  0
 27 17  1  0
 26 20  1  0
  3 28  1  0
  4 29  1  0
  4 30  1  0
  8 31  1  0
  8 32  1  0
  9 33  1  0
  9 34  1  0
 10 35  1  0
 10 36  1  0
 11 37  1  6
 15 38  1  0
 16 39  1  0
 18 40  1  0
 19 41  1  0
 21 42  1  0
 24 43  1  0
 25 44  1  0
M  END
>  <smiles>  (6) 
O=C(NCC(=O)N1CCC[C@H]1c1nnc[nH]1)c1ccc2cc(Cl)ccc2n1

>  <score_type>  (6) 
oracle

>  <origin>  (6) 
autodockgpu

>  <m_score__min__energy>  (6) 
-7.9900000000000002

>  <m_primary>  (6) 
energy

>  <rmsd>  (6) 
6.33710599004122

>  <m_score__min__rmsd>  (6) 
6.33710599004122

>  <meeko>  (6) 
{"free_energy": -5.79, "intermolecular_energy": -7.28, "internal_energy": -3.53, "cluster_size": 5, "cluster_id": 12, "rank_in_cluster": 1}

>  <energy>  (6) 
-7.33

>  <cluster_rmsd>  (6) 
1.64

>  <cluster>  (6) 
1

$$$$

     RDKit          3D

 44 47  0  0  0  0  0  0  0  0999 V2000
  140.5960   72.4400  220.7770 O   0  0  0  0  0  0  0  0  0  0  0  0
  140.2470   72.8130  221.9270 C   0  0  0  0  0  0  0  0  0  0  0  0
  139.8760   74.1920  222.1200 N   0  0  0  0  0  0  0  0  0  0  0  0
  139.9340   75.0460  220.9720 C   0  0  0  0  0  0  0  0  0  0  0  0
  140.9190   76.1450  221.1260 C   0  0  0  0  0  0  0  0  0  0  0  0
  141.0480   76.8120  222.1900 O   0  0  0  0  0  0  0  0  0  0  0  0
  141.7760   76.4890  220.0470 N   0  0  0  0  0  0  0  0  0  0  0  0
  142.1160   77.8450  219.6360 C   0  0  0  0  0  0  0  0  0  0  0  0
  142.4090   77.6700  218.1410 C   0  0  0  0  0  0  0  0  0  0  0  0
  143.2400   76.4040  218.1910 C   0  0  0  0  0  0  0  0  0  0  0  0
  142.4570   75.5600  219.1730 C   0  0  1  0  0  0  0  0  0  0  0  0
  143.3380   74.6100  219.9000 C   0  0  0  0  0  0  0  0  0  0  0  0
  144.5540   74.9150  220.3810 N   0  0  0  0  0  0  0  0  0  0  0  0
  145.0360   73.8170  220.9660 N   0  0  0  0  0  0  0  0  0  0  0  0
  144.1240   72.8220  220.8530 C   0  0  0  0  0  0  0  0  0  0  0  0
  143.0550   73.3200  220.1830 N   0  0  0  0  0  0  0  0  0  0  0  0
  140.2060   71.9010  223.0590 C   0  0  0  0  0  0  0  0  0  0  0  0
  139.6450   70.6520  222.8720 C   0  0  0  0  0  0  0  0  0  0  0  0
  139.5690   69.7330  223.8920 C   0  0  0  0  0  0  0  0  0  0  0  0
  140.0680   70.0660  225.1350 C   0  0  0  0  0  0  0  0  0  0  0  0
  140.0000   69.1570  226.1710 C   0  0  0  0  0  0  0  0  0  0  0  0
  140.5000   69.4990  227.4040 C   0  0  0  0  0  0  0  0  0  0  0  0
  140.4270   68.3610  228.7360 Cl  0  0  0  0  0  0  0  0  0  0  0  0
  141.0600   70.7460  227.5870 C   0  0  0  0  0  0  0  0  0  0  0  0
  141.1250   71.6540  226.5460 C   0  0  0  0  0  0  0  0  0  0  0  0
  140.6300   71.3280  225.3060 C   0  0  0  0  0  0  0  0  0  0  0  0
  140.6780   72.1880  224.2730 N   0  0  0  0  0  0  0  0  0  0  0  0
  139.5820   74.5120  223.0810 H   0  0  0  0  0  0  0  0  0  0  0  0
  140.2151   74.4413  220.0972 H   0  0  0  0  0  0  0  0  0  0  0  0
  138.9416   75.5038  220.8476 H   0  0  0  0  0  0  0  0  0  0  0  0
  141.2738   78.5335  219.7989 H   0  0  0  0  0  0  0  0  0  0  0  0
  142.9539   78.2793  220.2010 H   0  0  0  0  0  0  0  0  0  0  0  0
  141.4875   77.5323  217.5564 H   0  0  0  0  0  0  0  0  0  0  0  0
  142.8966   78.5293  217.6574 H   0  0  0  0  0  0  0  0  0  0  0  0
  143.2959   75.9220  217.2038 H   0  0  0  0  0  0  0  0  0  0  0  0
  144.2879   76.5695  218.4816 H   0  0  0  0  0  0  0  0  0  0  0  0
  141.7242   74.9173  218.6632 H   0  0  0  0  0  0  0  0  0  0  0  0
  144.2309   71.7961  221.2353 H   0  0  0  0  0  0  0  0  0  0  0  0
  142.1650   72.8400  219.9140 H   0  0  0  0  0  0  0  0  0  0  0  0
  139.2488   70.3859  221.8809 H   0  0  0  0  0  0  0  0  0  0  0  0
  139.1164   68.7454  223.7196 H   0  0  0  0  0  0  0  0  0  0  0  0
  139.5491   68.1665  226.0109 H   0  0  0  0  0  0  0  0  0  0  0  0
  141.4601   71.0219  228.5738 H   0  0  0  0  0  0  0  0  0  0  0  0
  141.5758   72.6436  226.7115 H   0  0  0  0  0  0  0  0  0  0  0  0
  1  2  2  0
  2  3  1  0
  3  4  1  0
  4  5  1  0
  5  6  2  0
  5  7  1  0
  7  8  1  0
  8  9  1  0
  9 10  1  0
 10 11  1  0
 11 12  1  0
 12 13  2  0
 13 14  1  0
 14 15  2  0
 15 16  1  0
  2 17  1  0
 17 18  2  0
 18 19  1  0
 19 20  2  0
 20 21  1  0
 21 22  2  0
 22 23  1  0
 22 24  1  0
 24 25  2  0
 25 26  1  0
 26 27  2  0
 11  7  1  0
 16 12  1  0
 27 17  1  0
 26 20  1  0
  3 28  1  0
  4 29  1  0
  4 30  1  0
  8 31  1  0
  8 32  1  0
  9 33  1  0
  9 34  1  0
 10 35  1  0
 10 36  1  0
 11 37  1  6
 15 38  1  0
 16 39  1  0
 18 40  1  0
 19 41  1  0
 21 42  1  0
 24 43  1  0
 25 44  1  0
M  END
>  <smiles>  (7) 
O=C(NCC(=O)N1CCC[C@H]1c1nnc[nH]1)c1ccc2cc(Cl)ccc2n1

>  <score_type>  (7) 
oracle

>  <origin>  (7) 
autodockgpu

>  <m_score__min__energy>  (7) 
-7.9900000000000002

>  <m_primary>  (7) 
energy

>  <rmsd>  (7) 
3.127349239659323

>  <m_score__min__rmsd>  (7) 
3.127349239659323

>  <meeko>  (7) 
{"free_energy": -7.38, "intermolecular_energy": -8.88, "internal_energy": -2.29, "cluster_size": 13, "cluster_id": 1, "rank_in_cluster": 5}

>  <energy>  (7) 
-7.29

>  <cluster_rmsd>  (7) 
1.46

>  <cluster>  (7) 
1

$$$$

     RDKit          3D

 44 47  0  0  0  0  0  0  0  0999 V2000
  140.6180   72.5580  220.8100 O   0  0  0  0  0  0  0  0  0  0  0  0
  140.2410   72.9080  221.9590 C   0  0  0  0  0  0  0  0  0  0  0  0
  139.8290   74.2750  222.1580 N   0  0  0  0  0  0  0  0  0  0  0  0
  139.8800   75.1410  221.0200 C   0  0  0  0  0  0  0  0  0  0  0  0
  140.0700   76.5650  221.3940 C   0  0  0  0  0  0  0  0  0  0  0  0
  139.8370   77.0120  222.5510 O   0  0  0  0  0  0  0  0  0  0  0  0
  140.5350   77.4970  220.4300 N   0  0  0  0  0  0  0  0  0  0  0  0
  139.8280   77.8840  219.2150 C   0  0  0  0  0  0  0  0  0  0  0  0
  140.9760   78.2760  218.2780 C   0  0  0  0  0  0  0  0  0  0  0  0
  141.8240   79.0840  219.2390 C   0  0  0  0  0  0  0  0  0  0  0  0
  141.7840   78.2250  220.4840 C   0  0  1  0  0  0  0  0  0  0  0  0
  141.9340   79.0400  221.7160 C   0  0  0  0  0  0  0  0  0  0  0  0
  142.0900   80.3740  221.7330 N   0  0  0  0  0  0  0  0  0  0  0  0
  142.1890   80.7470  223.0100 N   0  0  0  0  0  0  0  0  0  0  0  0
  142.0970   79.6480  223.7970 C   0  0  0  0  0  0  0  0  0  0  0  0
  141.9350   78.5740  222.9840 N   0  0  0  0  0  0  0  0  0  0  0  0
  140.2080   71.9850  223.0800 C   0  0  0  0  0  0  0  0  0  0  0  0
  139.6510   70.7350  222.8820 C   0  0  0  0  0  0  0  0  0  0  0  0
  139.5830   69.8050  223.8930 C   0  0  0  0  0  0  0  0  0  0  0  0
  140.0850   70.1260  225.1380 C   0  0  0  0  0  0  0  0  0  0  0  0
  140.0250   69.2060  226.1640 C   0  0  0  0  0  0  0  0  0  0  0  0
  140.5280   69.5380  227.3990 C   0  0  0  0  0  0  0  0  0  0  0  0
  140.4640   68.3850  228.7190 Cl  0  0  0  0  0  0  0  0  0  0  0  0
  141.0840   70.7850  227.5930 C   0  0  0  0  0  0  0  0  0  0  0  0
  141.1400   71.7040  226.5610 C   0  0  0  0  0  0  0  0  0  0  0  0
  140.6420   71.3890  225.3200 C   0  0  0  0  0  0  0  0  0  0  0  0
  140.6820   72.2610  224.2960 N   0  0  0  0  0  0  0  0  0  0  0  0
  139.5110   74.5760  223.1180 H   0  0  0  0  0  0  0  0  0  0  0  0
  140.7178   74.8305  220.3784 H   0  0  0  0  0  0  0  0  0  0  0  0
  138.9160   75.0600  220.4964 H   0  0  0  0  0  0  0  0  0  0  0  0
  139.2497   77.0425  218.8057 H   0  0  0  0  0  0  0  0  0  0  0  0
  139.0933   78.6877  219.3707 H   0  0  0  0  0  0  0  0  0  0  0  0
  141.5140   77.3948  217.8983 H   0  0  0  0  0  0  0  0  0  0  0  0
  140.6717   78.8073  217.3642 H   0  0  0  0  0  0  0  0  0  0  0  0
  142.8521   79.2004  218.8655 H   0  0  0  0  0  0  0  0  0  0  0  0
  141.4642   80.1117  219.3950 H   0  0  0  0  0  0  0  0  0  0  0  0
  142.6285   77.5210  220.5189 H   0  0  0  0  0  0  0  0  0  0  0  0
  142.1450   79.6298  224.8958 H   0  0  0  0  0  0  0  0  0  0  0  0
  141.8280   77.5650  223.2400 H   0  0  0  0  0  0  0  0  0  0  0  0
  139.2518   70.4776  221.8898 H   0  0  0  0  0  0  0  0  0  0  0  0
  139.1340   68.8174  223.7116 H   0  0  0  0  0  0  0  0  0  0  0  0
  139.5783   68.2151  225.9951 H   0  0  0  0  0  0  0  0  0  0  0  0
  141.4879   71.0520  228.5807 H   0  0  0  0  0  0  0  0  0  0  0  0
  141.5864   72.6941  226.7351 H   0  0  0  0  0  0  0  0  0  0  0  0
  1  2  2  0
  2  3  1  0
  3  4  1  0
  4  5  1  0
  5  6  2  0
  5  7  1  0
  7  8  1  0
  8  9  1  0
  9 10  1  0
 10 11  1  0
 11 12  1  0
 12 13  2  0
 13 14  1  0
 14 15  2  0
 15 16  1  0
  2 17  1  0
 17 18  2  0
 18 19  1  0
 19 20  2  0
 20 21  1  0
 21 22  2  0
 22 23  1  0
 22 24  1  0
 24 25  2  0
 25 26  1  0
 26 27  2  0
 11  7  1  0
 16 12  1  0
 27 17  1  0
 26 20  1  0
  3 28  1  0
  4 29  1  0
  4 30  1  0
  8 31  1  0
  8 32  1  0
  9 33  1  0
  9 34  1  0
 10 35  1  0
 10 36  1  0
 11 37  1  6
 15 38  1  0
 16 39  1  0
 18 40  1  0
 19 41  1  0
 21 42  1  0
 24 43  1  0
 25 44  1  0
M  END
>  <smiles>  (8) 
O=C(NCC(=O)N1CCC[C@H]1c1nnc[nH]1)c1ccc2cc(Cl)ccc2n1

>  <score_type>  (8) 
oracle

>  <origin>  (8) 
autodockgpu

>  <m_score__min__energy>  (8) 
-7.9900000000000002

>  <m_primary>  (8) 
energy

>  <rmsd>  (8) 
2.0494895695628492

>  <m_score__min__rmsd>  (8) 
2.0494895695628492

>  <meeko>  (8) 
{"free_energy": -7.72, "intermolecular_energy": -9.21, "internal_energy": -1.99, "cluster_size": 11, "cluster_id": 2, "rank_in_cluster": 4}

>  <energy>  (8) 
-7.23

>  <cluster_rmsd>  (8) 
1.6

>  <cluster>  (8) 
1

$$$$

     RDKit          3D

 44 47  0  0  0  0  0  0  0  0999 V2000
  135.2610   68.5640  224.7990 O   0  0  0  0  0  0  0  0  0  0  0  0
  135.6860   69.7410  224.9340 C   0  0  0  0  0  0  0  0  0  0  0  0
  137.0250   70.0420  224.4920 N   0  0  0  0  0  0  0  0  0  0  0  0
  137.7790   68.9650  223.9260 C   0  0  0  0  0  0  0  0  0  0  0  0
  138.8980   68.5320  224.7990 C   0  0  0  0  0  0  0  0  0  0  0  0
  139.2120   67.3210  224.9700 O   0  0  0  0  0  0  0  0  0  0  0  0
  139.6750   69.4980  225.4910 N   0  0  0  0  0  0  0  0  0  0  0  0
  140.7250   69.2060  226.4580 C   0  0  0  0  0  0  0  0  0  0  0  0
  140.7020   70.4490  227.3540 C   0  0  0  0  0  0  0  0  0  0  0  0
  140.5950   71.5250  226.2930 C   0  0  0  0  0  0  0  0  0  0  0  0
  139.5630   70.9340  225.3580 C   0  0  1  0  0  0  0  0  0  0  0  0
  139.7540   71.4090  223.9630 C   0  0  0  0  0  0  0  0  0  0  0  0
  138.7690   71.8620  223.1700 N   0  0  0  0  0  0  0  0  0  0  0  0
  139.3200   72.1940  222.0020 N   0  0  0  0  0  0  0  0  0  0  0  0
  140.6520   71.9500  222.0580 C   0  0  0  0  0  0  0  0  0  0  0  0
  140.9250   71.4560  223.2920 N   0  0  0  0  0  0  0  0  0  0  0  0
  134.8740   70.7970  225.5160 C   0  0  0  0  0  0  0  0  0  0  0  0
  133.8710   70.4400  226.3960 C   0  0  0  0  0  0  0  0  0  0  0  0
  133.0600   71.3810  226.9890 C   0  0  0  0  0  0  0  0  0  0  0  0
  133.2550   72.7160  226.6980 C   0  0  0  0  0  0  0  0  0  0  0  0
  132.4520   73.6730  227.2820 C   0  0  0  0  0  0  0  0  0  0  0  0
  132.6550   74.9990  226.9840 C   0  0  0  0  0  0  0  0  0  0  0  0
  131.6470   76.2350  227.7160 Cl  0  0  0  0  0  0  0  0  0  0  0  0
  133.6580   75.3520  226.1060 C   0  0  0  0  0  0  0  0  0  0  0  0
  134.4590   74.3880  225.5220 C   0  0  0  0  0  0  0  0  0  0  0  0
  134.2700   73.0580  225.8080 C   0  0  0  0  0  0  0  0  0  0  0  0
  135.0330   72.0960  225.2570 N   0  0  0  0  0  0  0  0  0  0  0  0
  137.3870   71.0260  224.6010 H   0  0  0  0  0  0  0  0  0  0  0  0
  137.1060   68.1098  223.7655 H   0  0  0  0  0  0  0  0  0  0  0  0
  138.2129   69.3225  222.9805 H   0  0  0  0  0  0  0  0  0  0  0  0
  140.4950   68.2968  227.0328 H   0  0  0  0  0  0  0  0  0  0  0  0
  141.7055   69.0141  225.9977 H   0  0  0  0  0  0  0  0  0  0  0  0
  139.8335   70.4514  228.0290 H   0  0  0  0  0  0  0  0  0  0  0  0
  141.5597   70.5491  228.0354 H   0  0  0  0  0  0  0  0  0  0  0  0
  140.2490   72.4773  226.7214 H   0  0  0  0  0  0  0  0  0  0  0  0
  141.5510   71.7679  225.8060 H   0  0  0  0  0  0  0  0  0  0  0  0
  138.5450   71.2577  225.6202 H   0  0  0  0  0  0  0  0  0  0  0  0
  141.3791   72.1212  221.2505 H   0  0  0  0  0  0  0  0  0  0  0  0
  141.8450   71.1570  223.6920 H   0  0  0  0  0  0  0  0  0  0  0  0
  133.7163   69.3761  226.6290 H   0  0  0  0  0  0  0  0  0  0  0  0
  132.2666   71.0729  227.6859 H   0  0  0  0  0  0  0  0  0  0  0  0
  131.6555   73.3773  227.9807 H   0  0  0  0  0  0  0  0  0  0  0  0
  133.8229   76.4131  225.8674 H   0  0  0  0  0  0  0  0  0  0  0  0
  135.2535   74.6885  224.8231 H   0  0  0  0  0  0  0  0  0  0  0  0
  1  2  2  0
  2  3  1  0
  3  4  1  0
  4  5  1  0
  5  6  2  0
  5  7  1  0
  7  8  1  0
  8  9  1  0
  9 10  1  0
 10 11  1  0
 11 12  1  0
 12 13  2  0
 13 14  1  0
 14 15  2  0
 15 16  1  0
  2 17  1  0
 17 18  2  0
 18 19  1  0
 19 20  2  0
 20 21  1  0
 21 22  2  0
 22 23  1  0
 22 24  1  0
 24 25  2  0
 25 26  1  0
 26 27  2  0
 11  7  1  0
 16 12  1  0
 27 17  1  0
 26 20  1  0
  3 28  1  0
  4 29  1  0
  4 30  1  0
  8 31  1  0
  8 32  1  0
  9 33  1  0
  9 34  1  0
 10 35  1  0
 10 36  1  0
 11 37  1  1
 15 38  1  0
 16 39  1  0
 18 40  1  0
 19 41  1  0
 21 42  1  0
 24 43  1  0
 25 44  1  0
M  END
>  <smiles>  (9) 
O=C(NCC(=O)N1CCC[C@H]1c1nnc[nH]1)c1ccc2cc(Cl)ccc2n1

>  <score_type>  (9) 
oracle

>  <origin>  (9) 
autodockgpu

>  <m_score__min__energy>  (9) 
-7.9900000000000002

>  <m_primary>  (9) 
energy

>  <rmsd>  (9) 
7.9349761676181645

>  <m_score__min__rmsd>  (9) 
7.9349761676181645

>  <meeko>  (9) 
{"free_energy": -7.03, "intermolecular_energy": -8.52, "internal_energy": -2.08, "cluster_size": 2, "cluster_id": 6, "rank_in_cluster": 1}

>  <energy>  (9) 
-6.75

>  <cluster_rmsd>  (9) 
1.73

>  <cluster>  (9) 
1

$$$$

     RDKit          3D

 44 47  0  0  0  0  0  0  0  0999 V2000
  134.0670   69.2490  226.2980 O   0  0  0  0  0  0  0  0  0  0  0  0
  134.4810   70.3880  225.9570 C   0  0  0  0  0  0  0  0  0  0  0  0
  135.6540   70.4710  225.1230 N   0  0  0  0  0  0  0  0  0  0  0  0
  136.2670   69.2350  224.7410 C   0  0  0  0  0  0  0  0  0  0  0  0
  137.7360   69.2370  224.9540 C   0  0  0  0  0  0  0  0  0  0  0  0
  138.3390   68.3460  225.6150 O   0  0  0  0  0  0  0  0  0  0  0  0
  138.5330   70.2750  224.4030 N   0  0  0  0  0  0  0  0  0  0  0  0
  138.0920   71.2440  223.4090 C   0  0  0  0  0  0  0  0  0  0  0  0
  139.4000   71.5960  222.6910 C   0  0  0  0  0  0  0  0  0  0  0  0
  140.3160   71.7420  223.8890 C   0  0  0  0  0  0  0  0  0  0  0  0
  139.9140   70.5510  224.7310 C   0  0  1  0  0  0  0  0  0  0  0  0
  140.1320   70.8070  226.1780 C   0  0  0  0  0  0  0  0  0  0  0  0
  140.7760   71.8770  226.6740 N   0  0  0  0  0  0  0  0  0  0  0  0
  140.7730   71.7610  228.0030 N   0  0  0  0  0  0  0  0  0  0  0  0
  140.1280   70.6190  228.3440 C   0  0  0  0  0  0  0  0  0  0  0  0
  139.7240   70.0190  227.1960 N   0  0  0  0  0  0  0  0  0  0  0  0
  133.8170   71.6110  226.3740 C   0  0  0  0  0  0  0  0  0  0  0  0
  132.6670   71.5050  227.1340 C   0  0  0  0  0  0  0  0  0  0  0  0
  131.9810   72.6150  227.5680 C   0  0  0  0  0  0  0  0  0  0  0  0
  132.4530   73.8690  227.2370 C   0  0  0  0  0  0  0  0  0  0  0  0
  131.7790   74.9940  227.6630 C   0  0  0  0  0  0  0  0  0  0  0  0
  132.2590   76.2370  227.3280 C   0  0  0  0  0  0  0  0  0  0  0  0
  131.4190   77.6830  227.8590 Cl  0  0  0  0  0  0  0  0  0  0  0  0
  133.4070   76.3400  226.5700 C   0  0  0  0  0  0  0  0  0  0  0  0
  134.0780   75.2090  226.1450 C   0  0  0  0  0  0  0  0  0  0  0  0
  133.6130   73.9580  226.4710 C   0  0  0  0  0  0  0  0  0  0  0  0
  134.2440   72.8380  226.0730 N   0  0  0  0  0  0  0  0  0  0  0  0
  136.0060   71.4220  224.8330 H   0  0  0  0  0  0  0  0  0  0  0  0
  135.8255   68.4234  225.3380 H   0  0  0  0  0  0  0  0  0  0  0  0
  136.0863   69.0918  223.6654 H   0  0  0  0  0  0  0  0  0  0  0  0
  137.3640   70.7990  222.7147 H   0  0  0  0  0  0  0  0  0  0  0  0
  137.5793   72.1157  223.8417 H   0  0  0  0  0  0  0  0  0  0  0  0
  139.7289   70.7890  222.0197 H   0  0  0  0  0  0  0  0  0  0  0  0
  139.3489   72.4757  222.0326 H   0  0  0  0  0  0  0  0  0  0  0  0
  141.3741   71.6852  223.5937 H   0  0  0  0  0  0  0  0  0  0  0  0
  140.2214   72.7073  224.4078 H   0  0  0  0  0  0  0  0  0  0  0  0
  140.5357   69.6703  224.5125 H   0  0  0  0  0  0  0  0  0  0  0  0
  139.9622   70.2463  229.3655 H   0  0  0  0  0  0  0  0  0  0  0  0
  139.1990   69.1230  227.0720 H   0  0  0  0  0  0  0  0  0  0  0  0
  132.2906   70.5059  227.3987 H   0  0  0  0  0  0  0  0  0  0  0  0
  131.0678   72.5049  228.1712 H   0  0  0  0  0  0  0  0  0  0  0  0
  130.8643   74.8970  228.2662 H   0  0  0  0  0  0  0  0  0  0  0  0
  133.7929   77.3342  226.3006 H   0  0  0  0  0  0  0  0  0  0  0  0
  134.9916   75.3112  225.5410 H   0  0  0  0  0  0  0  0  0  0  0  0
  1  2  2  0
  2  3  1  0
  3  4  1  0
  4  5  1  0
  5  6  2  0
  5  7  1  0
  7  8  1  0
  8  9  1  0
  9 10  1  0
 10 11  1  0
 11 12  1  0
 12 13  2  0
 13 14  1  0
 14 15  2  0
 15 16  1  0
  2 17  1  0
 17 18  2  0
 18 19  1  0
 19 20  2  0
 20 21  1  0
 21 22  2  0
 22 23  1  0
 22 24  1  0
 24 25  2  0
 25 26  1  0
 26 27  2  0
 11  7  1  0
 16 12  1  0
 27 17  1  0
 26 20  1  0
  3 28  1  0
  4 29  1  0
  4 30  1  0
  8 31  1  0
  8 32  1  0
  9 33  1  0
  9 34  1  0
 10 35  1  0
 10 36  1  0
 11 37  1  6
 15 38  1  0
 16 39  1  0
 18 40  1  0
 19 41  1  0
 21 42  1  0
 24 43  1  0
 25 44  1  0
M  END
>  <smiles>  (10) 
O=C(NCC(=O)N1CCC[C@H]1c1nnc[nH]1)c1ccc2cc(Cl)ccc2n1

>  <score_type>  (10) 
oracle

>  <origin>  (10) 
autodockgpu

>  <m_score__min__energy>  (10) 
-7.9900000000000002

>  <m_primary>  (10) 
energy

>  <rmsd>  (10) 
8.145893125024166

>  <m_score__min__rmsd>  (10) 
8.145893125024166

>  <meeko>  (10) 
{"free_energy": -7.45, "intermolecular_energy": -8.95, "internal_energy": -2.08, "cluster_size": 3, "cluster_id": 4, "rank_in_cluster": 1}

>  <energy>  (10) 
-6.71

>  <cluster_rmsd>  (10) 
1.76

>  <cluster>  (10) 
1

$$$$

     RDKit          3D

 44 47  0  0  0  0  0  0  0  0999 V2000
  140.1910   72.5390  220.8390 O   0  0  0  0  0  0  0  0  0  0  0  0
  139.9210   72.8800  222.0200 C   0  0  0  0  0  0  0  0  0  0  0  0
  139.5240   74.2430  222.2670 N   0  0  0  0  0  0  0  0  0  0  0  0
  139.4670   75.1180  221.1360 C   0  0  0  0  0  0  0  0  0  0  0  0
  140.6400   76.0240  221.0560 C   0  0  0  0  0  0  0  0  0  0  0  0
  141.7590   75.7540  221.5740 O   0  0  0  0  0  0  0  0  0  0  0  0
  140.5350   77.2640  220.3720 N   0  0  0  0  0  0  0  0  0  0  0  0
  139.4940   77.6180  219.4150 C   0  0  0  0  0  0  0  0  0  0  0  0
  140.2050   78.6380  218.5190 C   0  0  0  0  0  0  0  0  0  0  0  0
  140.9080   79.4620  219.5780 C   0  0  0  0  0  0  0  0  0  0  0  0
  141.4370   78.3870  220.5030 C   0  0  1  0  0  0  0  0  0  0  0  0
  141.5580   78.8800  221.9000 C   0  0  0  0  0  0  0  0  0  0  0  0
  141.4780   80.1700  222.2620 N   0  0  0  0  0  0  0  0  0  0  0  0
  141.6330   80.2220  223.5860 N   0  0  0  0  0  0  0  0  0  0  0  0
  141.8110   78.9640  224.0570 C   0  0  0  0  0  0  0  0  0  0  0  0
  141.7630   78.1190  222.9970 N   0  0  0  0  0  0  0  0  0  0  0  0
  139.9940   71.9480  223.1330 C   0  0  0  0  0  0  0  0  0  0  0  0
  139.5430   70.6560  222.9350 C   0  0  0  0  0  0  0  0  0  0  0  0
  139.5800   69.7160  223.9370 C   0  0  0  0  0  0  0  0  0  0  0  0
  140.0810   70.0690  225.1740 C   0  0  0  0  0  0  0  0  0  0  0  0
  140.1250   69.1390  226.1920 C   0  0  0  0  0  0  0  0  0  0  0  0
  140.6260   69.5030  227.4180 C   0  0  0  0  0  0  0  0  0  0  0  0
  140.6940   68.3390  228.7280 Cl  0  0  0  0  0  0  0  0  0  0  0  0
  141.0760   70.7930  227.6120 C   0  0  0  0  0  0  0  0  0  0  0  0
  141.0290   71.7210  226.5890 C   0  0  0  0  0  0  0  0  0  0  0  0
  140.5310   71.3740  225.3560 C   0  0  0  0  0  0  0  0  0  0  0  0
  140.4710   72.2540  224.3400 N   0  0  0  0  0  0  0  0  0  0  0  0
  139.2950   74.5360  223.2540 H   0  0  0  0  0  0  0  0  0  0  0  0
  139.4291   74.5089  220.2208 H   0  0  0  0  0  0  0  0  0  0  0  0
  138.5690   75.7441  221.2439 H   0  0  0  0  0  0  0  0  0  0  0  0
  139.1684   76.7399  218.8380 H   0  0  0  0  0  0  0  0  0  0  0  0
  138.5788   78.0076  219.8847 H   0  0  0  0  0  0  0  0  0  0  0  0
  140.9187   78.1551  217.8352 H   0  0  0  0  0  0  0  0  0  0  0  0
  139.5461   79.2071  217.8467 H   0  0  0  0  0  0  0  0  0  0  0  0
  141.7260   80.0569  219.1456 H   0  0  0  0  0  0  0  0  0  0  0  0
  140.2588   80.1982  220.0745 H   0  0  0  0  0  0  0  0  0  0  0  0
  142.4583   78.0830  220.2302 H   0  0  0  0  0  0  0  0  0  0  0  0
  141.9663   78.6796  225.1082 H   0  0  0  0  0  0  0  0  0  0  0  0
  141.8610   77.0770  222.9810 H   0  0  0  0  0  0  0  0  0  0  0  0
  139.1441   70.3731  221.9497 H   0  0  0  0  0  0  0  0  0  0  0  0
  139.2147   68.6944  223.7554 H   0  0  0  0  0  0  0  0  0  0  0  0
  139.7619   68.1145  226.0233 H   0  0  0  0  0  0  0  0  0  0  0  0
  141.4772   71.0864  228.5933 H   0  0  0  0  0  0  0  0  0  0  0  0
  141.3927   72.7445  226.7629 H   0  0  0  0  0  0  0  0  0  0  0  0
  1  2  2  0
  2  3  1  0
  3  4  1  0
  4  5  1  0
  5  6  2  0
  5  7  1  0
  7  8  1  0
  8  9  1  0
  9 10  1  0
 10 11  1  0
 11 12  1  0
 12 13  2  0
 13 14  1  0
 14 15  2  0
 15 16  1  0
  2 17  1  0
 17 18  2  0
 18 19  1  0
 19 20  2  0
 20 21  1  0
 21 22  2  0
 22 23  1  0
 22 24  1  0
 24 25  2  0
 25 26  1  0
 26 27  2  0
 11  7  1  0
 16 12  1  0
 27 17  1  0
 26 20  1  0
  3 28  1  0
  4 29  1  0
  4 30  1  0
  8 31  1  0
  8 32  1  0
  9 33  1  0
  9 34  1  0
 10 35  1  0
 10 36  1  0
 11 37  1  6
 15 38  1  0
 16 39  1  0
 18 40  1  0
 19 41  1  0
 21 42  1  0
 24 43  1  0
 25 44  1  0
M  END
>  <smiles>  (11) 
O=C(NCC(=O)N1CCC[C@H]1c1nnc[nH]1)c1ccc2cc(Cl)ccc2n1

>  <score_type>  (11) 
oracle

>  <origin>  (11) 
autodockgpu

>  <m_score__min__energy>  (11) 
-7.9900000000000002

>  <m_primary>  (11) 
energy

>  <rmsd>  (11) 
1.9534723606904811

>  <m_score__min__rmsd>  (11) 
1.9534723606904811

>  <meeko>  (11) 
{"free_energy": -7.49, "intermolecular_energy": -8.98, "internal_energy": -1.9, "cluster_size": 11, "cluster_id": 2, "rank_in_cluster": 9}

>  <energy>  (11) 
-6.71

>  <cluster_rmsd>  (11) 
1.76

>  <cluster>  (11) 
1

$$$$

     RDKit          3D

 44 47  0  0  0  0  0  0  0  0999 V2000
  136.7060   71.0950  221.4650 O   0  0  0  0  0  0  0  0  0  0  0  0
  137.4400   71.6760  222.3060 C   0  0  0  0  0  0  0  0  0  0  0  0
  137.6800   73.0880  222.1480 N   0  0  0  0  0  0  0  0  0  0  0  0
  137.0560   73.7310  221.0320 C   0  0  0  0  0  0  0  0  0  0  0  0
  137.8920   74.8150  220.4570 C   0  0  0  0  0  0  0  0  0  0  0  0
  137.8660   75.1340  219.2360 O   0  0  0  0  0  0  0  0  0  0  0  0
  138.7740   75.5510  221.2910 N   0  0  0  0  0  0  0  0  0  0  0  0
  138.3720   76.4940  222.3270 C   0  0  0  0  0  0  0  0  0  0  0  0
  139.5660   77.4530  222.3790 C   0  0  0  0  0  0  0  0  0  0  0  0
  140.7010   76.4500  222.3290 C   0  0  0  0  0  0  0  0  0  0  0  0
  140.2190   75.4930  221.2610 C   0  0  1  0  0  0  0  0  0  0  0  0
  140.7550   74.1240  221.4730 C   0  0  0  0  0  0  0  0  0  0  0  0
  140.3920   73.3110  222.4780 N   0  0  0  0  0  0  0  0  0  0  0  0
  141.0790   72.1760  222.3390 N   0  0  0  0  0  0  0  0  0  0  0  0
  141.8750   72.2740  221.2470 C   0  0  0  0  0  0  0  0  0  0  0  0
  141.6710   73.4990  220.7010 N   0  0  0  0  0  0  0  0  0  0  0  0
  138.0480   70.9720  223.4230 C   0  0  0  0  0  0  0  0  0  0  0  0
  137.6350   69.6790  223.6830 C   0  0  0  0  0  0  0  0  0  0  0  0
  138.1620   68.9460  224.7200 C   0  0  0  0  0  0  0  0  0  0  0  0
  139.1300   69.5160  225.5230 C   0  0  0  0  0  0  0  0  0  0  0  0
  139.6700   68.7970  226.5690 C   0  0  0  0  0  0  0  0  0  0  0  0
  140.6330   69.3750  227.3600 C   0  0  0  0  0  0  0  0  0  0  0  0
  141.3350   68.4800  228.6960 Cl  0  0  0  0  0  0  0  0  0  0  0  0
  141.0430   70.6650  227.0980 C   0  0  0  0  0  0  0  0  0  0  0  0
  140.4970   71.3820  226.0490 C   0  0  0  0  0  0  0  0  0  0  0  0
  139.5340   70.8200  225.2470 C   0  0  0  0  0  0  0  0  0  0  0  0
  138.9840   71.4900  224.2180 N   0  0  0  0  0  0  0  0  0  0  0  0
  138.2940   73.5820  222.8490 H   0  0  0  0  0  0  0  0  0  0  0  0
  136.8687   72.9788  220.2515 H   0  0  0  0  0  0  0  0  0  0  0  0
  136.1205   74.1859  221.3898 H   0  0  0  0  0  0  0  0  0  0  0  0
  137.4487   77.0226  222.0476 H   0  0  0  0  0  0  0  0  0  0  0  0
  138.1482   76.0174  223.2928 H   0  0  0  0  0  0  0  0  0  0  0  0
  139.5826   78.1336  221.5150 H   0  0  0  0  0  0  0  0  0  0  0  0
  139.5814   78.1320  223.2443 H   0  0  0  0  0  0  0  0  0  0  0  0
  141.6475   76.9299  222.0396 H   0  0  0  0  0  0  0  0  0  0  0  0
  140.9147   75.9695  223.2951 H   0  0  0  0  0  0  0  0  0  0  0  0
  140.5854   75.7785  220.2639 H   0  0  0  0  0  0  0  0  0  0  0  0
  142.5616   71.5010  220.8715 H   0  0  0  0  0  0  0  0  0  0  0  0
  142.1120   73.9220  219.8520 H   0  0  0  0  0  0  0  0  0  0  0  0
  136.8642   69.2243  223.0434 H   0  0  0  0  0  0  0  0  0  0  0  0
  137.8169   67.9185  224.9076 H   0  0  0  0  0  0  0  0  0  0  0  0
  139.3323   67.7692  226.7681 H   0  0  0  0  0  0  0  0  0  0  0  0
  141.8136   71.1295  227.7309 H   0  0  0  0  0  0  0  0  0  0  0  0
  140.8366   72.4102  225.8555 H   0  0  0  0  0  0  0  0  0  0  0  0
  1  2  2  0
  2  3  1  0
  3  4  1  0
  4  5  1  0
  5  6  2  0
  5  7  1  0
  7  8  1  0
  8  9  1  0
  9 10  1  0
 10 11  1  0
 11 12  1  0
 12 13  2  0
 13 14  1  0
 14 15  2  0
 15 16  1  0
  2 17  1  0
 17 18  2  0
 18 19  1  0
 19 20  2  0
 20 21  1  0
 21 22  2  0
 22 23  1  0
 22 24  1  0
 24 25  2  0
 25 26  1  0
 26 27  2  0
 11  7  1  0
 16 12  1  0
 27 17  1  0
 26 20  1  0
  3 28  1  0
  4 29  1  0
  4 30  1  0
  8 31  1  0
  8 32  1  0
  9 33  1  0
  9 34  1  0
 10 35  1  0
 10 36  1  0
 11 37  1  6
 15 38  1  0
 16 39  1  0
 18 40  1  0
 19 41  1  0
 21 42  1  0
 24 43  1  0
 25 44  1  0
M  END
>  <smiles>  (12) 
O=C(NCC(=O)N1CCC[C@H]1c1nnc[nH]1)c1ccc2cc(Cl)ccc2n1

>  <score_type>  (12) 
oracle

>  <origin>  (12) 
autodockgpu

>  <m_score__min__energy>  (12) 
-7.9900000000000002

>  <m_primary>  (12) 
energy

>  <rmsd>  (12) 
3.225913879582085

>  <m_score__min__rmsd>  (12) 
3.225913879582085

>  <meeko>  (12) 
{"free_energy": -6.7, "intermolecular_energy": -8.19, "internal_energy": -2.71, "cluster_size": 7, "cluster_id": 8, "rank_in_cluster": 5}

>  <energy>  (12) 
-6.66

>  <cluster_rmsd>  (12) 
1.82

>  <cluster>  (12) 
1

$$$$

     RDKit          3D

 44 47  0  0  0  0  0  0  0  0999 V2000
  136.7180   71.0960  221.4620 O   0  0  0  0  0  0  0  0  0  0  0  0
  137.4460   71.6800  222.3060 C   0  0  0  0  0  0  0  0  0  0  0  0
  137.6760   73.0950  222.1520 N   0  0  0  0  0  0  0  0  0  0  0  0
  137.0500   73.7360  221.0350 C   0  0  0  0  0  0  0  0  0  0  0  0
  137.8790   74.8280  220.4660 C   0  0  0  0  0  0  0  0  0  0  0  0
  137.8490   75.1540  219.2470 O   0  0  0  0  0  0  0  0  0  0  0  0
  138.7590   75.5620  221.3030 N   0  0  0  0  0  0  0  0  0  0  0  0
  138.3540   76.5000  222.3420 C   0  0  0  0  0  0  0  0  0  0  0  0
  139.5460   77.4630  222.3980 C   0  0  0  0  0  0  0  0  0  0  0  0
  140.6830   76.4630  222.3450 C   0  0  0  0  0  0  0  0  0  0  0  0
  140.2040   75.5090  221.2730 C   0  0  1  0  0  0  0  0  0  0  0  0
  140.7440   74.1400  221.4800 C   0  0  0  0  0  0  0  0  0  0  0  0
  140.3920   73.3270  222.4890 N   0  0  0  0  0  0  0  0  0  0  0  0
  141.0790   72.1930  222.3430 N   0  0  0  0  0  0  0  0  0  0  0  0
  141.8640   72.2920  221.2430 C   0  0  0  0  0  0  0  0  0  0  0  0
  141.6530   73.5170  220.6990 N   0  0  0  0  0  0  0  0  0  0  0  0
  138.0560   70.9780  223.4230 C   0  0  0  0  0  0  0  0  0  0  0  0
  137.6670   69.6740  223.6660 C   0  0  0  0  0  0  0  0  0  0  0  0
  138.1980   68.9430  224.7030 C   0  0  0  0  0  0  0  0  0  0  0  0
  139.1450   69.5250  225.5210 C   0  0  0  0  0  0  0  0  0  0  0  0
  139.6890   68.8070  226.5660 C   0  0  0  0  0  0  0  0  0  0  0  0
  140.6310   69.3960  227.3730 C   0  0  0  0  0  0  0  0  0  0  0  0
  141.3380   68.5040  228.7080 Cl  0  0  0  0  0  0  0  0  0  0  0  0
  141.0180   70.6970  227.1270 C   0  0  0  0  0  0  0  0  0  0  0  0
  140.4690   71.4130  226.0780 C   0  0  0  0  0  0  0  0  0  0  0  0
  139.5260   70.8390  225.2610 C   0  0  0  0  0  0  0  0  0  0  0  0
  138.9730   71.5080  224.2330 N   0  0  0  0  0  0  0  0  0  0  0  0
  138.2850   73.5910  222.8550 H   0  0  0  0  0  0  0  0  0  0  0  0
  136.8716   72.9844  220.2519 H   0  0  0  0  0  0  0  0  0  0  0  0
  136.1095   74.1821  221.3907 H   0  0  0  0  0  0  0  0  0  0  0  0
  137.4293   77.0269  222.0641 H   0  0  0  0  0  0  0  0  0  0  0  0
  138.1313   76.0193  223.3060 H   0  0  0  0  0  0  0  0  0  0  0  0
  139.5612   78.1467  221.5364 H   0  0  0  0  0  0  0  0  0  0  0  0
  139.5593   78.1393  223.2654 H   0  0  0  0  0  0  0  0  0  0  0  0
  141.6287   76.9461  222.0581 H   0  0  0  0  0  0  0  0  0  0  0  0
  140.8970   75.9793  223.3095 H   0  0  0  0  0  0  0  0  0  0  0  0
  140.5698   75.8001  220.2773 H   0  0  0  0  0  0  0  0  0  0  0  0
  142.5478   71.5199  220.8606 H   0  0  0  0  0  0  0  0  0  0  0  0
  142.0850   73.9400  219.8450 H   0  0  0  0  0  0  0  0  0  0  0  0
  136.9135   69.2091  223.0133 H   0  0  0  0  0  0  0  0  0  0  0  0
  137.8719   67.9072  224.8782 H   0  0  0  0  0  0  0  0  0  0  0  0
  139.3705   67.7705  226.7513 H   0  0  0  0  0  0  0  0  0  0  0  0
  141.7721   71.1709  227.7725 H   0  0  0  0  0  0  0  0  0  0  0  0
  140.7901   72.4494  225.8971 H   0  0  0  0  0  0  0  0  0  0  0  0
  1  2  2  0
  2  3  1  0
  3  4  1  0
  4  5  1  0
  5  6  2  0
  5  7  1  0
  7  8  1  0
  8  9  1  0
  9 10  1  0
 10 11  1  0
 11 12  1  0
 12 13  2  0
 13 14  1  0
 14 15  2  0
 15 16  1  0
  2 17  1  0
 17 18  2  0
 18 19  1  0
 19 20  2  0
 20 21  1  0
 21 22  2  0
 22 23  1  0
 22 24  1  0
 24 25  2  0
 25 26  1  0
 26 27  2  0
 11  7  1  0
 16 12  1  0
 27 17  1  0
 26 20  1  0
  3 28  1  0
  4 29  1  0
  4 30  1  0
  8 31  1  0
  8 32  1  0
  9 33  1  0
  9 34  1  0
 10 35  1  0
 10 36  1  0
 11 37  1  6
 15 38  1  0
 16 39  1  0
 18 40  1  0
 19 41  1  0
 21 42  1  0
 24 43  1  0
 25 44  1  0
M  END
>  <smiles>  (13) 
O=C(NCC(=O)N1CCC[C@H]1c1nnc[nH]1)c1ccc2cc(Cl)ccc2n1

>  <score_type>  (13) 
oracle

>  <origin>  (13) 
autodockgpu

>  <m_score__min__energy>  (13) 
-7.9900000000000002

>  <m_primary>  (13) 
energy

>  <rmsd>  (13) 
3.2253012717066656

>  <m_score__min__rmsd>  (13) 
3.2253012717066656

>  <meeko>  (13) 
{"free_energy": -6.7, "intermolecular_energy": -8.19, "internal_energy": -2.72, "cluster_size": 7, "cluster_id": 8, "rank_in_cluster": 6}

>  <energy>  (13) 
-6.33

>  <cluster_rmsd>  (13) 
1.84

>  <cluster>  (13) 
1

$$$$

     RDKit          3D

 44 47  0  0  0  0  0  0  0  0999 V2000
  140.5020   72.4220  220.7300 O   0  0  0  0  0  0  0  0  0  0  0  0
  140.2010   72.8050  221.8910 C   0  0  0  0  0  0  0  0  0  0  0  0
  139.8730   74.1940  222.0930 N   0  0  0  0  0  0  0  0  0  0  0  0
  139.9160   75.0440  220.9420 C   0  0  0  0  0  0  0  0  0  0  0  0
  140.8830   76.1600  221.0930 C   0  0  0  0  0  0  0  0  0  0  0  0
  140.9840   76.8490  222.1460 O   0  0  0  0  0  0  0  0  0  0  0  0
  141.7530   76.4960  220.0230 N   0  0  0  0  0  0  0  0  0  0  0  0
  142.1200   77.8480  219.6230 C   0  0  0  0  0  0  0  0  0  0  0  0
  142.4210   77.6790  218.1290 C   0  0  0  0  0  0  0  0  0  0  0  0
  143.2300   76.3980  218.1770 C   0  0  0  0  0  0  0  0  0  0  0  0
  142.4250   75.5610  219.1470 C   0  0  1  0  0  0  0  0  0  0  0  0
  143.2830   74.5910  219.8740 C   0  0  0  0  0  0  0  0  0  0  0  0
  144.5020   74.8710  220.3650 N   0  0  0  0  0  0  0  0  0  0  0  0
  144.9600   73.7610  220.9470 N   0  0  0  0  0  0  0  0  0  0  0  0
  144.0310   72.7830  220.8230 C   0  0  0  0  0  0  0  0  0  0  0  0
  142.9750   73.3050  220.1480 N   0  0  0  0  0  0  0  0  0  0  0  0
  140.1720   71.8950  223.0250 C   0  0  0  0  0  0  0  0  0  0  0  0
  139.6330   70.6360  222.8390 C   0  0  0  0  0  0  0  0  0  0  0  0
  139.5700   69.7190  223.8620 C   0  0  0  0  0  0  0  0  0  0  0  0
  140.0590   70.0630  225.1050 C   0  0  0  0  0  0  0  0  0  0  0  0
  140.0040   69.1560  226.1430 C   0  0  0  0  0  0  0  0  0  0  0  0
  140.4940   69.5100  227.3770 C   0  0  0  0  0  0  0  0  0  0  0  0
  140.4370   68.3740  228.7120 Cl  0  0  0  0  0  0  0  0  0  0  0  0
  141.0330   70.7670  227.5580 C   0  0  0  0  0  0  0  0  0  0  0  0
  141.0840   71.6730  226.5150 C   0  0  0  0  0  0  0  0  0  0  0  0
  140.5990   71.3350  225.2750 C   0  0  0  0  0  0  0  0  0  0  0  0
  140.6350   72.1940  224.2390 N   0  0  0  0  0  0  0  0  0  0  0  0
  139.6190   74.5210  223.0620 H   0  0  0  0  0  0  0  0  0  0  0  0
  140.2072   74.4410  220.0693 H   0  0  0  0  0  0  0  0  0  0  0  0
  138.9160   75.4842  220.8151 H   0  0  0  0  0  0  0  0  0  0  0  0
  141.2889   78.5502  219.7846 H   0  0  0  0  0  0  0  0  0  0  0  0
  142.9618   78.2629  220.1968 H   0  0  0  0  0  0  0  0  0  0  0  0
  141.5018   77.5612  217.5365 H   0  0  0  0  0  0  0  0  0  0  0  0
  142.9266   78.5332  217.6549 H   0  0  0  0  0  0  0  0  0  0  0  0
  143.2854   75.9218  217.1870 H   0  0  0  0  0  0  0  0  0  0  0  0
  144.2782   76.5436  218.4770 H   0  0  0  0  0  0  0  0  0  0  0  0
  141.6853   74.9348  218.6267 H   0  0  0  0  0  0  0  0  0  0  0  0
  144.1166   71.7533  221.2005 H   0  0  0  0  0  0  0  0  0  0  0  0
  142.0780   72.8430  219.8710 H   0  0  0  0  0  0  0  0  0  0  0  0
  139.2445   70.3604  221.8475 H   0  0  0  0  0  0  0  0  0  0  0  0
  139.1349   68.7233  223.6910 H   0  0  0  0  0  0  0  0  0  0  0  0
  139.5713   68.1572  225.9841 H   0  0  0  0  0  0  0  0  0  0  0  0
  141.4272   71.0520  228.5446 H   0  0  0  0  0  0  0  0  0  0  0  0
  141.5159   72.6713  226.6792 H   0  0  0  0  0  0  0  0  0  0  0  0
  1  2  2  0
  2  3  1  0
  3  4  1  0
  4  5  1  0
  5  6  2  0
  5  7  1  0
  7  8  1  0
  8  9  1  0
  9 10  1  0
 10 11  1  0
 11 12  1  0
 12 13  2  0
 13 14  1  0
 14 15  2  0
 15 16  1  0
  2 17  1  0
 17 18  2  0
 18 19  1  0
 19 20  2  0
 20 21  1  0
 21 22  2  0
 22 23  1  0
 22 24  1  0
 24 25  2  0
 25 26  1  0
 26 27  2  0
 11  7  1  0
 16 12  1  0
 27 17  1  0
 26 20  1  0
  3 28  1  0
  4 29  1  0
  4 30  1  0
  8 31  1  0
  8 32  1  0
  9 33  1  0
  9 34  1  0
 10 35  1  0
 10 36  1  0
 11 37  1  6
 15 38  1  0
 16 39  1  0
 18 40  1  0
 19 41  1  0
 21 42  1  0
 24 43  1  0
 25 44  1  0
M  END
>  <smiles>  (14) 
O=C(NCC(=O)N1CCC[C@H]1c1nnc[nH]1)c1ccc2cc(Cl)ccc2n1

>  <score_type>  (14) 
oracle

>  <origin>  (14) 
autodockgpu

>  <m_score__min__energy>  (14) 
-7.9900000000000002

>  <m_primary>  (14) 
energy

>  <rmsd>  (14) 
3.1245199791436473

>  <m_score__min__rmsd>  (14) 
3.1245199791436473

>  <meeko>  (14) 
{"free_energy": -7.33, "intermolecular_energy": -8.82, "internal_energy": -2.32, "cluster_size": 13, "cluster_id": 1, "rank_in_cluster": 6}

>  <energy>  (14) 
-7.91

>  <cluster_rmsd>  (14) 
0.0

>  <cluster>  (14) 
2

$$$$

     RDKit          3D

 44 47  0  0  0  0  0  0  0  0999 V2000
  140.5270   72.5250  220.7820 O   0  0  0  0  0  0  0  0  0  0  0  0
  140.1960   72.8860  221.9410 C   0  0  0  0  0  0  0  0  0  0  0  0
  139.8290   74.2640  222.1520 N   0  0  0  0  0  0  0  0  0  0  0  0
  139.8680   75.1280  221.0110 C   0  0  0  0  0  0  0  0  0  0  0  0
  140.0550   76.5530  221.3810 C   0  0  0  0  0  0  0  0  0  0  0  0
  139.8130   77.0050  222.5350 O   0  0  0  0  0  0  0  0  0  0  0  0
  140.5280   77.4810  220.4170 N   0  0  0  0  0  0  0  0  0  0  0  0
  139.8280   77.8680  219.1980 C   0  0  0  0  0  0  0  0  0  0  0  0
  140.9820   78.2530  218.2650 C   0  0  0  0  0  0  0  0  0  0  0  0
  141.8290   79.0600  219.2280 C   0  0  0  0  0  0  0  0  0  0  0  0
  141.7810   78.2030  220.4740 C   0  0  1  0  0  0  0  0  0  0  0  0
  141.9290   79.0210  221.7050 C   0  0  0  0  0  0  0  0  0  0  0  0
  142.0920   80.3540  221.7190 N   0  0  0  0  0  0  0  0  0  0  0  0
  142.1880   80.7290  222.9960 N   0  0  0  0  0  0  0  0  0  0  0  0
  142.0840   79.6330  223.7850 C   0  0  0  0  0  0  0  0  0  0  0  0
  141.9200   78.5580  222.9740 N   0  0  0  0  0  0  0  0  0  0  0  0
  140.1740   71.9640  223.0650 C   0  0  0  0  0  0  0  0  0  0  0  0
  139.6460   70.7030  222.8640 C   0  0  0  0  0  0  0  0  0  0  0  0
  139.5900   69.7730  223.8760 C   0  0  0  0  0  0  0  0  0  0  0  0
  140.0730   70.1080  225.1250 C   0  0  0  0  0  0  0  0  0  0  0  0
  140.0250   69.1890  226.1520 C   0  0  0  0  0  0  0  0  0  0  0  0
  140.5090   69.5340  227.3910 C   0  0  0  0  0  0  0  0  0  0  0  0
  140.4590   68.3820  228.7130 Cl  0  0  0  0  0  0  0  0  0  0  0  0
  141.0360   70.7930  227.5880 C   0  0  0  0  0  0  0  0  0  0  0  0
  141.0810   71.7110  226.5540 C   0  0  0  0  0  0  0  0  0  0  0  0
  140.6010   71.3830  225.3090 C   0  0  0  0  0  0  0  0  0  0  0  0
  140.6310   72.2530  224.2830 N   0  0  0  0  0  0  0  0  0  0  0  0
  139.5510   74.5740  223.1210 H   0  0  0  0  0  0  0  0  0  0  0  0
  140.7022   74.8196  220.3638 H   0  0  0  0  0  0  0  0  0  0  0  0
  138.9007   75.0419  220.4943 H   0  0  0  0  0  0  0  0  0  0  0  0
  139.2480   77.0279  218.7882 H   0  0  0  0  0  0  0  0  0  0  0  0
  139.0960   78.6751  219.3485 H   0  0  0  0  0  0  0  0  0  0  0  0
  141.5180   77.3687  217.8899 H   0  0  0  0  0  0  0  0  0  0  0  0
  140.6840   78.7832  217.3484 H   0  0  0  0  0  0  0  0  0  0  0  0
  142.8589   79.1723  218.8584 H   0  0  0  0  0  0  0  0  0  0  0  0
  141.4722   80.0892  219.3808 H   0  0  0  0  0  0  0  0  0  0  0  0
  142.6220   77.4951  220.5131 H   0  0  0  0  0  0  0  0  0  0  0  0
  142.1251   79.6174  224.8841 H   0  0  0  0  0  0  0  0  0  0  0  0
  141.8060   77.5500  223.2320 H   0  0  0  0  0  0  0  0  0  0  0  0
  139.2605   70.4359  221.8690 H   0  0  0  0  0  0  0  0  0  0  0  0
  139.1657   68.7749  223.6923 H   0  0  0  0  0  0  0  0  0  0  0  0
  139.6027   68.1878  225.9808 H   0  0  0  0  0  0  0  0  0  0  0  0
  141.4251   71.0706  228.5787 H   0  0  0  0  0  0  0  0  0  0  0  0
  141.5042   72.7110  226.7299 H   0  0  0  0  0  0  0  0  0  0  0  0
  1  2  2  0
  2  3  1  0
  3  4  1  0
  4  5  1  0
  5  6  2  0
  5  7  1  0
  7  8  1  0
  8  9  1  0
  9 10  1  0
 10 11  1  0
 11 12  1  0
 12 13  2  0
 13 14  1  0
 14 15  2  0
 15 16  1  0
  2 17  1  0
 17 18  2  0
 18 19  1  0
 19 20  2  0
 20 21  1  0
 21 22  2  0
 22 23  1  0
 22 24  1  0
 24 25  2  0
 25 26  1  0
 26 27  2  0
 11  7  1  0
 16 12  1  0
 27 17  1  0
 26 20  1  0
  3 28  1  0
  4 29  1  0
  4 30  1  0
  8 31  1  0
  8 32  1  0
  9 33  1  0
  9 34  1  0
 10 35  1  0
 10 36  1  0
 11 37  1  6
 15 38  1  0
 16 39  1  0
 18 40  1  0
 19 41  1  0
 21 42  1  0
 24 43  1  0
 25 44  1  0
M  END
>  <smiles>  (15) 
O=C(NCC(=O)N1CCC[C@H]1c1nnc[nH]1)c1ccc2cc(Cl)ccc2n1

>  <score_type>  (15) 
oracle

>  <origin>  (15) 
autodockgpu

>  <m_score__min__energy>  (15) 
-7.9900000000000002

>  <m_primary>  (15) 
energy

>  <rmsd>  (15) 
2.03023633719993

>  <m_score__min__rmsd>  (15) 
2.03023633719993

>  <meeko>  (15) 
{"free_energy": -7.7, "intermolecular_energy": -9.19, "internal_energy": -2.02, "cluster_size": 11, "cluster_id": 2, "rank_in_cluster": 5}

>  <energy>  (15) 
-7.9

>  <cluster_rmsd>  (15) 
0.37

>  <cluster>  (15) 
2

$$$$

     RDKit          3D

 44 47  0  0  0  0  0  0  0  0999 V2000
  140.3650   72.5280  220.7960 O   0  0  0  0  0  0  0  0  0  0  0  0
  140.0330   72.8740  221.9600 C   0  0  0  0  0  0  0  0  0  0  0  0
  139.6030   74.2330  222.1770 N   0  0  0  0  0  0  0  0  0  0  0  0
  139.5880   75.0980  221.0360 C   0  0  0  0  0  0  0  0  0  0  0  0
  139.7380   76.5280  221.4030 C   0  0  0  0  0  0  0  0  0  0  0  0
  139.3620   77.0000  222.5120 O   0  0  0  0  0  0  0  0  0  0  0  0
  140.3300   77.4380  220.4880 N   0  0  0  0  0  0  0  0  0  0  0  0
  139.7120   77.9300  219.2640 C   0  0  0  0  0  0  0  0  0  0  0  0
  140.9290   78.2330  218.3810 C   0  0  0  0  0  0  0  0  0  0  0  0
  141.8150   78.9230  219.3980 C   0  0  0  0  0  0  0  0  0  0  0  0
  141.6420   78.0340  220.6110 C   0  0  1  0  0  0  0  0  0  0  0  0
  141.8240   78.7930  221.8750 C   0  0  0  0  0  0  0  0  0  0  0  0
  142.2100   80.0780  221.9430 N   0  0  0  0  0  0  0  0  0  0  0  0
  142.2610   80.4090  223.2350 N   0  0  0  0  0  0  0  0  0  0  0  0
  141.9080   79.3330  223.9790 C   0  0  0  0  0  0  0  0  0  0  0  0
  141.6330   78.3170  223.1240 N   0  0  0  0  0  0  0  0  0  0  0  0
  140.0670   71.9510  223.0830 C   0  0  0  0  0  0  0  0  0  0  0  0
  139.5680   70.6760  222.8960 C   0  0  0  0  0  0  0  0  0  0  0  0
  139.5660   69.7450  223.9090 C   0  0  0  0  0  0  0  0  0  0  0  0
  140.0760   70.0930  225.1430 C   0  0  0  0  0  0  0  0  0  0  0  0
  140.0820   69.1720  226.1710 C   0  0  0  0  0  0  0  0  0  0  0  0
  140.5920   69.5300  227.3950 C   0  0  0  0  0  0  0  0  0  0  0  0
  140.6110   68.3770  228.7170 Cl  0  0  0  0  0  0  0  0  0  0  0  0
  141.0900   70.8030  227.5780 C   0  0  0  0  0  0  0  0  0  0  0  0
  141.0810   71.7220  226.5440 C   0  0  0  0  0  0  0  0  0  0  0  0
  140.5750   71.3820  225.3140 C   0  0  0  0  0  0  0  0  0  0  0  0
  140.5520   72.2520  224.2880 N   0  0  0  0  0  0  0  0  0  0  0  0
  139.3230   74.5290  223.1490 H   0  0  0  0  0  0  0  0  0  0  0  0
  140.4164   74.8164  220.3693 H   0  0  0  0  0  0  0  0  0  0  0  0
  138.6123   74.9811  220.5416 H   0  0  0  0  0  0  0  0  0  0  0  0
  139.0691   77.1635  218.8066 H   0  0  0  0  0  0  0  0  0  0  0  0
  139.0551   78.7983  219.4210 H   0  0  0  0  0  0  0  0  0  0  0  0
  141.3914   77.3141  217.9912 H   0  0  0  0  0  0  0  0  0  0  0  0
  140.7142   78.8190  217.4752 H   0  0  0  0  0  0  0  0  0  0  0  0
  142.8632   78.9474  219.0653 H   0  0  0  0  0  0  0  0  0  0  0  0
  141.5530   79.9764  219.5760 H   0  0  0  0  0  0  0  0  0  0  0  0
  142.4102   77.2478  220.6516 H   0  0  0  0  0  0  0  0  0  0  0  0
  141.8543   79.2912  225.0769 H   0  0  0  0  0  0  0  0  0  0  0  0
  141.3290   77.3390  223.3410 H   0  0  0  0  0  0  0  0  0  0  0  0
  139.1620   70.3983  221.9121 H   0  0  0  0  0  0  0  0  0  0  0  0
  139.1629   68.7360  223.7373 H   0  0  0  0  0  0  0  0  0  0  0  0
  139.6817   68.1599  226.0114 H   0  0  0  0  0  0  0  0  0  0  0  0
  141.4992   71.0910  228.5576 H   0  0  0  0  0  0  0  0  0  0  0  0
  141.4823   72.7328  226.7087 H   0  0  0  0  0  0  0  0  0  0  0  0
  1  2  2  0
  2  3  1  0
  3  4  1  0
  4  5  1  0
  5  6  2  0
  5  7  1  0
  7  8  1  0
  8  9  1  0
  9 10  1  0
 10 11  1  0
 11 12  1  0
 12 13  2  0
 13 14  1  0
 14 15  2  0
 15 16  1  0
  2 17  1  0
 17 18  2  0
 18 19  1  0
 19 20  2  0
 20 21  1  0
 21 22  2  0
 22 23  1  0
 22 24  1  0
 24 25  2  0
 25 26  1  0
 26 27  2  0
 11  7  1  0
 16 12  1  0
 27 17  1  0
 26 20  1  0
  3 28  1  0
  4 29  1  0
  4 30  1  0
  8 31  1  0
  8 32  1  0
  9 33  1  0
  9 34  1  0
 10 35  1  0
 10 36  1  0
 11 37  1  6
 15 38  1  0
 16 39  1  0
 18 40  1  0
 19 41  1  0
 21 42  1  0
 24 43  1  0
 25 44  1  0
M  END
>  <smiles>  (16) 
O=C(NCC(=O)N1CCC[C@H]1c1nnc[nH]1)c1ccc2cc(Cl)ccc2n1

>  <score_type>  (16) 
oracle

>  <origin>  (16) 
autodockgpu

>  <m_score__min__energy>  (16) 
-7.9900000000000002

>  <m_primary>  (16) 
energy

>  <rmsd>  (16) 
1.998393625725037

>  <m_score__min__rmsd>  (16) 
1.998393625725037

>  <meeko>  (16) 
{"free_energy": -7.62, "intermolecular_energy": -9.11, "internal_energy": -2.02, "cluster_size": 11, "cluster_id": 2, "rank_in_cluster": 7}

>  <energy>  (16) 
-7.85

>  <cluster_rmsd>  (16) 
0.58

>  <cluster>  (16) 
2

$$$$

     RDKit          3D

 44 47  0  0  0  0  0  0  0  0999 V2000
  140.6790   72.4330  220.6520 O   0  0  0  0  0  0  0  0  0  0  0  0
  140.2890   72.8240  221.7830 C   0  0  0  0  0  0  0  0  0  0  0  0
  139.8920   74.2020  221.9330 N   0  0  0  0  0  0  0  0  0  0  0  0
  139.9730   75.0310  220.7690 C   0  0  0  0  0  0  0  0  0  0  0  0
  140.3340   76.4340  221.0920 C   0  0  0  0  0  0  0  0  0  0  0  0
  141.4040   76.9790  220.7030 O   0  0  0  0  0  0  0  0  0  0  0  0
  139.4570   77.2320  221.8720 N   0  0  0  0  0  0  0  0  0  0  0  0
  138.3120   76.7410  222.6280 C   0  0  0  0  0  0  0  0  0  0  0  0
  137.3840   77.9610  222.6480 C   0  0  0  0  0  0  0  0  0  0  0  0
  138.3950   79.0450  222.9610 C   0  0  0  0  0  0  0  0  0  0  0  0
  139.5450   78.6640  222.0540 C   0  0  1  0  0  0  0  0  0  0  0  0
  140.8500   79.1040  222.6130 C   0  0  0  0  0  0  0  0  0  0  0  0
  141.0520   79.4500  223.8950 N   0  0  0  0  0  0  0  0  0  0  0  0
  142.3380   79.7830  224.0180 N   0  0  0  0  0  0  0  0  0  0  0  0
  142.9450   79.6470  222.8140 C   0  0  0  0  0  0  0  0  0  0  0  0
  142.0090   79.2190  221.9300 N   0  0  0  0  0  0  0  0  0  0  0  0
  140.2260   71.9370  222.9320 C   0  0  0  0  0  0  0  0  0  0  0  0
  139.6330   70.6990  222.7700 C   0  0  0  0  0  0  0  0  0  0  0  0
  139.5350   69.8030  223.8080 C   0  0  0  0  0  0  0  0  0  0  0  0
  140.0430   70.1470  225.0440 C   0  0  0  0  0  0  0  0  0  0  0  0
  139.9530   69.2610  226.0980 C   0  0  0  0  0  0  0  0  0  0  0  0
  140.4620   69.6150  227.3240 C   0  0  0  0  0  0  0  0  0  0  0  0
  140.3610   68.5050  228.6790 Cl  0  0  0  0  0  0  0  0  0  0  0  0
  141.0540   70.8510  227.4820 C   0  0  0  0  0  0  0  0  0  0  0  0
  141.1400   71.7360  226.4230 C   0  0  0  0  0  0  0  0  0  0  0  0
  140.6370   71.3980  225.1900 C   0  0  0  0  0  0  0  0  0  0  0  0
  140.7050   72.2360  224.1400 N   0  0  0  0  0  0  0  0  0  0  0  0
  139.5640   74.5370  222.8770 H   0  0  0  0  0  0  0  0  0  0  0  0
  140.7366   74.6171  220.0941 H   0  0  0  0  0  0  0  0  0  0  0  0
  138.9790   75.0425  220.2981 H   0  0  0  0  0  0  0  0  0  0  0  0
  137.8370   75.8878  222.1217 H   0  0  0  0  0  0  0  0  0  0  0  0
  138.5729   76.3705  223.6303 H   0  0  0  0  0  0  0  0  0  0  0  0
  136.8987   78.1224  221.6741 H   0  0  0  0  0  0  0  0  0  0  0  0
  136.5400   77.8936  223.3502 H   0  0  0  0  0  0  0  0  0  0  0  0
  138.0028   80.0425  222.7136 H   0  0  0  0  0  0  0  0  0  0  0  0
  138.6675   79.1074  224.0249 H   0  0  0  0  0  0  0  0  0  0  0  0
  139.4793   79.1711  221.0801 H   0  0  0  0  0  0  0  0  0  0  0  0
  144.0039   79.8472  222.5935 H   0  0  0  0  0  0  0  0  0  0  0  0
  142.1160   79.0070  220.9110 H   0  0  0  0  0  0  0  0  0  0  0  0
  139.2289   70.4235  221.7847 H   0  0  0  0  0  0  0  0  0  0  0  0
  139.0575   68.8239  223.6552 H   0  0  0  0  0  0  0  0  0  0  0  0
  139.4775   68.2791  225.9577 H   0  0  0  0  0  0  0  0  0  0  0  0
  141.4627   71.1361  228.4626 H   0  0  0  0  0  0  0  0  0  0  0  0
  141.6145   72.7176  226.5688 H   0  0  0  0  0  0  0  0  0  0  0  0
  1  2  2  0
  2  3  1  0
  3  4  1  0
  4  5  1  0
  5  6  2  0
  5  7  1  0
  7  8  1  0
  8  9  1  0
  9 10  1  0
 10 11  1  0
 11 12  1  0
 12 13  2  0
 13 14  1  0
 14 15  2  0
 15 16  1  0
  2 17  1  0
 17 18  2  0
 18 19  1  0
 19 20  2  0
 20 21  1  0
 21 22  2  0
 22 23  1  0
 22 24  1  0
 24 25  2  0
 25 26  1  0
 26 27  2  0
 11  7  1  0
 16 12  1  0
 27 17  1  0
 26 20  1  0
  3 28  1  0
  4 29  1  0
  4 30  1  0
  8 31  1  0
  8 32  1  0
  9 33  1  0
  9 34  1  0
 10 35  1  0
 10 36  1  0
 11 37  1  6
 15 38  1  0
 16 39  1  0
 18 40  1  0
 19 41  1  0
 21 42  1  0
 24 43  1  0
 25 44  1  0
M  END
>  <smiles>  (17) 
O=C(NCC(=O)N1CCC[C@H]1c1nnc[nH]1)c1ccc2cc(Cl)ccc2n1

>  <score_type>  (17) 
oracle

>  <origin>  (17) 
autodockgpu

>  <m_score__min__energy>  (17) 
-7.9900000000000002

>  <m_primary>  (17) 
energy

>  <rmsd>  (17) 
3.0581114743634052

>  <m_score__min__rmsd>  (17) 
3.0581114743634052

>  <meeko>  (17) 
{"free_energy": -7.67, "intermolecular_energy": -9.16, "internal_energy": -1.78, "cluster_size": 11, "cluster_id": 2, "rank_in_cluster": 6}

>  <energy>  (17) 
-7.72

>  <cluster_rmsd>  (17) 
1.44

>  <cluster>  (17) 
2

$$$$

     RDKit          3D

 44 47  0  0  0  0  0  0  0  0999 V2000
  140.4780   72.4600  220.7730 O   0  0  0  0  0  0  0  0  0  0  0  0
  140.1700   72.8310  221.9360 C   0  0  0  0  0  0  0  0  0  0  0  0
  139.8160   74.2120  222.1460 N   0  0  0  0  0  0  0  0  0  0  0  0
  139.8430   75.0700  221.0000 C   0  0  0  0  0  0  0  0  0  0  0  0
  140.6760   76.2790  221.2120 C   0  0  0  0  0  0  0  0  0  0  0  0
  140.6800   76.9350  222.2910 O   0  0  0  0  0  0  0  0  0  0  0  0
  141.5210   76.7520  220.1730 N   0  0  0  0  0  0  0  0  0  0  0  0
  141.8040   78.1510  219.8820 C   0  0  0  0  0  0  0  0  0  0  0  0
  142.1110   78.1180  218.3810 C   0  0  0  0  0  0  0  0  0  0  0  0
  142.9960   76.8900  218.3290 C   0  0  0  0  0  0  0  0  0  0  0  0
  142.2460   75.9310  219.2280 C   0  0  1  0  0  0  0  0  0  0  0  0
  143.1640   74.9610  219.8790 C   0  0  0  0  0  0  0  0  0  0  0  0
  144.4500   75.2100  220.1750 N   0  0  0  0  0  0  0  0  0  0  0  0
  144.9460   74.1110  220.7460 N   0  0  0  0  0  0  0  0  0  0  0  0
  143.9730   73.1710  220.8110 C   0  0  0  0  0  0  0  0  0  0  0  0
  142.8510   73.7060  220.2650 N   0  0  0  0  0  0  0  0  0  0  0  0
  140.1590   71.9150  223.0650 C   0  0  0  0  0  0  0  0  0  0  0  0
  139.6320   70.6510  222.8760 C   0  0  0  0  0  0  0  0  0  0  0  0
  139.5860   69.7270  223.8930 C   0  0  0  0  0  0  0  0  0  0  0  0
  140.0800   70.0690  225.1360 C   0  0  0  0  0  0  0  0  0  0  0  0
  140.0420   69.1560  226.1690 C   0  0  0  0  0  0  0  0  0  0  0  0
  140.5370   69.5080  227.4010 C   0  0  0  0  0  0  0  0  0  0  0  0
  140.5010   68.3640  228.7300 Cl  0  0  0  0  0  0  0  0  0  0  0  0
  141.0630   70.7700  227.5860 C   0  0  0  0  0  0  0  0  0  0  0  0
  141.0970   71.6830  226.5470 C   0  0  0  0  0  0  0  0  0  0  0  0
  140.6070   71.3470  225.3090 C   0  0  0  0  0  0  0  0  0  0  0  0
  140.6270   72.2110  224.2780 N   0  0  0  0  0  0  0  0  0  0  0  0
  139.5560   74.5290  223.1170 H   0  0  0  0  0  0  0  0  0  0  0  0
  140.2504   74.5066  220.1476 H   0  0  0  0  0  0  0  0  0  0  0  0
  138.8125   75.4046  220.8100 H   0  0  0  0  0  0  0  0  0  0  0  0
  140.9321   78.7865  220.0962 H   0  0  0  0  0  0  0  0  0  0  0  0
  142.6200   78.5703  220.4889 H   0  0  0  0  0  0  0  0  0  0  0  0
  141.1990   77.9914  217.7791 H   0  0  0  0  0  0  0  0  0  0  0  0
  142.5628   79.0360  217.9770 H   0  0  0  0  0  0  0  0  0  0  0  0
  143.0777   76.4980  217.3045 H   0  0  0  0  0  0  0  0  0  0  0  0
  144.0342   77.0750  218.6419 H   0  0  0  0  0  0  0  0  0  0  0  0
  141.5449   75.3032  218.6585 H   0  0  0  0  0  0  0  0  0  0  0  0
  144.0735   72.1588  221.2298 H   0  0  0  0  0  0  0  0  0  0  0  0
  141.9070   73.2710  220.1450 H   0  0  0  0  0  0  0  0  0  0  0  0
  139.2391   70.3773  221.8857 H   0  0  0  0  0  0  0  0  0  0  0  0
  139.1609   68.7276  223.7185 H   0  0  0  0  0  0  0  0  0  0  0  0
  139.6186   68.1537  226.0076 H   0  0  0  0  0  0  0  0  0  0  0  0
  141.4603   71.0538  228.5717 H   0  0  0  0  0  0  0  0  0  0  0  0
  141.5194   72.6849  226.7138 H   0  0  0  0  0  0  0  0  0  0  0  0
  1  2  2  0
  2  3  1  0
  3  4  1  0
  4  5  1  0
  5  6  2  0
  5  7  1  0
  7  8  1  0
  8  9  1  0
  9 10  1  0
 10 11  1  0
 11 12  1  0
 12 13  2  0
 13 14  1  0
 14 15  2  0
 15 16  1  0
  2 17  1  0
 17 18  2  0
 18 19  1  0
 19 20  2  0
 20 21  1  0
 21 22  2  0
 22 23  1  0
 22 24  1  0
 24 25  2  0
 25 26  1  0
 26 27  2  0
 11  7  1  0
 16 12  1  0
 27 17  1  0
 26 20  1  0
  3 28  1  0
  4 29  1  0
  4 30  1  0
  8 31  1  0
  8 32  1  0
  9 33  1  0
  9 34  1  0
 10 35  1  0
 10 36  1  0
 11 37  1  6
 15 38  1  0
 16 39  1  0
 18 40  1  0
 19 41  1  0
 21 42  1  0
 24 43  1  0
 25 44  1  0
M  END
>  <smiles>  (18) 
O=C(NCC(=O)N1CCC[C@H]1c1nnc[nH]1)c1ccc2cc(Cl)ccc2n1

>  <score_type>  (18) 
oracle

>  <origin>  (18) 
autodockgpu

>  <m_score__min__energy>  (18) 
-7.9900000000000002

>  <m_primary>  (18) 
energy

>  <rmsd>  (18) 
3.0098818114375154

>  <m_score__min__rmsd>  (18) 
3.0098818114375154

>  <meeko>  (18) 
{"free_energy": -7.39, "intermolecular_energy": -8.89, "internal_energy": -2.31, "cluster_size": 13, "cluster_id": 1, "rank_in_cluster": 3}

>  <energy>  (18) 
-7.7

>  <cluster_rmsd>  (18) 
1.43

>  <cluster>  (18) 
2

$$$$

     RDKit          3D

 44 47  0  0  0  0  0  0  0  0999 V2000
  140.4640   72.4780  220.7560 O   0  0  0  0  0  0  0  0  0  0  0  0
  140.1650   72.8480  221.9210 C   0  0  0  0  0  0  0  0  0  0  0  0
  139.8210   74.2320  222.1350 N   0  0  0  0  0  0  0  0  0  0  0  0
  139.8470   75.0910  220.9910 C   0  0  0  0  0  0  0  0  0  0  0  0
  140.5810   76.3560  221.2430 C   0  0  0  0  0  0  0  0  0  0  0  0
  140.4800   77.0100  222.3180 O   0  0  0  0  0  0  0  0  0  0  0  0
  141.4470   76.8860  220.2510 N   0  0  0  0  0  0  0  0  0  0  0  0
  141.7450   78.2980  220.0530 C   0  0  0  0  0  0  0  0  0  0  0  0
  142.0780   78.3570  218.5580 C   0  0  0  0  0  0  0  0  0  0  0  0
  142.9550   77.1270  218.4440 C   0  0  0  0  0  0  0  0  0  0  0  0
  142.1830   76.1200  219.2680 C   0  0  1  0  0  0  0  0  0  0  0  0
  143.0830   75.1040  219.8730 C   0  0  0  0  0  0  0  0  0  0  0  0
  144.3850   75.3010  220.1360 N   0  0  0  0  0  0  0  0  0  0  0  0
  144.8570   74.1730  220.6710 N   0  0  0  0  0  0  0  0  0  0  0  0
  143.8520   73.2670  220.7440 C   0  0  0  0  0  0  0  0  0  0  0  0
  142.7360   73.8530  220.2420 N   0  0  0  0  0  0  0  0  0  0  0  0
  140.1540   71.9310  223.0480 C   0  0  0  0  0  0  0  0  0  0  0  0
  139.6160   70.6710  222.8610 C   0  0  0  0  0  0  0  0  0  0  0  0
  139.5700   69.7460  223.8770 C   0  0  0  0  0  0  0  0  0  0  0  0
  140.0750   70.0830  225.1170 C   0  0  0  0  0  0  0  0  0  0  0  0
  140.0360   69.1680  226.1490 C   0  0  0  0  0  0  0  0  0  0  0  0
  140.5420   69.5140  227.3780 C   0  0  0  0  0  0  0  0  0  0  0  0
  140.5060   68.3680  228.7060 Cl  0  0  0  0  0  0  0  0  0  0  0  0
  141.0790   70.7720  227.5620 C   0  0  0  0  0  0  0  0  0  0  0  0
  141.1130   71.6850  226.5250 C   0  0  0  0  0  0  0  0  0  0  0  0
  140.6130   71.3550  225.2890 C   0  0  0  0  0  0  0  0  0  0  0  0
  140.6320   72.2210  224.2590 N   0  0  0  0  0  0  0  0  0  0  0  0
  139.5690   74.5490  223.1090 H   0  0  0  0  0  0  0  0  0  0  0  0
  140.3366   74.5589  220.1621 H   0  0  0  0  0  0  0  0  0  0  0  0
  138.8067   75.3526  220.7474 H   0  0  0  0  0  0  0  0  0  0  0  0
  140.8740   78.9259  220.2919 H   0  0  0  0  0  0  0  0  0  0  0  0
  142.5534   78.6716  220.6987 H   0  0  0  0  0  0  0  0  0  0  0  0
  141.1758   78.2761  217.9339 H   0  0  0  0  0  0  0  0  0  0  0  0
  142.5434   79.2948  218.2203 H   0  0  0  0  0  0  0  0  0  0  0  0
  143.0516   76.7993  217.3984 H   0  0  0  0  0  0  0  0  0  0  0  0
  143.9889   77.2835  218.7854 H   0  0  0  0  0  0  0  0  0  0  0  0
  141.4878   75.5350  218.6480 H   0  0  0  0  0  0  0  0  0  0  0  0
  143.9273   72.2429  221.1384 H   0  0  0  0  0  0  0  0  0  0  0  0
  141.7730   73.4550  220.1400 H   0  0  0  0  0  0  0  0  0  0  0  0
  139.2141   70.4016  221.8731 H   0  0  0  0  0  0  0  0  0  0  0  0
  139.1364   68.7500  223.7042 H   0  0  0  0  0  0  0  0  0  0  0  0
  139.6031   68.1695  225.9887 H   0  0  0  0  0  0  0  0  0  0  0  0
  141.4847   71.0513  228.5456 H   0  0  0  0  0  0  0  0  0  0  0  0
  141.5438   72.6835  226.6907 H   0  0  0  0  0  0  0  0  0  0  0  0
  1  2  2  0
  2  3  1  0
  3  4  1  0
  4  5  1  0
  5  6  2  0
  5  7  1  0
  7  8  1  0
  8  9  1  0
  9 10  1  0
 10 11  1  0
 11 12  1  0
 12 13  2  0
 13 14  1  0
 14 15  2  0
 15 16  1  0
  2 17  1  0
 17 18  2  0
 18 19  1  0
 19 20  2  0
 20 21  1  0
 21 22  2  0
 22 23  1  0
 22 24  1  0
 24 25  2  0
 25 26  1  0
 26 27  2  0
 11  7  1  0
 16 12  1  0
 27 17  1  0
 26 20  1  0
  3 28  1  0
  4 29  1  0
  4 30  1  0
  8 31  1  0
  8 32  1  0
  9 33  1  0
  9 34  1  0
 10 35  1  0
 10 36  1  0
 11 37  1  6
 15 38  1  0
 16 39  1  0
 18 40  1  0
 19 41  1  0
 21 42  1  0
 24 43  1  0
 25 44  1  0
M  END
>  <smiles>  (19) 
O=C(NCC(=O)N1CCC[C@H]1c1nnc[nH]1)c1ccc2cc(Cl)ccc2n1

>  <score_type>  (19) 
oracle

>  <origin>  (19) 
autodockgpu

>  <m_score__min__energy>  (19) 
-7.9900000000000002

>  <m_primary>  (19) 
energy

>  <rmsd>  (19) 
3.0040183134418323

>  <m_score__min__rmsd>  (19) 
3.0040183134418323

>  <meeko>  (19) 
{"free_energy": -7.39, "intermolecular_energy": -8.88, "internal_energy": -2.29, "cluster_size": 13, "cluster_id": 1, "rank_in_cluster": 4}

>  <energy>  (19) 
-7.67

>  <cluster_rmsd>  (19) 
0.59

>  <cluster>  (19) 
2

$$$$

     RDKit          3D

 44 47  0  0  0  0  0  0  0  0999 V2000
  139.2930   73.8870  222.3060 O   0  0  0  0  0  0  0  0  0  0  0  0
  140.0210   72.8610  222.2650 C   0  0  0  0  0  0  0  0  0  0  0  0
  140.8270   72.6370  221.0910 N   0  0  0  0  0  0  0  0  0  0  0  0
  140.7360   73.6120  220.0470 C   0  0  0  0  0  0  0  0  0  0  0  0
  141.7640   74.6760  220.1690 C   0  0  0  0  0  0  0  0  0  0  0  0
  142.0210   75.2660  221.2550 O   0  0  0  0  0  0  0  0  0  0  0  0
  142.5130   75.0750  219.0310 N   0  0  0  0  0  0  0  0  0  0  0  0
  142.4460   76.3810  218.3870 C   0  0  0  0  0  0  0  0  0  0  0  0
  142.8280   76.0530  216.9400 C   0  0  0  0  0  0  0  0  0  0  0  0
  143.9980   75.1230  217.1890 C   0  0  0  0  0  0  0  0  0  0  0  0
  143.4710   74.2610  218.3160 C   0  0  1  0  0  0  0  0  0  0  0  0
  144.5710   73.7570  219.1780 C   0  0  0  0  0  0  0  0  0  0  0  0
  145.5630   72.9550  218.7570 N   0  0  0  0  0  0  0  0  0  0  0  0
  146.3530   72.7180  219.8060 N   0  0  0  0  0  0  0  0  0  0  0  0
  145.8590   73.3690  220.8860 C   0  0  0  0  0  0  0  0  0  0  0  0
  144.7380   74.0240  220.4920 N   0  0  0  0  0  0  0  0  0  0  0  0
  140.0740   71.9030  223.3570 C   0  0  0  0  0  0  0  0  0  0  0  0
  139.5930   70.6270  223.1310 C   0  0  0  0  0  0  0  0  0  0  0  0
  139.6090   69.6640  224.1130 C   0  0  0  0  0  0  0  0  0  0  0  0
  140.1190   69.9790  225.3560 C   0  0  0  0  0  0  0  0  0  0  0  0
  140.1430   69.0260  226.3530 C   0  0  0  0  0  0  0  0  0  0  0  0
  140.6530   69.3510  227.5860 C   0  0  0  0  0  0  0  0  0  0  0  0
  140.6950   68.1570  228.8700 Cl  0  0  0  0  0  0  0  0  0  0  0  0
  141.1330   70.6250  227.8080 C   0  0  0  0  0  0  0  0  0  0  0  0
  141.1060   71.5770  226.8050 C   0  0  0  0  0  0  0  0  0  0  0  0
  140.5990   71.2690  225.5660 C   0  0  0  0  0  0  0  0  0  0  0  0
  140.5590   72.1720  224.5690 N   0  0  0  0  0  0  0  0  0  0  0  0
  141.4400   71.7800  221.0500 H   0  0  0  0  0  0  0  0  0  0  0  0
  140.8663   73.1054  219.0794 H   0  0  0  0  0  0  0  0  0  0  0  0
  139.7490   74.0916  220.1239 H   0  0  0  0  0  0  0  0  0  0  0  0
  141.4314   76.8021  218.4453 H   0  0  0  0  0  0  0  0  0  0  0  0
  143.0965   77.1355  218.8535 H   0  0  0  0  0  0  0  0  0  0  0  0
  142.0102   75.5480  216.4051 H   0  0  0  0  0  0  0  0  0  0  0  0
  143.0520   76.9250  216.3080 H   0  0  0  0  0  0  0  0  0  0  0  0
  144.2282   74.5209  216.2977 H   0  0  0  0  0  0  0  0  0  0  0  0
  144.9382   75.6422  217.4264 H   0  0  0  0  0  0  0  0  0  0  0  0
  142.9821   73.3512  217.9374 H   0  0  0  0  0  0  0  0  0  0  0  0
  146.2886   73.3671  221.8987 H   0  0  0  0  0  0  0  0  0  0  0  0
  144.0960   74.6280  221.0560 H   0  0  0  0  0  0  0  0  0  0  0  0
  139.1869   70.3752  222.1402 H   0  0  0  0  0  0  0  0  0  0  0  0
  139.2201   68.6553  223.9100 H   0  0  0  0  0  0  0  0  0  0  0  0
  139.7568   68.0139  226.1620 H   0  0  0  0  0  0  0  0  0  0  0  0
  141.5423   70.8870  228.7948 H   0  0  0  0  0  0  0  0  0  0  0  0
  141.4932   72.5878  227.0008 H   0  0  0  0  0  0  0  0  0  0  0  0
  1  2  2  0
  2  3  1  0
  3  4  1  0
  4  5  1  0
  5  6  2  0
  5  7  1  0
  7  8  1  0
  8  9  1  0
  9 10  1  0
 10 11  1  0
 11 12  1  0
 12 13  2  0
 13 14  1  0
 14 15  2  0
 15 16  1  0
  2 17  1  0
 17 18  2  0
 18 19  1  0
 19 20  2  0
 20 21  1  0
 21 22  2  0
 22 23  1  0
 22 24  1  0
 24 25  2  0
 25 26  1  0
 26 27  2  0
 11  7  1  0
 16 12  1  0
 27 17  1  0
 26 20  1  0
  3 28  1  0
  4 29  1  0
  4 30  1  0
  8 31  1  0
  8 32  1  0
  9 33  1  0
  9 34  1  0
 10 35  1  0
 10 36  1  0
 11 37  1  6
 15 38  1  0
 16 39  1  0
 18 40  1  0
 19 41  1  0
 21 42  1  0
 24 43  1  0
 25 44  1  0
M  END
>  <smiles>  (20) 
O=C(NCC(=O)N1CCC[C@H]1c1nnc[nH]1)c1ccc2cc(Cl)ccc2n1

>  <score_type>  (20) 
oracle

>  <origin>  (20) 
autodockgpu

>  <m_score__min__energy>  (20) 
-7.9900000000000002

>  <m_primary>  (20) 
energy

>  <rmsd>  (20) 
3.353808689068878

>  <m_score__min__rmsd>  (20) 
3.353808689068878

>  <meeko>  (20) 
{"free_energy": -7.85, "intermolecular_energy": -9.34, "internal_energy": -1.83, "cluster_size": 13, "cluster_id": 1, "rank_in_cluster": 2}

>  <energy>  (20) 
-7.62

>  <cluster_rmsd>  (20) 
1.38

>  <cluster>  (20) 
2

$$$$

     RDKit          3D

 44 47  0  0  0  0  0  0  0  0999 V2000
  140.9650   71.1460  221.2270 O   0  0  0  0  0  0  0  0  0  0  0  0
  140.4560   72.0730  221.9090 C   0  0  0  0  0  0  0  0  0  0  0  0
  139.5410   71.7240  222.9670 N   0  0  0  0  0  0  0  0  0  0  0  0
  139.2770   70.3310  223.1630 C   0  0  0  0  0  0  0  0  0  0  0  0
  138.5550   70.0610  224.4310 C   0  0  0  0  0  0  0  0  0  0  0  0
  137.4160   70.5370  224.6930 O   0  0  0  0  0  0  0  0  0  0  0  0
  139.1440   69.2300  225.4210 N   0  0  0  0  0  0  0  0  0  0  0  0
  139.5650   67.8490  225.2260 C   0  0  0  0  0  0  0  0  0  0  0  0
  139.4300   67.2620  226.6360 C   0  0  0  0  0  0  0  0  0  0  0  0
  140.0460   68.3890  227.4400 C   0  0  0  0  0  0  0  0  0  0  0  0
  139.4280   69.6070  226.7890 C   0  0  1  0  0  0  0  0  0  0  0  0
  140.3150   70.7940  226.8960 C   0  0  0  0  0  0  0  0  0  0  0  0
  141.2510   71.1300  225.9940 N   0  0  0  0  0  0  0  0  0  0  0  0
  141.8390   72.2450  226.4280 N   0  0  0  0  0  0  0  0  0  0  0  0
  141.2740   72.6110  227.6040 C   0  0  0  0  0  0  0  0  0  0  0  0
  140.3140   71.6990  227.8980 N   0  0  0  0  0  0  0  0  0  0  0  0
  140.7610   73.4730  221.6660 C   0  0  0  0  0  0  0  0  0  0  0  0
  141.8130   73.7750  220.8210 C   0  0  0  0  0  0  0  0  0  0  0  0
  142.1640   75.0750  220.5410 C   0  0  0  0  0  0  0  0  0  0  0  0
  141.4480   76.1050  221.1150 C   0  0  0  0  0  0  0  0  0  0  0  0
  141.7850   77.4150  220.8450 C   0  0  0  0  0  0  0  0  0  0  0  0
  141.0640   78.4310  221.4230 C   0  0  0  0  0  0  0  0  0  0  0  0
  141.4740   80.1050  221.0950 Cl  0  0  0  0  0  0  0  0  0  0  0  0
  140.0150   78.1260  222.2650 C   0  0  0  0  0  0  0  0  0  0  0  0
  139.6810   76.8110  222.5330 C   0  0  0  0  0  0  0  0  0  0  0  0
  140.3910   75.7820  221.9630 C   0  0  0  0  0  0  0  0  0  0  0  0
  140.0910   74.4930  222.2030 N   0  0  0  0  0  0  0  0  0  0  0  0
  139.1110   72.4960  223.5430 H   0  0  0  0  0  0  0  0  0  0  0  0
  138.6652   69.9668  222.3245 H   0  0  0  0  0  0  0  0  0  0  0  0
  140.2454   69.8118  223.2134 H   0  0  0  0  0  0  0  0  0  0  0  0
  138.9073   67.3292  224.5138 H   0  0  0  0  0  0  0  0  0  0  0  0
  140.5766   67.7530  224.8047 H   0  0  0  0  0  0  0  0  0  0  0  0
  138.3784   67.0907  226.9096 H   0  0  0  0  0  0  0  0  0  0  0  0
  139.8982   66.2768  226.7784 H   0  0  0  0  0  0  0  0  0  0  0  0
  139.7708   68.3198  228.5028 H   0  0  0  0  0  0  0  0  0  0  0  0
  141.1460   68.3907  227.4345 H   0  0  0  0  0  0  0  0  0  0  0  0
  138.5010   69.9123  227.2965 H   0  0  0  0  0  0  0  0  0  0  0  0
  141.5447   73.4882  228.2100 H   0  0  0  0  0  0  0  0  0  0  0  0
  139.6750   71.6600  228.7260 H   0  0  0  0  0  0  0  0  0  0  0  0
  142.3836   72.9547  220.3611 H   0  0  0  0  0  0  0  0  0  0  0  0
  143.0061   75.2910  219.8670 H   0  0  0  0  0  0  0  0  0  0  0  0
  142.6245   77.6441  220.1721 H   0  0  0  0  0  0  0  0  0  0  0  0
  139.4369   78.9387  222.7291 H   0  0  0  0  0  0  0  0  0  0  0  0
  138.8411   76.5873  223.2072 H   0  0  0  0  0  0  0  0  0  0  0  0
  1  2  2  0
  2  3  1  0
  3  4  1  0
  4  5  1  0
  5  6  2  0
  5  7  1  0
  7  8  1  0
  8  9  1  0
  9 10  1  0
 10 11  1  0
 11 12  1  0
 12 13  2  0
 13 14  1  0
 14 15  2  0
 15 16  1  0
  2 17  1  0
 17 18  2  0
 18 19  1  0
 19 20  2  0
 20 21  1  0
 21 22  2  0
 22 23  1  0
 22 24  1  0
 24 25  2  0
 25 26  1  0
 26 27  2  0
 11  7  1  0
 16 12  1  0
 27 17  1  0
 26 20  1  0
  3 28  1  0
  4 29  1  0
  4 30  1  0
  8 31  1  0
  8 32  1  0
  9 33  1  0
  9 34  1  0
 10 35  1  0
 10 36  1  0
 11 37  1  1
 15 38  1  0
 16 39  1  0
 18 40  1  0
 19 41  1  0
 21 42  1  0
 24 43  1  0
 25 44  1  0
M  END
>  <smiles>  (21) 
O=C(NCC(=O)N1CCC[C@H]1c1nnc[nH]1)c1ccc2cc(Cl)ccc2n1

>  <score_type>  (21) 
oracle

>  <origin>  (21) 
autodockgpu

>  <m_score__min__energy>  (21) 
-7.9900000000000002

>  <m_primary>  (21) 
energy

>  <rmsd>  (21) 
8.663281268251756

>  <m_score__min__rmsd>  (21) 
8.663281268251756

>  <meeko>  (21) 
{"free_energy": -7.74, "intermolecular_energy": -9.23, "internal_energy": -1.61, "cluster_size": 1, "cluster_id": 3, "rank_in_cluster": 1}

>  <energy>  (21) 
-7.54

>  <cluster_rmsd>  (21) 
1.38

>  <cluster>  (21) 
2

$$$$

     RDKit          3D

 44 47  0  0  0  0  0  0  0  0999 V2000
  139.5050   71.8710  220.5990 O   0  0  0  0  0  0  0  0  0  0  0  0
  139.3570   72.3090  221.7700 C   0  0  0  0  0  0  0  0  0  0  0  0
  138.9490   73.6800  221.9450 N   0  0  0  0  0  0  0  0  0  0  0  0
  138.7400   74.4510  220.7570 C   0  0  0  0  0  0  0  0  0  0  0  0
  139.9330   74.4740  219.8750 C   0  0  0  0  0  0  0  0  0  0  0  0
  140.1140   73.6480  218.9370 O   0  0  0  0  0  0  0  0  0  0  0  0
  140.9390   75.4570  220.0640 N   0  0  0  0  0  0  0  0  0  0  0  0
  140.7610   76.7290  220.7540 C   0  0  0  0  0  0  0  0  0  0  0  0
  141.8100   77.6180  220.0780 C   0  0  0  0  0  0  0  0  0  0  0  0
  142.9790   76.6550  220.0470 C   0  0  0  0  0  0  0  0  0  0  0  0
  142.3090   75.3710  219.6090 C   0  0  1  0  0  0  0  0  0  0  0  0
  143.0240   74.1770  220.1280 C   0  0  0  0  0  0  0  0  0  0  0  0
  144.3360   74.1380  220.4130 N   0  0  0  0  0  0  0  0  0  0  0  0
  144.6110   72.9090  220.8520 N   0  0  0  0  0  0  0  0  0  0  0  0
  143.4730   72.1730  220.8430 C   0  0  0  0  0  0  0  0  0  0  0  0
  142.4740   72.9710  220.3880 N   0  0  0  0  0  0  0  0  0  0  0  0
  139.5820   71.4790  222.9430 C   0  0  0  0  0  0  0  0  0  0  0  0
  139.2180   70.1470  222.8800 C   0  0  0  0  0  0  0  0  0  0  0  0
  139.3990   69.2970  223.9460 C   0  0  0  0  0  0  0  0  0  0  0  0
  139.9600   69.7860  225.1080 C   0  0  0  0  0  0  0  0  0  0  0  0
  140.1500   68.9490  226.1880 C   0  0  0  0  0  0  0  0  0  0  0  0
  140.7090   69.4470  227.3400 C   0  0  0  0  0  0  0  0  0  0  0  0
  140.9610   68.4020  228.7260 Cl  0  0  0  0  0  0  0  0  0  0  0  0
  141.0720   70.7760  227.3990 C   0  0  0  0  0  0  0  0  0  0  0  0
  140.8800   71.6120  226.3130 C   0  0  0  0  0  0  0  0  0  0  0  0
  140.3220   71.1300  225.1540 C   0  0  0  0  0  0  0  0  0  0  0  0
  140.1210   71.9170  224.0810 N   0  0  0  0  0  0  0  0  0  0  0  0
  138.8220   74.0530  222.9230 H   0  0  0  0  0  0  0  0  0  0  0  0
  137.8974   74.0168  220.1988 H   0  0  0  0  0  0  0  0  0  0  0  0
  138.5323   75.4867  221.0640 H   0  0  0  0  0  0  0  0  0  0  0  0
  139.7461   77.1254  220.6029 H   0  0  0  0  0  0  0  0  0  0  0  0
  140.8813   76.6583  221.8451 H   0  0  0  0  0  0  0  0  0  0  0  0
  141.5008   77.9194  219.0663 H   0  0  0  0  0  0  0  0  0  0  0  0
  142.0070   78.5743  220.5846 H   0  0  0  0  0  0  0  0  0  0  0  0
  143.7431   76.9754  219.3234 H   0  0  0  0  0  0  0  0  0  0  0  0
  143.5157   76.5741  221.0038 H   0  0  0  0  0  0  0  0  0  0  0  0
  142.3356   75.2515  218.5158 H   0  0  0  0  0  0  0  0  0  0  0  0
  143.3767   71.1207  221.1487 H   0  0  0  0  0  0  0  0  0  0  0  0
  141.4620   72.7430  220.2490 H   0  0  0  0  0  0  0  0  0  0  0  0
  138.7720   69.7567  221.9533 H   0  0  0  0  0  0  0  0  0  0  0  0
  139.1004   68.2408  223.8732 H   0  0  0  0  0  0  0  0  0  0  0  0
  139.8561   67.8907  226.1273 H   0  0  0  0  0  0  0  0  0  0  0  0
  141.5196   71.1765  228.3205 H   0  0  0  0  0  0  0  0  0  0  0  0
  141.1762   72.6694  226.3783 H   0  0  0  0  0  0  0  0  0  0  0  0
  1  2  2  0
  2  3  1  0
  3  4  1  0
  4  5  1  0
  5  6  2  0
  5  7  1  0
  7  8  1  0
  8  9  1  0
  9 10  1  0
 10 11  1  0
 11 12  1  0
 12 13  2  0
 13 14  1  0
 14 15  2  0
 15 16  1  0
  2 17  1  0
 17 18  2  0
 18 19  1  0
 19 20  2  0
 20 21  1  0
 21 22  2  0
 22 23  1  0
 22 24  1  0
 24 25  2  0
 25 26  1  0
 26 27  2  0
 11  7  1  0
 16 12  1  0
 27 17  1  0
 26 20  1  0
  3 28  1  0
  4 29  1  0
  4 30  1  0
  8 31  1  0
  8 32  1  0
  9 33  1  0
  9 34  1  0
 10 35  1  0
 10 36  1  0
 11 37  1  6
 15 38  1  0
 16 39  1  0
 18 40  1  0
 19 41  1  0
 21 42  1  0
 24 43  1  0
 25 44  1  0
M  END
>  <smiles>  (22) 
O=C(NCC(=O)N1CCC[C@H]1c1nnc[nH]1)c1ccc2cc(Cl)ccc2n1

>  <score_type>  (22) 
oracle

>  <origin>  (22) 
autodockgpu

>  <m_score__min__energy>  (22) 
-7.9900000000000002

>  <m_primary>  (22) 
energy

>  <rmsd>  (22) 
2.997756640411011

>  <m_score__min__rmsd>  (22) 
2.997756640411011

>  <meeko>  (22) 
{"free_energy": -6.66, "intermolecular_energy": -8.15, "internal_energy": -2.73, "cluster_size": 13, "cluster_id": 1, "rank_in_cluster": 12}

>  <energy>  (22) 
-7.49

>  <cluster_rmsd>  (22) 
1.29

>  <cluster>  (22) 
2

$$$$

     RDKit          3D

 44 47  0  0  0  0  0  0  0  0999 V2000
  139.3350   71.9270  220.6480 O   0  0  0  0  0  0  0  0  0  0  0  0
  139.3740   72.3870  221.8190 C   0  0  0  0  0  0  0  0  0  0  0  0
  139.1800   73.8030  222.0070 N   0  0  0  0  0  0  0  0  0  0  0  0
  138.9550   74.5890  220.8320 C   0  0  0  0  0  0  0  0  0  0  0  0
  140.0500   74.4560  219.8390 C   0  0  0  0  0  0  0  0  0  0  0  0
  140.0290   73.6180  218.8950 O   0  0  0  0  0  0  0  0  0  0  0  0
  141.1920   75.2960  219.9230 N   0  0  0  0  0  0  0  0  0  0  0  0
  141.2230   76.6270  220.5150 C   0  0  0  0  0  0  0  0  0  0  0  0
  142.3610   77.3040  219.7430 C   0  0  0  0  0  0  0  0  0  0  0  0
  143.3790   76.1820  219.7560 C   0  0  0  0  0  0  0  0  0  0  0  0
  142.5180   74.9790  219.4390 C   0  0  1  0  0  0  0  0  0  0  0  0
  143.0750   73.7360  220.0310 C   0  0  0  0  0  0  0  0  0  0  0  0
  144.3660   73.5620  220.3610 N   0  0  0  0  0  0  0  0  0  0  0  0
  144.4850   72.3300  220.8590 N   0  0  0  0  0  0  0  0  0  0  0  0
  143.2710   71.7290  220.8430 C   0  0  0  0  0  0  0  0  0  0  0  0
  142.3830   72.6140  220.3230 N   0  0  0  0  0  0  0  0  0  0  0  0
  139.6050   71.5410  222.9780 C   0  0  0  0  0  0  0  0  0  0  0  0
  139.2610   70.2050  222.8910 C   0  0  0  0  0  0  0  0  0  0  0  0
  139.4490   69.3400  223.9430 C   0  0  0  0  0  0  0  0  0  0  0  0
  139.9970   69.8170  225.1170 C   0  0  0  0  0  0  0  0  0  0  0  0
  140.1930   68.9640  226.1830 C   0  0  0  0  0  0  0  0  0  0  0  0
  140.7390   69.4500  227.3460 C   0  0  0  0  0  0  0  0  0  0  0  0
  140.9990   68.3850  228.7160 Cl  0  0  0  0  0  0  0  0  0  0  0  0
  141.0830   70.7840  227.4290 C   0  0  0  0  0  0  0  0  0  0  0  0
  140.8830   71.6350  226.3580 C   0  0  0  0  0  0  0  0  0  0  0  0
  140.3380   71.1650  225.1870 C   0  0  0  0  0  0  0  0  0  0  0  0
  140.1320   71.9670  224.1270 N   0  0  0  0  0  0  0  0  0  0  0  0
  139.2110   74.1960  222.9850 H   0  0  0  0  0  0  0  0  0  0  0  0
  138.0140   74.2631  220.3648 H   0  0  0  0  0  0  0  0  0  0  0  0
  138.9104   75.6441  221.1400 H   0  0  0  0  0  0  0  0  0  0  0  0
  140.2694   77.1533  220.3611 H   0  0  0  0  0  0  0  0  0  0  0  0
  141.3742   76.6201  221.6045 H   0  0  0  0  0  0  0  0  0  0  0  0
  142.0593   77.5718  218.7196 H   0  0  0  0  0  0  0  0  0  0  0  0
  142.7108   78.2567  220.1673 H   0  0  0  0  0  0  0  0  0  0  0  0
  144.1526   76.3342  218.9889 H   0  0  0  0  0  0  0  0  0  0  0  0
  143.9344   76.0955  220.7015 H   0  0  0  0  0  0  0  0  0  0  0  0
  142.4864   74.7757  218.3584 H   0  0  0  0  0  0  0  0  0  0  0  0
  143.0459   70.7092  221.1886 H   0  0  0  0  0  0  0  0  0  0  0  0
  141.3560   72.4960  220.1590 H   0  0  0  0  0  0  0  0  0  0  0  0
  138.8254   69.8239  221.9556 H   0  0  0  0  0  0  0  0  0  0  0  0
  139.1663   68.2810  223.8504 H   0  0  0  0  0  0  0  0  0  0  0  0
  139.9143   67.9029  226.1025 H   0  0  0  0  0  0  0  0  0  0  0  0
  141.5217   71.1750  228.3589 H   0  0  0  0  0  0  0  0  0  0  0  0
  141.1620   72.6956  226.4436 H   0  0  0  0  0  0  0  0  0  0  0  0
  1  2  2  0
  2  3  1  0
  3  4  1  0
  4  5  1  0
  5  6  2  0
  5  7  1  0
  7  8  1  0
  8  9  1  0
  9 10  1  0
 10 11  1  0
 11 12  1  0
 12 13  2  0
 13 14  1  0
 14 15  2  0
 15 16  1  0
  2 17  1  0
 17 18  2  0
 18 19  1  0
 19 20  2  0
 20 21  1  0
 21 22  2  0
 22 23  1  0
 22 24  1  0
 24 25  2  0
 25 26  1  0
 26 27  2  0
 11  7  1  0
 16 12  1  0
 27 17  1  0
 26 20  1  0
  3 28  1  0
  4 29  1  0
  4 30  1  0
  8 31  1  0
  8 32  1  0
  9 33  1  0
  9 34  1  0
 10 35  1  0
 10 36  1  0
 11 37  1  6
 15 38  1  0
 16 39  1  0
 18 40  1  0
 19 41  1  0
 21 42  1  0
 24 43  1  0
 25 44  1  0
M  END
>  <smiles>  (23) 
O=C(NCC(=O)N1CCC[C@H]1c1nnc[nH]1)c1ccc2cc(Cl)ccc2n1

>  <score_type>  (23) 
oracle

>  <origin>  (23) 
autodockgpu

>  <m_score__min__energy>  (23) 
-7.9900000000000002

>  <m_primary>  (23) 
energy

>  <rmsd>  (23) 
3.147976140613889

>  <m_score__min__rmsd>  (23) 
3.147976140613889

>  <meeko>  (23) 
{"free_energy": -6.71, "intermolecular_energy": -8.2, "internal_energy": -2.85, "cluster_size": 13, "cluster_id": 1, "rank_in_cluster": 10}

>  <energy>  (23) 
-7.41

>  <cluster_rmsd>  (23) 
1.01

>  <cluster>  (23) 
2

$$$$

     RDKit          3D

 44 47  0  0  0  0  0  0  0  0999 V2000
  136.7060   71.1030  221.5490 O   0  0  0  0  0  0  0  0  0  0  0  0
  137.4440   71.6860  222.3860 C   0  0  0  0  0  0  0  0  0  0  0  0
  137.6620   73.1030  222.2400 N   0  0  0  0  0  0  0  0  0  0  0  0
  137.0140   73.7490  221.1390 C   0  0  0  0  0  0  0  0  0  0  0  0
  137.8470   74.8170  220.5330 C   0  0  0  0  0  0  0  0  0  0  0  0
  137.8060   75.1140  219.3070 O   0  0  0  0  0  0  0  0  0  0  0  0
  138.7450   75.5630  221.3410 N   0  0  0  0  0  0  0  0  0  0  0  0
  138.3630   76.5150  222.3760 C   0  0  0  0  0  0  0  0  0  0  0  0
  139.5550   77.4780  222.3940 C   0  0  0  0  0  0  0  0  0  0  0  0
  140.6910   76.4770  222.3300 C   0  0  0  0  0  0  0  0  0  0  0  0
  140.1900   75.5090  221.2810 C   0  0  1  0  0  0  0  0  0  0  0  0
  140.7330   74.1430  221.4950 C   0  0  0  0  0  0  0  0  0  0  0  0
  140.3780   73.3310  222.5040 N   0  0  0  0  0  0  0  0  0  0  0  0
  141.0710   72.1990  222.3660 N   0  0  0  0  0  0  0  0  0  0  0  0
  141.8620   72.2980  221.2700 C   0  0  0  0  0  0  0  0  0  0  0  0
  141.6490   73.5200  220.7220 N   0  0  0  0  0  0  0  0  0  0  0  0
  138.0770   70.9790  223.4870 C   0  0  0  0  0  0  0  0  0  0  0  0
  137.7190   69.6620  223.7100 C   0  0  0  0  0  0  0  0  0  0  0  0
  138.2730   68.9260  224.7310 C   0  0  0  0  0  0  0  0  0  0  0  0
  139.2110   69.5150  225.5540 C   0  0  0  0  0  0  0  0  0  0  0  0
  139.7770   68.7920  226.5830 C   0  0  0  0  0  0  0  0  0  0  0  0
  140.7100   69.3900  227.3960 C   0  0  0  0  0  0  0  0  0  0  0  0
  141.4450   68.4910  228.7110 Cl  0  0  0  0  0  0  0  0  0  0  0  0
  141.0650   70.7040  227.1700 C   0  0  0  0  0  0  0  0  0  0  0  0
  140.4940   71.4240  226.1380 C   0  0  0  0  0  0  0  0  0  0  0  0
  139.5600   70.8420  225.3150 C   0  0  0  0  0  0  0  0  0  0  0  0
  138.9860   71.5160  224.3020 N   0  0  0  0  0  0  0  0  0  0  0  0
  138.2790   73.5980  222.9370 H   0  0  0  0  0  0  0  0  0  0  0  0
  136.7928   72.9953  220.3690 H   0  0  0  0  0  0  0  0  0  0  0  0
  136.0964   74.2194  221.5221 H   0  0  0  0  0  0  0  0  0  0  0  0
  137.4325   77.0385  222.1112 H   0  0  0  0  0  0  0  0  0  0  0  0
  138.1616   76.0469  223.3508 H   0  0  0  0  0  0  0  0  0  0  0  0
  139.5518   78.1503  221.5234 H   0  0  0  0  0  0  0  0  0  0  0  0
  139.5866   78.1657  223.2519 H   0  0  0  0  0  0  0  0  0  0  0  0
  141.6303   76.9563  222.0170 H   0  0  0  0  0  0  0  0  0  0  0  0
  140.9252   76.0059  223.2960 H   0  0  0  0  0  0  0  0  0  0  0  0
  140.5356   75.7866  220.2743 H   0  0  0  0  0  0  0  0  0  0  0  0
  142.5511   71.5276  220.8936 H   0  0  0  0  0  0  0  0  0  0  0  0
  142.0840   73.9430  219.8690 H   0  0  0  0  0  0  0  0  0  0  0  0
  136.9720   69.1912  223.0540 H   0  0  0  0  0  0  0  0  0  0  0  0
  137.9719   67.8800  224.8898 H   0  0  0  0  0  0  0  0  0  0  0  0
  139.4841   67.7452  226.7517 H   0  0  0  0  0  0  0  0  0  0  0  0
  141.8118   71.1843  227.8193 H   0  0  0  0  0  0  0  0  0  0  0  0
  140.7893   72.4709  225.9740 H   0  0  0  0  0  0  0  0  0  0  0  0
  1  2  2  0
  2  3  1  0
  3  4  1  0
  4  5  1  0
  5  6  2  0
  5  7  1  0
  7  8  1  0
  8  9  1  0
  9 10  1  0
 10 11  1  0
 11 12  1  0
 12 13  2  0
 13 14  1  0
 14 15  2  0
 15 16  1  0
  2 17  1  0
 17 18  2  0
 18 19  1  0
 19 20  2  0
 20 21  1  0
 21 22  2  0
 22 23  1  0
 22 24  1  0
 24 25  2  0
 25 26  1  0
 26 27  2  0
 11  7  1  0
 16 12  1  0
 27 17  1  0
 26 20  1  0
  3 28  1  0
  4 29  1  0
  4 30  1  0
  8 31  1  0
  8 32  1  0
  9 33  1  0
  9 34  1  0
 10 35  1  0
 10 36  1  0
 11 37  1  6
 15 38  1  0
 16 39  1  0
 18 40  1  0
 19 41  1  0
 21 42  1  0
 24 43  1  0
 25 44  1  0
M  END
>  <smiles>  (24) 
O=C(NCC(=O)N1CCC[C@H]1c1nnc[nH]1)c1ccc2cc(Cl)ccc2n1

>  <score_type>  (24) 
oracle

>  <origin>  (24) 
autodockgpu

>  <m_score__min__energy>  (24) 
-7.9900000000000002

>  <m_primary>  (24) 
energy

>  <rmsd>  (24) 
3.2239733454073773

>  <m_score__min__rmsd>  (24) 
3.2239733454073773

>  <meeko>  (24) 
{"free_energy": -6.71, "intermolecular_energy": -8.2, "internal_energy": -2.72, "cluster_size": 7, "cluster_id": 8, "rank_in_cluster": 4}

>  <energy>  (24) 
-7.37

>  <cluster_rmsd>  (24) 
1.51

>  <cluster>  (24) 
2

$$$$

     RDKit          3D

 44 47  0  0  0  0  0  0  0  0999 V2000
  140.1830   72.4290  220.6900 O   0  0  0  0  0  0  0  0  0  0  0  0
  139.9920   72.8180  221.8720 C   0  0  0  0  0  0  0  0  0  0  0  0
  139.7160   74.2150  222.0990 N   0  0  0  0  0  0  0  0  0  0  0  0
  139.6800   75.0640  220.9470 C   0  0  0  0  0  0  0  0  0  0  0  0
  140.0280   76.4720  221.2650 C   0  0  0  0  0  0  0  0  0  0  0  0
  141.1060   77.0170  220.8990 O   0  0  0  0  0  0  0  0  0  0  0  0
  139.1290   77.2740  222.0160 N   0  0  0  0  0  0  0  0  0  0  0  0
  137.9590   76.7890  222.7350 C   0  0  0  0  0  0  0  0  0  0  0  0
  137.0350   78.0120  222.7230 C   0  0  0  0  0  0  0  0  0  0  0  0
  138.0400   79.0930  223.0670 C   0  0  0  0  0  0  0  0  0  0  0  0
  139.2170   78.7060  222.1980 C   0  0  1  0  0  0  0  0  0  0  0  0
  140.5040   79.1420  222.7980 C   0  0  0  0  0  0  0  0  0  0  0  0
  140.6890   80.3050  223.4430 N   0  0  0  0  0  0  0  0  0  0  0  0
  141.9630   80.3430  223.8370 N   0  0  0  0  0  0  0  0  0  0  0  0
  142.5800   79.2040  223.4400 C   0  0  0  0  0  0  0  0  0  0  0  0
  141.6630   78.4480  222.7860 N   0  0  0  0  0  0  0  0  0  0  0  0
  140.0400   71.9100  223.0050 C   0  0  0  0  0  0  0  0  0  0  0  0
  139.5720   70.6210  222.8300 C   0  0  0  0  0  0  0  0  0  0  0  0
  139.5840   69.7020  223.8530 C   0  0  0  0  0  0  0  0  0  0  0  0
  140.0760   70.0750  225.0870 C   0  0  0  0  0  0  0  0  0  0  0  0
  140.0960   69.1670  226.1250 C   0  0  0  0  0  0  0  0  0  0  0  0
  140.5880   69.5500  227.3490 C   0  0  0  0  0  0  0  0  0  0  0  0
  140.6240   68.4130  228.6850 Cl  0  0  0  0  0  0  0  0  0  0  0  0
  141.0540   70.8370  227.5210 C   0  0  0  0  0  0  0  0  0  0  0  0
  141.0320   71.7440  226.4770 C   0  0  0  0  0  0  0  0  0  0  0  0
  140.5430   71.3770  225.2460 C   0  0  0  0  0  0  0  0  0  0  0  0
  140.5080   72.2350  224.2110 N   0  0  0  0  0  0  0  0  0  0  0  0
  139.5550   74.5480  223.0860 H   0  0  0  0  0  0  0  0  0  0  0  0
  140.3974   74.6825  220.2055 H   0  0  0  0  0  0  0  0  0  0  0  0
  138.6512   75.0546  220.5579 H   0  0  0  0  0  0  0  0  0  0  0  0
  137.4975   75.9365  222.2151 H   0  0  0  0  0  0  0  0  0  0  0  0
  138.1862   76.4197  223.7459 H   0  0  0  0  0  0  0  0  0  0  0  0
  136.5820   78.1736  221.7337 H   0  0  0  0  0  0  0  0  0  0  0  0
  136.1683   77.9488  223.3974 H   0  0  0  0  0  0  0  0  0  0  0  0
  137.6599   80.0916  222.8057 H   0  0  0  0  0  0  0  0  0  0  0  0
  138.2783   79.1561  224.1390 H   0  0  0  0  0  0  0  0  0  0  0  0
  139.1851   79.2112  221.2214 H   0  0  0  0  0  0  0  0  0  0  0  0
  143.6333   78.9402  223.6160 H   0  0  0  0  0  0  0  0  0  0  0  0
  141.7810   77.5070  222.3440 H   0  0  0  0  0  0  0  0  0  0  0  0
  139.1797   70.3226  221.8466 H   0  0  0  0  0  0  0  0  0  0  0  0
  139.2060   68.6820  223.6895 H   0  0  0  0  0  0  0  0  0  0  0  0
  139.7209   68.1441  225.9739 H   0  0  0  0  0  0  0  0  0  0  0  0
  141.4480   71.1457  228.5005 H   0  0  0  0  0  0  0  0  0  0  0  0
  141.4083   72.7658  226.6329 H   0  0  0  0  0  0  0  0  0  0  0  0
  1  2  2  0
  2  3  1  0
  3  4  1  0
  4  5  1  0
  5  6  2  0
  5  7  1  0
  7  8  1  0
  8  9  1  0
  9 10  1  0
 10 11  1  0
 11 12  1  0
 12 13  2  0
 13 14  1  0
 14 15  2  0
 15 16  1  0
  2 17  1  0
 17 18  2  0
 18 19  1  0
 19 20  2  0
 20 21  1  0
 21 22  2  0
 22 23  1  0
 22 24  1  0
 24 25  2  0
 25 26  1  0
 26 27  2  0
 11  7  1  0
 16 12  1  0
 27 17  1  0
 26 20  1  0
  3 28  1  0
  4 29  1  0
  4 30  1  0
  8 31  1  0
  8 32  1  0
  9 33  1  0
  9 34  1  0
 10 35  1  0
 10 36  1  0
 11 37  1  6
 15 38  1  0
 16 39  1  0
 18 40  1  0
 19 41  1  0
 21 42  1  0
 24 43  1  0
 25 44  1  0
M  END
>  <smiles>  (25) 
O=C(NCC(=O)N1CCC[C@H]1c1nnc[nH]1)c1ccc2cc(Cl)ccc2n1

>  <score_type>  (25) 
oracle

>  <origin>  (25) 
autodockgpu

>  <m_score__min__energy>  (25) 
-7.9900000000000002

>  <m_primary>  (25) 
energy

>  <rmsd>  (25) 
3.1176433277294016

>  <m_score__min__rmsd>  (25) 
3.1176433277294016

>  <meeko>  (25) 
{"free_energy": -7.91, "intermolecular_energy": -9.4, "internal_energy": -1.64, "cluster_size": 11, "cluster_id": 2, "rank_in_cluster": 1}

>  <energy>  (25) 
-7.74

>  <cluster_rmsd>  (25) 
0.0

>  <cluster>  (25) 
3

$$$$

     RDKit          3D

 44 47  0  0  0  0  0  0  0  0999 V2000
  141.7530   73.0180  220.7210 O   0  0  0  0  0  0  0  0  0  0  0  0
  141.0770   73.8010  221.4380 C   0  0  0  0  0  0  0  0  0  0  0  0
  140.1300   73.2360  222.3670 N   0  0  0  0  0  0  0  0  0  0  0  0
  140.0300   71.8090  222.4040 C   0  0  0  0  0  0  0  0  0  0  0  0
  139.7090   71.2940  223.7580 C   0  0  0  0  0  0  0  0  0  0  0  0
  140.4150   71.5390  224.7750 O   0  0  0  0  0  0  0  0  0  0  0  0
  138.5610   70.4820  223.9570 N   0  0  0  0  0  0  0  0  0  0  0  0
  137.5370   70.2040  222.9580 C   0  0  0  0  0  0  0  0  0  0  0  0
  136.2970   69.9490  223.8220 C   0  0  0  0  0  0  0  0  0  0  0  0
  136.9100   69.0710  224.8940 C   0  0  0  0  0  0  0  0  0  0  0  0
  138.2090   69.7930  225.1790 C   0  0  1  0  0  0  0  0  0  0  0  0
  139.2630   68.8570  225.6480 C   0  0  0  0  0  0  0  0  0  0  0  0
  139.1940   67.5200  225.5470 N   0  0  0  0  0  0  0  0  0  0  0  0
  140.3160   67.0240  226.0710 N   0  0  0  0  0  0  0  0  0  0  0  0
  141.0910   68.0480  226.5020 C   0  0  0  0  0  0  0  0  0  0  0  0
  140.4290   69.2020  226.2350 N   0  0  0  0  0  0  0  0  0  0  0  0
  141.2210   75.2450  221.3600 C   0  0  0  0  0  0  0  0  0  0  0  0
  141.9110   75.7760  220.2860 C   0  0  0  0  0  0  0  0  0  0  0  0
  142.0900   77.1310  220.1400 C   0  0  0  0  0  0  0  0  0  0  0  0
  141.5660   77.9850  221.0900 C   0  0  0  0  0  0  0  0  0  0  0  0
  141.7360   79.3480  220.9600 C   0  0  0  0  0  0  0  0  0  0  0  0
  141.2100   80.1880  221.9120 C   0  0  0  0  0  0  0  0  0  0  0  0
  141.4120   81.9250  221.7690 Cl  0  0  0  0  0  0  0  0  0  0  0  0
  140.5210   79.6550  222.9820 C   0  0  0  0  0  0  0  0  0  0  0  0
  140.3550   78.2880  223.1070 C   0  0  0  0  0  0  0  0  0  0  0  0
  140.8740   77.4340  222.1650 C   0  0  0  0  0  0  0  0  0  0  0  0
  140.7290   76.0990  222.2580 N   0  0  0  0  0  0  0  0  0  0  0  0
  139.5610   73.8860  222.9720 H   0  0  0  0  0  0  0  0  0  0  0  0
  139.2371   71.4934  221.7100 H   0  0  0  0  0  0  0  0  0  0  0  0
  141.0091   71.3990  222.1153 H   0  0  0  0  0  0  0  0  0  0  0  0
  137.3872   71.0657  222.2909 H   0  0  0  0  0  0  0  0  0  0  0  0
  137.7887   69.3661  222.2912 H   0  0  0  0  0  0  0  0  0  0  0  0
  135.8899   70.8816  224.2397 H   0  0  0  0  0  0  0  0  0  0  0  0
  135.4409   69.5077  223.2907 H   0  0  0  0  0  0  0  0  0  0  0  0
  136.2717   69.0264  225.7888 H   0  0  0  0  0  0  0  0  0  0  0  0
  137.0405   68.0219  224.5901 H   0  0  0  0  0  0  0  0  0  0  0  0
  138.1008   70.5158  226.0011 H   0  0  0  0  0  0  0  0  0  0  0  0
  142.0773   67.9601  226.9811 H   0  0  0  0  0  0  0  0  0  0  0  0
  140.7220   70.1880  226.4270 H   0  0  0  0  0  0  0  0  0  0  0  0
  142.3277   75.0961  219.5283 H   0  0  0  0  0  0  0  0  0  0  0  0
  142.6437   77.5299  219.2773 H   0  0  0  0  0  0  0  0  0  0  0  0
  142.2878   79.7588  220.1017 H   0  0  0  0  0  0  0  0  0  0  0  0
  140.0987   80.3257  223.7448 H   0  0  0  0  0  0  0  0  0  0  0  0
  139.8031   77.8815  223.9673 H   0  0  0  0  0  0  0  0  0  0  0  0
  1  2  2  0
  2  3  1  0
  3  4  1  0
  4  5  1  0
  5  6  2  0
  5  7  1  0
  7  8  1  0
  8  9  1  0
  9 10  1  0
 10 11  1  0
 11 12  1  0
 12 13  2  0
 13 14  1  0
 14 15  2  0
 15 16  1  0
  2 17  1  0
 17 18  2  0
 18 19  1  0
 19 20  2  0
 20 21  1  0
 21 22  2  0
 22 23  1  0
 22 24  1  0
 24 25  2  0
 25 26  1  0
 26 27  2  0
 11  7  1  0
 16 12  1  0
 27 17  1  0
 26 20  1  0
  3 28  1  0
  4 29  1  0
  4 30  1  0
  8 31  1  0
  8 32  1  0
  9 33  1  0
  9 34  1  0
 10 35  1  0
 10 36  1  0
 11 37  1  1
 15 38  1  0
 16 39  1  0
 18 40  1  0
 19 41  1  0
 21 42  1  0
 24 43  1  0
 25 44  1  0
M  END
>  <smiles>  (26) 
O=C(NCC(=O)N1CCC[C@H]1c1nnc[nH]1)c1ccc2cc(Cl)ccc2n1

>  <score_type>  (26) 
oracle

>  <origin>  (26) 
autodockgpu

>  <m_score__min__energy>  (26) 
-7.9900000000000002

>  <m_primary>  (26) 
energy

>  <rmsd>  (26) 
8.713307107463915

>  <m_score__min__rmsd>  (26) 
8.713307107463915

>  <meeko>  (26) 
{"free_energy": -7.31, "intermolecular_energy": -8.8, "internal_energy": -1.96, "cluster_size": 2, "cluster_id": 5, "rank_in_cluster": 1}

>  <energy>  (26) 
-7.45

>  <cluster_rmsd>  (26) 
0.0

>  <cluster>  (26) 
4

$$$$

     RDKit          3D

 44 47  0  0  0  0  0  0  0  0999 V2000
  136.7220   75.4760  220.7010 O   0  0  0  0  0  0  0  0  0  0  0  0
  137.5390   75.2000  221.6180 C   0  0  0  0  0  0  0  0  0  0  0  0
  137.4020   73.9400  222.3040 N   0  0  0  0  0  0  0  0  0  0  0  0
  136.3330   73.0860  221.8850 C   0  0  0  0  0  0  0  0  0  0  0  0
  135.0860   73.3110  222.6580 C   0  0  0  0  0  0  0  0  0  0  0  0
  134.1940   72.4290  222.8020 O   0  0  0  0  0  0  0  0  0  0  0  0
  134.8520   74.5650  223.2800 N   0  0  0  0  0  0  0  0  0  0  0  0
  134.3430   75.7580  222.6170 C   0  0  0  0  0  0  0  0  0  0  0  0
  134.9410   76.8860  223.4650 C   0  0  0  0  0  0  0  0  0  0  0  0
  134.6820   76.3280  224.8500 C   0  0  0  0  0  0  0  0  0  0  0  0
  135.0750   74.8770  224.6750 C   0  0  1  0  0  0  0  0  0  0  0  0
  134.3220   73.9920  225.6010 C   0  0  0  0  0  0  0  0  0  0  0  0
  133.5660   74.4250  226.6230 N   0  0  0  0  0  0  0  0  0  0  0  0
  133.0520   73.3490  227.2200 N   0  0  0  0  0  0  0  0  0  0  0  0
  133.4840   72.2390  226.5760 C   0  0  0  0  0  0  0  0  0  0  0  0
  134.2830   72.6430  225.5560 N   0  0  0  0  0  0  0  0  0  0  0  0
  138.6080   76.1070  222.0020 C   0  0  0  0  0  0  0  0  0  0  0  0
  139.9080   75.6400  221.9580 C   0  0  0  0  0  0  0  0  0  0  0  0
  140.9740   76.4360  222.3060 C   0  0  0  0  0  0  0  0  0  0  0  0
  140.7410   77.7350  222.7080 C   0  0  0  0  0  0  0  0  0  0  0  0
  141.7980   78.5480  223.0610 C   0  0  0  0  0  0  0  0  0  0  0  0
  141.5540   79.8400  223.4600 C   0  0  0  0  0  0  0  0  0  0  0  0
  142.8810   80.8940  223.9120 Cl  0  0  0  0  0  0  0  0  0  0  0  0
  140.2550   80.3030  223.5020 C   0  0  0  0  0  0  0  0  0  0  0  0
  139.1990   79.4840  223.1480 C   0  0  0  0  0  0  0  0  0  0  0  0
  139.4250   78.1890  222.7470 C   0  0  0  0  0  0  0  0  0  0  0  0
  138.4200   77.3670  222.3960 N   0  0  0  0  0  0  0  0  0  0  0  0
  138.0830   73.7030  223.0730 H   0  0  0  0  0  0  0  0  0  0  0  0
  136.1270   73.2755  220.8212 H   0  0  0  0  0  0  0  0  0  0  0  0
  136.6494   72.0468  222.0582 H   0  0  0  0  0  0  0  0  0  0  0  0
  134.6929   75.8146  221.5757 H   0  0  0  0  0  0  0  0  0  0  0  0
  133.2454   75.7908  222.5529 H   0  0  0  0  0  0  0  0  0  0  0  0
  136.0156   77.0186  223.2712 H   0  0  0  0  0  0  0  0  0  0  0  0
  134.5189   77.8844  223.2778 H   0  0  0  0  0  0  0  0  0  0  0  0
  135.3082   76.8246  225.6059 H   0  0  0  0  0  0  0  0  0  0  0  0
  133.6502   76.4715  225.2034 H   0  0  0  0  0  0  0  0  0  0  0  0
  136.1307   74.7079  224.9335 H   0  0  0  0  0  0  0  0  0  0  0  0
  133.2331   71.1992  226.8328 H   0  0  0  0  0  0  0  0  0  0  0  0
  134.7910   72.0620  224.8480 H   0  0  0  0  0  0  0  0  0  0  0  0
  140.0948   74.6048  221.6363 H   0  0  0  0  0  0  0  0  0  0  0  0
  142.0001   76.0417  222.2644 H   0  0  0  0  0  0  0  0  0  0  0  0
  142.8284   78.1649  223.0234 H   0  0  0  0  0  0  0  0  0  0  0  0
  140.0571   81.3369  223.8212 H   0  0  0  0  0  0  0  0  0  0  0  0
  138.1703   79.8717  223.1876 H   0  0  0  0  0  0  0  0  0  0  0  0
  1  2  2  0
  2  3  1  0
  3  4  1  0
  4  5  1  0
  5  6  2  0
  5  7  1  0
  7  8  1  0
  8  9  1  0
  9 10  1  0
 10 11  1  0
 11 12  1  0
 12 13  2  0
 13 14  1  0
 14 15  2  0
 15 16  1  0
  2 17  1  0
 17 18  2  0
 18 19  1  0
 19 20  2  0
 20 21  1  0
 21 22  2  0
 22 23  1  0
 22 24  1  0
 24 25  2  0
 25 26  1  0
 26 27  2  0
 11  7  1  0
 16 12  1  0
 27 17  1  0
 26 20  1  0
  3 28  1  0
  4 29  1  0
  4 30  1  0
  8 31  1  0
  8 32  1  0
  9 33  1  0
  9 34  1  0
 10 35  1  0
 10 36  1  0
 11 37  1  1
 15 38  1  0
 16 39  1  0
 18 40  1  0
 19 41  1  0
 21 42  1  0
 24 43  1  0
 25 44  1  0
M  END
>  <smiles>  (27) 
O=C(NCC(=O)N1CCC[C@H]1c1nnc[nH]1)c1ccc2cc(Cl)ccc2n1

>  <score_type>  (27) 
oracle

>  <origin>  (27) 
autodockgpu

>  <m_score__min__energy>  (27) 
-7.9900000000000002

>  <m_primary>  (27) 
energy

>  <rmsd>  (27) 
8.058403300927235

>  <m_score__min__rmsd>  (27) 
8.058403300927235

>  <meeko>  (27) 
{"free_energy": -6.97, "intermolecular_energy": -8.46, "internal_energy": -2.29, "cluster_size": 1, "cluster_id": 7, "rank_in_cluster": 1}

>  <energy>  (27) 
-7.43

>  <cluster_rmsd>  (27) 
0.11

>  <cluster>  (27) 
4

$$$$

     RDKit          3D

 44 47  0  0  0  0  0  0  0  0999 V2000
  139.3040   72.8290  220.6490 O   0  0  0  0  0  0  0  0  0  0  0  0
  140.1190   72.9080  221.6040 C   0  0  0  0  0  0  0  0  0  0  0  0
  141.1310   73.9340  221.5600 N   0  0  0  0  0  0  0  0  0  0  0  0
  141.1310   74.7960  220.4170 C   0  0  0  0  0  0  0  0  0  0  0  0
  141.1260   76.2340  220.7870 C   0  0  0  0  0  0  0  0  0  0  0  0
  142.0190   77.0450  220.4170 O   0  0  0  0  0  0  0  0  0  0  0  0
  140.0800   76.7570  221.5930 N   0  0  0  0  0  0  0  0  0  0  0  0
  139.0470   75.9720  222.2550 C   0  0  0  0  0  0  0  0  0  0  0  0
  137.8820   76.9640  222.3360 C   0  0  0  0  0  0  0  0  0  0  0  0
  138.6330   78.2020  222.7820 C   0  0  0  0  0  0  0  0  0  0  0  0
  139.8600   78.1540  221.8970 C   0  0  1  0  0  0  0  0  0  0  0  0
  141.0280   78.8030  222.5460 C   0  0  0  0  0  0  0  0  0  0  0  0
  141.0570   79.2160  223.8240 N   0  0  0  0  0  0  0  0  0  0  0  0
  142.2620   79.7440  224.0430 N   0  0  0  0  0  0  0  0  0  0  0  0
  142.9920   79.6640  222.9040 C   0  0  0  0  0  0  0  0  0  0  0  0
  142.2150   79.0710  221.9620 N   0  0  0  0  0  0  0  0  0  0  0  0
  140.0720   72.0050  222.7420 C   0  0  0  0  0  0  0  0  0  0  0  0
  139.4140   70.7990  222.5920 C   0  0  0  0  0  0  0  0  0  0  0  0
  139.3260   69.8910  223.6210 C   0  0  0  0  0  0  0  0  0  0  0  0
  139.9100   70.1900  224.8350 C   0  0  0  0  0  0  0  0  0  0  0  0
  139.8320   69.2920  225.8790 C   0  0  0  0  0  0  0  0  0  0  0  0
  140.4170   69.6010  227.0830 C   0  0  0  0  0  0  0  0  0  0  0  0
  140.3320   68.4740  228.4240 Cl  0  0  0  0  0  0  0  0  0  0  0  0
  141.0730   70.8050  227.2290 C   0  0  0  0  0  0  0  0  0  0  0  0
  141.1480   71.7030  226.1790 C   0  0  0  0  0  0  0  0  0  0  0  0
  140.5690   71.4100  224.9690 C   0  0  0  0  0  0  0  0  0  0  0  0
  140.6240   72.2610  223.9290 N   0  0  0  0  0  0  0  0  0  0  0  0
  141.8170   74.0080  222.3570 H   0  0  0  0  0  0  0  0  0  0  0  0
  142.0311   74.5890  219.8195 H   0  0  0  0  0  0  0  0  0  0  0  0
  140.2114   74.5950  219.8478 H   0  0  0  0  0  0  0  0  0  0  0  0
  138.7761   75.0877  221.6595 H   0  0  0  0  0  0  0  0  0  0  0  0
  139.3555   75.5752  223.2335 H   0  0  0  0  0  0  0  0  0  0  0  0
  137.3980   77.1082  221.3588 H   0  0  0  0  0  0  0  0  0  0  0  0
  137.0539   76.6587  222.9925 H   0  0  0  0  0  0  0  0  0  0  0  0
  138.0448   79.1140  222.6023 H   0  0  0  0  0  0  0  0  0  0  0  0
  138.8599   78.2224  223.8581 H   0  0  0  0  0  0  0  0  0  0  0  0
  139.7137   78.7236  220.9674 H   0  0  0  0  0  0  0  0  0  0  0  0
  144.0254   80.0154  222.7677 H   0  0  0  0  0  0  0  0  0  0  0  0
  142.4460   78.8450  220.9660 H   0  0  0  0  0  0  0  0  0  0  0  0
  138.9487   70.5592  221.6245 H   0  0  0  0  0  0  0  0  0  0  0  0
  138.7963   68.9376  223.4781 H   0  0  0  0  0  0  0  0  0  0  0  0
  139.3051   68.3352  225.7485 H   0  0  0  0  0  0  0  0  0  0  0  0
  141.5424   71.0546  228.1920 H   0  0  0  0  0  0  0  0  0  0  0  0
  141.6754   72.6587  226.3147 H   0  0  0  0  0  0  0  0  0  0  0  0
  1  2  2  0
  2  3  1  0
  3  4  1  0
  4  5  1  0
  5  6  2  0
  5  7  1  0
  7  8  1  0
  8  9  1  0
  9 10  1  0
 10 11  1  0
 11 12  1  0
 12 13  2  0
 13 14  1  0
 14 15  2  0
 15 16  1  0
  2 17  1  0
 17 18  2  0
 18 19  1  0
 19 20  2  0
 20 21  1  0
 21 22  2  0
 22 23  1  0
 22 24  1  0
 24 25  2  0
 25 26  1  0
 26 27  2  0
 11  7  1  0
 16 12  1  0
 27 17  1  0
 26 20  1  0
  3 28  1  0
  4 29  1  0
  4 30  1  0
  8 31  1  0
  8 32  1  0
  9 33  1  0
  9 34  1  0
 10 35  1  0
 10 36  1  0
 11 37  1  6
 15 38  1  0
 16 39  1  0
 18 40  1  0
 19 41  1  0
 21 42  1  0
 24 43  1  0
 25 44  1  0
M  END
>  <smiles>  (28) 
O=C(NCC(=O)N1CCC[C@H]1c1nnc[nH]1)c1ccc2cc(Cl)ccc2n1

>  <score_type>  (28) 
oracle

>  <origin>  (28) 
autodockgpu

>  <m_score__min__energy>  (28) 
-7.9900000000000002

>  <m_primary>  (28) 
energy

>  <rmsd>  (28) 
2.9599182695926967

>  <m_score__min__rmsd>  (28) 
2.9599182695926967

>  <meeko>  (28) 
{"free_energy": -7.41, "intermolecular_energy": -8.9, "internal_energy": -2.02, "cluster_size": 11, "cluster_id": 2, "rank_in_cluster": 10}

>  <energy>  (28) 
-7.23

>  <cluster_rmsd>  (28) 
1.33

>  <cluster>  (28) 
4

$$$$

     RDKit          3D

 44 47  0  0  0  0  0  0  0  0999 V2000
  139.0180   76.2140  223.0080 O   0  0  0  0  0  0  0  0  0  0  0  0
  139.6000   76.2850  221.8940 C   0  0  0  0  0  0  0  0  0  0  0  0
  139.2990   77.4010  221.0330 N   0  0  0  0  0  0  0  0  0  0  0  0
  138.3480   78.3560  221.5160 C   0  0  0  0  0  0  0  0  0  0  0  0
  138.9880   79.4770  222.2490 C   0  0  0  0  0  0  0  0  0  0  0  0
  138.3560   80.4980  222.6370 O   0  0  0  0  0  0  0  0  0  0  0  0
  140.3750   79.4320  222.5480 N   0  0  0  0  0  0  0  0  0  0  0  0
  140.9560   79.0140  223.8170 C   0  0  0  0  0  0  0  0  0  0  0  0
  142.2740   79.7950  223.8480 C   0  0  0  0  0  0  0  0  0  0  0  0
  142.7340   79.5760  222.4210 C   0  0  0  0  0  0  0  0  0  0  0  0
  141.4500   79.7900  221.6480 C   0  0  1  0  0  0  0  0  0  0  0  0
  141.4390   79.0100  220.3830 C   0  0  0  0  0  0  0  0  0  0  0  0
  140.6660   79.2930  219.3220 N   0  0  0  0  0  0  0  0  0  0  0  0
  140.9310   78.3810  218.3840 N   0  0  0  0  0  0  0  0  0  0  0  0
  141.8690   77.5250  218.8550 C   0  0  0  0  0  0  0  0  0  0  0  0
  142.1890   77.9210  220.1130 N   0  0  0  0  0  0  0  0  0  0  0  0
  140.5590   75.2850  221.4540 C   0  0  0  0  0  0  0  0  0  0  0  0
  140.1390   73.9710  221.3680 C   0  0  0  0  0  0  0  0  0  0  0  0
  140.9860   72.9680  220.9600 C   0  0  0  0  0  0  0  0  0  0  0  0
  142.2880   73.2800  220.6260 C   0  0  0  0  0  0  0  0  0  0  0  0
  143.1520   72.2860  220.2150 C   0  0  0  0  0  0  0  0  0  0  0  0
  144.4470   72.6090  219.8860 C   0  0  0  0  0  0  0  0  0  0  0  0
  145.5640   71.3640  219.3600 Cl  0  0  0  0  0  0  0  0  0  0  0  0
  144.8620   73.9220  219.9730 C   0  0  0  0  0  0  0  0  0  0  0  0
  143.9920   74.9140  220.3870 C   0  0  0  0  0  0  0  0  0  0  0  0
  142.6940   74.6090  220.7190 C   0  0  0  0  0  0  0  0  0  0  0  0
  141.8230   75.5510  221.1250 N   0  0  0  0  0  0  0  0  0  0  0  0
  139.7830   77.4680  220.0980 H   0  0  0  0  0  0  0  0  0  0  0  0
  137.7939   78.7661  220.6588 H   0  0  0  0  0  0  0  0  0  0  0  0
  137.6805   77.8359  222.2188 H   0  0  0  0  0  0  0  0  0  0  0  0
  140.3087   79.2919  224.6619 H   0  0  0  0  0  0  0  0  0  0  0  0
  141.0879   77.9253  223.9028 H   0  0  0  0  0  0  0  0  0  0  0  0
  142.1134   80.8608  224.0675 H   0  0  0  0  0  0  0  0  0  0  0  0
  142.9872   79.4755  224.6221 H   0  0  0  0  0  0  0  0  0  0  0  0
  143.5031   80.3070  222.1310 H   0  0  0  0  0  0  0  0  0  0  0  0
  143.2010   78.5952  222.2481 H   0  0  0  0  0  0  0  0  0  0  0  0
  141.3380   80.8358  221.3259 H   0  0  0  0  0  0  0  0  0  0  0  0
  142.2940   76.6654  218.3160 H   0  0  0  0  0  0  0  0  0  0  0  0
  142.8750   77.4980  220.7810 H   0  0  0  0  0  0  0  0  0  0  0  0
  139.1009   73.7215  221.6327 H   0  0  0  0  0  0  0  0  0  0  0  0
  140.6300   71.9289  220.9005 H   0  0  0  0  0  0  0  0  0  0  0  0
  142.8073   71.2434  220.1511 H   0  0  0  0  0  0  0  0  0  0  0  0
  145.8977   74.1829  219.7098 H   0  0  0  0  0  0  0  0  0  0  0  0
  144.3417   75.9550  220.4510 H   0  0  0  0  0  0  0  0  0  0  0  0
  1  2  2  0
  2  3  1  0
  3  4  1  0
  4  5  1  0
  5  6  2  0
  5  7  1  0
  7  8  1  0
  8  9  1  0
  9 10  1  0
 10 11  1  0
 11 12  1  0
 12 13  2  0
 13 14  1  0
 14 15  2  0
 15 16  1  0
  2 17  1  0
 17 18  2  0
 18 19  1  0
 19 20  2  0
 20 21  1  0
 21 22  2  0
 22 23  1  0
 22 24  1  0
 24 25  2  0
 25 26  1  0
 26 27  2  0
 11  7  1  0
 16 12  1  0
 27 17  1  0
 26 20  1  0
  3 28  1  0
  4 29  1  0
  4 30  1  0
  8 31  1  0
  8 32  1  0
  9 33  1  0
  9 34  1  0
 10 35  1  0
 10 36  1  0
 11 37  1  6
 15 38  1  0
 16 39  1  0
 18 40  1  0
 19 41  1  0
 21 42  1  0
 24 43  1  0
 25 44  1  0
M  END
>  <smiles>  (29) 
O=C(NCC(=O)N1CCC[C@H]1c1nnc[nH]1)c1ccc2cc(Cl)ccc2n1

>  <score_type>  (29) 
oracle

>  <origin>  (29) 
autodockgpu

>  <m_score__min__energy>  (29) 
-7.9900000000000002

>  <m_primary>  (29) 
energy

>  <rmsd>  (29) 
6.236734424008269

>  <m_score__min__rmsd>  (29) 
6.236734424008269

>  <meeko>  (29) 
{"free_energy": -5.61, "intermolecular_energy": -7.1, "internal_energy": -3.64, "cluster_size": 5, "cluster_id": 12, "rank_in_cluster": 5}

>  <energy>  (29) 
-7.31

>  <cluster_rmsd>  (29) 
0.0

>  <cluster>  (29) 
5

$$$$

     RDKit          3D

 44 47  0  0  0  0  0  0  0  0999 V2000
  136.6320   71.1130  221.6270 O   0  0  0  0  0  0  0  0  0  0  0  0
  137.3910   71.6820  222.4550 C   0  0  0  0  0  0  0  0  0  0  0  0
  137.6300   73.0960  222.3080 N   0  0  0  0  0  0  0  0  0  0  0  0
  136.9780   73.7540  221.2170 C   0  0  0  0  0  0  0  0  0  0  0  0
  137.8360   74.7820  220.5760 C   0  0  0  0  0  0  0  0  0  0  0  0
  137.8020   75.0380  219.3400 O   0  0  0  0  0  0  0  0  0  0  0  0
  138.7500   75.5350  221.3600 N   0  0  0  0  0  0  0  0  0  0  0  0
  138.3880   76.5060  222.3840 C   0  0  0  0  0  0  0  0  0  0  0  0
  139.5870   77.4610  222.3700 C   0  0  0  0  0  0  0  0  0  0  0  0
  140.7150   76.4500  222.3070 C   0  0  0  0  0  0  0  0  0  0  0  0
  140.1930   75.4680  221.2820 C   0  0  1  0  0  0  0  0  0  0  0  0
  140.7290   74.1020  221.5110 C   0  0  0  0  0  0  0  0  0  0  0  0
  140.3530   73.2950  222.5170 N   0  0  0  0  0  0  0  0  0  0  0  0
  141.0450   72.1610  222.3970 N   0  0  0  0  0  0  0  0  0  0  0  0
  141.8570   72.2540  221.3160 C   0  0  0  0  0  0  0  0  0  0  0  0
  141.6570   73.4740  220.7580 N   0  0  0  0  0  0  0  0  0  0  0  0
  138.0270   70.9630  223.5460 C   0  0  0  0  0  0  0  0  0  0  0  0
  137.6450   69.6540  223.7760 C   0  0  0  0  0  0  0  0  0  0  0  0
  138.2000   68.9070  224.7890 C   0  0  0  0  0  0  0  0  0  0  0  0
  139.1630   69.4770  225.5960 C   0  0  0  0  0  0  0  0  0  0  0  0
  139.7310   68.7430  226.6170 C   0  0  0  0  0  0  0  0  0  0  0  0
  140.6890   69.3220  227.4130 C   0  0  0  0  0  0  0  0  0  0  0  0
  141.4260   68.4090  228.7170 Cl  0  0  0  0  0  0  0  0  0  0  0  0
  141.0680   70.6280  227.1810 C   0  0  0  0  0  0  0  0  0  0  0  0
  140.4950   71.3600  226.1560 C   0  0  0  0  0  0  0  0  0  0  0  0
  139.5360   70.7960  225.3500 C   0  0  0  0  0  0  0  0  0  0  0  0
  138.9590   71.4810  224.3450 N   0  0  0  0  0  0  0  0  0  0  0  0
  138.2640   73.5790  222.9980 H   0  0  0  0  0  0  0  0  0  0  0  0
  136.7069   73.0009  220.4625 H   0  0  0  0  0  0  0  0  0  0  0  0
  136.0897   74.2640  221.6181 H   0  0  0  0  0  0  0  0  0  0  0  0
  137.4575   77.0315  222.1231 H   0  0  0  0  0  0  0  0  0  0  0  0
  138.1963   76.0554  223.3690 H   0  0  0  0  0  0  0  0  0  0  0  0
  139.5766   78.1190  221.4886 H   0  0  0  0  0  0  0  0  0  0  0  0
  139.6353   78.1627  223.2158 H   0  0  0  0  0  0  0  0  0  0  0  0
  141.6532   76.9170  221.9729 H   0  0  0  0  0  0  0  0  0  0  0  0
  140.9589   75.9935  223.2776 H   0  0  0  0  0  0  0  0  0  0  0  0
  140.5272   75.7251  220.2660 H   0  0  0  0  0  0  0  0  0  0  0  0
  142.5519   71.4808  220.9565 H   0  0  0  0  0  0  0  0  0  0  0  0
  142.1100   73.8930  219.9120 H   0  0  0  0  0  0  0  0  0  0  0  0
  136.8779   69.1985  223.1325 H   0  0  0  0  0  0  0  0  0  0  0  0
  137.8798   67.8676  224.9537 H   0  0  0  0  0  0  0  0  0  0  0  0
  139.4192   67.7027  226.7921 H   0  0  0  0  0  0  0  0  0  0  0  0
  141.8346   71.0929  227.8183 H   0  0  0  0  0  0  0  0  0  0  0  0
  140.8094   72.4002  225.9854 H   0  0  0  0  0  0  0  0  0  0  0  0
  1  2  2  0
  2  3  1  0
  3  4  1  0
  4  5  1  0
  5  6  2  0
  5  7  1  0
  7  8  1  0
  8  9  1  0
  9 10  1  0
 10 11  1  0
 11 12  1  0
 12 13  2  0
 13 14  1  0
 14 15  2  0
 15 16  1  0
  2 17  1  0
 17 18  2  0
 18 19  1  0
 19 20  2  0
 20 21  1  0
 21 22  2  0
 22 23  1  0
 22 24  1  0
 24 25  2  0
 25 26  1  0
 26 27  2  0
 11  7  1  0
 16 12  1  0
 27 17  1  0
 26 20  1  0
  3 28  1  0
  4 29  1  0
  4 30  1  0
  8 31  1  0
  8 32  1  0
  9 33  1  0
  9 34  1  0
 10 35  1  0
 10 36  1  0
 11 37  1  6
 15 38  1  0
 16 39  1  0
 18 40  1  0
 19 41  1  0
 21 42  1  0
 24 43  1  0
 25 44  1  0
M  END
>  <smiles>  (30) 
O=C(NCC(=O)N1CCC[C@H]1c1nnc[nH]1)c1ccc2cc(Cl)ccc2n1

>  <score_type>  (30) 
oracle

>  <origin>  (30) 
autodockgpu

>  <m_score__min__energy>  (30) 
-7.9900000000000002

>  <m_primary>  (30) 
energy

>  <rmsd>  (30) 
3.23596361896265

>  <m_score__min__rmsd>  (30) 
3.23596361896265

>  <meeko>  (30) 
{"free_energy": -6.72, "intermolecular_energy": -8.21, "internal_energy": -2.7, "cluster_size": 7, "cluster_id": 8, "rank_in_cluster": 2}

>  <energy>  (30) 
-7.3

>  <cluster_rmsd>  (30) 
0.1

>  <cluster>  (30) 
5

$$$$

     RDKit          3D

 44 47  0  0  0  0  0  0  0  0999 V2000
  136.4110   71.4390  221.4320 O   0  0  0  0  0  0  0  0  0  0  0  0
  137.2100   71.9410  222.2650 C   0  0  0  0  0  0  0  0  0  0  0  0
  137.5610   73.3330  222.1270 N   0  0  0  0  0  0  0  0  0  0  0  0
  136.9660   74.0470  221.0380 C   0  0  0  0  0  0  0  0  0  0  0  0
  137.8780   75.0630  220.4570 C   0  0  0  0  0  0  0  0  0  0  0  0
  137.9230   75.3260  219.2230 O   0  0  0  0  0  0  0  0  0  0  0  0
  138.7550   75.7960  221.2990 N   0  0  0  0  0  0  0  0  0  0  0  0
  138.3460   76.7150  222.3530 C   0  0  0  0  0  0  0  0  0  0  0  0
  139.5270   77.6900  222.4160 C   0  0  0  0  0  0  0  0  0  0  0  0
  140.6750   76.7040  222.3420 C   0  0  0  0  0  0  0  0  0  0  0  0
  140.2000   75.7590  221.2590 C   0  0  1  0  0  0  0  0  0  0  0  0
  140.7560   74.3940  221.4440 C   0  0  0  0  0  0  0  0  0  0  0  0
  140.3120   73.5070  222.3500 N   0  0  0  0  0  0  0  0  0  0  0  0
  141.0490   72.4020  222.2180 N   0  0  0  0  0  0  0  0  0  0  0  0
  141.9560   72.5940  221.2300 C   0  0  0  0  0  0  0  0  0  0  0  0
  141.7720   73.8460  220.7420 N   0  0  0  0  0  0  0  0  0  0  0  0
  137.7840   71.1680  223.3540 C   0  0  0  0  0  0  0  0  0  0  0  0
  137.1470   70.0010  223.7330 C   0  0  0  0  0  0  0  0  0  0  0  0
  137.6280   69.2140  224.7530 C   0  0  0  0  0  0  0  0  0  0  0  0
  138.7760   69.5980  225.4150 C   0  0  0  0  0  0  0  0  0  0  0  0
  139.2730   68.8210  226.4420 C   0  0  0  0  0  0  0  0  0  0  0  0
  140.4170   69.2140  227.0930 C   0  0  0  0  0  0  0  0  0  0  0  0
  141.0680   68.2420  228.4010 Cl  0  0  0  0  0  0  0  0  0  0  0  0
  141.0500   70.3780  226.7120 C   0  0  0  0  0  0  0  0  0  0  0  0
  140.5470   71.1540  225.6830 C   0  0  0  0  0  0  0  0  0  0  0  0
  139.4040   70.7760  225.0210 C   0  0  0  0  0  0  0  0  0  0  0  0
  138.8900   71.5080  224.0160 N   0  0  0  0  0  0  0  0  0  0  0  0
  138.2290   73.7610  222.8220 H   0  0  0  0  0  0  0  0  0  0  0  0
  136.6933   73.3275  220.2519 H   0  0  0  0  0  0  0  0  0  0  0  0
  136.0833   74.5751  221.4279 H   0  0  0  0  0  0  0  0  0  0  0  0
  137.4140   77.2355  222.0876 H   0  0  0  0  0  0  0  0  0  0  0  0
  138.1344   76.2184  223.3114 H   0  0  0  0  0  0  0  0  0  0  0  0
  139.5294   78.3862  221.5643 H   0  0  0  0  0  0  0  0  0  0  0  0
  139.5378   78.3538  223.2931 H   0  0  0  0  0  0  0  0  0  0  0  0
  141.6133   77.2020  222.0562 H   0  0  0  0  0  0  0  0  0  0  0  0
  140.9006   76.2093  223.2983 H   0  0  0  0  0  0  0  0  0  0  0  0
  140.5565   76.0672  220.2651 H   0  0  0  0  0  0  0  0  0  0  0  0
  142.7057   71.8663  220.8860 H   0  0  0  0  0  0  0  0  0  0  0  0
  142.2890   74.3360  219.9750 H   0  0  0  0  0  0  0  0  0  0  0  0
  136.2320   69.6941  223.2052 H   0  0  0  0  0  0  0  0  0  0  0  0
  137.1039   68.2897  225.0376 H   0  0  0  0  0  0  0  0  0  0  0  0
  138.7574   67.8951  226.7366 H   0  0  0  0  0  0  0  0  0  0  0  0
  141.9662   70.6936  227.2326 H   0  0  0  0  0  0  0  0  0  0  0  0
  141.0656   72.0797  225.3930 H   0  0  0  0  0  0  0  0  0  0  0  0
  1  2  2  0
  2  3  1  0
  3  4  1  0
  4  5  1  0
  5  6  2  0
  5  7  1  0
  7  8  1  0
  8  9  1  0
  9 10  1  0
 10 11  1  0
 11 12  1  0
 12 13  2  0
 13 14  1  0
 14 15  2  0
 15 16  1  0
  2 17  1  0
 17 18  2  0
 18 19  1  0
 19 20  2  0
 20 21  1  0
 21 22  2  0
 22 23  1  0
 22 24  1  0
 24 25  2  0
 25 26  1  0
 26 27  2  0
 11  7  1  0
 16 12  1  0
 27 17  1  0
 26 20  1  0
  3 28  1  0
  4 29  1  0
  4 30  1  0
  8 31  1  0
  8 32  1  0
  9 33  1  0
  9 34  1  0
 10 35  1  0
 10 36  1  0
 11 37  1  6
 15 38  1  0
 16 39  1  0
 18 40  1  0
 19 41  1  0
 21 42  1  0
 24 43  1  0
 25 44  1  0
M  END
>  <smiles>  (31) 
O=C(NCC(=O)N1CCC[C@H]1c1nnc[nH]1)c1ccc2cc(Cl)ccc2n1

>  <score_type>  (31) 
oracle

>  <origin>  (31) 
autodockgpu

>  <m_score__min__energy>  (31) 
-7.9900000000000002

>  <m_primary>  (31) 
energy

>  <rmsd>  (31) 
3.255978171313058

>  <m_score__min__rmsd>  (31) 
3.255978171313058

>  <meeko>  (31) 
{"free_energy": -6.77, "intermolecular_energy": -8.27, "internal_energy": -2.63, "cluster_size": 7, "cluster_id": 8, "rank_in_cluster": 1}

>  <energy>  (31) 
-7.03

>  <cluster_rmsd>  (31) 
0.0

>  <cluster>  (31) 
6

$$$$

     RDKit          3D

 44 47  0  0  0  0  0  0  0  0999 V2000
  140.5190   72.5090  220.7620 O   0  0  0  0  0  0  0  0  0  0  0  0
  140.1920   72.8730  221.9220 C   0  0  0  0  0  0  0  0  0  0  0  0
  139.8290   74.2510  222.1320 N   0  0  0  0  0  0  0  0  0  0  0  0
  139.8670   75.1140  220.9900 C   0  0  0  0  0  0  0  0  0  0  0  0
  140.9740   76.1000  221.0570 C   0  0  0  0  0  0  0  0  0  0  0  0
  141.2510   76.7580  222.0990 O   0  0  0  0  0  0  0  0  0  0  0  0
  141.7810   76.3420  219.9150 N   0  0  0  0  0  0  0  0  0  0  0  0
  142.1030   77.6530  219.3660 C   0  0  0  0  0  0  0  0  0  0  0  0
  142.3290   77.3420  217.8830 C   0  0  0  0  0  0  0  0  0  0  0  0
  143.1620   76.0820  218.0110 C   0  0  0  0  0  0  0  0  0  0  0  0
  142.4240   75.3340  219.0990 C   0  0  1  0  0  0  0  0  0  0  0  0
  143.3360   74.4510  219.8710 C   0  0  0  0  0  0  0  0  0  0  0  0
  144.5140   74.8370  220.3860 N   0  0  0  0  0  0  0  0  0  0  0  0
  145.0430   73.7800  221.0050 N   0  0  0  0  0  0  0  0  0  0  0  0
  144.1980   72.7290  220.8790 C   0  0  0  0  0  0  0  0  0  0  0  0
  143.1240   73.1500  220.1660 N   0  0  0  0  0  0  0  0  0  0  0  0
  140.1700   71.9520  223.0470 C   0  0  0  0  0  0  0  0  0  0  0  0
  139.6430   70.6900  222.8480 C   0  0  0  0  0  0  0  0  0  0  0  0
  139.5870   69.7620  223.8610 C   0  0  0  0  0  0  0  0  0  0  0  0
  140.0700   70.0980  225.1090 C   0  0  0  0  0  0  0  0  0  0  0  0
  140.0220   69.1810  226.1380 C   0  0  0  0  0  0  0  0  0  0  0  0
  140.5060   69.5270  227.3760 C   0  0  0  0  0  0  0  0  0  0  0  0
  140.4560   68.3770  228.7000 Cl  0  0  0  0  0  0  0  0  0  0  0  0
  141.0320   70.7870  227.5710 C   0  0  0  0  0  0  0  0  0  0  0  0
  141.0770   71.7040  226.5370 C   0  0  0  0  0  0  0  0  0  0  0  0
  140.5970   71.3740  225.2920 C   0  0  0  0  0  0  0  0  0  0  0  0
  140.6270   72.2430  224.2650 N   0  0  0  0  0  0  0  0  0  0  0  0
  139.5530   74.5630  223.1010 H   0  0  0  0  0  0  0  0  0  0  0  0
  139.9973   74.4987  220.0875 H   0  0  0  0  0  0  0  0  0  0  0  0
  138.9215   75.6755  220.9649 H   0  0  0  0  0  0  0  0  0  0  0  0
  141.2691   78.3573  219.5023 H   0  0  0  0  0  0  0  0  0  0  0  0
  142.9659   78.1328  219.8510 H   0  0  0  0  0  0  0  0  0  0  0  0
  141.3824   77.1553  217.3547 H   0  0  0  0  0  0  0  0  0  0  0  0
  142.7945   78.1519  217.3022 H   0  0  0  0  0  0  0  0  0  0  0  0
  143.1739   75.5122  217.0702 H   0  0  0  0  0  0  0  0  0  0  0  0
  144.2218   76.2692  218.2386 H   0  0  0  0  0  0  0  0  0  0  0  0
  141.6702   74.6501  218.6817 H   0  0  0  0  0  0  0  0  0  0  0  0
  144.3545   71.7175  221.2819 H   0  0  0  0  0  0  0  0  0  0  0  0
  142.2740   72.6120  219.8760 H   0  0  0  0  0  0  0  0  0  0  0  0
  139.2583   70.4209  221.8532 H   0  0  0  0  0  0  0  0  0  0  0  0
  139.1623   68.7638  223.6787 H   0  0  0  0  0  0  0  0  0  0  0  0
  139.5992   68.1798  225.9685 H   0  0  0  0  0  0  0  0  0  0  0  0
  141.4206   71.0659  228.5615 H   0  0  0  0  0  0  0  0  0  0  0  0
  141.4998   72.7043  226.7120 H   0  0  0  0  0  0  0  0  0  0  0  0
  1  2  2  0
  2  3  1  0
  3  4  1  0
  4  5  1  0
  5  6  2  0
  5  7  1  0
  7  8  1  0
  8  9  1  0
  9 10  1  0
 10 11  1  0
 11 12  1  0
 12 13  2  0
 13 14  1  0
 14 15  2  0
 15 16  1  0
  2 17  1  0
 17 18  2  0
 18 19  1  0
 19 20  2  0
 20 21  1  0
 21 22  2  0
 22 23  1  0
 22 24  1  0
 24 25  2  0
 25 26  1  0
 26 27  2  0
 11  7  1  0
 16 12  1  0
 27 17  1  0
 26 20  1  0
  3 28  1  0
  4 29  1  0
  4 30  1  0
  8 31  1  0
  8 32  1  0
  9 33  1  0
  9 34  1  0
 10 35  1  0
 10 36  1  0
 11 37  1  6
 15 38  1  0
 16 39  1  0
 18 40  1  0
 19 41  1  0
 21 42  1  0
 24 43  1  0
 25 44  1  0
M  END
>  <smiles>  (32) 
O=C(NCC(=O)N1CCC[C@H]1c1nnc[nH]1)c1ccc2cc(Cl)ccc2n1

>  <score_type>  (32) 
oracle

>  <origin>  (32) 
autodockgpu

>  <m_score__min__energy>  (32) 
-7.9900000000000002

>  <m_primary>  (32) 
energy

>  <rmsd>  (32) 
3.141375033583669

>  <m_score__min__rmsd>  (32) 
3.141375033583669

>  <meeko>  (32) 
{"free_energy": -7.23, "intermolecular_energy": -8.73, "internal_energy": -2.31, "cluster_size": 13, "cluster_id": 1, "rank_in_cluster": 8}

>  <energy>  (32) 
-6.96

>  <cluster_rmsd>  (32) 
0.14

>  <cluster>  (32) 
6

$$$$

     RDKit          3D

 44 47  0  0  0  0  0  0  0  0999 V2000
  139.3040   71.9170  220.7360 O   0  0  0  0  0  0  0  0  0  0  0  0
  139.4170   72.3620  221.9080 C   0  0  0  0  0  0  0  0  0  0  0  0
  139.3120   73.7850  222.1150 N   0  0  0  0  0  0  0  0  0  0  0  0
  139.0830   74.5940  220.9560 C   0  0  0  0  0  0  0  0  0  0  0  0
  140.1300   74.4140  219.9200 C   0  0  0  0  0  0  0  0  0  0  0  0
  140.0300   73.5850  218.9730 O   0  0  0  0  0  0  0  0  0  0  0  0
  141.3140   75.1960  219.9620 N   0  0  0  0  0  0  0  0  0  0  0  0
  141.4290   76.5290  220.5390 C   0  0  0  0  0  0  0  0  0  0  0  0
  142.5770   77.1410  219.7280 C   0  0  0  0  0  0  0  0  0  0  0  0
  143.5380   75.9690  219.7240 C   0  0  0  0  0  0  0  0  0  0  0  0
  142.6080   74.8090  219.4440 C   0  0  1  0  0  0  0  0  0  0  0  0
  143.1200   73.5440  220.0320 C   0  0  0  0  0  0  0  0  0  0  0  0
  144.4040   73.3190  220.3550 N   0  0  0  0  0  0  0  0  0  0  0  0
  144.4770   72.0830  220.8530 N   0  0  0  0  0  0  0  0  0  0  0  0
  143.2400   71.5310  220.8430 C   0  0  0  0  0  0  0  0  0  0  0  0
  142.3860   72.4500  220.3270 N   0  0  0  0  0  0  0  0  0  0  0  0
  139.6480   71.4930  223.0500 C   0  0  0  0  0  0  0  0  0  0  0  0
  139.3280   70.1540  222.9270 C   0  0  0  0  0  0  0  0  0  0  0  0
  139.5170   69.2670  223.9610 C   0  0  0  0  0  0  0  0  0  0  0  0
  140.0410   69.7260  225.1530 C   0  0  0  0  0  0  0  0  0  0  0  0
  140.2380   68.8510  226.2010 C   0  0  0  0  0  0  0  0  0  0  0  0
  140.7600   69.3190  227.3830 C   0  0  0  0  0  0  0  0  0  0  0  0
  141.0200   68.2260  228.7300 Cl  0  0  0  0  0  0  0  0  0  0  0  0
  141.0790   70.6560  227.5020 C   0  0  0  0  0  0  0  0  0  0  0  0
  140.8790   71.5280  226.4480 C   0  0  0  0  0  0  0  0  0  0  0  0
  140.3580   71.0770  225.2590 C   0  0  0  0  0  0  0  0  0  0  0  0
  140.1520   71.9010  224.2150 N   0  0  0  0  0  0  0  0  0  0  0  0
  139.4050   74.1650  223.0940 H   0  0  0  0  0  0  0  0  0  0  0  0
  138.1087   74.3225  220.5235 H   0  0  0  0  0  0  0  0  0  0  0  0
  139.1058   75.6468  221.2741 H   0  0  0  0  0  0  0  0  0  0  0  0
  140.4990   77.1014  220.4068 H   0  0  0  0  0  0  0  0  0  0  0  0
  141.6112   76.5241  221.6238 H   0  0  0  0  0  0  0  0  0  0  0  0
  142.2598   77.4143  218.7108 H   0  0  0  0  0  0  0  0  0  0  0  0
  142.9860   78.0787  220.1322 H   0  0  0  0  0  0  0  0  0  0  0  0
  144.2958   76.0748  218.9338 H   0  0  0  0  0  0  0  0  0  0  0  0
  144.1159   75.8629  220.6539 H   0  0  0  0  0  0  0  0  0  0  0  0
  142.5337   74.5991  218.3668 H   0  0  0  0  0  0  0  0  0  0  0  0
  142.9760   70.5212  221.1902 H   0  0  0  0  0  0  0  0  0  0  0  0
  141.3540   72.3730  220.1690 H   0  0  0  0  0  0  0  0  0  0  0  0
  138.9112   69.7881  221.9771 H   0  0  0  0  0  0  0  0  0  0  0  0
  139.2541   68.2058  223.8398 H   0  0  0  0  0  0  0  0  0  0  0  0
  139.9794   67.7874  226.0915 H   0  0  0  0  0  0  0  0  0  0  0  0
  141.4975   71.0327  228.4469 H   0  0  0  0  0  0  0  0  0  0  0  0
  141.1388   72.5908  226.5619 H   0  0  0  0  0  0  0  0  0  0  0  0
  1  2  2  0
  2  3  1  0
  3  4  1  0
  4  5  1  0
  5  6  2  0
  5  7  1  0
  7  8  1  0
  8  9  1  0
  9 10  1  0
 10 11  1  0
 11 12  1  0
 12 13  2  0
 13 14  1  0
 14 15  2  0
 15 16  1  0
  2 17  1  0
 17 18  2  0
 18 19  1  0
 19 20  2  0
 20 21  1  0
 21 22  2  0
 22 23  1  0
 22 24  1  0
 24 25  2  0
 25 26  1  0
 26 27  2  0
 11  7  1  0
 16 12  1  0
 27 17  1  0
 26 20  1  0
  3 28  1  0
  4 29  1  0
  4 30  1  0
  8 31  1  0
  8 32  1  0
  9 33  1  0
  9 34  1  0
 10 35  1  0
 10 36  1  0
 11 37  1  6
 15 38  1  0
 16 39  1  0
 18 40  1  0
 19 41  1  0
 21 42  1  0
 24 43  1  0
 25 44  1  0
M  END
>  <smiles>  (33) 
O=C(NCC(=O)N1CCC[C@H]1c1nnc[nH]1)c1ccc2cc(Cl)ccc2n1

>  <score_type>  (33) 
oracle

>  <origin>  (33) 
autodockgpu

>  <m_score__min__energy>  (33) 
-7.9900000000000002

>  <m_primary>  (33) 
energy

>  <rmsd>  (33) 
3.2245789008181944

>  <m_score__min__rmsd>  (33) 
3.2245789008181944

>  <meeko>  (33) 
{"free_energy": -6.75, "intermolecular_energy": -8.24, "internal_energy": -2.87, "cluster_size": 13, "cluster_id": 1, "rank_in_cluster": 9}

>  <energy>  (33) 
-6.97

>  <cluster_rmsd>  (33) 
0.0

>  <cluster>  (33) 
7

$$$$

     RDKit          3D

 44 47  0  0  0  0  0  0  0  0999 V2000
  140.7850   72.5570  220.7950 O   0  0  0  0  0  0  0  0  0  0  0  0
  140.2670   72.8800  221.8960 C   0  0  0  0  0  0  0  0  0  0  0  0
  139.6980   74.1980  222.0270 N   0  0  0  0  0  0  0  0  0  0  0  0
  139.7660   75.0510  220.8790 C   0  0  0  0  0  0  0  0  0  0  0  0
  140.2110   76.4260  221.2160 C   0  0  0  0  0  0  0  0  0  0  0  0
  141.3430   76.8840  220.8970 O   0  0  0  0  0  0  0  0  0  0  0  0
  139.3470   77.2970  221.9320 N   0  0  0  0  0  0  0  0  0  0  0  0
  138.2430   76.8810  222.7870 C   0  0  0  0  0  0  0  0  0  0  0  0
  137.2900   78.0790  222.6990 C   0  0  0  0  0  0  0  0  0  0  0  0
  138.2900   79.2090  222.8390 C   0  0  0  0  0  0  0  0  0  0  0  0
  139.4120   78.7420  221.9380 C   0  0  1  0  0  0  0  0  0  0  0  0
  140.7270   79.2670  222.3870 C   0  0  0  0  0  0  0  0  0  0  0  0
  141.0210   80.5710  222.5240 N   0  0  0  0  0  0  0  0  0  0  0  0
  142.2850   80.6510  222.9420 N   0  0  0  0  0  0  0  0  0  0  0  0
  142.7870   79.3990  223.0680 C   0  0  0  0  0  0  0  0  0  0  0  0
  141.8070   78.5280  222.7190 N   0  0  0  0  0  0  0  0  0  0  0  0
  140.2250   71.9710  223.0290 C   0  0  0  0  0  0  0  0  0  0  0  0
  139.6610   70.7220  222.8450 C   0  0  0  0  0  0  0  0  0  0  0  0
  139.5840   69.8060  223.8680 C   0  0  0  0  0  0  0  0  0  0  0  0
  140.0830   70.1410  225.1100 C   0  0  0  0  0  0  0  0  0  0  0  0
  140.0140   69.2350  226.1480 C   0  0  0  0  0  0  0  0  0  0  0  0
  140.5140   69.5800  227.3810 C   0  0  0  0  0  0  0  0  0  0  0  0
  140.4390   68.4450  228.7160 Cl  0  0  0  0  0  0  0  0  0  0  0  0
  141.0760   70.8270  227.5610 C   0  0  0  0  0  0  0  0  0  0  0  0
  141.1420   71.7320  226.5170 C   0  0  0  0  0  0  0  0  0  0  0  0
  140.6470   71.4030  225.2780 C   0  0  0  0  0  0  0  0  0  0  0  0
  140.6960   72.2610  224.2430 N   0  0  0  0  0  0  0  0  0  0  0  0
  139.2620   74.4750  222.9460 H   0  0  0  0  0  0  0  0  0  0  0  0
  140.4759   74.6173  220.1593 H   0  0  0  0  0  0  0  0  0  0  0  0
  138.7530   75.1226  220.4563 H   0  0  0  0  0  0  0  0  0  0  0  0
  137.7675   75.9652  222.4059 H   0  0  0  0  0  0  0  0  0  0  0  0
  138.5502   76.6379  223.8149 H   0  0  0  0  0  0  0  0  0  0  0  0
  136.7642   78.1143  221.7335 H   0  0  0  0  0  0  0  0  0  0  0  0
  136.4749   78.0826  223.4376 H   0  0  0  0  0  0  0  0  0  0  0  0
  137.8676   80.1632  222.4910 H   0  0  0  0  0  0  0  0  0  0  0  0
  138.6021   79.4020  223.8760 H   0  0  0  0  0  0  0  0  0  0  0  0
  139.2989   79.1279  220.9142 H   0  0  0  0  0  0  0  0  0  0  0  0
  143.8042   79.1363  223.3940 H   0  0  0  0  0  0  0  0  0  0  0  0
  141.8350   77.4820  222.6960 H   0  0  0  0  0  0  0  0  0  0  0  0
  139.2636   70.4541  221.8549 H   0  0  0  0  0  0  0  0  0  0  0  0
  139.1302   68.8185  223.6981 H   0  0  0  0  0  0  0  0  0  0  0  0
  139.5625   68.2444  225.9902 H   0  0  0  0  0  0  0  0  0  0  0  0
  141.4766   71.1051  228.5470 H   0  0  0  0  0  0  0  0  0  0  0  0
  141.5937   72.7217  226.6796 H   0  0  0  0  0  0  0  0  0  0  0  0
  1  2  2  0
  2  3  1  0
  3  4  1  0
  4  5  1  0
  5  6  2  0
  5  7  1  0
  7  8  1  0
  8  9  1  0
  9 10  1  0
 10 11  1  0
 11 12  1  0
 12 13  2  0
 13 14  1  0
 14 15  2  0
 15 16  1  0
  2 17  1  0
 17 18  2  0
 18 19  1  0
 19 20  2  0
 20 21  1  0
 21 22  2  0
 22 23  1  0
 22 24  1  0
 24 25  2  0
 25 26  1  0
 26 27  2  0
 11  7  1  0
 16 12  1  0
 27 17  1  0
 26 20  1  0
  3 28  1  0
  4 29  1  0
  4 30  1  0
  8 31  1  0
  8 32  1  0
  9 33  1  0
  9 34  1  0
 10 35  1  0
 10 36  1  0
 11 37  1  6
 15 38  1  0
 16 39  1  0
 18 40  1  0
 19 41  1  0
 21 42  1  0
 24 43  1  0
 25 44  1  0
M  END
>  <smiles>  (34) 
O=C(NCC(=O)N1CCC[C@H]1c1nnc[nH]1)c1ccc2cc(Cl)ccc2n1

>  <score_type>  (34) 
oracle

>  <origin>  (34) 
autodockgpu

>  <m_score__min__energy>  (34) 
-7.9900000000000002

>  <m_primary>  (34) 
energy

>  <rmsd>  (34) 
3.082472739442299

>  <m_score__min__rmsd>  (34) 
3.082472739442299

>  <meeko>  (34) 
{"free_energy": -7.9, "intermolecular_energy": -9.39, "internal_energy": -1.65, "cluster_size": 11, "cluster_id": 2, "rank_in_cluster": 2}

>  <energy>  (34) 
-6.77

>  <cluster_rmsd>  (34) 
0.0

>  <cluster>  (34) 
8

$$$$

     RDKit          3D

 44 47  0  0  0  0  0  0  0  0999 V2000
  139.1050   71.8600  220.7140 O   0  0  0  0  0  0  0  0  0  0  0  0
  139.2590   72.3230  221.8740 C   0  0  0  0  0  0  0  0  0  0  0  0
  139.1540   73.7470  222.0660 N   0  0  0  0  0  0  0  0  0  0  0  0
  138.8790   74.5390  220.9050 C   0  0  0  0  0  0  0  0  0  0  0  0
  139.9190   74.3950  219.8570 C   0  0  0  0  0  0  0  0  0  0  0  0
  139.7630   73.6920  218.8200 O   0  0  0  0  0  0  0  0  0  0  0  0
  141.1620   75.0670  219.9920 N   0  0  0  0  0  0  0  0  0  0  0  0
  141.3700   76.3330  220.6830 C   0  0  0  0  0  0  0  0  0  0  0  0
  142.5880   76.9100  219.9520 C   0  0  0  0  0  0  0  0  0  0  0  0
  143.4480   75.6650  219.8700 C   0  0  0  0  0  0  0  0  0  0  0  0
  142.4340   74.6160  219.4710 C   0  0  1  0  0  0  0  0  0  0  0  0
  142.8220   73.2680  219.9600 C   0  0  0  0  0  0  0  0  0  0  0  0
  144.0460   72.9420  220.4050 N   0  0  0  0  0  0  0  0  0  0  0  0
  144.0120   71.6550  220.7560 N   0  0  0  0  0  0  0  0  0  0  0  0
  142.7660   71.1710  220.5320 C   0  0  0  0  0  0  0  0  0  0  0  0
  142.0170   72.1860  220.0320 N   0  0  0  0  0  0  0  0  0  0  0  0
  139.5360   71.4700  223.0190 C   0  0  0  0  0  0  0  0  0  0  0  0
  139.2280   70.1260  222.9220 C   0  0  0  0  0  0  0  0  0  0  0  0
  139.4610   69.2550  223.9600 C   0  0  0  0  0  0  0  0  0  0  0  0
  140.0170   69.7340  225.1290 C   0  0  0  0  0  0  0  0  0  0  0  0
  140.2570   68.8750  226.1810 C   0  0  0  0  0  0  0  0  0  0  0  0
  140.8120   69.3630  227.3400 C   0  0  0  0  0  0  0  0  0  0  0  0
  141.1270   68.2900  228.6910 Cl  0  0  0  0  0  0  0  0  0  0  0  0
  141.1190   70.7050  227.4320 C   0  0  0  0  0  0  0  0  0  0  0  0
  140.8750   71.5620  226.3750 C   0  0  0  0  0  0  0  0  0  0  0  0
  140.3210   71.0900  225.2090 C   0  0  0  0  0  0  0  0  0  0  0  0
  140.0720   71.8980  224.1620 N   0  0  0  0  0  0  0  0  0  0  0  0
  139.2810   74.1420  223.0350 H   0  0  0  0  0  0  0  0  0  0  0  0
  137.9111   74.2262  220.4862 H   0  0  0  0  0  0  0  0  0  0  0  0
  138.8641   75.5937  221.2170 H   0  0  0  0  0  0  0  0  0  0  0  0
  140.4949   76.9914  220.5796 H   0  0  0  0  0  0  0  0  0  0  0  0
  141.5193   76.2229  221.7672 H   0  0  0  0  0  0  0  0  0  0  0  0
  142.3243   77.2922  218.9548 H   0  0  0  0  0  0  0  0  0  0  0  0
  143.0615   77.7730  220.4430 H   0  0  0  0  0  0  0  0  0  0  0  0
  144.2353   75.7712  219.1092 H   0  0  0  0  0  0  0  0  0  0  0  0
  143.9870   75.4332  220.8004 H   0  0  0  0  0  0  0  0  0  0  0  0
  142.3740   74.5038  218.3784 H   0  0  0  0  0  0  0  0  0  0  0  0
  142.4242   70.1427  220.7211 H   0  0  0  0  0  0  0  0  0  0  0  0
  141.0110   72.1800  219.7440 H   0  0  0  0  0  0  0  0  0  0  0  0
  138.7852   69.7435  221.9905 H   0  0  0  0  0  0  0  0  0  0  0  0
  139.2074   68.1893  223.8600 H   0  0  0  0  0  0  0  0  0  0  0  0
  140.0062   67.8076  226.0932 H   0  0  0  0  0  0  0  0  0  0  0  0
  141.5636   71.0980  228.3582 H   0  0  0  0  0  0  0  0  0  0  0  0
  141.1259   72.6290  226.4677 H   0  0  0  0  0  0  0  0  0  0  0  0
  1  2  2  0
  2  3  1  0
  3  4  1  0
  4  5  1  0
  5  6  2  0
  5  7  1  0
  7  8  1  0
  8  9  1  0
  9 10  1  0
 10 11  1  0
 11 12  1  0
 12 13  2  0
 13 14  1  0
 14 15  2  0
 15 16  1  0
  2 17  1  0
 17 18  2  0
 18 19  1  0
 19 20  2  0
 20 21  1  0
 21 22  2  0
 22 23  1  0
 22 24  1  0
 24 25  2  0
 25 26  1  0
 26 27  2  0
 11  7  1  0
 16 12  1  0
 27 17  1  0
 26 20  1  0
  3 28  1  0
  4 29  1  0
  4 30  1  0
  8 31  1  0
  8 32  1  0
  9 33  1  0
  9 34  1  0
 10 35  1  0
 10 36  1  0
 11 37  1  6
 15 38  1  0
 16 39  1  0
 18 40  1  0
 19 41  1  0
 21 42  1  0
 24 43  1  0
 25 44  1  0
M  END
>  <smiles>  (35) 
O=C(NCC(=O)N1CCC[C@H]1c1nnc[nH]1)c1ccc2cc(Cl)ccc2n1

>  <score_type>  (35) 
oracle

>  <origin>  (35) 
autodockgpu

>  <m_score__min__energy>  (35) 
-7.9900000000000002

>  <m_primary>  (35) 
energy

>  <rmsd>  (35) 
3.3096257069336508

>  <m_score__min__rmsd>  (35) 
3.3096257069336508

>  <meeko>  (35) 
{"free_energy": -6.33, "intermolecular_energy": -7.83, "internal_energy": -3.06, "cluster_size": 13, "cluster_id": 1, "rank_in_cluster": 13}

>  <energy>  (35) 
-6.72

>  <cluster_rmsd>  (35) 
0.39

>  <cluster>  (35) 
8

$$$$

     RDKit          3D

 44 47  0  0  0  0  0  0  0  0999 V2000
  139.3190   71.8590  220.6100 O   0  0  0  0  0  0  0  0  0  0  0  0
  139.3480   72.3300  221.7760 C   0  0  0  0  0  0  0  0  0  0  0  0
  139.1460   73.7470  221.9490 N   0  0  0  0  0  0  0  0  0  0  0  0
  138.9250   74.5200  220.7650 C   0  0  0  0  0  0  0  0  0  0  0  0
  140.0310   74.3910  219.7840 C   0  0  0  0  0  0  0  0  0  0  0  0
  140.0230   73.5530  218.8400 O   0  0  0  0  0  0  0  0  0  0  0  0
  141.1680   75.2350  219.8810 N   0  0  0  0  0  0  0  0  0  0  0  0
  141.1890   76.5640  220.4780 C   0  0  0  0  0  0  0  0  0  0  0  0
  142.3310   77.2480  219.7170 C   0  0  0  0  0  0  0  0  0  0  0  0
  143.3540   76.1300  219.7350 C   0  0  0  0  0  0  0  0  0  0  0  0
  142.5000   74.9250  219.4060 C   0  0  1  0  0  0  0  0  0  0  0  0
  143.0570   73.6820  219.9980 C   0  0  0  0  0  0  0  0  0  0  0  0
  144.3430   73.5140  220.3460 N   0  0  0  0  0  0  0  0  0  0  0  0
  144.4640   72.2800  220.8380 N   0  0  0  0  0  0  0  0  0  0  0  0
  143.2540   71.6710  220.8000 C   0  0  0  0  0  0  0  0  0  0  0  0
  142.3680   72.5530  220.2730 N   0  0  0  0  0  0  0  0  0  0  0  0
  139.5760   71.4970  222.9450 C   0  0  0  0  0  0  0  0  0  0  0  0
  139.2150   70.1640  222.8770 C   0  0  0  0  0  0  0  0  0  0  0  0
  139.4000   69.3110  223.9400 C   0  0  0  0  0  0  0  0  0  0  0  0
  139.9610   69.7960  225.1030 C   0  0  0  0  0  0  0  0  0  0  0  0
  140.1530   68.9550  226.1800 C   0  0  0  0  0  0  0  0  0  0  0  0
  140.7120   69.4490  227.3330 C   0  0  0  0  0  0  0  0  0  0  0  0
  140.9670   68.3990  228.7150 Cl  0  0  0  0  0  0  0  0  0  0  0  0
  141.0720   70.7800  227.3970 C   0  0  0  0  0  0  0  0  0  0  0  0
  140.8760   71.6190  226.3150 C   0  0  0  0  0  0  0  0  0  0  0  0
  140.3180   71.1410  225.1540 C   0  0  0  0  0  0  0  0  0  0  0  0
  140.1150   71.9310  224.0840 N   0  0  0  0  0  0  0  0  0  0  0  0
  139.1690   74.1490  222.9240 H   0  0  0  0  0  0  0  0  0  0  0  0
  137.9924   74.1797  220.2912 H   0  0  0  0  0  0  0  0  0  0  0  0
  138.8664   75.5771  221.0636 H   0  0  0  0  0  0  0  0  0  0  0  0
  140.2347   77.0873  220.3183 H   0  0  0  0  0  0  0  0  0  0  0  0
  141.3313   76.5540  221.5687 H   0  0  0  0  0  0  0  0  0  0  0  0
  142.0366   77.5175  218.6919 H   0  0  0  0  0  0  0  0  0  0  0  0
  142.6734   78.2008  220.1470 H   0  0  0  0  0  0  0  0  0  0  0  0
  144.1336   76.2880  218.9753 H   0  0  0  0  0  0  0  0  0  0  0  0
  143.9019   76.0422  220.6848 H   0  0  0  0  0  0  0  0  0  0  0  0
  142.4778   74.7262  218.3244 H   0  0  0  0  0  0  0  0  0  0  0  0
  143.0307   70.6475  221.1355 H   0  0  0  0  0  0  0  0  0  0  0  0
  141.3450   72.4300  220.0930 H   0  0  0  0  0  0  0  0  0  0  0  0
  138.7687   69.7760  221.9495 H   0  0  0  0  0  0  0  0  0  0  0  0
  139.1040   68.2543  223.8635 H   0  0  0  0  0  0  0  0  0  0  0  0
  139.8604   67.8966  226.1155 H   0  0  0  0  0  0  0  0  0  0  0  0
  141.5200   71.1781  228.3194 H   0  0  0  0  0  0  0  0  0  0  0  0
  141.1691   72.6770  226.3845 H   0  0  0  0  0  0  0  0  0  0  0  0
  1  2  2  0
  2  3  1  0
  3  4  1  0
  4  5  1  0
  5  6  2  0
  5  7  1  0
  7  8  1  0
  8  9  1  0
  9 10  1  0
 10 11  1  0
 11 12  1  0
 12 13  2  0
 13 14  1  0
 14 15  2  0
 15 16  1  0
  2 17  1  0
 17 18  2  0
 18 19  1  0
 19 20  2  0
 20 21  1  0
 21 22  2  0
 22 23  1  0
 22 24  1  0
 24 25  2  0
 25 26  1  0
 26 27  2  0
 11  7  1  0
 16 12  1  0
 27 17  1  0
 26 20  1  0
  3 28  1  0
  4 29  1  0
  4 30  1  0
  8 31  1  0
  8 32  1  0
  9 33  1  0
  9 34  1  0
 10 35  1  0
 10 36  1  0
 11 37  1  6
 15 38  1  0
 16 39  1  0
 18 40  1  0
 19 41  1  0
 21 42  1  0
 24 43  1  0
 25 44  1  0
M  END
>  <smiles>  (36) 
O=C(NCC(=O)N1CCC[C@H]1c1nnc[nH]1)c1ccc2cc(Cl)ccc2n1

>  <score_type>  (36) 
oracle

>  <origin>  (36) 
autodockgpu

>  <m_score__min__energy>  (36) 
-7.9900000000000002

>  <m_primary>  (36) 
energy

>  <rmsd>  (36) 
3.1507915560953745

>  <m_score__min__rmsd>  (36) 
3.1507915560953745

>  <meeko>  (36) 
{"free_energy": -6.71, "intermolecular_energy": -8.2, "internal_energy": -2.86, "cluster_size": 13, "cluster_id": 1, "rank_in_cluster": 11}

>  <energy>  (36) 
-6.71

>  <cluster_rmsd>  (36) 
0.39

>  <cluster>  (36) 
8

$$$$

     RDKit          3D

 44 47  0  0  0  0  0  0  0  0999 V2000
  140.1670   72.4780  220.7640 O   0  0  0  0  0  0  0  0  0  0  0  0
  139.9500   72.8500  221.9460 C   0  0  0  0  0  0  0  0  0  0  0  0
  139.6250   74.2350  222.1820 N   0  0  0  0  0  0  0  0  0  0  0  0
  139.5740   75.0920  221.0370 C   0  0  0  0  0  0  0  0  0  0  0  0
  139.5970   76.5310  221.4000 C   0  0  0  0  0  0  0  0  0  0  0  0
  139.0700   76.9860  222.4540 O   0  0  0  0  0  0  0  0  0  0  0  0
  140.2330   77.4700  220.5470 N   0  0  0  0  0  0  0  0  0  0  0  0
  139.6470   78.0600  219.3500 C   0  0  0  0  0  0  0  0  0  0  0  0
  140.8830   78.3670  218.4960 C   0  0  0  0  0  0  0  0  0  0  0  0
  141.7870   78.9570  219.5600 C   0  0  0  0  0  0  0  0  0  0  0  0
  141.5670   78.0040  220.7140 C   0  0  1  0  0  0  0  0  0  0  0  0
  141.7680   78.6770  222.0240 C   0  0  0  0  0  0  0  0  0  0  0  0
  142.3120   79.8950  222.1790 N   0  0  0  0  0  0  0  0  0  0  0  0
  142.3270   80.1590  223.4860 N   0  0  0  0  0  0  0  0  0  0  0  0
  141.7920   79.1090  224.1540 C   0  0  0  0  0  0  0  0  0  0  0  0
  141.4400   78.1760  223.2340 N   0  0  0  0  0  0  0  0  0  0  0  0
  140.0140   71.9340  223.0730 C   0  0  0  0  0  0  0  0  0  0  0  0
  139.5620   70.6400  222.8900 C   0  0  0  0  0  0  0  0  0  0  0  0
  139.5900   69.7140  223.9060 C   0  0  0  0  0  0  0  0  0  0  0  0
  140.0840   70.0840  225.1410 C   0  0  0  0  0  0  0  0  0  0  0  0
  140.1200   69.1690  226.1720 C   0  0  0  0  0  0  0  0  0  0  0  0
  140.6140   69.5490  227.3960 C   0  0  0  0  0  0  0  0  0  0  0  0
  140.6710   68.4030  228.7230 Cl  0  0  0  0  0  0  0  0  0  0  0  0
  141.0650   70.8400  227.5750 C   0  0  0  0  0  0  0  0  0  0  0  0
  141.0260   71.7540  226.5380 C   0  0  0  0  0  0  0  0  0  0  0  0
  140.5360   71.3910  225.3070 C   0  0  0  0  0  0  0  0  0  0  0  0
  140.4840   72.2560  224.2780 N   0  0  0  0  0  0  0  0  0  0  0  0
  139.4410   74.5540  223.1700 H   0  0  0  0  0  0  0  0  0  0  0  0
  140.4419   74.8763  220.3965 H   0  0  0  0  0  0  0  0  0  0  0  0
  138.6259   74.8950  220.5152 H   0  0  0  0  0  0  0  0  0  0  0  0
  138.9788   77.3490  218.8420 H   0  0  0  0  0  0  0  0  0  0  0  0
  139.0237   78.9429  219.5549 H   0  0  0  0  0  0  0  0  0  0  0  0
  141.3117   77.4558  218.0534 H   0  0  0  0  0  0  0  0  0  0  0  0
  140.7002   79.0158  217.6267 H   0  0  0  0  0  0  0  0  0  0  0  0
  142.8384   78.9588  219.2366 H   0  0  0  0  0  0  0  0  0  0  0  0
  141.5661   80.0074  219.8006 H   0  0  0  0  0  0  0  0  0  0  0  0
  142.3024   77.1860  220.7106 H   0  0  0  0  0  0  0  0  0  0  0  0
  141.6659   79.0276  225.2437 H   0  0  0  0  0  0  0  0  0  0  0  0
  140.9990   77.2390  223.3840 H   0  0  0  0  0  0  0  0  0  0  0  0
  139.1698   70.3438  221.9059 H   0  0  0  0  0  0  0  0  0  0  0  0
  139.2233   68.6908  223.7369 H   0  0  0  0  0  0  0  0  0  0  0  0
  139.7560   68.1429  226.0154 H   0  0  0  0  0  0  0  0  0  0  0  0
  141.4606   71.1464  228.5546 H   0  0  0  0  0  0  0  0  0  0  0  0
  141.3900   72.7793  226.7000 H   0  0  0  0  0  0  0  0  0  0  0  0
  1  2  2  0
  2  3  1  0
  3  4  1  0
  4  5  1  0
  5  6  2  0
  5  7  1  0
  7  8  1  0
  8  9  1  0
  9 10  1  0
 10 11  1  0
 11 12  1  0
 12 13  2  0
 13 14  1  0
 14 15  2  0
 15 16  1  0
  2 17  1  0
 17 18  2  0
 18 19  1  0
 19 20  2  0
 20 21  1  0
 21 22  2  0
 22 23  1  0
 22 24  1  0
 24 25  2  0
 25 26  1  0
 26 27  2  0
 11  7  1  0
 16 12  1  0
 27 17  1  0
 26 20  1  0
  3 28  1  0
  4 29  1  0
  4 30  1  0
  8 31  1  0
  8 32  1  0
  9 33  1  0
  9 34  1  0
 10 35  1  0
 10 36  1  0
 11 37  1  6
 15 38  1  0
 16 39  1  0
 18 40  1  0
 19 41  1  0
 21 42  1  0
 24 43  1  0
 25 44  1  0
M  END
>  <smiles>  (37) 
O=C(NCC(=O)N1CCC[C@H]1c1nnc[nH]1)c1ccc2cc(Cl)ccc2n1

>  <score_type>  (37) 
oracle

>  <origin>  (37) 
autodockgpu

>  <m_score__min__energy>  (37) 
-7.9900000000000002

>  <m_primary>  (37) 
energy

>  <rmsd>  (37) 
2.045000345708752

>  <m_score__min__rmsd>  (37) 
2.045000345708752

>  <meeko>  (37) 
{"free_energy": -7.54, "intermolecular_energy": -9.03, "internal_energy": -2.05, "cluster_size": 11, "cluster_id": 2, "rank_in_cluster": 8}

>  <energy>  (37) 
-6.71

>  <cluster_rmsd>  (37) 
0.39

>  <cluster>  (37) 
8

$$$$

     RDKit          3D

 44 47  0  0  0  0  0  0  0  0999 V2000
  139.0210   76.3410  222.9780 O   0  0  0  0  0  0  0  0  0  0  0  0
  139.6470   76.4210  221.8890 C   0  0  0  0  0  0  0  0  0  0  0  0
  139.3950   77.5530  221.0340 N   0  0  0  0  0  0  0  0  0  0  0  0
  138.4390   78.5140  221.4940 C   0  0  0  0  0  0  0  0  0  0  0  0
  139.0510   79.5700  222.3380 C   0  0  0  0  0  0  0  0  0  0  0  0
  138.3890   80.5160  222.8490 O   0  0  0  0  0  0  0  0  0  0  0  0
  140.4450   79.5470  222.6050 N   0  0  0  0  0  0  0  0  0  0  0  0
  141.0620   79.1120  223.8510 C   0  0  0  0  0  0  0  0  0  0  0  0
  142.3640   79.9200  223.8730 C   0  0  0  0  0  0  0  0  0  0  0  0
  142.7970   79.7450  222.4320 C   0  0  0  0  0  0  0  0  0  0  0  0
  141.4930   79.9490  221.6920 C   0  0  1  0  0  0  0  0  0  0  0  0
  141.4700   79.2000  220.4090 C   0  0  0  0  0  0  0  0  0  0  0  0
  140.6960   79.5150  219.3570 N   0  0  0  0  0  0  0  0  0  0  0  0
  140.9490   78.6230  218.3970 N   0  0  0  0  0  0  0  0  0  0  0  0
  141.8800   77.7470  218.8450 C   0  0  0  0  0  0  0  0  0  0  0  0
  142.2090   78.1100  220.1100 N   0  0  0  0  0  0  0  0  0  0  0  0
  140.6100   75.4150  221.4730 C   0  0  0  0  0  0  0  0  0  0  0  0
  140.2550   74.0840  221.5880 C   0  0  0  0  0  0  0  0  0  0  0  0
  141.1100   73.0730  221.2140 C   0  0  0  0  0  0  0  0  0  0  0  0
  142.3540   73.3950  220.7110 C   0  0  0  0  0  0  0  0  0  0  0  0
  143.2240   72.3950  220.3310 C   0  0  0  0  0  0  0  0  0  0  0  0
  144.4600   72.7280  219.8310 C   0  0  0  0  0  0  0  0  0  0  0  0
  145.5840   71.4740  219.3410 Cl  0  0  0  0  0  0  0  0  0  0  0  0
  144.8100   74.0570  219.7170 C   0  0  0  0  0  0  0  0  0  0  0  0
  143.9340   75.0560  220.1000 C   0  0  0  0  0  0  0  0  0  0  0  0
  142.6940   74.7410  220.6010 C   0  0  0  0  0  0  0  0  0  0  0  0
  141.8190   75.6890  220.9820 N   0  0  0  0  0  0  0  0  0  0  0  0
  139.9170   77.6270  220.1200 H   0  0  0  0  0  0  0  0  0  0  0  0
  137.9694   78.9896  220.6203 H   0  0  0  0  0  0  0  0  0  0  0  0
  137.7014   77.9804  222.1114 H   0  0  0  0  0  0  0  0  0  0  0  0
  140.4275   79.3561  224.7157 H   0  0  0  0  0  0  0  0  0  0  0  0
  141.2185   78.0247  223.9079 H   0  0  0  0  0  0  0  0  0  0  0  0
  142.1861   80.9766  224.1218 H   0  0  0  0  0  0  0  0  0  0  0  0
  143.1004   79.5974  224.6237 H   0  0  0  0  0  0  0  0  0  0  0  0
  143.5439   80.4993  222.1435 H   0  0  0  0  0  0  0  0  0  0  0  0
  143.2807   78.7789  222.2256 H   0  0  0  0  0  0  0  0  0  0  0  0
  141.3532   80.9997  221.3980 H   0  0  0  0  0  0  0  0  0  0  0  0
  142.2941   76.8958  218.2847 H   0  0  0  0  0  0  0  0  0  0  0  0
  142.8930   77.6650  220.7660 H   0  0  0  0  0  0  0  0  0  0  0  0
  139.2635   73.8265  221.9888 H   0  0  0  0  0  0  0  0  0  0  0  0
  140.8056   72.0208  221.3147 H   0  0  0  0  0  0  0  0  0  0  0  0
  142.9310   71.3391  220.4273 H   0  0  0  0  0  0  0  0  0  0  0  0
  145.7985   74.3258  219.3163 H   0  0  0  0  0  0  0  0  0  0  0  0
  144.2320   76.1104  220.0029 H   0  0  0  0  0  0  0  0  0  0  0  0
  1  2  2  0
  2  3  1  0
  3  4  1  0
  4  5  1  0
  5  6  2  0
  5  7  1  0
  7  8  1  0
  8  9  1  0
  9 10  1  0
 10 11  1  0
 11 12  1  0
 12 13  2  0
 13 14  1  0
 14 15  2  0
 15 16  1  0
  2 17  1  0
 17 18  2  0
 18 19  1  0
 19 20  2  0
 20 21  1  0
 21 22  2  0
 22 23  1  0
 22 24  1  0
 24 25  2  0
 25 26  1  0
 26 27  2  0
 11  7  1  0
 16 12  1  0
 27 17  1  0
 26 20  1  0
  3 28  1  0
  4 29  1  0
  4 30  1  0
  8 31  1  0
  8 32  1  0
  9 33  1  0
  9 34  1  0
 10 35  1  0
 10 36  1  0
 11 37  1  6
 15 38  1  0
 16 39  1  0
 18 40  1  0
 19 41  1  0
 21 42  1  0
 24 43  1  0
 25 44  1  0
M  END
>  <smiles>  (38) 
O=C(NCC(=O)N1CCC[C@H]1c1nnc[nH]1)c1ccc2cc(Cl)ccc2n1

>  <score_type>  (38) 
oracle

>  <origin>  (38) 
autodockgpu

>  <m_score__min__energy>  (38) 
-7.9900000000000002

>  <m_primary>  (38) 
energy

>  <rmsd>  (38) 
6.344435918176541

>  <m_score__min__rmsd>  (38) 
6.344435918176541

>  <meeko>  (38) 
{"free_energy": -5.77, "intermolecular_energy": -7.26, "internal_energy": -3.54, "cluster_size": 5, "cluster_id": 12, "rank_in_cluster": 2}

>  <energy>  (38) 
-6.7

>  <cluster_rmsd>  (38) 
0.35

>  <cluster>  (38) 
8

$$$$

     RDKit          3D

 44 47  0  0  0  0  0  0  0  0999 V2000
  136.0190   71.2260  222.2370 O   0  0  0  0  0  0  0  0  0  0  0  0
  137.0310   71.6730  222.8360 C   0  0  0  0  0  0  0  0  0  0  0  0
  137.5200   72.9810  222.4770 N   0  0  0  0  0  0  0  0  0  0  0  0
  136.8060   73.6810  221.4530 C   0  0  0  0  0  0  0  0  0  0  0  0
  135.3960   73.9570  221.8260 C   0  0  0  0  0  0  0  0  0  0  0  0
  134.4270   73.2490  221.4340 O   0  0  0  0  0  0  0  0  0  0  0  0
  135.0850   75.0600  222.6630 N   0  0  0  0  0  0  0  0  0  0  0  0
  134.4390   76.2930  222.2330 C   0  0  0  0  0  0  0  0  0  0  0  0
  134.9780   77.3150  223.2410 C   0  0  0  0  0  0  0  0  0  0  0  0
  134.8410   76.5100  224.5170 C   0  0  0  0  0  0  0  0  0  0  0  0
  135.3510   75.1530  224.0820 C   0  0  1  0  0  0  0  0  0  0  0  0
  134.7280   74.0570  224.8680 C   0  0  0  0  0  0  0  0  0  0  0  0
  134.3130   74.1720  226.1400 N   0  0  0  0  0  0  0  0  0  0  0  0
  133.8120   72.9900  226.5030 N   0  0  0  0  0  0  0  0  0  0  0  0
  133.9130   72.1310  225.4600 C   0  0  0  0  0  0  0  0  0  0  0  0
  134.4880   72.8020  224.4310 N   0  0  0  0  0  0  0  0  0  0  0  0
  137.7170   70.9170  223.8710 C   0  0  0  0  0  0  0  0  0  0  0  0
  137.2420   69.6580  224.1840 C   0  0  0  0  0  0  0  0  0  0  0  0
  137.8360   68.8800  225.1500 C   0  0  0  0  0  0  0  0  0  0  0  0
  138.9360   69.3690  225.8250 C   0  0  0  0  0  0  0  0  0  0  0  0
  139.5450   68.6040  226.7980 C   0  0  0  0  0  0  0  0  0  0  0  0
  140.6400   69.1010  227.4620 C   0  0  0  0  0  0  0  0  0  0  0  0
  141.4320   68.1470  228.7030 Cl  0  0  0  0  0  0  0  0  0  0  0  0
  141.1120   70.3590  227.1470 C   0  0  0  0  0  0  0  0  0  0  0  0
  140.4970   71.1220  226.1720 C   0  0  0  0  0  0  0  0  0  0  0  0
  139.4020   70.6400  225.4970 C   0  0  0  0  0  0  0  0  0  0  0  0
  138.7820   71.3580  224.5430 N   0  0  0  0  0  0  0  0  0  0  0  0
  138.3680   73.3620  222.9750 H   0  0  0  0  0  0  0  0  0  0  0  0
  137.3133   74.6380  221.2612 H   0  0  0  0  0  0  0  0  0  0  0  0
  136.7945   73.0411  220.5584 H   0  0  0  0  0  0  0  0  0  0  0  0
  134.7287   76.5567  221.2051 H   0  0  0  0  0  0  0  0  0  0  0  0
  133.3409   76.2308  222.2142 H   0  0  0  0  0  0  0  0  0  0  0  0
  136.0253   77.5808  223.0347 H   0  0  0  0  0  0  0  0  0  0  0  0
  134.4603   78.2855  223.2437 H   0  0  0  0  0  0  0  0  0  0  0  0
  135.4588   76.9303  225.3242 H   0  0  0  0  0  0  0  0  0  0  0  0
  133.8199   76.4925  224.9257 H   0  0  0  0  0  0  0  0  0  0  0  0
  136.4293   75.0445  224.2705 H   0  0  0  0  0  0  0  0  0  0  0  0
  133.5877   71.0802  225.4497 H   0  0  0  0  0  0  0  0  0  0  0  0
  134.7210   72.4580  223.4700 H   0  0  0  0  0  0  0  0  0  0  0  0
  136.3654   69.2675  223.6463 H   0  0  0  0  0  0  0  0  0  0  0  0
  137.4394   67.8805  225.3818 H   0  0  0  0  0  0  0  0  0  0  0  0
  139.1568   67.6037  227.0403 H   0  0  0  0  0  0  0  0  0  0  0  0
  141.9881   70.7594  227.6781 H   0  0  0  0  0  0  0  0  0  0  0  0
  140.8874   72.1227  225.9349 H   0  0  0  0  0  0  0  0  0  0  0  0
  1  2  2  0
  2  3  1  0
  3  4  1  0
  4  5  1  0
  5  6  2  0
  5  7  1  0
  7  8  1  0
  8  9  1  0
  9 10  1  0
 10 11  1  0
 11 12  1  0
 12 13  2  0
 13 14  1  0
 14 15  2  0
 15 16  1  0
  2 17  1  0
 17 18  2  0
 18 19  1  0
 19 20  2  0
 20 21  1  0
 21 22  2  0
 22 23  1  0
 22 24  1  0
 24 25  2  0
 25 26  1  0
 26 27  2  0
 11  7  1  0
 16 12  1  0
 27 17  1  0
 26 20  1  0
  3 28  1  0
  4 29  1  0
  4 30  1  0
  8 31  1  0
  8 32  1  0
  9 33  1  0
  9 34  1  0
 10 35  1  0
 10 36  1  0
 11 37  1  6
 15 38  1  0
 16 39  1  0
 18 40  1  0
 19 41  1  0
 21 42  1  0
 24 43  1  0
 25 44  1  0
M  END
>  <smiles>  (39) 
O=C(NCC(=O)N1CCC[C@H]1c1nnc[nH]1)c1ccc2cc(Cl)ccc2n1

>  <score_type>  (39) 
oracle

>  <origin>  (39) 
autodockgpu

>  <m_score__min__energy>  (39) 
-7.9900000000000002

>  <m_primary>  (39) 
energy

>  <rmsd>  (39) 
5.4835925695069925

>  <m_score__min__rmsd>  (39) 
5.4835925695069925

>  <meeko>  (39) 
{"free_energy": -6.34, "intermolecular_energy": -7.84, "internal_energy": -3.07, "cluster_size": 3, "cluster_id": 10, "rank_in_cluster": 2}

>  <energy>  (39) 
-6.7

>  <cluster_rmsd>  (39) 
0.36

>  <cluster>  (39) 
8

$$$$

     RDKit          3D

 44 47  0  0  0  0  0  0  0  0999 V2000
  138.9780   76.0480  223.0780 O   0  0  0  0  0  0  0  0  0  0  0  0
  139.5740   76.1550  221.9750 C   0  0  0  0  0  0  0  0  0  0  0  0
  139.2840   77.2980  221.1460 N   0  0  0  0  0  0  0  0  0  0  0  0
  138.3260   78.2360  221.6470 C   0  0  0  0  0  0  0  0  0  0  0  0
  138.9620   79.4400  222.2370 C   0  0  0  0  0  0  0  0  0  0  0  0
  138.3290   80.5050  222.4830 O   0  0  0  0  0  0  0  0  0  0  0  0
  140.3460   79.4310  222.5530 N   0  0  0  0  0  0  0  0  0  0  0  0
  140.9160   79.0870  223.8490 C   0  0  0  0  0  0  0  0  0  0  0  0
  142.2230   79.8890  223.8560 C   0  0  0  0  0  0  0  0  0  0  0  0
  142.7030   79.6050  222.4470 C   0  0  0  0  0  0  0  0  0  0  0  0
  141.4270   79.7590  221.6490 C   0  0  1  0  0  0  0  0  0  0  0  0
  141.4420   78.9170  220.4250 C   0  0  0  0  0  0  0  0  0  0  0  0
  140.6920   79.1450  219.3340 N   0  0  0  0  0  0  0  0  0  0  0  0
  140.9760   78.1870  218.4510 N   0  0  0  0  0  0  0  0  0  0  0  0
  141.9040   77.3570  218.9840 C   0  0  0  0  0  0  0  0  0  0  0  0
  142.1980   77.8160  220.2260 N   0  0  0  0  0  0  0  0  0  0  0  0
  140.5400   75.1710  221.5160 C   0  0  0  0  0  0  0  0  0  0  0  0
  140.1290   73.8560  221.4010 C   0  0  0  0  0  0  0  0  0  0  0  0
  140.9830   72.8660  220.9730 C   0  0  0  0  0  0  0  0  0  0  0  0
  142.2830   73.1930  220.6490 C   0  0  0  0  0  0  0  0  0  0  0  0
  143.1540   72.2140  220.2180 C   0  0  0  0  0  0  0  0  0  0  0  0
  144.4470   72.5520  219.8980 C   0  0  0  0  0  0  0  0  0  0  0  0
  145.5720   71.3240  219.3470 Cl  0  0  0  0  0  0  0  0  0  0  0  0
  144.8540   73.8650  220.0130 C   0  0  0  0  0  0  0  0  0  0  0  0
  143.9770   74.8430  220.4460 C   0  0  0  0  0  0  0  0  0  0  0  0
  142.6810   74.5220  220.7700 C   0  0  0  0  0  0  0  0  0  0  0  0
  141.8040   75.4500  221.1940 N   0  0  0  0  0  0  0  0  0  0  0  0
  139.7800   77.3950  220.2200 H   0  0  0  0  0  0  0  0  0  0  0  0
  137.6750   78.5515  220.8184 H   0  0  0  0  0  0  0  0  0  0  0  0
  137.7550   77.7363  222.4434 H   0  0  0  0  0  0  0  0  0  0  0  0
  140.2537   79.3979  224.6704 H   0  0  0  0  0  0  0  0  0  0  0  0
  141.0623   78.0062  223.9924 H   0  0  0  0  0  0  0  0  0  0  0  0
  142.0444   80.9620  224.0195 H   0  0  0  0  0  0  0  0  0  0  0  0
  142.9313   79.6200  224.6534 H   0  0  0  0  0  0  0  0  0  0  0  0
  143.4646   80.3322  222.1290 H   0  0  0  0  0  0  0  0  0  0  0  0
  143.1861   78.6237  222.3301 H   0  0  0  0  0  0  0  0  0  0  0  0
  141.3050   80.7853  221.2725 H   0  0  0  0  0  0  0  0  0  0  0  0
  142.3400   76.4717  218.4980 H   0  0  0  0  0  0  0  0  0  0  0  0
  142.8700   77.4290  220.9290 H   0  0  0  0  0  0  0  0  0  0  0  0
  139.0920   73.5945  221.6584 H   0  0  0  0  0  0  0  0  0  0  0  0
  140.6332   71.8264  220.8902 H   0  0  0  0  0  0  0  0  0  0  0  0
  142.8162   71.1708  220.1311 H   0  0  0  0  0  0  0  0  0  0  0  0
  145.8886   74.1375  219.7573 H   0  0  0  0  0  0  0  0  0  0  0  0
  144.3195   75.8848  220.5315 H   0  0  0  0  0  0  0  0  0  0  0  0
  1  2  2  0
  2  3  1  0
  3  4  1  0
  4  5  1  0
  5  6  2  0
  5  7  1  0
  7  8  1  0
  8  9  1  0
  9 10  1  0
 10 11  1  0
 11 12  1  0
 12 13  2  0
 13 14  1  0
 14 15  2  0
 15 16  1  0
  2 17  1  0
 17 18  2  0
 18 19  1  0
 19 20  2  0
 20 21  1  0
 21 22  2  0
 22 23  1  0
 22 24  1  0
 24 25  2  0
 25 26  1  0
 26 27  2  0
 11  7  1  0
 16 12  1  0
 27 17  1  0
 26 20  1  0
  3 28  1  0
  4 29  1  0
  4 30  1  0
  8 31  1  0
  8 32  1  0
  9 33  1  0
  9 34  1  0
 10 35  1  0
 10 36  1  0
 11 37  1  6
 15 38  1  0
 16 39  1  0
 18 40  1  0
 19 41  1  0
 21 42  1  0
 24 43  1  0
 25 44  1  0
M  END
>  <smiles>  (40) 
O=C(NCC(=O)N1CCC[C@H]1c1nnc[nH]1)c1ccc2cc(Cl)ccc2n1

>  <score_type>  (40) 
oracle

>  <origin>  (40) 
autodockgpu

>  <m_score__min__energy>  (40) 
-7.9900000000000002

>  <m_primary>  (40) 
energy

>  <rmsd>  (40) 
6.1926959929759615

>  <m_score__min__rmsd>  (40) 
6.1926959929759615

>  <meeko>  (40) 
{"free_energy": -5.74, "intermolecular_energy": -7.23, "internal_energy": -3.57, "cluster_size": 5, "cluster_id": 12, "rank_in_cluster": 3}

>  <energy>  (40) 
-6.39

>  <cluster_rmsd>  (40) 
1.41

>  <cluster>  (40) 
8

$$$$

     RDKit          3D

 44 47  0  0  0  0  0  0  0  0999 V2000
  141.8220   73.0390  220.8270 O   0  0  0  0  0  0  0  0  0  0  0  0
  141.0750   73.8260  221.4650 C   0  0  0  0  0  0  0  0  0  0  0  0
  140.0340   73.2680  222.2900 N   0  0  0  0  0  0  0  0  0  0  0  0
  139.9260   71.8410  222.3220 C   0  0  0  0  0  0  0  0  0  0  0  0
  139.6700   71.3190  223.6870 C   0  0  0  0  0  0  0  0  0  0  0  0
  140.4350   71.5420  224.6670 O   0  0  0  0  0  0  0  0  0  0  0  0
  138.5190   70.5280  223.9420 N   0  0  0  0  0  0  0  0  0  0  0  0
  137.4630   70.2360  222.9820 C   0  0  0  0  0  0  0  0  0  0  0  0
  136.2460   70.0190  223.8880 C   0  0  0  0  0  0  0  0  0  0  0  0
  136.8800   69.1620  224.9650 C   0  0  0  0  0  0  0  0  0  0  0  0
  138.1950   69.8760  225.1920 C   0  0  1  0  0  0  0  0  0  0  0  0
  139.2510   68.9400  225.6550 C   0  0  0  0  0  0  0  0  0  0  0  0
  139.1720   67.6010  225.5750 N   0  0  0  0  0  0  0  0  0  0  0  0
  140.3000   67.1060  226.0850 N   0  0  0  0  0  0  0  0  0  0  0  0
  141.0900   68.1310  226.4860 C   0  0  0  0  0  0  0  0  0  0  0  0
  140.4310   69.2850  226.2150 N   0  0  0  0  0  0  0  0  0  0  0  0
  141.2310   75.2700  221.3950 C   0  0  0  0  0  0  0  0  0  0  0  0
  141.9820   75.7970  220.3610 C   0  0  0  0  0  0  0  0  0  0  0  0
  142.1750   77.1520  220.2260 C   0  0  0  0  0  0  0  0  0  0  0  0
  141.6050   78.0080  221.1460 C   0  0  0  0  0  0  0  0  0  0  0  0
  141.7880   79.3700  221.0270 C   0  0  0  0  0  0  0  0  0  0  0  0
  141.2150   80.2130  221.9490 C   0  0  0  0  0  0  0  0  0  0  0  0
  141.4330   81.9480  221.8180 Cl  0  0  0  0  0  0  0  0  0  0  0  0
  140.4660   79.6830  222.9790 C   0  0  0  0  0  0  0  0  0  0  0  0
  140.2860   78.3170  223.0940 C   0  0  0  0  0  0  0  0  0  0  0  0
  140.8520   77.4600  222.1810 C   0  0  0  0  0  0  0  0  0  0  0  0
  140.6950   76.1260  222.2650 N   0  0  0  0  0  0  0  0  0  0  0  0
  139.4040   73.9220  222.8270 H   0  0  0  0  0  0  0  0  0  0  0  0
  139.0969   71.5356  221.6667 H   0  0  0  0  0  0  0  0  0  0  0  0
  140.8862   71.4263  221.9812 H   0  0  0  0  0  0  0  0  0  0  0  0
  137.3033   71.0814  222.2966 H   0  0  0  0  0  0  0  0  0  0  0  0
  137.6854   69.3774  222.3313 H   0  0  0  0  0  0  0  0  0  0  0  0
  135.8620   70.9672  224.2922 H   0  0  0  0  0  0  0  0  0  0  0  0
  135.3697   69.5744  223.3936 H   0  0  0  0  0  0  0  0  0  0  0  0
  136.2680   69.1490  225.8789 H   0  0  0  0  0  0  0  0  0  0  0  0
  136.9893   68.1035  224.6862 H   0  0  0  0  0  0  0  0  0  0  0  0
  138.1192   70.6222  225.9967 H   0  0  0  0  0  0  0  0  0  0  0  0
  142.0847   68.0432  226.9473 H   0  0  0  0  0  0  0  0  0  0  0  0
  140.7340   70.2720  226.3870 H   0  0  0  0  0  0  0  0  0  0  0  0
  142.4369   75.1152  219.6274 H   0  0  0  0  0  0  0  0  0  0  0  0
  142.7765   77.5485  219.3947 H   0  0  0  0  0  0  0  0  0  0  0  0
  142.3880   79.7784  220.2004 H   0  0  0  0  0  0  0  0  0  0  0  0
  140.0062   80.3555  223.7181 H   0  0  0  0  0  0  0  0  0  0  0  0
  139.6853   77.9133  223.9224 H   0  0  0  0  0  0  0  0  0  0  0  0
  1  2  2  0
  2  3  1  0
  3  4  1  0
  4  5  1  0
  5  6  2  0
  5  7  1  0
  7  8  1  0
  8  9  1  0
  9 10  1  0
 10 11  1  0
 11 12  1  0
 12 13  2  0
 13 14  1  0
 14 15  2  0
 15 16  1  0
  2 17  1  0
 17 18  2  0
 18 19  1  0
 19 20  2  0
 20 21  1  0
 21 22  2  0
 22 23  1  0
 22 24  1  0
 24 25  2  0
 25 26  1  0
 26 27  2  0
 11  7  1  0
 16 12  1  0
 27 17  1  0
 26 20  1  0
  3 28  1  0
  4 29  1  0
  4 30  1  0
  8 31  1  0
  8 32  1  0
  9 33  1  0
  9 34  1  0
 10 35  1  0
 10 36  1  0
 11 37  1  1
 15 38  1  0
 16 39  1  0
 18 40  1  0
 19 41  1  0
 21 42  1  0
 24 43  1  0
 25 44  1  0
M  END
>  <smiles>  (41) 
O=C(NCC(=O)N1CCC[C@H]1c1nnc[nH]1)c1ccc2cc(Cl)ccc2n1

>  <score_type>  (41) 
oracle

>  <origin>  (41) 
autodockgpu

>  <m_score__min__energy>  (41) 
-7.9900000000000002

>  <m_primary>  (41) 
energy

>  <rmsd>  (41) 
8.698809778507286

>  <m_score__min__rmsd>  (41) 
8.698809778507286

>  <meeko>  (41) 
{"free_energy": -7.3, "intermolecular_energy": -8.79, "internal_energy": -1.94, "cluster_size": 2, "cluster_id": 5, "rank_in_cluster": 2}

>  <energy>  (41) 
-6.44

>  <cluster_rmsd>  (41) 
0.0

>  <cluster>  (41) 
9

$$$$

     RDKit          3D

 44 47  0  0  0  0  0  0  0  0999 V2000
  141.3400   72.8900  221.1940 O   0  0  0  0  0  0  0  0  0  0  0  0
  140.4610   72.9730  222.0910 C   0  0  0  0  0  0  0  0  0  0  0  0
  139.5190   74.0620  222.0300 N   0  0  0  0  0  0  0  0  0  0  0  0
  139.6570   74.9800  220.9400 C   0  0  0  0  0  0  0  0  0  0  0  0
  140.8440   75.8600  221.0830 C   0  0  0  0  0  0  0  0  0  0  0  0
  141.3310   76.1880  222.2000 O   0  0  0  0  0  0  0  0  0  0  0  0
  141.4880   76.3770  219.9280 N   0  0  0  0  0  0  0  0  0  0  0  0
  141.5630   77.7840  219.5580 C   0  0  0  0  0  0  0  0  0  0  0  0
  141.6790   77.7170  218.0310 C   0  0  0  0  0  0  0  0  0  0  0  0
  142.6910   76.5970  217.9020 C   0  0  0  0  0  0  0  0  0  0  0  0
  142.1810   75.6020  218.9220 C   0  0  1  0  0  0  0  0  0  0  0  0
  143.2830   74.7750  219.4770 C   0  0  0  0  0  0  0  0  0  0  0  0
  144.2130   74.1500  218.7370 N   0  0  0  0  0  0  0  0  0  0  0  0
  145.0280   73.5120  219.5790 N   0  0  0  0  0  0  0  0  0  0  0  0
  144.6110   73.7350  220.8480 C   0  0  0  0  0  0  0  0  0  0  0  0
  143.5130   74.5300  220.7850 N   0  0  0  0  0  0  0  0  0  0  0  0
  140.3660   72.0100  223.1760 C   0  0  0  0  0  0  0  0  0  0  0  0
  139.8330   70.7650  222.9010 C   0  0  0  0  0  0  0  0  0  0  0  0
  139.7100   69.8000  223.8730 C   0  0  0  0  0  0  0  0  0  0  0  0
  140.1320   70.0810  225.1570 C   0  0  0  0  0  0  0  0  0  0  0  0
  140.0160   69.1260  226.1450 C   0  0  0  0  0  0  0  0  0  0  0  0
  140.4390   69.4170  227.4200 C   0  0  0  0  0  0  0  0  0  0  0  0
  140.3040   68.2190  228.6930 Cl  0  0  0  0  0  0  0  0  0  0  0  0
  140.9720   70.6610  227.6910 C   0  0  0  0  0  0  0  0  0  0  0  0
  141.0840   71.6150  226.6960 C   0  0  0  0  0  0  0  0  0  0  0  0
  140.6660   71.3410  225.4170 C   0  0  0  0  0  0  0  0  0  0  0  0
  140.7630   72.2470  224.4270 N   0  0  0  0  0  0  0  0  0  0  0  0
  138.7790   74.1380  222.7780 H   0  0  0  0  0  0  0  0  0  0  0  0
  139.7537   74.4066  220.0063 H   0  0  0  0  0  0  0  0  0  0  0  0
  138.7644   75.6228  220.9301 H   0  0  0  0  0  0  0  0  0  0  0  0
  140.6558   78.3251  219.8648 H   0  0  0  0  0  0  0  0  0  0  0  0
  142.3938   78.3212  220.0388 H   0  0  0  0  0  0  0  0  0  0  0  0
  140.7199   77.4590  217.5582 H   0  0  0  0  0  0  0  0  0  0  0  0
  141.9628   78.6609  217.5427 H   0  0  0  0  0  0  0  0  0  0  0  0
  142.6883   76.1692  216.8886 H   0  0  0  0  0  0  0  0  0  0  0  0
  143.7309   76.9140  218.0694 H   0  0  0  0  0  0  0  0  0  0  0  0
  141.4934   74.8725  218.4691 H   0  0  0  0  0  0  0  0  0  0  0  0
  145.0776   73.3429  221.7637 H   0  0  0  0  0  0  0  0  0  0  0  0
  142.9270   74.9050  221.5660 H   0  0  0  0  0  0  0  0  0  0  0  0
  139.4983   70.5400  221.8776 H   0  0  0  0  0  0  0  0  0  0  0  0
  139.2808   68.8167  223.6304 H   0  0  0  0  0  0  0  0  0  0  0  0
  139.5883   68.1391  225.9146 H   0  0  0  0  0  0  0  0  0  0  0  0
  141.3117   70.8964  228.7104 H   0  0  0  0  0  0  0  0  0  0  0  0
  141.5113   72.6010  226.9310 H   0  0  0  0  0  0  0  0  0  0  0  0
  1  2  2  0
  2  3  1  0
  3  4  1  0
  4  5  1  0
  5  6  2  0
  5  7  1  0
  7  8  1  0
  8  9  1  0
  9 10  1  0
 10 11  1  0
 11 12  1  0
 12 13  2  0
 13 14  1  0
 14 15  2  0
 15 16  1  0
  2 17  1  0
 17 18  2  0
 18 19  1  0
 19 20  2  0
 20 21  1  0
 21 22  2  0
 22 23  1  0
 22 24  1  0
 24 25  2  0
 25 26  1  0
 26 27  2  0
 11  7  1  0
 16 12  1  0
 27 17  1  0
 26 20  1  0
  3 28  1  0
  4 29  1  0
  4 30  1  0
  8 31  1  0
  8 32  1  0
  9 33  1  0
  9 34  1  0
 10 35  1  0
 10 36  1  0
 11 37  1  6
 15 38  1  0
 16 39  1  0
 18 40  1  0
 19 41  1  0
 21 42  1  0
 24 43  1  0
 25 44  1  0
M  END
>  <smiles>  (42) 
O=C(NCC(=O)N1CCC[C@H]1c1nnc[nH]1)c1ccc2cc(Cl)ccc2n1

>  <score_type>  (42) 
oracle

>  <origin>  (42) 
autodockgpu

>  <m_score__min__energy>  (42) 
-7.9900000000000002

>  <m_primary>  (42) 
energy

>  <rmsd>  (42) 
2.798055983499276

>  <m_score__min__rmsd>  (42) 
2.798055983499276

>  <meeko>  (42) 
{"free_energy": -7.29, "intermolecular_energy": -8.79, "internal_energy": -2.33, "cluster_size": 13, "cluster_id": 1, "rank_in_cluster": 7}

>  <energy>  (42) 
-6.35

>  <cluster_rmsd>  (42) 
0.0

>  <cluster>  (42) 
10

$$$$

     RDKit          3D

 44 47  0  0  0  0  0  0  0  0999 V2000
  134.9170   68.5360  225.2580 O   0  0  0  0  0  0  0  0  0  0  0  0
  135.2210   69.7410  225.0620 C   0  0  0  0  0  0  0  0  0  0  0  0
  136.3450   70.0360  224.2100 N   0  0  0  0  0  0  0  0  0  0  0  0
  137.0400   68.9200  223.6430 C   0  0  0  0  0  0  0  0  0  0  0  0
  138.3940   68.7370  224.2220 C   0  0  0  0  0  0  0  0  0  0  0  0
  138.8530   67.6110  224.5650 O   0  0  0  0  0  0  0  0  0  0  0  0
  139.2430   69.8580  224.4150 N   0  0  0  0  0  0  0  0  0  0  0  0
  139.0000   71.2020  223.9050 C   0  0  0  0  0  0  0  0  0  0  0  0
  140.4210   71.7590  223.7590 C   0  0  0  0  0  0  0  0  0  0  0  0
  141.0170   71.2810  225.0680 C   0  0  0  0  0  0  0  0  0  0  0  0
  140.4900   69.8650  225.1480 C   0  0  1  0  0  0  0  0  0  0  0  0
  140.3440   69.4160  226.5560 C   0  0  0  0  0  0  0  0  0  0  0  0
  140.3860   70.2290  227.6240 N   0  0  0  0  0  0  0  0  0  0  0  0
  140.2180   69.4700  228.7080 N   0  0  0  0  0  0  0  0  0  0  0  0
  140.0710   68.1790  228.3230 C   0  0  0  0  0  0  0  0  0  0  0  0
  140.1490   68.1450  226.9690 N   0  0  0  0  0  0  0  0  0  0  0  0
  134.4790   70.8370  225.6640 C   0  0  0  0  0  0  0  0  0  0  0  0
  133.4560   70.5290  226.5410 C   0  0  0  0  0  0  0  0  0  0  0  0
  132.7070   71.5080  227.1510 C   0  0  0  0  0  0  0  0  0  0  0  0
  132.9850   72.8330  226.8820 C   0  0  0  0  0  0  0  0  0  0  0  0
  132.2440   73.8290  227.4840 C   0  0  0  0  0  0  0  0  0  0  0  0
  132.5300   75.1440  227.2080 C   0  0  0  0  0  0  0  0  0  0  0  0
  131.6030   76.4280  227.9630 Cl  0  0  0  0  0  0  0  0  0  0  0  0
  133.5520   75.4480  226.3330 C   0  0  0  0  0  0  0  0  0  0  0  0
  134.2900   74.4450  225.7310 C   0  0  0  0  0  0  0  0  0  0  0  0
  134.0180   73.1250  225.9960 C   0  0  0  0  0  0  0  0  0  0  0  0
  134.7180   72.1270  225.4270 N   0  0  0  0  0  0  0  0  0  0  0  0
  136.6060   71.0440  224.0400 H   0  0  0  0  0  0  0  0  0  0  0  0
  136.4521   68.0086  223.8267 H   0  0  0  0  0  0  0  0  0  0  0  0
  137.1612   69.1146  222.5672 H   0  0  0  0  0  0  0  0  0  0  0  0
  138.4823   71.1722  222.9349 H   0  0  0  0  0  0  0  0  0  0  0  0
  138.3539   71.8095  224.5557 H   0  0  0  0  0  0  0  0  0  0  0  0
  140.9421   71.3297  222.8906 H   0  0  0  0  0  0  0  0  0  0  0  0
  140.4817   72.8438  223.5871 H   0  0  0  0  0  0  0  0  0  0  0  0
  142.1164   71.2982  225.0377 H   0  0  0  0  0  0  0  0  0  0  0  0
  140.7507   71.9054  225.9335 H   0  0  0  0  0  0  0  0  0  0  0  0
  141.1916   69.1443  224.7027 H   0  0  0  0  0  0  0  0  0  0  0  0
  139.9166   67.3159  228.9873 H   0  0  0  0  0  0  0  0  0  0  0  0
  140.0790   67.3210  226.3270 H   0  0  0  0  0  0  0  0  0  0  0  0
  133.2351   69.4732  226.7567 H   0  0  0  0  0  0  0  0  0  0  0  0
  131.8967   71.2385  227.8444 H   0  0  0  0  0  0  0  0  0  0  0  0
  131.4310   73.5723  228.1791 H   0  0  0  0  0  0  0  0  0  0  0  0
  133.7828   76.5004  226.1114 H   0  0  0  0  0  0  0  0  0  0  0  0
  135.1007   74.7063  225.0349 H   0  0  0  0  0  0  0  0  0  0  0  0
  1  2  2  0
  2  3  1  0
  3  4  1  0
  4  5  1  0
  5  6  2  0
  5  7  1  0
  7  8  1  0
  8  9  1  0
  9 10  1  0
 10 11  1  0
 11 12  1  0
 12 13  2  0
 13 14  1  0
 14 15  2  0
 15 16  1  0
  2 17  1  0
 17 18  2  0
 18 19  1  0
 19 20  2  0
 20 21  1  0
 21 22  2  0
 22 23  1  0
 22 24  1  0
 24 25  2  0
 25 26  1  0
 26 27  2  0
 11  7  1  0
 16 12  1  0
 27 17  1  0
 26 20  1  0
  3 28  1  0
  4 29  1  0
  4 30  1  0
  8 31  1  0
  8 32  1  0
  9 33  1  0
  9 34  1  0
 10 35  1  0
 10 36  1  0
 11 37  1  6
 15 38  1  0
 16 39  1  0
 18 40  1  0
 19 41  1  0
 21 42  1  0
 24 43  1  0
 25 44  1  0
M  END
>  <smiles>  (43) 
O=C(NCC(=O)N1CCC[C@H]1c1nnc[nH]1)c1ccc2cc(Cl)ccc2n1

>  <score_type>  (43) 
oracle

>  <origin>  (43) 
autodockgpu

>  <m_score__min__energy>  (43) 
-7.9900000000000002

>  <m_primary>  (43) 
energy

>  <rmsd>  (43) 
8.166302771511848

>  <m_score__min__rmsd>  (43) 
8.166302771511848

>  <meeko>  (43) 
{"free_energy": -7.23, "intermolecular_energy": -8.73, "internal_energy": -2.1, "cluster_size": 3, "cluster_id": 4, "rank_in_cluster": 3}

>  <energy>  (43) 
-6.34

>  <cluster_rmsd>  (43) 
0.05

>  <cluster>  (43) 
10

$$$$

     RDKit          3D

 44 47  0  0  0  0  0  0  0  0999 V2000
  134.2620   69.2910  226.4650 O   0  0  0  0  0  0  0  0  0  0  0  0
  134.5390   70.4170  225.9770 C   0  0  0  0  0  0  0  0  0  0  0  0
  135.5750   70.4970  224.9780 N   0  0  0  0  0  0  0  0  0  0  0  0
  136.2200   69.2720  224.6120 C   0  0  0  0  0  0  0  0  0  0  0  0
  137.6660   69.2680  224.9420 C   0  0  0  0  0  0  0  0  0  0  0  0
  138.1980   68.4150  225.7060 O   0  0  0  0  0  0  0  0  0  0  0  0
  138.5250   70.2560  224.3910 N   0  0  0  0  0  0  0  0  0  0  0  0
  138.1540   71.2250  223.3680 C   0  0  0  0  0  0  0  0  0  0  0  0
  139.4930   71.4990  222.6740 C   0  0  0  0  0  0  0  0  0  0  0  0
  140.3870   71.6260  223.8910 C   0  0  0  0  0  0  0  0  0  0  0  0
  139.9100   70.4730  224.7460 C   0  0  1  0  0  0  0  0  0  0  0  0
  140.1070   70.7470  226.1930 C   0  0  0  0  0  0  0  0  0  0  0  0
  140.7210   71.8360  226.6850 N   0  0  0  0  0  0  0  0  0  0  0  0
  140.7060   71.7330  228.0150 N   0  0  0  0  0  0  0  0  0  0  0  0
  140.0840   70.5800  228.3600 C   0  0  0  0  0  0  0  0  0  0  0  0
  139.7060   69.9600  227.2140 N   0  0  0  0  0  0  0  0  0  0  0  0
  133.8500   71.6300  226.3850 C   0  0  0  0  0  0  0  0  0  0  0  0
  132.7000   71.5050  227.1410 C   0  0  0  0  0  0  0  0  0  0  0  0
  131.9910   72.6050  227.5670 C   0  0  0  0  0  0  0  0  0  0  0  0
  132.4410   73.8660  227.2320 C   0  0  0  0  0  0  0  0  0  0  0  0
  131.7440   74.9800  227.6500 C   0  0  0  0  0  0  0  0  0  0  0  0
  132.2020   76.2310  227.3110 C   0  0  0  0  0  0  0  0  0  0  0  0
  131.3330   77.6630  227.8310 Cl  0  0  0  0  0  0  0  0  0  0  0  0
  133.3510   76.3520  226.5570 C   0  0  0  0  0  0  0  0  0  0  0  0
  134.0450   75.2310  226.1400 C   0  0  0  0  0  0  0  0  0  0  0  0
  133.6020   73.9730  226.4700 C   0  0  0  0  0  0  0  0  0  0  0  0
  134.2550   72.8640  226.0800 N   0  0  0  0  0  0  0  0  0  0  0  0
  135.8120   71.4380  224.5640 H   0  0  0  0  0  0  0  0  0  0  0  0
  135.7339   68.4439  225.1486 H   0  0  0  0  0  0  0  0  0  0  0  0
  136.1268   69.1592  223.5218 H   0  0  0  0  0  0  0  0  0  0  0  0
  137.4210   70.8014  222.6657 H   0  0  0  0  0  0  0  0  0  0  0  0
  137.6749   72.1291  223.7718 H   0  0  0  0  0  0  0  0  0  0  0  0
  139.7978   70.6634  222.0268 H   0  0  0  0  0  0  0  0  0  0  0  0
  139.4996   72.3659  221.9969 H   0  0  0  0  0  0  0  0  0  0  0  0
  141.4478   71.5136  223.6224 H   0  0  0  0  0  0  0  0  0  0  0  0
  140.3260   72.6051  224.3887 H   0  0  0  0  0  0  0  0  0  0  0  0
  140.4943   69.5600  224.5590 H   0  0  0  0  0  0  0  0  0  0  0  0
  139.9160   70.2132  229.3833 H   0  0  0  0  0  0  0  0  0  0  0  0
  139.2020   69.0500  227.0930 H   0  0  0  0  0  0  0  0  0  0  0  0
  132.3419   70.5001  227.4093 H   0  0  0  0  0  0  0  0  0  0  0  0
  131.0773   72.4807  228.1668 H   0  0  0  0  0  0  0  0  0  0  0  0
  130.8288   74.8685  228.2499 H   0  0  0  0  0  0  0  0  0  0  0  0
  133.7194   77.3520  226.2843 H   0  0  0  0  0  0  0  0  0  0  0  0
  134.9591   75.3474  225.5392 H   0  0  0  0  0  0  0  0  0  0  0  0
  1  2  2  0
  2  3  1  0
  3  4  1  0
  4  5  1  0
  5  6  2  0
  5  7  1  0
  7  8  1  0
  8  9  1  0
  9 10  1  0
 10 11  1  0
 11 12  1  0
 12 13  2  0
 13 14  1  0
 14 15  2  0
 15 16  1  0
  2 17  1  0
 17 18  2  0
 18 19  1  0
 19 20  2  0
 20 21  1  0
 21 22  2  0
 22 23  1  0
 22 24  1  0
 24 25  2  0
 25 26  1  0
 26 27  2  0
 11  7  1  0
 16 12  1  0
 27 17  1  0
 26 20  1  0
  3 28  1  0
  4 29  1  0
  4 30  1  0
  8 31  1  0
  8 32  1  0
  9 33  1  0
  9 34  1  0
 10 35  1  0
 10 36  1  0
 11 37  1  6
 15 38  1  0
 16 39  1  0
 18 40  1  0
 19 41  1  0
 21 42  1  0
 24 43  1  0
 25 44  1  0
M  END
>  <smiles>  (44) 
O=C(NCC(=O)N1CCC[C@H]1c1nnc[nH]1)c1ccc2cc(Cl)ccc2n1

>  <score_type>  (44) 
oracle

>  <origin>  (44) 
autodockgpu

>  <m_score__min__energy>  (44) 
-7.9900000000000002

>  <m_primary>  (44) 
energy

>  <rmsd>  (44) 
8.163424226756964

>  <m_score__min__rmsd>  (44) 
8.163424226756964

>  <meeko>  (44) 
{"free_energy": -7.43, "intermolecular_energy": -8.92, "internal_energy": -2.06, "cluster_size": 3, "cluster_id": 4, "rank_in_cluster": 2}

>  <energy>  (44) 
-6.33

>  <cluster_rmsd>  (44) 
0.05

>  <cluster>  (44) 
10

$$$$

     RDKit          3D

 44 47  0  0  0  0  0  0  0  0999 V2000
  136.0030   71.2150  222.2110 O   0  0  0  0  0  0  0  0  0  0  0  0
  137.0240   71.6550  222.8010 C   0  0  0  0  0  0  0  0  0  0  0  0
  137.5240   72.9560  222.4320 N   0  0  0  0  0  0  0  0  0  0  0  0
  136.8110   73.6570  221.4080 C   0  0  0  0  0  0  0  0  0  0  0  0
  135.4070   73.9510  221.7880 C   0  0  0  0  0  0  0  0  0  0  0  0
  134.4270   73.2530  221.4060 O   0  0  0  0  0  0  0  0  0  0  0  0
  135.1140   75.0630  222.6210 N   0  0  0  0  0  0  0  0  0  0  0  0
  134.4880   76.3050  222.1870 C   0  0  0  0  0  0  0  0  0  0  0  0
  135.0440   77.3220  223.1910 C   0  0  0  0  0  0  0  0  0  0  0  0
  134.8950   76.5230  224.4700 C   0  0  0  0  0  0  0  0  0  0  0  0
  135.3820   75.1570  224.0390 C   0  0  1  0  0  0  0  0  0  0  0  0
  134.7410   74.0740  224.8290 C   0  0  0  0  0  0  0  0  0  0  0  0
  134.3270   74.2020  226.1010 N   0  0  0  0  0  0  0  0  0  0  0  0
  133.8080   73.0290  226.4680 N   0  0  0  0  0  0  0  0  0  0  0  0
  133.8950   72.1640  225.4290 C   0  0  0  0  0  0  0  0  0  0  0  0
  134.4820   72.8210  224.3980 N   0  0  0  0  0  0  0  0  0  0  0  0
  137.7080   70.8980  223.8370 C   0  0  0  0  0  0  0  0  0  0  0  0
  137.2260   69.6420  224.1540 C   0  0  0  0  0  0  0  0  0  0  0  0
  137.8180   68.8640  225.1210 C   0  0  0  0  0  0  0  0  0  0  0  0
  138.9220   69.3490  225.7920 C   0  0  0  0  0  0  0  0  0  0  0  0
  139.5290   68.5830  226.7660 C   0  0  0  0  0  0  0  0  0  0  0  0
  140.6280   69.0760  227.4270 C   0  0  0  0  0  0  0  0  0  0  0  0
  141.4170   68.1200  228.6680 Cl  0  0  0  0  0  0  0  0  0  0  0  0
  141.1060   70.3300  227.1080 C   0  0  0  0  0  0  0  0  0  0  0  0
  140.4930   71.0940  226.1320 C   0  0  0  0  0  0  0  0  0  0  0  0
  139.3940   70.6160  225.4600 C   0  0  0  0  0  0  0  0  0  0  0  0
  138.7760   71.3350  224.5050 N   0  0  0  0  0  0  0  0  0  0  0  0
  138.3780   73.3310  222.9230 H   0  0  0  0  0  0  0  0  0  0  0  0
  137.3276   74.6070  221.2065 H   0  0  0  0  0  0  0  0  0  0  0  0
  136.7866   73.0112  220.5179 H   0  0  0  0  0  0  0  0  0  0  0  0
  134.7815   76.5602  221.1581 H   0  0  0  0  0  0  0  0  0  0  0  0
  133.3890   76.2606  222.1691 H   0  0  0  0  0  0  0  0  0  0  0  0
  136.0952   77.5704  222.9831 H   0  0  0  0  0  0  0  0  0  0  0  0
  134.5420   78.3008  223.1907 H   0  0  0  0  0  0  0  0  0  0  0  0
  135.5204   76.9356  225.2754 H   0  0  0  0  0  0  0  0  0  0  0  0
  133.8741   76.5236  224.8796 H   0  0  0  0  0  0  0  0  0  0  0  0
  136.4586   75.0319  224.2271 H   0  0  0  0  0  0  0  0  0  0  0  0
  133.5519   71.1189  225.4228 H   0  0  0  0  0  0  0  0  0  0  0  0
  134.7100   72.4700  223.4390 H   0  0  0  0  0  0  0  0  0  0  0  0
  136.3463   69.2548  223.6190 H   0  0  0  0  0  0  0  0  0  0  0  0
  137.4165   67.8674  225.3568 H   0  0  0  0  0  0  0  0  0  0  0  0
  139.1361   67.5853  227.0114 H   0  0  0  0  0  0  0  0  0  0  0  0
  141.9854   70.7270  227.6364 H   0  0  0  0  0  0  0  0  0  0  0  0
  140.8882   72.0920  225.8918 H   0  0  0  0  0  0  0  0  0  0  0  0
  1  2  2  0
  2  3  1  0
  3  4  1  0
  4  5  1  0
  5  6  2  0
  5  7  1  0
  7  8  1  0
  8  9  1  0
  9 10  1  0
 10 11  1  0
 11 12  1  0
 12 13  2  0
 13 14  1  0
 14 15  2  0
 15 16  1  0
  2 17  1  0
 17 18  2  0
 18 19  1  0
 19 20  2  0
 20 21  1  0
 21 22  2  0
 22 23  1  0
 22 24  1  0
 24 25  2  0
 25 26  1  0
 26 27  2  0
 11  7  1  0
 16 12  1  0
 27 17  1  0
 26 20  1  0
  3 28  1  0
  4 29  1  0
  4 30  1  0
  8 31  1  0
  8 32  1  0
  9 33  1  0
  9 34  1  0
 10 35  1  0
 10 36  1  0
 11 37  1  6
 15 38  1  0
 16 39  1  0
 18 40  1  0
 19 41  1  0
 21 42  1  0
 24 43  1  0
 25 44  1  0
M  END
>  <smiles>  (45) 
O=C(NCC(=O)N1CCC[C@H]1c1nnc[nH]1)c1ccc2cc(Cl)ccc2n1

>  <score_type>  (45) 
oracle

>  <origin>  (45) 
autodockgpu

>  <m_score__min__energy>  (45) 
-7.9900000000000002

>  <m_primary>  (45) 
energy

>  <rmsd>  (45) 
5.455189231824602

>  <m_score__min__rmsd>  (45) 
5.455189231824602

>  <meeko>  (45) 
{"free_energy": -6.33, "intermolecular_energy": -7.82, "internal_energy": -3.06, "cluster_size": 3, "cluster_id": 10, "rank_in_cluster": 3}

>  <energy>  (45) 
-6.35

>  <cluster_rmsd>  (45) 
0.0

>  <cluster>  (45) 
11

$$$$

     RDKit          3D

 44 47  0  0  0  0  0  0  0  0999 V2000
  138.9730   76.0850  223.0360 O   0  0  0  0  0  0  0  0  0  0  0  0
  139.5720   76.1860  221.9340 C   0  0  0  0  0  0  0  0  0  0  0  0
  139.2850   77.3260  221.0990 N   0  0  0  0  0  0  0  0  0  0  0  0
  138.3280   78.2680  221.5940 C   0  0  0  0  0  0  0  0  0  0  0  0
  138.9650   79.4430  222.2390 C   0  0  0  0  0  0  0  0  0  0  0  0
  138.3310   80.4920  222.5420 O   0  0  0  0  0  0  0  0  0  0  0  0
  140.3510   79.4220  222.5450 N   0  0  0  0  0  0  0  0  0  0  0  0
  140.9290   79.0510  223.8290 C   0  0  0  0  0  0  0  0  0  0  0  0
  142.2390   79.8470  223.8420 C   0  0  0  0  0  0  0  0  0  0  0  0
  142.7080   79.5880  222.4250 C   0  0  0  0  0  0  0  0  0  0  0  0
  141.4270   79.7630  221.6390 C   0  0  1  0  0  0  0  0  0  0  0  0
  141.4300   78.9440  220.4000 C   0  0  0  0  0  0  0  0  0  0  0  0
  140.6740   79.1950  219.3190 N   0  0  0  0  0  0  0  0  0  0  0  0
  140.9470   78.2530  218.4150 N   0  0  0  0  0  0  0  0  0  0  0  0
  141.8750   77.4080  218.9270 C   0  0  0  0  0  0  0  0  0  0  0  0
  142.1800   77.8430  220.1750 N   0  0  0  0  0  0  0  0  0  0  0  0
  140.5370   75.1980  221.4810 C   0  0  0  0  0  0  0  0  0  0  0  0
  140.1250   73.8830  221.3740 C   0  0  0  0  0  0  0  0  0  0  0  0
  140.9780   72.8900  220.9530 C   0  0  0  0  0  0  0  0  0  0  0  0
  142.2790   73.2140  220.6280 C   0  0  0  0  0  0  0  0  0  0  0  0
  143.1490   72.2310  220.2040 C   0  0  0  0  0  0  0  0  0  0  0  0
  144.4420   72.5650  219.8820 C   0  0  0  0  0  0  0  0  0  0  0  0
  145.5670   71.3330  219.3400 Cl  0  0  0  0  0  0  0  0  0  0  0  0
  144.8500   73.8790  219.9900 C   0  0  0  0  0  0  0  0  0  0  0  0
  143.9740   74.8600  220.4160 C   0  0  0  0  0  0  0  0  0  0  0  0
  142.6780   74.5430  220.7410 C   0  0  0  0  0  0  0  0  0  0  0  0
  141.8010   75.4740  221.1590 N   0  0  0  0  0  0  0  0  0  0  0  0
  139.7840   77.4180  220.1740 H   0  0  0  0  0  0  0  0  0  0  0  0
  137.7115   78.6187  220.7532 H   0  0  0  0  0  0  0  0  0  0  0  0
  137.7214   77.7574  222.3565 H   0  0  0  0  0  0  0  0  0  0  0  0
  140.2741   79.3486  224.6612 H   0  0  0  0  0  0  0  0  0  0  0  0
  141.0719   77.9671  223.9501 H   0  0  0  0  0  0  0  0  0  0  0  0
  142.0661   80.9174  224.0271 H   0  0  0  0  0  0  0  0  0  0  0  0
  142.9517   79.5599  224.6292 H   0  0  0  0  0  0  0  0  0  0  0  0
  143.4707   80.3178  222.1157 H   0  0  0  0  0  0  0  0  0  0  0  0
  143.1859   78.6070  222.2859 H   0  0  0  0  0  0  0  0  0  0  0  0
  141.3065   80.7967  221.2826 H   0  0  0  0  0  0  0  0  0  0  0  0
  142.3029   76.5293  218.4222 H   0  0  0  0  0  0  0  0  0  0  0  0
  142.8550   77.4390  220.8660 H   0  0  0  0  0  0  0  0  0  0  0  0
  139.0876   73.6240  221.6324 H   0  0  0  0  0  0  0  0  0  0  0  0
  140.6273   71.8502  220.8763 H   0  0  0  0  0  0  0  0  0  0  0  0
  142.8099   71.1876  220.1243 H   0  0  0  0  0  0  0  0  0  0  0  0
  145.8851   74.1491  219.7339 H   0  0  0  0  0  0  0  0  0  0  0  0
  144.3176   75.9020  220.4952 H   0  0  0  0  0  0  0  0  0  0  0  0
  1  2  2  0
  2  3  1  0
  3  4  1  0
  4  5  1  0
  5  6  2  0
  5  7  1  0
  7  8  1  0
  8  9  1  0
  9 10  1  0
 10 11  1  0
 11 12  1  0
 12 13  2  0
 13 14  1  0
 14 15  2  0
 15 16  1  0
  2 17  1  0
 17 18  2  0
 18 19  1  0
 19 20  2  0
 20 21  1  0
 21 22  2  0
 22 23  1  0
 22 24  1  0
 24 25  2  0
 25 26  1  0
 26 27  2  0
 11  7  1  0
 16 12  1  0
 27 17  1  0
 26 20  1  0
  3 28  1  0
  4 29  1  0
  4 30  1  0
  8 31  1  0
  8 32  1  0
  9 33  1  0
  9 34  1  0
 10 35  1  0
 10 36  1  0
 11 37  1  6
 15 38  1  0
 16 39  1  0
 18 40  1  0
 19 41  1  0
 21 42  1  0
 24 43  1  0
 25 44  1  0
M  END
>  <smiles>  (46) 
O=C(NCC(=O)N1CCC[C@H]1c1nnc[nH]1)c1ccc2cc(Cl)ccc2n1

>  <score_type>  (46) 
oracle

>  <origin>  (46) 
autodockgpu

>  <m_score__min__energy>  (46) 
-7.9900000000000002

>  <m_primary>  (46) 
energy

>  <rmsd>  (46) 
6.2024166594707

>  <m_score__min__rmsd>  (46) 
6.2024166594707

>  <meeko>  (46) 
{"free_energy": -5.7, "intermolecular_energy": -7.19, "internal_energy": -3.6, "cluster_size": 5, "cluster_id": 12, "rank_in_cluster": 4}

>  <energy>  (46) 
-5.79

>  <cluster_rmsd>  (46) 
0.0

>  <cluster>  (46) 
12

$$$$

     RDKit          3D

 44 47  0  0  0  0  0  0  0  0999 V2000
  140.7690   72.6710  220.9180 O   0  0  0  0  0  0  0  0  0  0  0  0
  140.2190   72.9460  222.0170 C   0  0  0  0  0  0  0  0  0  0  0  0
  139.6120   74.2430  222.1740 N   0  0  0  0  0  0  0  0  0  0  0  0
  139.6810   75.1330  221.0550 C   0  0  0  0  0  0  0  0  0  0  0  0
  140.2390   76.4600  221.4140 C   0  0  0  0  0  0  0  0  0  0  0  0
  141.4490   76.7730  221.2330 O   0  0  0  0  0  0  0  0  0  0  0  0
  139.4020   77.4510  221.9900 N   0  0  0  0  0  0  0  0  0  0  0  0
  138.1590   77.1980  222.7070 C   0  0  0  0  0  0  0  0  0  0  0  0
  137.3720   78.4910  222.4680 C   0  0  0  0  0  0  0  0  0  0  0  0
  138.4710   79.5060  222.7060 C   0  0  0  0  0  0  0  0  0  0  0  0
  139.6340   78.8790  221.9680 C   0  0  1  0  0  0  0  0  0  0  0  0
  140.9360   79.2690  222.5680 C   0  0  0  0  0  0  0  0  0  0  0  0
  141.0820   79.8010  223.7930 N   0  0  0  0  0  0  0  0  0  0  0  0
  142.3850   80.0170  223.9800 N   0  0  0  0  0  0  0  0  0  0  0  0
  143.0600   79.6210  222.8740 C   0  0  0  0  0  0  0  0  0  0  0  0
  142.1490   79.1490  221.9860 N   0  0  0  0  0  0  0  0  0  0  0  0
  140.1780   72.0020  223.1210 C   0  0  0  0  0  0  0  0  0  0  0  0
  139.6110   70.7610  222.9000 C   0  0  0  0  0  0  0  0  0  0  0  0
  139.5350   69.8130  223.8930 C   0  0  0  0  0  0  0  0  0  0  0  0
  140.0370   70.1080  225.1440 C   0  0  0  0  0  0  0  0  0  0  0  0
  139.9690   69.1700  226.1540 C   0  0  0  0  0  0  0  0  0  0  0  0
  140.4720   69.4750  227.3950 C   0  0  0  0  0  0  0  0  0  0  0  0
  140.3980   68.2990  228.6940 Cl  0  0  0  0  0  0  0  0  0  0  0  0
  141.0370   70.7140  227.6130 C   0  0  0  0  0  0  0  0  0  0  0  0
  141.1020   71.6520  226.5980 C   0  0  0  0  0  0  0  0  0  0  0  0
  140.6040   71.3630  225.3500 C   0  0  0  0  0  0  0  0  0  0  0  0
  140.6520   72.2530  224.3420 N   0  0  0  0  0  0  0  0  0  0  0  0
  139.1480   74.4810  223.0910 H   0  0  0  0  0  0  0  0  0  0  0  0
  140.3201   74.6794  220.2831 H   0  0  0  0  0  0  0  0  0  0  0  0
  138.6549   75.2907  220.6914 H   0  0  0  0  0  0  0  0  0  0  0  0
  137.6300   76.3276  222.2915 H   0  0  0  0  0  0  0  0  0  0  0  0
  138.3057   76.9633  223.7716 H   0  0  0  0  0  0  0  0  0  0  0  0
  136.9779   78.5470  221.4426 H   0  0  0  0  0  0  0  0  0  0  0  0
  136.4779   78.6157  223.0965 H   0  0  0  0  0  0  0  0  0  0  0  0
  138.2094   80.4868  222.2823 H   0  0  0  0  0  0  0  0  0  0  0  0
  138.6721   79.7049  223.7690 H   0  0  0  0  0  0  0  0  0  0  0  0
  139.6941   79.2345  220.9288 H   0  0  0  0  0  0  0  0  0  0  0  0
  144.1484   79.6727  222.7233 H   0  0  0  0  0  0  0  0  0  0  0  0
  142.3050   78.7600  221.0270 H   0  0  0  0  0  0  0  0  0  0  0  0
  139.2099   70.5255  221.9032 H   0  0  0  0  0  0  0  0  0  0  0  0
  139.0798   68.8319  223.6927 H   0  0  0  0  0  0  0  0  0  0  0  0
  139.5154   68.1856  225.9665 H   0  0  0  0  0  0  0  0  0  0  0  0
  141.4410   70.9596  228.6062 H   0  0  0  0  0  0  0  0  0  0  0  0
  141.5552   72.6355  226.7911 H   0  0  0  0  0  0  0  0  0  0  0  0
  1  2  2  0
  2  3  1  0
  3  4  1  0
  4  5  1  0
  5  6  2  0
  5  7  1  0
  7  8  1  0
  8  9  1  0
  9 10  1  0
 10 11  1  0
 11 12  1  0
 12 13  2  0
 13 14  1  0
 14 15  2  0
 15 16  1  0
  2 17  1  0
 17 18  2  0
 18 19  1  0
 19 20  2  0
 20 21  1  0
 21 22  2  0
 22 23  1  0
 22 24  1  0
 24 25  2  0
 25 26  1  0
 26 27  2  0
 11  7  1  0
 16 12  1  0
 27 17  1  0
 26 20  1  0
  3 28  1  0
  4 29  1  0
  4 30  1  0
  8 31  1  0
  8 32  1  0
  9 33  1  0
  9 34  1  0
 10 35  1  0
 10 36  1  0
 11 37  1  6
 15 38  1  0
 16 39  1  0
 18 40  1  0
 19 41  1  0
 21 42  1  0
 24 43  1  0
 25 44  1  0
M  END
>  <smiles>  (47) 
O=C(NCC(=O)N1CCC[C@H]1c1nnc[nH]1)c1ccc2cc(Cl)ccc2n1

>  <score_type>  (47) 
oracle

>  <origin>  (47) 
autodockgpu

>  <m_score__min__energy>  (47) 
-7.9900000000000002

>  <m_primary>  (47) 
energy

>  <rmsd>  (47) 
3.068673548970802

>  <m_score__min__rmsd>  (47) 
3.068673548970802

>  <meeko>  (47) 
{"free_energy": -7.85, "intermolecular_energy": -9.34, "internal_energy": -1.72, "cluster_size": 11, "cluster_id": 2, "rank_in_cluster": 3}

>  <energy>  (47) 
-5.77

>  <cluster_rmsd>  (47) 
0.02

>  <cluster>  (47) 
12

$$$$

     RDKit          3D

 44 47  0  0  0  0  0  0  0  0999 V2000
  138.8840   71.3440  220.9930 O   0  0  0  0  0  0  0  0  0  0  0  0
  138.5710   71.6590  222.1710 C   0  0  0  0  0  0  0  0  0  0  0  0
  137.7410   72.8200  222.3740 N   0  0  0  0  0  0  0  0  0  0  0  0
  137.3310   73.5360  221.2050 C   0  0  0  0  0  0  0  0  0  0  0  0
  138.4700   74.1630  220.4900 C   0  0  0  0  0  0  0  0  0  0  0  0
  138.7660   73.8970  219.2920 O   0  0  0  0  0  0  0  0  0  0  0  0
  139.2890   75.1140  221.1550 N   0  0  0  0  0  0  0  0  0  0  0  0
  138.9200   75.8630  222.3490 C   0  0  0  0  0  0  0  0  0  0  0  0
  139.7540   77.1410  222.2060 C   0  0  0  0  0  0  0  0  0  0  0  0
  141.0750   76.5360  221.7770 C   0  0  0  0  0  0  0  0  0  0  0  0
  140.6270   75.5030  220.7660 C   0  0  1  0  0  0  0  0  0  0  0  0
  141.5730   74.3600  220.6970 C   0  0  0  0  0  0  0  0  0  0  0  0
  142.9040   74.4620  220.8430 N   0  0  0  0  0  0  0  0  0  0  0  0
  143.4130   73.2350  220.7200 N   0  0  0  0  0  0  0  0  0  0  0  0
  142.4020   72.3600  220.4970 C   0  0  0  0  0  0  0  0  0  0  0  0
  141.2450   73.0670  220.4830 N   0  0  0  0  0  0  0  0  0  0  0  0
  139.0160   70.8930  223.3230 C   0  0  0  0  0  0  0  0  0  0  0  0
  138.7960   69.5280  223.3250 C   0  0  0  0  0  0  0  0  0  0  0  0
  139.1880   68.7340  224.3780 C   0  0  0  0  0  0  0  0  0  0  0  0
  139.8190   69.3150  225.4600 C   0  0  0  0  0  0  0  0  0  0  0  0
  140.2190   68.5340  226.5250 C   0  0  0  0  0  0  0  0  0  0  0  0
  140.8450   69.1230  227.5970 C   0  0  0  0  0  0  0  0  0  0  0  0
  141.3640   68.1520  228.9620 Cl  0  0  0  0  0  0  0  0  0  0  0  0
  141.0630   70.4850  227.5910 C   0  0  0  0  0  0  0  0  0  0  0  0
  140.6590   71.2630  226.5210 C   0  0  0  0  0  0  0  0  0  0  0  0
  140.0320   70.6910  225.4410 C   0  0  0  0  0  0  0  0  0  0  0  0
  139.6270   71.4190  224.3850 N   0  0  0  0  0  0  0  0  0  0  0  0
  137.4740   73.0890  223.3580 H   0  0  0  0  0  0  0  0  0  0  0  0
  136.8286   72.8358  220.5214 H   0  0  0  0  0  0  0  0  0  0  0  0
  136.6565   74.3425  221.5283 H   0  0  0  0  0  0  0  0  0  0  0  0
  137.8436   76.0893  222.3601 H   0  0  0  0  0  0  0  0  0  0  0  0
  139.1080   75.3178  223.2857 H   0  0  0  0  0  0  0  0  0  0  0  0
  139.3435   77.8143  221.4391 H   0  0  0  0  0  0  0  0  0  0  0  0
  139.8000   77.7713  223.1063 H   0  0  0  0  0  0  0  0  0  0  0  0
  141.7302   77.2899  221.3162 H   0  0  0  0  0  0  0  0  0  0  0  0
  141.6659   76.1210  222.6068 H   0  0  0  0  0  0  0  0  0  0  0  0
  140.6177   75.9111  219.7446 H   0  0  0  0  0  0  0  0  0  0  0  0
  142.5020   71.2740  220.3535 H   0  0  0  0  0  0  0  0  0  0  0  0
  140.2660   72.7250  220.3390 H   0  0  0  0  0  0  0  0  0  0  0  0
  138.2946   69.0649  222.4624 H   0  0  0  0  0  0  0  0  0  0  0  0
  139.0011   67.6502  224.3582 H   0  0  0  0  0  0  0  0  0  0  0  0
  140.0382   67.4490  226.5158 H   0  0  0  0  0  0  0  0  0  0  0  0
  141.5645   70.9585  228.4479 H   0  0  0  0  0  0  0  0  0  0  0  0
  140.8412   72.3477  226.5351 H   0  0  0  0  0  0  0  0  0  0  0  0
  1  2  2  0
  2  3  1  0
  3  4  1  0
  4  5  1  0
  5  6  2  0
  5  7  1  0
  7  8  1  0
  8  9  1  0
  9 10  1  0
 10 11  1  0
 11 12  1  0
 12 13  2  0
 13 14  1  0
 14 15  2  0
 15 16  1  0
  2 17  1  0
 17 18  2  0
 18 19  1  0
 19 20  2  0
 20 21  1  0
 21 22  2  0
 22 23  1  0
 22 24  1  0
 24 25  2  0
 25 26  1  0
 26 27  2  0
 11  7  1  0
 16 12  1  0
 27 17  1  0
 26 20  1  0
  3 28  1  0
  4 29  1  0
  4 30  1  0
  8 31  1  0
  8 32  1  0
  9 33  1  0
  9 34  1  0
 10 35  1  0
 10 36  1  0
 11 37  1  6
 15 38  1  0
 16 39  1  0
 18 40  1  0
 19 41  1  0
 21 42  1  0
 24 43  1  0
 25 44  1  0
M  END
>  <smiles>  (48) 
O=C(NCC(=O)N1CCC[C@H]1c1nnc[nH]1)c1ccc2cc(Cl)ccc2n1

>  <score_type>  (48) 
oracle

>  <origin>  (48) 
autodockgpu

>  <m_score__min__energy>  (48) 
-7.9900000000000002

>  <m_primary>  (48) 
energy

>  <rmsd>  (48) 
3.1058441332471376

>  <m_score__min__rmsd>  (48) 
3.1058441332471376

>  <meeko>  (48) 
{"free_energy": -6.39, "intermolecular_energy": -7.88, "internal_energy": -2.92, "cluster_size": 7, "cluster_id": 8, "rank_in_cluster": 7}

>  <energy>  (48) 
-5.74

>  <cluster_rmsd>  (48) 
0.28

>  <cluster>  (48) 
12

$$$$

     RDKit          3D

 44 47  0  0  0  0  0  0  0  0999 V2000
  140.5830   72.5360  220.7920 O   0  0  0  0  0  0  0  0  0  0  0  0
  140.2230   72.8990  221.9420 C   0  0  0  0  0  0  0  0  0  0  0  0
  139.8390   74.2740  222.1400 N   0  0  0  0  0  0  0  0  0  0  0  0
  139.8960   75.1340  220.9970 C   0  0  0  0  0  0  0  0  0  0  0  0
  139.8360   76.5710  221.3610 C   0  0  0  0  0  0  0  0  0  0  0  0
  139.2820   76.9940  222.4140 O   0  0  0  0  0  0  0  0  0  0  0  0
  140.4170   77.5460  220.5080 N   0  0  0  0  0  0  0  0  0  0  0  0
  139.8620   78.0030  219.2410 C   0  0  0  0  0  0  0  0  0  0  0  0
  141.1150   78.4280  218.4670 C   0  0  0  0  0  0  0  0  0  0  0  0
  141.8490   79.1750  219.5620 C   0  0  0  0  0  0  0  0  0  0  0  0
  141.6570   78.2530  220.7460 C   0  0  1  0  0  0  0  0  0  0  0  0
  141.6650   79.0030  222.0290 C   0  0  0  0  0  0  0  0  0  0  0  0
  142.7740   79.4420  222.6480 N   0  0  0  0  0  0  0  0  0  0  0  0
  142.3860   80.0650  223.7610 N   0  0  0  0  0  0  0  0  0  0  0  0
  141.0350   80.0190  223.8450 C   0  0  0  0  0  0  0  0  0  0  0  0
  140.5800   79.3510  222.7540 N   0  0  0  0  0  0  0  0  0  0  0  0
  140.1830   71.9800  223.0680 C   0  0  0  0  0  0  0  0  0  0  0  0
  139.6290   70.7290  222.8720 C   0  0  0  0  0  0  0  0  0  0  0  0
  139.5550   69.8040  223.8870 C   0  0  0  0  0  0  0  0  0  0  0  0
  140.0470   70.1320  225.1340 C   0  0  0  0  0  0  0  0  0  0  0  0
  139.9810   69.2180  226.1640 C   0  0  0  0  0  0  0  0  0  0  0  0
  140.4740   69.5560  227.4010 C   0  0  0  0  0  0  0  0  0  0  0  0
  140.4020   68.4090  228.7270 Cl  0  0  0  0  0  0  0  0  0  0  0  0
  141.0270   70.8050  227.5940 C   0  0  0  0  0  0  0  0  0  0  0  0
  141.0900   71.7190  226.5580 C   0  0  0  0  0  0  0  0  0  0  0  0
  140.6010   71.3970  225.3140 C   0  0  0  0  0  0  0  0  0  0  0  0
  140.6480   72.2630  224.2860 N   0  0  0  0  0  0  0  0  0  0  0  0
  139.5360   74.5850  223.1010 H   0  0  0  0  0  0  0  0  0  0  0  0
  140.8377   74.9454  220.4607 H   0  0  0  0  0  0  0  0  0  0  0  0
  139.0204   74.9124  220.3692 H   0  0  0  0  0  0  0  0  0  0  0  0
  139.3308   77.1908  218.7232 H   0  0  0  0  0  0  0  0  0  0  0  0
  139.1195   78.8071  219.3509 H   0  0  0  0  0  0  0  0  0  0  0  0
  141.6883   77.5608  218.1075 H   0  0  0  0  0  0  0  0  0  0  0  0
  140.9240   79.0092  217.5528 H   0  0  0  0  0  0  0  0  0  0  0  0
  142.9146   79.2979  219.3184 H   0  0  0  0  0  0  0  0  0  0  0  0
  141.4800   80.1978  219.7287 H   0  0  0  0  0  0  0  0  0  0  0  0
  142.4865   77.5369  220.8419 H   0  0  0  0  0  0  0  0  0  0  0  0
  140.4187   80.4451  224.6503 H   0  0  0  0  0  0  0  0  0  0  0  0
  139.5950   79.1250  222.4850 H   0  0  0  0  0  0  0  0  0  0  0  0
  139.2371   70.4664  221.8783 H   0  0  0  0  0  0  0  0  0  0  0  0
  139.1090   68.8147  223.7071 H   0  0  0  0  0  0  0  0  0  0  0  0
  139.5370   68.2256  225.9967 H   0  0  0  0  0  0  0  0  0  0  0  0
  141.4225   71.0772  228.5837 H   0  0  0  0  0  0  0  0  0  0  0  0
  141.5344   72.7104  226.7304 H   0  0  0  0  0  0  0  0  0  0  0  0
  1  2  2  0
  2  3  1  0
  3  4  1  0
  4  5  1  0
  5  6  2  0
  5  7  1  0
  7  8  1  0
  8  9  1  0
  9 10  1  0
 10 11  1  0
 11 12  1  0
 12 13  2  0
 13 14  1  0
 14 15  2  0
 15 16  1  0
  2 17  1  0
 17 18  2  0
 18 19  1  0
 19 20  2  0
 20 21  1  0
 21 22  2  0
 22 23  1  0
 22 24  1  0
 24 25  2  0
 25 26  1  0
 26 27  2  0
 11  7  1  0
 16 12  1  0
 27 17  1  0
 26 20  1  0
  3 28  1  0
  4 29  1  0
  4 30  1  0
  8 31  1  0
  8 32  1  0
  9 33  1  0
  9 34  1  0
 10 35  1  0
 10 36  1  0
 11 37  1  1
 15 38  1  0
 16 39  1  0
 18 40  1  0
 19 41  1  0
 21 42  1  0
 24 43  1  0
 25 44  1  0
M  END
>  <smiles>  (49) 
O=C(NCC(=O)N1CCC[C@H]1c1nnc[nH]1)c1ccc2cc(Cl)ccc2n1

>  <score_type>  (49) 
oracle

>  <origin>  (49) 
autodockgpu

>  <m_score__min__energy>  (49) 
-7.9900000000000002

>  <m_primary>  (49) 
energy

>  <rmsd>  (49) 
2.137109881272203

>  <m_score__min__rmsd>  (49) 
2.137109881272203

>  <meeko>  (49) 
{"free_energy": -7.37, "intermolecular_energy": -8.87, "internal_energy": -2.07, "cluster_size": 11, "cluster_id": 2, "rank_in_cluster": 11}

>  <energy>  (49) 
-5.7

>  <cluster_rmsd>  (49) 
0.25

>  <cluster>  (49) 
12

$$$$

     RDKit          3D

 44 47  0  0  0  0  0  0  0  0999 V2000
  136.6290   71.1070  221.6220 O   0  0  0  0  0  0  0  0  0  0  0  0
  137.3910   71.6770  222.4470 C   0  0  0  0  0  0  0  0  0  0  0  0
  137.6350   73.0890  222.2940 N   0  0  0  0  0  0  0  0  0  0  0  0
  136.9830   73.7450  221.2020 C   0  0  0  0  0  0  0  0  0  0  0  0
  137.8370   74.7800  220.5660 C   0  0  0  0  0  0  0  0  0  0  0  0
  137.8020   75.0420  219.3320 O   0  0  0  0  0  0  0  0  0  0  0  0
  138.7480   75.5320  221.3540 N   0  0  0  0  0  0  0  0  0  0  0  0
  138.3820   76.5010  222.3790 C   0  0  0  0  0  0  0  0  0  0  0  0
  139.5800   77.4570  222.3690 C   0  0  0  0  0  0  0  0  0  0  0  0
  140.7100   76.4490  222.3080 C   0  0  0  0  0  0  0  0  0  0  0  0
  140.1910   75.4680  221.2790 C   0  0  1  0  0  0  0  0  0  0  0  0
  140.7290   74.1020  221.5070 C   0  0  0  0  0  0  0  0  0  0  0  0
  140.3650   73.2990  222.5200 N   0  0  0  0  0  0  0  0  0  0  0  0
  141.0540   72.1640  222.3950 N   0  0  0  0  0  0  0  0  0  0  0  0
  141.8530   72.2520  221.3040 C   0  0  0  0  0  0  0  0  0  0  0  0
  141.6480   73.4710  220.7440 N   0  0  0  0  0  0  0  0  0  0  0  0
  138.0270   70.9590  223.5400 C   0  0  0  0  0  0  0  0  0  0  0  0
  137.6420   69.6530  223.7750 C   0  0  0  0  0  0  0  0  0  0  0  0
  138.1960   68.9070  224.7890 C   0  0  0  0  0  0  0  0  0  0  0  0
  139.1630   69.4780  225.5930 C   0  0  0  0  0  0  0  0  0  0  0  0
  139.7300   68.7460  226.6150 C   0  0  0  0  0  0  0  0  0  0  0  0
  140.6910   69.3240  227.4080 C   0  0  0  0  0  0  0  0  0  0  0  0
  141.4270   68.4130  228.7140 Cl  0  0  0  0  0  0  0  0  0  0  0  0
  141.0720   70.6280  227.1710 C   0  0  0  0  0  0  0  0  0  0  0  0
  140.5000   71.3580  226.1450 C   0  0  0  0  0  0  0  0  0  0  0  0
  139.5380   70.7950  225.3420 C   0  0  0  0  0  0  0  0  0  0  0  0
  138.9620   71.4780  224.3360 N   0  0  0  0  0  0  0  0  0  0  0  0
  138.2720   73.5730  222.9810 H   0  0  0  0  0  0  0  0  0  0  0  0
  136.7195   72.9917  220.4450 H   0  0  0  0  0  0  0  0  0  0  0  0
  136.0901   74.2486  221.6008 H   0  0  0  0  0  0  0  0  0  0  0  0
  137.4516   77.0258  222.1167 H   0  0  0  0  0  0  0  0  0  0  0  0
  138.1881   76.0488  223.3628 H   0  0  0  0  0  0  0  0  0  0  0  0
  139.5709   78.1159  221.4882 H   0  0  0  0  0  0  0  0  0  0  0  0
  139.6249   78.1573  223.2161 H   0  0  0  0  0  0  0  0  0  0  0  0
  141.6484   76.9181  221.9772 H   0  0  0  0  0  0  0  0  0  0  0  0
  140.9530   75.9914  223.2783 H   0  0  0  0  0  0  0  0  0  0  0  0
  140.5265   75.7282  220.2642 H   0  0  0  0  0  0  0  0  0  0  0  0
  142.5423   71.4764  220.9388 H   0  0  0  0  0  0  0  0  0  0  0  0
  142.0910   73.8860  219.8920 H   0  0  0  0  0  0  0  0  0  0  0  0
  136.8723   69.1980  223.1343 H   0  0  0  0  0  0  0  0  0  0  0  0
  137.8731   67.8690  224.9575 H   0  0  0  0  0  0  0  0  0  0  0  0
  139.4151   67.7073  226.7937 H   0  0  0  0  0  0  0  0  0  0  0  0
  141.8404   71.0933  227.8059 H   0  0  0  0  0  0  0  0  0  0  0  0
  140.8176   72.3966  225.9707 H   0  0  0  0  0  0  0  0  0  0  0  0
  1  2  2  0
  2  3  1  0
  3  4  1  0
  4  5  1  0
  5  6  2  0
  5  7  1  0
  7  8  1  0
  8  9  1  0
  9 10  1  0
 10 11  1  0
 11 12  1  0
 12 13  2  0
 13 14  1  0
 14 15  2  0
 15 16  1  0
  2 17  1  0
 17 18  2  0
 18 19  1  0
 19 20  2  0
 20 21  1  0
 21 22  2  0
 22 23  1  0
 22 24  1  0
 24 25  2  0
 25 26  1  0
 26 27  2  0
 11  7  1  0
 16 12  1  0
 27 17  1  0
 26 20  1  0
  3 28  1  0
  4 29  1  0
  4 30  1  0
  8 31  1  0
  8 32  1  0
  9 33  1  0
  9 34  1  0
 10 35  1  0
 10 36  1  0
 11 37  1  6
 15 38  1  0
 16 39  1  0
 18 40  1  0
 19 41  1  0
 21 42  1  0
 24 43  1  0
 25 44  1  0
M  END
>  <smiles>  (50) 
O=C(NCC(=O)N1CCC[C@H]1c1nnc[nH]1)c1ccc2cc(Cl)ccc2n1

>  <score_type>  (50) 
oracle

>  <origin>  (50) 
autodockgpu

>  <m_score__min__energy>  (50) 
-7.9900000000000002

>  <m_primary>  (50) 
energy

>  <rmsd>  (50) 
3.236617703949772

>  <m_score__min__rmsd>  (50) 
3.236617703949772

>  <meeko>  (50) 
{"free_energy": -6.71, "intermolecular_energy": -8.2, "internal_energy": -2.71, "cluster_size": 7, "cluster_id": 8, "rank_in_cluster": 3}

>  <energy>  (50) 
-5.61

>  <cluster_rmsd>  (50) 
0.19

>  <cluster>  (50) 
12

$$$$
